AV-unprocessed.smi:1725|AV-procd|sdf|6956|dock4
  -GOLD-   22720 8173D 1   1.00000     0.00000
 Structure written by MMmdl.
 35 36  0  0  0  0  0  0  0  0  2 V2000
  149.4718  140.0957  155.8387 C   0  0  0  0  0  0  0  0  0  0  0  0
  150.6216  140.0006  156.8515 C   0  0  1  0  0  0  0  0  0  0  0  0
  150.4187  141.0207  157.8255 O   0  0  0  0  0  0  0  0  0  0  0  0
  151.5707  141.3815  158.5814 C   0  0  0  0  0  0  0  0  0  0  0  0
  151.5160  142.8394  158.9996 C   0  0  0  0  0  0  0  0  0  0  0  0
  152.1815  143.9099  158.1595 C   0  0  0  0  0  0  0  0  0  0  0  0
  152.7484  143.5592  159.5087 C   0  0  0  0  0  0  0  0  0  0  0  0
  150.6556  138.6202  157.5265 C   0  0  0  0  0  0  0  0  0  0  0  0
  151.7155  137.9955  157.5722 O   0  0  0  0  0  0  0  0  0  0  0  0
  149.4808  138.1942  158.0303 N   0  0  0  0  0  0  0  0  0  0  0  0
  149.1684  136.9698  158.6441 C   0  0  0  0  0  0  0  0  0  0  0  0
  148.6176  136.8445  159.8833 C   0  0  0  0  0  0  0  0  0  0  0  0
  148.3328  135.5455  160.4807 C   0  0  0  0  0  0  0  0  0  0  0  0
  147.7218  135.3505  161.8564 C   0  0  0  0  0  0  0  0  0  0  0  0
  148.5265  135.8512  162.7932 F   0  0  0  0  0  0  0  0  0  0  0  0
  146.5524  135.9851  161.9355 F   0  0  0  0  0  0  0  0  0  0  0  0
  147.5189  134.0599  162.1215 F   0  0  0  0  0  0  0  0  0  0  0  0
  148.6924  134.4980  159.6567 C   0  0  0  0  0  0  0  0  0  0  0  0
  149.2483  134.5356  158.4256 N   0  5  0  0  0  0  0  0  0  0  0  0
  149.5123  135.7549  157.8766 C   0  0  0  0  0  0  0  0  0  0  0  0
  150.0273  135.8627  156.7629 O   0  0  0  0  0  0  0  0  0  0  0  0
  149.5652  139.3347  155.0631 H   0  0  0  0  0  0  0  0  0  0  0  0
  149.4707  141.0682  155.3467 H   0  0  0  0  0  0  0  0  0  0  0  0
  148.5008  139.9683  156.3188 H   0  0  0  0  0  0  0  0  0  0  0  0
  151.5603  140.1848  156.3250 H   0  0  0  0  0  0  0  0  0  0  0  0
  151.6592  140.7734  159.4819 H   0  0  0  0  0  0  0  0  0  0  0  0
  152.4704  141.2220  157.9859 H   0  0  0  0  0  0  0  0  0  0  0  0
  150.5745  143.1218  159.4668 H   0  0  0  0  0  0  0  0  0  0  0  0
  152.7431  143.5957  157.2817 H   0  0  0  0  0  0  0  0  0  0  0  0
  151.6664  144.8633  158.0633 H   0  0  0  0  0  0  0  0  0  0  0  0
  152.6119  144.2810  160.3113 H   0  0  0  0  0  0  0  0  0  0  0  0
  153.6900  143.0141  159.5311 H   0  0  0  0  0  0  0  0  0  0  0  0
  148.7149  138.8516  157.9992 H   0  0  0  0  0  0  0  0  0  0  0  0
  148.3942  137.7170  160.4752 H   0  0  0  0  0  0  0  0  0  0  0  0
  148.5071  133.4755  160.0497 H   0  0  0  0  0  0  0  0  0  0  0  0
  1  2  1  0  0  0  0
  1 22  1  0  0  0  0
  1 23  1  0  0  0  0
  1 24  1  0  0  0  0
  2  3  1  0  0  0  0
  2  8  1  0  0  0  0
  2 25  1  0  0  0  0
  3  4  1  0  0  0  0
  4  5  1  0  0  0  0
  4 26  1  0  0  0  0
  4 27  1  0  0  0  0
  5  7  1  0  0  0  0
  5  6  1  0  0  0  0
  5 28  1  0  0  0  0
  6  7  1  0  0  0  0
  6 29  1  0  0  0  0
  6 30  1  0  0  0  0
  7 31  1  0  0  0  0
  7 32  1  0  0  0  0
  8  9  2  0  0  0  0
  8 10  1  0  0  0  0
 10 11  1  0  0  0  0
 10 33  1  0  0  0  0
 11 20  1  0  0  0  0
 11 12  2  0  0  0  0
 12 13  1  0  0  0  0
 12 34  1  0  0  0  0
 13 14  1  0  0  0  0
 13 18  2  0  0  0  0
 14 15  1  0  0  0  0
 14 16  1  0  0  0  0
 14 17  1  0  0  0  0
 18 19  1  0  0  0  0
 18 35  1  0  0  0  0
 19 20  1  0  0  0  0
 20 21  2  0  0  0  0
M  CHG  1  19  -1
M  END
> <s_m_source_file>
AV-unprocessed.smi

> <i_m_source_file_index>
1725

> <i_lp_mmshare_version>
43012

> <i_f3d_flags>
0

> <s_epik_input>
W0NIMl0xW0NIMl1bQ0hdMVtDSDJdT1tDQEBIXShbQ0gzXSlDKD1PKVtOSF1jMltjSF1jKEMoRikoRilGKVtjSF1bbkhdYzI9Tw==

> <s_epik_cmdline>
J2VwaWtfcHl0aG9uJywgJy1waCcsICc3LjAnLCAnLXRuJywgJzgnLCAnLW1hJywgJzIwMCcsICctbWV0YWxfYmluZGluZycsICctaW1hZScsICc8aW5maWxlLm1hZT4nLCAnLW9tYWUnLCAnPG91dGZpbGUubWFlPic=

> <r_lp_tautomer_probability>
0.999

> <r_epik_Ionization_Penalty>
2.64397

> <r_epik_Ionization_Penalty_Charging>
0.0618254

> <r_epik_Ionization_Penalty_Neutral>
2.58215

> <r_epik_State_Penalty>
2.58023

> <r_epik_Charging_Adjusted_Penalty>
2.64205

> <i_epik_Tot_Q>
-1

> <i_epik_Tot_abs_Q>
1

> <r_epik_Metal_State_Penalty>
0.429101

> <b_epik_Metal_Only>
1

> <s_lp_Force_Field>
OPLS_2005

> <r_lp_Energy>
29.0368

> <b_lp_Chiralities_Consistent>
1

> <s_lp_Variant>
AV-unprocessed.smi:1725-4

> <Gold.Version>
5.8.1

> <Gold.Id.Protein>
6NUR|6NUR_protein|mol2

> <Gold.PLP.Fitness>
38.9091

> <Gold.PLP.PLP>
-34.9568

> <Gold.PLP.part.hbond>
-1.0000

> <Gold.PLP.part.metal>
0.0000

> <Gold.PLP.part.buried>
-2.5594

> <Gold.PLP.part.nonpolar>
-31.4584

> <Gold.PLP.part.repulsive>
0.1510

> <Gold.PLP.ligand.clash>
0.0000

> <Gold.PLP.ligand.torsion>
1.3480

> <Gold.PLP.Chemscore.Hbond>
2.0000

> <Gold.PLP.Chemscore.CHOScore>
0.0000

> <Gold.PLP.Chemscore.Metal>
0.0000

> <Gold.PLP.Chemscore.Internal.Correction>
0.6483

> <Gold.Rescore>
     Score         DG    S(hbond)    S(metal)    S(lipo)     H(rot)  DE(clash)    DE(int)     intcor
      8.83     -10.57       0.02        0.00      81.42       1.76       0.01       1.72       ----

> <Gold.Chemscore.Fitness>
8.8348

> <Gold.Chemscore.DG>
-10.5696

> <Gold.Chemscore.ZeroCoef>
-5.4800

> <Gold.Chemscore.Hbond>
0.0211

> <Gold.Chemscore.Metal>
0.0000

> <Gold.Chemscore.Lipo>
81.4160

> <Gold.Chemscore.Internal_Hbond>
0.0000

> <Gold.Chemscore.DEClash>
0.0148

> <Gold.Chemscore.DEInternal>
1.7200

> <Gold.Chemscore.Rot>
1.7604

> <Gold.Chemscore.Internal.Correction>
   9.000000E+99

> <Gold.Chemscore.Hbond.Weighted>
-0.0704

> <Gold.Chemscore.Metal.Weighted>
-0.0000

> <Gold.Chemscore.Lipo.Weighted>
-9.5257

> <Gold.Chemscore.Internal_Hbond.Weighted>
0.0000

> <Gold.Chemscore.DEClash.Weighted>
0.0148

> <Gold.Chemscore.DEInternal.Weighted>
1.7200

> <Gold.Chemscore.Rot.Weighted>
4.5065

> <Gold.Chemscore.Internal.Correction.Weighted>
   9.000000E+99

> <Gold.Protein.RotatedTorsions>
[ 6907 6896 6895 6894 ] final  141.77 input  -60.11 | X-H torsion
[ 7974 7965 7964 7962 ] final  137.81 input  175.53 | X-H torsion
[ 8008 7997 7996 7995 ] final  174.01 input   59.86 | X-H torsion
[ 10167 10162 10161 10158 ] final -160.24 input  -65.29 | X-H torsion
[ 10718 10713 10712 10709 ] final -121.38 input   66.30 | X-H torsion
[ 10763 10752 10751 10750 ] final  101.08 input  -60.55 | X-H torsion
[ 11005 11000 10999 10996 ] final   22.64 input  -57.11 | X-H torsion

> <Gold.Protein.ActiveResidues>
 VAL166  LYS551  ARG553  GLY616  TRP617  ASP618  TYR619  PRO620  LYS621  CYS622 
 ASP623  PHE694  ASN695  SER759  ASP760  ASP761  ALA762  ILE779  LEU786  VAL792 
 PHE793  MET794  SER795  GLU796  ALA797  LYS798  CYS799  TRP800  GLU811  SER814 

> <Gold.Protein.RotatedAtoms>
  152.2269  133.5027  159.5193 H   0  0  0  0  0  0  0  0  0  0  0  0  # atno 6907 bound_to 6896
  150.7027  134.1268  159.4064 H   0  0  0  0  0  0  0  0  0  0  0  0  # atno 6908 bound_to 6896
  151.9189  135.0307  160.0571 H   0  0  0  0  0  0  0  0  0  0  0  0  # atno 6909 bound_to 6896
  144.9432  139.4906  143.5562 H   0  0  0  0  0  0  0  0  0  0  0  0  # atno 7974 bound_to 7965
  156.1018  140.1445  156.9457 H   0  0  0  0  0  0  0  0  0  0  0  0  # atno 8008 bound_to 7997
  154.4707  140.0911  156.7183 H   0  0  0  0  0  0  0  0  0  0  0  0  # atno 8009 bound_to 7997
  155.4747  140.3443  155.4333 H   0  0  0  0  0  0  0  0  0  0  0  0  # atno 8010 bound_to 7997
  139.6554  144.0008  152.2190 H   0  0  0  0  0  0  0  0  0  0  0  0  # atno 10167 bound_to 10162
  156.1333  130.6411  150.9655 H   0  0  0  0  0  0  0  0  0  0  0  0  # atno 10718 bound_to 10713
  153.3220  135.4057  155.1425 H   0  0  0  0  0  0  0  0  0  0  0  0  # atno 10763 bound_to 10752
  154.8603  135.3590  154.5583 H   0  0  0  0  0  0  0  0  0  0  0  0  # atno 10764 bound_to 10752
  153.6017  135.7071  153.5441 H   0  0  0  0  0  0  0  0  0  0  0  0  # atno 10765 bound_to 10752
  140.3783  134.1948  155.7664 H   0  0  0  0  0  0  0  0  0  0  0  0  # atno 11005 bound_to 11000
  146.3293  139.8466  142.8881 LP  0  0  0  0  0  0  0  0  0  0  0  0  # atno 17320 bound_to 7965
  145.2959  141.0180  143.3636 LP  0  0  0  0  0  0  0  0  0  0  0  0  # atno 17321 bound_to 7965
  139.9733  144.6479  150.7969 LP  0  0  0  0  0  0  0  0  0  0  0  0  # atno 17342 bound_to 10162
  140.7557  143.3051  151.2983 LP  0  0  0  0  0  0  0  0  0  0  0  0  # atno 17343 bound_to 10162
  157.6508  131.0897  150.8054 LP  0  0  0  0  0  0  0  0  0  0  0  0  # atno 17370 bound_to 10713
  156.8137  130.4961  149.5352 LP  0  0  0  0  0  0  0  0  0  0  0  0  # atno 17371 bound_to 10713
  141.1932  133.8156  157.0809 LP  0  0  0  0  0  0  0  0  0  0  0  0  # atno 17394 bound_to 11000
  140.0498  134.9811  157.1115 LP  0  0  0  0  0  0  0  0  0  0  0  0  # atno 17395 bound_to 11000

$$$$
