AV-unprocessed.smi:598|AV-procd|sdf|3024|dock9
  -GOLD-   2262023533D 1   1.00000     0.00000
 Structure written by MMmdl.
 43 44  0  0  0  0  0  0  0  0  3 V2000
  149.9793  144.0266  159.0042 C   0  0  0  0  0  0  0  0  0  0  0  0
  151.0179  143.4241  158.0358 C   0  0  1  0  0  0  0  0  0  0  0  0
  152.4246  144.0075  158.2786 C   0  0  0  0  0  0  0  0  0  0  0  0
  153.0603  143.4711  159.5705 C   0  0  0  0  0  0  0  0  0  0  0  0
  153.1072  141.9374  159.5670 C   0  0  0  0  0  0  0  0  0  0  0  0
  151.7151  141.3187  159.3358 C   0  0  2  0  0  0  0  0  0  0  0  0
  151.8599  139.8643  159.2744 N   0  0  0  0  0  0  0  0  0  0  0  0
  152.4591  139.1715  158.2934 C   0  0  0  0  0  0  0  0  0  0  0  0
  152.9979  139.7007  157.3203 O   0  0  0  0  0  0  0  0  0  0  0  0
  152.4642  137.6453  158.4599 C   0  0  0  0  0  0  0  0  0  0  0  0
  151.1818  137.0160  158.1011 N   0  0  0  0  0  0  0  0  0  0  0  0
  150.1484  137.0759  159.0570 C   0  0  0  0  0  0  0  0  0  0  0  0
  148.9366  136.5292  158.8365 C   0  0  0  0  0  0  0  0  0  0  0  0
  147.8874  136.5991  159.8297 N   0  3  0  0  0  0  0  0  0  0  0  0
  148.1295  137.1393  160.9041 O   0  0  0  0  0  0  0  0  0  0  0  0
  146.7890  136.1165  159.5706 O   0  5  0  0  0  0  0  0  0  0  0  0
  148.7181  135.8639  157.5667 C   0  0  0  0  0  0  0  0  0  0  0  0
  149.7033  135.8012  156.6493 C   0  0  0  0  0  0  0  0  0  0  0  0
  151.0211  136.3971  156.8913 C   0  0  0  0  0  0  0  0  0  0  0  0
  151.9253  136.3428  156.0575 O   0  0  0  0  0  0  0  0  0  0  0  0
  151.0649  141.8722  158.0390 C   0  0  1  0  0  0  0  0  0  0  0  0
  149.6896  141.2462  157.7327 C   0  0  0  0  0  0  0  0  0  0  0  0
  150.1543  143.7266  160.0368 H   0  0  0  0  0  0  0  0  0  0  0  0
  148.9651  143.7269  158.7412 H   0  0  0  0  0  0  0  0  0  0  0  0
  150.0049  145.1161  158.9716 H   0  0  0  0  0  0  0  0  0  0  0  0
  150.7179  143.7385  157.0352 H   0  0  0  0  0  0  0  0  0  0  0  0
  153.0680  143.7540  157.4350 H   0  0  0  0  0  0  0  0  0  0  0  0
  152.3833  145.0969  158.3079 H   0  0  0  0  0  0  0  0  0  0  0  0
  154.0692  143.8702  159.6789 H   0  0  0  0  0  0  0  0  0  0  0  0
  152.4996  143.8209  160.4376 H   0  0  0  0  0  0  0  0  0  0  0  0
  153.7933  141.6040  158.7869 H   0  0  0  0  0  0  0  0  0  0  0  0
  153.5210  141.5829  160.5119 H   0  0  0  0  0  0  0  0  0  0  0  0
  151.0865  141.5891  160.1855 H   0  0  0  0  0  0  0  0  0  0  0  0
  151.4562  139.3405  160.0375 H   0  0  0  0  0  0  0  0  0  0  0  0
  153.2745  137.2410  157.8514 H   0  0  0  0  0  0  0  0  0  0  0  0
  152.7287  137.3942  159.4889 H   0  0  0  0  0  0  0  0  0  0  0  0
  150.4129  137.5869  159.9716 H   0  0  0  0  0  0  0  0  0  0  0  0
  147.7646  135.4091  157.3426 H   0  0  0  0  0  0  0  0  0  0  0  0
  149.5192  135.2992  155.7106 H   0  0  0  0  0  0  0  0  0  0  0  0
  151.7162  141.5861  157.2113 H   0  0  0  0  0  0  0  0  0  0  0  0
  149.0015  141.3594  158.5707 H   0  0  0  0  0  0  0  0  0  0  0  0
  149.7745  140.1802  157.5223 H   0  0  0  0  0  0  0  0  0  0  0  0
  149.2325  141.7091  156.8576 H   0  0  0  0  0  0  0  0  0  0  0  0
  1  2  1  0  0  0  0
  1 23  1  0  0  0  0
  1 24  1  0  0  0  0
  1 25  1  0  0  0  0
  2 21  1  0  0  0  0
  2  3  1  0  0  0  0
  2 26  1  0  0  0  0
  3  4  1  0  0  0  0
  3 27  1  0  0  0  0
  3 28  1  0  0  0  0
  4  5  1  0  0  0  0
  4 29  1  0  0  0  0
  4 30  1  0  0  0  0
  5  6  1  0  0  0  0
  5 31  1  0  0  0  0
  5 32  1  0  0  0  0
  6  7  1  0  0  0  0
  6 21  1  0  0  0  0
  6 33  1  0  0  0  0
  7  8  1  0  0  0  0
  7 34  1  0  0  0  0
  8  9  2  0  0  0  0
  8 10  1  0  0  0  0
 10 11  1  0  0  0  0
 10 35  1  0  0  0  0
 10 36  1  0  0  0  0
 11 19  1  0  0  0  0
 11 12  1  0  0  0  0
 12 13  2  0  0  0  0
 12 37  1  0  0  0  0
 13 14  1  0  0  0  0
 13 17  1  0  0  0  0
 14 15  2  0  0  0  0
 14 16  1  0  0  0  0
 17 18  2  0  0  0  0
 17 38  1  0  0  0  0
 18 19  1  0  0  0  0
 18 39  1  0  0  0  0
 19 20  2  0  0  0  0
 21 22  1  0  0  0  0
 21 40  1  0  0  0  0
 22 41  1  0  0  0  0
 22 42  1  0  0  0  0
 22 43  1  0  0  0  0
M  CHG  1  14   1
M  CHG  1  16  -1
M  END
> <s_m_source_file>
AV-unprocessed.smi

> <i_m_source_file_index>
598

> <i_lp_mmshare_version>
43012

> <i_f3d_flags>
0

> <s_epik_input>
W0NIM11bQ0BASF0xW0NIMl1bQ0gyXVtDSDJdW0NASF0oW0NASF0xW0NIM10pW05IXUMoPU8pW0NIMl1uMltjSF1jKFtOK10oPU8pW08tXSlbY0hdW2NIXWMyPU8=

> <s_epik_cmdline>
J2VwaWtfcHl0aG9uJywgJy1waCcsICc3LjAnLCAnLXRuJywgJzgnLCAnLW1hJywgJzIwMCcsICctbWV0YWxfYmluZGluZycsICctaW1hZScsICc8aW5maWxlLm1hZT4nLCAnLW9tYWUnLCAnPG91dGZpbGUubWFlPic=

> <r_lp_tautomer_probability>
1

> <r_epik_Ionization_Penalty>
1.91291e-08

> <r_epik_Ionization_Penalty_Charging>
8.21931e-11

> <r_epik_Ionization_Penalty_Neutral>
1.90469e-08

> <r_epik_State_Penalty>
-0

> <r_epik_Charging_Adjusted_Penalty>
8.21931e-11

> <i_epik_Tot_Q>
0

> <i_epik_Tot_abs_Q>
2

> <r_epik_Metal_State_Penalty>
-0

> <b_epik_Metal_Only>
0

> <s_lp_Force_Field>
OPLS_2005

> <r_lp_Energy>
25.417

> <b_lp_Chiralities_Consistent>
1

> <s_lp_Variant>
AV-unprocessed.smi:598-4

> <Gold.Version>
5.8.1

> <Gold.Id.Protein>
6NUR|6NUR_protein|mol2

> <Gold.PLP.Fitness>
44.1062

> <Gold.PLP.PLP>
-34.4527

> <Gold.PLP.part.hbond>
-3.9704

> <Gold.PLP.part.metal>
0.0000

> <Gold.PLP.part.buried>
-4.2470

> <Gold.PLP.part.nonpolar>
-26.6650

> <Gold.PLP.part.repulsive>
0.1798

> <Gold.PLP.ligand.clash>
0.0000

> <Gold.PLP.ligand.torsion>
0.5776

> <Gold.PLP.Chemscore.Hbond>
3.6000

> <Gold.PLP.Chemscore.CHOScore>
0.0000

> <Gold.PLP.Chemscore.Metal>
0.0000

> <Gold.Chemscore.Hbonds>
donor molecule, donor type, donor heavy atom, donor atom, acceptor molecule, acceptor atom, score
      P1  H  6931  6943       L1    15  0.94
      P1  H  6934  6947       L1    15  0.57
      P1  H  7997  8010       L1     9  1.00
      P1  H 10752 10763       L1    20  1.00

> <Gold.PLP.Chemscore.Internal.Correction>
0.0087

> <Gold.Rescore>
     Score         DG    S(hbond)    S(metal)    S(lipo)     H(rot)  DE(clash)    DE(int)     intcor
     22.77     -24.05       3.58        0.00      90.21       1.54       0.01       1.27       ----

> <Gold.Chemscore.Fitness>
22.7747

> <Gold.Chemscore.DG>
-24.0487

> <Gold.Chemscore.ZeroCoef>
-5.4800

> <Gold.Chemscore.Hbond>
3.5792

> <Gold.Chemscore.Metal>
0.0000

> <Gold.Chemscore.Lipo>
90.2129

> <Gold.Chemscore.Internal_Hbond>
0.0000

> <Gold.Chemscore.DEClash>
0.0073

> <Gold.Chemscore.DEInternal>
1.2666

> <Gold.Chemscore.Rot>
1.5393

> <Gold.Chemscore.Internal.Correction>
   9.000000E+99

> <Gold.Chemscore.Hbonds>
donor molecule, donor type, donor heavy atom, donor atom, acceptor molecule, acceptor atom, score
      P1  H  6931  6943       L1    15  0.91
      P1  H  6934  6947       L1    15  0.39
      P1  H  7997  8010       L1     9  0.97
      P1  H 10752 10763       L1    20  1.00

> <Gold.Chemscore.Hbond.Weighted>
-11.9545

> <Gold.Chemscore.Metal.Weighted>
-0.0000

> <Gold.Chemscore.Lipo.Weighted>
-10.5549

> <Gold.Chemscore.Internal_Hbond.Weighted>
0.0000

> <Gold.Chemscore.DEClash.Weighted>
0.0073

> <Gold.Chemscore.DEInternal.Weighted>
1.2666

> <Gold.Chemscore.Rot.Weighted>
3.9407

> <Gold.Chemscore.Internal.Correction.Weighted>
   9.000000E+99

> <Gold.Protein.RotatedTorsions>
[ 6907 6896 6895 6894 ] final   20.75 input  -60.11 | X-H torsion
[ 7974 7965 7964 7962 ] final   32.19 input  175.53 | X-H torsion
[ 8008 7997 7996 7995 ] final   57.15 input   59.86 | X-H torsion
[ 10167 10162 10161 10158 ] final  108.29 input  -65.29 | X-H torsion
[ 10718 10713 10712 10709 ] final -123.21 input   66.30 | X-H torsion
[ 10763 10752 10751 10750 ] final   88.35 input  -60.55 | X-H torsion
[ 11005 11000 10999 10996 ] final   14.76 input  -57.11 | X-H torsion

> <Gold.Protein.ActiveResidues>
 VAL166  LYS551  ARG553  GLY616  TRP617  ASP618  TYR619  PRO620  LYS621  CYS622 
 ASP623  PHE694  ASN695  SER759  ASP760  ASP761  ALA762  ILE779  LEU786  VAL792 
 PHE793  MET794  SER795  GLU796  ALA797  LYS798  CYS799  TRP800  GLU811  SER814 

> <Gold.Protein.RotatedAtoms>
  151.9012  135.0377  160.0506 H   0  0  0  0  0  0  0  0  0  0  0  0  # atno 6907 bound_to 6896
  152.2356  133.5089  159.5249 H   0  0  0  0  0  0  0  0  0  0  0  0  # atno 6908 bound_to 6896
  150.7038  134.1074  159.4030 H   0  0  0  0  0  0  0  0  0  0  0  0  # atno 6909 bound_to 6896
  146.1502  139.6558  142.9104 H   0  0  0  0  0  0  0  0  0  0  0  0  # atno 7974 bound_to 7965
  155.5290  140.3481  155.4422 H   0  0  0  0  0  0  0  0  0  0  0  0  # atno 8008 bound_to 7997
  156.0731  140.1368  156.9831 H   0  0  0  0  0  0  0  0  0  0  0  0  # atno 8009 bound_to 7997
  154.4539  140.0961  156.6675 H   0  0  0  0  0  0  0  0  0  0  0  0  # atno 8010 bound_to 7997
  139.6858  144.7113  151.1435 H   0  0  0  0  0  0  0  0  0  0  0  0  # atno 10167 bound_to 10162
  156.1483  130.6516  150.9875 H   0  0  0  0  0  0  0  0  0  0  0  0  # atno 10718 bound_to 10713
  153.1760  135.4510  154.9965 H   0  0  0  0  0  0  0  0  0  0  0  0  # atno 10763 bound_to 10752
  154.7998  135.3251  154.7580 H   0  0  0  0  0  0  0  0  0  0  0  0  # atno 10764 bound_to 10752
  153.8050  135.6959  153.4904 H   0  0  0  0  0  0  0  0  0  0  0  0  # atno 10765 bound_to 10752
  140.4660  134.1079  155.7724 H   0  0  0  0  0  0  0  0  0  0  0  0  # atno 11005 bound_to 11000
  145.4841  141.0438  143.2629 LP  0  0  0  0  0  0  0  0  0  0  0  0  # atno 17320 bound_to 7965
  144.7895  139.6358  143.7119 LP  0  0  0  0  0  0  0  0  0  0  0  0  # atno 17321 bound_to 7965
  140.7667  143.5631  150.9077 LP  0  0  0  0  0  0  0  0  0  0  0  0  # atno 17342 bound_to 10162
  139.9306  143.6498  152.3077 LP  0  0  0  0  0  0  0  0  0  0  0  0  # atno 17343 bound_to 10162
  157.6635  131.0876  150.7783 LP  0  0  0  0  0  0  0  0  0  0  0  0  # atno 17370 bound_to 10713
  156.7853  130.4872  149.5394 LP  0  0  0  0  0  0  0  0  0  0  0  0  # atno 17371 bound_to 10713
  141.1599  133.8812  157.1875 LP  0  0  0  0  0  0  0  0  0  0  0  0  # atno 17394 bound_to 11000
  139.9915  135.0062  156.9986 LP  0  0  0  0  0  0  0  0  0  0  0  0  # atno 17395 bound_to 11000

$$$$
