AV-unprocessed.smi:2126|AV-procd|sdf|8676|dock2
  -GOLD-   2272011423D 1   1.00000     0.00000
 Structure written by MMmdl.
 40 42  0  0  0  0  0  0  0  0  1 V2000
  147.4515  141.0682  153.9498 C   0  0  0  0  0  0  0  0  0  0  0  0
  148.1259  139.8185  153.9291 O   0  0  0  0  0  0  0  0  0  0  0  0
  149.3106  139.7096  154.6253 C   0  0  0  0  0  0  0  0  0  0  0  0
  149.9495  140.7877  155.2856 C   0  0  0  0  0  0  0  0  0  0  0  0
  151.1611  140.5841  155.9739 C   0  0  0  0  0  0  0  0  0  0  0  0
  151.7623  139.3109  156.0229 C   0  0  0  0  0  0  0  0  0  0  0  0
  152.9473  139.2032  156.7185 O   0  0  0  0  0  0  0  0  0  0  0  0
  153.2558  137.9597  157.3349 C   0  0  0  0  0  0  0  0  0  0  0  0
  152.5065  137.8687  158.6720 C   0  0  1  0  0  0  0  0  0  0  0  0
  151.9160  136.5877  158.7722 O   0  0  0  0  0  0  0  0  0  0  0  0
  153.4302  138.1134  159.8813 C   0  0  0  0  0  0  0  0  0  0  0  0
  153.7519  139.5179  160.0581 N   0  0  0  0  0  0  0  0  0  0  0  0
  154.8508  140.0351  160.6409 C   0  0  0  0  0  0  0  0  0  0  0  0
  154.9427  141.3608  160.6986 N   0  0  0  0  0  0  0  0  0  0  0  0
  153.7697  141.7496  160.0746 C   0  0  0  0  0  0  0  0  0  0  0  0
  153.2558  143.0389  159.8070 C   0  0  0  0  0  0  0  0  0  0  0  0
  152.0192  143.1919  159.1460 C   0  0  0  0  0  0  0  0  0  0  0  0
  151.2780  142.0616  158.7440 C   0  0  0  0  0  0  0  0  0  0  0  0
  151.7688  140.7669  159.0006 C   0  0  0  0  0  0  0  0  0  0  0  0
  153.0029  140.6190  159.6600 C   0  0  0  0  0  0  0  0  0  0  0  0
  151.1226  138.2326  155.3639 C   0  0  0  0  0  0  0  0  0  0  0  0
  149.9119  138.4366  154.6745 C   0  0  0  0  0  0  0  0  0  0  0  0
  146.5367  140.9925  153.3623 H   0  0  0  0  0  0  0  0  0  0  0  0
  148.0620  141.8578  153.5095 H   0  0  0  0  0  0  0  0  0  0  0  0
  147.1693  141.3531  154.9643 H   0  0  0  0  0  0  0  0  0  0  0  0
  149.5306  141.7823  155.2795 H   0  0  0  0  0  0  0  0  0  0  0  0
  151.6351  141.4175  156.4716 H   0  0  0  0  0  0  0  0  0  0  0  0
  152.9392  137.1456  156.6802 H   0  0  0  0  0  0  0  0  0  0  0  0
  154.3301  137.8625  157.5008 H   0  0  0  0  0  0  0  0  0  0  0  0
  151.6977  138.6005  158.6736 H   0  0  0  0  0  0  0  0  0  0  0  0
  152.1822  136.0765  158.0231 H   0  0  0  0  0  0  0  0  0  0  0  0
  152.9671  137.7420  160.7968 H   0  0  0  0  0  0  0  0  0  0  0  0
  154.3655  137.5657  159.7612 H   0  0  0  0  0  0  0  0  0  0  0  0
  155.6250  139.4021  161.0498 H   0  0  0  0  0  0  0  0  0  0  0  0
  153.8147  143.9117  160.1104 H   0  0  0  0  0  0  0  0  0  0  0  0
  151.6372  144.1823  158.9461 H   0  0  0  0  0  0  0  0  0  0  0  0
  150.3320  142.1890  158.2384 H   0  0  0  0  0  0  0  0  0  0  0  0
  151.2041  139.8984  158.6951 H   0  0  0  0  0  0  0  0  0  0  0  0
  151.5396  137.2373  155.3714 H   0  0  0  0  0  0  0  0  0  0  0  0
  149.4386  137.6028  154.1769 H   0  0  0  0  0  0  0  0  0  0  0  0
  1  2  1  0  0  0  0
  1 23  1  0  0  0  0
  1 24  1  0  0  0  0
  1 25  1  0  0  0  0
  2  3  1  0  0  0  0
  3 22  1  0  0  0  0
  3  4  2  0  0  0  0
  4  5  1  0  0  0  0
  4 26  1  0  0  0  0
  5  6  2  0  0  0  0
  5 27  1  0  0  0  0
  6  7  1  0  0  0  0
  6 21  1  0  0  0  0
  7  8  1  0  0  0  0
  8  9  1  0  0  0  0
  8 28  1  0  0  0  0
  8 29  1  0  0  0  0
  9 10  1  0  0  0  0
  9 11  1  0  0  0  0
  9 30  1  0  0  0  0
 10 31  1  0  0  0  0
 11 12  1  0  0  0  0
 11 32  1  0  0  0  0
 11 33  1  0  0  0  0
 12 20  1  0  0  0  0
 12 13  1  0  0  0  0
 13 14  2  0  0  0  0
 13 34  1  0  0  0  0
 14 15  1  0  0  0  0
 15 20  2  0  0  0  0
 15 16  1  0  0  0  0
 16 17  2  0  0  0  0
 16 35  1  0  0  0  0
 17 18  1  0  0  0  0
 17 36  1  0  0  0  0
 18 19  2  0  0  0  0
 18 37  1  0  0  0  0
 19 20  1  0  0  0  0
 19 38  1  0  0  0  0
 21 22  2  0  0  0  0
 21 39  1  0  0  0  0
 22 40  1  0  0  0  0
M  END
> <s_m_source_file>
AV-unprocessed.smi

> <i_m_source_file_index>
2126

> <i_lp_mmshare_version>
43012

> <i_f3d_flags>
0

> <s_epik_input>
W0NIM11PYzFbY0hdW2NIXWMoW2NIXVtjSF0xKU9bQ0gyXVtDQEhdKFtPSF0pW0NIMl1uKFtjSF1uMiljKGMyMylbY0hdW2NIXVtjSF1bY0hdMw==

> <s_epik_cmdline>
J2VwaWtfcHl0aG9uJywgJy1waCcsICc3LjAnLCAnLXRuJywgJzgnLCAnLW1hJywgJzIwMCcsICctbWV0YWxfYmluZGluZycsICctaW1hZScsICc8aW5maWxlLm1hZT4nLCAnLW9tYWUnLCAnPG91dGZpbGUubWFlPic=

> <r_lp_tautomer_probability>
1

> <r_epik_Ionization_Penalty>
0.0608933

> <r_epik_Ionization_Penalty_Charging>
0

> <r_epik_Ionization_Penalty_Neutral>
0.0608933

> <r_epik_State_Penalty>
0.0528196

> <r_epik_Charging_Adjusted_Penalty>
0.0528196

> <i_epik_Tot_Q>
0

> <i_epik_Tot_abs_Q>
0

> <r_epik_Metal_State_Penalty>
5.52429e-05

> <b_epik_Metal_Only>
0

> <s_lp_Force_Field>
OPLS_2005

> <r_lp_Energy>
17.4847

> <b_lp_Chiralities_Consistent>
1

> <s_lp_Variant>
AV-unprocessed.smi:2126-2

> <Gold.Version>
5.8.1

> <Gold.Id.Protein>
6NUR|6NUR_protein|mol2

> <Gold.PLP.Fitness>
49.0449

> <Gold.PLP.PLP>
-47.0026

> <Gold.PLP.part.hbond>
-3.0000

> <Gold.PLP.part.metal>
0.0000

> <Gold.PLP.part.buried>
-6.0743

> <Gold.PLP.part.nonpolar>
-38.1821

> <Gold.PLP.part.repulsive>
0.9247

> <Gold.PLP.ligand.clash>
0.0000

> <Gold.PLP.ligand.torsion>
1.6257

> <Gold.PLP.Chemscore.Hbond>
1.7176

> <Gold.PLP.Chemscore.CHOScore>
0.0000

> <Gold.PLP.Chemscore.Metal>
0.0000

> <Gold.Chemscore.Hbonds>
donor molecule, donor type, donor heavy atom, donor atom, acceptor molecule, acceptor atom, score
      P1  H  6896  6907       L1    10  0.65
      P1  H  7997  8010       L1     7  1.00

> <Gold.PLP.Chemscore.Internal.Correction>
0.1408

> <Gold.Rescore>
     Score         DG    S(hbond)    S(metal)    S(lipo)     H(rot)  DE(clash)    DE(int)     intcor
     15.32     -16.82       1.29        0.00     114.86       2.51       0.08       1.42       ----

> <Gold.Chemscore.Fitness>
15.3192

> <Gold.Chemscore.DG>
-16.8188

> <Gold.Chemscore.ZeroCoef>
-5.4800

> <Gold.Chemscore.Hbond>
1.2938

> <Gold.Chemscore.Metal>
0.0000

> <Gold.Chemscore.Lipo>
114.8603

> <Gold.Chemscore.Internal_Hbond>
0.0000

> <Gold.Chemscore.DEClash>
0.0756

> <Gold.Chemscore.DEInternal>
1.4239

> <Gold.Chemscore.Rot>
2.5083

> <Gold.Chemscore.Internal.Correction>
   9.000000E+99

> <Gold.Chemscore.Hbonds>
donor molecule, donor type, donor heavy atom, donor atom, acceptor molecule, acceptor atom, score
      P1  H  6896  6907       L1    10  0.13
      P1  H  7997  8010       L1     7  0.74

> <Gold.Chemscore.Hbond.Weighted>
-4.3213

> <Gold.Chemscore.Metal.Weighted>
-0.0000

> <Gold.Chemscore.Lipo.Weighted>
-13.4387

> <Gold.Chemscore.Internal_Hbond.Weighted>
0.0000

> <Gold.Chemscore.DEClash.Weighted>
0.0756

> <Gold.Chemscore.DEInternal.Weighted>
1.4239

> <Gold.Chemscore.Rot.Weighted>
6.4212

> <Gold.Chemscore.Internal.Correction.Weighted>
   9.000000E+99

> <Gold.Protein.RotatedTorsions>
[ 6907 6896 6895 6894 ] final   -9.42 input  -60.11 | X-H torsion
[ 7974 7965 7964 7962 ] final  114.89 input  175.53 | X-H torsion
[ 8008 7997 7996 7995 ] final   70.88 input   59.86 | X-H torsion
[ 10167 10162 10161 10158 ] final -177.07 input  -65.29 | X-H torsion
[ 10718 10713 10712 10709 ] final -115.90 input   66.30 | X-H torsion
[ 10763 10752 10751 10750 ] final  -72.90 input  -60.55 | X-H torsion
[ 11005 11000 10999 10996 ] final  -97.25 input  -57.11 | X-H torsion

> <Gold.Protein.ActiveResidues>
 VAL166  LYS551  ARG553  GLY616  TRP617  ASP618  TYR619  PRO620  LYS621  CYS622 
 ASP623  PHE694  ASN695  SER759  ASP760  ASP761  ALA762  ILE779  LEU786  VAL792 
 PHE793  MET794  SER795  GLU796  ALA797  LYS798  CYS799  TRP800  GLU811  SER814 

> <Gold.Protein.RotatedAtoms>
  151.4180  135.0994  159.9604 H   0  0  0  0  0  0  0  0  0  0  0  0  # atno 6907 bound_to 6896
  152.4998  133.8734  159.7320 H   0  0  0  0  0  0  0  0  0  0  0  0  # atno 6908 bound_to 6896
  150.9244  133.6784  159.2853 H   0  0  0  0  0  0  0  0  0  0  0  0  # atno 6909 bound_to 6896
  145.1987  139.2963  143.4329 H   0  0  0  0  0  0  0  0  0  0  0  0  # atno 7974 bound_to 7965
  155.7455  140.3489  155.5125 H   0  0  0  0  0  0  0  0  0  0  0  0  # atno 8008 bound_to 7997
  155.9054  140.1041  157.1340 H   0  0  0  0  0  0  0  0  0  0  0  0  # atno 8009 bound_to 7997
  154.4049  140.1278  156.4476 H   0  0  0  0  0  0  0  0  0  0  0  0  # atno 8010 bound_to 7997
  139.5498  144.2139  152.1056 H   0  0  0  0  0  0  0  0  0  0  0  0  # atno 10167 bound_to 10162
  156.0927  130.6106  150.8966 H   0  0  0  0  0  0  0  0  0  0  0  0  # atno 10718 bound_to 10713
  154.4520  135.5915  153.6198 H   0  0  0  0  0  0  0  0  0  0  0  0  # atno 10763 bound_to 10752
  152.9814  135.6023  154.3593 H   0  0  0  0  0  0  0  0  0  0  0  0  # atno 10764 bound_to 10752
  154.3455  135.2841  155.2379 H   0  0  0  0  0  0  0  0  0  0  0  0  # atno 10765 bound_to 10752
  141.1385  133.8157  157.0681 H   0  0  0  0  0  0  0  0  0  0  0  0  # atno 11005 bound_to 11000
  146.3422  140.2225  142.8591 LP  0  0  0  0  0  0  0  0  0  0  0  0  # atno 17320 bound_to 7965
  144.9969  140.8597  143.5305 LP  0  0  0  0  0  0  0  0  0  0  0  0  # atno 17321 bound_to 7965
  140.1633  144.5005  150.6620 LP  0  0  0  0  0  0  0  0  0  0  0  0  # atno 17342 bound_to 10162
  140.6757  143.2304  151.5513 LP  0  0  0  0  0  0  0  0  0  0  0  0  # atno 17343 bound_to 10162
  157.6080  131.0938  150.8845 LP  0  0  0  0  0  0  0  0  0  0  0  0  # atno 17370 bound_to 10713
  156.8990  130.5240  149.5283 LP  0  0  0  0  0  0  0  0  0  0  0  0  # atno 17371 bound_to 10713
  140.0529  134.9796  157.1168 LP  0  0  0  0  0  0  0  0  0  0  0  0  # atno 17394 bound_to 11000
  140.3963  134.2130  155.7164 LP  0  0  0  0  0  0  0  0  0  0  0  0  # atno 17395 bound_to 11000

$$$$
