AV-unprocessed.smi:2061|AV-procd|sdf|8364|dock9
  -GOLD-   2272011 33D 1   1.00000     0.00000
 Structure written by MMmdl.
 45 46  0  0  0  0  0  0  0  0  1 V2000
  150.4935  141.8819  156.2278 C   0  0  0  0  0  0  0  0  0  0  0  0
  150.2025  140.6416  155.4538 C   0  0  0  0  0  0  0  0  0  0  0  0
  149.0474  139.9618  155.1872 C   0  0  0  0  0  0  0  0  0  0  0  0
  149.4947  138.8681  154.3989 C   0  0  0  0  0  0  0  0  0  0  0  0
  148.5804  137.8996  153.9116 N   0  0  0  0  0  0  0  0  0  0  0  0
  147.3423  137.6409  154.3659 C   0  0  0  0  0  0  0  0  0  0  0  0
  146.8027  138.2101  155.3155 O   0  0  0  0  0  0  0  0  0  0  0  0
  146.7563  136.6685  153.6525 N   0  0  0  0  0  0  0  0  0  0  0  0
  145.4175  136.1297  153.8857 C   0  0  0  0  0  0  0  0  0  0  0  0
  144.6477  135.8637  152.5653 C   0  0  2  0  0  0  0  0  0  0  0  0
  143.1656  136.2456  152.7795 C   0  0  0  0  0  0  0  0  0  0  0  0
  144.8339  134.4995  152.0232 N   0  0  0  0  0  0  0  0  0  0  0  0
  146.2479  134.1311  151.9023 C   0  0  0  0  0  0  0  0  0  0  0  0
  146.4636  132.7167  151.3291 C   0  0  1  0  0  0  0  0  0  0  0  0
  146.1210  131.5973  152.3275 C   0  0  0  0  0  0  0  0  0  0  0  0
  145.7571  132.5686  150.0992 O   0  0  0  0  0  0  0  0  0  0  0  0
  144.3728  132.8978  150.1598 C   0  0  2  0  0  0  0  0  0  0  0  0
  143.7896  132.7546  148.7499 C   0  0  0  0  0  0  0  0  0  0  0  0
  144.2055  134.3249  150.7122 C   0  0  0  0  0  0  0  0  0  0  0  0
  150.8042  138.8802  154.2011 N   0  0  0  0  0  0  0  0  0  0  0  0
  151.2644  140.0167  154.8765 O   0  0  0  0  0  0  0  0  0  0  0  0
  149.6003  142.4995  156.3234 H   0  0  0  0  0  0  0  0  0  0  0  0
  151.2631  142.4765  155.7350 H   0  0  0  0  0  0  0  0  0  0  0  0
  150.8447  141.6368  157.2301 H   0  0  0  0  0  0  0  0  0  0  0  0
  148.0460  140.2088  155.5076 H   0  0  0  0  0  0  0  0  0  0  0  0
  148.9006  137.3500  153.1281 H   0  0  0  0  0  0  0  0  0  0  0  0
  147.2811  136.2540  152.8964 H   0  0  0  0  0  0  0  0  0  0  0  0
  145.4655  135.2162  154.4809 H   0  0  0  0  0  0  0  0  0  0  0  0
  144.8745  136.8315  154.5177 H   0  0  0  0  0  0  0  0  0  0  0  0
  145.0431  136.5711  151.8346 H   0  0  0  0  0  0  0  0  0  0  0  0
  143.0738  137.2003  153.2982 H   0  0  0  0  0  0  0  0  0  0  0  0
  142.6413  135.4971  153.3746 H   0  0  0  0  0  0  0  0  0  0  0  0
  142.6313  136.3609  151.8370 H   0  0  0  0  0  0  0  0  0  0  0  0
  146.7551  134.8538  151.2613 H   0  0  0  0  0  0  0  0  0  0  0  0
  146.7444  134.1744  152.8702 H   0  0  0  0  0  0  0  0  0  0  0  0
  147.5216  132.6123  151.0866 H   0  0  0  0  0  0  0  0  0  0  0  0
  146.7592  131.6562  153.2093 H   0  0  0  0  0  0  0  0  0  0  0  0
  146.2704  130.6159  151.8769 H   0  0  0  0  0  0  0  0  0  0  0  0
  145.0882  131.6545  152.6703 H   0  0  0  0  0  0  0  0  0  0  0  0
  143.8604  132.1921  150.8142 H   0  0  0  0  0  0  0  0  0  0  0  0
  142.7220  132.9756  148.7426 H   0  0  0  0  0  0  0  0  0  0  0  0
  143.9214  131.7393  148.3751 H   0  0  0  0  0  0  0  0  0  0  0  0
  144.2774  133.4339  148.0501 H   0  0  0  0  0  0  0  0  0  0  0  0
  143.1369  134.5261  150.7715 H   0  0  0  0  0  0  0  0  0  0  0  0
  144.6227  135.0438  150.0051 H   0  0  0  0  0  0  0  0  0  0  0  0
  1  2  1  0  0  0  0
  1 22  1  0  0  0  0
  1 23  1  0  0  0  0
  1 24  1  0  0  0  0
  2 21  1  0  0  0  0
  2  3  2  0  0  0  0
  3  4  1  0  0  0  0
  3 25  1  0  0  0  0
  4  5  1  0  0  0  0
  4 20  2  0  0  0  0
  5  6  1  0  0  0  0
  5 26  1  0  0  0  0
  6  7  2  0  0  0  0
  6  8  1  0  0  0  0
  8  9  1  0  0  0  0
  8 27  1  0  0  0  0
  9 10  1  0  0  0  0
  9 28  1  0  0  0  0
  9 29  1  0  0  0  0
 10 11  1  0  0  0  0
 10 12  1  0  0  0  0
 10 30  1  0  0  0  0
 11 31  1  0  0  0  0
 11 32  1  0  0  0  0
 11 33  1  0  0  0  0
 12 19  1  0  0  0  0
 12 13  1  0  0  0  0
 13 14  1  0  0  0  0
 13 34  1  0  0  0  0
 13 35  1  0  0  0  0
 14 15  1  0  0  0  0
 14 16  1  0  0  0  0
 14 36  1  0  0  0  0
 15 37  1  0  0  0  0
 15 38  1  0  0  0  0
 15 39  1  0  0  0  0
 16 17  1  0  0  0  0
 17 18  1  0  0  0  0
 17 19  1  0  0  0  0
 17 40  1  0  0  0  0
 18 41  1  0  0  0  0
 18 42  1  0  0  0  0
 18 43  1  0  0  0  0
 19 44  1  0  0  0  0
 19 45  1  0  0  0  0
 20 21  1  0  0  0  0
M  END
> <s_m_source_file>
AV-unprocessed.smi

> <i_m_source_file_index>
2061

> <i_lp_mmshare_version>
43012

> <i_f3d_flags>
0

> <s_epik_input>
W0NIM11jMVtjSF1jKG5vMSlbTkhdQyg9TylbTkhdW0NIMl1bQ0BIXShbQ0gzXSlOMltDSDJdW0NAQEhdKFtDSDNdKU9bQ0BASF0oW0NIM10pW0NIMl0y

> <s_epik_cmdline>
J2VwaWtfcHl0aG9uJywgJy1waCcsICc3LjAnLCAnLXRuJywgJzgnLCAnLW1hJywgJzIwMCcsICctbWV0YWxfYmluZGluZycsICctaW1hZScsICc8aW5maWxlLm1hZT4nLCAnLW9tYWUnLCAnPG91dGZpbGUubWFlPic=

> <r_epik_Ionization_Penalty>
0.214073

> <r_epik_Ionization_Penalty_Charging>
0

> <r_epik_Ionization_Penalty_Neutral>
0.214073

> <r_epik_State_Penalty>
0.204211

> <r_epik_Charging_Adjusted_Penalty>
0.204211

> <i_epik_Tot_Q>
0

> <i_epik_Tot_abs_Q>
0

> <r_epik_Metal_State_Penalty>
0.217067

> <b_epik_Metal_Only>
0

> <s_lp_Force_Field>
OPLS_2005

> <r_lp_Energy>
31.479

> <b_lp_Chiralities_Consistent>
1

> <s_lp_Variant>
AV-unprocessed.smi:2061-5

> <Gold.Version>
5.8.1

> <Gold.Id.Protein>
6NUR|6NUR_protein|mol2

> <Gold.PLP.Fitness>
40.5892

> <Gold.PLP.PLP>
-33.3809

> <Gold.PLP.part.hbond>
-3.1726

> <Gold.PLP.part.metal>
0.0000

> <Gold.PLP.part.buried>
-6.1928

> <Gold.PLP.part.nonpolar>
-25.2312

> <Gold.PLP.part.repulsive>
0.5728

> <Gold.PLP.ligand.clash>
0.0000

> <Gold.PLP.ligand.torsion>
0.7084

> <Gold.PLP.Chemscore.Hbond>
2.8620

> <Gold.PLP.Chemscore.CHOScore>
0.0000

> <Gold.PLP.Chemscore.Metal>
0.0000

> <Gold.Chemscore.Hbonds>
donor molecule, donor type, donor heavy atom, donor atom, acceptor molecule, acceptor atom, score
      L1  H     5    26       P1  7948  1.00
      L1  H     8    27       P1  7948  0.96
      P1  H  7989  7998       L1    21  0.75

> <Gold.PLP.Chemscore.Internal.Correction>
0.0390

> <Gold.Rescore>
     Score         DG    S(hbond)    S(metal)    S(lipo)     H(rot)  DE(clash)    DE(int)     intcor
     15.27     -17.41       1.99        0.00      79.12       1.55       0.08       2.06       ----

> <Gold.Chemscore.Fitness>
15.2651

> <Gold.Chemscore.DG>
-17.4115

> <Gold.Chemscore.ZeroCoef>
-5.4800

> <Gold.Chemscore.Hbond>
1.9868

> <Gold.Chemscore.Metal>
0.0000

> <Gold.Chemscore.Lipo>
79.1182

> <Gold.Chemscore.Internal_Hbond>
0.0000

> <Gold.Chemscore.DEClash>
0.0837

> <Gold.Chemscore.DEInternal>
2.0626

> <Gold.Chemscore.Rot>
1.5474

> <Gold.Chemscore.Internal.Correction>
   9.000000E+99

> <Gold.Chemscore.Hbonds>
donor molecule, donor type, donor heavy atom, donor atom, acceptor molecule, acceptor atom, score
      L1  H     5    26       P1  7948  1.00
      L1  H     8    27       P1  7948  0.91
      P1  H  7989  7998       L1    21  0.06

> <Gold.Chemscore.Hbond.Weighted>
-6.6359

> <Gold.Chemscore.Metal.Weighted>
-0.0000

> <Gold.Chemscore.Lipo.Weighted>
-9.2568

> <Gold.Chemscore.Internal_Hbond.Weighted>
0.0000

> <Gold.Chemscore.DEClash.Weighted>
0.0837

> <Gold.Chemscore.DEInternal.Weighted>
2.0626

> <Gold.Chemscore.Rot.Weighted>
3.9612

> <Gold.Chemscore.Internal.Correction.Weighted>
   9.000000E+99

> <Gold.Protein.RotatedTorsions>
[ 6907 6896 6895 6894 ] final   30.62 input  -60.11 | X-H torsion
[ 7974 7965 7964 7962 ] final  -17.52 input  175.53 | X-H torsion
[ 8008 7997 7996 7995 ] final  -59.64 input   59.86 | X-H torsion
[ 10167 10162 10161 10158 ] final   21.13 input  -65.29 | X-H torsion
[ 10718 10713 10712 10709 ] final  128.28 input   66.30 | X-H torsion
[ 10763 10752 10751 10750 ] final  -39.45 input  -60.55 | X-H torsion
[ 11005 11000 10999 10996 ] final  -37.52 input  -57.11 | X-H torsion

> <Gold.Protein.ActiveResidues>
 VAL166  LYS551  ARG553  GLY616  TRP617  ASP618  TYR619  PRO620  LYS621  CYS622 
 ASP623  PHE694  ASN695  SER759  ASP760  ASP761  ALA762  ILE779  LEU786  VAL792 
 PHE793  MET794  SER795  GLU796  ALA797  LYS798  CYS799  TRP800  GLU811  SER814 

> <Gold.Protein.RotatedAtoms>
  152.0485  134.9668  160.0574 H   0  0  0  0  0  0  0  0  0  0  0  0  # atno 6907 bound_to 6896
  152.1078  133.4279  159.4625 H   0  0  0  0  0  0  0  0  0  0  0  0  # atno 6908 bound_to 6896
  150.6842  134.2603  159.4590 H   0  0  0  0  0  0  0  0  0  0  0  0  # atno 6909 bound_to 6896
  146.1937  140.3791  142.8448 H   0  0  0  0  0  0  0  0  0  0  0  0  # atno 7974 bound_to 7965
  154.4362  140.1057  156.6148 H   0  0  0  0  0  0  0  0  0  0  0  0  # atno 8008 bound_to 7997
  155.5771  140.3490  155.4511 H   0  0  0  0  0  0  0  0  0  0  0  0  # atno 8009 bound_to 7997
  156.0346  140.1268  157.0210 H   0  0  0  0  0  0  0  0  0  0  0  0  # atno 8010 bound_to 7997
  140.5451  143.9609  150.6542 H   0  0  0  0  0  0  0  0  0  0  0  0  # atno 10167 bound_to 10162
  157.5258  131.1098  150.9084 H   0  0  0  0  0  0  0  0  0  0  0  0  # atno 10718 bound_to 10713
  153.9296  135.6773  153.4746 H   0  0  0  0  0  0  0  0  0  0  0  0  # atno 10763 bound_to 10752
  153.0987  135.4839  154.8823 H   0  0  0  0  0  0  0  0  0  0  0  0  # atno 10764 bound_to 10752
  154.7435  135.3166  154.8643 H   0  0  0  0  0  0  0  0  0  0  0  0  # atno 10765 bound_to 10752
  140.9958  133.6981  156.1932 H   0  0  0  0  0  0  0  0  0  0  0  0  # atno 11005 bound_to 11000
  144.8537  140.7039  143.6152 LP  0  0  0  0  0  0  0  0  0  0  0  0  # atno 17320 bound_to 7965
  145.3712  139.1658  143.4331 LP  0  0  0  0  0  0  0  0  0  0  0  0  # atno 17321 bound_to 7965
  140.3020  143.3254  152.0962 LP  0  0  0  0  0  0  0  0  0  0  0  0  # atno 17342 bound_to 10162
  139.5004  144.6691  151.6287 LP  0  0  0  0  0  0  0  0  0  0  0  0  # atno 17343 bound_to 10162
  156.9681  130.5480  149.5289 LP  0  0  0  0  0  0  0  0  0  0  0  0  # atno 17370 bound_to 10713
  156.0386  130.5471  150.8715 LP  0  0  0  0  0  0  0  0  0  0  0  0  # atno 17371 bound_to 10713
  140.6968  134.4607  157.5587 LP  0  0  0  0  0  0  0  0  0  0  0  0  # atno 17394 bound_to 11000
  139.9014  134.8548  156.1881 LP  0  0  0  0  0  0  0  0  0  0  0  0  # atno 17395 bound_to 11000

$$$$
