AV-unprocessed.smi:1945|AV-procd|sdf|7859|dock5
  -GOLD-   2272010 03D 1   1.00000     0.00000
 Structure written by MMmdl.
 47 48  0  0  0  0  0  0  0  0  1 V2000
  143.8090  132.5111  149.3053 C   0  0  0  0  0  0  0  0  0  0  0  0
  144.5696  133.3822  150.2607 C   0  0  0  0  0  0  0  0  0  0  0  0
  145.8743  133.1710  150.7931 C   0  0  0  0  0  0  0  0  0  0  0  0
  146.0528  134.2640  151.5966 C   0  0  0  0  0  0  0  0  0  0  0  0
  147.1288  134.5909  152.3601 N   0  0  0  0  0  0  0  0  0  0  0  0
  147.2728  134.4768  153.6914 C   0  0  0  0  0  0  0  0  0  0  0  0
  146.4746  133.9267  154.4505 O   0  0  0  0  0  0  0  0  0  0  0  0
  148.4002  135.0715  154.1080 N   0  0  0  0  0  0  0  0  0  0  0  0
  148.7625  135.2866  155.5053 C   0  0  0  0  0  0  0  0  0  0  0  0
  150.0695  136.0864  155.6141 C   0  0  0  0  0  0  0  0  0  0  0  0
  149.7643  137.4724  155.5868 O   0  0  0  0  0  0  0  0  0  0  0  0
  150.3167  138.1911  154.4912 C   0  0  2  0  0  0  0  0  0  0  0  0
  151.8484  138.0570  154.5775 C   0  0  0  0  0  0  0  0  0  0  0  0
  152.4164  138.7540  155.8259 C   0  0  0  0  0  0  0  0  0  0  0  0
  151.9872  140.2276  155.8870 C   0  0  0  0  0  0  0  0  0  0  0  0
  150.4586  140.3678  155.8129 C   0  0  0  0  0  0  0  0  0  0  0  0
  149.8885  139.6783  154.5568 C   0  0  2  0  0  0  0  0  0  0  0  0
  148.3684  139.8714  154.4451 C   0  0  0  0  0  0  0  0  0  0  0  0
  144.9265  135.0560  151.5271 N   0  0  0  0  0  0  0  0  0  0  0  0
  144.6216  136.3120  152.1856 C   0  0  0  0  0  0  0  0  0  0  0  0
  144.0123  134.5046  150.7005 N   0  0  0  0  0  0  0  0  0  0  0  0
  144.3754  131.6143  149.0536 H   0  0  0  0  0  0  0  0  0  0  0  0
  143.5964  133.0404  148.3762 H   0  0  0  0  0  0  0  0  0  0  0  0
  142.8589  132.1932  149.7348 H   0  0  0  0  0  0  0  0  0  0  0  0
  146.5488  132.3495  150.6034 H   0  0  0  0  0  0  0  0  0  0  0  0
  147.8729  135.0670  151.8725 H   0  0  0  0  0  0  0  0  0  0  0  0
  149.0061  135.4838  153.4140 H   0  0  0  0  0  0  0  0  0  0  0  0
  147.9578  135.7839  156.0492 H   0  0  0  0  0  0  0  0  0  0  0  0
  148.8937  134.3096  155.9707 H   0  0  0  0  0  0  0  0  0  0  0  0
  150.5821  135.8510  156.5476 H   0  0  0  0  0  0  0  0  0  0  0  0
  150.7399  135.8135  154.7980 H   0  0  0  0  0  0  0  0  0  0  0  0
  149.9932  137.7582  153.5425 H   0  0  0  0  0  0  0  0  0  0  0  0
  152.1302  137.0037  154.5793 H   0  0  0  0  0  0  0  0  0  0  0  0
  152.2998  138.4929  153.6855 H   0  0  0  0  0  0  0  0  0  0  0  0
  152.0738  138.2372  156.7235 H   0  0  0  0  0  0  0  0  0  0  0  0
  153.5042  138.6839  155.8271 H   0  0  0  0  0  0  0  0  0  0  0  0
  152.3580  140.6847  156.8050 H   0  0  0  0  0  0  0  0  0  0  0  0
  152.4445  140.7757  155.0623 H   0  0  0  0  0  0  0  0  0  0  0  0
  150.0090  139.9405  156.7098 H   0  0  0  0  0  0  0  0  0  0  0  0
  150.1912  141.4250  155.8125 H   0  0  0  0  0  0  0  0  0  0  0  0
  150.3275  140.1747  153.6900 H   0  0  0  0  0  0  0  0  0  0  0  0
  147.8461  139.4440  155.3003 H   0  0  0  0  0  0  0  0  0  0  0  0
  147.9777  139.4003  153.5430 H   0  0  0  0  0  0  0  0  0  0  0  0
  148.1120  140.9300  154.4010 H   0  0  0  0  0  0  0  0  0  0  0  0
  145.4031  136.5741  152.8988 H   0  0  0  0  0  0  0  0  0  0  0  0
  143.6751  136.2267  152.7203 H   0  0  0  0  0  0  0  0  0  0  0  0
  144.5410  137.1051  151.4420 H   0  0  0  0  0  0  0  0  0  0  0  0
  1  2  1  0  0  0  0
  1 22  1  0  0  0  0
  1 23  1  0  0  0  0
  1 24  1  0  0  0  0
  2 21  2  0  0  0  0
  2  3  1  0  0  0  0
  3  4  2  0  0  0  0
  3 25  1  0  0  0  0
  4  5  1  0  0  0  0
  4 19  1  0  0  0  0
  5  6  1  0  0  0  0
  5 26  1  0  0  0  0
  6  7  2  0  0  0  0
  6  8  1  0  0  0  0
  8  9  1  0  0  0  0
  8 27  1  0  0  0  0
  9 10  1  0  0  0  0
  9 28  1  0  0  0  0
  9 29  1  0  0  0  0
 10 11  1  0  0  0  0
 10 30  1  0  0  0  0
 10 31  1  0  0  0  0
 11 12  1  0  0  0  0
 12 17  1  0  0  0  0
 12 13  1  0  0  0  0
 12 32  1  0  0  0  0
 13 14  1  0  0  0  0
 13 33  1  0  0  0  0
 13 34  1  0  0  0  0
 14 15  1  0  0  0  0
 14 35  1  0  0  0  0
 14 36  1  0  0  0  0
 15 16  1  0  0  0  0
 15 37  1  0  0  0  0
 15 38  1  0  0  0  0
 16 17  1  0  0  0  0
 16 39  1  0  0  0  0
 16 40  1  0  0  0  0
 17 18  1  0  0  0  0
 17 41  1  0  0  0  0
 18 42  1  0  0  0  0
 18 43  1  0  0  0  0
 18 44  1  0  0  0  0
 19 20  1  0  0  0  0
 19 21  1  0  0  0  0
 20 45  1  0  0  0  0
 20 46  1  0  0  0  0
 20 47  1  0  0  0  0
M  END
> <s_m_source_file>
AV-unprocessed.smi

> <i_m_source_file_index>
1945

> <i_lp_mmshare_version>
43012

> <i_f3d_flags>
0

> <s_epik_input>
W0NIM11jMVtjSF1jKG4objEpW0NIM10pW05IXUMoPU8pW05IXVtDSDJdW0NIMl1PW0NAQEhdMltDSDJdW0NIMl1bQ0gyXVtDSDJdW0NASF0yW0NIM10=

> <s_epik_cmdline>
J2VwaWtfcHl0aG9uJywgJy1waCcsICc3LjAnLCAnLXRuJywgJzgnLCAnLW1hJywgJzIwMCcsICctbWV0YWxfYmluZGluZycsICctaW1hZScsICc8aW5maWxlLm1hZT4nLCAnLW9tYWUnLCAnPG91dGZpbGUubWFlPic=

> <r_lp_tautomer_probability>
1

> <r_epik_Ionization_Penalty>
9.47735e-05

> <r_epik_Ionization_Penalty_Charging>
0

> <r_epik_Ionization_Penalty_Neutral>
9.47735e-05

> <r_epik_State_Penalty>
-0

> <r_epik_Charging_Adjusted_Penalty>
0

> <i_epik_Tot_Q>
0

> <i_epik_Tot_abs_Q>
0

> <r_epik_Metal_State_Penalty>
-0

> <b_epik_Metal_Only>
0

> <s_lp_Force_Field>
OPLS_2005

> <r_lp_Energy>
12.3815

> <b_lp_Chiralities_Consistent>
1

> <s_lp_Variant>
AV-unprocessed.smi:1945-3

> <Gold.Version>
5.8.1

> <Gold.Id.Protein>
6NUR|6NUR_protein|mol2

> <Gold.PLP.Fitness>
39.7664

> <Gold.PLP.PLP>
-36.7447

> <Gold.PLP.part.hbond>
-1.9138

> <Gold.PLP.part.metal>
0.0000

> <Gold.PLP.part.buried>
-2.1045

> <Gold.PLP.part.nonpolar>
-32.5497

> <Gold.PLP.part.repulsive>
0.3867

> <Gold.PLP.ligand.clash>
0.0000

> <Gold.PLP.ligand.torsion>
1.2549

> <Gold.PLP.Chemscore.Hbond>
1.8400

> <Gold.PLP.Chemscore.CHOScore>
0.0000

> <Gold.PLP.Chemscore.Metal>
0.0000

> <Gold.Chemscore.Hbonds>
donor molecule, donor type, donor heavy atom, donor atom, acceptor molecule, acceptor atom, score
      L1  H     5    26       P1  7948  1.00
      L1  H     8    27       P1  7948  0.85

> <Gold.PLP.Chemscore.Internal.Correction>
0.0115

> <Gold.Rescore>
     Score         DG    S(hbond)    S(metal)    S(lipo)     H(rot)  DE(clash)    DE(int)     intcor
     16.18     -17.58       1.84        0.00      86.67       1.63       0.16       1.25       ----

> <Gold.Chemscore.Fitness>
16.1763

> <Gold.Chemscore.DG>
-17.5795

> <Gold.Chemscore.ZeroCoef>
-5.4800

> <Gold.Chemscore.Hbond>
1.8372

> <Gold.Chemscore.Metal>
0.0000

> <Gold.Chemscore.Lipo>
86.6680

> <Gold.Chemscore.Internal_Hbond>
0.0000

> <Gold.Chemscore.DEClash>
0.1567

> <Gold.Chemscore.DEInternal>
1.2466

> <Gold.Chemscore.Rot>
1.6316

> <Gold.Chemscore.Internal.Correction>
   9.000000E+99

> <Gold.Chemscore.Hbonds>
donor molecule, donor type, donor heavy atom, donor atom, acceptor molecule, acceptor atom, score
      L1  H     5    26       P1  7948  0.59
      L1  H     8    27       P1  7948  0.54

> <Gold.Chemscore.Hbond.Weighted>
-6.1362

> <Gold.Chemscore.Metal.Weighted>
-0.0000

> <Gold.Chemscore.Lipo.Weighted>
-10.1402

> <Gold.Chemscore.Internal_Hbond.Weighted>
0.0000

> <Gold.Chemscore.DEClash.Weighted>
0.1567

> <Gold.Chemscore.DEInternal.Weighted>
1.2466

> <Gold.Chemscore.Rot.Weighted>
4.1768

> <Gold.Chemscore.Internal.Correction.Weighted>
   9.000000E+99

> <Gold.Protein.RotatedTorsions>
[ 6907 6896 6895 6894 ] final  153.94 input  -60.11 | X-H torsion
[ 7974 7965 7964 7962 ] final   17.38 input  175.53 | X-H torsion
[ 8008 7997 7996 7995 ] final  -14.42 input   59.86 | X-H torsion
[ 10167 10162 10161 10158 ] final  -97.48 input  -65.29 | X-H torsion
[ 10718 10713 10712 10709 ] final   37.33 input   66.30 | X-H torsion
[ 10763 10752 10751 10750 ] final  129.05 input  -60.55 | X-H torsion
[ 11005 11000 10999 10996 ] final -110.96 input  -57.11 | X-H torsion

> <Gold.Protein.ActiveResidues>
 VAL166  LYS551  ARG553  GLY616  TRP617  ASP618  TYR619  PRO620  LYS621  CYS622 
 ASP623  PHE694  ASN695  SER759  ASP760  ASP761  ALA762  ILE779  LEU786  VAL792 
 PHE793  MET794  SER795  GLU796  ALA797  LYS798  CYS799  TRP800  GLU811  SER814 

> <Gold.Protein.RotatedAtoms>
  152.0656  133.4082  159.4436 H   0  0  0  0  0  0  0  0  0  0  0  0  # atno 6907 bound_to 6896
  150.6865  134.3151  159.4772 H   0  0  0  0  0  0  0  0  0  0  0  0  # atno 6908 bound_to 6896
  152.0977  134.9363  160.0621 H   0  0  0  0  0  0  0  0  0  0  0  0  # atno 6909 bound_to 6896
  146.2220  139.8610  142.8605 H   0  0  0  0  0  0  0  0  0  0  0  0  # atno 7974 bound_to 7965
  154.5212  140.2223  155.8973 H   0  0  0  0  0  0  0  0  0  0  0  0  # atno 8008 bound_to 7997
  156.1663  140.3131  155.8860 H   0  0  0  0  0  0  0  0  0  0  0  0  # atno 8009 bound_to 7997
  155.3649  140.0463  157.3037 H   0  0  0  0  0  0  0  0  0  0  0  0  # atno 8010 bound_to 7997
  140.2829  143.3270  152.0423 H   0  0  0  0  0  0  0  0  0  0  0  0  # atno 10167 bound_to 10162
  157.3456  130.7571  149.6942 H   0  0  0  0  0  0  0  0  0  0  0  0  # atno 10718 bound_to 10713
  153.7354  135.3232  155.3294 H   0  0  0  0  0  0  0  0  0  0  0  0  # atno 10763 bound_to 10752
  154.8312  135.4532  154.1079 H   0  0  0  0  0  0  0  0  0  0  0  0  # atno 10764 bound_to 10752
  153.2239  135.6951  153.8049 H   0  0  0  0  0  0  0  0  0  0  0  0  # atno 10765 bound_to 10752
  141.0762  133.9297  157.2385 H   0  0  0  0  0  0  0  0  0  0  0  0  # atno 11005 bound_to 11000
  145.2704  141.0107  143.3775 LP  0  0  0  0  0  0  0  0  0  0  0  0  # atno 17320 bound_to 7965
  144.9228  139.4391  143.6533 LP  0  0  0  0  0  0  0  0  0  0  0  0  # atno 17321 bound_to 7965
  139.4958  144.6579  151.6532 LP  0  0  0  0  0  0  0  0  0  0  0  0  # atno 17342 bound_to 10162
  140.5796  143.9968  150.6261 LP  0  0  0  0  0  0  0  0  0  0  0  0  # atno 17343 bound_to 10162
  155.9714  130.4155  150.4186 LP  0  0  0  0  0  0  0  0  0  0  0  0  # atno 17370 bound_to 10713
  157.2240  131.0489  151.2530 LP  0  0  0  0  0  0  0  0  0  0  0  0  # atno 17371 bound_to 10713
  139.9574  135.0162  156.9167 LP  0  0  0  0  0  0  0  0  0  0  0  0  # atno 17394 bound_to 11000
  140.5568  134.0573  155.7386 LP  0  0  0  0  0  0  0  0  0  0  0  0  # atno 17395 bound_to 11000

$$$$
