AV-unprocessed.smi:3331|AV-procd|sdf|12821|dock6
  -GOLD-   2272019193D 1   1.00000     0.00000
 Structure written by MMmdl.
 47 48  0  0  0  0  0  0  0  0  2 V2000
  151.1753  144.7787  159.1905 C   0  0  0  0  0  0  0  0  0  0  0  0
  151.6013  143.4431  159.8154 C   0  0  2  0  0  0  0  0  0  0  0  0
  152.3141  143.6529  161.1699 C   0  0  0  0  0  0  0  0  0  0  0  0
  152.8626  142.3331  161.7575 C   0  0  2  0  0  0  0  0  0  0  0  0
  153.6738  142.5801  163.0369 C   0  0  0  0  0  0  0  0  0  0  0  0
  153.6901  141.5776  160.6957 C   0  0  0  0  0  0  0  0  0  0  0  0
  152.8488  141.3604  159.5115 N   0  0  0  0  0  0  0  0  0  0  0  0
  152.3633  140.1378  159.1785 C   0  0  0  0  0  0  0  0  0  0  0  0
  152.6991  139.1168  159.7819 O   0  0  0  0  0  0  0  0  0  0  0  0
  151.3596  139.9935  158.0138 C   0  0  1  0  0  0  0  0  0  0  0  0
  151.9478  139.0923  156.9153 C   0  0  0  0  0  0  0  0  0  0  0  0
  150.0664  139.4286  158.4672 N   0  3  0  0  0  0  0  0  0  0  0  0
  150.1253  138.0359  158.9613 C   0  0  0  0  0  0  0  0  0  0  0  0
  148.8232  137.2885  158.6436 C   0  0  0  0  0  0  0  0  0  0  0  0
  148.2606  136.6648  159.8251 N   0  0  0  0  0  0  0  0  0  0  0  0
  147.9879  135.3311  160.0446 C   0  0  0  0  0  0  0  0  0  0  0  0
  147.4625  135.2260  161.3004 C   0  0  0  0  0  0  0  0  0  0  0  0
  147.4525  136.5669  161.7763 C   0  0  0  0  0  0  0  0  0  0  0  0
  147.9319  137.4259  160.8908 N   0  0  0  0  0  0  0  0  0  0  0  0
  152.5080  142.6347  158.8660 C   0  0  0  0  0  0  0  0  0  0  0  0
  152.0383  145.4102  158.9769 H   0  0  0  0  0  0  0  0  0  0  0  0
  150.5159  145.3321  159.8597 H   0  0  0  0  0  0  0  0  0  0  0  0
  150.6384  144.6214  158.2547 H   0  0  0  0  0  0  0  0  0  0  0  0
  150.6963  142.8605  159.9960 H   0  0  0  0  0  0  0  0  0  0  0  0
  153.1404  144.3522  161.0334 H   0  0  0  0  0  0  0  0  0  0  0  0
  151.6320  144.1213  161.8804 H   0  0  0  0  0  0  0  0  0  0  0  0
  152.0105  141.7069  162.0263 H   0  0  0  0  0  0  0  0  0  0  0  0
  154.5510  143.1967  162.8378 H   0  0  0  0  0  0  0  0  0  0  0  0
  154.0184  141.6410  163.4708 H   0  0  0  0  0  0  0  0  0  0  0  0
  153.0724  143.0893  163.7904 H   0  0  0  0  0  0  0  0  0  0  0  0
  154.5701  142.1588  160.4159 H   0  0  0  0  0  0  0  0  0  0  0  0
  154.0756  140.6477  161.1160 H   0  0  0  0  0  0  0  0  0  0  0  0
  151.1307  140.9699  157.5875 H   0  0  0  0  0  0  0  0  0  0  0  0
  152.8960  139.4773  156.5391 H   0  0  0  0  0  0  0  0  0  0  0  0
  151.2687  139.0192  156.0653 H   0  0  0  0  0  0  0  0  0  0  0  0
  152.1266  138.0807  157.2825 H   0  0  0  0  0  0  0  0  0  0  0  0
  149.7232  140.0042  159.2228 H   0  0  0  0  0  0  0  0  0  0  0  0
  150.9671  137.5147  158.5041 H   0  0  0  0  0  0  0  0  0  0  0  0
  150.3000  138.0449  160.0382 H   0  0  0  0  0  0  0  0  0  0  0  0
  148.0813  137.9697  158.2238 H   0  0  0  0  0  0  0  0  0  0  0  0
  149.0029  136.5146  157.8960 H   0  0  0  0  0  0  0  0  0  0  0  0
  148.1874  134.5762  159.2984 H   0  0  0  0  0  0  0  0  0  0  0  0
  147.1337  134.3281  161.8023 H   0  0  0  0  0  0  0  0  0  0  0  0
  147.1135  136.9384  162.7322 H   0  0  0  0  0  0  0  0  0  0  0  0
  152.0385  142.5212  157.8910 H   0  0  0  0  0  0  0  0  0  0  0  0
  153.4268  143.1892  158.6680 H   0  0  0  0  0  0  0  0  0  0  0  0
  149.4112  139.4792  157.6998 H   0  0  0  0  0  0  0  0  0  0  0  0
  1  2  1  0  0  0  0
  1 21  1  0  0  0  0
  1 22  1  0  0  0  0
  1 23  1  0  0  0  0
  2 20  1  0  0  0  0
  2  3  1  0  0  0  0
  2 24  1  0  0  0  0
  3  4  1  0  0  0  0
  3 25  1  0  0  0  0
  3 26  1  0  0  0  0
  4  5  1  0  0  0  0
  4  6  1  0  0  0  0
  4 27  1  0  0  0  0
  5 28  1  0  0  0  0
  5 29  1  0  0  0  0
  5 30  1  0  0  0  0
  6  7  1  0  0  0  0
  6 31  1  0  0  0  0
  6 32  1  0  0  0  0
  7  8  1  0  0  0  0
  7 20  1  0  0  0  0
  8  9  2  0  0  0  0
  8 10  1  0  0  0  0
 10 11  1  0  0  0  0
 10 12  1  0  0  0  0
 10 33  1  0  0  0  0
 11 34  1  0  0  0  0
 11 35  1  0  0  0  0
 11 36  1  0  0  0  0
 12 13  1  0  0  0  0
 12 37  1  0  0  0  0
 12 47  1  0  0  0  0
 13 14  1  0  0  0  0
 13 38  1  0  0  0  0
 13 39  1  0  0  0  0
 14 15  1  0  0  0  0
 14 40  1  0  0  0  0
 14 41  1  0  0  0  0
 15 19  1  0  0  0  0
 15 16  1  0  0  0  0
 16 17  2  0  0  0  0
 16 42  1  0  0  0  0
 17 18  1  0  0  0  0
 17 43  1  0  0  0  0
 18 19  2  0  0  0  0
 18 44  1  0  0  0  0
 20 45  1  0  0  0  0
 20 46  1  0  0  0  0
M  CHG  1  12   1
M  END
> <s_m_source_file>
AV-unprocessed.smi

> <i_m_source_file_index>
3331

> <i_lp_mmshare_version>
43012

> <i_f3d_flags>
0

> <s_epik_input>
W0NIM11bQ0BASF0xW0NIMl1bQ0BASF0oW0NIM10pW0NIMl1OKFtDSDJdMSlDKD1PKVtDQEhdKFtDSDNdKVtOSF1bQ0gyXVtDSDJdbjJbY0hdW2NIXVtjSF1uMg==

> <s_epik_cmdline>
J2VwaWtfcHl0aG9uJywgJy1waCcsICc3LjAnLCAnLXRuJywgJzgnLCAnLW1hJywgJzIwMCcsICctbWV0YWxfYmluZGluZycsICctaW1hZScsICc8aW5maWxlLm1hZT4nLCAnLW9tYWUnLCAnPG91dGZpbGUubWFlPic=

> <r_lp_tautomer_probability>
1

> <r_epik_Ionization_Penalty>
0.189706

> <r_epik_Ionization_Penalty_Charging>
0.189703

> <r_epik_Ionization_Penalty_Neutral>
2.45875e-06

> <r_epik_State_Penalty>
0.179341

> <r_epik_Charging_Adjusted_Penalty>
0.369044

> <i_epik_Tot_Q>
1

> <i_epik_Tot_abs_Q>
1

> <r_epik_Metal_State_Penalty>
0.179578

> <b_epik_Metal_Only>
0

> <s_lp_Force_Field>
OPLS_2005

> <r_lp_Energy>
26.0913

> <b_lp_Chiralities_Consistent>
1

> <s_lp_Variant>
AV-unprocessed.smi:3331-5

> <Gold.Version>
5.8.1

> <Gold.Id.Protein>
6NUR|6NUR_protein|mol2

> <Gold.PLP.Fitness>
49.7856

> <Gold.PLP.PLP>
-46.3372

> <Gold.PLP.part.hbond>
-2.0000

> <Gold.PLP.part.metal>
0.0000

> <Gold.PLP.part.buried>
-5.2270

> <Gold.PLP.part.nonpolar>
-40.0860

> <Gold.PLP.part.repulsive>
0.1816

> <Gold.PLP.ligand.clash>
0.0000

> <Gold.PLP.ligand.torsion>
0.5976

> <Gold.PLP.Chemscore.Hbond>
1.5360

> <Gold.PLP.Chemscore.CHOScore>
0.0000

> <Gold.PLP.Chemscore.Metal>
0.0000

> <Gold.Chemscore.Hbonds>
donor molecule, donor type, donor heavy atom, donor atom, acceptor molecule, acceptor atom, score
      P1  H  6931  6943       L1    19  0.73
      P1  H  6934  6947       L1    19  0.74

> <Gold.PLP.Chemscore.Internal.Correction>
0.0357

> <Gold.Rescore>
     Score         DG    S(hbond)    S(metal)    S(lipo)     H(rot)  DE(clash)    DE(int)     intcor
     17.57     -19.49       1.44        0.00     116.23       1.73       0.07       1.84       ----

> <Gold.Chemscore.Fitness>
17.5739

> <Gold.Chemscore.DG>
-19.4883

> <Gold.Chemscore.ZeroCoef>
-5.4800

> <Gold.Chemscore.Hbond>
1.4450

> <Gold.Chemscore.Metal>
0.0000

> <Gold.Chemscore.Lipo>
116.2324

> <Gold.Chemscore.Internal_Hbond>
0.0000

> <Gold.Chemscore.DEClash>
0.0707

> <Gold.Chemscore.DEInternal>
1.8437

> <Gold.Chemscore.Rot>
1.7254

> <Gold.Chemscore.Internal.Correction>
   9.000000E+99

> <Gold.Chemscore.Hbonds>
donor molecule, donor type, donor heavy atom, donor atom, acceptor molecule, acceptor atom, score
      P1  H  6931  6943       L1    19  0.17
      P1  H  6934  6947       L1    19  0.65

> <Gold.Chemscore.Hbond.Weighted>
-4.8261

> <Gold.Chemscore.Metal.Weighted>
-0.0000

> <Gold.Chemscore.Lipo.Weighted>
-13.5992

> <Gold.Chemscore.Internal_Hbond.Weighted>
0.0000

> <Gold.Chemscore.DEClash.Weighted>
0.0707

> <Gold.Chemscore.DEInternal.Weighted>
1.8437

> <Gold.Chemscore.Rot.Weighted>
4.4170

> <Gold.Chemscore.Internal.Correction.Weighted>
   9.000000E+99

> <Gold.Protein.RotatedTorsions>
[ 6907 6896 6895 6894 ] final    5.33 input  -60.11 | X-H torsion
[ 7974 7965 7964 7962 ] final  -60.07 input  175.53 | X-H torsion
[ 8008 7997 7996 7995 ] final  -70.51 input   59.86 | X-H torsion
[ 10167 10162 10161 10158 ] final   29.19 input  -65.29 | X-H torsion
[ 10718 10713 10712 10709 ] final   82.59 input   66.30 | X-H torsion
[ 10763 10752 10751 10750 ] final   52.89 input  -60.55 | X-H torsion
[ 11005 11000 10999 10996 ] final  -50.53 input  -57.11 | X-H torsion

> <Gold.Protein.ActiveResidues>
 VAL166  LYS551  ARG553  GLY616  TRP617  ASP618  TYR619  PRO620  LYS621  CYS622 
 ASP623  PHE694  ASN695  SER759  ASP760  ASP761  ALA762  ILE779  LEU786  VAL792 
 PHE793  MET794  SER795  GLU796  ALA797  LYS798  CYS799  TRP800  GLU811  SER814 

> <Gold.Protein.RotatedAtoms>
  151.6558  135.0996  160.0169 H   0  0  0  0  0  0  0  0  0  0  0  0  # atno 6907 bound_to 6896
  152.3975  133.6764  159.6297 H   0  0  0  0  0  0  0  0  0  0  0  0  # atno 6908 bound_to 6896
  150.7879  133.8766  159.3315 H   0  0  0  0  0  0  0  0  0  0  0  0  # atno 6909 bound_to 6896
  145.8200  140.8546  143.0138 H   0  0  0  0  0  0  0  0  0  0  0  0  # atno 7974 bound_to 7965
  154.5017  140.0833  156.7812 H   0  0  0  0  0  0  0  0  0  0  0  0  # atno 8008 bound_to 7997
  155.3987  140.3436  155.4237 H   0  0  0  0  0  0  0  0  0  0  0  0  # atno 8009 bound_to 7997
  156.1465  140.1545  156.8826 H   0  0  0  0  0  0  0  0  0  0  0  0  # atno 8010 bound_to 7997
  140.4788  144.0649  150.6259 H   0  0  0  0  0  0  0  0  0  0  0  0  # atno 10167 bound_to 10162
  157.6860  131.0054  150.2397 H   0  0  0  0  0  0  0  0  0  0  0  0  # atno 10718 bound_to 10713
  152.9791  135.5797  154.4652 H   0  0  0  0  0  0  0  0  0  0  0  0  # atno 10763 bound_to 10752
  154.4222  135.2772  155.1970 H   0  0  0  0  0  0  0  0  0  0  0  0  # atno 10764 bound_to 10752
  154.3714  135.6167  153.5795 H   0  0  0  0  0  0  0  0  0  0  0  0  # atno 10765 bound_to 10752
  141.0821  133.6651  156.3745 H   0  0  0  0  0  0  0  0  0  0  0  0  # atno 11005 bound_to 11000
  144.6748  140.0519  143.7478 LP  0  0  0  0  0  0  0  0  0  0  0  0  # atno 17320 bound_to 7965
  145.9686  139.2852  143.1113 LP  0  0  0  0  0  0  0  0  0  0  0  0  # atno 17321 bound_to 7965
  140.3885  143.2765  152.0088 LP  0  0  0  0  0  0  0  0  0  0  0  0  # atno 17342 bound_to 10162
  139.4830  144.6097  151.7456 LP  0  0  0  0  0  0  0  0  0  0  0  0  # atno 17343 bound_to 10162
  156.3014  130.3759  149.7747 LP  0  0  0  0  0  0  0  0  0  0  0  0  # atno 17370 bound_to 10713
  156.5376  130.8285  151.3258 LP  0  0  0  0  0  0  0  0  0  0  0  0  # atno 17371 bound_to 10713
  140.5445  134.6088  157.5389 LP  0  0  0  0  0  0  0  0  0  0  0  0  # atno 17394 bound_to 11000
  139.9636  134.7411  156.0185 LP  0  0  0  0  0  0  0  0  0  0  0  0  # atno 17395 bound_to 11000

$$$$
