AV-unprocessed.smi:3234|AV-procd|sdf|12352|dock9
  -GOLD-   2272018213D 1   1.00000     0.00000
 Structure written by MMmdl.
 38 40  0  0  0  0  0  0  0  0  3 V2000
  145.3732  138.5309  153.2245 O   0  0  0  0  0  0  0  0  0  0  0  0
  146.4384  138.0602  152.8284 C   0  0  0  0  0  0  0  0  0  0  0  0
  147.6553  138.6023  153.0144 N   0  0  0  0  0  0  0  0  0  0  0  0
  148.0247  139.8014  153.6878 C   0  0  0  0  0  0  0  0  0  0  0  0
  147.0821  140.8543  153.6818 C   0  0  0  0  0  0  0  0  0  0  0  0
  147.3860  142.0695  154.3287 C   0  0  0  0  0  0  0  0  0  0  0  0
  148.5754  142.2212  154.9483 N   0  3  0  0  0  0  0  0  0  0  0  0
  149.5100  141.2476  154.9803 C   0  0  0  0  0  0  0  0  0  0  0  0
  149.2624  140.0104  154.3507 C   0  0  0  0  0  0  0  0  0  0  0  0
  146.5191  136.9129  152.1394 N   0  0  0  0  0  0  0  0  0  0  0  0
  145.3754  136.0810  151.7793 C   0  0  2  0  0  0  0  0  0  0  0  0
  144.3018  135.9762  152.8581 C   0  0  0  0  0  0  0  0  0  0  0  0
  143.5504  134.7013  152.4582 C   0  0  0  0  0  0  0  0  0  0  0  0
  144.5196  133.8429  151.7318 N   0  3  1  0  0  0  0  0  0  0  0  0
  143.9940  133.3069  150.4572 C   0  0  0  0  0  0  0  0  0  0  0  0
  143.8210  131.8067  150.4585 C   0  0  0  0  0  0  0  0  0  0  0  0
  144.9797  132.4359  149.7154 C   0  0  0  0  0  0  0  0  0  0  0  0
  145.7701  134.6189  151.5764 C   0  0  0  0  0  0  0  0  0  0  0  0
  148.4252  138.0887  152.6114 H   0  0  0  0  0  0  0  0  0  0  0  0
  146.1293  140.7361  153.1860 H   0  0  0  0  0  0  0  0  0  0  0  0
  146.7185  142.9178  154.3680 H   0  0  0  0  0  0  0  0  0  0  0  0
  150.4240  141.4854  155.5047 H   0  0  0  0  0  0  0  0  0  0  0  0
  150.0334  139.2582  154.3940 H   0  0  0  0  0  0  0  0  0  0  0  0
  147.4305  136.5933  151.8447 H   0  0  0  0  0  0  0  0  0  0  0  0
  144.9259  136.4542  150.8564 H   0  0  0  0  0  0  0  0  0  0  0  0
  144.7609  135.8461  153.8396 H   0  0  0  0  0  0  0  0  0  0  0  0
  143.6529  136.8518  152.9017 H   0  0  0  0  0  0  0  0  0  0  0  0
  143.1389  134.1807  153.3234 H   0  0  0  0  0  0  0  0  0  0  0  0
  142.7155  134.9630  151.8058 H   0  0  0  0  0  0  0  0  0  0  0  0
  143.2994  133.9441  149.9122 H   0  0  0  0  0  0  0  0  0  0  0  0
  144.0465  131.2623  151.3738 H   0  0  0  0  0  0  0  0  0  0  0  0
  143.0106  131.3947  149.8606 H   0  0  0  0  0  0  0  0  0  0  0  0
  144.9321  132.4378  148.6283 H   0  0  0  0  0  0  0  0  0  0  0  0
  145.9755  132.3099  150.1367 H   0  0  0  0  0  0  0  0  0  0  0  0
  146.2590  134.4483  150.6158 H   0  0  0  0  0  0  0  0  0  0  0  0
  146.4609  134.2987  152.3580 H   0  0  0  0  0  0  0  0  0  0  0  0
  144.7342  133.0510  152.3210 H   0  0  0  0  0  0  0  0  0  0  0  0
  148.7770  143.1083  155.4106 H   0  0  0  0  0  0  0  0  0  0  0  0
  1  2  2  0  0  0  0
  2  3  1  0  0  0  0
  2 10  1  0  0  0  0
  3  4  1  0  0  0  0
  3 19  1  0  0  0  0
  4  9  1  0  0  0  0
  4  5  2  0  0  0  0
  5  6  1  0  0  0  0
  5 20  1  0  0  0  0
  6  7  2  0  0  0  0
  6 21  1  0  0  0  0
  7  8  1  0  0  0  0
  7 38  1  0  0  0  0
  8  9  2  0  0  0  0
  8 22  1  0  0  0  0
  9 23  1  0  0  0  0
 10 11  1  0  0  0  0
 10 24  1  0  0  0  0
 11 18  1  0  0  0  0
 11 12  1  0  0  0  0
 11 25  1  0  0  0  0
 12 13  1  0  0  0  0
 12 26  1  0  0  0  0
 12 27  1  0  0  0  0
 13 14  1  0  0  0  0
 13 28  1  0  0  0  0
 13 29  1  0  0  0  0
 14 15  1  0  0  0  0
 14 18  1  0  0  0  0
 14 37  1  0  0  0  0
 15 17  1  0  0  0  0
 15 16  1  0  0  0  0
 15 30  1  0  0  0  0
 16 17  1  0  0  0  0
 16 31  1  0  0  0  0
 16 32  1  0  0  0  0
 17 33  1  0  0  0  0
 17 34  1  0  0  0  0
 18 35  1  0  0  0  0
 18 36  1  0  0  0  0
M  CHG  1   7   1
M  CHG  1  14   1
M  END
> <s_m_source_file>
AV-unprocessed.smi

> <i_m_source_file_index>
3234

> <i_lp_mmshare_version>
43012

> <i_f3d_flags>
0

> <s_epik_input>
W2NIXTFbY0hdbltjSF1bY0hdYzFbTkhdQyg9TylbTkhdW0NAQEhdMltDSDJdW0NIMl1OKFtDSDJdMilbQ0hdM1tDSDJdW0NIMl0z

> <s_epik_cmdline>
J2VwaWtfcHl0aG9uJywgJy1waCcsICc3LjAnLCAnLXRuJywgJzgnLCAnLW1hJywgJzIwMCcsICctbWV0YWxfYmluZGluZycsICctaW1hZScsICc8aW5maWxlLm1hZT4nLCAnLW9tYWUnLCAnPG91dGZpbGUubWFlPic=

> <r_epik_Ionization_Penalty>
1.14489

> <r_epik_Ionization_Penalty_Charging>
1.14487

> <r_epik_Ionization_Penalty_Neutral>
1.95212e-05

> <r_epik_State_Penalty>
1.205

> <r_epik_Charging_Adjusted_Penalty>
2.34987

> <i_epik_Tot_Q>
2

> <i_epik_Tot_abs_Q>
2

> <r_epik_Metal_State_Penalty>
1.28709

> <b_epik_Metal_Only>
0

> <s_lp_Force_Field>
OPLS_2005

> <r_lp_Energy>
49.761

> <b_lp_Chiralities_Consistent>
1

> <s_lp_Variant>
AV-unprocessed.smi:3234-5

> <Gold.Version>
5.8.1

> <Gold.Id.Protein>
6NUR|6NUR_protein|mol2

> <Gold.PLP.Fitness>
44.2440

> <Gold.PLP.PLP>
-33.8539

> <Gold.PLP.part.hbond>
-3.9507

> <Gold.PLP.part.metal>
0.0000

> <Gold.PLP.part.buried>
-4.4478

> <Gold.PLP.part.nonpolar>
-30.3089

> <Gold.PLP.part.repulsive>
3.9599

> <Gold.PLP.ligand.clash>
0.0000

> <Gold.PLP.ligand.torsion>
1.2563

> <Gold.PLP.Chemscore.Hbond>
3.8794

> <Gold.PLP.Chemscore.CHOScore>
0.0000

> <Gold.PLP.Chemscore.Metal>
0.0000

> <Gold.Chemscore.Hbonds>
donor molecule, donor type, donor heavy atom, donor atom, acceptor molecule, acceptor atom, score
      L1  H     3    19       P1  7948  0.84
      L1  H     7    38       P1  8028  2.00
      L1  H    10    24       P1  7948  1.00

> <Gold.PLP.Chemscore.Internal.Correction>
1.2645

> <Gold.Rescore>
     Score         DG    S(hbond)    S(metal)    S(lipo)     H(rot)  DE(clash)    DE(int)     intcor
     16.23     -21.61       2.90        0.00      81.87       1.22       1.45       3.94       ----

> <Gold.Chemscore.Fitness>
16.2274

> <Gold.Chemscore.DG>
-21.6118

> <Gold.Chemscore.ZeroCoef>
-5.4800

> <Gold.Chemscore.Hbond>
2.9006

> <Gold.Chemscore.Metal>
0.0000

> <Gold.Chemscore.Lipo>
81.8738

> <Gold.Chemscore.Internal_Hbond>
0.0000

> <Gold.Chemscore.DEClash>
1.4456

> <Gold.Chemscore.DEInternal>
3.9389

> <Gold.Chemscore.Rot>
1.2248

> <Gold.Chemscore.Internal.Correction>
   9.000000E+99

> <Gold.Chemscore.Hbonds>
donor molecule, donor type, donor heavy atom, donor atom, acceptor molecule, acceptor atom, score
      L1  H     3    19       P1  7948  0.79
      L1  H     7    38       P1  8028  0.99
      L1  H    10    24       P1  7948  0.94

> <Gold.Chemscore.Hbond.Weighted>
-9.6880

> <Gold.Chemscore.Metal.Weighted>
-0.0000

> <Gold.Chemscore.Lipo.Weighted>
-9.5792

> <Gold.Chemscore.Internal_Hbond.Weighted>
0.0000

> <Gold.Chemscore.DEClash.Weighted>
1.4456

> <Gold.Chemscore.DEInternal.Weighted>
3.9389

> <Gold.Chemscore.Rot.Weighted>
3.1355

> <Gold.Chemscore.Internal.Correction.Weighted>
   9.000000E+99

> <Gold.Protein.RotatedTorsions>
[ 6907 6896 6895 6894 ] final  115.15 input  -60.11 | X-H torsion
[ 7974 7965 7964 7962 ] final   94.17 input  175.53 | X-H torsion
[ 8008 7997 7996 7995 ] final  -87.31 input   59.86 | X-H torsion
[ 10167 10162 10161 10158 ] final   -6.15 input  -65.29 | X-H torsion
[ 10718 10713 10712 10709 ] final  -25.57 input   66.30 | X-H torsion
[ 10763 10752 10751 10750 ] final   12.80 input  -60.55 | X-H torsion
[ 11005 11000 10999 10996 ] final   -4.99 input  -57.11 | X-H torsion

> <Gold.Protein.ActiveResidues>
 VAL166  LYS551  ARG553  GLY616  TRP617  ASP618  TYR619  PRO620  LYS621  CYS622 
 ASP623  PHE694  ASN695  SER759  ASP760  ASP761  ALA762  ILE779  LEU786  VAL792 
 PHE793  MET794  SER795  GLU796  ALA797  LYS798  CYS799  TRP800  GLU811  SER814 

> <Gold.Protein.RotatedAtoms>
  152.4759  133.8138  159.7017 H   0  0  0  0  0  0  0  0  0  0  0  0  # atno 6907 bound_to 6896
  150.8776  133.7407  159.2948 H   0  0  0  0  0  0  0  0  0  0  0  0  # atno 6908 bound_to 6896
  151.4921  135.1061  159.9858 H   0  0  0  0  0  0  0  0  0  0  0  0  # atno 6909 bound_to 6896
  145.4691  139.2283  143.2945 H   0  0  0  0  0  0  0  0  0  0  0  0  # atno 7974 bound_to 7965
  154.6618  140.0567  157.0071 H   0  0  0  0  0  0  0  0  0  0  0  0  # atno 8008 bound_to 7997
  155.1217  140.3248  155.4477 H   0  0  0  0  0  0  0  0  0  0  0  0  # atno 8009 bound_to 7997
  156.2621  140.1996  156.6339 H   0  0  0  0  0  0  0  0  0  0  0  0  # atno 8010 bound_to 7997
  140.6987  143.6227  150.8597 H   0  0  0  0  0  0  0  0  0  0  0  0  # atno 10167 bound_to 10162
  156.4626  130.4507  149.6919 H   0  0  0  0  0  0  0  0  0  0  0  0  # atno 10718 bound_to 10713
  153.1785  135.6824  153.8510 H   0  0  0  0  0  0  0  0  0  0  0  0  # atno 10763 bound_to 10752
  153.7850  135.3177  155.3372 H   0  0  0  0  0  0  0  0  0  0  0  0  # atno 10764 bound_to 10752
  154.8044  135.4757  154.0451 H   0  0  0  0  0  0  0  0  0  0  0  0  # atno 10765 bound_to 10752
  140.6863  133.9110  155.8588 H   0  0  0  0  0  0  0  0  0  0  0  0  # atno 11005 bound_to 11000
  146.2407  140.5467  142.8935 LP  0  0  0  0  0  0  0  0  0  0  0  0  # atno 17320 bound_to 7965
  144.7956  140.6116  143.6512 LP  0  0  0  0  0  0  0  0  0  0  0  0  # atno 17321 bound_to 7965
  139.9947  143.5809  152.2897 LP  0  0  0  0  0  0  0  0  0  0  0  0  # atno 17342 bound_to 10162
  139.6477  144.7659  151.2211 LP  0  0  0  0  0  0  0  0  0  0  0  0  # atno 17343 bound_to 10162
  156.3701  130.7526  151.2508 LP  0  0  0  0  0  0  0  0  0  0  0  0  # atno 17370 bound_to 10713
  157.7497  131.0325  150.4231 LP  0  0  0  0  0  0  0  0  0  0  0  0  # atno 17371 bound_to 10713
  141.0277  134.0800  157.4049 LP  0  0  0  0  0  0  0  0  0  0  0  0  # atno 17394 bound_to 11000
  139.8936  135.0131  156.6910 LP  0  0  0  0  0  0  0  0  0  0  0  0  # atno 17395 bound_to 11000

$$$$
