AV-unprocessed.smi:3217|AV-procd|sdf|12289|dock2
  -GOLD-   2272018133D 1   1.00000     0.00000
 Structure written by MMmdl.
 34 35  0  0  0  0  0  0  0  0  1 V2000
  144.2570  136.2699  152.0266 C   0  0  0  0  0  0  0  0  0  0  0  0
  145.2667  135.5642  152.9449 C   0  0  2  0  0  0  0  0  0  0  0  0
  146.4907  136.3611  152.9967 N   0  0  0  0  0  0  0  0  0  0  0  0
  146.6389  137.5371  153.6234 C   0  0  0  0  0  0  0  0  0  0  0  0
  145.7331  138.1064  154.2314 O   0  0  0  0  0  0  0  0  0  0  0  0
  147.8907  138.0042  153.4770 N   0  0  0  0  0  0  0  0  0  0  0  0
  148.4552  139.2078  153.9804 C   0  0  0  0  0  0  0  0  0  0  0  0
  147.6341  140.3535  154.0211 C   0  0  0  0  0  0  0  0  0  0  0  0
  148.1679  141.5650  154.4998 C   0  0  0  0  0  0  0  0  0  0  0  0
  149.5137  141.5859  154.9135 C   0  0  0  0  0  0  0  0  0  0  0  0
  150.3184  140.5034  154.8675 N   0  0  0  0  0  0  0  0  0  0  0  0
  149.7992  139.3440  154.4089 C   0  0  0  0  0  0  0  0  0  0  0  0
  145.6055  134.1404  152.4626 C   0  0  2  0  0  0  0  0  0  0  0  0
  146.3344  134.0750  151.1185 C   0  0  0  0  0  0  0  0  0  0  0  0
  145.9388  132.7194  150.5513 C   0  0  0  0  0  0  0  0  0  0  0  0
  144.7979  132.2526  151.4578 C   0  0  0  0  0  0  0  0  0  0  0  0
  144.4200  133.4084  152.1897 O   0  0  0  0  0  0  0  0  0  0  0  0
  143.3102  135.7308  151.9875 H   0  0  0  0  0  0  0  0  0  0  0  0
  144.6363  136.3516  151.0074 H   0  0  0  0  0  0  0  0  0  0  0  0
  144.0413  137.2775  152.3835 H   0  0  0  0  0  0  0  0  0  0  0  0
  144.8197  135.4913  153.9379 H   0  0  0  0  0  0  0  0  0  0  0  0
  147.2950  135.9772  152.5230 H   0  0  0  0  0  0  0  0  0  0  0  0
  148.4998  137.4557  152.8880 H   0  0  0  0  0  0  0  0  0  0  0  0
  146.6056  140.3070  153.6934 H   0  0  0  0  0  0  0  0  0  0  0  0
  147.5610  142.4569  154.5478 H   0  0  0  0  0  0  0  0  0  0  0  0
  149.9569  142.4977  155.2858 H   0  0  0  0  0  0  0  0  0  0  0  0
  150.4987  138.5237  154.3734 H   0  0  0  0  0  0  0  0  0  0  0  0
  146.1810  133.6063  153.2218 H   0  0  0  0  0  0  0  0  0  0  0  0
  145.9762  134.8629  150.4546 H   0  0  0  0  0  0  0  0  0  0  0  0
  147.4137  134.1895  151.2228 H   0  0  0  0  0  0  0  0  0  0  0  0
  145.6101  132.8183  149.5162 H   0  0  0  0  0  0  0  0  0  0  0  0
  146.7677  132.0112  150.5744 H   0  0  0  0  0  0  0  0  0  0  0  0
  143.9559  131.8444  150.8985 H   0  0  0  0  0  0  0  0  0  0  0  0
  145.1482  131.4882  152.1530 H   0  0  0  0  0  0  0  0  0  0  0  0
  1  2  1  0  0  0  0
  1 18  1  0  0  0  0
  1 19  1  0  0  0  0
  1 20  1  0  0  0  0
  2  3  1  0  0  0  0
  2 13  1  0  0  0  0
  2 21  1  0  0  0  0
  3  4  1  0  0  0  0
  3 22  1  0  0  0  0
  4  5  2  0  0  0  0
  4  6  1  0  0  0  0
  6  7  1  0  0  0  0
  6 23  1  0  0  0  0
  7 12  1  0  0  0  0
  7  8  2  0  0  0  0
  8  9  1  0  0  0  0
  8 24  1  0  0  0  0
  9 10  2  0  0  0  0
  9 25  1  0  0  0  0
 10 11  1  0  0  0  0
 10 26  1  0  0  0  0
 11 12  2  0  0  0  0
 12 27  1  0  0  0  0
 13 17  1  0  0  0  0
 13 14  1  0  0  0  0
 13 28  1  0  0  0  0
 14 15  1  0  0  0  0
 14 29  1  0  0  0  0
 14 30  1  0  0  0  0
 15 16  1  0  0  0  0
 15 31  1  0  0  0  0
 15 32  1  0  0  0  0
 16 17  1  0  0  0  0
 16 33  1  0  0  0  0
 16 34  1  0  0  0  0
M  END
> <s_m_source_file>
AV-unprocessed.smi

> <i_m_source_file_index>
3217

> <i_lp_mmshare_version>
43012

> <i_f3d_flags>
0

> <s_epik_input>
TzFbQ0gyXVtDSDJdW0NIMl1bQ0BIXTFbQ0BIXShbQ0gzXSlbTkhdQyg9TylbTkhdYzJbY0hdW2NIXVtjSF1uW2NIXTI=

> <s_epik_cmdline>
J2VwaWtfcHl0aG9uJywgJy1waCcsICc3LjAnLCAnLXRuJywgJzgnLCAnLW1hJywgJzIwMCcsICctbWV0YWxfYmluZGluZycsICctaW1hZScsICc8aW5maWxlLm1hZT4nLCAnLW9tYWUnLCAnPG91dGZpbGUubWFlPic=

> <r_epik_Ionization_Penalty>
0.00475451

> <r_epik_Ionization_Penalty_Charging>
0

> <r_epik_Ionization_Penalty_Neutral>
0.00475451

> <r_epik_State_Penalty>
0.00341814

> <r_epik_Charging_Adjusted_Penalty>
0.00341814

> <i_epik_Tot_Q>
0

> <i_epik_Tot_abs_Q>
0

> <r_epik_Metal_State_Penalty>
-0

> <b_epik_Metal_Only>
0

> <s_lp_Force_Field>
OPLS_2005

> <r_lp_Energy>
20.3997

> <b_lp_Chiralities_Consistent>
1

> <s_lp_Variant>
AV-unprocessed.smi:3217-1

> <Gold.Version>
5.8.1

> <Gold.Id.Protein>
6NUR|6NUR_protein|mol2

> <Gold.PLP.Fitness>
37.8039

> <Gold.PLP.PLP>
-26.8557

> <Gold.PLP.part.hbond>
-3.0000

> <Gold.PLP.part.metal>
0.0000

> <Gold.PLP.part.buried>
-2.7680

> <Gold.PLP.part.nonpolar>
-21.2341

> <Gold.PLP.part.repulsive>
0.3538

> <Gold.PLP.ligand.clash>
0.0000

> <Gold.PLP.ligand.torsion>
0.4694

> <Gold.PLP.Chemscore.Hbond>
2.9680

> <Gold.PLP.Chemscore.CHOScore>
0.9844

> <Gold.PLP.Chemscore.Metal>
0.0000

> <Gold.Chemscore.Hbonds>
donor molecule, donor type, donor heavy atom, donor atom, acceptor molecule, acceptor atom, score
      L1  H     3    22       P1  7948  0.99
      L1  H     6    23       P1  7948  1.00
      P1  H  7989  7998       L1    11  0.98
      L1  C    10    26       P1  8028  0.98

> <Gold.PLP.Chemscore.Internal.Correction>
0.0298

> <Gold.Rescore>
     Score         DG    S(hbond)    S(metal)    S(lipo)     H(rot)  DE(clash)    DE(int)     intcor
     15.74     -17.40       2.13        0.00      67.93       1.22       0.01       1.65       ----

> <Gold.Chemscore.Fitness>
15.7383

> <Gold.Chemscore.DG>
-17.4009

> <Gold.Chemscore.ZeroCoef>
-5.4800

> <Gold.Chemscore.Hbond>
2.1276

> <Gold.Chemscore.Metal>
0.0000

> <Gold.Chemscore.Lipo>
67.9268

> <Gold.Chemscore.Internal_Hbond>
0.0000

> <Gold.Chemscore.DEClash>
0.0086

> <Gold.Chemscore.DEInternal>
1.6540

> <Gold.Chemscore.Rot>
1.2236

> <Gold.Chemscore.Internal.Correction>
   9.000000E+99

> <Gold.Chemscore.Hbonds>
donor molecule, donor type, donor heavy atom, donor atom, acceptor molecule, acceptor atom, score
      L1  H     3    22       P1  7948  0.93
      L1  H     6    23       P1  7948  0.99
      P1  H  7989  7998       L1    11  0.14

> <Gold.Chemscore.Hbond.Weighted>
-7.1060

> <Gold.Chemscore.Metal.Weighted>
-0.0000

> <Gold.Chemscore.Lipo.Weighted>
-7.9474

> <Gold.Chemscore.Internal_Hbond.Weighted>
0.0000

> <Gold.Chemscore.DEClash.Weighted>
0.0086

> <Gold.Chemscore.DEInternal.Weighted>
1.6540

> <Gold.Chemscore.Rot.Weighted>
3.1325

> <Gold.Chemscore.Internal.Correction.Weighted>
   9.000000E+99

> <Gold.Protein.RotatedTorsions>
[ 6907 6896 6895 6894 ] final  130.74 input  -60.11 | X-H torsion
[ 7974 7965 7964 7962 ] final  162.42 input  175.53 | X-H torsion
[ 8008 7997 7996 7995 ] final   68.42 input   59.86 | X-H torsion
[ 10167 10162 10161 10158 ] final  167.96 input  -65.29 | X-H torsion
[ 10718 10713 10712 10709 ] final -111.16 input   66.30 | X-H torsion
[ 10763 10752 10751 10750 ] final  -86.36 input  -60.55 | X-H torsion
[ 11005 11000 10999 10996 ] final -163.36 input  -57.11 | X-H torsion

> <Gold.Protein.ActiveResidues>
 VAL166  LYS551  ARG553  GLY616  TRP617  ASP618  TYR619  PRO620  LYS621  CYS622 
 ASP623  PHE694  ASN695  SER759  ASP760  ASP761  ALA762  ILE779  LEU786  VAL792 
 PHE793  MET794  SER795  GLU796  ALA797  LYS798  CYS799  TRP800  GLU811  SER814 

> <Gold.Protein.RotatedAtoms>
  152.3496  133.6164  159.5935 H   0  0  0  0  0  0  0  0  0  0  0  0  # atno 6907 bound_to 6896
  150.7529  133.9594  159.3520 H   0  0  0  0  0  0  0  0  0  0  0  0  # atno 6908 bound_to 6896
  151.7448  135.0847  160.0372 H   0  0  0  0  0  0  0  0  0  0  0  0  # atno 6909 bound_to 6896
  144.7638  139.8037  143.6323 H   0  0  0  0  0  0  0  0  0  0  0  0  # atno 7974 bound_to 7965
  155.7080  140.3494  155.4961 H   0  0  0  0  0  0  0  0  0  0  0  0  # atno 8008 bound_to 7997
  155.9381  140.1096  157.1100 H   0  0  0  0  0  0  0  0  0  0  0  0  # atno 8009 bound_to 7997
  154.4097  140.1218  156.4878 H   0  0  0  0  0  0  0  0  0  0  0  0  # atno 8010 bound_to 7997
  139.4957  144.3866  151.9563 H   0  0  0  0  0  0  0  0  0  0  0  0  # atno 10167 bound_to 10162
  156.0631  130.5853  150.8336 H   0  0  0  0  0  0  0  0  0  0  0  0  # atno 10718 bound_to 10713
  154.6215  135.5452  153.7581 H   0  0  0  0  0  0  0  0  0  0  0  0  # atno 10763 bound_to 10752
  153.0241  135.6414  154.1433 H   0  0  0  0  0  0  0  0  0  0  0  0  # atno 10764 bound_to 10752
  154.1367  135.2911  155.3151 H   0  0  0  0  0  0  0  0  0  0  0  0  # atno 10765 bound_to 10752
  140.5989  134.4968  157.5203 H   0  0  0  0  0  0  0  0  0  0  0  0  # atno 11005 bound_to 11000
  146.1726  139.4882  142.9918 LP  0  0  0  0  0  0  0  0  0  0  0  0  # atno 17320 bound_to 7965
  145.6536  141.0257  143.1747 LP  0  0  0  0  0  0  0  0  0  0  0  0  # atno 17321 bound_to 7965
  140.3303  144.3324  150.5989 LP  0  0  0  0  0  0  0  0  0  0  0  0  # atno 17342 bound_to 10162
  140.5650  143.2187  151.7699 LP  0  0  0  0  0  0  0  0  0  0  0  0  # atno 17343 bound_to 10162
  157.5654  131.0946  150.9497 LP  0  0  0  0  0  0  0  0  0  0  0  0  # atno 17370 bound_to 10713
  156.9725  130.5496  149.5291 LP  0  0  0  0  0  0  0  0  0  0  0  0  # atno 17371 bound_to 10713
  139.9241  134.8091  156.1122 LP  0  0  0  0  0  0  0  0  0  0  0  0  # atno 17394 bound_to 11000
  141.0885  133.6724  156.2489 LP  0  0  0  0  0  0  0  0  0  0  0  0  # atno 17395 bound_to 11000

$$$$
