AV-unprocessed.smi:3132|AV-procd|sdf|11935|dock6
  -GOLD-   2272017323D 1   1.00000     0.00000
 Structure written by MMmdl.
 33 34  0  0  0  0  0  0  0  0  1 V2000
  146.0188  130.0409  151.9755 C   0  0  0  0  0  0  0  0  0  0  0  0
  146.6967  131.2345  152.6657 C   0  0  2  0  0  0  0  0  0  0  0  0
  146.4893  132.5386  151.8727 C   0  0  0  0  0  0  0  0  0  0  0  0
  145.3985  132.4377  150.9201 N   0  0  0  0  0  0  0  0  0  0  0  0
  144.0696  132.7854  151.1262 C   0  0  0  0  0  0  0  0  0  0  0  0
  143.4058  132.5140  149.9514 C   0  0  0  0  0  0  0  0  0  0  0  0
  144.3011  132.0052  149.0135 N   0  0  0  0  0  0  0  0  0  0  0  0
  145.4604  131.9902  149.6586 C   0  0  0  0  0  0  0  0  0  0  0  0
  148.1248  130.9705  152.8259 N   0  0  0  0  0  0  0  0  0  0  0  0
  148.7714  130.8364  153.9946 C   0  0  0  0  0  0  0  0  0  0  0  0
  148.2064  130.9046  155.0864 O   0  0  0  0  0  0  0  0  0  0  0  0
  150.2890  130.6106  153.9306 C   0  0  1  0  0  0  0  0  0  0  0  0
  151.1143  131.6381  154.7288 C   0  0  0  0  0  0  0  0  0  0  0  0
  151.9193  130.7918  155.7002 C   0  0  0  0  0  0  0  0  0  0  0  0
  151.9324  129.4272  155.0262 C   0  0  0  0  0  0  0  0  0  0  0  0
  150.6240  129.3407  154.4896 O   0  0  0  0  0  0  0  0  0  0  0  0
  144.9475  130.2101  151.8637 H   0  0  0  0  0  0  0  0  0  0  0  0
  146.1466  129.1251  152.5536 H   0  0  0  0  0  0  0  0  0  0  0  0
  146.4337  129.8686  150.9818 H   0  0  0  0  0  0  0  0  0  0  0  0
  146.2399  131.3611  153.6492 H   0  0  0  0  0  0  0  0  0  0  0  0
  146.2909  133.3727  152.5474 H   0  0  0  0  0  0  0  0  0  0  0  0
  147.3954  132.7915  151.3206 H   0  0  0  0  0  0  0  0  0  0  0  0
  143.7156  133.1826  152.0661 H   0  0  0  0  0  0  0  0  0  0  0  0
  142.3612  132.6452  149.7104 H   0  0  0  0  0  0  0  0  0  0  0  0
  146.3764  131.6418  149.2040 H   0  0  0  0  0  0  0  0  0  0  0  0
  148.6727  130.9008  151.9803 H   0  0  0  0  0  0  0  0  0  0  0  0
  150.6011  130.6203  152.8851 H   0  0  0  0  0  0  0  0  0  0  0  0
  151.7775  132.1823  154.0555 H   0  0  0  0  0  0  0  0  0  0  0  0
  150.5115  132.3756  155.2606 H   0  0  0  0  0  0  0  0  0  0  0  0
  152.9188  131.1860  155.8853 H   0  0  0  0  0  0  0  0  0  0  0  0
  151.3967  130.7253  156.6551 H   0  0  0  0  0  0  0  0  0  0  0  0
  152.6669  129.3925  154.2201 H   0  0  0  0  0  0  0  0  0  0  0  0
  152.1384  128.6134  155.7216 H   0  0  0  0  0  0  0  0  0  0  0  0
  1  2  1  0  0  0  0
  1 17  1  0  0  0  0
  1 18  1  0  0  0  0
  1 19  1  0  0  0  0
  2  3  1  0  0  0  0
  2  9  1  0  0  0  0
  2 20  1  0  0  0  0
  3  4  1  0  0  0  0
  3 21  1  0  0  0  0
  3 22  1  0  0  0  0
  4  8  1  0  0  0  0
  4  5  1  0  0  0  0
  5  6  2  0  0  0  0
  5 23  1  0  0  0  0
  6  7  1  0  0  0  0
  6 24  1  0  0  0  0
  7  8  2  0  0  0  0
  8 25  1  0  0  0  0
  9 10  1  0  0  0  0
  9 26  1  0  0  0  0
 10 11  2  0  0  0  0
 10 12  1  0  0  0  0
 12 16  1  0  0  0  0
 12 13  1  0  0  0  0
 12 27  1  0  0  0  0
 13 14  1  0  0  0  0
 13 28  1  0  0  0  0
 13 29  1  0  0  0  0
 14 15  1  0  0  0  0
 14 30  1  0  0  0  0
 14 31  1  0  0  0  0
 15 16  1  0  0  0  0
 15 32  1  0  0  0  0
 15 33  1  0  0  0  0
M  END
> <s_m_source_file>
AV-unprocessed.smi

> <i_m_source_file_index>
3132

> <i_lp_mmshare_version>
43012

> <i_f3d_flags>
0

> <s_epik_input>
W2NIXTFuW2NIXVtjSF1uMVtDSDJdW0NAQEhdKFtDSDNdKVtOSF1DKD1PKVtDQEBIXTJbQ0gyXVtDSDJdW0NIMl1PMg==

> <s_epik_cmdline>
J2VwaWtfcHl0aG9uJywgJy1waCcsICc3LjAnLCAnLXRuJywgJzgnLCAnLW1hJywgJzIwMCcsICctbWV0YWxfYmluZGluZycsICctaW1hZScsICc8aW5maWxlLm1hZT4nLCAnLW9tYWUnLCAnPG91dGZpbGUubWFlPic=

> <r_lp_tautomer_probability>
1

> <r_epik_Ionization_Penalty>
0.630322

> <r_epik_Ionization_Penalty_Charging>
0.630322

> <r_epik_Ionization_Penalty_Neutral>
3.82652e-08

> <r_epik_State_Penalty>
0.647117

> <r_epik_Charging_Adjusted_Penalty>
1.27744

> <i_epik_Tot_Q>
0

> <i_epik_Tot_abs_Q>
0

> <r_epik_Metal_State_Penalty>
0.309095

> <b_epik_Metal_Only>
0

> <s_lp_Force_Field>
OPLS_2005

> <r_lp_Energy>
19.804

> <b_lp_Chiralities_Consistent>
1

> <s_lp_Variant>
AV-unprocessed.smi:3132-7

> <Gold.Version>
5.8.1

> <Gold.Id.Protein>
6NUR|6NUR_protein|mol2

> <Gold.PLP.Fitness>
38.4969

> <Gold.PLP.PLP>
-31.8431

> <Gold.PLP.part.hbond>
-2.2080

> <Gold.PLP.part.metal>
0.0000

> <Gold.PLP.part.buried>
-5.2247

> <Gold.PLP.part.nonpolar>
-25.4446

> <Gold.PLP.part.repulsive>
0.2732

> <Gold.PLP.ligand.clash>
0.0000

> <Gold.PLP.ligand.torsion>
0.9928

> <Gold.PLP.Chemscore.Hbond>
0.9280

> <Gold.PLP.Chemscore.CHOScore>
1.9462

> <Gold.PLP.Chemscore.Metal>
0.0000

> <Gold.Chemscore.Hbonds>
donor molecule, donor type, donor heavy atom, donor atom, acceptor molecule, acceptor atom, score
      L1  H     9    26       P1 10747  1.00
      P1  H 10785 10796       L1     7  0.26
      L1  C     6    24       P1 10186  1.00
      L1  C     6    24       P1 10952  0.32
      L1  C     8    25       P1 10747  0.09

> <Gold.PLP.Chemscore.Internal.Correction>
0.0169

> <Gold.Rescore>
     Score         DG    S(hbond)    S(metal)    S(lipo)     H(rot)  DE(clash)    DE(int)     intcor
     11.56     -12.66       1.50        0.00      59.42       1.86       0.25       0.85       ----

> <Gold.Chemscore.Fitness>
11.5579

> <Gold.Chemscore.DG>
-12.6556

> <Gold.Chemscore.ZeroCoef>
-5.4800

> <Gold.Chemscore.Hbond>
1.4953

> <Gold.Chemscore.Metal>
0.0000

> <Gold.Chemscore.Lipo>
59.4210

> <Gold.Chemscore.Internal_Hbond>
0.0000

> <Gold.Chemscore.DEClash>
0.2521

> <Gold.Chemscore.DEInternal>
0.8456

> <Gold.Chemscore.Rot>
1.8636

> <Gold.Chemscore.Internal.Correction>
   9.000000E+99

> <Gold.Chemscore.Hbonds>
donor molecule, donor type, donor heavy atom, donor atom, acceptor molecule, acceptor atom, score
      L1  H     9    26       P1 10747  0.88
      P1  H 10785 10796       L1     7  0.03

> <Gold.Chemscore.Hbond.Weighted>
-4.9942

> <Gold.Chemscore.Metal.Weighted>
-0.0000

> <Gold.Chemscore.Lipo.Weighted>
-6.9523

> <Gold.Chemscore.Internal_Hbond.Weighted>
0.0000

> <Gold.Chemscore.DEClash.Weighted>
0.2521

> <Gold.Chemscore.DEInternal.Weighted>
0.8456

> <Gold.Chemscore.Rot.Weighted>
4.7709

> <Gold.Chemscore.Internal.Correction.Weighted>
   9.000000E+99

> <Gold.Protein.RotatedTorsions>
[ 6907 6896 6895 6894 ] final  -34.53 input  -60.11 | X-H torsion
[ 7974 7965 7964 7962 ] final   53.50 input  175.53 | X-H torsion
[ 8008 7997 7996 7995 ] final  -85.15 input   59.86 | X-H torsion
[ 10167 10162 10161 10158 ] final  160.86 input  -65.29 | X-H torsion
[ 10718 10713 10712 10709 ] final  114.14 input   66.30 | X-H torsion
[ 10763 10752 10751 10750 ] final -160.99 input  -60.55 | X-H torsion
[ 11005 11000 10999 10996 ] final  128.33 input  -57.11 | X-H torsion

> <Gold.Protein.ActiveResidues>
 VAL166  LYS551  ARG553  GLY616  TRP617  ASP618  TYR619  PRO620  LYS621  CYS622 
 ASP623  PHE694  ASN695  SER759  ASP760  ASP761  ALA762  ILE779  LEU786  VAL792 
 PHE793  MET794  SER795  GLU796  ALA797  LYS798  CYS799  TRP800  GLU811  SER814 

> <Gold.Protein.RotatedAtoms>
  151.0515  134.9676  159.8213 H   0  0  0  0  0  0  0  0  0  0  0  0  # atno 6907 bound_to 6896
  152.5381  134.2531  159.8916 H   0  0  0  0  0  0  0  0  0  0  0  0  # atno 6908 bound_to 6896
  151.2547  133.4289  159.2647 H   0  0  0  0  0  0  0  0  0  0  0  0  # atno 6909 bound_to 6896
  145.9705  139.4145  143.0193 H   0  0  0  0  0  0  0  0  0  0  0  0  # atno 7974 bound_to 7965
  154.6376  140.0595  156.9807 H   0  0  0  0  0  0  0  0  0  0  0  0  # atno 8008 bound_to 7997
  155.1568  140.3279  155.4401 H   0  0  0  0  0  0  0  0  0  0  0  0  # atno 8009 bound_to 7997
  156.2515  140.1938  156.6677 H   0  0  0  0  0  0  0  0  0  0  0  0  # atno 8010 bound_to 7997
  139.4844  144.4593  151.8726 H   0  0  0  0  0  0  0  0  0  0  0  0  # atno 10167 bound_to 10162
  157.6298  131.0994  150.7143 H   0  0  0  0  0  0  0  0  0  0  0  0  # atno 10718 bound_to 10713
  154.7343  135.3053  154.8839 H   0  0  0  0  0  0  0  0  0  0  0  0  # atno 10763 bound_to 10752
  153.9672  135.6746  153.4750 H   0  0  0  0  0  0  0  0  0  0  0  0  # atno 10764 bound_to 10752
  153.0947  135.4941  154.8679 H   0  0  0  0  0  0  0  0  0  0  0  0  # atno 10765 bound_to 10752
  139.9555  134.9614  156.8987 H   0  0  0  0  0  0  0  0  0  0  0  0  # atno 11005 bound_to 11000
  145.7912  140.9813  143.1048 LP  0  0  0  0  0  0  0  0  0  0  0  0  # atno 17320 bound_to 7965
  144.6836  139.9685  143.7481 LP  0  0  0  0  0  0  0  0  0  0  0  0  # atno 17321 bound_to 7965
  140.4055  144.2438  150.5891 LP  0  0  0  0  0  0  0  0  0  0  0  0  # atno 17342 bound_to 10162
  140.5017  143.2316  151.8669 LP  0  0  0  0  0  0  0  0  0  0  0  0  # atno 17343 bound_to 10162
  156.7484  130.4761  149.5462 LP  0  0  0  0  0  0  0  0  0  0  0  0  # atno 17370 bound_to 10713
  156.1494  130.6299  151.0575 LP  0  0  0  0  0  0  0  0  0  0  0  0  # atno 17371 bound_to 10713
  140.5619  134.0526  155.7401 LP  0  0  0  0  0  0  0  0  0  0  0  0  # atno 17394 bound_to 11000
  141.1226  133.9437  157.2700 LP  0  0  0  0  0  0  0  0  0  0  0  0  # atno 17395 bound_to 11000

$$$$
