AV-unprocessed.smi:2658|AV-procd|sdf|10310|dock9
  -GOLD-   2272014323D 1   1.00000     0.00000
 Structure written by MMmdl.
 47 49  0  0  0  0  0  0  0  0  2 V2000
  152.4117  144.8615  160.2360 C   0  0  0  0  0  0  0  0  0  0  0  0
  152.0831  143.6683  159.3546 C   0  0  0  0  0  0  0  0  0  0  0  0
  151.3286  143.8850  158.1797 C   0  0  0  0  0  0  0  0  0  0  0  0
  151.0369  142.7728  157.3988 C   0  0  0  0  0  0  0  0  0  0  0  0
  150.3200  142.6559  156.2061 N   0  3  0  0  0  0  0  0  0  0  0  0
  150.2958  141.3515  155.8165 C   0  0  0  0  0  0  0  0  0  0  0  0
  150.9875  140.6332  156.7421 N   0  0  0  0  0  0  0  0  0  0  0  0
  151.2531  139.1889  156.8000 C   0  0  0  0  0  0  0  0  0  0  0  0
  150.5793  138.5089  158.0098 C   0  0  2  0  0  0  0  0  0  0  0  0
  151.5097  138.2079  159.0303 O   0  0  0  0  0  0  0  0  0  0  0  0
  149.8022  137.2331  157.6477 C   0  0  0  0  0  0  0  0  0  0  0  0
  149.6440  136.4175  158.8060 O   0  0  0  0  0  0  0  0  0  0  0  0
  148.5311  136.6083  159.5985 C   0  0  0  0  0  0  0  0  0  0  0  0
  148.2338  135.6567  160.5921 C   0  0  0  0  0  0  0  0  0  0  0  0
  147.0942  135.8737  161.3891 C   0  0  0  0  0  0  0  0  0  0  0  0
  146.7087  134.8887  162.4767 C   0  0  0  0  0  0  0  0  0  0  0  0
  146.3388  137.0391  161.1285 C   0  0  0  0  0  0  0  0  0  0  0  0
  145.0962  137.3798  161.9298 C   0  0  0  0  0  0  0  0  0  0  0  0
  146.6752  137.9180  160.1557 N   0  0  0  0  0  0  0  0  0  0  0  0
  147.7566  137.7058  159.3985 N   0  0  0  0  0  0  0  0  0  0  0  0
  151.4706  141.4790  157.7480 C   0  0  0  0  0  0  0  0  0  0  0  0
  152.2189  141.2492  158.9002 C   0  0  0  0  0  0  0  0  0  0  0  0
  152.5234  142.3670  159.7098 C   0  0  0  0  0  0  0  0  0  0  0  0
  153.3334  142.1452  160.9756 C   0  0  0  0  0  0  0  0  0  0  0  0
  152.0046  145.7856  159.8246 H   0  0  0  0  0  0  0  0  0  0  0  0
  153.4908  144.9848  160.3287 H   0  0  0  0  0  0  0  0  0  0  0  0
  151.9914  144.7275  161.2330 H   0  0  0  0  0  0  0  0  0  0  0  0
  150.9895  144.8727  157.9037 H   0  0  0  0  0  0  0  0  0  0  0  0
  149.8120  140.9575  154.9342 H   0  0  0  0  0  0  0  0  0  0  0  0
  150.8711  138.7556  155.8748 H   0  0  0  0  0  0  0  0  0  0  0  0
  152.3307  139.0238  156.7911 H   0  0  0  0  0  0  0  0  0  0  0  0
  149.8715  139.2131  158.4486 H   0  0  0  0  0  0  0  0  0  0  0  0
  151.0590  138.2280  159.8607 H   0  0  0  0  0  0  0  0  0  0  0  0
  148.8368  137.4894  157.2071 H   0  0  0  0  0  0  0  0  0  0  0  0
  150.3677  136.6771  156.8978 H   0  0  0  0  0  0  0  0  0  0  0  0
  148.8624  134.7898  160.7335 H   0  0  0  0  0  0  0  0  0  0  0  0
  145.7038  134.5035  162.3032 H   0  0  0  0  0  0  0  0  0  0  0  0
  146.7306  135.3712  163.4541 H   0  0  0  0  0  0  0  0  0  0  0  0
  147.3944  134.0413  162.5027 H   0  0  0  0  0  0  0  0  0  0  0  0
  145.3342  137.4447  162.9917 H   0  0  0  0  0  0  0  0  0  0  0  0
  144.3336  136.6131  161.7919 H   0  0  0  0  0  0  0  0  0  0  0  0
  144.6723  138.3365  161.6220 H   0  0  0  0  0  0  0  0  0  0  0  0
  152.5503  140.2588  159.1745 H   0  0  0  0  0  0  0  0  0  0  0  0
  153.5929  141.0939  161.1045 H   0  0  0  0  0  0  0  0  0  0  0  0
  152.7666  142.4579  161.8529 H   0  0  0  0  0  0  0  0  0  0  0  0
  154.2620  142.7154  160.9411 H   0  0  0  0  0  0  0  0  0  0  0  0
  149.8758  143.4086  155.6958 H   0  0  0  0  0  0  0  0  0  0  0  0
  1  2  1  0  0  0  0
  1 25  1  0  0  0  0
  1 26  1  0  0  0  0
  1 27  1  0  0  0  0
  2 23  1  0  0  0  0
  2  3  2  0  0  0  0
  3  4  1  0  0  0  0
  3 28  1  0  0  0  0
  4 21  2  0  0  0  0
  4  5  1  0  0  0  0
  5  6  2  0  0  0  0
  5 47  1  0  0  0  0
  6  7  1  0  0  0  0
  6 29  1  0  0  0  0
  7  8  1  0  0  0  0
  7 21  1  0  0  0  0
  8  9  1  0  0  0  0
  8 30  1  0  0  0  0
  8 31  1  0  0  0  0
  9 10  1  0  0  0  0
  9 11  1  0  0  0  0
  9 32  1  0  0  0  0
 10 33  1  0  0  0  0
 11 12  1  0  0  0  0
 11 34  1  0  0  0  0
 11 35  1  0  0  0  0
 12 13  1  0  0  0  0
 13 20  1  0  0  0  0
 13 14  2  0  0  0  0
 14 15  1  0  0  0  0
 14 36  1  0  0  0  0
 15 16  1  0  0  0  0
 15 17  2  0  0  0  0
 16 37  1  0  0  0  0
 16 38  1  0  0  0  0
 16 39  1  0  0  0  0
 17 18  1  0  0  0  0
 17 19  1  0  0  0  0
 18 40  1  0  0  0  0
 18 41  1  0  0  0  0
 18 42  1  0  0  0  0
 19 20  2  0  0  0  0
 21 22  1  0  0  0  0
 22 23  2  0  0  0  0
 22 43  1  0  0  0  0
 23 24  1  0  0  0  0
 24 44  1  0  0  0  0
 24 45  1  0  0  0  0
 24 46  1  0  0  0  0
M  CHG  1   5   1
M  END
> <s_m_source_file>
AV-unprocessed.smi

> <i_m_source_file_index>
2658

> <i_lp_mmshare_version>
43012

> <i_f3d_flags>
0

> <s_epik_input>
W0NIM11jKFtjSF0xKWMoW0NIM10pW2NIXWMoYzEyKW4oW2NIXW4yKVtDSDJdW0NASF0oW09IXSlbQ0gyXU9jM1tjSF1jKFtDSDNdKWMoW0NIM10pbm4z

> <s_epik_cmdline>
J2VwaWtfcHl0aG9uJywgJy1waCcsICc3LjAnLCAnLXRuJywgJzgnLCAnLW1hJywgJzIwMCcsICctbWV0YWxfYmluZGluZycsICctaW1hZScsICc8aW5maWxlLm1hZT4nLCAnLW9tYWUnLCAnPG91dGZpbGUubWFlPic=

> <r_lp_tautomer_probability>
1

> <r_epik_Ionization_Penalty>
1.0494

> <r_epik_Ionization_Penalty_Charging>
1.04926

> <r_epik_Ionization_Penalty_Neutral>
0.000140304

> <r_epik_State_Penalty>
1.10197

> <r_epik_Charging_Adjusted_Penalty>
2.15123

> <i_epik_Tot_Q>
1

> <i_epik_Tot_abs_Q>
1

> <r_epik_Metal_State_Penalty>
1.19636

> <b_epik_Metal_Only>
0

> <s_lp_Force_Field>
OPLS_2005

> <r_lp_Energy>
21.5781

> <b_lp_Chiralities_Consistent>
1

> <s_lp_Variant>
AV-unprocessed.smi:2658-3

> <Gold.Version>
5.8.1

> <Gold.Id.Protein>
6NUR|6NUR_protein|mol2

> <Gold.PLP.Fitness>
59.3376

> <Gold.PLP.PLP>
-50.1194

> <Gold.PLP.part.hbond>
-3.8800

> <Gold.PLP.part.metal>
0.0000

> <Gold.PLP.part.buried>
-7.5295

> <Gold.PLP.part.nonpolar>
-39.4871

> <Gold.PLP.part.repulsive>
0.0988

> <Gold.PLP.ligand.clash>
0.0000

> <Gold.PLP.ligand.torsion>
1.2578

> <Gold.PLP.Chemscore.Hbond>
3.9000

> <Gold.PLP.Chemscore.CHOScore>
0.0000

> <Gold.PLP.Chemscore.Metal>
0.0000

> <Gold.Chemscore.Hbonds>
donor molecule, donor type, donor heavy atom, donor atom, acceptor molecule, acceptor atom, score
      L1  H     5    47       P1  8028  2.00
      P1  H  6896  6909       L1    12  0.68
      P1  H  6934  6947       L1    19  0.66

> <Gold.PLP.Chemscore.Internal.Correction>
0.0339

> <Gold.Rescore>
     Score         DG    S(hbond)    S(metal)    S(lipo)     H(rot)  DE(clash)    DE(int)     intcor
     18.79     -20.25       1.97        0.00     124.02       2.47       0.00       1.46       ----

> <Gold.Chemscore.Fitness>
18.7857

> <Gold.Chemscore.DG>
-20.2511

> <Gold.Chemscore.ZeroCoef>
-5.4800

> <Gold.Chemscore.Hbond>
1.9700

> <Gold.Chemscore.Metal>
0.0000

> <Gold.Chemscore.Lipo>
124.0225

> <Gold.Chemscore.Internal_Hbond>
0.0000

> <Gold.Chemscore.DEClash>
0.0042

> <Gold.Chemscore.DEInternal>
1.4612

> <Gold.Chemscore.Rot>
2.4685

> <Gold.Chemscore.Internal.Correction>
   9.000000E+99

> <Gold.Chemscore.Hbonds>
donor molecule, donor type, donor heavy atom, donor atom, acceptor molecule, acceptor atom, score
      L1  H     5    47       P1  8028  0.95
      P1  H  6896  6909       L1    12  0.45
      P1  H  6934  6947       L1    19  0.05

> <Gold.Chemscore.Hbond.Weighted>
-6.5798

> <Gold.Chemscore.Metal.Weighted>
-0.0000

> <Gold.Chemscore.Lipo.Weighted>
-14.5106

> <Gold.Chemscore.Internal_Hbond.Weighted>
0.0000

> <Gold.Chemscore.DEClash.Weighted>
0.0042

> <Gold.Chemscore.DEInternal.Weighted>
1.4612

> <Gold.Chemscore.Rot.Weighted>
6.3194

> <Gold.Chemscore.Internal.Correction.Weighted>
   9.000000E+99

> <Gold.Protein.RotatedTorsions>
[ 6907 6896 6895 6894 ] final   76.03 input  -60.11 | X-H torsion
[ 7974 7965 7964 7962 ] final -104.39 input  175.53 | X-H torsion
[ 8008 7997 7996 7995 ] final  -48.73 input   59.86 | X-H torsion
[ 10167 10162 10161 10158 ] final   88.46 input  -65.29 | X-H torsion
[ 10718 10713 10712 10709 ] final  -25.80 input   66.30 | X-H torsion
[ 10763 10752 10751 10750 ] final   78.29 input  -60.55 | X-H torsion
[ 11005 11000 10999 10996 ] final  -26.76 input  -57.11 | X-H torsion

> <Gold.Protein.ActiveResidues>
 VAL166  LYS551  ARG553  GLY616  TRP617  ASP618  TYR619  PRO620  LYS621  CYS622 
 ASP623  PHE694  ASN695  SER759  ASP760  ASP761  ALA762  ILE779  LEU786  VAL792 
 PHE793  MET794  SER795  GLU796  ALA797  LYS798  CYS799  TRP800  GLU811  SER814 

> <Gold.Protein.RotatedAtoms>
  152.5054  134.4030  159.9422 H   0  0  0  0  0  0  0  0  0  0  0  0  # atno 6907 bound_to 6896
  151.3995  133.3756  159.2738 H   0  0  0  0  0  0  0  0  0  0  0  0  # atno 6908 bound_to 6896
  150.9372  134.8805  159.7648 H   0  0  0  0  0  0  0  0  0  0  0  0  # atno 6909 bound_to 6896
  145.2438  140.9214  143.3135 H   0  0  0  0  0  0  0  0  0  0  0  0  # atno 7974 bound_to 7965
  154.4033  140.1314  156.4387 H   0  0  0  0  0  0  0  0  0  0  0  0  # atno 8008 bound_to 7997
  155.7480  140.3488  155.5116 H   0  0  0  0  0  0  0  0  0  0  0  0  # atno 8009 bound_to 7997
  155.8976  140.1014  157.1363 H   0  0  0  0  0  0  0  0  0  0  0  0  # atno 8010 bound_to 7997
  139.8671  144.6513  150.8992 H   0  0  0  0  0  0  0  0  0  0  0  0  # atno 10167 bound_to 10162
  156.4597  130.4501  149.6937 H   0  0  0  0  0  0  0  0  0  0  0  0  # atno 10718 bound_to 10713
  153.0863  135.4882  154.8603 H   0  0  0  0  0  0  0  0  0  0  0  0  # atno 10763 bound_to 10752
  154.7214  135.3040  154.9043 H   0  0  0  0  0  0  0  0  0  0  0  0  # atno 10764 bound_to 10752
  153.9706  135.6801  153.4800 H   0  0  0  0  0  0  0  0  0  0  0  0  # atno 10765 bound_to 10752
  140.9058  133.7493  156.0604 H   0  0  0  0  0  0  0  0  0  0  0  0  # atno 11005 bound_to 11000
  144.9565  139.4026  143.6377 LP  0  0  0  0  0  0  0  0  0  0  0  0  # atno 17320 bound_to 7965
  146.3321  139.8598  142.8858 LP  0  0  0  0  0  0  0  0  0  0  0  0  # atno 17321 bound_to 7965
  140.7766  143.3695  151.1676 LP  0  0  0  0  0  0  0  0  0  0  0  0  # atno 17342 bound_to 10162
  139.7319  143.9059  152.3022 LP  0  0  0  0  0  0  0  0  0  0  0  0  # atno 17343 bound_to 10162
  156.3730  130.7540  151.2525 LP  0  0  0  0  0  0  0  0  0  0  0  0  # atno 17370 bound_to 10713
  157.7498  131.0317  150.4196 LP  0  0  0  0  0  0  0  0  0  0  0  0  # atno 17371 bound_to 10713
  140.8173  134.3330  157.5393 LP  0  0  0  0  0  0  0  0  0  0  0  0  # atno 17394 bound_to 11000
  139.8749  134.9289  156.3461 LP  0  0  0  0  0  0  0  0  0  0  0  0  # atno 17395 bound_to 11000

$$$$
