AV-unprocessed.smi:2575|AV-procd|sdf|10116|dock4
  -GOLD-   2272014133D 1   1.00000     0.00000
 Structure written by MMmdl.
 31 32  0  0  0  0  0  0  0  0  1 V2000
  146.2232  142.9163  154.7521 C   0  0  0  0  0  0  0  0  0  0  0  0
  147.0385  142.4007  153.5642 C   0  0  0  0  0  0  0  0  0  0  0  0
  148.3327  142.0401  154.0164 O   0  0  0  0  0  0  0  0  0  0  0  0
  148.3227  140.8901  154.8462 C   0  0  0  0  0  0  0  0  0  0  0  0
  149.2164  141.1391  156.0702 C   0  0  2  0  0  0  0  0  0  0  0  0
  148.7754  142.3207  156.7110 O   0  0  0  0  0  0  0  0  0  0  0  0
  150.7067  141.2683  155.6972 C   0  0  0  0  0  0  0  0  0  0  0  0
  151.5880  140.8354  156.7676 N   0  0  0  0  0  0  0  0  0  0  0  0
  152.2800  139.6688  156.6329 N   0  0  0  0  0  0  0  0  0  0  0  0
  152.9906  139.4802  157.7046 N   0  0  0  0  0  0  0  0  0  0  0  0
  152.7600  140.5416  158.5637 C   0  0  0  0  0  0  0  0  0  0  0  0
  153.2620  140.8381  159.8506 C   0  0  0  0  0  0  0  0  0  0  0  0
  152.8551  142.0116  160.5229 C   0  0  0  0  0  0  0  0  0  0  0  0
  153.4915  142.3399  162.0953 Cl  0  0  0  0  0  0  0  0  0  0  0  0
  151.9388  142.9028  159.9137 C   0  0  0  0  0  0  0  0  0  0  0  0
  151.4283  144.3413  160.7232 Cl  0  0  0  0  0  0  0  0  0  0  0  0
  151.4303  142.6196  158.6304 C   0  0  0  0  0  0  0  0  0  0  0  0
  151.8484  141.4470  157.9786 C   0  0  0  0  0  0  0  0  0  0  0  0
  145.2183  143.2012  154.4404 H   0  0  0  0  0  0  0  0  0  0  0  0
  146.6949  143.7907  155.2007 H   0  0  0  0  0  0  0  0  0  0  0  0
  146.1302  142.1519  155.5239 H   0  0  0  0  0  0  0  0  0  0  0  0
  146.5419  141.5372  153.1192 H   0  0  0  0  0  0  0  0  0  0  0  0
  147.1080  143.1736  152.7972 H   0  0  0  0  0  0  0  0  0  0  0  0
  147.3044  140.6517  155.1582 H   0  0  0  0  0  0  0  0  0  0  0  0
  148.6988  140.0373  154.2782 H   0  0  0  0  0  0  0  0  0  0  0  0
  149.0867  140.3172  156.7756 H   0  0  0  0  0  0  0  0  0  0  0  0
  148.9153  143.0501  156.1265 H   0  0  0  0  0  0  0  0  0  0  0  0
  150.9277  140.6748  154.8084 H   0  0  0  0  0  0  0  0  0  0  0  0
  150.9487  142.3018  155.4458 H   0  0  0  0  0  0  0  0  0  0  0  0
  153.9600  140.1616  160.3210 H   0  0  0  0  0  0  0  0  0  0  0  0
  150.7293  143.2902  158.1556 H   0  0  0  0  0  0  0  0  0  0  0  0
  1  2  1  0  0  0  0
  1 19  1  0  0  0  0
  1 20  1  0  0  0  0
  1 21  1  0  0  0  0
  2  3  1  0  0  0  0
  2 22  1  0  0  0  0
  2 23  1  0  0  0  0
  3  4  1  0  0  0  0
  4  5  1  0  0  0  0
  4 24  1  0  0  0  0
  4 25  1  0  0  0  0
  5  6  1  0  0  0  0
  5  7  1  0  0  0  0
  5 26  1  0  0  0  0
  6 27  1  0  0  0  0
  7  8  1  0  0  0  0
  7 28  1  0  0  0  0
  7 29  1  0  0  0  0
  8 18  1  0  0  0  0
  8  9  1  0  0  0  0
  9 10  2  0  0  0  0
 10 11  1  0  0  0  0
 11 18  2  0  0  0  0
 11 12  1  0  0  0  0
 12 13  2  0  0  0  0
 12 30  1  0  0  0  0
 13 14  1  0  0  0  0
 13 15  1  0  0  0  0
 15 16  1  0  0  0  0
 15 17  2  0  0  0  0
 17 18  1  0  0  0  0
 17 31  1  0  0  0  0
M  END
> <s_m_source_file>
AV-unprocessed.smi

> <i_m_source_file_index>
2575

> <i_lp_mmshare_version>
43012

> <i_f3d_flags>
0

> <s_epik_input>
W0NIM11bQ0gyXU9bQ0gyXVtDQEhdKFtPSF0pW0NIMl1uKG5uMSljKGMxMilbY0hdYyhDbCljKENsKVtjSF0y

> <s_epik_cmdline>
J2VwaWtfcHl0aG9uJywgJy1waCcsICc3LjAnLCAnLXRuJywgJzgnLCAnLW1hJywgJzIwMCcsICctbWV0YWxfYmluZGluZycsICctaW1hZScsICc8aW5maWxlLm1hZT4nLCAnLW9tYWUnLCAnPG91dGZpbGUubWFlPic=

> <r_lp_tautomer_probability>
1

> <r_epik_Ionization_Penalty>
2.39516e-06

> <r_epik_Ionization_Penalty_Charging>
0

> <r_epik_Ionization_Penalty_Neutral>
2.39516e-06

> <r_epik_State_Penalty>
-0

> <r_epik_Charging_Adjusted_Penalty>
0

> <i_epik_Tot_Q>
0

> <i_epik_Tot_abs_Q>
0

> <r_epik_Metal_State_Penalty>
-0

> <b_epik_Metal_Only>
0

> <s_lp_Force_Field>
OPLS_2005

> <r_lp_Energy>
6.35742

> <b_lp_Chiralities_Consistent>
1

> <s_lp_Variant>
AV-unprocessed.smi:2575-1

> <Gold.Version>
5.8.1

> <Gold.Id.Protein>
6NUR|6NUR_protein|mol2

> <Gold.PLP.Fitness>
43.5679

> <Gold.PLP.PLP>
-38.8138

> <Gold.PLP.part.hbond>
-3.7749

> <Gold.PLP.part.metal>
0.0000

> <Gold.PLP.part.buried>
-5.4855

> <Gold.PLP.part.nonpolar>
-28.6226

> <Gold.PLP.part.repulsive>
0.1762

> <Gold.PLP.ligand.clash>
0.0000

> <Gold.PLP.ligand.torsion>
0.8248

> <Gold.PLP.Chemscore.Hbond>
2.1190

> <Gold.PLP.Chemscore.CHOScore>
0.0000

> <Gold.PLP.Chemscore.Metal>
0.0000

> <Gold.Chemscore.Hbonds>
donor molecule, donor type, donor heavy atom, donor atom, acceptor molecule, acceptor atom, score
      L1  H     6    27       P1  8028  1.00
      P1  H  7997  8009       L1    10  0.86
      P1  H  8011  8017       L1     3  0.17

> <Gold.PLP.Chemscore.Internal.Correction>
0.0467

> <Gold.Rescore>
     Score         DG    S(hbond)    S(metal)    S(lipo)     H(rot)  DE(clash)    DE(int)     intcor
     15.26     -16.04       1.20        0.00     103.88       2.19       0.07       0.72       ----

> <Gold.Chemscore.Fitness>
15.2607

> <Gold.Chemscore.DG>
-16.0418

> <Gold.Chemscore.ZeroCoef>
-5.4800

> <Gold.Chemscore.Hbond>
1.2021

> <Gold.Chemscore.Metal>
0.0000

> <Gold.Chemscore.Lipo>
103.8754

> <Gold.Chemscore.Internal_Hbond>
0.0000

> <Gold.Chemscore.DEClash>
0.0654

> <Gold.Chemscore.DEInternal>
0.7157

> <Gold.Chemscore.Rot>
2.1901

> <Gold.Chemscore.Internal.Correction>
   9.000000E+99

> <Gold.Chemscore.Hbonds>
donor molecule, donor type, donor heavy atom, donor atom, acceptor molecule, acceptor atom, score
      L1  H     6    27       P1  8028  0.98
      P1  H  7997  8009       L1    10  0.04
      P1  H  8011  8017       L1     3  0.10

> <Gold.Chemscore.Hbond.Weighted>
-4.0150

> <Gold.Chemscore.Metal.Weighted>
-0.0000

> <Gold.Chemscore.Lipo.Weighted>
-12.1534

> <Gold.Chemscore.Internal_Hbond.Weighted>
0.0000

> <Gold.Chemscore.DEClash.Weighted>
0.0654

> <Gold.Chemscore.DEInternal.Weighted>
0.7157

> <Gold.Chemscore.Rot.Weighted>
5.6066

> <Gold.Chemscore.Internal.Correction.Weighted>
   9.000000E+99

> <Gold.Protein.RotatedTorsions>
[ 6907 6896 6895 6894 ] final    2.06 input  -60.11 | X-H torsion
[ 7974 7965 7964 7962 ] final   24.31 input  175.53 | X-H torsion
[ 8008 7997 7996 7995 ] final  149.32 input   59.86 | X-H torsion
[ 10167 10162 10161 10158 ] final  130.07 input  -65.29 | X-H torsion
[ 10718 10713 10712 10709 ] final -156.46 input   66.30 | X-H torsion
[ 10763 10752 10751 10750 ] final  130.11 input  -60.55 | X-H torsion
[ 11005 11000 10999 10996 ] final  124.09 input  -57.11 | X-H torsion

> <Gold.Protein.ActiveResidues>
 VAL166  LYS551  ARG553  GLY616  TRP617  ASP618  TYR619  PRO620  LYS621  CYS622 
 ASP623  PHE694  ASN695  SER759  ASP760  ASP761  ALA762  ILE779  LEU786  VAL792 
 PHE793  MET794  SER795  GLU796  ALA797  LYS798  CYS799  TRP800  GLU811  SER814 

> <Gold.Protein.RotatedAtoms>
  151.6027  135.1046  160.0063 H   0  0  0  0  0  0  0  0  0  0  0  0  # atno 6907 bound_to 6896
  152.4249  133.7174  159.6524 H   0  0  0  0  0  0  0  0  0  0  0  0  # atno 6908 bound_to 6896
  150.8138  133.8302  159.3192 H   0  0  0  0  0  0  0  0  0  0  0  0  # atno 6909 bound_to 6896
  146.1943  139.7622  142.8808 H   0  0  0  0  0  0  0  0  0  0  0  0  # atno 7974 bound_to 7965
  156.2759  140.2105  156.5838 H   0  0  0  0  0  0  0  0  0  0  0  0  # atno 8008 bound_to 7997
  154.7037  140.0518  157.0506 H   0  0  0  0  0  0  0  0  0  0  0  0  # atno 8009 bound_to 7997
  155.0700  140.3175  155.4636 H   0  0  0  0  0  0  0  0  0  0  0  0  # atno 8010 bound_to 7997
  139.5447  144.6763  151.4511 H   0  0  0  0  0  0  0  0  0  0  0  0  # atno 10167 bound_to 10162
  156.5268  130.8503  151.2702 H   0  0  0  0  0  0  0  0  0  0  0  0  # atno 10718 bound_to 10713
  153.7528  135.3207  155.3324 H   0  0  0  0  0  0  0  0  0  0  0  0  # atno 10763 bound_to 10752
  154.8257  135.4571  154.0915 H   0  0  0  0  0  0  0  0  0  0  0  0  # atno 10764 bound_to 10752
  153.2123  135.6937  153.8182 H   0  0  0  0  0  0  0  0  0  0  0  0  # atno 10765 bound_to 10752
  139.9342  134.9640  156.8357 H   0  0  0  0  0  0  0  0  0  0  0  0  # atno 11005 bound_to 11000
  145.3692  141.0340  143.3240 LP  0  0  0  0  0  0  0  0  0  0  0  0  # atno 17320 bound_to 7965
  144.8549  139.5264  143.6839 LP  0  0  0  0  0  0  0  0  0  0  0  0  # atno 17321 bound_to 7965
  140.6691  143.8333  150.6977 LP  0  0  0  0  0  0  0  0  0  0  0  0  # atno 17342 bound_to 10162
  140.1752  143.4161  152.1972 LP  0  0  0  0  0  0  0  0  0  0  0  0  # atno 17343 bound_to 10162
  157.7428  130.9898  150.2545 LP  0  0  0  0  0  0  0  0  0  0  0  0  # atno 17370 bound_to 10713
  156.3098  130.3770  149.7672 LP  0  0  0  0  0  0  0  0  0  0  0  0  # atno 17371 bound_to 10713
  140.6119  134.0074  155.7580 LP  0  0  0  0  0  0  0  0  0  0  0  0  # atno 17394 bound_to 11000
  141.0948  133.9861  157.3179 LP  0  0  0  0  0  0  0  0  0  0  0  0  # atno 17395 bound_to 11000

$$$$
