AV-unprocessed.smi:2568|AV-procd|sdf|10096|dock7
  -GOLD-   2272014113D 1   1.00000     0.00000
 Structure written by MMmdl.
 24 25  0  0  0  0  0  0  0  0  1 V2000
  151.5519  139.3081  155.3770 C   0  0  0  0  0  0  0  0  0  0  0  0
  151.4481  140.2077  156.5612 C   0  0  0  0  0  0  0  0  0  0  0  0
  150.2919  140.7755  156.9003 N   0  0  0  0  0  0  0  0  0  0  0  0
  150.6388  141.4832  157.9959 N   0  0  0  0  0  0  0  0  0  0  0  0
  151.9376  141.3040  158.2472 C   0  0  0  0  0  0  0  0  0  0  0  0
  152.6209  141.9718  159.3987 C   0  0  2  0  0  0  0  0  0  0  0  0
  153.1904  140.9595  160.4119 C   0  0  0  0  0  0  0  0  0  0  0  0
  153.7716  141.6615  161.5549 N   0  0  0  0  0  0  0  0  0  0  0  0
  152.7998  142.5655  162.1684 C   0  0  0  0  0  0  0  0  0  0  0  0
  152.2293  143.5337  161.1160 C   0  0  0  0  0  0  0  0  0  0  0  0
  151.6521  142.7921  160.0465 O   0  0  0  0  0  0  0  0  0  0  0  0
  152.5176  140.4990  157.3610 N   0  0  0  0  0  0  0  0  0  0  0  0
  149.9847  142.0479  158.5186 H   0  0  0  0  0  0  0  0  0  0  0  0
  150.6545  139.3705  154.7604 H   0  0  0  0  0  0  0  0  0  0  0  0
  151.6780  138.2748  155.7006 H   0  0  0  0  0  0  0  0  0  0  0  0
  152.4098  139.5867  154.7646 H   0  0  0  0  0  0  0  0  0  0  0  0
  153.4224  142.6009  159.0059 H   0  0  0  0  0  0  0  0  0  0  0  0
  152.3975  140.2928  160.7533 H   0  0  0  0  0  0  0  0  0  0  0  0
  153.9444  140.3329  159.9346 H   0  0  0  0  0  0  0  0  0  0  0  0
  154.0891  140.9863  162.2431 H   0  0  0  0  0  0  0  0  0  0  0  0
  151.9874  141.9901  162.6136 H   0  0  0  0  0  0  0  0  0  0  0  0
  153.2684  143.1247  162.9786 H   0  0  0  0  0  0  0  0  0  0  0  0
  151.4598  144.1624  161.5640 H   0  0  0  0  0  0  0  0  0  0  0  0
  153.0047  144.2016  160.7371 H   0  0  0  0  0  0  0  0  0  0  0  0
  1  2  1  0  0  0  0
  1 14  1  0  0  0  0
  1 15  1  0  0  0  0
  1 16  1  0  0  0  0
  2 12  1  0  0  0  0
  2  3  2  0  0  0  0
  3  4  1  0  0  0  0
  4 13  1  0  0  0  0
  4  5  1  0  0  0  0
  5  6  1  0  0  0  0
  5 12  2  0  0  0  0
  6 11  1  0  0  0  0
  6  7  1  0  0  0  0
  6 17  1  0  0  0  0
  7  8  1  0  0  0  0
  7 18  1  0  0  0  0
  7 19  1  0  0  0  0
  8  9  1  0  0  0  0
  8 20  1  0  0  0  0
  9 10  1  0  0  0  0
  9 21  1  0  0  0  0
  9 22  1  0  0  0  0
 10 11  1  0  0  0  0
 10 23  1  0  0  0  0
 10 24  1  0  0  0  0
M  END
> <s_m_source_file>
AV-unprocessed.smi

> <i_m_source_file_index>
2568

> <i_lp_mmshare_version>
43012

> <i_f3d_flags>
0

> <s_epik_input>
W0NIM11jMW5bbkhdYyhuMSlbQ0BASF0yW0NIMl1bTkhdW0NIMl1bQ0gyXU8y

> <s_epik_cmdline>
J2VwaWtfcHl0aG9uJywgJy1waCcsICc3LjAnLCAnLXRuJywgJzgnLCAnLW1hJywgJzIwMCcsICctbWV0YWxfYmluZGluZycsICctaW1hZScsICc8aW5maWxlLm1hZT4nLCAnLW9tYWUnLCAnPG91dGZpbGUubWFlPic=

> <r_lp_tautomer_probability>
0.948284

> <r_epik_Ionization_Penalty>
0.982563

> <r_epik_Ionization_Penalty_Charging>
0

> <r_epik_Ionization_Penalty_Neutral>
0.982563

> <r_epik_State_Penalty>
2.21233

> <r_epik_Charging_Adjusted_Penalty>
2.21233

> <i_epik_Tot_Q>
0

> <i_epik_Tot_abs_Q>
0

> <r_epik_Metal_State_Penalty>
2.51138

> <b_epik_Metal_Only>
0

> <s_lp_Force_Field>
OPLS_2005

> <r_lp_Energy>
12.795

> <b_lp_Chiralities_Consistent>
1

> <s_lp_Variant>
AV-unprocessed.smi:2568-9

> <Gold.Version>
5.8.1

> <Gold.Id.Protein>
6NUR|6NUR_protein|mol2

> <Gold.PLP.Fitness>
26.9616

> <Gold.PLP.PLP>
-24.3446

> <Gold.PLP.part.hbond>
-1.2305

> <Gold.PLP.part.metal>
0.0000

> <Gold.PLP.part.buried>
-2.1212

> <Gold.PLP.part.nonpolar>
-20.1565

> <Gold.PLP.part.repulsive>
0.1326

> <Gold.PLP.ligand.clash>
0.0000

> <Gold.PLP.ligand.torsion>
0.0119

> <Gold.PLP.Chemscore.Hbond>
0.8800

> <Gold.PLP.Chemscore.CHOScore>
0.0000

> <Gold.PLP.Chemscore.Metal>
0.0000

> <Gold.Chemscore.Hbonds>
donor molecule, donor type, donor heavy atom, donor atom, acceptor molecule, acceptor atom, score
      P1  H  7997  8009       L1    12  0.88

> <Gold.PLP.Chemscore.Internal.Correction>
0.0008

> <Gold.Rescore>
     Score         DG    S(hbond)    S(metal)    S(lipo)     H(rot)  DE(clash)    DE(int)     intcor
     11.93     -12.00       0.92        0.00      51.30       1.00       0.04       0.04       ----

> <Gold.Chemscore.Fitness>
11.9296

> <Gold.Chemscore.DG>
-12.0039

> <Gold.Chemscore.ZeroCoef>
-5.4800

> <Gold.Chemscore.Hbond>
0.9227

> <Gold.Chemscore.Metal>
0.0000

> <Gold.Chemscore.Lipo>
51.2983

> <Gold.Chemscore.Internal_Hbond>
0.0000

> <Gold.Chemscore.DEClash>
0.0369

> <Gold.Chemscore.DEInternal>
0.0373

> <Gold.Chemscore.Rot>
1.0000

> <Gold.Chemscore.Internal.Correction>
   9.000000E+99

> <Gold.Chemscore.Hbonds>
donor molecule, donor type, donor heavy atom, donor atom, acceptor molecule, acceptor atom, score
      P1  H  7997  8009       L1    12  0.79

> <Gold.Chemscore.Hbond.Weighted>
-3.0819

> <Gold.Chemscore.Metal.Weighted>
-0.0000

> <Gold.Chemscore.Lipo.Weighted>
-6.0019

> <Gold.Chemscore.Internal_Hbond.Weighted>
0.0000

> <Gold.Chemscore.DEClash.Weighted>
0.0369

> <Gold.Chemscore.DEInternal.Weighted>
0.0373

> <Gold.Chemscore.Rot.Weighted>
2.5600

> <Gold.Chemscore.Internal.Correction.Weighted>
   9.000000E+99

> <Gold.Protein.RotatedTorsions>
[ 6907 6896 6895 6894 ] final -126.37 input  -60.11 | X-H torsion
[ 7974 7965 7964 7962 ] final -131.11 input  175.53 | X-H torsion
[ 8008 7997 7996 7995 ] final  175.95 input   59.86 | X-H torsion
[ 10167 10162 10161 10158 ] final   27.43 input  -65.29 | X-H torsion
[ 10718 10713 10712 10709 ] final  157.49 input   66.30 | X-H torsion
[ 10763 10752 10751 10750 ] final  -58.44 input  -60.55 | X-H torsion
[ 11005 11000 10999 10996 ] final  118.43 input  -57.11 | X-H torsion

> <Gold.Protein.ActiveResidues>
 VAL166  LYS551  ARG553  GLY616  TRP617  ASP618  TYR619  PRO620  LYS621  CYS622 
 ASP623  PHE694  ASN695  SER759  ASP760  ASP761  ALA762  ILE779  LEU786  VAL792 
 PHE793  MET794  SER795  GLU796  ALA797  LYS798  CYS799  TRP800  GLU811  SER814 

> <Gold.Protein.RotatedAtoms>
  150.8962  133.7177  159.2890 H   0  0  0  0  0  0  0  0  0  0  0  0  # atno 6907 bound_to 6896
  151.4711  135.1044  159.9761 H   0  0  0  0  0  0  0  0  0  0  0  0  # atno 6908 bound_to 6896
  152.4850  133.8302  159.7154 H   0  0  0  0  0  0  0  0  0  0  0  0  # atno 6909 bound_to 6896
  144.9410  140.7238  143.4846 H   0  0  0  0  0  0  0  0  0  0  0  0  # atno 7974 bound_to 7965
  156.0817  140.1396  156.9704 H   0  0  0  0  0  0  0  0  0  0  0  0  # atno 8008 bound_to 7997
  154.4589  140.0951  156.6885 H   0  0  0  0  0  0  0  0  0  0  0  0  # atno 8009 bound_to 7997
  155.5065  140.3452  155.4383 H   0  0  0  0  0  0  0  0  0  0  0  0  # atno 8010 bound_to 7997
  140.4939  144.0423  150.6307 H   0  0  0  0  0  0  0  0  0  0  0  0  # atno 10167 bound_to 10162
  157.1907  131.0654  151.2081 H   0  0  0  0  0  0  0  0  0  0  0  0  # atno 10718 bound_to 10713
  154.2382  135.6348  153.5198 H   0  0  0  0  0  0  0  0  0  0  0  0  # atno 10763 bound_to 10752
  152.9935  135.5535  154.5939 H   0  0  0  0  0  0  0  0  0  0  0  0  # atno 10764 bound_to 10752
  154.5438  135.2896  155.1045 H   0  0  0  0  0  0  0  0  0  0  0  0  # atno 10765 bound_to 10752
  139.9109  134.9620  156.7501 H   0  0  0  0  0  0  0  0  0  0  0  0  # atno 11005 bound_to 11000
  145.2991  139.1856  143.4699 LP  0  0  0  0  0  0  0  0  0  0  0  0  # atno 17320 bound_to 7965
  146.3285  140.2979  142.8619 LP  0  0  0  0  0  0  0  0  0  0  0  0  # atno 17321 bound_to 7965
  140.3700  143.2860  152.0289 LP  0  0  0  0  0  0  0  0  0  0  0  0  # atno 17342 bound_to 10162
  139.4857  144.6237  151.7205 LP  0  0  0  0  0  0  0  0  0  0  0  0  # atno 17343 bound_to 10162
  157.3863  130.7258  149.6666 LP  0  0  0  0  0  0  0  0  0  0  0  0  # atno 17370 bound_to 10713
  155.9712  130.4158  150.4202 LP  0  0  0  0  0  0  0  0  0  0  0  0  # atno 17371 bound_to 10713
  140.6780  133.9500  155.7894 LP  0  0  0  0  0  0  0  0  0  0  0  0  # atno 17394 bound_to 11000
  141.0530  134.0456  157.3758 LP  0  0  0  0  0  0  0  0  0  0  0  0  # atno 17395 bound_to 11000

$$$$
