AV-unprocessed.smi:670|AV-procd|sdf|3272|dock9
  -GOLD-   22720 0233D 1   1.00000     0.00000
 Structure written by MMmdl.
 45 46  0  0  0  0  0  0  0  0  1 V2000
  151.1112  145.0530  160.4203 C   0  0  0  0  0  0  0  0  0  0  0  0
  152.3237  144.1372  160.6562 C   0  0  1  0  0  0  0  0  0  0  0  0
  152.1794  143.3760  161.9894 C   0  0  0  0  0  0  0  0  0  0  0  0
  153.3721  142.4424  162.2458 C   0  0  0  0  0  0  0  0  0  0  0  0
  153.5629  141.4604  161.0815 C   0  0  0  0  0  0  0  0  0  0  0  0
  153.7224  142.2090  159.7501 C   0  0  0  0  0  0  0  0  0  0  0  0
  152.5299  143.1514  159.4840 C   0  0  2  0  0  0  0  0  0  0  0  0
  152.7788  143.9198  158.3136 O   0  0  0  0  0  0  0  0  0  0  0  0
  151.6938  143.9749  157.3989 C   0  0  0  0  0  0  0  0  0  0  0  0
  151.2834  142.5403  157.0368 C   0  0  0  0  0  0  0  0  0  0  0  0
  149.9387  142.4954  156.4731 N   0  0  0  0  0  0  0  0  0  0  0  0
  149.2281  141.3786  156.2566 C   0  0  0  0  0  0  0  0  0  0  0  0
  149.6656  140.2481  156.4762 O   0  0  0  0  0  0  0  0  0  0  0  0
  147.8138  141.5801  155.6931 C   0  0  0  0  0  0  0  0  0  0  0  0
  146.9180  142.2981  156.6112 N   0  0  0  0  0  0  0  0  0  0  0  0
  147.3131  142.2529  157.9397 N   0  0  0  0  0  0  0  0  0  0  0  0
  146.6160  142.8586  158.8408 C   0  0  0  0  0  0  0  0  0  0  0  0
  147.0445  142.7905  160.1440 O   0  0  0  0  0  0  0  0  0  0  0  0
  145.4163  143.5887  158.4938 C   0  0  0  0  0  0  0  0  0  0  0  0
  145.0361  143.6218  157.1979 C   0  0  0  0  0  0  0  0  0  0  0  0
  145.8032  142.9448  156.1506 C   0  0  0  0  0  0  0  0  0  0  0  0
  145.4777  142.9553  154.9639 O   0  0  0  0  0  0  0  0  0  0  0  0
  146.4638  143.3552  160.6303 H   0  0  0  0  0  0  0  0  0  0  0  0
  150.1907  144.4752  160.3303 H   0  0  0  0  0  0  0  0  0  0  0  0
  151.2245  145.6391  159.5077 H   0  0  0  0  0  0  0  0  0  0  0  0
  150.9834  145.7555  161.2440 H   0  0  0  0  0  0  0  0  0  0  0  0
  153.2094  144.7705  160.7271 H   0  0  0  0  0  0  0  0  0  0  0  0
  152.0883  144.0831  162.8146 H   0  0  0  0  0  0  0  0  0  0  0  0
  151.2581  142.7918  161.9822 H   0  0  0  0  0  0  0  0  0  0  0  0
  154.2787  143.0341  162.3795 H   0  0  0  0  0  0  0  0  0  0  0  0
  153.2213  141.8927  163.1752 H   0  0  0  0  0  0  0  0  0  0  0  0
  154.4358  140.8326  161.2625 H   0  0  0  0  0  0  0  0  0  0  0  0
  152.7050  140.7895  161.0237 H   0  0  0  0  0  0  0  0  0  0  0  0
  154.6478  142.7863  159.7676 H   0  0  0  0  0  0  0  0  0  0  0  0
  153.8263  141.4848  158.9423 H   0  0  0  0  0  0  0  0  0  0  0  0
  151.6172  142.5640  159.3656 H   0  0  0  0  0  0  0  0  0  0  0  0
  150.8482  144.4976  157.8457 H   0  0  0  0  0  0  0  0  0  0  0  0
  151.9766  144.5236  156.4993 H   0  0  0  0  0  0  0  0  0  0  0  0
  151.9787  142.1287  156.3051 H   0  0  0  0  0  0  0  0  0  0  0  0
  151.3404  141.8973  157.9166 H   0  0  0  0  0  0  0  0  0  0  0  0
  149.5047  143.3824  156.2627 H   0  0  0  0  0  0  0  0  0  0  0  0
  147.8719  142.1128  154.7417 H   0  0  0  0  0  0  0  0  0  0  0  0
  147.4024  140.5977  155.4542 H   0  0  0  0  0  0  0  0  0  0  0  0
  144.8433  144.0919  159.2588 H   0  0  0  0  0  0  0  0  0  0  0  0
  144.1420  144.1626  156.9245 H   0  0  0  0  0  0  0  0  0  0  0  0
  1  2  1  0  0  0  0
  1 24  1  0  0  0  0
  1 25  1  0  0  0  0
  1 26  1  0  0  0  0
  2  7  1  0  0  0  0
  2  3  1  0  0  0  0
  2 27  1  0  0  0  0
  3  4  1  0  0  0  0
  3 28  1  0  0  0  0
  3 29  1  0  0  0  0
  4  5  1  0  0  0  0
  4 30  1  0  0  0  0
  4 31  1  0  0  0  0
  5  6  1  0  0  0  0
  5 32  1  0  0  0  0
  5 33  1  0  0  0  0
  6  7  1  0  0  0  0
  6 34  1  0  0  0  0
  6 35  1  0  0  0  0
  7  8  1  0  0  0  0
  7 36  1  0  0  0  0
  8  9  1  0  0  0  0
  9 10  1  0  0  0  0
  9 37  1  0  0  0  0
  9 38  1  0  0  0  0
 10 11  1  0  0  0  0
 10 39  1  0  0  0  0
 10 40  1  0  0  0  0
 11 12  1  0  0  0  0
 11 41  1  0  0  0  0
 12 13  2  0  0  0  0
 12 14  1  0  0  0  0
 14 42  1  0  0  0  0
 14 43  1  0  0  0  0
 14 15  1  0  0  0  0
 15 16  1  0  0  0  0
 15 21  1  0  0  0  0
 16 17  2  0  0  0  0
 17 18  1  0  0  0  0
 17 19  1  0  0  0  0
 18 23  1  0  0  0  0
 19 44  1  0  0  0  0
 19 20  2  0  0  0  0
 20 45  1  0  0  0  0
 20 21  1  0  0  0  0
 21 22  2  0  0  0  0
M  END
> <s_m_source_file>
AV-unprocessed.smi

> <i_m_source_file_index>
670

> <i_lp_mmshare_version>
43012

> <i_f3d_flags>
0

> <s_epik_input>
W0NIM11bQ0BASF0xW0NIMl1bQ0gyXVtDSDJdW0NIMl1bQ0BIXTFPW0NIMl1bQ0gyXVtOSF1DKD1PKVtDSDJdbjJbbkhdYyg9TylbY0hdW2NIXWMyPU8=

> <s_epik_cmdline>
J2VwaWtfcHl0aG9uJywgJy1waCcsICc3LjAnLCAnLXRuJywgJzgnLCAnLW1hJywgJzIwMCcsICctbWV0YWxfYmluZGluZycsICctaW1hZScsICc8aW5maWxlLm1hZT4nLCAnLW9tYWUnLCAnPG91dGZpbGUubWFlPic=

> <r_lp_tautomer_probability>
0.9996

> <r_epik_Ionization_Penalty>
2.12726

> <r_epik_Ionization_Penalty_Charging>
3.83395e-08

> <r_epik_Ionization_Penalty_Neutral>
2.12726

> <r_epik_State_Penalty>
1.70432

> <r_epik_Charging_Adjusted_Penalty>
1.70432

> <i_epik_Tot_Q>
0

> <i_epik_Tot_abs_Q>
0

> <r_epik_Metal_State_Penalty>
1.70432

> <b_epik_Metal_Only>
0

> <s_lp_Force_Field>
OPLS_2005

> <r_lp_Energy>
20.1935

> <b_lp_Chiralities_Consistent>
1

> <s_lp_Variant>
AV-unprocessed.smi:670-8

> <Gold.Version>
5.8.1

> <Gold.Id.Protein>
6NUR|6NUR_protein|mol2

> <Gold.PLP.Fitness>
48.6251

> <Gold.PLP.PLP>
-42.6236

> <Gold.PLP.part.hbond>
-3.0000

> <Gold.PLP.part.metal>
0.0000

> <Gold.PLP.part.buried>
-5.1367

> <Gold.PLP.part.nonpolar>
-35.8435

> <Gold.PLP.part.repulsive>
0.4187

> <Gold.PLP.ligand.clash>
0.0000

> <Gold.PLP.ligand.torsion>
1.1233

> <Gold.PLP.Chemscore.Hbond>
2.7380

> <Gold.PLP.Chemscore.CHOScore>
0.0000

> <Gold.PLP.Chemscore.Metal>
0.0000

> <Gold.Chemscore.Hbonds>
donor molecule, donor type, donor heavy atom, donor atom, acceptor molecule, acceptor atom, score
      L1  H    11    41       P1  8028  1.00
      P1  H  6933  6944       L1    18  0.85
      P1  H  6934  6946       L1    18  0.85

> <Gold.PLP.Chemscore.Internal.Correction>
0.0341

> <Gold.Rescore>
     Score         DG    S(hbond)    S(metal)    S(lipo)     H(rot)  DE(clash)    DE(int)     intcor
     15.92     -17.57       2.11        0.00     110.71       3.09       0.35       1.30       ----

> <Gold.Chemscore.Fitness>
15.9161

> <Gold.Chemscore.DG>
-17.5691

> <Gold.Chemscore.ZeroCoef>
-5.4800

> <Gold.Chemscore.Hbond>
2.1096

> <Gold.Chemscore.Metal>
0.0000

> <Gold.Chemscore.Lipo>
110.7147

> <Gold.Chemscore.Internal_Hbond>
0.0000

> <Gold.Chemscore.DEClash>
0.3483

> <Gold.Chemscore.DEInternal>
1.3048

> <Gold.Chemscore.Rot>
3.0901

> <Gold.Chemscore.Internal.Correction>
   9.000000E+99

> <Gold.Chemscore.Hbonds>
donor molecule, donor type, donor heavy atom, donor atom, acceptor molecule, acceptor atom, score
      L1  H    11    41       P1  8028  0.98
      P1  H  6933  6944       L1    18  0.40
      P1  H  6934  6946       L1    18  0.44

> <Gold.Chemscore.Hbond.Weighted>
-7.0461

> <Gold.Chemscore.Metal.Weighted>
-0.0000

> <Gold.Chemscore.Lipo.Weighted>
-12.9536

> <Gold.Chemscore.Internal_Hbond.Weighted>
0.0000

> <Gold.Chemscore.DEClash.Weighted>
0.3483

> <Gold.Chemscore.DEInternal.Weighted>
1.3048

> <Gold.Chemscore.Rot.Weighted>
7.9106

> <Gold.Chemscore.Internal.Correction.Weighted>
   9.000000E+99

> <Gold.Protein.RotatedTorsions>
[ 6907 6896 6895 6894 ] final  -57.46 input  -60.11 | X-H torsion
[ 7974 7965 7964 7962 ] final  -79.84 input  175.53 | X-H torsion
[ 8008 7997 7996 7995 ] final -110.67 input   59.86 | X-H torsion
[ 10167 10162 10161 10158 ] final  116.89 input  -65.29 | X-H torsion
[ 10718 10713 10712 10709 ] final -168.89 input   66.30 | X-H torsion
[ 10763 10752 10751 10750 ] final -108.45 input  -60.55 | X-H torsion
[ 11005 11000 10999 10996 ] final -178.27 input  -57.11 | X-H torsion

> <Gold.Protein.ActiveResidues>
 VAL166  LYS551  ARG553  GLY616  TRP617  ASP618  TYR619  PRO620  LYS621  CYS622 
 ASP623  PHE694  ASN695  SER759  ASP760  ASP761  ALA762  ILE779  LEU786  VAL792 
 PHE793  MET794  SER795  GLU796  ALA797  LYS798  CYS799  TRP800  GLU811  SER814 

> <Gold.Protein.RotatedAtoms>
  150.8084  134.7224  159.6665 H   0  0  0  0  0  0  0  0  0  0  0  0  # atno 6907 bound_to 6896
  152.4204  134.5962  159.9997 H   0  0  0  0  0  0  0  0  0  0  0  0  # atno 6908 bound_to 6896
  151.6179  133.3304  159.3117 H   0  0  0  0  0  0  0  0  0  0  0  0  # atno 6909 bound_to 6896
  145.5678  140.9471  143.1412 H   0  0  0  0  0  0  0  0  0  0  0  0  # atno 7974 bound_to 7965
  154.9780  140.0396  157.2265 H   0  0  0  0  0  0  0  0  0  0  0  0  # atno 8008 bound_to 7997
  154.7740  140.2807  155.6093 H   0  0  0  0  0  0  0  0  0  0  0  0  # atno 8009 bound_to 7997
  156.2925  140.2604  156.2549 H   0  0  0  0  0  0  0  0  0  0  0  0  # atno 8010 bound_to 7997
  139.6216  144.7102  151.2622 H   0  0  0  0  0  0  0  0  0  0  0  0  # atno 10167 bound_to 10162
  156.7035  130.9206  151.3082 H   0  0  0  0  0  0  0  0  0  0  0  0  # atno 10718 bound_to 10713
  154.8136  135.4637  154.0582 H   0  0  0  0  0  0  0  0  0  0  0  0  # atno 10763 bound_to 10752
  153.1993  135.6866  153.8258 H   0  0  0  0  0  0  0  0  0  0  0  0  # atno 10764 bound_to 10752
  153.7749  135.3265  155.3334 H   0  0  0  0  0  0  0  0  0  0  0  0  # atno 10765 bound_to 10752
  140.4316  134.6513  157.4714 H   0  0  0  0  0  0  0  0  0  0  0  0  # atno 11005 bound_to 11000
  144.7452  139.7340  143.7295 LP  0  0  0  0  0  0  0  0  0  0  0  0  # atno 17320 bound_to 7965
  146.1806  139.4996  142.9869 LP  0  0  0  0  0  0  0  0  0  0  0  0  # atno 17321 bound_to 7965
  140.7385  143.6645  150.8135 LP  0  0  0  0  0  0  0  0  0  0  0  0  # atno 17342 bound_to 10162
  140.0256  143.5497  152.2782 LP  0  0  0  0  0  0  0  0  0  0  0  0  # atno 17343 bound_to 10162
  157.6964  130.9286  150.0656 LP  0  0  0  0  0  0  0  0  0  0  0  0  # atno 17370 bound_to 10713
  156.1711  130.3646  149.9163 LP  0  0  0  0  0  0  0  0  0  0  0  0  # atno 17371 bound_to 10713
  140.0130  134.6661  155.9352 LP  0  0  0  0  0  0  0  0  0  0  0  0  # atno 17394 bound_to 11000
  141.1743  133.6539  156.4769 LP  0  0  0  0  0  0  0  0  0  0  0  0  # atno 17395 bound_to 11000

$$$$
