AV-unprocessed.smi:2975|AV-procd|sdf|11356|dock3
  -GOLD-   2272016273D 1   1.00000     0.00000
 Structure written by MMmdl.
 39 41  0  0  0  0  0  0  0  0  1 V2000
  151.0091  136.3882  155.8115 C   0  0  0  0  0  0  0  0  0  0  0  0
  151.5455  137.6191  155.0669 C   0  0  1  0  0  0  0  0  0  0  0  0
  152.1603  137.1884  153.8707 O   0  0  0  0  0  0  0  0  0  0  0  0
  150.4650  138.6323  154.8056 C   0  0  0  0  0  0  0  0  0  0  0  0
  149.3882  138.3175  154.0812 N   0  0  0  0  0  0  0  0  0  0  0  0
  148.6575  139.4875  154.0882 C   0  0  0  0  0  0  0  0  0  0  0  0
  147.4074  139.7923  153.5038 C   0  0  0  0  0  0  0  0  0  0  0  0
  146.8474  141.0784  153.6475 C   0  0  0  0  0  0  0  0  0  0  0  0
  147.5282  142.0755  154.3754 C   0  0  0  0  0  0  0  0  0  0  0  0
  148.7757  141.7922  154.9638 C   0  0  0  0  0  0  0  0  0  0  0  0
  149.3308  140.5063  154.8178 C   0  0  0  0  0  0  0  0  0  0  0  0
  150.5124  139.9149  155.2568 N   0  0  0  0  0  0  0  0  0  0  0  0
  151.5473  140.5882  156.0314 C   0  0  0  0  0  0  0  0  0  0  0  0
  151.0318  141.0951  157.3856 C   0  0  0  0  0  0  0  0  0  0  0  0
  151.5400  142.3971  157.6432 O   0  0  0  0  0  0  0  0  0  0  0  0
  151.9466  142.6948  158.9271 C   0  0  0  0  0  0  0  0  0  0  0  0
  152.4707  141.7389  159.8348 C   0  0  0  0  0  0  0  0  0  0  0  0
  152.8719  142.1263  161.1281 C   0  0  0  0  0  0  0  0  0  0  0  0
  152.7530  143.4682  161.5328 C   0  0  0  0  0  0  0  0  0  0  0  0
  152.2318  144.4234  160.6412 C   0  0  0  0  0  0  0  0  0  0  0  0
  151.8312  144.0377  159.3473 C   0  0  0  0  0  0  0  0  0  0  0  0
  151.3221  144.9680  158.5052 F   0  0  0  0  0  0  0  0  0  0  0  0
  150.5348  136.6753  156.7499 H   0  0  0  0  0  0  0  0  0  0  0  0
  151.8125  135.6893  156.0460 H   0  0  0  0  0  0  0  0  0  0  0  0
  150.2661  135.8533  155.2189 H   0  0  0  0  0  0  0  0  0  0  0  0
  152.3317  138.0565  155.6778 H   0  0  0  0  0  0  0  0  0  0  0  0
  151.4816  136.9190  153.2707 H   0  0  0  0  0  0  0  0  0  0  0  0
  146.8784  139.0347  152.9450 H   0  0  0  0  0  0  0  0  0  0  0  0
  145.8910  141.3007  153.1972 H   0  0  0  0  0  0  0  0  0  0  0  0
  147.0923  143.0581  154.4813 H   0  0  0  0  0  0  0  0  0  0  0  0
  149.2987  142.5546  155.5217 H   0  0  0  0  0  0  0  0  0  0  0  0
  152.4113  139.9363  156.1539 H   0  0  0  0  0  0  0  0  0  0  0  0
  151.9060  141.4357  155.4467 H   0  0  0  0  0  0  0  0  0  0  0  0
  149.9415  141.1259  157.3649 H   0  0  0  0  0  0  0  0  0  0  0  0
  151.3333  140.4008  158.1717 H   0  0  0  0  0  0  0  0  0  0  0  0
  152.5800  140.7004  159.5626 H   0  0  0  0  0  0  0  0  0  0  0  0
  153.2732  141.3915  161.8107 H   0  0  0  0  0  0  0  0  0  0  0  0
  153.0606  143.7642  162.5250 H   0  0  0  0  0  0  0  0  0  0  0  0
  152.1373  145.4541  160.9499 H   0  0  0  0  0  0  0  0  0  0  0  0
  1  2  1  0  0  0  0
  1 23  1  0  0  0  0
  1 24  1  0  0  0  0
  1 25  1  0  0  0  0
  2  3  1  0  0  0  0
  2  4  1  0  0  0  0
  2 26  1  0  0  0  0
  3 27  1  0  0  0  0
  4 12  1  0  0  0  0
  4  5  2  0  0  0  0
  5  6  1  0  0  0  0
  6 11  2  0  0  0  0
  6  7  1  0  0  0  0
  7  8  2  0  0  0  0
  7 28  1  0  0  0  0
  8  9  1  0  0  0  0
  8 29  1  0  0  0  0
  9 10  2  0  0  0  0
  9 30  1  0  0  0  0
 10 11  1  0  0  0  0
 10 31  1  0  0  0  0
 11 12  1  0  0  0  0
 12 13  1  0  0  0  0
 13 14  1  0  0  0  0
 13 32  1  0  0  0  0
 13 33  1  0  0  0  0
 14 15  1  0  0  0  0
 14 34  1  0  0  0  0
 14 35  1  0  0  0  0
 15 16  1  0  0  0  0
 16 21  1  0  0  0  0
 16 17  2  0  0  0  0
 17 18  1  0  0  0  0
 17 36  1  0  0  0  0
 18 19  2  0  0  0  0
 18 37  1  0  0  0  0
 19 20  1  0  0  0  0
 19 38  1  0  0  0  0
 20 21  2  0  0  0  0
 20 39  1  0  0  0  0
 21 22  1  0  0  0  0
M  END
> <s_m_source_file>
AV-unprocessed.smi

> <i_m_source_file_index>
2975

> <i_lp_mmshare_version>
43012

> <i_f3d_flags>
0

> <s_epik_input>
W2NIXTFbY0hdW2NIXVtjSF1jKGMxMiluKGMobjIpW0NASF0oW0NIM10pW09IXSlbQ0gyXVtDSDJdT2MzW2NIXVtjSF1bY0hdW2NIXWMzRg==

> <s_epik_cmdline>
J2VwaWtfcHl0aG9uJywgJy1waCcsICc3LjAnLCAnLXRuJywgJzgnLCAnLW1hJywgJzIwMCcsICctbWV0YWxfYmluZGluZycsICctaW1hZScsICc8aW5maWxlLm1hZT4nLCAnLW9tYWUnLCAnPG91dGZpbGUubWFlPic=

> <r_lp_tautomer_probability>
1

> <r_epik_Ionization_Penalty>
0.0404035

> <r_epik_Ionization_Penalty_Charging>
0

> <r_epik_Ionization_Penalty_Neutral>
0.0404035

> <r_epik_State_Penalty>
0.0340039

> <r_epik_Charging_Adjusted_Penalty>
0.0340039

> <i_epik_Tot_Q>
0

> <i_epik_Tot_abs_Q>
0

> <r_epik_Metal_State_Penalty>
3.49976e-05

> <b_epik_Metal_Only>
0

> <s_lp_Force_Field>
OPLS_2005

> <r_lp_Energy>
14.7518

> <b_lp_Chiralities_Consistent>
1

> <s_lp_Variant>
AV-unprocessed.smi:2975-2

> <Gold.Version>
5.8.1

> <Gold.Id.Protein>
6NUR|6NUR_protein|mol2

> <Gold.PLP.Fitness>
56.1360

> <Gold.PLP.PLP>
-52.4342

> <Gold.PLP.part.hbond>
-2.0000

> <Gold.PLP.part.metal>
0.0000

> <Gold.PLP.part.buried>
-3.7082

> <Gold.PLP.part.nonpolar>
-48.0126

> <Gold.PLP.part.repulsive>
0.9214

> <Gold.PLP.ligand.clash>
0.0000

> <Gold.PLP.ligand.torsion>
0.9671

> <Gold.PLP.Chemscore.Hbond>
1.8560

> <Gold.PLP.Chemscore.CHOScore>
0.0000

> <Gold.PLP.Chemscore.Metal>
0.0000

> <Gold.Chemscore.Hbonds>
donor molecule, donor type, donor heavy atom, donor atom, acceptor molecule, acceptor atom, score
      L1  H     3    27       P1  7949  0.84
      P1  H 10752 10764       L1     3  0.99

> <Gold.PLP.Chemscore.Internal.Correction>
0.0679

> <Gold.Rescore>
     Score         DG    S(hbond)    S(metal)    S(lipo)     H(rot)  DE(clash)    DE(int)     intcor
     18.08     -20.47       1.52        0.00     132.85       2.21       1.37       1.01       ----

> <Gold.Chemscore.Fitness>
18.0822

> <Gold.Chemscore.DG>
-20.4681

> <Gold.Chemscore.ZeroCoef>
-5.4800

> <Gold.Chemscore.Hbond>
1.5246

> <Gold.Chemscore.Metal>
0.0000

> <Gold.Chemscore.Lipo>
132.8467

> <Gold.Chemscore.Internal_Hbond>
0.0000

> <Gold.Chemscore.DEClash>
1.3713

> <Gold.Chemscore.DEInternal>
1.0146

> <Gold.Chemscore.Rot>
2.2060

> <Gold.Chemscore.Internal.Correction>
   9.000000E+99

> <Gold.Chemscore.Hbonds>
donor molecule, donor type, donor heavy atom, donor atom, acceptor molecule, acceptor atom, score
      L1  H     3    27       P1  7949  0.69
      P1  H 10752 10764       L1     3  0.22

> <Gold.Chemscore.Hbond.Weighted>
-5.0923

> <Gold.Chemscore.Metal.Weighted>
-0.0000

> <Gold.Chemscore.Lipo.Weighted>
-15.5431

> <Gold.Chemscore.Internal_Hbond.Weighted>
0.0000

> <Gold.Chemscore.DEClash.Weighted>
1.3713

> <Gold.Chemscore.DEInternal.Weighted>
1.0146

> <Gold.Chemscore.Rot.Weighted>
5.6473

> <Gold.Chemscore.Internal.Correction.Weighted>
   9.000000E+99

> <Gold.Protein.RotatedTorsions>
[ 6907 6896 6895 6894 ] final  122.90 input  -60.11 | X-H torsion
[ 7974 7965 7964 7962 ] final  144.10 input  175.53 | X-H torsion
[ 8008 7997 7996 7995 ] final   71.69 input   59.86 | X-H torsion
[ 10167 10162 10161 10158 ] final   71.58 input  -65.29 | X-H torsion
[ 10718 10713 10712 10709 ] final -171.28 input   66.30 | X-H torsion
[ 10763 10752 10751 10750 ] final  -95.59 input  -60.55 | X-H torsion
[ 11005 11000 10999 10996 ] final   -1.04 input  -57.11 | X-H torsion

> <Gold.Protein.ActiveResidues>
 VAL166  LYS551  ARG553  GLY616  TRP617  ASP618  TYR619  PRO620  LYS621  CYS622 
 ASP623  PHE694  ASN695  SER759  ASP760  ASP761  ALA762  ILE779  LEU786  VAL792 
 PHE793  MET794  SER795  GLU796  ALA797  LYS798  CYS799  TRP800  GLU811  SER814 

> <Gold.Protein.RotatedAtoms>
  152.4205  133.7109  159.6477 H   0  0  0  0  0  0  0  0  0  0  0  0  # atno 6907 bound_to 6896
  150.8081  133.8461  159.3201 H   0  0  0  0  0  0  0  0  0  0  0  0  # atno 6908 bound_to 6896
  151.6179  135.1036  160.0147 H   0  0  0  0  0  0  0  0  0  0  0  0  # atno 6909 bound_to 6896
  144.8865  139.5622  143.5818 H   0  0  0  0  0  0  0  0  0  0  0  0  # atno 7974 bound_to 7965
  155.7577  140.3487  155.5182 H   0  0  0  0  0  0  0  0  0  0  0  0  # atno 8008 bound_to 7997
  155.8944  140.1023  157.1416 H   0  0  0  0  0  0  0  0  0  0  0  0  # atno 8009 bound_to 7997
  154.4037  140.1298  156.4344 H   0  0  0  0  0  0  0  0  0  0  0  0  # atno 8010 bound_to 7997
  140.0445  144.5362  150.7409 H   0  0  0  0  0  0  0  0  0  0  0  0  # atno 10167 bound_to 10162
  156.7385  130.9333  151.3109 H   0  0  0  0  0  0  0  0  0  0  0  0  # atno 10718 bound_to 10713
  154.7162  135.5115  153.8742 H   0  0  0  0  0  0  0  0  0  0  0  0  # atno 10763 bound_to 10752
  153.0822  135.6635  154.0030 H   0  0  0  0  0  0  0  0  0  0  0  0  # atno 10764 bound_to 10752
  153.9862  135.3024  155.3395 H   0  0  0  0  0  0  0  0  0  0  0  0  # atno 10765 bound_to 10752
  140.6429  133.9473  155.8336 H   0  0  0  0  0  0  0  0  0  0  0  0  # atno 11005 bound_to 11000
  146.3027  139.7479  142.9079 LP  0  0  0  0  0  0  0  0  0  0  0  0  # atno 17320 bound_to 7965
  145.3860  141.0365  143.3150 LP  0  0  0  0  0  0  0  0  0  0  0  0  # atno 17321 bound_to 7965
  140.7245  143.2622  151.4168 LP  0  0  0  0  0  0  0  0  0  0  0  0  # atno 17342 bound_to 10162
  139.5992  144.1332  152.2179 LP  0  0  0  0  0  0  0  0  0  0  0  0  # atno 17343 bound_to 10162
  157.6829  130.9157  150.0311 LP  0  0  0  0  0  0  0  0  0  0  0  0  # atno 17370 bound_to 10713
  156.1481  130.3642  149.9480 LP  0  0  0  0  0  0  0  0  0  0  0  0  # atno 17371 bound_to 10713
  141.0593  134.0369  157.3679 LP  0  0  0  0  0  0  0  0  0  0  0  0  # atno 17394 bound_to 11000
  139.9073  135.0182  156.7543 LP  0  0  0  0  0  0  0  0  0  0  0  0  # atno 17395 bound_to 11000

$$$$
