AV-unprocessed.smi:178|AV-procd|sdf|1447|dock2
  -GOLD-   2262019243D 1   1.00000     0.00000
 Structure written by MMmdl.
 50 52  0  0  0  0  0  0  0  0  1 V2000
  148.4491  136.3831  160.3300 C   0  0  0  0  0  0  0  0  0  0  0  0
  149.5766  136.2365  159.4844 O   0  0  0  0  0  0  0  0  0  0  0  0
  149.2990  136.5963  158.1421 C   0  0  0  0  0  0  0  0  0  0  0  0
  150.3444  135.9365  157.2293 C   0  0  0  0  0  0  0  0  0  0  0  0
  149.9397  135.9245  155.8216 N   0  0  0  0  0  0  0  0  0  0  0  0
  150.7224  136.6973  154.8607 C   0  0  0  0  0  0  0  0  0  0  0  0
  150.0266  138.0001  154.4447 C   0  0  0  0  0  0  0  0  0  0  0  0
  150.8327  139.1884  154.7587 C   0  0  0  0  0  0  0  0  0  0  0  0
  151.4672  140.1233  155.0065 N   0  0  0  0  0  0  0  0  0  0  0  0
  148.7625  135.3367  155.4602 C   0  0  0  0  0  0  0  0  0  0  0  0
  147.6329  135.7216  156.1130 N   0  0  0  0  0  0  0  0  0  0  0  0
  146.4482  135.1856  155.8115 C   0  0  0  0  0  0  0  0  0  0  0  0
  146.1631  134.2574  154.8994 N   0  0  0  0  0  0  0  0  0  0  0  0
  147.2836  133.8611  154.2330 C   0  0  0  0  0  0  0  0  0  0  0  0
  148.6098  134.3433  154.4424 C   0  0  0  0  0  0  0  0  0  0  0  0
  149.4716  133.7101  153.5515 N   0  0  0  0  0  0  0  0  0  0  0  0
  148.7083  132.9023  152.8700 C   0  0  0  0  0  0  0  0  0  0  0  0
  147.3798  132.9196  153.2229 N   0  0  0  0  0  0  0  0  0  0  0  0
  146.3140  132.1207  152.6386 C   0  0  0  0  0  0  0  0  0  0  0  0
  145.8366  132.6394  151.2606 C   0  0  1  0  0  0  0  0  0  0  0  0
  146.9696  132.8114  150.4246 O   0  0  0  0  0  0  0  0  0  0  0  0
  144.8888  131.6673  150.5731 C   0  0  0  0  0  0  0  0  0  0  0  0
  144.0940  132.5779  149.6473 C   0  0  0  0  0  0  0  0  0  0  0  0
  143.8973  133.7550  150.4159 O   0  0  0  0  0  0  0  0  0  0  0  0
  144.9877  133.9357  151.3183 C   0  0  2  0  0  0  0  0  0  0  0  0
  145.7154  135.2558  151.0078 C   0  0  0  0  0  0  0  0  0  0  0  0
  148.7172  136.1027  161.3488 H   0  0  0  0  0  0  0  0  0  0  0  0
  147.6287  135.7402  160.0085 H   0  0  0  0  0  0  0  0  0  0  0  0
  148.0989  137.4160  160.3463 H   0  0  0  0  0  0  0  0  0  0  0  0
  148.2943  136.2687  157.8712 H   0  0  0  0  0  0  0  0  0  0  0  0
  149.3295  137.6812  158.0367 H   0  0  0  0  0  0  0  0  0  0  0  0
  151.2850  136.4809  157.3188 H   0  0  0  0  0  0  0  0  0  0  0  0
  150.5603  134.9232  157.5699 H   0  0  0  0  0  0  0  0  0  0  0  0
  151.6848  136.9374  155.3136 H   0  0  0  0  0  0  0  0  0  0  0  0
  150.9660  136.0903  153.9894 H   0  0  0  0  0  0  0  0  0  0  0  0
  149.8241  138.0120  153.3740 H   0  0  0  0  0  0  0  0  0  0  0  0
  149.0698  138.1047  154.9556 H   0  0  0  0  0  0  0  0  0  0  0  0
  145.6093  135.5530  156.3838 H   0  0  0  0  0  0  0  0  0  0  0  0
  149.0989  132.2635  152.0914 H   0  0  0  0  0  0  0  0  0  0  0  0
  146.6602  131.0893  152.5566 H   0  0  0  0  0  0  0  0  0  0  0  0
  145.4813  132.1063  153.3432 H   0  0  0  0  0  0  0  0  0  0  0  0
  147.4421  131.9939  150.3880 H   0  0  0  0  0  0  0  0  0  0  0  0
  145.3951  130.8568  150.0473 H   0  0  0  0  0  0  0  0  0  0  0  0
  144.2101  131.2193  151.3007 H   0  0  0  0  0  0  0  0  0  0  0  0
  144.6713  132.8226  148.7547 H   0  0  0  0  0  0  0  0  0  0  0  0
  143.1466  132.1393  149.3338 H   0  0  0  0  0  0  0  0  0  0  0  0
  144.5332  134.0194  152.3060 H   0  0  0  0  0  0  0  0  0  0  0  0
  146.5647  135.4079  151.6737 H   0  0  0  0  0  0  0  0  0  0  0  0
  145.0421  136.1042  151.1323 H   0  0  0  0  0  0  0  0  0  0  0  0
  146.0835  135.2802  149.9819 H   0  0  0  0  0  0  0  0  0  0  0  0
  1  2  1  0  0  0  0
  1 27  1  0  0  0  0
  1 28  1  0  0  0  0
  1 29  1  0  0  0  0
  2  3  1  0  0  0  0
  3  4  1  0  0  0  0
  3 30  1  0  0  0  0
  3 31  1  0  0  0  0
  4  5  1  0  0  0  0
  4 32  1  0  0  0  0
  4 33  1  0  0  0  0
  5  6  1  0  0  0  0
  5 10  1  0  0  0  0
  6  7  1  0  0  0  0
  6 34  1  0  0  0  0
  6 35  1  0  0  0  0
  7  8  1  0  0  0  0
  7 36  1  0  0  0  0
  7 37  1  0  0  0  0
  8  9  3  0  0  0  0
 10 15  1  0  0  0  0
 10 11  2  0  0  0  0
 11 12  1  0  0  0  0
 12 13  2  0  0  0  0
 12 38  1  0  0  0  0
 13 14  1  0  0  0  0
 14 18  1  0  0  0  0
 14 15  2  0  0  0  0
 15 16  1  0  0  0  0
 16 17  2  0  0  0  0
 17 18  1  0  0  0  0
 17 39  1  0  0  0  0
 18 19  1  0  0  0  0
 19 20  1  0  0  0  0
 19 40  1  0  0  0  0
 19 41  1  0  0  0  0
 20 25  1  0  0  0  0
 20 21  1  0  0  0  0
 20 22  1  0  0  0  0
 21 42  1  0  0  0  0
 22 23  1  0  0  0  0
 22 43  1  0  0  0  0
 22 44  1  0  0  0  0
 23 24  1  0  0  0  0
 23 45  1  0  0  0  0
 23 46  1  0  0  0  0
 24 25  1  0  0  0  0
 25 26  1  0  0  0  0
 25 47  1  0  0  0  0
 26 48  1  0  0  0  0
 26 49  1  0  0  0  0
 26 50  1  0  0  0  0
M  END
> <s_m_source_file>
AV-unprocessed.smi

> <i_m_source_file_index>
178

> <i_lp_mmshare_version>
43012

> <i_f3d_flags>
0

> <s_epik_input>
W0NIM11PW0NIMl1bQ0gyXU4oW0NIMl1bQ0gyXUMjTiljKG5bY0hdbjEpYyhjMTIpbltjSF1uMltDSDJdW0NAQF0zKFtPSF0pW0NIMl1bQ0gyXU9bQ0BIXTNbQ0gzXQ==

> <s_epik_cmdline>
J2VwaWtfcHl0aG9uJywgJy1waCcsICc3LjAnLCAnLXRuJywgJzgnLCAnLW1hJywgJzIwMCcsICctbWV0YWxfYmluZGluZycsICctaW1hZScsICc8aW5maWxlLm1hZT4nLCAnLW9tYWUnLCAnPG91dGZpbGUubWFlPic=

> <r_lp_tautomer_probability>
1

> <r_epik_Ionization_Penalty>
0.000885317

> <r_epik_Ionization_Penalty_Charging>
0

> <r_epik_Ionization_Penalty_Neutral>
0.000885317

> <r_epik_State_Penalty>
0.00047273

> <r_epik_Charging_Adjusted_Penalty>
0.00047273

> <i_epik_Tot_Q>
0

> <i_epik_Tot_abs_Q>
0

> <r_epik_Metal_State_Penalty>
-0

> <b_epik_Metal_Only>
0

> <s_lp_Force_Field>
OPLS_2005

> <r_lp_Energy>
28.3017

> <b_lp_Chiralities_Consistent>
1

> <s_lp_Variant>
AV-unprocessed.smi:178-3

> <Gold.Version>
5.8.1

> <Gold.Id.Protein>
6NUR|6NUR_protein|mol2

> <Gold.PLP.Fitness>
47.2123

> <Gold.PLP.PLP>
-38.9650

> <Gold.PLP.part.hbond>
-3.0000

> <Gold.PLP.part.metal>
0.0000

> <Gold.PLP.part.buried>
-6.8944

> <Gold.PLP.part.nonpolar>
-30.5569

> <Gold.PLP.part.repulsive>
0.5282

> <Gold.PLP.ligand.clash>
0.0000

> <Gold.PLP.ligand.torsion>
2.0536

> <Gold.PLP.Chemscore.Hbond>
3.0000

> <Gold.PLP.Chemscore.CHOScore>
1.0000

> <Gold.PLP.Chemscore.Metal>
0.0000

> <Gold.Chemscore.Hbonds>
donor molecule, donor type, donor heavy atom, donor atom, acceptor molecule, acceptor atom, score
      L1  H    21    42       P1 10747  1.00
      P1  H  6896  6909       L1     2  1.00
      P1  H  7989  7998       L1     9  1.00
      L1  C    17    39       P1 10747  1.00

> <Gold.PLP.Chemscore.Internal.Correction>
0.3545

> <Gold.Rescore>
     Score         DG    S(hbond)    S(metal)    S(lipo)     H(rot)  DE(clash)    DE(int)     intcor
      9.88     -14.35       2.65        0.00      73.83       3.37       0.29       4.18       ----

> <Gold.Chemscore.Fitness>
9.8764

> <Gold.Chemscore.DG>
-14.3481

> <Gold.Chemscore.ZeroCoef>
-5.4800

> <Gold.Chemscore.Hbond>
2.6544

> <Gold.Chemscore.Metal>
0.0000

> <Gold.Chemscore.Lipo>
73.8278

> <Gold.Chemscore.Internal_Hbond>
0.0000

> <Gold.Chemscore.DEClash>
0.2925

> <Gold.Chemscore.DEInternal>
4.1792

> <Gold.Chemscore.Rot>
3.3732

> <Gold.Chemscore.Internal.Correction>
   9.000000E+99

> <Gold.Chemscore.Hbonds>
donor molecule, donor type, donor heavy atom, donor atom, acceptor molecule, acceptor atom, score
      L1  H    21    42       P1 10747  0.98
      P1  H  6896  6909       L1     2  0.95
      P1  H  7989  7998       L1     9  0.39

> <Gold.Chemscore.Hbond.Weighted>
-8.8656

> <Gold.Chemscore.Metal.Weighted>
-0.0000

> <Gold.Chemscore.Lipo.Weighted>
-8.6378

> <Gold.Chemscore.Internal_Hbond.Weighted>
0.0000

> <Gold.Chemscore.DEClash.Weighted>
0.2925

> <Gold.Chemscore.DEInternal.Weighted>
4.1792

> <Gold.Chemscore.Rot.Weighted>
8.6354

> <Gold.Chemscore.Internal.Correction.Weighted>
   9.000000E+99

> <Gold.Protein.RotatedTorsions>
[ 6907 6896 6895 6894 ] final   83.00 input  -60.11 | X-H torsion
[ 7974 7965 7964 7962 ] final  163.64 input  175.53 | X-H torsion
[ 8008 7997 7996 7995 ] final   79.21 input   59.86 | X-H torsion
[ 10167 10162 10161 10158 ] final -103.43 input  -65.29 | X-H torsion
[ 10718 10713 10712 10709 ] final  122.23 input   66.30 | X-H torsion
[ 10763 10752 10751 10750 ] final  -85.24 input  -60.55 | X-H torsion
[ 11005 11000 10999 10996 ] final   13.45 input  -57.11 | X-H torsion

> <Gold.Protein.ActiveResidues>
 VAL166  LYS551  ARG553  GLY616  TRP617  ASP618  TYR619  PRO620  LYS621  CYS622 
 ASP623  PHE694  ASN695  SER759  ASP760  ASP761  ALA762  ILE779  LEU786  VAL792 
 PHE793  MET794  SER795  GLU796  ALA797  LYS798  CYS799  TRP800  GLU811  SER814 

> <Gold.Protein.RotatedAtoms>
  152.5315  134.2963  159.9061 H   0  0  0  0  0  0  0  0  0  0  0  0  # atno 6907 bound_to 6896
  151.2914  133.4157  159.2641 H   0  0  0  0  0  0  0  0  0  0  0  0  # atno 6908 bound_to 6896
  151.0197  134.9476  159.8110 H   0  0  0  0  0  0  0  0  0  0  0  0  # atno 6909 bound_to 6896
  144.7581  139.8211  143.6342 H   0  0  0  0  0  0  0  0  0  0  0  0  # atno 7974 bound_to 7965
  155.8666  140.3451  155.5792 H   0  0  0  0  0  0  0  0  0  0  0  0  # atno 8008 bound_to 7997
  155.7874  140.0867  157.2046 H   0  0  0  0  0  0  0  0  0  0  0  0  # atno 8009 bound_to 7997
  154.4015  140.1489  156.3110 H   0  0  0  0  0  0  0  0  0  0  0  0  # atno 8010 bound_to 7997
  140.2200  143.3683  152.0977 H   0  0  0  0  0  0  0  0  0  0  0  0  # atno 10167 bound_to 10162
  157.5758  131.1079  150.8281 H   0  0  0  0  0  0  0  0  0  0  0  0  # atno 10718 bound_to 10713
  154.6088  135.5492  153.7452 H   0  0  0  0  0  0  0  0  0  0  0  0  # atno 10763 bound_to 10752
  153.0186  135.6384  154.1608 H   0  0  0  0  0  0  0  0  0  0  0  0  # atno 10764 bound_to 10752
  154.1546  135.2901  155.3106 H   0  0  0  0  0  0  0  0  0  0  0  0  # atno 10765 bound_to 10752
  140.4806  134.0939  155.7750 H   0  0  0  0  0  0  0  0  0  0  0  0  # atno 11005 bound_to 11000
  146.1614  139.4729  142.9986 LP  0  0  0  0  0  0  0  0  0  0  0  0  # atno 17320 bound_to 7965
  145.6712  141.0216  143.1657 LP  0  0  0  0  0  0  0  0  0  0  0  0  # atno 17321 bound_to 7965
  139.5147  144.6953  151.5649 LP  0  0  0  0  0  0  0  0  0  0  0  0  # atno 17342 bound_to 10162
  140.6262  143.9165  150.6566 LP  0  0  0  0  0  0  0  0  0  0  0  0  # atno 17343 bound_to 10162
  156.8740  130.5156  149.5295 LP  0  0  0  0  0  0  0  0  0  0  0  0  # atno 17370 bound_to 10713
  156.0803  130.5815  150.9550 LP  0  0  0  0  0  0  0  0  0  0  0  0  # atno 17371 bound_to 10713
  141.1533  133.8929  157.2043 LP  0  0  0  0  0  0  0  0  0  0  0  0  # atno 17394 bound_to 11000
  139.9828  135.0092  156.9792 LP  0  0  0  0  0  0  0  0  0  0  0  0  # atno 17395 bound_to 11000

$$$$
