AV-unprocessed.smi:3340|AV-procd|sdf|12882|dock6
  -GOLD-   2272019283D 1   1.00000     0.00000
 Structure written by MMmdl.
 41 42  0  0  0  0  0  0  0  0  1 V2000
  145.8469  131.8124  149.0134 C   0  0  0  0  0  0  0  0  0  0  0  0
  144.6363  132.3718  149.7640 C   0  0  0  0  0  0  0  0  0  0  0  0
  143.5149  132.0458  149.3736 O   0  0  0  0  0  0  0  0  0  0  0  0
  144.8330  133.1972  150.8205 N   0  0  0  0  0  0  0  0  0  0  0  0
  143.7248  133.8151  151.5649 C   0  0  0  0  0  0  0  0  0  0  0  0
  143.8040  135.3466  151.4058 C   0  0  0  0  0  0  0  0  0  0  0  0
  145.1126  135.8109  151.9053 N   0  0  0  0  0  0  0  0  0  0  0  0
  145.3336  136.5758  153.0045 C   0  0  0  0  0  0  0  0  0  0  0  0
  144.4293  136.9648  153.7443 O   0  0  0  0  0  0  0  0  0  0  0  0
  146.6284  136.8594  153.2387 N   0  0  0  0  0  0  0  0  0  0  0  0
  147.1925  137.6307  154.3503 C   0  0  1  0  0  0  0  0  0  0  0  0
  147.6680  136.7138  155.4907 C   0  0  0  0  0  0  0  0  0  0  0  0
  148.2893  138.6204  153.8963 C   0  0  0  0  0  0  0  0  0  0  0  0
  147.8292  139.9968  153.8994 N   0  0  0  0  0  0  0  0  0  0  0  0
  148.4681  141.0928  154.4646 C   0  0  0  0  0  0  0  0  0  0  0  0
  147.6668  142.1847  154.2188 C   0  0  0  0  0  0  0  0  0  0  0  0
  146.5357  141.7859  153.5100 N   0  0  0  0  0  0  0  0  0  0  0  0
  146.7006  140.4779  153.3607 C   0  0  0  0  0  0  0  0  0  0  0  0
  146.2131  135.1992  151.1444 C   0  0  0  0  0  0  0  0  0  0  0  0
  146.1411  133.6673  151.3043 C   0  0  0  0  0  0  0  0  0  0  0  0
  146.4457  132.6189  148.5893 H   0  0  0  0  0  0  0  0  0  0  0  0
  145.5270  131.1699  148.1924 H   0  0  0  0  0  0  0  0  0  0  0  0
  146.4722  131.2155  149.6781 H   0  0  0  0  0  0  0  0  0  0  0  0
  142.7459  133.4663  151.2335 H   0  0  0  0  0  0  0  0  0  0  0  0
  143.8008  133.5397  152.6179 H   0  0  0  0  0  0  0  0  0  0  0  0
  143.7090  135.6181  150.3534 H   0  0  0  0  0  0  0  0  0  0  0  0
  142.9485  135.8049  151.9011 H   0  0  0  0  0  0  0  0  0  0  0  0
  147.2973  136.4898  152.5790 H   0  0  0  0  0  0  0  0  0  0  0  0
  146.3627  138.2183  154.7448 H   0  0  0  0  0  0  0  0  0  0  0  0
  147.9595  137.2987  156.3633 H   0  0  0  0  0  0  0  0  0  0  0  0
  148.5297  136.1139  155.1979 H   0  0  0  0  0  0  0  0  0  0  0  0
  146.8767  136.0319  155.8035 H   0  0  0  0  0  0  0  0  0  0  0  0
  149.1490  138.5534  154.5641 H   0  0  0  0  0  0  0  0  0  0  0  0
  148.6590  138.3758  152.9000 H   0  0  0  0  0  0  0  0  0  0  0  0
  149.4152  141.0070  154.9771 H   0  0  0  0  0  0  0  0  0  0  0  0
  147.8165  143.2182  154.4947 H   0  0  0  0  0  0  0  0  0  0  0  0
  145.9858  139.8554  152.8429 H   0  0  0  0  0  0  0  0  0  0  0  0
  146.1217  135.4753  150.0929 H   0  0  0  0  0  0  0  0  0  0  0  0
  147.1952  135.5537  151.4599 H   0  0  0  0  0  0  0  0  0  0  0  0
  146.2508  133.3942  152.3551 H   0  0  0  0  0  0  0  0  0  0  0  0
  146.9874  133.2119  150.7929 H   0  0  0  0  0  0  0  0  0  0  0  0
  1  2  1  0  0  0  0
  1 21  1  0  0  0  0
  1 22  1  0  0  0  0
  1 23  1  0  0  0  0
  2  3  2  0  0  0  0
  2  4  1  0  0  0  0
  4 20  1  0  0  0  0
  4  5  1  0  0  0  0
  5  6  1  0  0  0  0
  5 24  1  0  0  0  0
  5 25  1  0  0  0  0
  6  7  1  0  0  0  0
  6 26  1  0  0  0  0
  6 27  1  0  0  0  0
  7  8  1  0  0  0  0
  7 19  1  0  0  0  0
  8  9  2  0  0  0  0
  8 10  1  0  0  0  0
 10 11  1  0  0  0  0
 10 28  1  0  0  0  0
 11 12  1  0  0  0  0
 11 13  1  0  0  0  0
 11 29  1  0  0  0  0
 12 30  1  0  0  0  0
 12 31  1  0  0  0  0
 12 32  1  0  0  0  0
 13 14  1  0  0  0  0
 13 33  1  0  0  0  0
 13 34  1  0  0  0  0
 14 18  1  0  0  0  0
 14 15  1  0  0  0  0
 15 16  2  0  0  0  0
 15 35  1  0  0  0  0
 16 17  1  0  0  0  0
 16 36  1  0  0  0  0
 17 18  2  0  0  0  0
 18 37  1  0  0  0  0
 19 20  1  0  0  0  0
 19 38  1  0  0  0  0
 19 39  1  0  0  0  0
 20 40  1  0  0  0  0
 20 41  1  0  0  0  0
M  END
> <s_m_source_file>
AV-unprocessed.smi

> <i_m_source_file_index>
3340

> <i_lp_mmshare_version>
43012

> <i_f3d_flags>
0

> <s_epik_input>
W0NIM11DKD1PKU4xW0NIMl1bQ0gyXU4oW0NIMl1bQ0gyXTEpQyg9TylbTkhdW0NASF0oW0NIM10pW0NIMl1uMltjSF1bY0hdbltjSF0y

> <s_epik_cmdline>
J2VwaWtfcHl0aG9uJywgJy1waCcsICc3LjAnLCAnLXRuJywgJzgnLCAnLW1hJywgJzIwMCcsICctbWV0YWxfYmluZGluZycsICctaW1hZScsICc8aW5maWxlLm1hZT4nLCAnLW9tYWUnLCAnPG91dGZpbGUubWFlPic=

> <r_lp_tautomer_probability>
1

> <r_epik_Ionization_Penalty>
0.622948

> <r_epik_Ionization_Penalty_Charging>
0.622904

> <r_epik_Ionization_Penalty_Neutral>
4.39259e-05

> <r_epik_State_Penalty>
0.639086

> <r_epik_Charging_Adjusted_Penalty>
1.26199

> <i_epik_Tot_Q>
0

> <i_epik_Tot_abs_Q>
0

> <r_epik_Metal_State_Penalty>
0.307185

> <b_epik_Metal_Only>
0

> <s_lp_Force_Field>
OPLS_2005

> <r_lp_Energy>
50.7734

> <b_lp_Chiralities_Consistent>
1

> <s_lp_Variant>
AV-unprocessed.smi:3340-4

> <Gold.Version>
5.8.1

> <Gold.Id.Protein>
6NUR|6NUR_protein|mol2

> <Gold.PLP.Fitness>
38.5036

> <Gold.PLP.PLP>
-30.6471

> <Gold.PLP.part.hbond>
-2.0000

> <Gold.PLP.part.metal>
0.0000

> <Gold.PLP.part.buried>
-1.5686

> <Gold.PLP.part.nonpolar>
-27.7485

> <Gold.PLP.part.repulsive>
0.5710

> <Gold.PLP.ligand.clash>
1.6399

> <Gold.PLP.ligand.torsion>
1.0929

> <Gold.PLP.Chemscore.Hbond>
1.9920

> <Gold.PLP.Chemscore.CHOScore>
1.8776

> <Gold.PLP.Chemscore.Metal>
0.0000

> <Gold.Chemscore.Hbonds>
donor molecule, donor type, donor heavy atom, donor atom, acceptor molecule, acceptor atom, score
      L1  H    10    28       P1  7948  1.00
      P1  H 10785 10796       L1     3  0.99
      L1  C    16    36       P1  8028  1.00
      L1  C    18    37       P1 10175  0.88

> <Gold.PLP.Chemscore.Internal.Correction>
0.0736

> <Gold.Rescore>
     Score         DG    S(hbond)    S(metal)    S(lipo)     H(rot)  DE(clash)    DE(int)     intcor
     12.68     -14.28       1.90        0.00      57.10       1.65       0.51       1.08       ----

> <Gold.Chemscore.Fitness>
12.6842

> <Gold.Chemscore.DG>
-14.2769

> <Gold.Chemscore.ZeroCoef>
-5.4800

> <Gold.Chemscore.Hbond>
1.8961

> <Gold.Chemscore.Metal>
0.0000

> <Gold.Chemscore.Lipo>
57.0992

> <Gold.Chemscore.Internal_Hbond>
0.0000

> <Gold.Chemscore.DEClash>
0.5095

> <Gold.Chemscore.DEInternal>
1.0832

> <Gold.Chemscore.Rot>
1.6471

> <Gold.Chemscore.Internal.Correction>
   9.000000E+99

> <Gold.Chemscore.Hbonds>
donor molecule, donor type, donor heavy atom, donor atom, acceptor molecule, acceptor atom, score
      L1  H    10    28       P1  7948  0.99
      P1  H 10785 10796       L1     3  0.85

> <Gold.Chemscore.Hbond.Weighted>
-6.3329

> <Gold.Chemscore.Metal.Weighted>
-0.0000

> <Gold.Chemscore.Lipo.Weighted>
-6.6806

> <Gold.Chemscore.Internal_Hbond.Weighted>
0.0000

> <Gold.Chemscore.DEClash.Weighted>
0.5095

> <Gold.Chemscore.DEInternal.Weighted>
1.0832

> <Gold.Chemscore.Rot.Weighted>
4.2166

> <Gold.Chemscore.Internal.Correction.Weighted>
   9.000000E+99

> <Gold.Protein.RotatedTorsions>
[ 6907 6896 6895 6894 ] final -127.63 input  -60.11 | X-H torsion
[ 7974 7965 7964 7962 ] final   14.44 input  175.53 | X-H torsion
[ 8008 7997 7996 7995 ] final  175.95 input   59.86 | X-H torsion
[ 10167 10162 10161 10158 ] final  -51.37 input  -65.29 | X-H torsion
[ 10718 10713 10712 10709 ] final   43.44 input   66.30 | X-H torsion
[ 10763 10752 10751 10750 ] final  118.17 input  -60.55 | X-H torsion
[ 11005 11000 10999 10996 ] final -130.36 input  -57.11 | X-H torsion

> <Gold.Protein.ActiveResidues>
 VAL166  LYS551  ARG553  GLY616  TRP617  ASP618  TYR619  PRO620  LYS621  CYS622 
 ASP623  PHE694  ASN695  SER759  ASP760  ASP761  ALA762  ILE779  LEU786  VAL792 
 PHE793  MET794  SER795  GLU796  ALA797  LYS798  CYS799  TRP800  GLU811  SER814 

> <Gold.Protein.RotatedAtoms>
  150.9094  133.7017  159.2858 H   0  0  0  0  0  0  0  0  0  0  0  0  # atno 6907 bound_to 6896
  151.4509  135.1028  159.9707 H   0  0  0  0  0  0  0  0  0  0  0  0  # atno 6908 bound_to 6896
  152.4921  133.8480  159.7242 H   0  0  0  0  0  0  0  0  0  0  0  0  # atno 6909 bound_to 6896
  146.2305  139.9041  142.8534 H   0  0  0  0  0  0  0  0  0  0  0  0  # atno 7974 bound_to 7965
  156.0816  140.1396  156.9705 H   0  0  0  0  0  0  0  0  0  0  0  0  # atno 8008 bound_to 7997
  154.4588  140.0951  156.6884 H   0  0  0  0  0  0  0  0  0  0  0  0  # atno 8009 bound_to 7997
  155.5066  140.3452  155.4383 H   0  0  0  0  0  0  0  0  0  0  0  0  # atno 8010 bound_to 7997
  140.6592  143.2622  151.4494 H   0  0  0  0  0  0  0  0  0  0  0  0  # atno 10167 bound_to 10162
  157.4159  130.7941  149.7471 H   0  0  0  0  0  0  0  0  0  0  0  0  # atno 10718 bound_to 10713
  153.5635  135.3516  155.2809 H   0  0  0  0  0  0  0  0  0  0  0  0  # atno 10763 bound_to 10752
  154.8692  135.4142  154.2804 H   0  0  0  0  0  0  0  0  0  0  0  0  # atno 10764 bound_to 10752
  153.3555  135.7057  153.6824 H   0  0  0  0  0  0  0  0  0  0  0  0  # atno 10765 bound_to 10752
  140.9352  134.1266  157.4199 H   0  0  0  0  0  0  0  0  0  0  0  0  # atno 11005 bound_to 11000
  145.2294  140.9967  143.3999 LP  0  0  0  0  0  0  0  0  0  0  0  0  # atno 17320 bound_to 7965
  144.9543  139.4049  143.6387 LP  0  0  0  0  0  0  0  0  0  0  0  0  # atno 17321 bound_to 7965
  139.5821  144.1686  152.1982 LP  0  0  0  0  0  0  0  0  0  0  0  0  # atno 17342 bound_to 10162
  140.1015  144.5536  150.6986 LP  0  0  0  0  0  0  0  0  0  0  0  0  # atno 17343 bound_to 10162
  155.9865  130.3974  150.3210 LP  0  0  0  0  0  0  0  0  0  0  0  0  # atno 17370 bound_to 10713
  157.1353  131.0282  151.2951 LP  0  0  0  0  0  0  0  0  0  0  0  0  # atno 17371 bound_to 10713
  139.8806  135.0018  156.6092 LP  0  0  0  0  0  0  0  0  0  0  0  0  # atno 17394 bound_to 11000
  140.7808  133.8661  155.8566 LP  0  0  0  0  0  0  0  0  0  0  0  0  # atno 17395 bound_to 11000

$$$$
