AV-unprocessed.smi:2253|AV-procd|sdf|9121|dock4
  -GOLD-   2272012323D 1   1.00000     0.00000
 Structure written by MMmdl.
 51 53  0  0  0  0  0  0  0  0  2 V2000
  151.6086  145.0956  160.0443 C   0  0  0  0  0  0  0  0  0  0  0  0
  151.3055  143.8524  159.3492 N   0  0  0  0  0  0  0  0  0  0  0  0
  152.1209  142.7760  159.9058 C   0  0  0  0  0  0  0  0  0  0  0  0
  151.7665  141.4397  159.2310 C   0  0  0  0  0  0  0  0  0  0  0  0
  151.9804  141.4880  157.6979 C   0  0  0  0  0  0  0  0  0  0  0  0
  151.5471  140.2438  156.9807 N   0  3  2  0  0  0  0  0  0  0  0  0
  152.0450  140.1133  155.5796 C   0  0  0  0  0  0  0  0  0  0  0  0
  151.6569  138.7610  154.9568 C   0  0  0  0  0  0  0  0  0  0  0  0
  150.1406  138.5338  154.9985 C   0  0  1  0  0  0  0  0  0  0  0  0
  149.8228  137.2076  154.4772 N   0  0  0  0  0  0  0  0  0  0  0  0
  150.1099  136.0487  155.0879 C   0  0  0  0  0  0  0  0  0  0  0  0
  150.6840  135.9824  156.1744 O   0  0  0  0  0  0  0  0  0  0  0  0
  149.6783  135.0009  154.3652 N   0  0  0  0  0  0  0  0  0  0  0  0
  149.7825  133.6113  154.6491 C   0  0  0  0  0  0  0  0  0  0  0  0
  150.6286  133.0587  155.6415 C   0  0  0  0  0  0  0  0  0  0  0  0
  150.6474  131.6593  155.8092 C   0  0  0  0  0  0  0  0  0  0  0  0
  149.9056  130.8101  155.0669 N   0  0  0  0  0  0  0  0  0  0  0  0
  149.1102  131.3393  154.1134 C   0  0  0  0  0  0  0  0  0  0  0  0
  149.0167  132.7233  153.8641 C   0  0  0  0  0  0  0  0  0  0  0  0
  148.2007  133.1882  152.8872 F   0  0  0  0  0  0  0  0  0  0  0  0
  149.6524  138.6876  156.4472 C   0  0  0  0  0  0  0  0  0  0  0  0
  150.0691  140.0478  157.0284 C   0  0  0  0  0  0  0  0  0  0  0  0
  151.2235  142.7275  157.1655 C   0  0  0  0  0  0  0  0  0  0  0  0
  151.6039  144.0082  157.9280 C   0  0  0  0  0  0  0  0  0  0  0  0
  151.3835  145.0039  161.1074 H   0  0  0  0  0  0  0  0  0  0  0  0
  151.0047  145.9128  159.6481 H   0  0  0  0  0  0  0  0  0  0  0  0
  152.6604  145.3659  159.9395 H   0  0  0  0  0  0  0  0  0  0  0  0
  153.1816  142.9979  159.7771 H   0  0  0  0  0  0  0  0  0  0  0  0
  151.9375  142.6994  160.9783 H   0  0  0  0  0  0  0  0  0  0  0  0
  152.3923  140.6708  159.6842 H   0  0  0  0  0  0  0  0  0  0  0  0
  150.7305  141.1836  159.4589 H   0  0  0  0  0  0  0  0  0  0  0  0
  153.0490  141.6240  157.5220 H   0  0  0  0  0  0  0  0  0  0  0  0
  151.6573  140.9351  154.9753 H   0  0  0  0  0  0  0  0  0  0  0  0
  153.1319  140.1696  155.5440 H   0  0  0  0  0  0  0  0  0  0  0  0
  152.0123  138.7170  153.9265 H   0  0  0  0  0  0  0  0  0  0  0  0
  152.1670  137.9591  155.4930 H   0  0  0  0  0  0  0  0  0  0  0  0
  149.6605  139.2898  154.3735 H   0  0  0  0  0  0  0  0  0  0  0  0
  149.3438  137.1694  153.5890 H   0  0  0  0  0  0  0  0  0  0  0  0
  149.1628  135.2249  153.5265 H   0  0  0  0  0  0  0  0  0  0  0  0
  151.2660  133.6669  156.2637 H   0  0  0  0  0  0  0  0  0  0  0  0
  151.2823  131.2087  156.5576 H   0  0  0  0  0  0  0  0  0  0  0  0
  148.5321  130.6384  153.5296 H   0  0  0  0  0  0  0  0  0  0  0  0
  148.5668  138.5906  156.4913 H   0  0  0  0  0  0  0  0  0  0  0  0
  150.0592  137.8868  157.0665 H   0  0  0  0  0  0  0  0  0  0  0  0
  149.6978  140.1006  158.0496 H   0  0  0  0  0  0  0  0  0  0  0  0
  149.5786  140.8524  156.4780 H   0  0  0  0  0  0  0  0  0  0  0  0
  151.4305  142.8981  156.1108 H   0  0  0  0  0  0  0  0  0  0  0  0
  150.1472  142.5658  157.2441 H   0  0  0  0  0  0  0  0  0  0  0  0
  151.0358  144.8493  157.5283 H   0  0  0  0  0  0  0  0  0  0  0  0
  152.6610  144.2381  157.7838 H   0  0  0  0  0  0  0  0  0  0  0  0
  151.9597  139.4745  157.4888 H   0  0  0  0  0  0  0  0  0  0  0  0
  1  2  1  0  0  0  0
  1 25  1  0  0  0  0
  1 26  1  0  0  0  0
  1 27  1  0  0  0  0
  2 24  1  0  0  0  0
  2  3  1  0  0  0  0
  3  4  1  0  0  0  0
  3 28  1  0  0  0  0
  3 29  1  0  0  0  0
  4  5  1  0  0  0  0
  4 30  1  0  0  0  0
  4 31  1  0  0  0  0
  5  6  1  0  0  0  0
  5 23  1  0  0  0  0
  5 32  1  0  0  0  0
  6 22  1  0  0  0  0
  6  7  1  0  0  0  0
  6 51  1  0  0  0  0
  7  8  1  0  0  0  0
  7 33  1  0  0  0  0
  7 34  1  0  0  0  0
  8  9  1  0  0  0  0
  8 35  1  0  0  0  0
  8 36  1  0  0  0  0
  9 10  1  0  0  0  0
  9 21  1  0  0  0  0
  9 37  1  0  0  0  0
 10 11  1  0  0  0  0
 10 38  1  0  0  0  0
 11 12  2  0  0  0  0
 11 13  1  0  0  0  0
 13 14  1  0  0  0  0
 13 39  1  0  0  0  0
 14 19  1  0  0  0  0
 14 15  2  0  0  0  0
 15 16  1  0  0  0  0
 15 40  1  0  0  0  0
 16 17  2  0  0  0  0
 16 41  1  0  0  0  0
 17 18  1  0  0  0  0
 18 19  2  0  0  0  0
 18 42  1  0  0  0  0
 19 20  1  0  0  0  0
 21 22  1  0  0  0  0
 21 43  1  0  0  0  0
 21 44  1  0  0  0  0
 22 45  1  0  0  0  0
 22 46  1  0  0  0  0
 23 24  1  0  0  0  0
 23 47  1  0  0  0  0
 23 48  1  0  0  0  0
 24 49  1  0  0  0  0
 24 50  1  0  0  0  0
M  CHG  1   6   1
M  END
> <s_m_source_file>
AV-unprocessed.smi

> <i_m_source_file_index>
2253

> <i_lp_mmshare_version>
43012

> <i_f3d_flags>
0

> <s_epik_input>
W0NIM11OMVtDSDJdW0NIMl1bQ0hdKFtDSDJdW0NIMl0xKU4yW0NIMl1bQ0gyXVtDSF0oW0NIMl1bQ0gyXTIpW05IXUMoPU8pW05IXWMzW2NIXVtjSF1uW2NIXWMzRg==

> <s_epik_cmdline>
J2VwaWtfcHl0aG9uJywgJy1waCcsICc3LjAnLCAnLXRuJywgJzgnLCAnLW1hJywgJzIwMCcsICctbWV0YWxfYmluZGluZycsICctaW1hZScsICc8aW5maWxlLm1hZT4nLCAnLW9tYWUnLCAnPG91dGZpbGUubWFlPic=

> <r_epik_Ionization_Penalty>
1.37522

> <r_epik_Ionization_Penalty_Charging>
0.00081195

> <r_epik_Ionization_Penalty_Neutral>
1.3744

> <r_epik_State_Penalty>
1.55149

> <r_epik_Charging_Adjusted_Penalty>
1.5523

> <i_epik_Tot_Q>
1

> <i_epik_Tot_abs_Q>
1

> <r_epik_Metal_State_Penalty>
1.55158

> <b_epik_Metal_Only>
0

> <s_lp_Force_Field>
OPLS_2005

> <r_lp_Energy>
37.061

> <b_lp_Chiralities_Consistent>
1

> <s_lp_Variant>
AV-unprocessed.smi:2253-7

> <Gold.Version>
5.8.1

> <Gold.Id.Protein>
6NUR|6NUR_protein|mol2

> <Gold.PLP.Fitness>
50.6679

> <Gold.PLP.PLP>
-45.1417

> <Gold.PLP.part.hbond>
-2.0000

> <Gold.PLP.part.metal>
0.0000

> <Gold.PLP.part.buried>
-5.3844

> <Gold.PLP.part.nonpolar>
-37.2455

> <Gold.PLP.part.repulsive>
0.2582

> <Gold.PLP.ligand.clash>
0.0000

> <Gold.PLP.ligand.torsion>
0.2409

> <Gold.PLP.Chemscore.Hbond>
1.9920

> <Gold.PLP.Chemscore.CHOScore>
0.0000

> <Gold.PLP.Chemscore.Metal>
0.0000

> <Gold.Chemscore.Hbonds>
donor molecule, donor type, donor heavy atom, donor atom, acceptor molecule, acceptor atom, score
      L1  H    10    38       P1  7948  0.99
      L1  H    13    39       P1  7948  1.00

> <Gold.PLP.Chemscore.Internal.Correction>
0.0319

> <Gold.Rescore>
     Score         DG    S(hbond)    S(metal)    S(lipo)     H(rot)  DE(clash)    DE(int)     intcor
     17.86     -20.55       1.60        0.00     110.07       1.24       0.08       2.60       ----

> <Gold.Chemscore.Fitness>
17.8646

> <Gold.Chemscore.DG>
-20.5456

> <Gold.Chemscore.ZeroCoef>
-5.4800

> <Gold.Chemscore.Hbond>
1.6035

> <Gold.Chemscore.Metal>
0.0000

> <Gold.Chemscore.Lipo>
110.0724

> <Gold.Chemscore.Internal_Hbond>
0.0000

> <Gold.Chemscore.DEClash>
0.0847

> <Gold.Chemscore.DEInternal>
2.5963

> <Gold.Chemscore.Rot>
1.2377

> <Gold.Chemscore.Internal.Correction>
   9.000000E+99

> <Gold.Chemscore.Hbonds>
donor molecule, donor type, donor heavy atom, donor atom, acceptor molecule, acceptor atom, score
      L1  H    10    38       P1  7948  0.89
      L1  H    13    39       P1  7948  0.33

> <Gold.Chemscore.Hbond.Weighted>
-5.3557

> <Gold.Chemscore.Metal.Weighted>
-0.0000

> <Gold.Chemscore.Lipo.Weighted>
-12.8785

> <Gold.Chemscore.Internal_Hbond.Weighted>
0.0000

> <Gold.Chemscore.DEClash.Weighted>
0.0847

> <Gold.Chemscore.DEInternal.Weighted>
2.5963

> <Gold.Chemscore.Rot.Weighted>
3.1685

> <Gold.Chemscore.Internal.Correction.Weighted>
   9.000000E+99

> <Gold.Protein.RotatedTorsions>
[ 6907 6896 6895 6894 ] final  -21.29 input  -60.11 | X-H torsion
[ 7974 7965 7964 7962 ] final   60.45 input  175.53 | X-H torsion
[ 8008 7997 7996 7995 ] final  103.72 input   59.86 | X-H torsion
[ 10167 10162 10161 10158 ] final  107.04 input  -65.29 | X-H torsion
[ 10718 10713 10712 10709 ] final  117.52 input   66.30 | X-H torsion
[ 10763 10752 10751 10750 ] final   10.84 input  -60.55 | X-H torsion
[ 11005 11000 10999 10996 ] final   27.80 input  -57.11 | X-H torsion

> <Gold.Protein.ActiveResidues>
 VAL166  LYS551  ARG553  GLY616  TRP617  ASP618  TYR619  PRO620  LYS621  CYS622 
 ASP623  PHE694  ASN695  SER759  ASP760  ASP761  ALA762  ILE779  LEU786  VAL792 
 PHE793  MET794  SER795  GLU796  ALA797  LYS798  CYS799  TRP800  GLU811  SER814 

> <Gold.Protein.RotatedAtoms>
  151.2356  135.0570  159.9004 H   0  0  0  0  0  0  0  0  0  0  0  0  # atno 6907 bound_to 6896
  152.5399  134.0490  159.8112 H   0  0  0  0  0  0  0  0  0  0  0  0  # atno 6908 bound_to 6896
  151.0676  133.5444  159.2661 H   0  0  0  0  0  0  0  0  0  0  0  0  # atno 6909 bound_to 6896
  145.8958  139.3545  143.0622 H   0  0  0  0  0  0  0  0  0  0  0  0  # atno 7974 bound_to 7965
  156.1509  140.3160  155.8647 H   0  0  0  0  0  0  0  0  0  0  0  0  # atno 8008 bound_to 7997
  155.3972  140.0497  157.3055 H   0  0  0  0  0  0  0  0  0  0  0  0  # atno 8009 bound_to 7997
  154.5058  140.2146  155.9266 H   0  0  0  0  0  0  0  0  0  0  0  0  # atno 8010 bound_to 7997
  139.6960  144.7101  151.1267 H   0  0  0  0  0  0  0  0  0  0  0  0  # atno 10167 bound_to 10162
  157.6091  131.1038  150.7626 H   0  0  0  0  0  0  0  0  0  0  0  0  # atno 10718 bound_to 10713
  153.1989  135.6853  153.8256 H   0  0  0  0  0  0  0  0  0  0  0  0  # atno 10763 bound_to 10752
  153.7529  135.3221  155.3325 H   0  0  0  0  0  0  0  0  0  0  0  0  # atno 10764 bound_to 10752
  154.8160  135.4685  154.0746 H   0  0  0  0  0  0  0  0  0  0  0  0  # atno 10765 bound_to 10752
  140.3224  134.2529  155.7715 H   0  0  0  0  0  0  0  0  0  0  0  0  # atno 11005 bound_to 11000
  145.8852  140.9338  143.0581 LP  0  0  0  0  0  0  0  0  0  0  0  0  # atno 17320 bound_to 7965
  144.6733  140.0832  143.7468 LP  0  0  0  0  0  0  0  0  0  0  0  0  # atno 17321 bound_to 7965
  140.7696  143.5492  150.9224 LP  0  0  0  0  0  0  0  0  0  0  0  0  # atno 17342 bound_to 10162
  139.9171  143.6650  152.3104 LP  0  0  0  0  0  0  0  0  0  0  0  0  # atno 17343 bound_to 10162
  156.8007  130.4920  149.5370 LP  0  0  0  0  0  0  0  0  0  0  0  0  # atno 17370 bound_to 10713
  156.1187  130.6094  151.0161 LP  0  0  0  0  0  0  0  0  0  0  0  0  # atno 17371 bound_to 10713
  141.2083  133.7780  157.0065 LP  0  0  0  0  0  0  0  0  0  0  0  0  # atno 17394 bound_to 11000
  140.0931  134.9581  157.1807 LP  0  0  0  0  0  0  0  0  0  0  0  0  # atno 17395 bound_to 11000

$$$$
