AV-unprocessed.smi:21|AV-procd|sdf|121|dock6
  -GOLD-   2262015293D 1   1.00000     0.00000
 Structure written by MMmdl.
 62 65  0  0  0  0  0  0  0  0  2 V2000
  146.0203  130.3133  152.3528 C   0  0  0  0  0  0  0  0  0  0  0  0
  147.0377  131.0205  153.0428 O   0  0  0  0  0  0  0  0  0  0  0  0
  146.6286  132.3022  153.4961 C   0  0  1  0  0  0  0  0  0  0  0  0
  147.6058  132.8360  154.5342 C   0  0  0  0  0  0  0  0  0  0  0  0
  147.3703  134.3480  154.4828 C   0  0  1  0  0  0  0  0  0  0  0  0
  148.5729  135.1730  154.9879 C   0  0  0  0  0  0  0  0  0  0  0  0
  148.8940  134.9391  156.3943 N   0  0  0  0  0  0  0  0  0  0  0  0
  149.8760  133.8953  156.6505 C   0  0  0  0  0  0  0  0  0  0  0  0
  149.1538  136.0578  157.1057 C   0  0  0  0  0  0  0  0  0  0  0  0
  148.4414  136.2498  158.2426 N   0  0  0  0  0  0  0  0  0  0  0  0
  148.6479  137.3440  158.9822 C   0  0  0  0  0  0  0  0  0  0  0  0
  149.5016  138.3480  158.7678 N   0  0  0  0  0  0  0  0  0  0  0  0
  150.2199  138.1540  157.6247 C   0  0  0  0  0  0  0  0  0  0  0  0
  150.1104  137.0457  156.7394 C   0  0  0  0  0  0  0  0  0  0  0  0
  150.9987  137.1925  155.6808 N   0  0  0  0  0  0  0  0  0  0  0  0
  151.6083  138.3191  155.9323 C   0  0  0  0  0  0  0  0  0  0  0  0
  151.2048  138.9603  157.0816 N   0  0  0  0  0  0  0  0  0  0  0  0
  151.7164  140.2205  157.5927 C   0  0  0  0  0  0  0  0  0  0  0  0
  150.6140  141.2898  157.8018 C   0  0  2  0  0  0  0  0  0  0  0  0
  149.6748  141.3686  156.5701 C   0  0  0  0  0  0  0  0  0  0  0  0
  150.2872  142.0219  155.4786 O   0  0  0  0  0  0  0  0  0  0  0  0
  151.2496  142.6663  158.1439 C   0  0  2  0  0  0  0  0  0  0  0  0
  152.2459  142.6446  159.2925 C   0  0  0  0  0  0  0  0  0  0  0  0
  152.3330  144.1150  159.6859 C   0  0  0  0  0  0  0  0  0  0  0  0
  151.0557  144.6688  159.3965 O   0  0  0  0  0  0  0  0  0  0  0  0
  150.2765  143.7333  158.6589 C   0  0  0  0  0  0  0  0  0  0  0  0
  147.0708  134.6430  153.0620 N   0  3  2  0  0  0  0  0  0  0  0  0
  146.1096  135.7504  152.8657 C   0  0  0  0  0  0  0  0  0  0  0  0
  146.6713  133.3772  152.4019 C   0  0  0  0  0  0  0  0  0  0  0  0
  145.6330  132.2582  153.9421 H   0  0  0  0  0  0  0  0  0  0  0  0
  146.4758  134.5725  155.0673 H   0  0  0  0  0  0  0  0  0  0  0  0
  146.3959  129.3348  152.0533 H   0  0  0  0  0  0  0  0  0  0  0  0
  145.7070  130.8397  151.4507 H   0  0  0  0  0  0  0  0  0  0  0  0
  145.1478  130.1568  152.9885 H   0  0  0  0  0  0  0  0  0  0  0  0
  147.4408  132.4129  155.5256 H   0  0  0  0  0  0  0  0  0  0  0  0
  148.6291  132.6022  154.2354 H   0  0  0  0  0  0  0  0  0  0  0  0
  149.4523  134.9366  154.3876 H   0  0  0  0  0  0  0  0  0  0  0  0
  148.3841  136.2361  154.8373 H   0  0  0  0  0  0  0  0  0  0  0  0
  150.0707  133.7917  157.7190 H   0  0  0  0  0  0  0  0  0  0  0  0
  150.8194  134.1124  156.1480 H   0  0  0  0  0  0  0  0  0  0  0  0
  149.5097  132.9363  156.2837 H   0  0  0  0  0  0  0  0  0  0  0  0
  148.0446  137.4263  159.8744 H   0  0  0  0  0  0  0  0  0  0  0  0
  152.3771  138.7156  155.2847 H   0  0  0  0  0  0  0  0  0  0  0  0
  152.2249  139.9974  158.5301 H   0  0  0  0  0  0  0  0  0  0  0  0
  152.4803  140.5945  156.9100 H   0  0  0  0  0  0  0  0  0  0  0  0
  150.0174  140.9691  158.6576 H   0  0  0  0  0  0  0  0  0  0  0  0
  149.3496  140.3731  156.2666 H   0  0  0  0  0  0  0  0  0  0  0  0
  148.7730  141.9382  156.7886 H   0  0  0  0  0  0  0  0  0  0  0  0
  150.1824  142.9546  155.5896 H   0  0  0  0  0  0  0  0  0  0  0  0
  151.7558  143.0589  157.2601 H   0  0  0  0  0  0  0  0  0  0  0  0
  151.8543  142.0580  160.1249 H   0  0  0  0  0  0  0  0  0  0  0  0
  153.2191  142.2384  159.0156 H   0  0  0  0  0  0  0  0  0  0  0  0
  152.5986  144.2504  160.7344 H   0  0  0  0  0  0  0  0  0  0  0  0
  153.0788  144.6282  159.0778 H   0  0  0  0  0  0  0  0  0  0  0  0
  149.7374  144.2322  157.8535 H   0  0  0  0  0  0  0  0  0  0  0  0
  149.5436  143.2934  159.3364 H   0  0  0  0  0  0  0  0  0  0  0  0
  145.1323  135.5016  153.2814 H   0  0  0  0  0  0  0  0  0  0  0  0
  145.9857  135.9626  151.8034 H   0  0  0  0  0  0  0  0  0  0  0  0
  146.4661  136.6602  153.3499 H   0  0  0  0  0  0  0  0  0  0  0  0
  147.4361  133.1365  151.6626 H   0  0  0  0  0  0  0  0  0  0  0  0
  145.7188  133.4524  151.8751 H   0  0  0  0  0  0  0  0  0  0  0  0
  147.9415  134.9211  152.6321 H   0  0  0  0  0  0  0  0  0  0  0  0
  1  2  1  0  0  0  0
  1 32  1  0  0  0  0
  1 33  1  0  0  0  0
  1 34  1  0  0  0  0
  2  3  1  0  0  0  0
  3 30  1  0  0  0  0
  3 29  1  0  0  0  0
  3  4  1  0  0  0  0
  4  5  1  0  0  0  0
  4 35  1  0  0  0  0
  4 36  1  0  0  0  0
  5 31  1  0  0  0  0
  5  6  1  0  0  0  0
  5 27  1  0  0  0  0
  6  7  1  0  0  0  0
  6 37  1  0  0  0  0
  6 38  1  0  0  0  0
  7  8  1  0  0  0  0
  7  9  1  0  0  0  0
  8 39  1  0  0  0  0
  8 40  1  0  0  0  0
  8 41  1  0  0  0  0
  9 14  1  0  0  0  0
  9 10  2  0  0  0  0
 10 11  1  0  0  0  0
 11 12  2  0  0  0  0
 11 42  1  0  0  0  0
 12 13  1  0  0  0  0
 13 17  1  0  0  0  0
 13 14  2  0  0  0  0
 14 15  1  0  0  0  0
 15 16  2  0  0  0  0
 16 17  1  0  0  0  0
 16 43  1  0  0  0  0
 17 18  1  0  0  0  0
 18 19  1  0  0  0  0
 18 44  1  0  0  0  0
 18 45  1  0  0  0  0
 19 20  1  0  0  0  0
 19 22  1  0  0  0  0
 19 46  1  0  0  0  0
 20 21  1  0  0  0  0
 20 47  1  0  0  0  0
 20 48  1  0  0  0  0
 21 49  1  0  0  0  0
 22 26  1  0  0  0  0
 22 23  1  0  0  0  0
 22 50  1  0  0  0  0
 23 24  1  0  0  0  0
 23 51  1  0  0  0  0
 23 52  1  0  0  0  0
 24 25  1  0  0  0  0
 24 53  1  0  0  0  0
 24 54  1  0  0  0  0
 25 26  1  0  0  0  0
 26 55  1  0  0  0  0
 26 56  1  0  0  0  0
 27 28  1  0  0  0  0
 27 29  1  0  0  0  0
 27 62  1  0  0  0  0
 28 57  1  0  0  0  0
 28 58  1  0  0  0  0
 28 59  1  0  0  0  0
 29 60  1  0  0  0  0
 29 61  1  0  0  0  0
M  CHG  1  27   1
M  END
> <s_m_source_file>
AV-unprocessed.smi

> <i_m_source_file_index>
21

> <i_lp_mmshare_version>
43012

> <i_f3d_flags>
0

> <s_epik_input>
W0NIM11PW0NASF0xW0NIMl1bQ0BIXShOKFtDSDNdKVtDSDJdMSlbQ0gyXU4oW0NIM10pYyhuW2NIXW4yKWMoYzIzKW5bY0hdbjNbQ0gyXVtDQEhdKFtDSDJdW09IXSlbQ0BASF00W0NIMl1bQ0gyXU9bQ0gyXTQ=

> <s_epik_cmdline>
J2VwaWtfcHl0aG9uJywgJy1waCcsICc3LjAnLCAnLXRuJywgJzgnLCAnLW1hJywgJzIwMCcsICctbWV0YWxfYmluZGluZycsICctaW1hZScsICc8aW5maWxlLm1hZT4nLCAnLW9tYWUnLCAnPG91dGZpbGUubWFlPic=

> <r_lp_tautomer_probability>
1

> <r_epik_Ionization_Penalty>
0.0157465

> <r_epik_Ionization_Penalty_Charging>
0.015354

> <r_epik_Ionization_Penalty_Neutral>
0.000392529

> <r_epik_State_Penalty>
0.0120612

> <r_epik_Charging_Adjusted_Penalty>
0.0274152

> <i_epik_Tot_Q>
1

> <i_epik_Tot_abs_Q>
1

> <r_epik_Metal_State_Penalty>
0.0121253

> <b_epik_Metal_Only>
0

> <s_lp_Force_Field>
OPLS_2005

> <r_lp_Energy>
60.2547

> <b_lp_Chiralities_Consistent>
1

> <s_lp_Variant>
AV-unprocessed.smi:21-1

> <Gold.Version>
5.8.1

> <Gold.Id.Protein>
6NUR|6NUR_protein|mol2

> <Gold.PLP.Fitness>
50.9390

> <Gold.PLP.PLP>
-40.8081

> <Gold.PLP.part.hbond>
-3.0410

> <Gold.PLP.part.metal>
0.0000

> <Gold.PLP.part.buried>
-6.1752

> <Gold.PLP.part.nonpolar>
-32.1593

> <Gold.PLP.part.repulsive>
0.6334

> <Gold.PLP.ligand.clash>
0.0000

> <Gold.PLP.ligand.torsion>
1.2446

> <Gold.PLP.Chemscore.Hbond>
3.9425

> <Gold.PLP.Chemscore.CHOScore>
0.0000

> <Gold.PLP.Chemscore.Metal>
0.0000

> <Gold.Chemscore.Hbonds>
donor molecule, donor type, donor heavy atom, donor atom, acceptor molecule, acceptor atom, score
      L1  H    21    49       P1  8028  0.62
      L1  H    27    62       P1  7948  2.00

> <Gold.PLP.Chemscore.Internal.Correction>
0.7926

> <Gold.Rescore>
     Score         DG    S(hbond)    S(metal)    S(lipo)     H(rot)  DE(clash)    DE(int)     intcor
     13.92     -15.15       1.97        0.00      99.57       3.35       0.06       1.17       ----

> <Gold.Chemscore.Fitness>
13.9202

> <Gold.Chemscore.DG>
-15.1529

> <Gold.Chemscore.ZeroCoef>
-5.4800

> <Gold.Chemscore.Hbond>
1.9723

> <Gold.Chemscore.Metal>
0.0000

> <Gold.Chemscore.Lipo>
99.5653

> <Gold.Chemscore.Internal_Hbond>
0.0000

> <Gold.Chemscore.DEClash>
0.0614

> <Gold.Chemscore.DEInternal>
1.1713

> <Gold.Chemscore.Rot>
3.3452

> <Gold.Chemscore.Internal.Correction>
   9.000000E+99

> <Gold.Chemscore.Hbonds>
donor molecule, donor type, donor heavy atom, donor atom, acceptor molecule, acceptor atom, score
      L1  H    21    49       P1  8028  0.57
      L1  H    27    62       P1  7948  0.83

> <Gold.Chemscore.Hbond.Weighted>
-6.5874

> <Gold.Chemscore.Metal.Weighted>
-0.0000

> <Gold.Chemscore.Lipo.Weighted>
-11.6491

> <Gold.Chemscore.Internal_Hbond.Weighted>
0.0000

> <Gold.Chemscore.DEClash.Weighted>
0.0614

> <Gold.Chemscore.DEInternal.Weighted>
1.1713

> <Gold.Chemscore.Rot.Weighted>
8.5636

> <Gold.Chemscore.Internal.Correction.Weighted>
   9.000000E+99

> <Gold.Protein.RotatedTorsions>
[ 6907 6896 6895 6894 ] final   50.34 input  -60.11 | X-H torsion
[ 7974 7965 7964 7962 ] final   13.98 input  175.53 | X-H torsion
[ 8008 7997 7996 7995 ] final -109.52 input   59.86 | X-H torsion
[ 10167 10162 10161 10158 ] final  125.48 input  -65.29 | X-H torsion
[ 10718 10713 10712 10709 ] final   57.10 input   66.30 | X-H torsion
[ 10763 10752 10751 10750 ] final -149.46 input  -60.55 | X-H torsion
[ 11005 11000 10999 10996 ] final  -63.67 input  -57.11 | X-H torsion

> <Gold.Protein.ActiveResidues>
 VAL166  LYS551  ARG553  GLY616  TRP617  ASP618  TYR619  PRO620  LYS621  CYS622 
 ASP623  PHE694  ASN695  SER759  ASP760  ASP761  ALA762  ILE779  LEU786  VAL792 
 PHE793  MET794  SER795  GLU796  ALA797  LYS798  CYS799  TRP800  GLU811  SER814 

> <Gold.Protein.RotatedAtoms>
  152.3007  134.7614  160.0358 H   0  0  0  0  0  0  0  0  0  0  0  0  # atno 6907 bound_to 6896
  151.8128  133.3379  159.3569 H   0  0  0  0  0  0  0  0  0  0  0  0  # atno 6908 bound_to 6896
  150.7272  134.5577  159.5871 H   0  0  0  0  0  0  0  0  0  0  0  0  # atno 6909 bound_to 6896
  146.2316  139.9108  142.8525 H   0  0  0  0  0  0  0  0  0  0  0  0  # atno 7974 bound_to 7965
  154.9606  140.0399  157.2188 H   0  0  0  0  0  0  0  0  0  0  0  0  # atno 8008 bound_to 7997
  154.7892  140.2832  155.5982 H   0  0  0  0  0  0  0  0  0  0  0  0  # atno 8009 bound_to 7997
  156.2947  140.2576  156.2736 H   0  0  0  0  0  0  0  0  0  0  0  0  # atno 8010 bound_to 7997
  139.5683  144.6924  151.3848 H   0  0  0  0  0  0  0  0  0  0  0  0  # atno 10167 bound_to 10162
  157.5486  130.8749  149.8929 H   0  0  0  0  0  0  0  0  0  0  0  0  # atno 10718 bound_to 10713
  154.8176  135.3308  154.7132 H   0  0  0  0  0  0  0  0  0  0  0  0  # atno 10763 bound_to 10752
  153.7771  135.6921  153.4900 H   0  0  0  0  0  0  0  0  0  0  0  0  # atno 10764 bound_to 10752
  153.2005  135.4518  155.0209 H   0  0  0  0  0  0  0  0  0  0  0  0  # atno 10765 bound_to 10752
  141.1401  133.6655  156.5716 H   0  0  0  0  0  0  0  0  0  0  0  0  # atno 11005 bound_to 11000
  145.2232  140.9943  143.4034 LP  0  0  0  0  0  0  0  0  0  0  0  0  # atno 17320 bound_to 7965
  144.9593  139.3997  143.6364 LP  0  0  0  0  0  0  0  0  0  0  0  0  # atno 17321 bound_to 7965
  140.6967  143.7731  150.7338 LP  0  0  0  0  0  0  0  0  0  0  0  0  # atno 17342 bound_to 10162
  140.1229  143.4595  152.2302 LP  0  0  0  0  0  0  0  0  0  0  0  0  # atno 17343 bound_to 10162
  156.0557  130.3709  150.1096 LP  0  0  0  0  0  0  0  0  0  0  0  0  # atno 17370 bound_to 10713
  156.9271  130.9702  151.3539 LP  0  0  0  0  0  0  0  0  0  0  0  0  # atno 17371 bound_to 10713
  140.3908  134.7442  157.4720 LP  0  0  0  0  0  0  0  0  0  0  0  0  # atno 17394 bound_to 11000
  140.0568  134.6053  155.8796 LP  0  0  0  0  0  0  0  0  0  0  0  0  # atno 17395 bound_to 11000

$$$$
