AV-unprocessed.smi:2164|AV-procd|sdf|8810|dock10
  -GOLD-   2272012 03D 1   1.00000     0.00000
 Structure written by MMmdl.
 38 40  0  0  0  0  0  0  0  0  2 V2000
  150.9740  139.5672  154.2833 O   0  0  0  0  0  0  0  0  0  0  0  0
  151.5522  139.1788  155.3065 C   0  0  0  0  0  0  0  0  0  0  0  0
  152.3372  139.9596  156.1093 N   0  5  0  0  0  0  0  0  0  0  0  0
  151.9110  141.1961  156.7646 C   0  0  0  0  0  0  0  0  0  0  0  0
  152.3156  141.1594  158.2520 C   0  0  0  0  0  0  0  0  0  0  0  0
  152.1634  142.4974  158.9624 C   0  0  0  0  0  0  0  0  0  0  0  0
  151.6855  143.6352  158.2761 C   0  0  0  0  0  0  0  0  0  0  0  0
  151.5740  144.8537  158.9730 C   0  0  0  0  0  0  0  0  0  0  0  0
  151.9495  144.8859  160.3306 C   0  0  0  0  0  0  0  0  0  0  0  0
  152.4140  143.8082  160.9980 N   0  0  0  0  0  0  0  0  0  0  0  0
  152.5176  142.6431  160.3226 C   0  0  0  0  0  0  0  0  0  0  0  0
  151.3920  137.7715  155.7020 C   0  0  0  0  0  0  0  0  0  0  0  0
  150.5773  136.9086  155.0560 C   0  0  0  0  0  0  0  0  0  0  0  0
  150.4182  135.5705  155.4256 N   0  0  0  0  0  0  0  0  0  0  0  0
  149.4331  134.7727  154.7045 C   0  0  0  0  0  0  0  0  0  0  0  0
  149.9702  133.3738  154.4472 C   0  0  0  0  0  0  0  0  0  0  0  0
  150.2283  132.6096  156.0937 S   0  0  0  0  0  0  0  0  0  0  0  0
  148.9292  132.5630  156.7829 O   0  0  0  0  0  0  0  0  0  0  0  0
  150.9892  131.3649  155.9060 O   0  0  0  0  0  0  0  0  0  0  0  0
  151.1982  133.7652  156.8240 N   0  0  0  0  0  0  0  0  0  0  0  0
  151.1823  135.0189  156.4855 C   0  0  0  0  0  0  0  0  0  0  0  0
  152.0289  135.9534  157.2085 C   0  0  0  0  0  0  0  0  0  0  0  0
  152.1296  137.2469  156.8404 C   0  0  0  0  0  0  0  0  0  0  0  0
  152.3601  142.0733  156.2971 H   0  0  0  0  0  0  0  0  0  0  0  0
  150.8317  141.3372  156.6947 H   0  0  0  0  0  0  0  0  0  0  0  0
  151.7158  140.4170  158.7810 H   0  0  0  0  0  0  0  0  0  0  0  0
  153.3527  140.8340  158.3456 H   0  0  0  0  0  0  0  0  0  0  0  0
  151.4070  143.5749  157.2342 H   0  0  0  0  0  0  0  0  0  0  0  0
  151.2097  145.7418  158.4786 H   0  0  0  0  0  0  0  0  0  0  0  0
  151.8772  145.8037  160.8953 H   0  0  0  0  0  0  0  0  0  0  0  0
  152.8946  141.8011  160.8844 H   0  0  0  0  0  0  0  0  0  0  0  0
  149.9835  137.1948  154.1999 H   0  0  0  0  0  0  0  0  0  0  0  0
  148.5091  134.7338  155.2822 H   0  0  0  0  0  0  0  0  0  0  0  0
  149.1860  135.2385  153.7498 H   0  0  0  0  0  0  0  0  0  0  0  0
  149.2617  132.7658  153.8854 H   0  0  0  0  0  0  0  0  0  0  0  0
  150.9161  133.3934  153.9047 H   0  0  0  0  0  0  0  0  0  0  0  0
  152.6121  135.6336  158.0598 H   0  0  0  0  0  0  0  0  0  0  0  0
  152.7774  137.8918  157.4163 H   0  0  0  0  0  0  0  0  0  0  0  0
  1  2  2  0  0  0  0
  2  3  1  0  0  0  0
  2 12  1  0  0  0  0
  3  4  1  0  0  0  0
  4  5  1  0  0  0  0
  4 24  1  0  0  0  0
  4 25  1  0  0  0  0
  5  6  1  0  0  0  0
  5 26  1  0  0  0  0
  5 27  1  0  0  0  0
  6 11  1  0  0  0  0
  6  7  2  0  0  0  0
  7  8  1  0  0  0  0
  7 28  1  0  0  0  0
  8  9  2  0  0  0  0
  8 29  1  0  0  0  0
  9 10  1  0  0  0  0
  9 30  1  0  0  0  0
 10 11  2  0  0  0  0
 11 31  1  0  0  0  0
 12 23  1  0  0  0  0
 12 13  2  0  0  0  0
 13 14  1  0  0  0  0
 13 32  1  0  0  0  0
 14 21  1  0  0  0  0
 14 15  1  0  0  0  0
 15 16  1  0  0  0  0
 15 33  1  0  0  0  0
 15 34  1  0  0  0  0
 16 17  1  0  0  0  0
 16 35  1  0  0  0  0
 16 36  1  0  0  0  0
 17 18  2  0  0  0  0
 17 19  2  0  0  0  0
 17 20  1  0  0  0  0
 20 21  2  0  0  0  0
 21 22  1  0  0  0  0
 22 23  2  0  0  0  0
 22 37  1  0  0  0  0
 23 38  1  0  0  0  0
M  CHG  1   3  -1
M  END
> <s_m_source_file>
AV-unprocessed.smi

> <i_m_source_file_index>
2164

> <i_lp_mmshare_version>
43012

> <i_f3d_flags>
0

> <s_epik_input>
W0NIMl0xW0NIMl1TKD1PKSg9TylOPUMoTjEyKVtDSF09W0NIXUMoPVtDSF0yKUMoPU8pW05IXVtDSDJdW0NIMl1jM1tjSF1bY0hdW2NIXW5bY0hdMw==

> <s_epik_cmdline>
J2VwaWtfcHl0aG9uJywgJy1waCcsICc3LjAnLCAnLXRuJywgJzgnLCAnLW1hJywgJzIwMCcsICctbWV0YWxfYmluZGluZycsICctaW1hZScsICc8aW5maWxlLm1hZT4nLCAnLW9tYWUnLCAnPG91dGZpbGUubWFlPic=

> <r_epik_Ionization_Penalty>
5.17728

> <r_epik_Ionization_Penalty_Charging>
5.15676

> <r_epik_Ionization_Penalty_Neutral>
0.0205175

> <r_epik_State_Penalty>
5.1638

> <r_epik_Charging_Adjusted_Penalty>
10.3206

> <i_epik_Tot_Q>
-1

> <i_epik_Tot_abs_Q>
1

> <r_epik_Metal_State_Penalty>
1.2481

> <b_epik_Metal_Only>
1

> <s_lp_Force_Field>
OPLS_2005

> <r_lp_Energy>
26.7817

> <b_lp_Chiralities_Consistent>
1

> <s_lp_Variant>
AV-unprocessed.smi:2164-3

> <Gold.Version>
5.8.1

> <Gold.Id.Protein>
6NUR|6NUR_protein|mol2

> <Gold.PLP.Fitness>
48.9281

> <Gold.PLP.PLP>
-39.1802

> <Gold.PLP.part.hbond>
-2.7852

> <Gold.PLP.part.metal>
0.0000

> <Gold.PLP.part.buried>
-5.4651

> <Gold.PLP.part.nonpolar>
-30.2794

> <Gold.PLP.part.repulsive>
0.2458

> <Gold.PLP.ligand.clash>
0.0000

> <Gold.PLP.ligand.torsion>
0.6289

> <Gold.PLP.Chemscore.Hbond>
3.0819

> <Gold.PLP.Chemscore.CHOScore>
0.5817

> <Gold.PLP.Chemscore.Metal>
0.0000

> <Gold.Chemscore.Hbonds>
donor molecule, donor type, donor heavy atom, donor atom, acceptor molecule, acceptor atom, score
      P1  H  6896  6909       L1    20  0.06
      P1  H  7989  7998       L1     1  1.00
      P1  H  7997  8010       L1     3  1.90
      L1  C    13    32       P1  7948  0.59

> <Gold.PLP.Chemscore.Internal.Correction>
0.0148

> <Gold.Rescore>
     Score         DG    S(hbond)    S(metal)    S(lipo)     H(rot)  DE(clash)    DE(int)     intcor
     18.12     -19.09       1.71        0.00      98.92       1.44       0.30       0.67       ----

> <Gold.Chemscore.Fitness>
18.1160

> <Gold.Chemscore.DG>
-19.0856

> <Gold.Chemscore.ZeroCoef>
-5.4800

> <Gold.Chemscore.Hbond>
1.7147

> <Gold.Chemscore.Metal>
0.0000

> <Gold.Chemscore.Lipo>
98.9181

> <Gold.Chemscore.Internal_Hbond>
0.0000

> <Gold.Chemscore.DEClash>
0.3024

> <Gold.Chemscore.DEInternal>
0.6672

> <Gold.Chemscore.Rot>
1.4433

> <Gold.Chemscore.Internal.Correction>
   9.000000E+99

> <Gold.Chemscore.Hbonds>
donor molecule, donor type, donor heavy atom, donor atom, acceptor molecule, acceptor atom, score
      P1  H  6896  6909       L1    20  0.04
      P1  H  7989  7998       L1     1  0.94
      P1  H  7997  8010       L1     3  0.20

> <Gold.Chemscore.Hbond.Weighted>
-5.7271

> <Gold.Chemscore.Metal.Weighted>
-0.0000

> <Gold.Chemscore.Lipo.Weighted>
-11.5734

> <Gold.Chemscore.Internal_Hbond.Weighted>
0.0000

> <Gold.Chemscore.DEClash.Weighted>
0.3024

> <Gold.Chemscore.DEInternal.Weighted>
0.6672

> <Gold.Chemscore.Rot.Weighted>
3.6949

> <Gold.Chemscore.Internal.Correction.Weighted>
   9.000000E+99

> <Gold.Protein.RotatedTorsions>
[ 6907 6896 6895 6894 ] final  -19.79 input  -60.11 | X-H torsion
[ 7974 7965 7964 7962 ] final -142.41 input  175.53 | X-H torsion
[ 8008 7997 7996 7995 ] final   76.60 input   59.86 | X-H torsion
[ 10167 10162 10161 10158 ] final  -87.92 input  -65.29 | X-H torsion
[ 10718 10713 10712 10709 ] final -173.09 input   66.30 | X-H torsion
[ 10763 10752 10751 10750 ] final -162.08 input  -60.55 | X-H torsion
[ 11005 11000 10999 10996 ] final    1.77 input  -57.11 | X-H torsion

> <Gold.Protein.ActiveResidues>
 VAL166  LYS551  ARG553  GLY616  TRP617  ASP618  TYR619  PRO620  LYS621  CYS622 
 ASP623  PHE694  ASN695  SER759  ASP760  ASP761  ALA762  ILE779  LEU786  VAL792 
 PHE793  MET794  SER795  GLU796  ALA797  LYS798  CYS799  TRP800  GLU811  SER814 

> <Gold.Protein.RotatedAtoms>
  151.2579  135.0644  159.9086 H   0  0  0  0  0  0  0  0  0  0  0  0  # atno 6907 bound_to 6896
  152.5370  134.0262  159.8014 H   0  0  0  0  0  0  0  0  0  0  0  0  # atno 6908 bound_to 6896
  151.0481  133.5598  159.2676 H   0  0  0  0  0  0  0  0  0  0  0  0  # atno 6909 bound_to 6896
  144.8446  140.5961  143.5430 H   0  0  0  0  0  0  0  0  0  0  0  0  # atno 7974 bound_to 7965
  155.8296  140.3466  155.5564 H   0  0  0  0  0  0  0  0  0  0  0  0  # atno 8008 bound_to 7997
  155.8256  140.0919  157.1843 H   0  0  0  0  0  0  0  0  0  0  0  0  # atno 8009 bound_to 7997
  154.4004  140.1422  156.3539 H   0  0  0  0  0  0  0  0  0  0  0  0  # atno 8010 bound_to 7997
  140.3797  143.2754  151.9399 H   0  0  0  0  0  0  0  0  0  0  0  0  # atno 10167 bound_to 10162
  156.7652  130.9428  151.3119 H   0  0  0  0  0  0  0  0  0  0  0  0  # atno 10718 bound_to 10713
  154.7246  135.3033  154.8991 H   0  0  0  0  0  0  0  0  0  0  0  0  # atno 10763 bound_to 10752
  153.9852  135.6725  153.4756 H   0  0  0  0  0  0  0  0  0  0  0  0  # atno 10764 bound_to 10752
  153.0864  135.4982  154.8523 H   0  0  0  0  0  0  0  0  0  0  0  0  # atno 10765 bound_to 10752
  140.6117  133.9742  155.8180 H   0  0  0  0  0  0  0  0  0  0  0  0  # atno 11005 bound_to 11000
  145.4624  139.1511  143.3859 LP  0  0  0  0  0  0  0  0  0  0  0  0  # atno 17320 bound_to 7965
  146.2732  140.4754  142.8806 LP  0  0  0  0  0  0  0  0  0  0  0  0  # atno 17321 bound_to 7965
  139.4796  144.5830  151.7901 LP  0  0  0  0  0  0  0  0  0  0  0  0  # atno 17342 bound_to 10162
  140.4950  144.1254  150.5958 LP  0  0  0  0  0  0  0  0  0  0  0  0  # atno 17343 bound_to 10162
  157.6716  130.9056  150.0054 LP  0  0  0  0  0  0  0  0  0  0  0  0  # atno 17370 bound_to 10713
  156.1313  130.3643  149.9727 LP  0  0  0  0  0  0  0  0  0  0  0  0  # atno 17371 bound_to 10713
  141.0803  134.0072  157.3395 LP  0  0  0  0  0  0  0  0  0  0  0  0  # atno 17394 bound_to 11000
  139.9189  135.0199  156.7990 LP  0  0  0  0  0  0  0  0  0  0  0  0  # atno 17395 bound_to 11000

$$$$
