AV-unprocessed.smi:1406|AV-procd|sdf|5716|dock1
  -GOLD-   22720 5343D 1   1.00000     0.00000
 Structure written by MMmdl.
 41 43  0  0  0  0  0  0  0  0  2 V2000
  149.9498  131.7024  154.4993 C   0  0  0  0  0  0  0  0  0  0  0  0
  149.5106  133.1010  154.0208 C   0  0  1  0  0  0  0  0  0  0  0  0
  148.0025  133.1877  153.7363 C   0  0  0  0  0  0  0  0  0  0  0  0
  147.2467  132.2681  154.0515 O   0  0  0  0  0  0  0  0  0  0  0  0
  147.5764  134.3063  153.1268 N   0  0  0  0  0  0  0  0  0  0  0  0
  146.1854  134.6095  152.7961 C   0  0  1  0  0  0  0  0  0  0  0  0
  146.0191  135.9631  152.0796 C   0  0  0  0  0  0  0  0  0  0  0  0
  144.9525  135.7047  151.0104 C   0  0  0  0  0  0  0  0  0  0  0  0
  145.2063  134.3115  150.6259 N   0  3  2  0  0  0  0  0  0  0  0  0
  144.2155  133.6188  149.7776 C   0  0  0  0  0  0  0  0  0  0  0  0
  144.8026  132.2527  149.3614 C   0  0  0  0  0  0  0  0  0  0  0  0
  145.2939  131.4312  150.5754 C   0  0  0  0  0  0  0  0  0  0  0  0
  146.2215  132.2575  151.4929 C   0  0  0  0  0  0  0  0  0  0  0  0
  145.5138  133.5732  151.8632 C   0  0  1  0  0  0  0  0  0  0  0  0
  149.9110  134.1493  154.9513 N   0  0  0  0  0  0  0  0  0  0  0  0
  149.7298  135.4701  154.8857 C   0  0  0  0  0  0  0  0  0  0  0  0
  150.1882  136.1302  155.9397 N   0  0  0  0  0  0  0  0  0  0  0  0
  150.6674  135.0827  156.6740 C   0  0  0  0  0  0  0  0  0  0  0  0
  150.5169  133.8738  156.1333 N   0  0  0  0  0  0  0  0  0  0  0  0
  149.6926  130.9372  153.7658 H   0  0  0  0  0  0  0  0  0  0  0  0
  149.4804  131.4251  155.4443 H   0  0  0  0  0  0  0  0  0  0  0  0
  151.0297  131.6641  154.6447 H   0  0  0  0  0  0  0  0  0  0  0  0
  150.0271  133.2945  153.0793 H   0  0  0  0  0  0  0  0  0  0  0  0
  148.2640  135.0102  152.9002 H   0  0  0  0  0  0  0  0  0  0  0  0
  145.6089  134.6557  153.7225 H   0  0  0  0  0  0  0  0  0  0  0  0
  145.7413  136.7685  152.7604 H   0  0  0  0  0  0  0  0  0  0  0  0
  146.9525  136.2514  151.5928 H   0  0  0  0  0  0  0  0  0  0  0  0
  143.9514  135.7942  151.4354 H   0  0  0  0  0  0  0  0  0  0  0  0
  145.0326  136.3845  150.1617 H   0  0  0  0  0  0  0  0  0  0  0  0
  143.2775  133.4920  150.3202 H   0  0  0  0  0  0  0  0  0  0  0  0
  144.0010  134.2212  148.8941 H   0  0  0  0  0  0  0  0  0  0  0  0
  144.0618  131.6830  148.7994 H   0  0  0  0  0  0  0  0  0  0  0  0
  145.6407  132.4165  148.6826 H   0  0  0  0  0  0  0  0  0  0  0  0
  144.4308  131.0920  151.1498 H   0  0  0  0  0  0  0  0  0  0  0  0
  145.8074  130.5313  150.2357 H   0  0  0  0  0  0  0  0  0  0  0  0
  146.4576  131.6826  152.3887 H   0  0  0  0  0  0  0  0  0  0  0  0
  147.1657  132.4622  150.9863 H   0  0  0  0  0  0  0  0  0  0  0  0
  144.5626  133.3157  152.3343 H   0  0  0  0  0  0  0  0  0  0  0  0
  149.2484  135.9591  154.0515 H   0  0  0  0  0  0  0  0  0  0  0  0
  151.1346  135.2143  157.6389 H   0  0  0  0  0  0  0  0  0  0  0  0
  146.0661  134.3348  150.0963 H   0  0  0  0  0  0  0  0  0  0  0  0
  1  2  1  0  0  0  0
  1 20  1  0  0  0  0
  1 21  1  0  0  0  0
  1 22  1  0  0  0  0
  2  3  1  0  0  0  0
  2 15  1  0  0  0  0
  2 23  1  0  0  0  0
  3  4  2  0  0  0  0
  3  5  1  0  0  0  0
  5  6  1  0  0  0  0
  5 24  1  0  0  0  0
  6 14  1  0  0  0  0
  6  7  1  0  0  0  0
  6 25  1  0  0  0  0
  7  8  1  0  0  0  0
  7 26  1  0  0  0  0
  7 27  1  0  0  0  0
  8  9  1  0  0  0  0
  8 28  1  0  0  0  0
  8 29  1  0  0  0  0
  9 14  1  0  0  0  0
  9 10  1  0  0  0  0
  9 41  1  0  0  0  0
 10 11  1  0  0  0  0
 10 30  1  0  0  0  0
 10 31  1  0  0  0  0
 11 12  1  0  0  0  0
 11 32  1  0  0  0  0
 11 33  1  0  0  0  0
 12 13  1  0  0  0  0
 12 34  1  0  0  0  0
 12 35  1  0  0  0  0
 13 14  1  0  0  0  0
 13 36  1  0  0  0  0
 13 37  1  0  0  0  0
 14 38  1  0  0  0  0
 15 19  1  0  0  0  0
 15 16  1  0  0  0  0
 16 17  2  0  0  0  0
 16 39  1  0  0  0  0
 17 18  1  0  0  0  0
 18 19  2  0  0  0  0
 18 40  1  0  0  0  0
M  CHG  1   9   1
M  END
> <s_m_source_file>
AV-unprocessed.smi

> <i_m_source_file_index>
1406

> <i_lp_mmshare_version>
43012

> <i_f3d_flags>
0

> <s_epik_input>
bjFbY0hdbltjSF1uMVtDQEhdKFtDSDNdKUMoPU8pW05IXVtDQEhdKFtDSDJdW0NIMl0yKVtDQEBIXShOMjMpW0NIMl1bQ0gyXVtDSDJdW0NIMl0z

> <s_epik_cmdline>
J2VwaWtfcHl0aG9uJywgJy1waCcsICc3LjAnLCAnLXRuJywgJzgnLCAnLW1hJywgJzIwMCcsICctbWV0YWxfYmluZGluZycsICctaW1hZScsICc8aW5maWxlLm1hZT4nLCAnLW9tYWUnLCAnPG91dGZpbGUubWFlPic=

> <r_lp_tautomer_probability>
1

> <r_epik_Ionization_Penalty>
0.00197066

> <r_epik_Ionization_Penalty_Charging>
0.00196223

> <r_epik_Ionization_Penalty_Neutral>
8.43107e-06

> <r_epik_State_Penalty>
0.00133866

> <r_epik_Charging_Adjusted_Penalty>
0.00330089

> <i_epik_Tot_Q>
1

> <i_epik_Tot_abs_Q>
1

> <r_epik_Metal_State_Penalty>
-0

> <b_epik_Metal_Only>
0

> <s_lp_Force_Field>
OPLS_2005

> <r_lp_Energy>
47.4686

> <b_lp_Chiralities_Consistent>
1

> <s_lp_Variant>
AV-unprocessed.smi:1406-8

> <Gold.Version>
5.8.1

> <Gold.Id.Protein>
6NUR|6NUR_protein|mol2

> <Gold.PLP.Fitness>
36.4457

> <Gold.PLP.PLP>
-30.6031

> <Gold.PLP.part.hbond>
-1.4725

> <Gold.PLP.part.metal>
0.0000

> <Gold.PLP.part.buried>
-2.3127

> <Gold.PLP.part.nonpolar>
-27.7085

> <Gold.PLP.part.repulsive>
0.1494

> <Gold.PLP.ligand.clash>
0.0000

> <Gold.PLP.ligand.torsion>
0.1285

> <Gold.PLP.Chemscore.Hbond>
1.0000

> <Gold.PLP.Chemscore.CHOScore>
1.0000

> <Gold.PLP.Chemscore.Metal>
0.0000

> <Gold.Chemscore.Hbonds>
donor molecule, donor type, donor heavy atom, donor atom, acceptor molecule, acceptor atom, score
      L1  H     5    24       P1  7948  1.00
      L1  C    16    39       P1  7948  1.00

> <Gold.PLP.Chemscore.Internal.Correction>
0.0995

> <Gold.Rescore>
     Score         DG    S(hbond)    S(metal)    S(lipo)     H(rot)  DE(clash)    DE(int)     intcor
      9.92     -12.35       0.98        0.00      72.00       1.89       0.18       2.25       ----

> <Gold.Chemscore.Fitness>
9.9163

> <Gold.Chemscore.DG>
-12.3472

> <Gold.Chemscore.ZeroCoef>
-5.4800

> <Gold.Chemscore.Hbond>
0.9798

> <Gold.Chemscore.Metal>
0.0000

> <Gold.Chemscore.Lipo>
72.0022

> <Gold.Chemscore.Internal_Hbond>
0.0000

> <Gold.Chemscore.DEClash>
0.1766

> <Gold.Chemscore.DEInternal>
2.2544

> <Gold.Chemscore.Rot>
1.8865

> <Gold.Chemscore.Internal.Correction>
   9.000000E+99

> <Gold.Chemscore.Hbonds>
donor molecule, donor type, donor heavy atom, donor atom, acceptor molecule, acceptor atom, score
      L1  H     5    24       P1  7948  0.83

> <Gold.Chemscore.Hbond.Weighted>
-3.2725

> <Gold.Chemscore.Metal.Weighted>
-0.0000

> <Gold.Chemscore.Lipo.Weighted>
-8.4243

> <Gold.Chemscore.Internal_Hbond.Weighted>
0.0000

> <Gold.Chemscore.DEClash.Weighted>
0.1766

> <Gold.Chemscore.DEInternal.Weighted>
2.2544

> <Gold.Chemscore.Rot.Weighted>
4.8295

> <Gold.Chemscore.Internal.Correction.Weighted>
   9.000000E+99

> <Gold.Protein.RotatedTorsions>
[ 6907 6896 6895 6894 ] final  -29.00 input  -60.11 | X-H torsion
[ 7974 7965 7964 7962 ] final -105.90 input  175.53 | X-H torsion
[ 8008 7997 7996 7995 ] final  -64.46 input   59.86 | X-H torsion
[ 10167 10162 10161 10158 ] final  -38.23 input  -65.29 | X-H torsion
[ 10718 10713 10712 10709 ] final  163.76 input   66.30 | X-H torsion
[ 10763 10752 10751 10750 ] final  -69.47 input  -60.55 | X-H torsion
[ 11005 11000 10999 10996 ] final  127.84 input  -57.11 | X-H torsion

> <Gold.Protein.ActiveResidues>
 VAL166  LYS551  ARG553  GLY616  TRP617  ASP618  TYR619  PRO620  LYS621  CYS622 
 ASP623  PHE694  ASN695  SER759  ASP760  ASP761  ALA762  ILE779  LEU786  VAL792 
 PHE793  MET794  SER795  GLU796  ALA797  LYS798  CYS799  TRP800  GLU811  SER814 

> <Gold.Protein.RotatedAtoms>
  151.1252  135.0101  159.8556 H   0  0  0  0  0  0  0  0  0  0  0  0  # atno 6907 bound_to 6896
  152.5449  134.1675  159.8593 H   0  0  0  0  0  0  0  0  0  0  0  0  # atno 6908 bound_to 6896
  151.1737  133.4723  159.2627 H   0  0  0  0  0  0  0  0  0  0  0  0  # atno 6909 bound_to 6896
  145.2246  140.9147  143.3240 H   0  0  0  0  0  0  0  0  0  0  0  0  # atno 7974 bound_to 7965
  154.4613  140.0953  156.6900 H   0  0  0  0  0  0  0  0  0  0  0  0  # atno 8008 bound_to 7997
  155.4987  140.3473  155.4349 H   0  0  0  0  0  0  0  0  0  0  0  0  # atno 8009 bound_to 7997
  156.0875  140.1388  156.9623 H   0  0  0  0  0  0  0  0  0  0  0  0  # atno 8010 bound_to 7997
  140.7098  143.3291  151.2612 H   0  0  0  0  0  0  0  0  0  0  0  0  # atno 10167 bound_to 10162
  157.1040  131.0450  151.2486 H   0  0  0  0  0  0  0  0  0  0  0  0  # atno 10718 bound_to 10713
  154.4038  135.6025  153.5913 H   0  0  0  0  0  0  0  0  0  0  0  0  # atno 10763 bound_to 10752
  152.9788  135.5913  154.4152 H   0  0  0  0  0  0  0  0  0  0  0  0  # atno 10764 bound_to 10752
  154.3954  135.2842  155.2107 H   0  0  0  0  0  0  0  0  0  0  0  0  # atno 10765 bound_to 10752
  139.9529  134.9619  156.8914 H   0  0  0  0  0  0  0  0  0  0  0  0  # atno 11005 bound_to 11000
  144.9733  139.3857  143.6298 LP  0  0  0  0  0  0  0  0  0  0  0  0  # atno 17320 bound_to 7965
  146.3368  139.8841  142.8819 LP  0  0  0  0  0  0  0  0  0  0  0  0  # atno 17321 bound_to 7965
  139.6767  143.9925  152.2785 LP  0  0  0  0  0  0  0  0  0  0  0  0  # atno 17342 bound_to 10162
  139.9541  144.6601  150.8143 LP  0  0  0  0  0  0  0  0  0  0  0  0  # atno 17343 bound_to 10162
  157.4617  130.7657  149.7242 LP  0  0  0  0  0  0  0  0  0  0  0  0  # atno 17370 bound_to 10713
  155.9866  130.3973  150.3202 LP  0  0  0  0  0  0  0  0  0  0  0  0  # atno 17371 bound_to 10713
  140.5678  134.0473  155.7420 LP  0  0  0  0  0  0  0  0  0  0  0  0  # atno 17394 bound_to 11000
  141.1195  133.9485  157.2758 LP  0  0  0  0  0  0  0  0  0  0  0  0  # atno 17395 bound_to 11000

$$$$
