AV-unprocessed.smi:305|AV-procd|sdf|2280|dock1
  -GOLD-   2262022173D 1   1.00000     0.00000
 Structure written by MMmdl.
 47 49  0  0  0  0  0  0  0  0  1 V2000
  154.0736  136.8610  163.5829 C   0  0  0  0  0  0  0  0  0  0  0  0
  153.9164  137.0677  162.0749 C   0  0  0  0  0  0  0  0  0  0  0  0
  154.7716  138.1201  161.6624 O   0  0  0  0  0  0  0  0  0  0  0  0
  154.4331  138.6281  160.3834 C   0  0  0  0  0  0  0  0  0  0  0  0
  153.0716  139.3291  160.4732 C   0  0  0  0  0  0  0  0  0  0  0  0
  152.5085  139.5876  159.1530 N   0  0  0  0  0  0  0  0  0  0  0  0
  152.1025  140.7739  158.6315 C   0  0  0  0  0  0  0  0  0  0  0  0
  152.1834  141.9713  159.3743 N   0  0  0  0  0  0  0  0  0  0  0  0
  152.4808  141.9330  160.6897 N   0  0  0  0  0  0  0  0  0  0  0  0
  152.4722  143.1967  161.0786 C   0  0  0  0  0  0  0  0  0  0  0  0
  152.7808  143.5283  162.5105 C   0  0  0  0  0  0  0  0  0  0  0  0
  152.1510  144.0892  160.0149 C   0  0  0  0  0  0  0  0  0  0  0  0
  152.0427  145.5880  160.0747 C   0  0  0  0  0  0  0  0  0  0  0  0
  151.9704  143.2655  158.9369 C   0  0  0  0  0  0  0  0  0  0  0  0
  151.6187  143.5860  157.5195 C   0  0  0  0  0  0  0  0  0  0  0  0
  151.6444  140.7104  157.3778 N   0  0  0  0  0  0  0  0  0  0  0  0
  151.7555  139.3595  157.0791 C   0  0  0  0  0  0  0  0  0  0  0  0
  152.2696  138.6709  158.1305 C   0  0  0  0  0  0  0  0  0  0  0  0
  152.4945  137.2210  158.0924 C   0  0  0  0  0  0  0  0  0  0  0  0
  152.9567  136.5827  159.0355 O   0  0  0  0  0  0  0  0  0  0  0  0
  152.1363  136.6597  156.9121 N   0  0  0  0  0  0  0  0  0  0  0  0
  151.6132  137.2906  155.8162 C   0  0  0  0  0  0  0  0  0  0  0  0
  151.3311  136.6413  154.8091 O   0  0  0  0  0  0  0  0  0  0  0  0
  151.4224  138.6471  155.8916 N   0  0  0  0  0  0  0  0  0  0  0  0
  150.8664  139.3725  154.7480 C   0  0  0  0  0  0  0  0  0  0  0  0
  152.2687  135.6621  156.8325 H   0  0  0  0  0  0  0  0  0  0  0  0
  153.4292  136.0549  163.9346 H   0  0  0  0  0  0  0  0  0  0  0  0
  153.8085  137.7651  164.1315 H   0  0  0  0  0  0  0  0  0  0  0  0
  155.1017  136.6026  163.8373 H   0  0  0  0  0  0  0  0  0  0  0  0
  154.1692  136.1481  161.5451 H   0  0  0  0  0  0  0  0  0  0  0  0
  152.8792  137.3110  161.8397 H   0  0  0  0  0  0  0  0  0  0  0  0
  155.1986  139.3280  160.0458 H   0  0  0  0  0  0  0  0  0  0  0  0
  154.3927  137.8138  159.6588 H   0  0  0  0  0  0  0  0  0  0  0  0
  152.3739  138.7233  161.0519 H   0  0  0  0  0  0  0  0  0  0  0  0
  153.1604  140.2723  161.0117 H   0  0  0  0  0  0  0  0  0  0  0  0
  153.5484  144.2996  162.5744 H   0  0  0  0  0  0  0  0  0  0  0  0
  153.1424  142.6578  163.0592 H   0  0  0  0  0  0  0  0  0  0  0  0
  151.8936  143.8994  163.0238 H   0  0  0  0  0  0  0  0  0  0  0  0
  151.1834  145.9542  159.5126 H   0  0  0  0  0  0  0  0  0  0  0  0
  152.9280  146.0699  159.6595 H   0  0  0  0  0  0  0  0  0  0  0  0
  151.9296  145.9491  161.0969 H   0  0  0  0  0  0  0  0  0  0  0  0
  151.7090  144.6542  157.3232 H   0  0  0  0  0  0  0  0  0  0  0  0
  150.5929  143.2895  157.3003 H   0  0  0  0  0  0  0  0  0  0  0  0
  152.2779  143.0643  156.8256 H   0  0  0  0  0  0  0  0  0  0  0  0
  151.4663  139.1986  153.8538 H   0  0  0  0  0  0  0  0  0  0  0  0
  150.8344  140.4499  154.9098 H   0  0  0  0  0  0  0  0  0  0  0  0
  149.8474  139.0398  154.5457 H   0  0  0  0  0  0  0  0  0  0  0  0
  1  2  1  0  0  0  0
  1 27  1  0  0  0  0
  1 28  1  0  0  0  0
  1 29  1  0  0  0  0
  2  3  1  0  0  0  0
  2 30  1  0  0  0  0
  2 31  1  0  0  0  0
  3  4  1  0  0  0  0
  4  5  1  0  0  0  0
  4 32  1  0  0  0  0
  4 33  1  0  0  0  0
  5  6  1  0  0  0  0
  5 34  1  0  0  0  0
  5 35  1  0  0  0  0
  6 18  1  0  0  0  0
  6  7  1  0  0  0  0
  7  8  1  0  0  0  0
  7 16  2  0  0  0  0
  8 14  1  0  0  0  0
  8  9  1  0  0  0  0
  9 10  2  0  0  0  0
 10 11  1  0  0  0  0
 10 12  1  0  0  0  0
 11 36  1  0  0  0  0
 11 37  1  0  0  0  0
 11 38  1  0  0  0  0
 12 13  1  0  0  0  0
 12 14  2  0  0  0  0
 13 39  1  0  0  0  0
 13 40  1  0  0  0  0
 13 41  1  0  0  0  0
 14 15  1  0  0  0  0
 15 42  1  0  0  0  0
 15 43  1  0  0  0  0
 15 44  1  0  0  0  0
 16 17  1  0  0  0  0
 17 24  1  0  0  0  0
 17 18  2  0  0  0  0
 18 19  1  0  0  0  0
 19 20  2  0  0  0  0
 19 21  1  0  0  0  0
 21 26  1  0  0  0  0
 21 22  1  0  0  0  0
 22 23  2  0  0  0  0
 22 24  1  0  0  0  0
 24 25  1  0  0  0  0
 25 45  1  0  0  0  0
 25 46  1  0  0  0  0
 25 47  1  0  0  0  0
M  END
> <s_m_source_file>
AV-unprocessed.smi

> <i_m_source_file_index>
305

> <i_lp_mmshare_version>
43012

> <i_f3d_flags>
0

> <s_epik_input>
W0NIM11uMWMoPU8pW25IXWMoPU8pYyhjMTIpbihbQ0gyXVtDSDJdT1tDSDJdW0NIM10pYyhuMiktbjNuYyhbQ0gzXSljKFtDSDNdKWMzW0NIM10=

> <s_epik_cmdline>
J2VwaWtfcHl0aG9uJywgJy1waCcsICc3LjAnLCAnLXRuJywgJzgnLCAnLW1hJywgJzIwMCcsICctbWV0YWxfYmluZGluZycsICctaW1hZScsICc8aW5maWxlLm1hZT4nLCAnLW9tYWUnLCAnPG91dGZpbGUubWFlPic=

> <r_lp_tautomer_probability>
1

> <r_epik_Ionization_Penalty>
0.00243297

> <r_epik_Ionization_Penalty_Charging>
0.000715499

> <r_epik_Ionization_Penalty_Neutral>
0.00171747

> <r_epik_State_Penalty>
-0

> <r_epik_Charging_Adjusted_Penalty>
0.000715499

> <i_epik_Tot_Q>
0

> <i_epik_Tot_abs_Q>
0

> <r_epik_Metal_State_Penalty>
0.258225

> <b_epik_Metal_Only>
0

> <s_lp_Force_Field>
OPLS_2005

> <r_lp_Energy>
25.4323

> <b_lp_Chiralities_Consistent>
1

> <s_lp_Variant>
AV-unprocessed.smi:305-1

> <Gold.Version>
5.8.1

> <Gold.Id.Protein>
6NUR|6NUR_protein|mol2

> <Gold.PLP.Fitness>
50.2907

> <Gold.PLP.PLP>
-46.7128

> <Gold.PLP.part.hbond>
-2.0000

> <Gold.PLP.part.metal>
0.0000

> <Gold.PLP.part.buried>
-7.1295

> <Gold.PLP.part.nonpolar>
-38.7156

> <Gold.PLP.part.repulsive>
0.3034

> <Gold.PLP.ligand.clash>
2.5537

> <Gold.PLP.ligand.torsion>
0.1852

> <Gold.PLP.Chemscore.Hbond>
1.9357

> <Gold.PLP.Chemscore.CHOScore>
0.0000

> <Gold.PLP.Chemscore.Metal>
0.0000

> <Gold.Chemscore.Hbonds>
donor molecule, donor type, donor heavy atom, donor atom, acceptor molecule, acceptor atom, score
      P1  H  6896  6909       L1    20  0.87
      P1  H 10752 10764       L1    23  1.00

> <Gold.PLP.Chemscore.Internal.Correction>
0.6947

> <Gold.Rescore>
     Score         DG    S(hbond)    S(metal)    S(lipo)     H(rot)  DE(clash)    DE(int)     intcor
     16.92     -20.45       1.84        0.00     111.48       1.65       0.39       3.13       ----

> <Gold.Chemscore.Fitness>
16.9200

> <Gold.Chemscore.DG>
-20.4454

> <Gold.Chemscore.ZeroCoef>
-5.4800

> <Gold.Chemscore.Hbond>
1.8379

> <Gold.Chemscore.Metal>
0.0000

> <Gold.Chemscore.Lipo>
111.4819

> <Gold.Chemscore.Internal_Hbond>
0.0000

> <Gold.Chemscore.DEClash>
0.3937

> <Gold.Chemscore.DEInternal>
3.1316

> <Gold.Chemscore.Rot>
1.6471

> <Gold.Chemscore.Internal.Correction>
   9.000000E+99

> <Gold.Chemscore.Hbonds>
donor molecule, donor type, donor heavy atom, donor atom, acceptor molecule, acceptor atom, score
      P1  H  6896  6909       L1    20  0.80
      P1  H 10752 10764       L1    23  0.40

> <Gold.Chemscore.Hbond.Weighted>
-6.1387

> <Gold.Chemscore.Metal.Weighted>
-0.0000

> <Gold.Chemscore.Lipo.Weighted>
-13.0434

> <Gold.Chemscore.Internal_Hbond.Weighted>
0.0000

> <Gold.Chemscore.DEClash.Weighted>
0.3937

> <Gold.Chemscore.DEInternal.Weighted>
3.1316

> <Gold.Chemscore.Rot.Weighted>
4.2167

> <Gold.Chemscore.Internal.Correction.Weighted>
   9.000000E+99

> <Gold.Protein.RotatedTorsions>
[ 6907 6896 6895 6894 ] final  149.99 input  -60.11 | X-H torsion
[ 7974 7965 7964 7962 ] final   93.56 input  175.53 | X-H torsion
[ 8008 7997 7996 7995 ] final -169.81 input   59.86 | X-H torsion
[ 10167 10162 10161 10158 ] final   17.45 input  -65.29 | X-H torsion
[ 10718 10713 10712 10709 ] final  108.38 input   66.30 | X-H torsion
[ 10763 10752 10751 10750 ] final  -65.69 input  -60.55 | X-H torsion
[ 11005 11000 10999 10996 ] final -167.29 input  -57.11 | X-H torsion

> <Gold.Protein.ActiveResidues>
 VAL166  LYS551  ARG553  GLY616  TRP617  ASP618  TYR619  PRO620  LYS621  CYS622 
 ASP623  PHE694  ASN695  SER759  ASP760  ASP761  ALA762  ILE779  LEU786  VAL792 
 PHE793  MET794  SER795  GLU796  ALA797  LYS798  CYS799  TRP800  GLU811  SER814 

> <Gold.Protein.RotatedAtoms>
  152.1206  133.4351  159.4673 H   0  0  0  0  0  0  0  0  0  0  0  0  # atno 6907 bound_to 6896
  150.6872  134.2540  159.4531 H   0  0  0  0  0  0  0  0  0  0  0  0  # atno 6908 bound_to 6896
  152.0416  134.9707  160.0624 H   0  0  0  0  0  0  0  0  0  0  0  0  # atno 6909 bound_to 6896
  145.4773  139.2279  143.2902 H   0  0  0  0  0  0  0  0  0  0  0  0  # atno 7974 bound_to 7965
  155.9100  140.1055  157.1287 H   0  0  0  0  0  0  0  0  0  0  0  0  # atno 8008 bound_to 7997
  154.4038  140.1276  156.4609 H   0  0  0  0  0  0  0  0  0  0  0  0  # atno 8009 bound_to 7997
  155.7322  140.3468  155.5067 H   0  0  0  0  0  0  0  0  0  0  0  0  # atno 8010 bound_to 7997
  140.5725  143.9134  150.6724 H   0  0  0  0  0  0  0  0  0  0  0  0  # atno 10167 bound_to 10162
  157.6588  131.0892  150.6297 H   0  0  0  0  0  0  0  0  0  0  0  0  # atno 10718 bound_to 10713
  154.3488  135.6141  153.5632 H   0  0  0  0  0  0  0  0  0  0  0  0  # atno 10763 bound_to 10752
  152.9799  135.5787  154.4768 H   0  0  0  0  0  0  0  0  0  0  0  0  # atno 10764 bound_to 10752
  154.4485  135.2852  155.1775 H   0  0  0  0  0  0  0  0  0  0  0  0  # atno 10765 bound_to 10752
  140.5549  134.5391  157.5130 H   0  0  0  0  0  0  0  0  0  0  0  0  # atno 11005 bound_to 11000
  146.2362  140.5556  142.8954 LP  0  0  0  0  0  0  0  0  0  0  0  0  # atno 17320 bound_to 7965
  144.7910  140.6031  143.6542 LP  0  0  0  0  0  0  0  0  0  0  0  0  # atno 17321 bound_to 7965
  140.2613  143.3522  152.1320 LP  0  0  0  0  0  0  0  0  0  0  0  0  # atno 17342 bound_to 10162
  139.5125  144.6918  151.5740 LP  0  0  0  0  0  0  0  0  0  0  0  0  # atno 17343 bound_to 10162
  156.6601  130.4510  149.5690 LP  0  0  0  0  0  0  0  0  0  0  0  0  # atno 17370 bound_to 10713
  156.2073  130.6657  151.1232 LP  0  0  0  0  0  0  0  0  0  0  0  0  # atno 17371 bound_to 10713
  139.9437  134.7741  156.0616 LP  0  0  0  0  0  0  0  0  0  0  0  0  # atno 17394 bound_to 11000
  141.1149  133.6631  156.3070 LP  0  0  0  0  0  0  0  0  0  0  0  0  # atno 17395 bound_to 11000

$$$$
