AV-unprocessed.smi:1574|AV-procd|sdf|6338|dock8
  -GOLD-   22720 6553D 1   1.00000     0.00000
 Structure written by MMmdl.
 40 41  0  0  0  0  0  0  0  0  1 V2000
  150.3334  141.9564  156.7064 C   0  0  0  0  0  0  0  0  0  0  0  0
  151.5163  142.0606  157.6824 C   0  0  1  0  0  0  0  0  0  0  0  0
  151.5280  143.4360  158.3807 C   0  0  0  0  0  0  0  0  0  0  0  0
  152.6961  143.5644  159.3708 C   0  0  0  0  0  0  0  0  0  0  0  0
  152.6669  142.4334  160.4081 C   0  0  0  0  0  0  0  0  0  0  0  0
  152.6670  141.0616  159.7207 C   0  0  0  0  0  0  0  0  0  0  0  0
  151.4979  140.9200  158.7245 C   0  0  2  0  0  0  0  0  0  0  0  0
  151.6457  139.6852  158.0371 O   0  0  0  0  0  0  0  0  0  0  0  0
  150.8499  138.6304  158.5578 C   0  0  0  0  0  0  0  0  0  0  0  0
  149.6269  138.4436  157.6494 C   0  0  0  0  0  0  0  0  0  0  0  0
  148.5296  137.8077  158.3708 N   0  0  0  0  0  0  0  0  0  0  0  0
  148.5786  136.5864  158.9255 C   0  0  0  0  0  0  0  0  0  0  0  0
  149.5920  135.8883  158.9398 O   0  0  0  0  0  0  0  0  0  0  0  0
  147.2838  136.0629  159.5468 C   0  0  0  0  0  0  0  0  0  0  0  0
  147.4174  135.9161  160.9845 N   0  0  0  0  0  0  0  0  0  0  0  0
  147.2801  134.8484  161.7731 C   0  0  0  0  0  0  0  0  0  0  0  0
  147.4880  135.1499  163.0459 N   0  0  0  0  0  0  0  0  0  0  0  0
  147.7758  136.5039  163.0055 N   0  0  0  0  0  0  0  0  0  0  0  0
  147.7336  136.9645  161.7855 N   0  0  0  0  0  0  0  0  0  0  0  0
  149.3796  142.0212  157.2309 H   0  0  0  0  0  0  0  0  0  0  0  0
  150.3499  141.0113  156.1631 H   0  0  0  0  0  0  0  0  0  0  0  0
  150.3620  142.7580  155.9679 H   0  0  0  0  0  0  0  0  0  0  0  0
  152.4355  141.9744  157.1007 H   0  0  0  0  0  0  0  0  0  0  0  0
  151.5939  144.2313  157.6373 H   0  0  0  0  0  0  0  0  0  0  0  0
  150.5867  143.5882  158.9107 H   0  0  0  0  0  0  0  0  0  0  0  0
  153.6415  143.5382  158.8275 H   0  0  0  0  0  0  0  0  0  0  0  0
  152.6539  144.5311  159.8735 H   0  0  0  0  0  0  0  0  0  0  0  0
  153.5279  142.5148  161.0722 H   0  0  0  0  0  0  0  0  0  0  0  0
  151.7795  142.5297  161.0348 H   0  0  0  0  0  0  0  0  0  0  0  0
  153.6072  140.9302  159.1860 H   0  0  0  0  0  0  0  0  0  0  0  0
  152.6325  140.2761  160.4754 H   0  0  0  0  0  0  0  0  0  0  0  0
  150.5456  140.9497  159.2587 H   0  0  0  0  0  0  0  0  0  0  0  0
  151.4097  137.6967  158.6244 H   0  0  0  0  0  0  0  0  0  0  0  0
  150.5379  138.8863  159.5709 H   0  0  0  0  0  0  0  0  0  0  0  0
  149.3021  139.4056  157.2499 H   0  0  0  0  0  0  0  0  0  0  0  0
  149.8887  137.8222  156.7925 H   0  0  0  0  0  0  0  0  0  0  0  0
  147.6564  138.3133  158.4058 H   0  0  0  0  0  0  0  0  0  0  0  0
  146.4612  136.7471  159.3330 H   0  0  0  0  0  0  0  0  0  0  0  0
  147.0213  135.0969  159.1134 H   0  0  0  0  0  0  0  0  0  0  0  0
  147.0308  133.8595  161.4183 H   0  0  0  0  0  0  0  0  0  0  0  0
  1  2  1  0  0  0  0
  1 20  1  0  0  0  0
  1 21  1  0  0  0  0
  1 22  1  0  0  0  0
  2  7  1  0  0  0  0
  2  3  1  0  0  0  0
  2 23  1  0  0  0  0
  3  4  1  0  0  0  0
  3 24  1  0  0  0  0
  3 25  1  0  0  0  0
  4  5  1  0  0  0  0
  4 26  1  0  0  0  0
  4 27  1  0  0  0  0
  5  6  1  0  0  0  0
  5 28  1  0  0  0  0
  5 29  1  0  0  0  0
  6  7  1  0  0  0  0
  6 30  1  0  0  0  0
  6 31  1  0  0  0  0
  7  8  1  0  0  0  0
  7 32  1  0  0  0  0
  8  9  1  0  0  0  0
  9 10  1  0  0  0  0
  9 33  1  0  0  0  0
  9 34  1  0  0  0  0
 10 11  1  0  0  0  0
 10 35  1  0  0  0  0
 10 36  1  0  0  0  0
 11 12  1  0  0  0  0
 11 37  1  0  0  0  0
 12 13  2  0  0  0  0
 12 14  1  0  0  0  0
 14 15  1  0  0  0  0
 14 38  1  0  0  0  0
 14 39  1  0  0  0  0
 15 19  1  0  0  0  0
 15 16  1  0  0  0  0
 16 17  2  0  0  0  0
 16 40  1  0  0  0  0
 17 18  1  0  0  0  0
 18 19  2  0  0  0  0
M  END
> <s_m_source_file>
AV-unprocessed.smi

> <i_m_source_file_index>
1574

> <i_lp_mmshare_version>
43012

> <i_f3d_flags>
0

> <s_epik_input>
W0NIM11bQ0BASF0xW0NIMl1bQ0gyXVtDSDJdW0NIMl1bQ0BIXTFPW0NIMl1bQ0gyXVtOSF1DKD1PKVtDSDJdbjJbY0hdbm5uMg==

> <s_epik_cmdline>
J2VwaWtfcHl0aG9uJywgJy1waCcsICc3LjAnLCAnLXRuJywgJzgnLCAnLW1hJywgJzIwMCcsICctbWV0YWxfYmluZGluZycsICctaW1hZScsICc8aW5maWxlLm1hZT4nLCAnLW9tYWUnLCAnPG91dGZpbGUubWFlPic=

> <r_lp_tautomer_probability>
1

> <r_epik_Ionization_Penalty>
1.44269e-06

> <r_epik_Ionization_Penalty_Charging>
0

> <r_epik_Ionization_Penalty_Neutral>
1.44269e-06

> <r_epik_State_Penalty>
-0

> <r_epik_Charging_Adjusted_Penalty>
0

> <i_epik_Tot_Q>
0

> <i_epik_Tot_abs_Q>
0

> <r_epik_Metal_State_Penalty>
-0

> <b_epik_Metal_Only>
0

> <s_lp_Force_Field>
OPLS_2005

> <r_lp_Energy>
11.2802

> <b_lp_Chiralities_Consistent>
1

> <s_lp_Variant>
AV-unprocessed.smi:1574-4

> <Gold.Version>
5.8.1

> <Gold.Id.Protein>
6NUR|6NUR_protein|mol2

> <Gold.PLP.Fitness>
42.1981

> <Gold.PLP.PLP>
-36.5305

> <Gold.PLP.part.hbond>
-3.6386

> <Gold.PLP.part.metal>
0.0000

> <Gold.PLP.part.buried>
-6.7742

> <Gold.PLP.part.nonpolar>
-26.2198

> <Gold.PLP.part.repulsive>
0.1711

> <Gold.PLP.ligand.clash>
0.0000

> <Gold.PLP.ligand.torsion>
0.9994

> <Gold.PLP.Chemscore.Hbond>
2.5250

> <Gold.PLP.Chemscore.CHOScore>
0.0000

> <Gold.PLP.Chemscore.Metal>
0.0000

> <Gold.Chemscore.Hbonds>
donor molecule, donor type, donor heavy atom, donor atom, acceptor molecule, acceptor atom, score
      P1  H  6896  6908       L1    13  1.00
      P1  H  6931  6943       L1    19  0.95
      P1  H  6934  6947       L1    19  0.26

> <Gold.PLP.Chemscore.Internal.Correction>
0.0913

> <Gold.Rescore>
     Score         DG    S(hbond)    S(metal)    S(lipo)     H(rot)  DE(clash)    DE(int)     intcor
     13.33     -14.39       2.09        0.00      80.02       2.90       0.13       0.93       ----

> <Gold.Chemscore.Fitness>
13.3252

> <Gold.Chemscore.DG>
-14.3852

> <Gold.Chemscore.ZeroCoef>
-5.4800

> <Gold.Chemscore.Hbond>
2.0896

> <Gold.Chemscore.Metal>
0.0000

> <Gold.Chemscore.Lipo>
80.0214

> <Gold.Chemscore.Internal_Hbond>
0.0000

> <Gold.Chemscore.DEClash>
0.1335

> <Gold.Chemscore.DEInternal>
0.9265

> <Gold.Chemscore.Rot>
2.9050

> <Gold.Chemscore.Internal.Correction>
   9.000000E+99

> <Gold.Chemscore.Hbonds>
donor molecule, donor type, donor heavy atom, donor atom, acceptor molecule, acceptor atom, score
      P1  H  6896  6908       L1    13  0.98
      P1  H  6931  6943       L1    19  0.21
      P1  H  6934  6947       L1    19  0.23

> <Gold.Chemscore.Hbond.Weighted>
-6.9794

> <Gold.Chemscore.Metal.Weighted>
-0.0000

> <Gold.Chemscore.Lipo.Weighted>
-9.3625

> <Gold.Chemscore.Internal_Hbond.Weighted>
0.0000

> <Gold.Chemscore.DEClash.Weighted>
0.1335

> <Gold.Chemscore.DEInternal.Weighted>
0.9265

> <Gold.Chemscore.Rot.Weighted>
7.4367

> <Gold.Chemscore.Internal.Correction.Weighted>
   9.000000E+99

> <Gold.Protein.RotatedTorsions>
[ 6907 6896 6895 6894 ] final  164.62 input  -60.11 | X-H torsion
[ 7974 7965 7964 7962 ] final   30.11 input  175.53 | X-H torsion
[ 8008 7997 7996 7995 ] final  -85.34 input   59.86 | X-H torsion
[ 10167 10162 10161 10158 ] final  -70.68 input  -65.29 | X-H torsion
[ 10718 10713 10712 10709 ] final   24.04 input   66.30 | X-H torsion
[ 10763 10752 10751 10750 ] final  135.68 input  -60.55 | X-H torsion
[ 11005 11000 10999 10996 ] final   90.86 input  -57.11 | X-H torsion

> <Gold.Protein.ActiveResidues>
 VAL166  LYS551  ARG553  GLY616  TRP617  ASP618  TYR619  PRO620  LYS621  CYS622 
 ASP623  PHE694  ASN695  SER759  ASP760  ASP761  ALA762  ILE779  LEU786  VAL792 
 PHE793  MET794  SER795  GLU796  ALA797  LYS798  CYS799  TRP800  GLU811  SER814 

> <Gold.Protein.RotatedAtoms>
  151.9071  133.3552  159.3850 H   0  0  0  0  0  0  0  0  0  0  0  0  # atno 6907 bound_to 6896
  150.7066  134.4770  159.5461 H   0  0  0  0  0  0  0  0  0  0  0  0  # atno 6908 bound_to 6896
  152.2369  134.8267  160.0517 H   0  0  0  0  0  0  0  0  0  0  0  0  # atno 6909 bound_to 6896
  146.1631  139.6832  142.9020 H   0  0  0  0  0  0  0  0  0  0  0  0  # atno 7974 bound_to 7965
  154.6396  140.0593  156.9830 H   0  0  0  0  0  0  0  0  0  0  0  0  # atno 8008 bound_to 7997
  155.1537  140.3276  155.4407 H   0  0  0  0  0  0  0  0  0  0  0  0  # atno 8009 bound_to 7997
  156.2524  140.1943  156.6648 H   0  0  0  0  0  0  0  0  0  0  0  0  # atno 8010 bound_to 7997
  140.5333  143.2320  151.7222 H   0  0  0  0  0  0  0  0  0  0  0  0  # atno 10167 bound_to 10162
  157.1743  130.6774  149.6089 H   0  0  0  0  0  0  0  0  0  0  0  0  # atno 10718 bound_to 10713
  153.8440  135.3088  155.3428 H   0  0  0  0  0  0  0  0  0  0  0  0  # atno 10763 bound_to 10752
  154.7920  135.4777  154.0078 H   0  0  0  0  0  0  0  0  0  0  0  0  # atno 10764 bound_to 10752
  153.1558  135.6852  153.8906 H   0  0  0  0  0  0  0  0  0  0  0  0  # atno 10765 bound_to 10752
  139.8848  134.8639  156.3345 H   0  0  0  0  0  0  0  0  0  0  0  0  # atno 11005 bound_to 11000
  145.4537  141.0429  143.2790 LP  0  0  0  0  0  0  0  0  0  0  0  0  # atno 17320 bound_to 7965
  144.8055  139.6060  143.7053 LP  0  0  0  0  0  0  0  0  0  0  0  0  # atno 17321 bound_to 7965
  139.4962  144.4080  152.0111 LP  0  0  0  0  0  0  0  0  0  0  0  0  # atno 17342 bound_to 10162
  140.3184  144.3457  150.6016 LP  0  0  0  0  0  0  0  0  0  0  0  0  # atno 17343 bound_to 10162
  155.9733  130.4668  150.6302 LP  0  0  0  0  0  0  0  0  0  0  0  0  # atno 17370 bound_to 10713
  157.4013  131.0810  151.1306 LP  0  0  0  0  0  0  0  0  0  0  0  0  # atno 17371 bound_to 10713
  140.9700  133.7333  156.0521 LP  0  0  0  0  0  0  0  0  0  0  0  0  # atno 17394 bound_to 11000
  140.7882  134.3647  157.5471 LP  0  0  0  0  0  0  0  0  0  0  0  0  # atno 17395 bound_to 11000

$$$$
