AV-unprocessed.smi:265|AV-procd|sdf|2015|dock7
  -GOLD-   2262021213D 1   1.00000     0.00000
 Structure written by MMmdl.
 52 56  0  0  0  0  0  0  0  0  1 V2000
  149.7471  133.6331  156.8861 C   0  0  0  0  0  0  0  0  0  0  0  0
  149.2627  133.3511  155.4561 C   0  0  2  0  0  0  0  0  0  0  0  0
  149.6732  132.0541  155.0301 O   0  0  0  0  0  0  0  0  0  0  0  0
  149.9822  132.0670  153.6391 C   0  0  0  0  0  0  0  0  0  0  0  0
  149.5426  133.4371  153.1326 C   0  0  0  0  0  0  0  0  0  0  0  0
  149.7424  134.3204  154.3583 C   0  0  1  0  0  0  0  0  0  0  0  0
  148.8716  135.4330  154.2723 O   0  0  0  0  0  0  0  0  0  0  0  0
  151.2013  134.8188  154.5441 C   0  0  0  0  0  0  0  0  0  0  0  0
  151.3231  135.9665  155.4300 N   0  0  0  0  0  0  0  0  0  0  0  0
  151.6565  135.9501  156.7654 C   0  0  0  0  0  0  0  0  0  0  0  0
  151.7053  137.1204  157.3414 N   0  0  0  0  0  0  0  0  0  0  0  0
  151.3835  138.0132  156.3258 C   0  0  0  0  0  0  0  0  0  0  0  0
  151.2600  139.4297  156.2521 C   0  0  0  0  0  0  0  0  0  0  0  0
  151.4460  140.2401  157.3250 N   0  0  0  0  0  0  0  0  0  0  0  0
  152.7130  140.1172  158.0546 C   0  0  0  0  0  0  0  0  0  0  0  0
  152.6470  140.8323  159.4171 C   0  0  0  0  0  0  0  0  0  0  0  0
  152.2000  142.2864  159.2216 C   0  0  2  0  0  0  0  0  0  0  0  0
  152.0291  142.9621  160.4583 O   0  0  0  0  0  0  0  0  0  0  0  0
  151.7664  144.3617  160.3086 C   0  0  0  0  0  0  0  0  0  0  0  0
  150.6845  144.6575  159.2478 C   0  0  0  0  0  0  0  0  0  0  0  0
  150.1819  145.7767  159.1821 O   0  0  0  0  0  0  0  0  0  0  0  0
  150.3525  143.6784  158.3904 N   0  0  0  0  0  0  0  0  0  0  0  0
  150.8357  142.3098  158.5149 C   0  0  1  0  0  0  0  0  0  0  0  0
  150.9372  141.6032  157.1537 C   0  0  0  0  0  0  0  0  0  0  0  0
  150.9413  139.9671  155.0438 N   0  0  0  0  0  0  0  0  0  0  0  0
  150.7468  139.1778  153.9832 C   0  0  0  0  0  0  0  0  0  0  0  0
  150.8221  137.8480  153.9083 N   0  0  0  0  0  0  0  0  0  0  0  0
  151.1496  137.3027  155.1144 C   0  0  0  0  0  0  0  0  0  0  0  0
  152.9526  142.8076  158.6257 H   0  0  0  0  0  0  0  0  0  0  0  0
  150.1077  141.7758  159.1284 H   0  0  0  0  0  0  0  0  0  0  0  0
  149.4630  134.6358  157.2058 H   0  0  0  0  0  0  0  0  0  0  0  0
  150.8299  133.5431  156.9723 H   0  0  0  0  0  0  0  0  0  0  0  0
  149.3062  132.9246  157.5876 H   0  0  0  0  0  0  0  0  0  0  0  0
  148.1710  133.3357  155.4582 H   0  0  0  0  0  0  0  0  0  0  0  0
  151.0585  131.9395  153.5193 H   0  0  0  0  0  0  0  0  0  0  0  0
  149.4852  131.2521  153.1128 H   0  0  0  0  0  0  0  0  0  0  0  0
  150.0811  133.7589  152.2418 H   0  0  0  0  0  0  0  0  0  0  0  0
  148.4842  133.3915  152.8693 H   0  0  0  0  0  0  0  0  0  0  0  0
  148.7321  135.6340  153.3594 H   0  0  0  0  0  0  0  0  0  0  0  0
  151.8293  134.0206  154.9418 H   0  0  0  0  0  0  0  0  0  0  0  0
  151.6334  135.0899  153.5802 H   0  0  0  0  0  0  0  0  0  0  0  0
  151.8626  135.0362  157.3034 H   0  0  0  0  0  0  0  0  0  0  0  0
  152.9524  139.0643  158.2103 H   0  0  0  0  0  0  0  0  0  0  0  0
  153.5161  140.5445  157.4525 H   0  0  0  0  0  0  0  0  0  0  0  0
  151.9467  140.3128  160.0726 H   0  0  0  0  0  0  0  0  0  0  0  0
  153.6199  140.7977  159.9078 H   0  0  0  0  0  0  0  0  0  0  0  0
  151.4609  144.7709  161.2718 H   0  0  0  0  0  0  0  0  0  0  0  0
  152.6869  144.8705  160.0198 H   0  0  0  0  0  0  0  0  0  0  0  0
  149.6711  143.8729  157.6711 H   0  0  0  0  0  0  0  0  0  0  0  0
  151.6133  142.1501  156.4950 H   0  0  0  0  0  0  0  0  0  0  0  0
  149.9602  141.6039  156.6713 H   0  0  0  0  0  0  0  0  0  0  0  0
  150.4960  139.6843  153.0628 H   0  0  0  0  0  0  0  0  0  0  0  0
  1  2  1  0  0  0  0
  1 31  1  0  0  0  0
  1 32  1  0  0  0  0
  1 33  1  0  0  0  0
  2  6  1  0  0  0  0
  2  3  1  0  0  0  0
  2 34  1  0  0  0  0
  3  4  1  0  0  0  0
  4  5  1  0  0  0  0
  4 35  1  0  0  0  0
  4 36  1  0  0  0  0
  5  6  1  0  0  0  0
  5 37  1  0  0  0  0
  5 38  1  0  0  0  0
  6  7  1  0  0  0  0
  6  8  1  0  0  0  0
  7 39  1  0  0  0  0
  8  9  1  0  0  0  0
  8 40  1  0  0  0  0
  8 41  1  0  0  0  0
  9 28  1  0  0  0  0
  9 10  1  0  0  0  0
 10 11  2  0  0  0  0
 10 42  1  0  0  0  0
 11 12  1  0  0  0  0
 12 28  2  0  0  0  0
 12 13  1  0  0  0  0
 13 14  1  0  0  0  0
 13 25  2  0  0  0  0
 14 24  1  0  0  0  0
 14 15  1  0  0  0  0
 15 16  1  0  0  0  0
 15 43  1  0  0  0  0
 15 44  1  0  0  0  0
 16 17  1  0  0  0  0
 16 45  1  0  0  0  0
 16 46  1  0  0  0  0
 17 29  1  0  0  0  0
 17 23  1  0  0  0  0
 17 18  1  0  0  0  0
 18 19  1  0  0  0  0
 19 20  1  0  0  0  0
 19 47  1  0  0  0  0
 19 48  1  0  0  0  0
 20 21  2  0  0  0  0
 20 22  1  0  0  0  0
 22 23  1  0  0  0  0
 22 49  1  0  0  0  0
 23 30  1  0  0  0  0
 23 24  1  0  0  0  0
 24 50  1  0  0  0  0
 24 51  1  0  0  0  0
 25 26  1  0  0  0  0
 26 27  2  0  0  0  0
 26 52  1  0  0  0  0
 27 28  1  0  0  0  0
M  END
> <s_m_source_file>
AV-unprocessed.smi

> <i_m_source_file_index>
265

> <i_lp_mmshare_version>
43012

> <i_f3d_flags>
0

> <s_epik_input>
W0NIMl0xW0NIMl1PW0NAQEhdKFtDSDNdKVtDQEBdMShbT0hdKVtDSDJdbihbY0hdbjIpYyhjMjMpbltjSF1uYzNOKFtDSDJdW0NIMl00KVtDSDJdW0NAQEhdKFtDQEhdNDUpW05IXUMoPU8pW0NIMl1PNQ==

> <s_epik_cmdline>
J2VwaWtfcHl0aG9uJywgJy1waCcsICc3LjAnLCAnLXRuJywgJzgnLCAnLW1hJywgJzIwMCcsICctbWV0YWxfYmluZGluZycsICctaW1hZScsICc8aW5maWxlLm1hZT4nLCAnLW9tYWUnLCAnPG91dGZpbGUubWFlPic=

> <r_lp_tautomer_probability>
1

> <r_epik_Ionization_Penalty>
0.00221504

> <r_epik_Ionization_Penalty_Charging>
0

> <r_epik_Ionization_Penalty_Neutral>
0.00221504

> <r_epik_State_Penalty>
-0

> <r_epik_Charging_Adjusted_Penalty>
0

> <i_epik_Tot_Q>
0

> <i_epik_Tot_abs_Q>
0

> <r_epik_Metal_State_Penalty>
-0

> <b_epik_Metal_Only>
0

> <s_lp_Force_Field>
OPLS_2005

> <r_lp_Energy>
45.3858

> <b_lp_Chiralities_Consistent>
1

> <s_lp_Variant>
AV-unprocessed.smi:265-1

> <Gold.Version>
5.8.1

> <Gold.Id.Protein>
6NUR|6NUR_protein|mol2

> <Gold.PLP.Fitness>
43.4919

> <Gold.PLP.PLP>
-37.1455

> <Gold.PLP.part.hbond>
-4.3508

> <Gold.PLP.part.metal>
0.0000

> <Gold.PLP.part.buried>
-2.2533

> <Gold.PLP.part.nonpolar>
-30.7682

> <Gold.PLP.part.repulsive>
0.8031

> <Gold.PLP.ligand.clash>
0.0000

> <Gold.PLP.ligand.torsion>
0.8671

> <Gold.PLP.Chemscore.Hbond>
1.5525

> <Gold.PLP.Chemscore.CHOScore>
1.0000

> <Gold.PLP.Chemscore.Metal>
0.0000

> <Gold.Chemscore.Hbonds>
donor molecule, donor type, donor heavy atom, donor atom, acceptor molecule, acceptor atom, score
      L1  H     7    39       P1  7948  1.00
      L1  H    22    49       P1  8028  0.34
      L1  C    26    52       P1  7957  1.00

> <Gold.PLP.Chemscore.Internal.Correction>
0.4232

> <Gold.Rescore>
     Score         DG    S(hbond)    S(metal)    S(lipo)     H(rot)  DE(clash)    DE(int)     intcor
      8.33     -13.61       1.24        0.00      83.14       2.25       3.28       1.99       ----

> <Gold.Chemscore.Fitness>
8.3334

> <Gold.Chemscore.DG>
-13.6068

> <Gold.Chemscore.ZeroCoef>
-5.4800

> <Gold.Chemscore.Hbond>
1.2418

> <Gold.Chemscore.Metal>
0.0000

> <Gold.Chemscore.Lipo>
83.1361

> <Gold.Chemscore.Internal_Hbond>
0.0000

> <Gold.Chemscore.DEClash>
3.2793

> <Gold.Chemscore.DEInternal>
1.9940

> <Gold.Chemscore.Rot>
2.2453

> <Gold.Chemscore.Internal.Correction>
   9.000000E+99

> <Gold.Chemscore.Hbonds>
donor molecule, donor type, donor heavy atom, donor atom, acceptor molecule, acceptor atom, score
      L1  H     7    39       P1  7948  0.94
      L1  H    22    49       P1  8028  0.13

> <Gold.Chemscore.Hbond.Weighted>
-4.1478

> <Gold.Chemscore.Metal.Weighted>
-0.0000

> <Gold.Chemscore.Lipo.Weighted>
-9.7269

> <Gold.Chemscore.Internal_Hbond.Weighted>
0.0000

> <Gold.Chemscore.DEClash.Weighted>
3.2793

> <Gold.Chemscore.DEInternal.Weighted>
1.9940

> <Gold.Chemscore.Rot.Weighted>
5.7479

> <Gold.Chemscore.Internal.Correction.Weighted>
   9.000000E+99

> <Gold.Protein.RotatedTorsions>
[ 6907 6896 6895 6894 ] final  159.69 input  -60.11 | X-H torsion
[ 7974 7965 7964 7962 ] final  163.53 input  175.53 | X-H torsion
[ 8008 7997 7996 7995 ] final  157.38 input   59.86 | X-H torsion
[ 10167 10162 10161 10158 ] final   55.91 input  -65.29 | X-H torsion
[ 10718 10713 10712 10709 ] final   19.53 input   66.30 | X-H torsion
[ 10763 10752 10751 10750 ] final  156.41 input  -60.55 | X-H torsion
[ 11005 11000 10999 10996 ] final   83.41 input  -57.11 | X-H torsion

> <Gold.Protein.ActiveResidues>
 VAL166  LYS551  ARG553  GLY616  TRP617  ASP618  TYR619  PRO620  LYS621  CYS622 
 ASP623  PHE694  ASN695  SER759  ASP760  ASP761  ALA762  ILE779  LEU786  VAL792 
 PHE793  MET794  SER795  GLU796  ALA797  LYS798  CYS799  TRP800  GLU811  SER814 

> <Gold.Protein.RotatedAtoms>
  151.9818  133.3760  159.4110 H   0  0  0  0  0  0  0  0  0  0  0  0  # atno 6907 bound_to 6896
  150.6934  134.4031  159.5137 H   0  0  0  0  0  0  0  0  0  0  0  0  # atno 6908 bound_to 6896
  152.1751  134.8801  160.0582 H   0  0  0  0  0  0  0  0  0  0  0  0  # atno 6909 bound_to 6896
  144.7586  139.8195  143.6341 H   0  0  0  0  0  0  0  0  0  0  0  0  # atno 7974 bound_to 7965
  156.2367  140.1887  156.7100 H   0  0  0  0  0  0  0  0  0  0  0  0  # atno 8008 bound_to 7997
  154.6120  140.0620  156.9532 H   0  0  0  0  0  0  0  0  0  0  0  0  # atno 8009 bound_to 7997
  155.2001  140.3291  155.4347 H   0  0  0  0  0  0  0  0  0  0  0  0  # atno 8010 bound_to 7997
  140.2144  144.3855  150.6475 H   0  0  0  0  0  0  0  0  0  0  0  0  # atno 10167 bound_to 10162
  157.1118  130.6512  149.5899 H   0  0  0  0  0  0  0  0  0  0  0  0  # atno 10718 bound_to 10713
  154.1839  135.2798  155.3043 H   0  0  0  0  0  0  0  0  0  0  0  0  # atno 10763 bound_to 10752
  154.5981  135.5538  153.7349 H   0  0  0  0  0  0  0  0  0  0  0  0  # atno 10764 bound_to 10752
  153.0130  135.6385  154.1978 H   0  0  0  0  0  0  0  0  0  0  0  0  # atno 10765 bound_to 10752
  139.9032  134.8142  156.2305 H   0  0  0  0  0  0  0  0  0  0  0  0  # atno 11005 bound_to 11000
  146.1624  139.4743  142.9980 LP  0  0  0  0  0  0  0  0  0  0  0  0  # atno 17320 bound_to 7965
  145.6696  141.0220  143.1665 LP  0  0  0  0  0  0  0  0  0  0  0  0  # atno 17321 bound_to 7965
  140.6300  143.2186  151.6515 LP  0  0  0  0  0  0  0  0  0  0  0  0  # atno 17342 bound_to 10162
  139.5167  144.3337  152.0803 LP  0  0  0  0  0  0  0  0  0  0  0  0  # atno 17343 bound_to 10162
  155.9849  130.4876  150.7004 LP  0  0  0  0  0  0  0  0  0  0  0  0  # atno 17370 bound_to 10713
  157.4552  131.0877  151.0804 LP  0  0  0  0  0  0  0  0  0  0  0  0  # atno 17371 bound_to 10713
  141.0348  133.6969  156.1494 LP  0  0  0  0  0  0  0  0  0  0  0  0  # atno 17394 bound_to 11000
  140.7042  134.4531  157.5585 LP  0  0  0  0  0  0  0  0  0  0  0  0  # atno 17395 bound_to 11000

$$$$
