AV-unprocessed.smi:1760|AV-procd|sdf|7092|dock6
  -GOLD-   22720 8313D 1   1.00000     0.00000
 Structure written by MMmdl.
 43 45  0  0  0  0  0  0  0  0  3 V2000
  149.2302  134.5631  155.9477 O   0  0  0  0  0  0  0  0  0  0  0  0
  149.1086  135.0083  154.8068 C   0  0  0  0  0  0  0  0  0  0  0  0
  149.4585  136.2411  154.3978 N   0  0  0  0  0  0  0  0  0  0  0  0
  150.0621  137.2843  155.1205 C   0  0  0  0  0  0  0  0  0  0  0  0
  149.5618  138.5464  155.2301 C   0  0  0  0  0  0  0  0  0  0  0  0
  150.2307  139.5838  156.0058 C   0  0  0  0  0  0  0  0  0  0  0  0
  149.7285  141.0094  156.1420 C   0  0  0  0  0  0  0  0  0  0  0  0
  149.5597  141.5542  154.9376 F   0  0  0  0  0  0  0  0  0  0  0  0
  148.5535  141.0269  156.7703 F   0  0  0  0  0  0  0  0  0  0  0  0
  150.5850  141.7650  156.8293 F   0  0  0  0  0  0  0  0  0  0  0  0
  151.3915  139.1306  156.5996 C   0  0  0  0  0  0  0  0  0  0  0  0
  151.9469  137.8999  156.5530 N   0  5  0  0  0  0  0  0  0  0  0  0
  151.3152  136.9375  155.8233 C   0  0  0  0  0  0  0  0  0  0  0  0
  151.7648  135.7939  155.7387 O   0  0  0  0  0  0  0  0  0  0  0  0
  148.5768  134.3076  153.7945 N   0  0  0  0  0  0  0  0  0  0  0  0
  148.0671  132.9412  153.8731 C   0  0  2  0  0  0  0  0  0  0  0  0
  149.2376  131.9442  153.8983 C   0  0  0  0  0  0  0  0  0  0  0  0
  148.7302  130.4929  153.8616 C   0  0  0  0  0  0  0  0  0  0  0  0
  147.8665  130.2608  152.6773 N   0  3  1  0  0  0  0  0  0  0  0  0
  147.4594  128.8445  152.5524 C   0  0  0  0  0  0  0  0  0  0  0  0
  146.2459  128.6356  151.6766 C   0  0  0  0  0  0  0  0  0  0  0  0
  146.1192  128.5410  153.1808 C   0  0  0  0  0  0  0  0  0  0  0  0
  146.7022  131.1810  152.6574 C   0  0  0  0  0  0  0  0  0  0  0  0
  147.1587  132.6495  152.6669 C   0  0  0  0  0  0  0  0  0  0  0  0
  149.2288  136.4806  153.4443 H   0  0  0  0  0  0  0  0  0  0  0  0
  148.6336  138.8152  154.7539 H   0  0  0  0  0  0  0  0  0  0  0  0
  151.9578  139.8715  157.2033 H   0  0  0  0  0  0  0  0  0  0  0  0
  148.5159  134.7628  152.8954 H   0  0  0  0  0  0  0  0  0  0  0  0
  147.4813  132.8016  154.7836 H   0  0  0  0  0  0  0  0  0  0  0  0
  149.8949  132.1194  153.0451 H   0  0  0  0  0  0  0  0  0  0  0  0
  149.8430  132.1009  154.7920 H   0  0  0  0  0  0  0  0  0  0  0  0
  149.5810  129.8111  153.8345 H   0  0  0  0  0  0  0  0  0  0  0  0
  148.1718  130.2659  154.7713 H   0  0  0  0  0  0  0  0  0  0  0  0
  148.2597  128.1068  152.5728 H   0  0  0  0  0  0  0  0  0  0  0  0
  145.8044  129.5034  151.1899 H   0  0  0  0  0  0  0  0  0  0  0  0
  146.1877  127.7068  151.1125 H   0  0  0  0  0  0  0  0  0  0  0  0
  145.9774  127.5502  153.6077 H   0  0  0  0  0  0  0  0  0  0  0  0
  145.5937  129.3463  153.6910 H   0  0  0  0  0  0  0  0  0  0  0  0
  146.1015  130.9924  151.7669 H   0  0  0  0  0  0  0  0  0  0  0  0
  146.0632  130.9799  153.5189 H   0  0  0  0  0  0  0  0  0  0  0  0
  146.2881  133.3063  152.6872 H   0  0  0  0  0  0  0  0  0  0  0  0
  147.6898  132.8687  151.7394 H   0  0  0  0  0  0  0  0  0  0  0  0
  148.4234  130.4751  151.8623 H   0  0  0  0  0  0  0  0  0  0  0  0
  1  2  2  0  0  0  0
  2  3  1  0  0  0  0
  2 15  1  0  0  0  0
  3  4  1  0  0  0  0
  3 25  1  0  0  0  0
  4 13  1  0  0  0  0
  4  5  2  0  0  0  0
  5  6  1  0  0  0  0
  5 26  1  0  0  0  0
  6  7  1  0  0  0  0
  6 11  2  0  0  0  0
  7  8  1  0  0  0  0
  7  9  1  0  0  0  0
  7 10  1  0  0  0  0
 11 12  1  0  0  0  0
 11 27  1  0  0  0  0
 12 13  1  0  0  0  0
 13 14  2  0  0  0  0
 15 16  1  0  0  0  0
 15 28  1  0  0  0  0
 16 24  1  0  0  0  0
 16 17  1  0  0  0  0
 16 29  1  0  0  0  0
 17 18  1  0  0  0  0
 17 30  1  0  0  0  0
 17 31  1  0  0  0  0
 18 19  1  0  0  0  0
 18 32  1  0  0  0  0
 18 33  1  0  0  0  0
 19 20  1  0  0  0  0
 19 23  1  0  0  0  0
 19 43  1  0  0  0  0
 20 22  1  0  0  0  0
 20 21  1  0  0  0  0
 20 34  1  0  0  0  0
 21 22  1  0  0  0  0
 21 35  1  0  0  0  0
 21 36  1  0  0  0  0
 22 37  1  0  0  0  0
 22 38  1  0  0  0  0
 23 24  1  0  0  0  0
 23 39  1  0  0  0  0
 23 40  1  0  0  0  0
 24 41  1  0  0  0  0
 24 42  1  0  0  0  0
M  CHG  1  12  -1
M  CHG  1  19   1
M  END
> <s_m_source_file>
AV-unprocessed.smi

> <i_m_source_file_index>
1760

> <i_lp_mmshare_version>
43012

> <i_f3d_flags>
0

> <s_epik_input>
W0NIMl0xW0NIMl1bQ0hdMU4oW0NIMl1bQ0gyXTIpW0NIMl1bQ0gyXVtDSF0yW05IXUMoPU8pW05IXWMzW2NIXWMoQyhGKShGKUYpW2NIXVtuSF1jMz1P

> <s_epik_cmdline>
J2VwaWtfcHl0aG9uJywgJy1waCcsICc3LjAnLCAnLXRuJywgJzgnLCAnLW1hJywgJzIwMCcsICctbWV0YWxfYmluZGluZycsICctaW1hZScsICc8aW5maWxlLm1hZT4nLCAnLW9tYWUnLCAnPG91dGZpbGUubWFlPic=

> <r_lp_tautomer_probability>
0.999

> <r_epik_Ionization_Penalty>
3.16043

> <r_epik_Ionization_Penalty_Charging>
0.268029

> <r_epik_Ionization_Penalty_Neutral>
2.8924

> <r_epik_State_Penalty>
3.0039

> <r_epik_Charging_Adjusted_Penalty>
3.27193

> <i_epik_Tot_Q>
0

> <i_epik_Tot_abs_Q>
2

> <r_epik_Metal_State_Penalty>
0.560618

> <b_epik_Metal_Only>
1

> <s_lp_Force_Field>
OPLS_2005

> <r_lp_Energy>
39.9714

> <b_lp_Chiralities_Consistent>
1

> <s_lp_Variant>
AV-unprocessed.smi:1760-4

> <Gold.Version>
5.8.1

> <Gold.Id.Protein>
6NUR|6NUR_protein|mol2

> <Gold.PLP.Fitness>
46.5275

> <Gold.PLP.PLP>
-36.1311

> <Gold.PLP.part.hbond>
-4.0000

> <Gold.PLP.part.metal>
0.0000

> <Gold.PLP.part.buried>
-3.1596

> <Gold.PLP.part.nonpolar>
-29.6201

> <Gold.PLP.part.repulsive>
0.1148

> <Gold.PLP.ligand.clash>
0.0000

> <Gold.PLP.ligand.torsion>
1.4040

> <Gold.PLP.Chemscore.Hbond>
3.9760

> <Gold.PLP.Chemscore.CHOScore>
0.0000

> <Gold.PLP.Chemscore.Metal>
0.0000

> <Gold.Chemscore.Hbonds>
donor molecule, donor type, donor heavy atom, donor atom, acceptor molecule, acceptor atom, score
      L1  H     3    25       P1  7948  1.00
      L1  H    15    28       P1  7948  0.96
      L1  H    19    43       P1 10747  1.00
      P1  H 10752 10764       L1    14  1.00

> <Gold.PLP.Chemscore.Internal.Correction>
1.2764

> <Gold.Rescore>
     Score         DG    S(hbond)    S(metal)    S(lipo)     H(rot)  DE(clash)    DE(int)     intcor
     19.27     -23.13       3.72        0.00      72.49       1.28       0.07       3.79       ----

> <Gold.Chemscore.Fitness>
19.2743

> <Gold.Chemscore.DG>
-23.1261

> <Gold.Chemscore.ZeroCoef>
-5.4800

> <Gold.Chemscore.Hbond>
3.7241

> <Gold.Chemscore.Metal>
0.0000

> <Gold.Chemscore.Lipo>
72.4893

> <Gold.Chemscore.Internal_Hbond>
0.0000

> <Gold.Chemscore.DEClash>
0.0652

> <Gold.Chemscore.DEInternal>
3.7867

> <Gold.Chemscore.Rot>
1.2787

> <Gold.Chemscore.Internal.Correction>
   9.000000E+99

> <Gold.Chemscore.Hbonds>
donor molecule, donor type, donor heavy atom, donor atom, acceptor molecule, acceptor atom, score
      L1  H     3    25       P1  7948  0.92
      L1  H    15    28       P1  7948  0.32
      L1  H    19    43       P1 10747  0.91
      P1  H 10752 10764       L1    14  0.94

> <Gold.Chemscore.Hbond.Weighted>
-12.4384

> <Gold.Chemscore.Metal.Weighted>
-0.0000

> <Gold.Chemscore.Lipo.Weighted>
-8.4812

> <Gold.Chemscore.Internal_Hbond.Weighted>
0.0000

> <Gold.Chemscore.DEClash.Weighted>
0.0652

> <Gold.Chemscore.DEInternal.Weighted>
3.7867

> <Gold.Chemscore.Rot.Weighted>
3.2735

> <Gold.Chemscore.Internal.Correction.Weighted>
   9.000000E+99

> <Gold.Protein.RotatedTorsions>
[ 6907 6896 6895 6894 ] final  -12.08 input  -60.11 | X-H torsion
[ 7974 7965 7964 7962 ] final -140.59 input  175.53 | X-H torsion
[ 8008 7997 7996 7995 ] final -104.56 input   59.86 | X-H torsion
[ 10167 10162 10161 10158 ] final   77.08 input  -65.29 | X-H torsion
[ 10718 10713 10712 10709 ] final   53.64 input   66.30 | X-H torsion
[ 10763 10752 10751 10750 ] final  -34.09 input  -60.55 | X-H torsion
[ 11005 11000 10999 10996 ] final   23.72 input  -57.11 | X-H torsion

> <Gold.Protein.ActiveResidues>
 VAL166  LYS551  ARG553  GLY616  TRP617  ASP618  TYR619  PRO620  LYS621  CYS622 
 ASP623  PHE694  ASN695  SER759  ASP760  ASP761  ALA762  ILE779  LEU786  VAL792 
 PHE793  MET794  SER795  GLU796  ALA797  LYS798  CYS799  TRP800  GLU811  SER814 

> <Gold.Protein.RotatedAtoms>
  151.3762  135.0931  159.9481 H   0  0  0  0  0  0  0  0  0  0  0  0  # atno 6907 bound_to 6896
  152.5121  133.9117  159.7501 H   0  0  0  0  0  0  0  0  0  0  0  0  # atno 6908 bound_to 6896
  150.9540  133.6462  159.2795 H   0  0  0  0  0  0  0  0  0  0  0  0  # atno 6909 bound_to 6896
  144.8585  140.6182  143.5343 H   0  0  0  0  0  0  0  0  0  0  0  0  # atno 7974 bound_to 7965
  154.8870  140.0417  157.1816 H   0  0  0  0  0  0  0  0  0  0  0  0  # atno 8008 bound_to 7997
  154.8580  140.2939  155.5536 H   0  0  0  0  0  0  0  0  0  0  0  0  # atno 8009 bound_to 7997
  156.2998  140.2452  156.3549 H   0  0  0  0  0  0  0  0  0  0  0  0  # atno 8010 bound_to 7997
  139.9854  144.5796  150.7864 H   0  0  0  0  0  0  0  0  0  0  0  0  # atno 10167 bound_to 10162
  157.5185  130.8549  149.8527 H   0  0  0  0  0  0  0  0  0  0  0  0  # atno 10718 bound_to 10713
  153.8409  135.6857  153.4803 H   0  0  0  0  0  0  0  0  0  0  0  0  # atno 10763 bound_to 10752
  153.1454  135.4640  154.9556 H   0  0  0  0  0  0  0  0  0  0  0  0  # atno 10764 bound_to 10752
  154.7845  135.3280  154.7863 H   0  0  0  0  0  0  0  0  0  0  0  0  # atno 10765 bound_to 10752
  140.3665  134.2069  155.7669 H   0  0  0  0  0  0  0  0  0  0  0  0  # atno 11005 bound_to 11000
  145.4358  139.1542  143.3997 LP  0  0  0  0  0  0  0  0  0  0  0  0  # atno 17320 bound_to 7965
  146.2842  140.4476  142.8764 LP  0  0  0  0  0  0  0  0  0  0  0  0  # atno 17321 bound_to 7965
  140.7474  143.2906  151.3342 LP  0  0  0  0  0  0  0  0  0  0  0  0  # atno 17342 bound_to 10162
  139.6379  144.0595  152.2530 LP  0  0  0  0  0  0  0  0  0  0  0  0  # atno 17343 bound_to 10162
  156.0337  130.3757  150.1618 LP  0  0  0  0  0  0  0  0  0  0  0  0  # atno 17370 bound_to 10713
  156.9807  130.9863  151.3438 LP  0  0  0  0  0  0  0  0  0  0  0  0  # atno 17371 bound_to 10713
  141.1968  133.8074  157.0656 LP  0  0  0  0  0  0  0  0  0  0  0  0  # atno 17394 bound_to 11000
  140.0585  134.9767  157.1263 LP  0  0  0  0  0  0  0  0  0  0  0  0  # atno 17395 bound_to 11000

$$$$
