AV-unprocessed.smi:104|AV-procd|sdf|1002|dock6
  -GOLD-   2262017593D 1   1.00000     0.00000
 Structure written by MMmdl.
 47 49  0  0  0  0  0  0  0  0  1 V2000
  143.2395  134.8502  163.2601 C   0  0  0  0  0  0  0  0  0  0  0  0
  143.9636  134.0465  162.1884 C   0  0  0  0  0  0  0  0  0  0  0  0
  143.6685  134.1474  160.9975 O   0  0  0  0  0  0  0  0  0  0  0  0
  144.9174  133.2577  162.7008 O   0  0  0  0  0  0  0  0  0  0  0  0
  145.5958  132.3364  161.8625 C   0  0  0  0  0  0  0  0  0  0  0  0
  146.9390  132.9213  161.4043 C   0  0  1  0  0  0  0  0  0  0  0  0
  147.3363  132.3694  160.1603 O   0  0  0  0  0  0  0  0  0  0  0  0
  148.2666  133.2193  159.5663 C   0  0  1  0  0  0  0  0  0  0  0  0
  147.9900  133.2355  158.0929 N   0  0  0  0  0  0  0  0  0  0  0  0
  146.8296  133.5640  157.4294 C   0  0  0  0  0  0  0  0  0  0  0  0
  145.2417  134.0821  158.3443 Br  0  0  0  0  0  0  0  0  0  0  0  0
  146.8469  133.4919  156.1277 N   0  0  0  0  0  0  0  0  0  0  0  0
  148.1425  133.0668  155.8619 C   0  0  0  0  0  0  0  0  0  0  0  0
  148.8584  132.7704  154.6745 C   0  0  0  0  0  0  0  0  0  0  0  0
  148.3207  132.8747  153.4513 N   0  0  0  0  0  0  0  0  0  0  0  0
  150.1438  132.3595  154.7789 N   0  0  0  0  0  0  0  0  0  0  0  0
  150.7029  132.2443  155.9878 C   0  0  0  0  0  0  0  0  0  0  0  0
  150.1626  132.4870  157.1846 N   0  0  0  0  0  0  0  0  0  0  0  0
  148.8666  132.9034  157.0787 C   0  0  0  0  0  0  0  0  0  0  0  0
  148.1301  134.6146  160.2199 C   0  0  1  0  0  0  0  0  0  0  0  0
  147.8678  135.6400  159.2662 O   0  0  0  0  0  0  0  0  0  0  0  0
  148.7668  135.9318  158.3138 C   0  0  0  0  0  0  0  0  0  0  0  0
  148.3500  137.1333  157.4769 C   0  0  0  0  0  0  0  0  0  0  0  0
  149.8203  135.3317  158.1011 O   0  0  0  0  0  0  0  0  0  0  0  0
  146.9558  134.4337  161.1731 C   0  0  2  0  0  0  0  0  0  0  0  0
  147.2073  135.1426  162.3792 O   0  0  0  0  0  0  0  0  0  0  0  0
  147.4637  136.4613  162.3484 C   0  0  0  0  0  0  0  0  0  0  0  0
  147.7333  137.0305  163.7346 C   0  0  0  0  0  0  0  0  0  0  0  0
  147.4863  137.1740  161.3448 O   0  0  0  0  0  0  0  0  0  0  0  0
  142.8079  134.1836  164.0068 H   0  0  0  0  0  0  0  0  0  0  0  0
  142.4373  135.4422  162.8196 H   0  0  0  0  0  0  0  0  0  0  0  0
  143.9345  135.5263  163.7578 H   0  0  0  0  0  0  0  0  0  0  0  0
  145.7708  131.4080  162.4081 H   0  0  0  0  0  0  0  0  0  0  0  0
  144.9749  132.0946  160.9990 H   0  0  0  0  0  0  0  0  0  0  0  0
  147.7105  132.6572  162.1300 H   0  0  0  0  0  0  0  0  0  0  0  0
  149.2682  132.8041  159.6711 H   0  0  0  0  0  0  0  0  0  0  0  0
  147.3625  133.1767  153.3469 H   0  0  0  0  0  0  0  0  0  0  0  0
  148.8742  132.6533  152.6363 H   0  0  0  0  0  0  0  0  0  0  0  0
  151.7288  131.9072  155.9978 H   0  0  0  0  0  0  0  0  0  0  0  0
  149.0547  134.8026  160.7682 H   0  0  0  0  0  0  0  0  0  0  0  0
  147.4730  136.8900  156.8771 H   0  0  0  0  0  0  0  0  0  0  0  0
  149.1562  137.4324  156.8067 H   0  0  0  0  0  0  0  0  0  0  0  0
  148.1058  137.9779  158.1217 H   0  0  0  0  0  0  0  0  0  0  0  0
  146.0407  134.7598  160.6764 H   0  0  0  0  0  0  0  0  0  0  0  0
  146.8293  136.9905  164.3421 H   0  0  0  0  0  0  0  0  0  0  0  0
  148.0582  138.0689  163.6657 H   0  0  0  0  0  0  0  0  0  0  0  0
  148.5136  136.4569  164.2350 H   0  0  0  0  0  0  0  0  0  0  0  0
  1  2  1  0  0  0  0
  1 30  1  0  0  0  0
  1 31  1  0  0  0  0
  1 32  1  0  0  0  0
  2  3  2  0  0  0  0
  2  4  1  0  0  0  0
  4  5  1  0  0  0  0
  5  6  1  0  0  0  0
  5 33  1  0  0  0  0
  5 34  1  0  0  0  0
  6 25  1  0  0  0  0
  6  7  1  0  0  0  0
  6 35  1  0  0  0  0
  7  8  1  0  0  0  0
  8  9  1  0  0  0  0
  8 20  1  0  0  0  0
  8 36  1  0  0  0  0
  9 19  1  0  0  0  0
  9 10  1  0  0  0  0
 10 11  1  0  0  0  0
 10 12  2  0  0  0  0
 12 13  1  0  0  0  0
 13 19  2  0  0  0  0
 13 14  1  0  0  0  0
 14 15  1  0  0  0  0
 14 16  2  0  0  0  0
 15 37  1  0  0  0  0
 15 38  1  0  0  0  0
 16 17  1  0  0  0  0
 17 18  2  0  0  0  0
 17 39  1  0  0  0  0
 18 19  1  0  0  0  0
 20 21  1  0  0  0  0
 20 25  1  0  0  0  0
 20 40  1  0  0  0  0
 21 22  1  0  0  0  0
 22 23  1  0  0  0  0
 22 24  2  0  0  0  0
 23 41  1  0  0  0  0
 23 42  1  0  0  0  0
 23 43  1  0  0  0  0
 25 26  1  0  0  0  0
 25 44  1  0  0  0  0
 26 27  1  0  0  0  0
 27 28  1  0  0  0  0
 27 29  2  0  0  0  0
 28 45  1  0  0  0  0
 28 46  1  0  0  0  0
 28 47  1  0  0  0  0
M  END
> <s_m_source_file>
AV-unprocessed.smi

> <i_m_source_file_index>
104

> <i_lp_mmshare_version>
43012

> <i_f3d_flags>
0

> <s_epik_input>
W0NIM11DKD1PKU9bQ0gyXVtDQEBIXTFPW0NASF0oW0NAQEhdKE9DKD1PKVtDSDNdKVtDQEhdMU9DKD1PKVtDSDNdKW4oYyhCciluMiljKGMyMyluW2NIXW5jM1tOSDJd

> <s_epik_cmdline>
J2VwaWtfcHl0aG9uJywgJy1waCcsICc3LjAnLCAnLXRuJywgJzgnLCAnLW1hJywgJzIwMCcsICctbWV0YWxfYmluZGluZycsICctaW1hZScsICc8aW5maWxlLm1hZT4nLCAnLW9tYWUnLCAnPG91dGZpbGUubWFlPic=

> <r_lp_tautomer_probability>
1

> <r_epik_Ionization_Penalty>
7.36622e-05

> <r_epik_Ionization_Penalty_Charging>
0

> <r_epik_Ionization_Penalty_Neutral>
7.36622e-05

> <r_epik_State_Penalty>
-0

> <r_epik_Charging_Adjusted_Penalty>
0

> <i_epik_Tot_Q>
0

> <i_epik_Tot_abs_Q>
0

> <r_epik_Metal_State_Penalty>
-0

> <b_epik_Metal_Only>
0

> <s_epik_Chemistry_Notes>
This compound has an ester and may undergo hydrolysis at high or low pH. This compound contains an acetal/aminal-like group ( X-CH(R)-Y where X, Y are N, S, or O) that may be acid/base labile, releasing an aldehyde.

> <s_lp_Force_Field>
OPLS_2005

> <r_lp_Energy>
14.3188

> <b_lp_Chiralities_Consistent>
1

> <s_lp_Variant>
AV-unprocessed.smi:104-10

> <Gold.Version>
5.8.1

> <Gold.Id.Protein>
6NUR|6NUR_protein|mol2

> <Gold.PLP.Fitness>
37.1172

> <Gold.PLP.PLP>
-31.5397

> <Gold.PLP.part.hbond>
-3.0000

> <Gold.PLP.part.metal>
0.0000

> <Gold.PLP.part.buried>
-5.9245

> <Gold.PLP.part.nonpolar>
-22.6326

> <Gold.PLP.part.repulsive>
0.1346

> <Gold.PLP.ligand.clash>
0.0000

> <Gold.PLP.ligand.torsion>
0.6796

> <Gold.PLP.Chemscore.Hbond>
2.2752

> <Gold.PLP.Chemscore.CHOScore>
0.0000

> <Gold.PLP.Chemscore.Metal>
0.0000

> <Gold.Chemscore.Hbonds>
donor molecule, donor type, donor heavy atom, donor atom, acceptor molecule, acceptor atom, score
      P1  H  6896  6907       L1    24  0.69
      P1  H  6931  6943       L1    29  0.74
      P1  H  6934  6947       L1    29  0.91

> <Gold.PLP.Chemscore.Internal.Correction>
0.1112

> <Gold.Rescore>
     Score         DG    S(hbond)    S(metal)    S(lipo)     H(rot)  DE(clash)    DE(int)     intcor
     -5.03      -5.88       1.68        0.00      49.82       4.31       0.35      10.56       ----

> <Gold.Chemscore.Fitness>
-5.0318

> <Gold.Chemscore.DG>
-5.8808

> <Gold.Chemscore.ZeroCoef>
-5.4800

> <Gold.Chemscore.Hbond>
1.6758

> <Gold.Chemscore.Metal>
0.0000

> <Gold.Chemscore.Lipo>
49.8241

> <Gold.Chemscore.Internal_Hbond>
0.0000

> <Gold.Chemscore.DEClash>
0.3539

> <Gold.Chemscore.DEInternal>
10.5588

> <Gold.Chemscore.Rot>
4.3070

> <Gold.Chemscore.Internal.Correction>
   9.000000E+99

> <Gold.Chemscore.Hbonds>
donor molecule, donor type, donor heavy atom, donor atom, acceptor molecule, acceptor atom, score
      P1  H  6896  6907       L1    24  0.67
      P1  H  6931  6943       L1    29  0.10
      P1  H  6934  6947       L1    29  0.89

> <Gold.Chemscore.Hbond.Weighted>
-5.5973

> <Gold.Chemscore.Metal.Weighted>
-0.0000

> <Gold.Chemscore.Lipo.Weighted>
-5.8294

> <Gold.Chemscore.Internal_Hbond.Weighted>
0.0000

> <Gold.Chemscore.DEClash.Weighted>
0.3539

> <Gold.Chemscore.DEInternal.Weighted>
10.5588

> <Gold.Chemscore.Rot.Weighted>
11.0259

> <Gold.Chemscore.Internal.Correction.Weighted>
   9.000000E+99

> <Gold.Protein.RotatedTorsions>
[ 6907 6896 6895 6894 ] final -103.11 input  -60.11 | X-H torsion
[ 7974 7965 7964 7962 ] final   93.37 input  175.53 | X-H torsion
[ 8008 7997 7996 7995 ] final   92.10 input   59.86 | X-H torsion
[ 10167 10162 10161 10158 ] final  170.12 input  -65.29 | X-H torsion
[ 10718 10713 10712 10709 ] final   13.82 input   66.30 | X-H torsion
[ 10763 10752 10751 10750 ] final -129.07 input  -60.55 | X-H torsion
[ 11005 11000 10999 10996 ] final    7.32 input  -57.11 | X-H torsion

> <Gold.Protein.ActiveResidues>
 VAL166  LYS551  ARG553  GLY616  TRP617  ASP618  TYR619  PRO620  LYS621  CYS622 
 ASP623  PHE694  ASN695  SER759  ASP760  ASP761  ALA762  ILE779  LEU786  VAL792 
 PHE793  MET794  SER795  GLU796  ALA797  LYS798  CYS799  TRP800  GLU811  SER814 

> <Gold.Protein.RotatedAtoms>
  150.7225  134.0479  159.3787 H   0  0  0  0  0  0  0  0  0  0  0  0  # atno 6907 bound_to 6896
  151.8455  135.0573  160.0462 H   0  0  0  0  0  0  0  0  0  0  0  0  # atno 6908 bound_to 6896
  152.2830  133.5452  159.5546 H   0  0  0  0  0  0  0  0  0  0  0  0  # atno 6909 bound_to 6896
  145.4798  139.2279  143.2889 H   0  0  0  0  0  0  0  0  0  0  0  0  # atno 7974 bound_to 7965
  156.0315  140.3329  155.7144 H   0  0  0  0  0  0  0  0  0  0  0  0  # atno 8008 bound_to 7997
  155.5878  140.0643  157.2784 H   0  0  0  0  0  0  0  0  0  0  0  0  # atno 8009 bound_to 7997
  154.4355  140.1832  156.1031 H   0  0  0  0  0  0  0  0  0  0  0  0  # atno 8010 bound_to 7997
  139.5010  144.3631  151.9804 H   0  0  0  0  0  0  0  0  0  0  0  0  # atno 10167 bound_to 10162
  157.0302  130.6189  149.5734 H   0  0  0  0  0  0  0  0  0  0  0  0  # atno 10718 bound_to 10713
  154.8757  135.3907  154.3860 H   0  0  0  0  0  0  0  0  0  0  0  0  # atno 10763 bound_to 10752
  153.4602  135.7029  153.6060 H   0  0  0  0  0  0  0  0  0  0  0  0  # atno 10764 bound_to 10752
  153.4562  135.3822  155.2281 H   0  0  0  0  0  0  0  0  0  0  0  0  # atno 10765 bound_to 10752
  140.5496  134.0296  155.7932 H   0  0  0  0  0  0  0  0  0  0  0  0  # atno 11005 bound_to 11000
  146.2348  140.5584  142.8960 LP  0  0  0  0  0  0  0  0  0  0  0  0  # atno 17320 bound_to 7965
  144.7895  140.6004  143.6551 LP  0  0  0  0  0  0  0  0  0  0  0  0  # atno 17321 bound_to 7965
  140.3067  144.3585  150.6045 LP  0  0  0  0  0  0  0  0  0  0  0  0  # atno 17342 bound_to 10162
  140.5831  143.2171  151.7392 LP  0  0  0  0  0  0  0  0  0  0  0  0  # atno 17343 bound_to 10162
  156.0072  130.5160  150.7870 LP  0  0  0  0  0  0  0  0  0  0  0  0  # atno 17370 bound_to 10713
  157.5184  131.0930  151.0110 LP  0  0  0  0  0  0  0  0  0  0  0  0  # atno 17371 bound_to 10713
  141.1179  133.9509  157.2786 LP  0  0  0  0  0  0  0  0  0  0  0  0  # atno 17394 bound_to 11000
  139.9462  135.0183  156.8859 LP  0  0  0  0  0  0  0  0  0  0  0  0  # atno 17395 bound_to 11000

$$$$
