AV-unprocessed.smi:2304|AV-procd|sdf|9245|dock2
  -GOLD-   2272012463D 1   1.00000     0.00000
 Structure written by MMmdl.
 37 38  0  0  0  0  0  0  0  0  1 V2000
  144.0652  143.7926  162.4638 C   0  0  0  0  0  0  0  0  0  0  0  0
  144.9395  143.3103  161.4590 O   0  0  0  0  0  0  0  0  0  0  0  0
  144.8792  144.0814  160.2699 C   0  0  0  0  0  0  0  0  0  0  0  0
  145.7616  145.3318  160.4215 C   0  0  1  0  0  0  0  0  0  0  0  0
  147.0217  145.1286  159.7107 N   0  0  0  0  0  0  0  0  0  0  0  0
  148.1567  144.6526  160.2445 C   0  0  0  0  0  0  0  0  0  0  0  0
  148.2663  144.3103  161.4222 O   0  0  0  0  0  0  0  0  0  0  0  0
  149.1389  144.6049  159.3273 N   0  0  0  0  0  0  0  0  0  0  0  0
  150.4890  144.2014  159.5065 C   0  0  0  0  0  0  0  0  0  0  0  0
  151.3454  144.4718  158.4154 C   0  0  0  0  0  0  0  0  0  0  0  0
  152.7051  144.1147  158.4966 C   0  0  0  0  0  0  0  0  0  0  0  0
  153.1759  143.4959  159.6684 C   0  0  0  0  0  0  0  0  0  0  0  0
  152.2572  143.2624  160.7105 C   0  0  0  0  0  0  0  0  0  0  0  0
  152.6929  142.6004  162.0008 C   0  0  0  0  0  0  0  0  0  0  0  0
  150.9530  143.6038  160.6323 N   0  0  0  0  0  0  0  0  0  0  0  0
  145.0296  146.5725  159.9456 C   0  0  0  0  0  0  0  0  0  0  0  0
  145.0063  146.9500  158.4841 C   0  0  0  0  0  0  0  0  0  0  0  0
  145.7855  147.7905  159.4709 C   0  0  0  0  0  0  0  0  0  0  0  0
  144.1391  143.1602  163.3484 H   0  0  0  0  0  0  0  0  0  0  0  0
  143.0283  143.7788  162.1255 H   0  0  0  0  0  0  0  0  0  0  0  0
  144.3251  144.8109  162.7558 H   0  0  0  0  0  0  0  0  0  0  0  0
  145.1976  143.4879  159.4110 H   0  0  0  0  0  0  0  0  0  0  0  0
  143.8446  144.3795  160.0924 H   0  0  0  0  0  0  0  0  0  0  0  0
  145.9548  145.4714  161.4869 H   0  0  0  0  0  0  0  0  0  0  0  0
  147.0297  145.3770  158.7327 H   0  0  0  0  0  0  0  0  0  0  0  0
  148.8970  144.9072  158.3956 H   0  0  0  0  0  0  0  0  0  0  0  0
  150.9682  144.9489  157.5224 H   0  0  0  0  0  0  0  0  0  0  0  0
  153.3750  144.3129  157.6729 H   0  0  0  0  0  0  0  0  0  0  0  0
  154.2134  143.2098  159.7615 H   0  0  0  0  0  0  0  0  0  0  0  0
  153.7762  142.4822  162.0388 H   0  0  0  0  0  0  0  0  0  0  0  0
  152.2379  141.6137  162.0899 H   0  0  0  0  0  0  0  0  0  0  0  0
  152.3872  143.1996  162.8591 H   0  0  0  0  0  0  0  0  0  0  0  0
  144.1153  146.7763  160.5001 H   0  0  0  0  0  0  0  0  0  0  0  0
  145.5738  146.3309  157.7917 H   0  0  0  0  0  0  0  0  0  0  0  0
  144.0826  147.3666  158.0878 H   0  0  0  0  0  0  0  0  0  0  0  0
  145.3805  148.7660  159.7314 H   0  0  0  0  0  0  0  0  0  0  0  0
  146.8715  147.7313  159.4318 H   0  0  0  0  0  0  0  0  0  0  0  0
  1  2  1  0  0  0  0
  1 19  1  0  0  0  0
  1 20  1  0  0  0  0
  1 21  1  0  0  0  0
  2  3  1  0  0  0  0
  3  4  1  0  0  0  0
  3 22  1  0  0  0  0
  3 23  1  0  0  0  0
  4  5  1  0  0  0  0
  4 16  1  0  0  0  0
  4 24  1  0  0  0  0
  5  6  1  0  0  0  0
  5 25  1  0  0  0  0
  6  7  2  0  0  0  0
  6  8  1  0  0  0  0
  8  9  1  0  0  0  0
  8 26  1  0  0  0  0
  9 15  1  0  0  0  0
  9 10  2  0  0  0  0
 10 11  1  0  0  0  0
 10 27  1  0  0  0  0
 11 12  2  0  0  0  0
 11 28  1  0  0  0  0
 12 13  1  0  0  0  0
 12 29  1  0  0  0  0
 13 14  1  0  0  0  0
 13 15  2  0  0  0  0
 14 30  1  0  0  0  0
 14 31  1  0  0  0  0
 14 32  1  0  0  0  0
 16 18  1  0  0  0  0
 16 17  1  0  0  0  0
 16 33  1  0  0  0  0
 17 18  1  0  0  0  0
 17 34  1  0  0  0  0
 17 35  1  0  0  0  0
 18 36  1  0  0  0  0
 18 37  1  0  0  0  0
M  END
> <s_m_source_file>
AV-unprocessed.smi

> <i_m_source_file_index>
2304

> <i_lp_mmshare_version>
43012

> <i_f3d_flags>
0

> <s_epik_input>
W0NIM11PW0NIMl1bQ0BASF0oW0NIXTFbQ0gyXVtDSDJdMSlbTkhdQyg9TylbTkhdYzJbY0hdW2NIXVtjSF1jKG4yKVtDSDNd

> <s_epik_cmdline>
J2VwaWtfcHl0aG9uJywgJy1waCcsICc3LjAnLCAnLXRuJywgJzgnLCAnLW1hJywgJzIwMCcsICctbWV0YWxfYmluZGluZycsICctaW1hZScsICc8aW5maWxlLm1hZT4nLCAnLW9tYWUnLCAnPG91dGZpbGUubWFlPic=

> <r_lp_tautomer_probability>
1

> <r_epik_Ionization_Penalty>
8.58396e-05

> <r_epik_Ionization_Penalty_Charging>
0

> <r_epik_Ionization_Penalty_Neutral>
8.58396e-05

> <r_epik_State_Penalty>
-0

> <r_epik_Charging_Adjusted_Penalty>
0

> <i_epik_Tot_Q>
0

> <i_epik_Tot_abs_Q>
0

> <r_epik_Metal_State_Penalty>
-0

> <b_epik_Metal_Only>
0

> <s_lp_Force_Field>
OPLS_2005

> <r_lp_Energy>
16.7335

> <b_lp_Chiralities_Consistent>
1

> <s_lp_Variant>
AV-unprocessed.smi:2304-2

> <Gold.Version>
5.8.1

> <Gold.Id.Protein>
6NUR|6NUR_protein|mol2

> <Gold.PLP.Fitness>
47.8734

> <Gold.PLP.PLP>
-41.2865

> <Gold.PLP.part.hbond>
-4.0000

> <Gold.PLP.part.metal>
0.0000

> <Gold.PLP.part.buried>
-5.4268

> <Gold.PLP.part.nonpolar>
-33.1917

> <Gold.PLP.part.repulsive>
0.6156

> <Gold.PLP.ligand.clash>
0.0000

> <Gold.PLP.ligand.torsion>
1.6385

> <Gold.PLP.Chemscore.Hbond>
2.9280

> <Gold.PLP.Chemscore.CHOScore>
0.0000

> <Gold.PLP.Chemscore.Metal>
0.0000

> <Gold.Chemscore.Hbonds>
donor molecule, donor type, donor heavy atom, donor atom, acceptor molecule, acceptor atom, score
      L1  H     5    25       P1  8029  1.00
      L1  H     8    26       P1  8029  1.00
      P1  H  6933  6944       L1     7  0.94

> <Gold.PLP.Chemscore.Internal.Correction>
1.0798

> <Gold.Rescore>
     Score         DG    S(hbond)    S(metal)    S(lipo)     H(rot)  DE(clash)    DE(int)     intcor
     18.88     -22.17       2.80        0.00      98.01       1.61       0.50       2.79       ----

> <Gold.Chemscore.Fitness>
18.8779

> <Gold.Chemscore.DG>
-22.1721

> <Gold.Chemscore.ZeroCoef>
-5.4800

> <Gold.Chemscore.Hbond>
2.8016

> <Gold.Chemscore.Metal>
0.0000

> <Gold.Chemscore.Lipo>
98.0096

> <Gold.Chemscore.Internal_Hbond>
0.0000

> <Gold.Chemscore.DEClash>
0.5017

> <Gold.Chemscore.DEInternal>
2.7926

> <Gold.Chemscore.Rot>
1.6142

> <Gold.Chemscore.Internal.Correction>
   9.000000E+99

> <Gold.Chemscore.Hbonds>
donor molecule, donor type, donor heavy atom, donor atom, acceptor molecule, acceptor atom, score
      L1  H     5    25       P1  8029  0.96
      L1  H     8    26       P1  8029  0.75
      P1  H  6933  6944       L1     7  0.59

> <Gold.Chemscore.Hbond.Weighted>
-9.3573

> <Gold.Chemscore.Metal.Weighted>
-0.0000

> <Gold.Chemscore.Lipo.Weighted>
-11.4671

> <Gold.Chemscore.Internal_Hbond.Weighted>
0.0000

> <Gold.Chemscore.DEClash.Weighted>
0.5017

> <Gold.Chemscore.DEInternal.Weighted>
2.7926

> <Gold.Chemscore.Rot.Weighted>
4.1323

> <Gold.Chemscore.Internal.Correction.Weighted>
   9.000000E+99

> <Gold.Protein.RotatedTorsions>
[ 6907 6896 6895 6894 ] final   15.96 input  -60.11 | X-H torsion
[ 7974 7965 7964 7962 ] final   52.39 input  175.53 | X-H torsion
[ 8008 7997 7996 7995 ] final   -4.38 input   59.86 | X-H torsion
[ 10167 10162 10161 10158 ] final  -91.68 input  -65.29 | X-H torsion
[ 10718 10713 10712 10709 ] final   68.93 input   66.30 | X-H torsion
[ 10763 10752 10751 10750 ] final -133.45 input  -60.55 | X-H torsion
[ 11005 11000 10999 10996 ] final  -84.00 input  -57.11 | X-H torsion

> <Gold.Protein.ActiveResidues>
 VAL166  LYS551  ARG553  GLY616  TRP617  ASP618  TYR619  PRO620  LYS621  CYS622 
 ASP623  PHE694  ASN695  SER759  ASP760  ASP761  ALA762  ILE779  LEU786  VAL792 
 PHE793  MET794  SER795  GLU796  ALA797  LYS798  CYS799  TRP800  GLU811  SER814 

> <Gold.Protein.RotatedAtoms>
  151.8263  135.0636  160.0431 H   0  0  0  0  0  0  0  0  0  0  0  0  # atno 6907 bound_to 6896
  152.2913  133.5560  159.5568 H   0  0  0  0  0  0  0  0  0  0  0  0  # atno 6908 bound_to 6896
  150.7231  134.0340  159.3785 H   0  0  0  0  0  0  0  0  0  0  0  0  # atno 6909 bound_to 6896
  145.9818  139.4250  143.0127 H   0  0  0  0  0  0  0  0  0  0  0  0  # atno 7974 bound_to 7965
  154.6149  140.2485  155.7621 H   0  0  0  0  0  0  0  0  0  0  0  0  # atno 8008 bound_to 7997
  156.2393  140.2938  156.0349 H   0  0  0  0  0  0  0  0  0  0  0  0  # atno 8009 bound_to 7997
  155.1991  140.0394  157.2904 H   0  0  0  0  0  0  0  0  0  0  0  0  # atno 8010 bound_to 7997
  140.3425  143.2935  151.9819 H   0  0  0  0  0  0  0  0  0  0  0  0  # atno 10167 bound_to 10162
  157.6317  130.9399  150.0444 H   0  0  0  0  0  0  0  0  0  0  0  0  # atno 10718 bound_to 10713
  154.8732  135.3765  154.4575 H   0  0  0  0  0  0  0  0  0  0  0  0  # atno 10763 bound_to 10752
  153.5246  135.7028  153.5719 H   0  0  0  0  0  0  0  0  0  0  0  0  # atno 10764 bound_to 10752
  153.3951  135.3962  155.1915 H   0  0  0  0  0  0  0  0  0  0  0  0  # atno 10765 bound_to 10752
  141.1654  133.7323  156.8803 H   0  0  0  0  0  0  0  0  0  0  0  0  # atno 11005 bound_to 11000
  145.7759  140.9877  143.1125 LP  0  0  0  0  0  0  0  0  0  0  0  0  # atno 17320 bound_to 7965
  144.6863  139.9504  143.7478 LP  0  0  0  0  0  0  0  0  0  0  0  0  # atno 17321 bound_to 7965
  139.4838  144.6145  151.7372 LP  0  0  0  0  0  0  0  0  0  0  0  0  # atno 17342 bound_to 10162
  140.5296  144.0751  150.6049 LP  0  0  0  0  0  0  0  0  0  0  0  0  # atno 17343 bound_to 10162
  156.1526  130.3642  149.9416 LP  0  0  0  0  0  0  0  0  0  0  0  0  # atno 17370 bound_to 10713
  156.7433  130.9087  151.3633 LP  0  0  0  0  0  0  0  0  0  0  0  0  # atno 17371 bound_to 10713
  140.1719  134.9094  157.2844 LP  0  0  0  0  0  0  0  0  0  0  0  0  # atno 17394 bound_to 11000
  140.2492  134.3703  155.7449 LP  0  0  0  0  0  0  0  0  0  0  0  0  # atno 17395 bound_to 11000

$$$$
