AV-unprocessed.smi:2682|AV-procd|sdf|10374|dock5
  -GOLD-   2272014403D 1   1.00000     0.00000
 Structure written by MMmdl.
 30 30  0  0  0  0  0  0  0  0  1 V2000
  152.8437  142.5175  162.2160 C   0  0  0  0  0  0  0  0  0  0  0  0
  152.1727  142.8681  161.0184 O   0  0  0  0  0  0  0  0  0  0  0  0
  153.0602  143.3457  160.0212 C   0  0  0  0  0  0  0  0  0  0  0  0
  152.2502  143.8011  158.8040 C   0  0  0  0  0  0  0  0  0  0  0  0
  151.7370  142.6602  158.1369 O   0  0  0  0  0  0  0  0  0  0  0  0
  151.0789  142.9866  156.9229 C   0  0  0  0  0  0  0  0  0  0  0  0
  150.4638  141.7187  156.3333 C   0  0  0  0  0  0  0  0  0  0  0  0
  150.7769  140.6267  156.8052 O   0  0  0  0  0  0  0  0  0  0  0  0
  149.6044  141.9140  155.3131 N   0  0  0  0  0  0  0  0  0  0  0  0
  148.9025  140.9776  154.5342 C   0  0  0  0  0  0  0  0  0  0  0  0
  147.6049  141.0980  154.1471 C   0  0  0  0  0  0  0  0  0  0  0  0
  146.9634  140.0716  153.3528 C   0  0  0  0  0  0  0  0  0  0  0  0
  147.6800  138.9902  153.0128 C   0  0  0  0  0  0  0  0  0  0  0  0
  149.0115  138.8607  153.4150 N   0  0  0  0  0  0  0  0  0  0  0  0
  149.6762  139.7797  154.1552 C   0  0  0  0  0  0  0  0  0  0  0  0
  150.8503  139.5880  154.4701 O   0  0  0  0  0  0  0  0  0  0  0  0
  152.1217  142.1576  162.9487 H   0  0  0  0  0  0  0  0  0  0  0  0
  153.3594  143.3773  162.6455 H   0  0  0  0  0  0  0  0  0  0  0  0
  153.5713  141.7237  162.0417 H   0  0  0  0  0  0  0  0  0  0  0  0
  153.6241  144.1906  160.4193 H   0  0  0  0  0  0  0  0  0  0  0  0
  153.7794  142.5767  159.7346 H   0  0  0  0  0  0  0  0  0  0  0  0
  151.4456  144.4719  159.1089 H   0  0  0  0  0  0  0  0  0  0  0  0
  152.8988  144.3544  158.1234 H   0  0  0  0  0  0  0  0  0  0  0  0
  150.2883  143.7178  157.0987 H   0  0  0  0  0  0  0  0  0  0  0  0
  151.7856  143.4216  156.2139 H   0  0  0  0  0  0  0  0  0  0  0  0
  149.4109  142.8777  155.0802 H   0  0  0  0  0  0  0  0  0  0  0  0
  147.0022  141.9467  154.4244 H   0  0  0  0  0  0  0  0  0  0  0  0
  145.9339  140.1745  153.0429 H   0  0  0  0  0  0  0  0  0  0  0  0
  147.3043  138.1653  152.4256 H   0  0  0  0  0  0  0  0  0  0  0  0
  149.4979  138.0232  153.1290 H   0  0  0  0  0  0  0  0  0  0  0  0
  1  2  1  0  0  0  0
  1 17  1  0  0  0  0
  1 18  1  0  0  0  0
  1 19  1  0  0  0  0
  2  3  1  0  0  0  0
  3  4  1  0  0  0  0
  3 20  1  0  0  0  0
  3 21  1  0  0  0  0
  4  5  1  0  0  0  0
  4 22  1  0  0  0  0
  4 23  1  0  0  0  0
  5  6  1  0  0  0  0
  6  7  1  0  0  0  0
  6 24  1  0  0  0  0
  6 25  1  0  0  0  0
  7  8  2  0  0  0  0
  7  9  1  0  0  0  0
  9 26  1  0  0  0  0
  9 10  1  0  0  0  0
 10 11  2  0  0  0  0
 10 15  1  0  0  0  0
 11 12  1  0  0  0  0
 11 27  1  0  0  0  0
 12 13  2  0  0  0  0
 12 28  1  0  0  0  0
 13 14  1  0  0  0  0
 13 29  1  0  0  0  0
 14 15  1  0  0  0  0
 14 30  1  0  0  0  0
 15 16  2  0  0  0  0
M  END
> <s_m_source_file>
AV-unprocessed.smi

> <i_m_source_file_index>
2682

> <i_lp_mmshare_version>
43012

> <i_f3d_flags>
0

> <s_epik_input>
W0NIM11PW0NIMl1bQ0gyXU9bQ0gyXUMoPU8pW05IXWMxW2NIXVtjSF1bY0hdbmMxW09IXQ==

> <s_epik_cmdline>
J2VwaWtfcHl0aG9uJywgJy1waCcsICc3LjAnLCAnLXRuJywgJzgnLCAnLW1hJywgJzIwMCcsICctbWV0YWxfYmluZGluZycsICctaW1hZScsICc8aW5maWxlLm1hZT4nLCAnLW9tYWUnLCAnPG91dGZpbGUubWFlPic=

> <r_lp_tautomer_probability>
1

> <r_epik_Ionization_Penalty>
0.000101939

> <r_epik_Ionization_Penalty_Charging>
0.000101884

> <r_epik_Ionization_Penalty_Neutral>
5.41789e-08

> <r_epik_State_Penalty>
-0

> <r_epik_Charging_Adjusted_Penalty>
0.000101884

> <i_epik_Tot_Q>
0

> <i_epik_Tot_abs_Q>
0

> <r_epik_Metal_State_Penalty>
0.0807852

> <b_epik_Metal_Only>
0

> <s_lp_Force_Field>
OPLS_2005

> <r_lp_Energy>
15.1735

> <b_lp_Chiralities_Consistent>
1

> <s_lp_Variant>
AV-unprocessed.smi:2682-1

> <Gold.Version>
5.8.1

> <Gold.Id.Protein>
6NUR|6NUR_protein|mol2

> <Gold.PLP.Fitness>
41.1163

> <Gold.PLP.PLP>
-33.2597

> <Gold.PLP.part.hbond>
-3.9547

> <Gold.PLP.part.metal>
0.0000

> <Gold.PLP.part.buried>
-0.7542

> <Gold.PLP.part.nonpolar>
-29.4780

> <Gold.PLP.part.repulsive>
0.5093

> <Gold.PLP.ligand.clash>
0.0000

> <Gold.PLP.ligand.torsion>
0.5063

> <Gold.PLP.Chemscore.Hbond>
2.3313

> <Gold.PLP.Chemscore.CHOScore>
0.5981

> <Gold.PLP.Chemscore.Metal>
0.0000

> <Gold.Chemscore.Hbonds>
donor molecule, donor type, donor heavy atom, donor atom, acceptor molecule, acceptor atom, score
      L1  H     9    26       P1  8028  1.00
      L1  H    14    30       P1  7948  0.37
      P1  H  7989  7998       L1    16  1.00
      L1  C    13    29       P1  7948  0.65

> <Gold.PLP.Chemscore.Internal.Correction>
0.0809

> <Gold.Rescore>
     Score         DG    S(hbond)    S(metal)    S(lipo)     H(rot)  DE(clash)    DE(int)     intcor
     11.92     -16.77       2.58        0.00      70.44       2.17       0.54       4.32       ----

> <Gold.Chemscore.Fitness>
11.9162

> <Gold.Chemscore.DG>
-16.7685

> <Gold.Chemscore.ZeroCoef>
-5.4800

> <Gold.Chemscore.Hbond>
2.5792

> <Gold.Chemscore.Metal>
0.0000

> <Gold.Chemscore.Lipo>
70.4361

> <Gold.Chemscore.Internal_Hbond>
0.0000

> <Gold.Chemscore.DEClash>
0.5372

> <Gold.Chemscore.DEInternal>
4.3150

> <Gold.Chemscore.Rot>
2.1746

> <Gold.Chemscore.Internal.Correction>
   9.000000E+99

> <Gold.Chemscore.Hbonds>
donor molecule, donor type, donor heavy atom, donor atom, acceptor molecule, acceptor atom, score
      L1  H     9    26       P1  8028  0.91
      L1  H    14    30       P1  7948  0.33
      P1  H  7989  7998       L1    16  0.26

> <Gold.Chemscore.Hbond.Weighted>
-8.6144

> <Gold.Chemscore.Metal.Weighted>
-0.0000

> <Gold.Chemscore.Lipo.Weighted>
-8.2410

> <Gold.Chemscore.Internal_Hbond.Weighted>
0.0000

> <Gold.Chemscore.DEClash.Weighted>
0.5372

> <Gold.Chemscore.DEInternal.Weighted>
4.3150

> <Gold.Chemscore.Rot.Weighted>
5.5669

> <Gold.Chemscore.Internal.Correction.Weighted>
   9.000000E+99

> <Gold.Protein.RotatedTorsions>
[ 6907 6896 6895 6894 ] final   15.91 input  -60.11 | X-H torsion
[ 7974 7965 7964 7962 ] final  119.49 input  175.53 | X-H torsion
[ 8008 7997 7996 7995 ] final   36.46 input   59.86 | X-H torsion
[ 10167 10162 10161 10158 ] final -148.10 input  -65.29 | X-H torsion
[ 10718 10713 10712 10709 ] final   33.79 input   66.30 | X-H torsion
[ 10763 10752 10751 10750 ] final -170.94 input  -60.55 | X-H torsion
[ 11005 11000 10999 10996 ] final   31.47 input  -57.11 | X-H torsion

> <Gold.Protein.ActiveResidues>
 VAL166  LYS551  ARG553  GLY616  TRP617  ASP618  TYR619  PRO620  LYS621  CYS622 
 ASP623  PHE694  ASN695  SER759  ASP760  ASP761  ALA762  ILE779  LEU786  VAL792 
 PHE793  MET794  SER795  GLU796  ALA797  LYS798  CYS799  TRP800  GLU811  SER814 

> <Gold.Protein.RotatedAtoms>
  151.8255  135.0638  160.0430 H   0  0  0  0  0  0  0  0  0  0  0  0  # atno 6907 bound_to 6896
  152.2919  133.5565  159.5571 H   0  0  0  0  0  0  0  0  0  0  0  0  # atno 6908 bound_to 6896
  150.7234  134.0332  159.3783 H   0  0  0  0  0  0  0  0  0  0  0  0  # atno 6909 bound_to 6896
  145.1425  139.3259  143.4608 H   0  0  0  0  0  0  0  0  0  0  0  0  # atno 7974 bound_to 7965
  155.1877  140.3305  155.4364 H   0  0  0  0  0  0  0  0  0  0  0  0  # atno 8008 bound_to 7997
  156.2454  140.1916  156.6922 H   0  0  0  0  0  0  0  0  0  0  0  0  # atno 8009 bound_to 7997
  154.6227  140.0593  156.9621 H   0  0  0  0  0  0  0  0  0  0  0  0  # atno 8010 bound_to 7997
  139.7562  143.8445  152.2597 H   0  0  0  0  0  0  0  0  0  0  0  0  # atno 10167 bound_to 10162
  157.3023  130.7357  149.6674 H   0  0  0  0  0  0  0  0  0  0  0  0  # atno 10718 bound_to 10713
  154.6360  135.2892  155.0161 H   0  0  0  0  0  0  0  0  0  0  0  0  # atno 10763 bound_to 10752
  154.1304  135.6534  153.4925 H   0  0  0  0  0  0  0  0  0  0  0  0  # atno 10764 bound_to 10752
  153.0302  135.5309  154.7206 H   0  0  0  0  0  0  0  0  0  0  0  0  # atno 10765 bound_to 10752
  140.2836  134.2945  155.7794 H   0  0  0  0  0  0  0  0  0  0  0  0  # atno 11005 bound_to 11000
  146.3503  140.1467  142.8593 LP  0  0  0  0  0  0  0  0  0  0  0  0  # atno 17320 bound_to 7965
  145.0517  140.9022  143.4991 LP  0  0  0  0  0  0  0  0  0  0  0  0  # atno 17321 bound_to 7965
  139.8437  144.7197  150.9299 LP  0  0  0  0  0  0  0  0  0  0  0  0  # atno 17342 bound_to 10162
  140.7803  143.3960  151.1229 LP  0  0  0  0  0  0  0  0  0  0  0  0  # atno 17343 bound_to 10162
  155.9672  130.4276  150.4752 LP  0  0  0  0  0  0  0  0  0  0  0  0  # atno 17370 bound_to 10713
  157.2735  131.0592  151.2244 LP  0  0  0  0  0  0  0  0  0  0  0  0  # atno 17371 bound_to 10713
  141.2158  133.7541  156.9518 LP  0  0  0  0  0  0  0  0  0  0  0  0  # atno 17394 bound_to 11000
  140.1260  134.9386  157.2271 LP  0  0  0  0  0  0  0  0  0  0  0  0  # atno 17395 bound_to 11000

$$$$
