AV-unprocessed.smi:3027|AV-procd|sdf|11515|dock5
  -GOLD-   2272016453D 1   1.00000     0.00000
 Structure written by MMmdl.
 37 38  0  0  0  0  0  0  0  0  2 V2000
  151.2335  136.7017  154.8706 C   0  0  0  0  0  0  0  0  0  0  0  0
  150.9961  138.1835  154.8211 C   0  0  0  0  0  0  0  0  0  0  0  0
  150.5827  138.9660  153.7056 C   0  0  0  0  0  0  0  0  0  0  0  0
  150.4689  140.2524  153.9938 N   0  0  0  0  0  0  0  0  0  0  0  0
  150.8015  140.3360  155.2993 N   0  0  0  0  0  0  0  0  0  0  0  0
  150.7918  141.6235  155.9694 C   0  0  0  0  0  0  0  0  0  0  0  0
  149.7498  141.6994  157.1074 C   0  0  2  0  0  0  0  0  0  0  0  0
  148.3207  141.4139  156.6165 C   0  0  0  0  0  0  0  0  0  0  0  0
  149.7859  143.0303  157.7563 N   0  3  0  0  0  0  0  0  0  0  0  0
  151.1027  143.4597  158.2799 C   0  0  0  0  0  0  0  0  0  0  0  0
  151.7490  142.3872  159.1573 C   0  0  0  0  0  0  0  0  0  0  0  0
  152.7953  143.1406  159.9861 C   0  0  0  0  0  0  0  0  0  0  0  0
  152.3376  144.6076  160.0240 C   0  0  0  0  0  0  0  0  0  0  0  0
  151.0402  144.6734  159.2107 C   0  0  0  0  0  0  0  0  0  0  0  0
  151.1264  139.1028  155.8230 C   0  0  0  0  0  0  0  0  0  0  0  0
  150.7008  136.1793  154.0758 H   0  0  0  0  0  0  0  0  0  0  0  0
  150.9017  136.2710  155.8155 H   0  0  0  0  0  0  0  0  0  0  0  0
  152.2910  136.4612  154.7606 H   0  0  0  0  0  0  0  0  0  0  0  0
  150.3642  138.6382  152.6999 H   0  0  0  0  0  0  0  0  0  0  0  0
  151.7971  141.8011  156.3489 H   0  0  0  0  0  0  0  0  0  0  0  0
  150.6019  142.4046  155.2310 H   0  0  0  0  0  0  0  0  0  0  0  0
  149.9887  140.9398  157.8535 H   0  0  0  0  0  0  0  0  0  0  0  0
  148.2276  140.4040  156.2167 H   0  0  0  0  0  0  0  0  0  0  0  0
  148.0238  142.1107  155.8321 H   0  0  0  0  0  0  0  0  0  0  0  0
  147.6009  141.5036  157.4307 H   0  0  0  0  0  0  0  0  0  0  0  0
  149.4298  143.7248  157.1154 H   0  0  0  0  0  0  0  0  0  0  0  0
  151.7727  143.6739  157.4453 H   0  0  0  0  0  0  0  0  0  0  0  0
  151.0042  141.9534  159.8267 H   0  0  0  0  0  0  0  0  0  0  0  0
  152.1846  141.5736  158.5760 H   0  0  0  0  0  0  0  0  0  0  0  0
  152.8909  142.7169  160.9864 H   0  0  0  0  0  0  0  0  0  0  0  0
  153.7737  143.0726  159.5088 H   0  0  0  0  0  0  0  0  0  0  0  0
  152.1850  144.9618  161.0441 H   0  0  0  0  0  0  0  0  0  0  0  0
  153.0991  145.2427  159.5698 H   0  0  0  0  0  0  0  0  0  0  0  0
  150.9415  145.6150  158.6695 H   0  0  0  0  0  0  0  0  0  0  0  0
  150.1879  144.5843  159.8861 H   0  0  0  0  0  0  0  0  0  0  0  0
  151.4207  138.9826  156.8554 H   0  0  0  0  0  0  0  0  0  0  0  0
  149.1627  142.9856  158.5503 H   0  0  0  0  0  0  0  0  0  0  0  0
  1  2  1  0  0  0  0
  1 16  1  0  0  0  0
  1 17  1  0  0  0  0
  1 18  1  0  0  0  0
  2 15  2  0  0  0  0
  2  3  1  0  0  0  0
  3  4  2  0  0  0  0
  3 19  1  0  0  0  0
  4  5  1  0  0  0  0
  5  6  1  0  0  0  0
  5 15  1  0  0  0  0
  6  7  1  0  0  0  0
  6 20  1  0  0  0  0
  6 21  1  0  0  0  0
  7  8  1  0  0  0  0
  7  9  1  0  0  0  0
  7 22  1  0  0  0  0
  8 23  1  0  0  0  0
  8 24  1  0  0  0  0
  8 25  1  0  0  0  0
  9 10  1  0  0  0  0
  9 26  1  0  0  0  0
  9 37  1  0  0  0  0
 10 14  1  0  0  0  0
 10 11  1  0  0  0  0
 10 27  1  0  0  0  0
 11 12  1  0  0  0  0
 11 28  1  0  0  0  0
 11 29  1  0  0  0  0
 12 13  1  0  0  0  0
 12 30  1  0  0  0  0
 12 31  1  0  0  0  0
 13 14  1  0  0  0  0
 13 32  1  0  0  0  0
 13 33  1  0  0  0  0
 14 34  1  0  0  0  0
 14 35  1  0  0  0  0
 15 36  1  0  0  0  0
M  CHG  1   9   1
M  END
> <s_m_source_file>
AV-unprocessed.smi

> <i_m_source_file_index>
3027

> <i_lp_mmshare_version>
43012

> <i_f3d_flags>
0

> <s_epik_input>
W0NIM11jMVtjSF1ubihbY0hdMSlbQ0gyXVtDQEhdKFtDSDNdKVtOSF1bQ0hdMltDSDJdW0NIMl1bQ0gyXVtDSDJdMg==

> <s_epik_cmdline>
J2VwaWtfcHl0aG9uJywgJy1waCcsICc3LjAnLCAnLXRuJywgJzgnLCAnLW1hJywgJzIwMCcsICctbWV0YWxfYmluZGluZycsICctaW1hZScsICc8aW5maWxlLm1hZT4nLCAnLW9tYWUnLCAnPG91dGZpbGUubWFlPic=

> <r_lp_tautomer_probability>
1

> <r_epik_Ionization_Penalty>
0.00150056

> <r_epik_Ionization_Penalty_Charging>
0.00149132

> <r_epik_Ionization_Penalty_Neutral>
9.24096e-06

> <r_epik_State_Penalty>
0.00099871

> <r_epik_Charging_Adjusted_Penalty>
0.00249003

> <i_epik_Tot_Q>
1

> <i_epik_Tot_abs_Q>
1

> <r_epik_Metal_State_Penalty>
-0

> <b_epik_Metal_Only>
0

> <s_lp_Force_Field>
OPLS_2005

> <r_lp_Energy>
26.7441

> <b_lp_Chiralities_Consistent>
1

> <s_lp_Variant>
AV-unprocessed.smi:3027-1

> <Gold.Version>
5.8.1

> <Gold.Id.Protein>
6NUR|6NUR_protein|mol2

> <Gold.PLP.Fitness>
45.5833

> <Gold.PLP.PLP>
-32.4900

> <Gold.PLP.part.hbond>
-2.0000

> <Gold.PLP.part.metal>
0.0000

> <Gold.PLP.part.buried>
-4.5581

> <Gold.PLP.part.nonpolar>
-26.6194

> <Gold.PLP.part.repulsive>
0.2041

> <Gold.PLP.ligand.clash>
0.0000

> <Gold.PLP.ligand.torsion>
0.0865

> <Gold.PLP.Chemscore.Hbond>
3.0000

> <Gold.PLP.Chemscore.CHOScore>
1.4188

> <Gold.PLP.Chemscore.Metal>
0.0000

> <Gold.Chemscore.Hbonds>
donor molecule, donor type, donor heavy atom, donor atom, acceptor molecule, acceptor atom, score
      L1  H     9    26       P1  8028  2.00
      P1  H  7989  7998       L1     4  0.59
      L1  C     3    19       P1  7948  0.15
      L1  C     3    19       P1  7957  0.78

> <Gold.PLP.Chemscore.Internal.Correction>
0.0100

> <Gold.Rescore>
     Score         DG    S(hbond)    S(metal)    S(lipo)     H(rot)  DE(clash)    DE(int)     intcor
     19.20     -19.42       1.92        0.00      94.89       1.40       0.01       0.20       ----

> <Gold.Chemscore.Fitness>
19.2019

> <Gold.Chemscore.DG>
-19.4164

> <Gold.Chemscore.ZeroCoef>
-5.4800

> <Gold.Chemscore.Hbond>
1.9209

> <Gold.Chemscore.Metal>
0.0000

> <Gold.Chemscore.Lipo>
94.8930

> <Gold.Chemscore.Internal_Hbond>
0.0000

> <Gold.Chemscore.DEClash>
0.0107

> <Gold.Chemscore.DEInternal>
0.2038

> <Gold.Chemscore.Rot>
1.3991

> <Gold.Chemscore.Internal.Correction>
   9.000000E+99

> <Gold.Chemscore.Hbonds>
donor molecule, donor type, donor heavy atom, donor atom, acceptor molecule, acceptor atom, score
      L1  H     9    26       P1  8028  0.74
      P1  H  7989  7998       L1     4  0.06

> <Gold.Chemscore.Hbond.Weighted>
-6.4157

> <Gold.Chemscore.Metal.Weighted>
-0.0000

> <Gold.Chemscore.Lipo.Weighted>
-11.1025

> <Gold.Chemscore.Internal_Hbond.Weighted>
0.0000

> <Gold.Chemscore.DEClash.Weighted>
0.0107

> <Gold.Chemscore.DEInternal.Weighted>
0.2038

> <Gold.Chemscore.Rot.Weighted>
3.5818

> <Gold.Chemscore.Internal.Correction.Weighted>
   9.000000E+99

> <Gold.Protein.RotatedTorsions>
[ 6907 6896 6895 6894 ] final  175.93 input  -60.11 | X-H torsion
[ 7974 7965 7964 7962 ] final  173.97 input  175.53 | X-H torsion
[ 8008 7997 7996 7995 ] final  -56.39 input   59.86 | X-H torsion
[ 10167 10162 10161 10158 ] final   60.28 input  -65.29 | X-H torsion
[ 10718 10713 10712 10709 ] final -132.14 input   66.30 | X-H torsion
[ 10763 10752 10751 10750 ] final  126.15 input  -60.55 | X-H torsion
[ 11005 11000 10999 10996 ] final  -95.03 input  -57.11 | X-H torsion

> <Gold.Protein.ActiveResidues>
 VAL166  LYS551  ARG553  GLY616  TRP617  ASP618  TYR619  PRO620  LYS621  CYS622 
 ASP623  PHE694  ASN695  SER759  ASP760  ASP761  ALA762  ILE779  LEU786  VAL792 
 PHE793  MET794  SER795  GLU796  ALA797  LYS798  CYS799  TRP800  GLU811  SER814 

> <Gold.Protein.RotatedAtoms>
  151.7282  133.3317  159.3333 H   0  0  0  0  0  0  0  0  0  0  0  0  # atno 6907 bound_to 6896
  150.7623  134.6387  159.6234 H   0  0  0  0  0  0  0  0  0  0  0  0  # atno 6908 bound_to 6896
  152.3608  134.6877  160.0259 H   0  0  0  0  0  0  0  0  0  0  0  0  # atno 6909 bound_to 6896
  144.7231  139.9727  143.6437 H   0  0  0  0  0  0  0  0  0  0  0  0  # atno 7974 bound_to 7965
  154.4228  140.1131  156.5629 H   0  0  0  0  0  0  0  0  0  0  0  0  # atno 8008 bound_to 7997
  155.6292  140.3495  155.4658 H   0  0  0  0  0  0  0  0  0  0  0  0  # atno 8009 bound_to 7997
  155.9962  140.1189  157.0581 H   0  0  0  0  0  0  0  0  0  0  0  0  # atno 8010 bound_to 7997
  140.1673  144.4311  150.6679 H   0  0  0  0  0  0  0  0  0  0  0  0  # atno 10167 bound_to 10162
  156.2316  130.7041  151.0864 H   0  0  0  0  0  0  0  0  0  0  0  0  # atno 10718 bound_to 10713
  153.6887  135.3302  155.3196 H   0  0  0  0  0  0  0  0  0  0  0  0  # atno 10763 bound_to 10752
  154.8446  135.4426  154.1531 H   0  0  0  0  0  0  0  0  0  0  0  0  # atno 10764 bound_to 10752
  153.2567  135.6987  153.7699 H   0  0  0  0  0  0  0  0  0  0  0  0  # atno 10765 bound_to 10752
  141.1454  133.7997  157.0379 H   0  0  0  0  0  0  0  0  0  0  0  0  # atno 11005 bound_to 11000
  146.0550  139.3547  143.0616 LP  0  0  0  0  0  0  0  0  0  0  0  0  # atno 17320 bound_to 7965
  145.8167  140.9699  143.0920 LP  0  0  0  0  0  0  0  0  0  0  0  0  # atno 17321 bound_to 7965
  140.6604  143.2250  151.5868 LP  0  0  0  0  0  0  0  0  0  0  0  0  # atno 17342 bound_to 10162
  139.5353  144.2797  152.1239 LP  0  0  0  0  0  0  0  0  0  0  0  0  # atno 17343 bound_to 10162
  157.7135  131.0722  150.6412 LP  0  0  0  0  0  0  0  0  0  0  0  0  # atno 17370 bound_to 10713
  156.6480  130.4477  149.5729 LP  0  0  0  0  0  0  0  0  0  0  0  0  # atno 17371 bound_to 10713
  140.0712  134.9701  157.1470 LP  0  0  0  0  0  0  0  0  0  0  0  0  # atno 17394 bound_to 11000
  140.3708  134.2392  155.7178 LP  0  0  0  0  0  0  0  0  0  0  0  0  # atno 17395 bound_to 11000

$$$$
