AV-unprocessed.smi:1583|AV-procd|sdf|6363|dock1
  -GOLD-   22720 6583D 1   1.00000     0.00000
 Structure written by MMmdl.
 36 37  0  0  0  0  0  0  0  0  1 V2000
  146.2852  143.0310  153.7750 C   0  0  0  0  0  0  0  0  0  0  0  0
  147.4148  142.5131  154.5318 N   0  0  0  0  0  0  0  0  0  0  0  0
  147.4731  141.2787  155.0522 C   0  0  0  0  0  0  0  0  0  0  0  0
  146.5659  140.4542  154.9408 O   0  0  0  0  0  0  0  0  0  0  0  0
  148.7471  140.9145  155.8100 C   0  0  0  0  0  0  0  0  0  0  0  0
  150.1346  142.0062  155.3795 S   0  0  0  0  0  0  0  0  0  0  0  0
  151.0306  142.0072  156.9068 C   0  0  0  0  0  0  0  0  0  0  0  0
  151.2645  143.1118  157.6195 N   0  0  0  0  0  0  0  0  0  0  0  0
  151.9944  142.6421  158.6927 C   0  0  0  0  0  0  0  0  0  0  0  0
  152.5470  143.3262  159.7991 C   0  0  0  0  0  0  0  0  0  0  0  0
  153.2703  142.6223  160.7841 C   0  0  0  0  0  0  0  0  0  0  0  0
  153.4503  141.2280  160.6775 C   0  0  0  0  0  0  0  0  0  0  0  0
  152.9063  140.5275  159.5836 C   0  0  0  0  0  0  0  0  0  0  0  0
  152.1853  141.2356  158.6035 C   0  0  0  0  0  0  0  0  0  0  0  0
  151.5399  140.8626  157.4295 N   0  0  0  0  0  0  0  0  0  0  0  0
  151.4592  139.5104  156.8958 C   0  0  0  0  0  0  0  0  0  0  0  0
  152.1243  139.3968  155.5171 C   0  0  0  0  0  0  0  0  0  0  0  0
  151.1573  139.5932  154.4986 O   0  0  0  0  0  0  0  0  0  0  0  0
  150.3381  138.4553  154.2995 C   0  0  0  0  0  0  0  0  0  0  0  0
  146.4698  144.0679  153.4948 H   0  0  0  0  0  0  0  0  0  0  0  0
  145.3695  142.9955  154.3670 H   0  0  0  0  0  0  0  0  0  0  0  0
  146.1334  142.4528  152.8625 H   0  0  0  0  0  0  0  0  0  0  0  0
  148.2036  143.1289  154.6661 H   0  0  0  0  0  0  0  0  0  0  0  0
  148.5672  140.9631  156.8850 H   0  0  0  0  0  0  0  0  0  0  0  0
  149.0127  139.8840  155.5715 H   0  0  0  0  0  0  0  0  0  0  0  0
  152.4156  144.3944  159.8888 H   0  0  0  0  0  0  0  0  0  0  0  0
  153.6900  143.1548  161.6248 H   0  0  0  0  0  0  0  0  0  0  0  0
  154.0071  140.6966  161.4356 H   0  0  0  0  0  0  0  0  0  0  0  0
  153.0431  139.4598  159.4979 H   0  0  0  0  0  0  0  0  0  0  0  0
  151.9447  138.8332  157.5991 H   0  0  0  0  0  0  0  0  0  0  0  0
  150.4176  139.1951  156.8444 H   0  0  0  0  0  0  0  0  0  0  0  0
  152.9177  140.1403  155.4260 H   0  0  0  0  0  0  0  0  0  0  0  0
  152.5857  138.4141  155.4099 H   0  0  0  0  0  0  0  0  0  0  0  0
  149.6109  138.6610  153.5142 H   0  0  0  0  0  0  0  0  0  0  0  0
  149.7905  138.1992  155.2074 H   0  0  0  0  0  0  0  0  0  0  0  0
  150.9305  137.5925  153.9917 H   0  0  0  0  0  0  0  0  0  0  0  0
  1  2  1  0  0  0  0
  1 20  1  0  0  0  0
  1 21  1  0  0  0  0
  1 22  1  0  0  0  0
  2  3  1  0  0  0  0
  2 23  1  0  0  0  0
  3  4  2  0  0  0  0
  3  5  1  0  0  0  0
  5  6  1  0  0  0  0
  5 24  1  0  0  0  0
  5 25  1  0  0  0  0
  6  7  1  0  0  0  0
  7 15  1  0  0  0  0
  7  8  2  0  0  0  0
  8  9  1  0  0  0  0
  9 14  2  0  0  0  0
  9 10  1  0  0  0  0
 10 11  2  0  0  0  0
 10 26  1  0  0  0  0
 11 12  1  0  0  0  0
 11 27  1  0  0  0  0
 12 13  2  0  0  0  0
 12 28  1  0  0  0  0
 13 14  1  0  0  0  0
 13 29  1  0  0  0  0
 14 15  1  0  0  0  0
 15 16  1  0  0  0  0
 16 17  1  0  0  0  0
 16 30  1  0  0  0  0
 16 31  1  0  0  0  0
 17 18  1  0  0  0  0
 17 32  1  0  0  0  0
 17 33  1  0  0  0  0
 18 19  1  0  0  0  0
 19 34  1  0  0  0  0
 19 35  1  0  0  0  0
 19 36  1  0  0  0  0
M  END
> <s_m_source_file>
AV-unprocessed.smi

> <i_m_source_file_index>
1583

> <i_lp_mmshare_version>
43012

> <i_f3d_flags>
0

> <s_epik_input>
W0NIM11bTkhdQyg9TylbQ0gyXVNjKG4xKW4oW0NIMl1bQ0gyXU9bQ0gzXSljKGMxMilbY0hdW2NIXVtjSF1bY0hdMg==

> <s_epik_cmdline>
J2VwaWtfcHl0aG9uJywgJy1waCcsICc3LjAnLCAnLXRuJywgJzgnLCAnLW1hJywgJzIwMCcsICctbWV0YWxfYmluZGluZycsICctaW1hZScsICc8aW5maWxlLm1hZT4nLCAnLW9tYWUnLCAnPG91dGZpbGUubWFlPic=

> <r_epik_Ionization_Penalty>
0.0356249

> <r_epik_Ionization_Penalty_Charging>
0

> <r_epik_Ionization_Penalty_Neutral>
0.0356249

> <r_epik_State_Penalty>
0.0297112

> <r_epik_Charging_Adjusted_Penalty>
0.0297112

> <i_epik_Tot_Q>
0

> <i_epik_Tot_abs_Q>
0

> <r_epik_Metal_State_Penalty>
0.0280118

> <b_epik_Metal_Only>
0

> <s_lp_Force_Field>
OPLS_2005

> <r_lp_Energy>
5.95406

> <b_lp_Chiralities_Consistent>
1

> <s_lp_Variant>
AV-unprocessed.smi:1583-1

> <Gold.Version>
5.8.1

> <Gold.Id.Protein>
6NUR|6NUR_protein|mol2

> <Gold.PLP.Fitness>
43.9692

> <Gold.PLP.PLP>
-39.4531

> <Gold.PLP.part.hbond>
-2.0000

> <Gold.PLP.part.metal>
0.0000

> <Gold.PLP.part.buried>
-3.8733

> <Gold.PLP.part.nonpolar>
-33.8353

> <Gold.PLP.part.repulsive>
0.4303

> <Gold.PLP.ligand.clash>
0.0000

> <Gold.PLP.ligand.torsion>
0.7578

> <Gold.PLP.Chemscore.Hbond>
1.9920

> <Gold.PLP.Chemscore.CHOScore>
0.0000

> <Gold.PLP.Chemscore.Metal>
0.0000

> <Gold.Chemscore.Hbonds>
donor molecule, donor type, donor heavy atom, donor atom, acceptor molecule, acceptor atom, score
      L1  H     2    23       P1  8028  0.90
      P1  H  7989  7998       L1    18  1.00

> <Gold.PLP.Chemscore.Internal.Correction>
0.0556

> <Gold.Rescore>
     Score         DG    S(hbond)    S(metal)    S(lipo)     H(rot)  DE(clash)    DE(int)     intcor
     16.25     -17.97       1.89        0.00     100.58       2.18       0.78       0.94       ----

> <Gold.Chemscore.Fitness>
16.2539

> <Gold.Chemscore.DG>
-17.9714

> <Gold.Chemscore.ZeroCoef>
-5.4800

> <Gold.Chemscore.Hbond>
1.8896

> <Gold.Chemscore.Metal>
0.0000

> <Gold.Chemscore.Lipo>
100.5777

> <Gold.Chemscore.Internal_Hbond>
0.0000

> <Gold.Chemscore.DEClash>
0.7801

> <Gold.Chemscore.DEInternal>
0.9375

> <Gold.Chemscore.Rot>
2.1826

> <Gold.Chemscore.Internal.Correction>
   9.000000E+99

> <Gold.Chemscore.Hbonds>
donor molecule, donor type, donor heavy atom, donor atom, acceptor molecule, acceptor atom, score
      L1  H     2    23       P1  8028  0.85
      P1  H  7989  7998       L1    18  0.74

> <Gold.Chemscore.Hbond.Weighted>
-6.3113

> <Gold.Chemscore.Metal.Weighted>
-0.0000

> <Gold.Chemscore.Lipo.Weighted>
-11.7676

> <Gold.Chemscore.Internal_Hbond.Weighted>
0.0000

> <Gold.Chemscore.DEClash.Weighted>
0.7801

> <Gold.Chemscore.DEInternal.Weighted>
0.9375

> <Gold.Chemscore.Rot.Weighted>
5.5874

> <Gold.Chemscore.Internal.Correction.Weighted>
   9.000000E+99

> <Gold.Protein.RotatedTorsions>
[ 6907 6896 6895 6894 ] final  -65.94 input  -60.11 | X-H torsion
[ 7974 7965 7964 7962 ] final  -31.49 input  175.53 | X-H torsion
[ 8008 7997 7996 7995 ] final  169.20 input   59.86 | X-H torsion
[ 10167 10162 10161 10158 ] final   64.90 input  -65.29 | X-H torsion
[ 10718 10713 10712 10709 ] final   27.21 input   66.30 | X-H torsion
[ 10763 10752 10751 10750 ] final  -90.88 input  -60.55 | X-H torsion
[ 11005 11000 10999 10996 ] final  151.74 input  -57.11 | X-H torsion

> <Gold.Protein.ActiveResidues>
 VAL166  LYS551  ARG553  GLY616  TRP617  ASP618  TYR619  PRO620  LYS621  CYS622 
 ASP623  PHE694  ASN695  SER759  ASP760  ASP761  ALA762  ILE779  LEU786  VAL792 
 PHE793  MET794  SER795  GLU796  ALA797  LYS798  CYS799  TRP800  GLU811  SER814 

> <Gold.Protein.RotatedAtoms>
  150.7494  134.6090  159.6075 H   0  0  0  0  0  0  0  0  0  0  0  0  # atno 6907 bound_to 6896
  152.3430  134.7106  160.0267 H   0  0  0  0  0  0  0  0  0  0  0  0  # atno 6908 bound_to 6896
  151.7552  133.3294  159.3439 H   0  0  0  0  0  0  0  0  0  0  0  0  # atno 6909 bound_to 6896
  146.1063  140.5674  142.8798 H   0  0  0  0  0  0  0  0  0  0  0  0  # atno 7974 bound_to 7965
  156.1478  140.1570  156.8818 H   0  0  0  0  0  0  0  0  0  0  0  0  # atno 8008 bound_to 7997
  154.5044  140.0817  156.7901 H   0  0  0  0  0  0  0  0  0  0  0  0  # atno 8009 bound_to 7997
  155.3954  140.3412  155.4256 H   0  0  0  0  0  0  0  0  0  0  0  0  # atno 8010 bound_to 7997
  140.1171  144.4765  150.6943 H   0  0  0  0  0  0  0  0  0  0  0  0  # atno 10167 bound_to 10162
  157.2172  130.6961  149.6254 H   0  0  0  0  0  0  0  0  0  0  0  0  # atno 10718 bound_to 10713
  154.6704  135.5288  153.8131 H   0  0  0  0  0  0  0  0  0  0  0  0  # atno 10763 bound_to 10752
  153.0498  135.6527  154.0734 H   0  0  0  0  0  0  0  0  0  0  0  0  # atno 10764 bound_to 10752
  154.0633  135.2960  155.3301 H   0  0  0  0  0  0  0  0  0  0  0  0  # atno 10765 bound_to 10752
  140.1246  134.8841  157.2120 H   0  0  0  0  0  0  0  0  0  0  0  0  # atno 11005 bound_to 11000
  144.7474  140.5102  143.6826 LP  0  0  0  0  0  0  0  0  0  0  0  0  # atno 17320 bound_to 7965
  145.5754  139.1485  143.3265 LP  0  0  0  0  0  0  0  0  0  0  0  0  # atno 17321 bound_to 7965
  140.6893  143.2367  151.5175 LP  0  0  0  0  0  0  0  0  0  0  0  0  # atno 17342 bound_to 10162
  139.5588  144.2208  152.1657 LP  0  0  0  0  0  0  0  0  0  0  0  0  # atno 17343 bound_to 10162
  155.9685  130.4532  150.5802 LP  0  0  0  0  0  0  0  0  0  0  0  0  # atno 17370 bound_to 10713
  157.3613  131.0750  151.1634 LP  0  0  0  0  0  0  0  0  0  0  0  0  # atno 17371 bound_to 10713
  140.2921  134.3229  155.7312 LP  0  0  0  0  0  0  0  0  0  0  0  0  # atno 17394 bound_to 11000
  141.2158  133.7540  156.9517 LP  0  0  0  0  0  0  0  0  0  0  0  0  # atno 17395 bound_to 11000

$$$$
