AV-unprocessed.smi:834|AV-procd|sdf|3884|dock7
  -GOLD-   22720 1343D 1   1.00000     0.00000
 Structure written by MMmdl.
 39 40  0  0  0  0  0  0  0  0  1 V2000
  142.5793  134.5066  152.6914 C   0  0  0  0  0  0  0  0  0  0  0  0
  143.6311  135.5443  152.8885 C   0  0  0  0  0  0  0  0  0  0  0  0
  144.8922  135.2451  153.2236 N   0  0  0  0  0  0  0  0  0  0  0  0
  145.6851  136.3769  153.3524 N   0  0  0  0  0  0  0  0  0  0  0  0
  144.9954  137.5003  153.1110 C   0  0  0  0  0  0  0  0  0  0  0  0
  145.5585  138.8021  153.1770 N   0  0  0  0  0  0  0  0  0  0  0  0
  146.8347  139.1471  153.4231 C   0  0  0  0  0  0  0  0  0  0  0  0
  147.7611  138.3598  153.6177 O   0  0  0  0  0  0  0  0  0  0  0  0
  146.9837  140.4795  153.4295 N   0  0  0  0  0  0  0  0  0  0  0  0
  148.2399  141.1804  153.6711 C   0  0  0  0  0  0  0  0  0  0  0  0
  148.4159  141.5296  155.1620 C   0  0  0  0  0  0  0  0  0  0  0  0
  149.8836  141.5629  155.5995 C   0  0  0  0  0  0  0  0  0  0  0  0
  150.6484  140.6446  155.3025 O   0  0  0  0  0  0  0  0  0  0  0  0
  150.2661  142.6374  156.3067 N   0  0  0  0  0  0  0  0  0  0  0  0
  151.6096  142.8635  156.8336 C   0  0  0  0  0  0  0  0  0  0  0  0
  151.9055  141.9093  158.0068 C   0  0  0  0  0  0  0  0  0  0  0  0
  152.4884  142.7769  159.1235 C   0  0  0  0  0  0  0  0  0  0  0  0
  151.8463  144.1442  158.9131 C   0  0  0  0  0  0  0  0  0  0  0  0
  151.7690  144.2919  157.3930 C   0  0  0  0  0  0  0  0  0  0  0  0
  143.3049  137.2630  152.7018 S   0  0  0  0  0  0  0  0  0  0  0  0
  143.0242  133.5126  152.6369 H   0  0  0  0  0  0  0  0  0  0  0  0
  142.0363  134.6963  151.7653 H   0  0  0  0  0  0  0  0  0  0  0  0
  141.8745  134.5295  153.5224 H   0  0  0  0  0  0  0  0  0  0  0  0
  144.9103  139.5611  153.0278 H   0  0  0  0  0  0  0  0  0  0  0  0
  146.1695  141.0520  153.2601 H   0  0  0  0  0  0  0  0  0  0  0  0
  149.0505  140.5304  153.3394 H   0  0  0  0  0  0  0  0  0  0  0  0
  148.2898  142.0789  153.0529 H   0  0  0  0  0  0  0  0  0  0  0  0
  147.9697  142.5013  155.3771 H   0  0  0  0  0  0  0  0  0  0  0  0
  147.8829  140.7980  155.7716 H   0  0  0  0  0  0  0  0  0  0  0  0
  149.5753  143.3477  156.5009 H   0  0  0  0  0  0  0  0  0  0  0  0
  152.3434  142.7002  156.0419 H   0  0  0  0  0  0  0  0  0  0  0  0
  150.9862  141.4430  158.3656 H   0  0  0  0  0  0  0  0  0  0  0  0
  152.5835  141.1042  157.7217 H   0  0  0  0  0  0  0  0  0  0  0  0
  152.2945  142.3696  160.1163 H   0  0  0  0  0  0  0  0  0  0  0  0
  153.5694  142.8564  159.0011 H   0  0  0  0  0  0  0  0  0  0  0  0
  150.8403  144.1468  159.3351 H   0  0  0  0  0  0  0  0  0  0  0  0
  152.4087  144.9502  159.3857 H   0  0  0  0  0  0  0  0  0  0  0  0
  152.7040  144.7165  157.0248 H   0  0  0  0  0  0  0  0  0  0  0  0
  150.9705  144.9709  157.0901 H   0  0  0  0  0  0  0  0  0  0  0  0
  1  2  1  0  0  0  0
  1 21  1  0  0  0  0
  1 22  1  0  0  0  0
  1 23  1  0  0  0  0
  2 20  1  0  0  0  0
  2  3  2  0  0  0  0
  3  4  1  0  0  0  0
  4  5  2  0  0  0  0
  5  6  1  0  0  0  0
  5 20  1  0  0  0  0
  6  7  1  0  0  0  0
  6 24  1  0  0  0  0
  7  8  2  0  0  0  0
  7  9  1  0  0  0  0
  9 10  1  0  0  0  0
  9 25  1  0  0  0  0
 10 11  1  0  0  0  0
 10 26  1  0  0  0  0
 10 27  1  0  0  0  0
 11 12  1  0  0  0  0
 11 28  1  0  0  0  0
 11 29  1  0  0  0  0
 12 13  2  0  0  0  0
 12 14  1  0  0  0  0
 14 15  1  0  0  0  0
 14 30  1  0  0  0  0
 15 19  1  0  0  0  0
 15 16  1  0  0  0  0
 15 31  1  0  0  0  0
 16 17  1  0  0  0  0
 16 32  1  0  0  0  0
 16 33  1  0  0  0  0
 17 18  1  0  0  0  0
 17 34  1  0  0  0  0
 17 35  1  0  0  0  0
 18 19  1  0  0  0  0
 18 36  1  0  0  0  0
 18 37  1  0  0  0  0
 19 38  1  0  0  0  0
 19 39  1  0  0  0  0
M  END
> <s_m_source_file>
AV-unprocessed.smi

> <i_m_source_file_index>
834

> <i_lp_mmshare_version>
43012

> <i_f3d_flags>
0

> <s_epik_input>
W0NIM11jMW5uYyhzMSlbTkhdQyg9TylbTkhdW0NIMl1bQ0gyXUMoPU8pW05IXVtDSF0yW0NIMl1bQ0gyXVtDSDJdW0NIMl0y

> <s_epik_cmdline>
J2VwaWtfcHl0aG9uJywgJy1waCcsICc3LjAnLCAnLXRuJywgJzgnLCAnLW1hJywgJzIwMCcsICctbWV0YWxfYmluZGluZycsICctaW1hZScsICc8aW5maWxlLm1hZT4nLCAnLW9tYWUnLCAnPG91dGZpbGUubWFlPic=

> <r_lp_tautomer_probability>
1

> <r_epik_Ionization_Penalty>
0.00240541

> <r_epik_Ionization_Penalty_Charging>
0

> <r_epik_Ionization_Penalty_Neutral>
0.00240541

> <r_epik_State_Penalty>
-0

> <r_epik_Charging_Adjusted_Penalty>
0

> <i_epik_Tot_Q>
0

> <i_epik_Tot_abs_Q>
0

> <r_epik_Metal_State_Penalty>
0.349697

> <b_epik_Metal_Only>
0

> <s_lp_Force_Field>
OPLS_2005

> <r_lp_Energy>
16.3225

> <b_lp_Chiralities_Consistent>
1

> <s_lp_Variant>
AV-unprocessed.smi:834-1

> <Gold.Version>
5.8.1

> <Gold.Id.Protein>
6NUR|6NUR_protein|mol2

> <Gold.PLP.Fitness>
39.8491

> <Gold.PLP.PLP>
-33.2101

> <Gold.PLP.part.hbond>
-3.0000

> <Gold.PLP.part.metal>
0.0000

> <Gold.PLP.part.buried>
-2.6450

> <Gold.PLP.part.nonpolar>
-27.6696

> <Gold.PLP.part.repulsive>
1.6015

> <Gold.PLP.ligand.clash>
0.0000

> <Gold.PLP.ligand.torsion>
0.6056

> <Gold.PLP.Chemscore.Hbond>
2.6092

> <Gold.PLP.Chemscore.CHOScore>
0.0000

> <Gold.PLP.Chemscore.Metal>
0.0000

> <Gold.Chemscore.Hbonds>
donor molecule, donor type, donor heavy atom, donor atom, acceptor molecule, acceptor atom, score
      L1  H     6    24       P1 10175  1.00
      L1  H    14    30       P1  8028  0.74
      P1  H  7989  7998       L1    13  0.84

> <Gold.PLP.Chemscore.Internal.Correction>
0.0227

> <Gold.Rescore>
     Score         DG    S(hbond)    S(metal)    S(lipo)     H(rot)  DE(clash)    DE(int)     intcor
     15.24     -18.49       2.49        0.00      83.67       1.99       1.40       1.85       ----

> <Gold.Chemscore.Fitness>
15.2357

> <Gold.Chemscore.DG>
-18.4872

> <Gold.Chemscore.ZeroCoef>
-5.4800

> <Gold.Chemscore.Hbond>
2.4852

> <Gold.Chemscore.Metal>
0.0000

> <Gold.Chemscore.Lipo>
83.6716

> <Gold.Chemscore.Internal_Hbond>
0.0000

> <Gold.Chemscore.DEClash>
1.4005

> <Gold.Chemscore.DEInternal>
1.8510

> <Gold.Chemscore.Rot>
1.9855

> <Gold.Chemscore.Internal.Correction>
   9.000000E+99

> <Gold.Chemscore.Hbonds>
donor molecule, donor type, donor heavy atom, donor atom, acceptor molecule, acceptor atom, score
      L1  H     6    24       P1 10175  0.99
      L1  H    14    30       P1  8028  0.74
      P1  H  7989  7998       L1    13  0.72

> <Gold.Chemscore.Hbond.Weighted>
-8.3004

> <Gold.Chemscore.Metal.Weighted>
-0.0000

> <Gold.Chemscore.Lipo.Weighted>
-9.7896

> <Gold.Chemscore.Internal_Hbond.Weighted>
0.0000

> <Gold.Chemscore.DEClash.Weighted>
1.4005

> <Gold.Chemscore.DEInternal.Weighted>
1.8510

> <Gold.Chemscore.Rot.Weighted>
5.0828

> <Gold.Chemscore.Internal.Correction.Weighted>
   9.000000E+99

> <Gold.Protein.RotatedTorsions>
[ 6907 6896 6895 6894 ] final   51.47 input  -60.11 | X-H torsion
[ 7974 7965 7964 7962 ] final  -16.54 input  175.53 | X-H torsion
[ 8008 7997 7996 7995 ] final  -53.81 input   59.86 | X-H torsion
[ 10167 10162 10161 10158 ] final    1.05 input  -65.29 | X-H torsion
[ 10718 10713 10712 10709 ] final   62.56 input   66.30 | X-H torsion
[ 10763 10752 10751 10750 ] final -140.02 input  -60.55 | X-H torsion
[ 11005 11000 10999 10996 ] final   49.06 input  -57.11 | X-H torsion

> <Gold.Protein.ActiveResidues>
 VAL166  LYS551  ARG553  GLY616  TRP617  ASP618  TYR619  PRO620  LYS621  CYS622 
 ASP623  PHE694  ASN695  SER759  ASP760  ASP761  ALA762  ILE779  LEU786  VAL792 
 PHE793  MET794  SER795  GLU796  ALA797  LYS798  CYS799  TRP800  GLU811  SER814 

> <Gold.Protein.RotatedAtoms>
  152.3130  134.7474  160.0331 H   0  0  0  0  0  0  0  0  0  0  0  0  # atno 6907 bound_to 6896
  151.7948  133.3358  159.3517 H   0  0  0  0  0  0  0  0  0  0  0  0  # atno 6908 bound_to 6896
  150.7330  134.5739  159.5949 H   0  0  0  0  0  0  0  0  0  0  0  0  # atno 6909 bound_to 6896
  146.1983  140.3651  142.8432 H   0  0  0  0  0  0  0  0  0  0  0  0  # atno 7974 bound_to 7965
  154.4144  140.1191  156.5214 H   0  0  0  0  0  0  0  0  0  0  0  0  # atno 8008 bound_to 7997
  155.6699  140.3496  155.4795 H   0  0  0  0  0  0  0  0  0  0  0  0  # atno 8009 bound_to 7997
  155.9642  140.1129  157.0859 H   0  0  0  0  0  0  0  0  0  0  0  0  # atno 8010 bound_to 7997
  140.6701  143.7073  150.7905 H   0  0  0  0  0  0  0  0  0  0  0  0  # atno 10167 bound_to 10162
  157.5910  130.9057  149.9604 H   0  0  0  0  0  0  0  0  0  0  0  0  # atno 10718 bound_to 10713
  154.8591  135.3565  154.5640 H   0  0  0  0  0  0  0  0  0  0  0  0  # atno 10763 bound_to 10752
  153.6255  135.7004  153.5299 H   0  0  0  0  0  0  0  0  0  0  0  0  # atno 10764 bound_to 10752
  153.3093  135.4183  155.1281 H   0  0  0  0  0  0  0  0  0  0  0  0  # atno 10765 bound_to 10752
  140.1136  134.4922  155.8656 H   0  0  0  0  0  0  0  0  0  0  0  0  # atno 11005 bound_to 11000
  144.8627  140.7162  143.6097 LP  0  0  0  0  0  0  0  0  0  0  0  0  # atno 17320 bound_to 7965
  145.3571  139.1691  143.4403 LP  0  0  0  0  0  0  0  0  0  0  0  0  # atno 17321 bound_to 7965
  140.0757  143.5017  152.2556 LP  0  0  0  0  0  0  0  0  0  0  0  0  # atno 17342 bound_to 10162
  139.5965  144.7568  151.3274 LP  0  0  0  0  0  0  0  0  0  0  0  0  # atno 17343 bound_to 10162
  156.0964  130.3659  150.0298 LP  0  0  0  0  0  0  0  0  0  0  0  0  # atno 17370 bound_to 10713
  156.8421  130.9429  151.3631 LP  0  0  0  0  0  0  0  0  0  0  0  0  # atno 17371 bound_to 10713
  141.2136  133.6736  156.6753 LP  0  0  0  0  0  0  0  0  0  0  0  0  # atno 17394 bound_to 11000
  140.3058  134.8127  157.4135 LP  0  0  0  0  0  0  0  0  0  0  0  0  # atno 17395 bound_to 11000

$$$$
