AV-unprocessed.smi:1289|AV-procd|sdf|5385|dock3
  -GOLD-   22720 4533D 1   1.00000     0.00000
 Structure written by MMmdl.
 37 39  0  0  0  0  0  0  0  0  1 V2000
  143.7164  145.9788  156.1164 N   0  0  0  0  0  0  0  0  0  0  0  0
  144.3261  145.0731  155.7334 C   0  0  0  0  0  0  0  0  0  0  0  0
  145.0918  143.9354  155.2520 C   0  0  0  0  0  0  0  0  0  0  0  0
  145.4966  142.9255  156.1467 C   0  0  0  0  0  0  0  0  0  0  0  0
  146.2356  141.8227  155.6767 C   0  0  0  0  0  0  0  0  0  0  0  0
  146.5790  141.7103  154.3139 C   0  0  0  0  0  0  0  0  0  0  0  0
  147.3009  140.5968  153.9417 O   0  0  0  0  0  0  0  0  0  0  0  0
  148.1600  139.9966  154.9033 C   0  0  0  0  0  0  0  0  0  0  0  0
  149.4470  140.8247  155.0497 C   0  0  2  0  0  0  0  0  0  0  0  0
  150.1578  140.8032  153.8275 O   0  0  0  0  0  0  0  0  0  0  0  0
  150.3368  140.3851  156.2289 C   0  0  0  0  0  0  0  0  0  0  0  0
  150.9181  141.5156  156.9297 N   0  0  0  0  0  0  0  0  0  0  0  0
  150.8150  142.8155  156.5925 C   0  0  0  0  0  0  0  0  0  0  0  0
  151.4313  143.6986  157.3729 N   0  0  0  0  0  0  0  0  0  0  0  0
  151.9995  142.8762  158.3306 C   0  0  0  0  0  0  0  0  0  0  0  0
  152.7948  143.1924  159.4553 C   0  0  0  0  0  0  0  0  0  0  0  0
  153.2701  142.1710  160.3040 C   0  0  0  0  0  0  0  0  0  0  0  0
  152.9598  140.8207  160.0413 C   0  0  0  0  0  0  0  0  0  0  0  0
  152.1701  140.4810  158.9258 C   0  0  0  0  0  0  0  0  0  0  0  0
  151.6966  141.5032  158.0824 C   0  0  0  0  0  0  0  0  0  0  0  0
  146.1700  142.7321  153.4198 C   0  0  0  0  0  0  0  0  0  0  0  0
  145.4316  143.8367  153.8882 C   0  0  0  0  0  0  0  0  0  0  0  0
  145.2433  142.9889  157.1952 H   0  0  0  0  0  0  0  0  0  0  0  0
  146.5404  141.0526  156.3701 H   0  0  0  0  0  0  0  0  0  0  0  0
  147.6617  139.8981  155.8695 H   0  0  0  0  0  0  0  0  0  0  0  0
  148.4264  138.9945  154.5637 H   0  0  0  0  0  0  0  0  0  0  0  0
  149.1529  141.8629  155.2086 H   0  0  0  0  0  0  0  0  0  0  0  0
  149.5895  140.4570  153.1563 H   0  0  0  0  0  0  0  0  0  0  0  0
  149.7519  139.8041  156.9432 H   0  0  0  0  0  0  0  0  0  0  0  0
  151.1443  139.7367  155.8868 H   0  0  0  0  0  0  0  0  0  0  0  0
  150.2578  143.1303  155.7223 H   0  0  0  0  0  0  0  0  0  0  0  0
  153.0402  144.2230  159.6651 H   0  0  0  0  0  0  0  0  0  0  0  0
  153.8770  142.4246  161.1610 H   0  0  0  0  0  0  0  0  0  0  0  0
  153.3290  140.0451  160.6963 H   0  0  0  0  0  0  0  0  0  0  0  0
  151.9326  139.4477  158.7202 H   0  0  0  0  0  0  0  0  0  0  0  0
  146.4102  142.6929  152.3684 H   0  0  0  0  0  0  0  0  0  0  0  0
  145.1280  144.6063  153.1929 H   0  0  0  0  0  0  0  0  0  0  0  0
  1  2  3  0  0  0  0
  2  3  1  0  0  0  0
  3 22  1  0  0  0  0
  3  4  2  0  0  0  0
  4  5  1  0  0  0  0
  4 23  1  0  0  0  0
  5  6  2  0  0  0  0
  5 24  1  0  0  0  0
  6  7  1  0  0  0  0
  6 21  1  0  0  0  0
  7  8  1  0  0  0  0
  8  9  1  0  0  0  0
  8 25  1  0  0  0  0
  8 26  1  0  0  0  0
  9 10  1  0  0  0  0
  9 11  1  0  0  0  0
  9 27  1  0  0  0  0
 10 28  1  0  0  0  0
 11 12  1  0  0  0  0
 11 29  1  0  0  0  0
 11 30  1  0  0  0  0
 12 20  1  0  0  0  0
 12 13  1  0  0  0  0
 13 14  2  0  0  0  0
 13 31  1  0  0  0  0
 14 15  1  0  0  0  0
 15 20  2  0  0  0  0
 15 16  1  0  0  0  0
 16 17  2  0  0  0  0
 16 32  1  0  0  0  0
 17 18  1  0  0  0  0
 17 33  1  0  0  0  0
 18 19  2  0  0  0  0
 18 34  1  0  0  0  0
 19 20  1  0  0  0  0
 19 35  1  0  0  0  0
 21 22  2  0  0  0  0
 21 36  1  0  0  0  0
 22 37  1  0  0  0  0
M  END
> <s_m_source_file>
AV-unprocessed.smi

> <i_m_source_file_index>
1289

> <i_lp_mmshare_version>
43012

> <i_f3d_flags>
0

> <s_epik_input>
TiNDYzFbY0hdW2NIXWMoW2NIXVtjSF0xKU9bQ0gyXVtDQEhdKFtPSF0pW0NIMl1uKFtjSF1uMiljKGMyMylbY0hdW2NIXVtjSF1bY0hdMw==

> <s_epik_cmdline>
J2VwaWtfcHl0aG9uJywgJy1waCcsICc3LjAnLCAnLXRuJywgJzgnLCAnLW1hJywgJzIwMCcsICctbWV0YWxfYmluZGluZycsICctaW1hZScsICc8aW5maWxlLm1hZT4nLCAnLW9tYWUnLCAnPG91dGZpbGUubWFlPic=

> <r_epik_Ionization_Penalty>
0.0590811

> <r_epik_Ionization_Penalty_Charging>
0

> <r_epik_Ionization_Penalty_Neutral>
0.0590811

> <r_epik_State_Penalty>
0.0511328

> <r_epik_Charging_Adjusted_Penalty>
0.0511328

> <i_epik_Tot_Q>
0

> <i_epik_Tot_abs_Q>
0

> <r_epik_Metal_State_Penalty>
5.34017e-05

> <b_epik_Metal_Only>
0

> <s_lp_Force_Field>
OPLS_2005

> <r_lp_Energy>
15.8446

> <b_lp_Chiralities_Consistent>
1

> <s_lp_Variant>
AV-unprocessed.smi:1289-1

> <Gold.Version>
5.8.1

> <Gold.Id.Protein>
6NUR|6NUR_protein|mol2

> <Gold.PLP.Fitness>
44.8752

> <Gold.PLP.PLP>
-40.3165

> <Gold.PLP.part.hbond>
-2.0187

> <Gold.PLP.part.metal>
0.0000

> <Gold.PLP.part.buried>
-2.8644

> <Gold.PLP.part.nonpolar>
-35.4464

> <Gold.PLP.part.repulsive>
0.3147

> <Gold.PLP.ligand.clash>
0.0000

> <Gold.PLP.ligand.torsion>
1.0158

> <Gold.PLP.Chemscore.Hbond>
1.1963

> <Gold.PLP.Chemscore.CHOScore>
0.9746

> <Gold.PLP.Chemscore.Metal>
0.0000

> <Gold.Chemscore.Hbonds>
donor molecule, donor type, donor heavy atom, donor atom, acceptor molecule, acceptor atom, score
      L1  H    10    28       P1  7957  0.78
      P1  H  7989  7998       L1    10  0.47
      L1  C    13    31       P1  8028  0.92

> <Gold.PLP.Chemscore.Internal.Correction>
0.0778

> <Gold.Rescore>
     Score         DG    S(hbond)    S(metal)    S(lipo)     H(rot)  DE(clash)    DE(int)     intcor
     12.52     -14.71       1.22        0.00      98.79       2.50       1.18       1.02       ----

> <Gold.Chemscore.Fitness>
12.5191

> <Gold.Chemscore.DG>
-14.7130

> <Gold.Chemscore.ZeroCoef>
-5.4800

> <Gold.Chemscore.Hbond>
1.2165

> <Gold.Chemscore.Metal>
0.0000

> <Gold.Chemscore.Lipo>
98.7874

> <Gold.Chemscore.Internal_Hbond>
0.0000

> <Gold.Chemscore.DEClash>
1.1753

> <Gold.Chemscore.DEInternal>
1.0186

> <Gold.Chemscore.Rot>
2.4954

> <Gold.Chemscore.Internal.Correction>
   9.000000E+99

> <Gold.Chemscore.Hbonds>
donor molecule, donor type, donor heavy atom, donor atom, acceptor molecule, acceptor atom, score
      L1  H    10    28       P1  7957  0.72
      P1  H  7989  7998       L1    10  0.42

> <Gold.Chemscore.Hbond.Weighted>
-4.0632

> <Gold.Chemscore.Metal.Weighted>
-0.0000

> <Gold.Chemscore.Lipo.Weighted>
-11.5581

> <Gold.Chemscore.Internal_Hbond.Weighted>
0.0000

> <Gold.Chemscore.DEClash.Weighted>
1.1753

> <Gold.Chemscore.DEInternal.Weighted>
1.0186

> <Gold.Chemscore.Rot.Weighted>
6.3883

> <Gold.Chemscore.Internal.Correction.Weighted>
   9.000000E+99

> <Gold.Protein.RotatedTorsions>
[ 6907 6896 6895 6894 ] final   68.91 input  -60.11 | X-H torsion
[ 7974 7965 7964 7962 ] final  142.12 input  175.53 | X-H torsion
[ 8008 7997 7996 7995 ] final -164.15 input   59.86 | X-H torsion
[ 10167 10162 10161 10158 ] final -135.76 input  -65.29 | X-H torsion
[ 10718 10713 10712 10709 ] final  167.69 input   66.30 | X-H torsion
[ 10763 10752 10751 10750 ] final   68.89 input  -60.55 | X-H torsion
[ 11005 11000 10999 10996 ] final   45.09 input  -57.11 | X-H torsion

> <Gold.Protein.ActiveResidues>
 VAL166  LYS551  ARG553  GLY616  TRP617  ASP618  TYR619  PRO620  LYS621  CYS622 
 ASP623  PHE694  ASN695  SER759  ASP760  ASP761  ALA762  ILE779  LEU786  VAL792 
 PHE793  MET794  SER795  GLU796  ALA797  LYS798  CYS799  TRP800  GLU811  SER814 

> <Gold.Protein.RotatedAtoms>
  152.4652  134.5093  159.9748 H   0  0  0  0  0  0  0  0  0  0  0  0  # atno 6907 bound_to 6896
  151.5132  133.3475  159.2896 H   0  0  0  0  0  0  0  0  0  0  0  0  # atno 6908 bound_to 6896
  150.8633  134.8019  159.7161 H   0  0  0  0  0  0  0  0  0  0  0  0  # atno 6909 bound_to 6896
  144.9036  139.5389  143.5742 H   0  0  0  0  0  0  0  0  0  0  0  0  # atno 7974 bound_to 7965
  155.8315  140.0934  157.1789 H   0  0  0  0  0  0  0  0  0  0  0  0  # atno 8008 bound_to 7997
  154.3980  140.1418  156.3681 H   0  0  0  0  0  0  0  0  0  0  0  0  # atno 8009 bound_to 7997
  155.8160  140.3448  155.5488 H   0  0  0  0  0  0  0  0  0  0  0  0  # atno 8010 bound_to 7997
  139.8746  143.6915  152.2635 H   0  0  0  0  0  0  0  0  0  0  0  0  # atno 10167 bound_to 10162
  157.0479  131.0305  151.2691 H   0  0  0  0  0  0  0  0  0  0  0  0  # atno 10718 bound_to 10713
  153.0259  135.5230  154.7204 H   0  0  0  0  0  0  0  0  0  0  0  0  # atno 10763 bound_to 10752
  154.6261  135.2894  155.0272 H   0  0  0  0  0  0  0  0  0  0  0  0  # atno 10764 bound_to 10752
  154.1241  135.6603  153.4961 H   0  0  0  0  0  0  0  0  0  0  0  0  # atno 10765 bound_to 10752
  140.1492  134.4484  155.8394 H   0  0  0  0  0  0  0  0  0  0  0  0  # atno 11005 bound_to 11000
  146.3121  139.7786  142.9011 LP  0  0  0  0  0  0  0  0  0  0  0  0  # atno 17320 bound_to 7965
  145.3574  141.0319  143.3304 LP  0  0  0  0  0  0  0  0  0  0  0  0  # atno 17321 bound_to 7965
  139.7252  144.7594  151.0890 LP  0  0  0  0  0  0  0  0  0  0  0  0  # atno 17342 bound_to 10162
  140.7755  143.5157  150.9598 LP  0  0  0  0  0  0  0  0  0  0  0  0  # atno 17343 bound_to 10162
  157.5054  130.7905  149.7648 LP  0  0  0  0  0  0  0  0  0  0  0  0  # atno 17370 bound_to 10713
  156.0017  130.3876  150.2581 LP  0  0  0  0  0  0  0  0  0  0  0  0  # atno 17371 bound_to 10713
  141.2196  133.6865  156.7389 LP  0  0  0  0  0  0  0  0  0  0  0  0  # atno 17394 bound_to 11000
  140.2626  134.8455  157.3773 LP  0  0  0  0  0  0  0  0  0  0  0  0  # atno 17395 bound_to 11000

$$$$
