AV-unprocessed.smi:1967|AV-procd|sdf|7954|dock3
  -GOLD-   2272010123D 1   1.00000     0.00000
 Structure written by MMmdl.
 37 38  0  0  0  0  0  0  0  0  1 V2000
  151.9843  139.9705  154.7195 O   0  0  0  0  0  0  0  0  0  0  0  0
  150.8985  139.0146  154.9858 S   0  0  0  0  0  0  0  0  0  0  0  0
  151.0252  137.5999  154.6030 O   0  0  0  0  0  0  0  0  0  0  0  0
  150.5109  139.0761  156.6624 N   0  0  0  0  0  0  0  0  0  0  0  0
  150.3796  140.3851  157.3001 C   0  0  0  0  0  0  0  0  0  0  0  0
  151.5424  140.6406  158.2722 C   0  0  0  0  0  0  0  0  0  0  0  0
  151.7806  142.1160  158.5443 C   0  0  0  0  0  0  0  0  0  0  0  0
  152.5252  142.5315  159.6693 C   0  0  0  0  0  0  0  0  0  0  0  0
  152.7240  143.9112  159.8705 C   0  0  0  0  0  0  0  0  0  0  0  0
  152.1732  144.8177  158.9442 C   0  0  0  0  0  0  0  0  0  0  0  0
  151.4461  144.3020  157.8528 C   0  0  0  0  0  0  0  0  0  0  0  0
  151.2509  142.9811  157.6501 N   0  0  0  0  0  0  0  0  0  0  0  0
  149.4266  139.6491  154.3266 N   0  0  0  0  0  0  0  0  0  0  0  0
  148.2545  138.7474  154.2978 C   0  0  0  0  0  0  0  0  0  0  0  0
  147.1383  139.2942  153.3925 C   0  0  0  0  0  0  0  0  0  0  0  0
  146.7439  140.7165  153.7976 C   0  0  0  0  0  0  0  0  0  0  0  0
  147.9870  141.6092  153.7673 C   0  0  0  0  0  0  0  0  0  0  0  0
  149.0991  141.0479  154.6693 C   0  0  0  0  0  0  0  0  0  0  0  0
  151.0804  138.4292  157.2077 H   0  0  0  0  0  0  0  0  0  0  0  0
  150.3423  141.1585  156.5321 H   0  0  0  0  0  0  0  0  0  0  0  0
  149.4319  140.4208  157.8381 H   0  0  0  0  0  0  0  0  0  0  0  0
  151.3390  140.1403  159.2200 H   0  0  0  0  0  0  0  0  0  0  0  0
  152.4570  140.1898  157.8847 H   0  0  0  0  0  0  0  0  0  0  0  0
  152.9378  141.8108  160.3603 H   0  0  0  0  0  0  0  0  0  0  0  0
  153.2893  144.2674  160.7191 H   0  0  0  0  0  0  0  0  0  0  0  0
  152.3041  145.8827  159.0663 H   0  0  0  0  0  0  0  0  0  0  0  0
  151.0098  144.9683  157.1235 H   0  0  0  0  0  0  0  0  0  0  0  0
  148.5510  137.7598  153.9460 H   0  0  0  0  0  0  0  0  0  0  0  0
  147.8844  138.6185  155.3158 H   0  0  0  0  0  0  0  0  0  0  0  0
  147.4729  139.2870  152.3542 H   0  0  0  0  0  0  0  0  0  0  0  0
  146.2680  138.6392  153.4413 H   0  0  0  0  0  0  0  0  0  0  0  0
  145.9813  141.1051  153.1221 H   0  0  0  0  0  0  0  0  0  0  0  0
  146.3090  140.7135  154.7979 H   0  0  0  0  0  0  0  0  0  0  0  0
  148.3547  141.6916  152.7435 H   0  0  0  0  0  0  0  0  0  0  0  0
  147.7273  142.6196  154.0843 H   0  0  0  0  0  0  0  0  0  0  0  0
  148.7986  141.0941  155.7169 H   0  0  0  0  0  0  0  0  0  0  0  0
  149.9898  141.6681  154.5690 H   0  0  0  0  0  0  0  0  0  0  0  0
  1  2  2  0  0  0  0
  2  3  2  0  0  0  0
  2  4  1  0  0  0  0
  2 13  1  0  0  0  0
  4  5  1  0  0  0  0
  4 19  1  0  0  0  0
  5  6  1  0  0  0  0
  5 20  1  0  0  0  0
  5 21  1  0  0  0  0
  6  7  1  0  0  0  0
  6 22  1  0  0  0  0
  6 23  1  0  0  0  0
  7 12  1  0  0  0  0
  7  8  2  0  0  0  0
  8  9  1  0  0  0  0
  8 24  1  0  0  0  0
  9 10  2  0  0  0  0
  9 25  1  0  0  0  0
 10 11  1  0  0  0  0
 10 26  1  0  0  0  0
 11 12  2  0  0  0  0
 11 27  1  0  0  0  0
 13 18  1  0  0  0  0
 13 14  1  0  0  0  0
 14 15  1  0  0  0  0
 14 28  1  0  0  0  0
 14 29  1  0  0  0  0
 15 16  1  0  0  0  0
 15 30  1  0  0  0  0
 15 31  1  0  0  0  0
 16 17  1  0  0  0  0
 16 32  1  0  0  0  0
 16 33  1  0  0  0  0
 17 18  1  0  0  0  0
 17 34  1  0  0  0  0
 17 35  1  0  0  0  0
 18 36  1  0  0  0  0
 18 37  1  0  0  0  0
M  END
> <s_m_source_file>
AV-unprocessed.smi

> <i_m_source_file_index>
1967

> <i_lp_mmshare_version>
43012

> <i_f3d_flags>
0

> <s_epik_input>
W0NIMl0xW0NIMl1bQ0gyXVtDSDJdW0NIMl1OMVMoPU8pKD1PKVtOSF1bQ0gyXVtDSDJdYzJbY0hdW2NIXVtjSF1bY0hdbjI=

> <s_epik_cmdline>
J2VwaWtfcHl0aG9uJywgJy1waCcsICc3LjAnLCAnLXRuJywgJzgnLCAnLW1hJywgJzIwMCcsICctbWV0YWxfYmluZGluZycsICctaW1hZScsICc8aW5maWxlLm1hZT4nLCAnLW9tYWUnLCAnPG91dGZpbGUubWFlPic=

> <r_epik_Ionization_Penalty>
0.0252758

> <r_epik_Ionization_Penalty_Charging>
0

> <r_epik_Ionization_Penalty_Neutral>
0.0252758

> <r_epik_State_Penalty>
0.0138562

> <r_epik_Charging_Adjusted_Penalty>
0.0138562

> <i_epik_Tot_Q>
0

> <i_epik_Tot_abs_Q>
0

> <r_epik_Metal_State_Penalty>
0.204365

> <b_epik_Metal_Only>
0

> <s_lp_Force_Field>
OPLS_2005

> <r_lp_Energy>
9.86341

> <b_lp_Chiralities_Consistent>
1

> <s_lp_Variant>
AV-unprocessed.smi:1967-1

> <Gold.Version>
5.8.1

> <Gold.Id.Protein>
6NUR|6NUR_protein|mol2

> <Gold.PLP.Fitness>
40.9781

> <Gold.PLP.PLP>
-36.9746

> <Gold.PLP.part.hbond>
-0.7506

> <Gold.PLP.part.metal>
0.0000

> <Gold.PLP.part.buried>
-5.3481

> <Gold.PLP.part.nonpolar>
-31.5540

> <Gold.PLP.part.repulsive>
0.4812

> <Gold.PLP.ligand.clash>
0.0000

> <Gold.PLP.ligand.torsion>
1.2266

> <Gold.PLP.Chemscore.Hbond>
0.8800

> <Gold.PLP.Chemscore.CHOScore>
0.9946

> <Gold.PLP.Chemscore.Metal>
0.0000

> <Gold.Chemscore.Hbonds>
donor molecule, donor type, donor heavy atom, donor atom, acceptor molecule, acceptor atom, score
      P1  H  7989  7998       L1     1  0.86
      L1  C    11    27       P1  8028  0.96

> <Gold.PLP.Chemscore.Internal.Correction>
0.8329

> <Gold.Rescore>
     Score         DG    S(hbond)    S(metal)    S(lipo)     H(rot)  DE(clash)    DE(int)     intcor
     15.00     -16.22       0.96        0.00     101.39       1.69       0.02       1.20       ----

> <Gold.Chemscore.Fitness>
14.9990

> <Gold.Chemscore.DG>
-16.2170

> <Gold.Chemscore.ZeroCoef>
-5.4800

> <Gold.Chemscore.Hbond>
0.9578

> <Gold.Chemscore.Metal>
0.0000

> <Gold.Chemscore.Lipo>
101.3858

> <Gold.Chemscore.Internal_Hbond>
0.0000

> <Gold.Chemscore.DEClash>
0.0230

> <Gold.Chemscore.DEInternal>
1.1950

> <Gold.Chemscore.Rot>
1.6891

> <Gold.Chemscore.Internal.Correction>
   9.000000E+99

> <Gold.Chemscore.Hbonds>
donor molecule, donor type, donor heavy atom, donor atom, acceptor molecule, acceptor atom, score
      P1  H  7989  7998       L1     1  0.66

> <Gold.Chemscore.Hbond.Weighted>
-3.1990

> <Gold.Chemscore.Metal.Weighted>
-0.0000

> <Gold.Chemscore.Lipo.Weighted>
-11.8621

> <Gold.Chemscore.Internal_Hbond.Weighted>
0.0000

> <Gold.Chemscore.DEClash.Weighted>
0.0230

> <Gold.Chemscore.DEInternal.Weighted>
1.1950

> <Gold.Chemscore.Rot.Weighted>
4.3241

> <Gold.Chemscore.Internal.Correction.Weighted>
   9.000000E+99

> <Gold.Protein.RotatedTorsions>
[ 6907 6896 6895 6894 ] final   48.00 input  -60.11 | X-H torsion
[ 7974 7965 7964 7962 ] final    5.86 input  175.53 | X-H torsion
[ 8008 7997 7996 7995 ] final   17.32 input   59.86 | X-H torsion
[ 10167 10162 10161 10158 ] final   17.86 input  -65.29 | X-H torsion
[ 10718 10713 10712 10709 ] final   44.95 input   66.30 | X-H torsion
[ 10763 10752 10751 10750 ] final    4.25 input  -60.55 | X-H torsion
[ 11005 11000 10999 10996 ] final -173.24 input  -57.11 | X-H torsion

> <Gold.Protein.ActiveResidues>
 VAL166  LYS551  ARG553  GLY616  TRP617  ASP618  TYR619  PRO620  LYS621  CYS622 
 ASP623  PHE694  ASN695  SER759  ASP760  ASP761  ALA762  ILE779  LEU786  VAL792 
 PHE793  MET794  SER795  GLU796  ALA797  LYS798  CYS799  TRP800  GLU811  SER814 

> <Gold.Protein.RotatedAtoms>
  152.2745  134.7896  160.0407 H   0  0  0  0  0  0  0  0  0  0  0  0  # atno 6907 bound_to 6896
  151.8497  133.3432  159.3677 H   0  0  0  0  0  0  0  0  0  0  0  0  # atno 6908 bound_to 6896
  150.7165  134.5239  159.5711 H   0  0  0  0  0  0  0  0  0  0  0  0  # atno 6909 bound_to 6896
  146.2438  140.0320  142.8389 H   0  0  0  0  0  0  0  0  0  0  0  0  # atno 7974 bound_to 7965
  154.8897  140.2985  155.5378 H   0  0  0  0  0  0  0  0  0  0  0  0  # atno 8008 bound_to 7997
  156.3021  140.2427  156.3845 H   0  0  0  0  0  0  0  0  0  0  0  0  # atno 8009 bound_to 7997
  154.8631  140.0404  157.1667 H   0  0  0  0  0  0  0  0  0  0  0  0  # atno 8010 bound_to 7997
  140.5696  143.9187  150.6702 H   0  0  0  0  0  0  0  0  0  0  0  0  # atno 10167 bound_to 10162
  157.4323  130.8032  149.7615 H   0  0  0  0  0  0  0  0  0  0  0  0  # atno 10718 bound_to 10713
  153.2735  135.6934  153.7457 H   0  0  0  0  0  0  0  0  0  0  0  0  # atno 10763 bound_to 10752
  153.6471  135.3383  155.3090 H   0  0  0  0  0  0  0  0  0  0  0  0  # atno 10764 bound_to 10752
  154.8472  135.4445  154.1765 H   0  0  0  0  0  0  0  0  0  0  0  0  # atno 10765 bound_to 10752
  140.4880  134.6012  157.4944 H   0  0  0  0  0  0  0  0  0  0  0  0  # atno 11005 bound_to 11000
  145.1146  140.9426  143.4636 LP  0  0  0  0  0  0  0  0  0  0  0  0  # atno 17320 bound_to 7965
  145.0542  139.3157  143.5913 LP  0  0  0  0  0  0  0  0  0  0  0  0  # atno 17321 bound_to 7965
  140.2659  143.3491  152.1282 LP  0  0  0  0  0  0  0  0  0  0  0  0  # atno 17342 bound_to 10162
  139.5110  144.6894  151.5801 LP  0  0  0  0  0  0  0  0  0  0  0  0  # atno 17343 bound_to 10162
  155.9918  130.3935  150.2970 LP  0  0  0  0  0  0  0  0  0  0  0  0  # atno 17370 bound_to 10713
  157.1128  131.0226  151.3041 LP  0  0  0  0  0  0  0  0  0  0  0  0  # atno 17371 bound_to 10713
  139.9786  134.7174  155.9901 LP  0  0  0  0  0  0  0  0  0  0  0  0  # atno 17394 bound_to 11000
  141.1498  133.6550  156.3979 LP  0  0  0  0  0  0  0  0  0  0  0  0  # atno 17395 bound_to 11000

$$$$
