AV-unprocessed.smi:99|AV-procd|sdf|870|dock8
  -GOLD-   2262017333D 1   1.00000     0.00000
 Structure written by MMmdl.
 53 56  0  0  0  0  0  0  0  0  1 V2000
  149.5856  136.1657  158.3301 O   0  0  0  0  0  0  0  0  0  0  0  0
  148.8361  136.7892  159.0845 C   0  0  0  0  0  0  0  0  0  0  0  0
  148.7369  138.1328  159.0931 O   0  0  0  0  0  0  0  0  0  0  0  0
  149.6237  138.9127  158.3087 C   0  0  0  0  0  0  0  0  0  0  0  0
  149.2079  138.8261  156.8340 C   0  0  1  0  0  0  0  0  0  0  0  0
  147.9521  139.4514  156.6187 O   0  0  0  0  0  0  0  0  0  0  0  0
  147.8240  139.7294  155.2603 C   0  0  1  0  0  0  0  0  0  0  0  0
  147.0616  141.0291  155.1330 N   0  0  0  0  0  0  0  0  0  0  0  0
  146.5725  141.6666  156.2648 C   0  0  0  0  0  0  0  0  0  0  0  0
  145.8520  142.8115  156.2193 C   0  0  0  0  0  0  0  0  0  0  0  0
  145.5414  143.4381  154.9392 C   0  0  0  0  0  0  0  0  0  0  0  0
  144.9010  144.4772  154.7950 O   0  0  0  0  0  0  0  0  0  0  0  0
  146.0357  142.7545  153.8246 N   0  0  0  0  0  0  0  0  0  0  0  0
  146.7758  141.5711  153.8593 C   0  0  0  0  0  0  0  0  0  0  0  0
  147.1528  141.0579  152.8068 O   0  0  0  0  0  0  0  0  0  0  0  0
  149.2381  139.8371  154.6589 C   0  0  2  0  0  0  0  0  0  0  0  0
  149.4674  138.8764  153.6480 O   0  0  0  0  0  0  0  0  0  0  0  0
  150.1436  139.5447  155.8546 C   0  0  1  0  0  0  0  0  0  0  0  0
  150.6257  140.7550  156.4282 O   0  0  0  0  0  0  0  0  0  0  0  0
  151.7173  140.7671  157.2205 C   0  0  0  0  0  0  0  0  0  0  0  0
  152.5051  139.8242  157.3142 O   0  0  0  0  0  0  0  0  0  0  0  0
  151.8734  142.0509  157.9623 C   0  0  0  0  0  0  0  0  0  0  0  0
  152.5807  142.0626  159.1870 C   0  0  0  0  0  0  0  0  0  0  0  0
  152.7474  143.2615  159.9073 C   0  0  0  0  0  0  0  0  0  0  0  0
  152.2093  144.4632  159.4112 C   0  0  0  0  0  0  0  0  0  0  0  0
  151.5036  144.4649  158.1940 C   0  0  0  0  0  0  0  0  0  0  0  0
  151.3353  143.2672  157.4724 C   0  0  0  0  0  0  0  0  0  0  0  0
  147.9423  136.1341  160.0827 C   0  0  0  0  0  0  0  0  0  0  0  0
  147.3968  136.9054  161.1356 C   0  0  0  0  0  0  0  0  0  0  0  0
  146.5503  136.3149  162.0939 C   0  0  0  0  0  0  0  0  0  0  0  0
  146.2388  134.9453  162.0110 C   0  0  0  0  0  0  0  0  0  0  0  0
  146.7743  134.1672  160.9681 C   0  0  0  0  0  0  0  0  0  0  0  0
  147.6210  134.7563  160.0086 C   0  0  0  0  0  0  0  0  0  0  0  0
  145.8381  143.1492  152.9167 H   0  0  0  0  0  0  0  0  0  0  0  0
  149.6245  139.9502  158.6466 H   0  0  0  0  0  0  0  0  0  0  0  0
  150.6357  138.5244  158.4317 H   0  0  0  0  0  0  0  0  0  0  0  0
  149.1271  137.7803  156.5312 H   0  0  0  0  0  0  0  0  0  0  0  0
  147.2338  138.9333  154.8047 H   0  0  0  0  0  0  0  0  0  0  0  0
  146.7639  141.2344  157.2344 H   0  0  0  0  0  0  0  0  0  0  0  0
  145.4993  143.2633  157.1352 H   0  0  0  0  0  0  0  0  0  0  0  0
  149.4124  140.8275  154.2360 H   0  0  0  0  0  0  0  0  0  0  0  0
  149.8200  139.3147  152.8887 H   0  0  0  0  0  0  0  0  0  0  0  0
  150.9861  138.9017  155.5932 H   0  0  0  0  0  0  0  0  0  0  0  0
  153.0030  141.1523  159.5876 H   0  0  0  0  0  0  0  0  0  0  0  0
  153.2893  143.2583  160.8415 H   0  0  0  0  0  0  0  0  0  0  0  0
  152.3364  145.3822  159.9644 H   0  0  0  0  0  0  0  0  0  0  0  0
  151.0896  145.3867  157.8125 H   0  0  0  0  0  0  0  0  0  0  0  0
  150.7876  143.3049  156.5420 H   0  0  0  0  0  0  0  0  0  0  0  0
  147.6220  137.9588  161.2204 H   0  0  0  0  0  0  0  0  0  0  0  0
  146.1400  136.9141  162.8933 H   0  0  0  0  0  0  0  0  0  0  0  0
  145.5901  134.4922  162.7460 H   0  0  0  0  0  0  0  0  0  0  0  0
  146.5356  133.1161  160.9031 H   0  0  0  0  0  0  0  0  0  0  0  0
  148.0145  134.1302  159.2213 H   0  0  0  0  0  0  0  0  0  0  0  0
  1  2  2  0  0  0  0
  2  3  1  0  0  0  0
  2 28  1  0  0  0  0
  3  4  1  0  0  0  0
  4  5  1  0  0  0  0
  4 35  1  0  0  0  0
  4 36  1  0  0  0  0
  5 18  1  0  0  0  0
  5  6  1  0  0  0  0
  5 37  1  0  0  0  0
  6  7  1  0  0  0  0
  7  8  1  0  0  0  0
  7 16  1  0  0  0  0
  7 38  1  0  0  0  0
  8 14  1  0  0  0  0
  8  9  1  0  0  0  0
  9 10  2  0  0  0  0
  9 39  1  0  0  0  0
 10 11  1  0  0  0  0
 10 40  1  0  0  0  0
 11 12  2  0  0  0  0
 11 13  1  0  0  0  0
 13 34  1  0  0  0  0
 13 14  1  0  0  0  0
 14 15  2  0  0  0  0
 16 17  1  0  0  0  0
 16 18  1  0  0  0  0
 16 41  1  0  0  0  0
 17 42  1  0  0  0  0
 18 19  1  0  0  0  0
 18 43  1  0  0  0  0
 19 20  1  0  0  0  0
 20 21  2  0  0  0  0
 20 22  1  0  0  0  0
 22 27  1  0  0  0  0
 22 23  2  0  0  0  0
 23 24  1  0  0  0  0
 23 44  1  0  0  0  0
 24 25  2  0  0  0  0
 24 45  1  0  0  0  0
 25 26  1  0  0  0  0
 25 46  1  0  0  0  0
 26 27  2  0  0  0  0
 26 47  1  0  0  0  0
 27 48  1  0  0  0  0
 28 33  1  0  0  0  0
 28 29  2  0  0  0  0
 29 30  1  0  0  0  0
 29 49  1  0  0  0  0
 30 31  2  0  0  0  0
 30 50  1  0  0  0  0
 31 32  1  0  0  0  0
 31 51  1  0  0  0  0
 32 33  2  0  0  0  0
 32 52  1  0  0  0  0
 33 53  1  0  0  0  0
M  END
> <s_m_source_file>
AV-unprocessed.smi

> <i_m_source_file_index>
99

> <i_lp_mmshare_version>
43012

> <i_f3d_flags>
0

> <s_epik_input>
W2NIXTFbY0hdW2NIXVtjSF1bY0hdYzFDKD1PKU9bQ0gyXVtDQEBIXTJPW0NAQEhdKG4zW2NIXVtjSF1jKD1PKVtuSF1jMz1PKVtDQEBIXShbT0hdKVtDQEhdMk9DKD1PKWM0W2NIXVtjSF1bY0hdW2NIXVtjSF00

> <s_epik_cmdline>
J2VwaWtfcHl0aG9uJywgJy1waCcsICc3LjAnLCAnLXRuJywgJzgnLCAnLW1hJywgJzIwMCcsICctbWV0YWxfYmluZGluZycsICctaW1hZScsICc8aW5maWxlLm1hZT4nLCAnLW9tYWUnLCAnPG91dGZpbGUubWFlPic=

> <r_lp_tautomer_probability>
1

> <r_epik_Ionization_Penalty>
0.00454555

> <r_epik_Ionization_Penalty_Charging>
0.0045191

> <r_epik_Ionization_Penalty_Neutral>
2.64449e-05

> <r_epik_State_Penalty>
-0

> <r_epik_Charging_Adjusted_Penalty>
0.0045191

> <i_epik_Tot_Q>
0

> <i_epik_Tot_abs_Q>
0

> <r_epik_Metal_State_Penalty>
1.27877

> <b_epik_Metal_Only>
0

> <s_epik_Chemistry_Notes>
This compound has an ester and may undergo hydrolysis at high or low pH. This compound contains an acetal/aminal-like group ( X-CH(R)-Y where X, Y are N, S, or O) that may be acid/base labile, releasing an aldehyde.

> <s_lp_Force_Field>
OPLS_2005

> <r_lp_Energy>
31.5911

> <b_lp_Chiralities_Consistent>
1

> <s_lp_Variant>
AV-unprocessed.smi:99-6

> <Gold.Version>
5.8.1

> <Gold.Id.Protein>
6NUR|6NUR_protein|mol2

> <Gold.PLP.Fitness>
63.9909

> <Gold.PLP.PLP>
-56.2387

> <Gold.PLP.part.hbond>
-5.3786

> <Gold.PLP.part.metal>
0.0000

> <Gold.PLP.part.buried>
-7.5757

> <Gold.PLP.part.nonpolar>
-44.1948

> <Gold.PLP.part.repulsive>
0.5983

> <Gold.PLP.ligand.clash>
0.0000

> <Gold.PLP.ligand.torsion>
0.9399

> <Gold.PLP.Chemscore.Hbond>
3.0000

> <Gold.PLP.Chemscore.CHOScore>
0.0000

> <Gold.PLP.Chemscore.Metal>
0.0000

> <Gold.Chemscore.Hbonds>
donor molecule, donor type, donor heavy atom, donor atom, acceptor molecule, acceptor atom, score
      L1  H    17    42       P1  7957  1.00
      P1  H  6896  6908       L1     1  0.41
      P1  H  7997  8008       L1    21  1.00

> <Gold.PLP.Chemscore.Internal.Correction>
0.6321

> <Gold.Rescore>
     Score         DG    S(hbond)    S(metal)    S(lipo)     H(rot)  DE(clash)    DE(int)     intcor
     18.57     -21.71       2.89        0.00     125.93       3.19       0.77       2.37       ----

> <Gold.Chemscore.Fitness>
18.5717

> <Gold.Chemscore.DG>
-21.7129

> <Gold.Chemscore.ZeroCoef>
-5.4800

> <Gold.Chemscore.Hbond>
2.8939

> <Gold.Chemscore.Metal>
0.0000

> <Gold.Chemscore.Lipo>
125.9335

> <Gold.Chemscore.Internal_Hbond>
0.0000

> <Gold.Chemscore.DEClash>
0.7689

> <Gold.Chemscore.DEInternal>
2.3723

> <Gold.Chemscore.Rot>
3.1903

> <Gold.Chemscore.Internal.Correction>
   9.000000E+99

> <Gold.Chemscore.Hbonds>
donor molecule, donor type, donor heavy atom, donor atom, acceptor molecule, acceptor atom, score
      L1  H    17    42       P1  7957  0.94
      P1  H  6896  6908       L1     1  0.20
      P1  H  7997  8008       L1    21  0.90

> <Gold.Chemscore.Hbond.Weighted>
-9.6658

> <Gold.Chemscore.Metal.Weighted>
-0.0000

> <Gold.Chemscore.Lipo.Weighted>
-14.7342

> <Gold.Chemscore.Internal_Hbond.Weighted>
0.0000

> <Gold.Chemscore.DEClash.Weighted>
0.7689

> <Gold.Chemscore.DEInternal.Weighted>
2.3723

> <Gold.Chemscore.Rot.Weighted>
8.1671

> <Gold.Chemscore.Internal.Correction.Weighted>
   9.000000E+99

> <Gold.Protein.RotatedTorsions>
[ 6907 6896 6895 6894 ] final -167.45 input  -60.11 | X-H torsion
[ 7974 7965 7964 7962 ] final  -32.89 input  175.53 | X-H torsion
[ 8008 7997 7996 7995 ] final  -57.18 input   59.86 | X-H torsion
[ 10167 10162 10161 10158 ] final -136.92 input  -65.29 | X-H torsion
[ 10718 10713 10712 10709 ] final   15.53 input   66.30 | X-H torsion
[ 10763 10752 10751 10750 ] final  -55.23 input  -60.55 | X-H torsion
[ 11005 11000 10999 10996 ] final  130.43 input  -57.11 | X-H torsion

> <Gold.Protein.ActiveResidues>
 VAL166  LYS551  ARG553  GLY616  TRP617  ASP618  TYR619  PRO620  LYS621  CYS622 
 ASP623  PHE694  ASN695  SER759  ASP760  ASP761  ALA762  ILE779  LEU786  VAL792 
 PHE793  MET794  SER795  GLU796  ALA797  LYS798  CYS799  TRP800  GLU811  SER814 

> <Gold.Protein.RotatedAtoms>
  151.4597  133.3596  159.2807 H   0  0  0  0  0  0  0  0  0  0  0  0  # atno 6907 bound_to 6896
  150.9034  134.8449  159.7386 H   0  0  0  0  0  0  0  0  0  0  0  0  # atno 6908 bound_to 6896
  152.4892  134.4519  159.9629 H   0  0  0  0  0  0  0  0  0  0  0  0  # atno 6909 bound_to 6896
  146.0954  140.5848  142.8845 H   0  0  0  0  0  0  0  0  0  0  0  0  # atno 7974 bound_to 7965
  154.4258  140.1112  156.5757 H   0  0  0  0  0  0  0  0  0  0  0  0  # atno 8008 bound_to 7997
  155.6165  140.3494  155.4620 H   0  0  0  0  0  0  0  0  0  0  0  0  # atno 8009 bound_to 7997
  156.0058  140.1208  157.0493 H   0  0  0  0  0  0  0  0  0  0  0  0  # atno 8010 bound_to 7997
  139.8630  143.7053  152.2648 H   0  0  0  0  0  0  0  0  0  0  0  0  # atno 10167 bound_to 10162
  157.0548  130.6284  149.5774 H   0  0  0  0  0  0  0  0  0  0  0  0  # atno 10718 bound_to 10713
  154.1874  135.6433  153.5050 H   0  0  0  0  0  0  0  0  0  0  0  0  # atno 10763 bound_to 10752
  153.0043  135.5420  154.6451 H   0  0  0  0  0  0  0  0  0  0  0  0  # atno 10764 bound_to 10752
  154.5831  135.2927  155.0686 H   0  0  0  0  0  0  0  0  0  0  0  0  # atno 10765 bound_to 10752
  139.9671  134.9587  156.9292 H   0  0  0  0  0  0  0  0  0  0  0  0  # atno 11005 bound_to 11000
  144.7391  140.4893  143.6882 LP  0  0  0  0  0  0  0  0  0  0  0  0  # atno 17320 bound_to 7965
  145.5958  139.1499  143.3157 LP  0  0  0  0  0  0  0  0  0  0  0  0  # atno 17321 bound_to 7965
  139.7356  144.7572  151.0733 LP  0  0  0  0  0  0  0  0  0  0  0  0  # atno 17342 bound_to 10162
  140.7772  143.5035  150.9742 LP  0  0  0  0  0  0  0  0  0  0  0  0  # atno 17343 bound_to 10162
  155.9996  130.5073  150.7614 LP  0  0  0  0  0  0  0  0  0  0  0  0  # atno 17370 bound_to 10713
  157.5002  131.0918  151.0324 LP  0  0  0  0  0  0  0  0  0  0  0  0  # atno 17371 bound_to 10713
  140.5372  134.0755  155.7331 LP  0  0  0  0  0  0  0  0  0  0  0  0  # atno 17394 bound_to 11000
  141.1351  133.9235  157.2451 LP  0  0  0  0  0  0  0  0  0  0  0  0  # atno 17395 bound_to 11000

$$$$
