AV-unprocessed.smi:2173|AV-procd|sdf|8841|dock1
  -GOLD-   2272012 33D 1   1.00000     0.00000
 Structure written by MMmdl.
 36 37  0  0  0  0  0  0  0  0  2 V2000
  153.3951  140.2021  158.6231 O   0  0  0  0  0  0  0  0  0  0  0  0
  153.6479  140.9448  159.5717 C   0  0  0  0  0  0  0  0  0  0  0  0
  154.6988  140.7637  160.3859 N   0  0  0  0  0  0  0  0  0  0  0  0
  155.6912  139.7001  160.2592 C   0  0  0  0  0  0  0  0  0  0  0  0
  155.1085  138.2833  160.4529 C   0  0  0  0  0  0  0  0  0  0  0  0
  154.8896  137.8980  161.9067 C   0  0  0  0  0  0  0  0  0  0  0  0
  153.9929  136.8755  162.2848 C   0  0  0  0  0  0  0  0  0  0  0  0
  153.8218  136.5811  163.6538 C   0  0  0  0  0  0  0  0  0  0  0  0
  154.5480  137.3152  164.6146 C   0  0  0  0  0  0  0  0  0  0  0  0
  155.4308  138.3252  164.1815 C   0  0  0  0  0  0  0  0  0  0  0  0
  155.5679  138.5761  162.8614 N   0  3  0  0  0  0  0  0  0  0  0  0
  152.7636  142.1647  159.8589 C   0  0  1  0  0  0  0  0  0  0  0  0
  152.8742  142.5898  161.3412 C   0  0  0  0  0  0  0  0  0  0  0  0
  152.2147  143.9322  161.6026 C   0  0  0  0  0  0  0  0  0  0  0  0
  151.8871  144.7967  160.6271 C   0  0  0  0  0  0  0  0  0  0  0  0
  152.1437  144.5315  159.1540 C   0  0  0  0  0  0  0  0  0  0  0  0
  153.1047  143.3481  158.9312 C   0  0  0  0  0  0  0  0  0  0  0  0
  154.8266  141.4175  161.1451 H   0  0  0  0  0  0  0  0  0  0  0  0
  156.1152  139.7774  159.2577 H   0  0  0  0  0  0  0  0  0  0  0  0
  156.5143  139.8704  160.9547 H   0  0  0  0  0  0  0  0  0  0  0  0
  154.1617  138.2026  159.9177 H   0  0  0  0  0  0  0  0  0  0  0  0
  155.7713  137.5479  159.9947 H   0  0  0  0  0  0  0  0  0  0  0  0
  153.4396  136.3258  161.5372 H   0  0  0  0  0  0  0  0  0  0  0  0
  153.1393  135.8031  163.9632 H   0  0  0  0  0  0  0  0  0  0  0  0
  154.4290  137.1069  165.6680 H   0  0  0  0  0  0  0  0  0  0  0  0
  156.0245  138.9370  164.8448 H   0  0  0  0  0  0  0  0  0  0  0  0
  151.7261  141.8853  159.6643 H   0  0  0  0  0  0  0  0  0  0  0  0
  152.3987  141.8415  161.9761 H   0  0  0  0  0  0  0  0  0  0  0  0
  153.9159  142.6599  161.6580 H   0  0  0  0  0  0  0  0  0  0  0  0
  152.0201  144.1875  162.6341 H   0  0  0  0  0  0  0  0  0  0  0  0
  151.4066  145.7313  160.8771 H   0  0  0  0  0  0  0  0  0  0  0  0
  151.1844  144.3333  158.6753 H   0  0  0  0  0  0  0  0  0  0  0  0
  152.5497  145.4316  158.6917 H   0  0  0  0  0  0  0  0  0  0  0  0
  154.1267  143.6793  159.1230 H   0  0  0  0  0  0  0  0  0  0  0  0
  153.0723  143.0425  157.8844 H   0  0  0  0  0  0  0  0  0  0  0  0
  156.2090  139.3144  162.5696 H   0  0  0  0  0  0  0  0  0  0  0  0
  1  2  2  0  0  0  0
  2  3  1  0  0  0  0
  2 12  1  0  0  0  0
  3  4  1  0  0  0  0
  3 18  1  0  0  0  0
  4  5  1  0  0  0  0
  4 19  1  0  0  0  0
  4 20  1  0  0  0  0
  5  6  1  0  0  0  0
  5 21  1  0  0  0  0
  5 22  1  0  0  0  0
  6 11  1  0  0  0  0
  6  7  2  0  0  0  0
  7  8  1  0  0  0  0
  7 23  1  0  0  0  0
  8  9  2  0  0  0  0
  8 24  1  0  0  0  0
  9 10  1  0  0  0  0
  9 25  1  0  0  0  0
 10 11  2  0  0  0  0
 10 26  1  0  0  0  0
 11 36  1  0  0  0  0
 12 17  1  0  0  0  0
 12 13  1  0  0  0  0
 12 27  1  0  0  0  0
 13 14  1  0  0  0  0
 13 28  1  0  0  0  0
 13 29  1  0  0  0  0
 14 15  2  0  0  0  0
 14 30  1  0  0  0  0
 15 16  1  0  0  0  0
 15 31  1  0  0  0  0
 16 17  1  0  0  0  0
 16 32  1  0  0  0  0
 16 33  1  0  0  0  0
 17 34  1  0  0  0  0
 17 35  1  0  0  0  0
M  CHG  1  11   1
M  END
> <s_m_source_file>
AV-unprocessed.smi

> <i_m_source_file_index>
2173

> <i_lp_mmshare_version>
43012

> <i_f3d_flags>
0

> <s_epik_input>
W0NIMl0xW0NIMl1bQ0hdPVtDSF1bQ0gyXVtDQEhdMUMoPU8pW05IXVtDSDJdW0NIMl1jMltjSF1bY0hdW2NIXVtjSF1uMg==

> <s_epik_cmdline>
J2VwaWtfcHl0aG9uJywgJy1waCcsICc3LjAnLCAnLXRuJywgJzgnLCAnLW1hJywgJzIwMCcsICctbWV0YWxfYmluZGluZycsICctaW1hZScsICc8aW5maWxlLm1hZT4nLCAnLW9tYWUnLCAnPG91dGZpbGUubWFlPic=

> <r_epik_Ionization_Penalty>
1.84586

> <r_epik_Ionization_Penalty_Charging>
1.84586

> <r_epik_Ionization_Penalty_Neutral>
1.53635e-08

> <r_epik_State_Penalty>
1.96297

> <r_epik_Charging_Adjusted_Penalty>
3.80883

> <i_epik_Tot_Q>
1

> <i_epik_Tot_abs_Q>
1

> <r_epik_Metal_State_Penalty>
1.98887

> <b_epik_Metal_Only>
0

> <s_lp_Force_Field>
OPLS_2005

> <r_lp_Energy>
13.9489

> <b_lp_Chiralities_Consistent>
1

> <s_lp_Variant>
AV-unprocessed.smi:2173-4

> <Gold.Version>
5.8.1

> <Gold.Id.Protein>
6NUR|6NUR_protein|mol2

> <Gold.PLP.Fitness>
45.9896

> <Gold.PLP.PLP>
-45.0885

> <Gold.PLP.part.hbond>
-1.0000

> <Gold.PLP.part.metal>
0.0000

> <Gold.PLP.part.buried>
-4.3494

> <Gold.PLP.part.nonpolar>
-38.8911

> <Gold.PLP.part.repulsive>
0.0542

> <Gold.PLP.ligand.clash>
0.0000

> <Gold.PLP.ligand.torsion>
1.0161

> <Gold.PLP.Chemscore.Hbond>
0.9600

> <Gold.PLP.Chemscore.CHOScore>
0.0000

> <Gold.PLP.Chemscore.Metal>
0.0000

> <Gold.Chemscore.Hbonds>
donor molecule, donor type, donor heavy atom, donor atom, acceptor molecule, acceptor atom, score
      P1  H  7997  8009       L1     1  0.94

> <Gold.PLP.Chemscore.Internal.Correction>
0.0533

> <Gold.Rescore>
     Score         DG    S(hbond)    S(metal)    S(lipo)     H(rot)  DE(clash)    DE(int)     intcor
     18.32     -18.94       0.91        0.00     121.52       1.48       0.06       0.55       ----

> <Gold.Chemscore.Fitness>
18.3249

> <Gold.Chemscore.DG>
-18.9353

> <Gold.Chemscore.ZeroCoef>
-5.4800

> <Gold.Chemscore.Hbond>
0.9063

> <Gold.Chemscore.Metal>
0.0000

> <Gold.Chemscore.Lipo>
121.5159

> <Gold.Chemscore.Internal_Hbond>
0.0000

> <Gold.Chemscore.DEClash>
0.0572

> <Gold.Chemscore.DEInternal>
0.5532

> <Gold.Chemscore.Rot>
1.4801

> <Gold.Chemscore.Internal.Correction>
   9.000000E+99

> <Gold.Chemscore.Hbonds>
donor molecule, donor type, donor heavy atom, donor atom, acceptor molecule, acceptor atom, score
      P1  H  7997  8009       L1     1  0.87

> <Gold.Chemscore.Hbond.Weighted>
-3.0272

> <Gold.Chemscore.Metal.Weighted>
-0.0000

> <Gold.Chemscore.Lipo.Weighted>
-14.2174

> <Gold.Chemscore.Internal_Hbond.Weighted>
0.0000

> <Gold.Chemscore.DEClash.Weighted>
0.0572

> <Gold.Chemscore.DEInternal.Weighted>
0.5532

> <Gold.Chemscore.Rot.Weighted>
3.7892

> <Gold.Chemscore.Internal.Correction.Weighted>
   9.000000E+99

> <Gold.Protein.RotatedTorsions>
[ 6907 6896 6895 6894 ] final   -7.22 input  -60.11 | X-H torsion
[ 7974 7965 7964 7962 ] final   72.90 input  175.53 | X-H torsion
[ 8008 7997 7996 7995 ] final  146.63 input   59.86 | X-H torsion
[ 10167 10162 10161 10158 ] final -121.40 input  -65.29 | X-H torsion
[ 10718 10713 10712 10709 ] final -100.60 input   66.30 | X-H torsion
[ 10763 10752 10751 10750 ] final  153.65 input  -60.55 | X-H torsion
[ 11005 11000 10999 10996 ] final   98.24 input  -57.11 | X-H torsion

> <Gold.Protein.ActiveResidues>
 VAL166  LYS551  ARG553  GLY616  TRP617  ASP618  TYR619  PRO620  LYS621  CYS622 
 ASP623  PHE694  ASN695  SER759  ASP760  ASP761  ALA762  ILE779  LEU786  VAL792 
 PHE793  MET794  SER795  GLU796  ALA797  LYS798  CYS799  TRP800  GLU811  SER814 

> <Gold.Protein.RotatedAtoms>
  151.4531  135.1031  159.9702 H   0  0  0  0  0  0  0  0  0  0  0  0  # atno 6907 bound_to 6896
  152.4881  133.8422  159.7169 H   0  0  0  0  0  0  0  0  0  0  0  0  # atno 6908 bound_to 6896
  150.9009  133.7061  159.2906 H   0  0  0  0  0  0  0  0  0  0  0  0  # atno 6909 bound_to 6896
  145.7476  139.2746  143.1450 H   0  0  0  0  0  0  0  0  0  0  0  0  # atno 7974 bound_to 7965
  156.2849  140.2177  156.5408 H   0  0  0  0  0  0  0  0  0  0  0  0  # atno 8008 bound_to 7997
  154.7371  140.0490  157.0801 H   0  0  0  0  0  0  0  0  0  0  0  0  # atno 8009 bound_to 7997
  155.0278  140.3131  155.4772 H   0  0  0  0  0  0  0  0  0  0  0  0  # atno 8010 bound_to 7997
  140.0254  143.5301  152.2201 H   0  0  0  0  0  0  0  0  0  0  0  0  # atno 10167 bound_to 10162
  156.0168  130.5335  150.6840 H   0  0  0  0  0  0  0  0  0  0  0  0  # atno 10718 bound_to 10713
  154.1396  135.2821  155.3164 H   0  0  0  0  0  0  0  0  0  0  0  0  # atno 10763 bound_to 10752
  154.6296  135.5439  153.7669 H   0  0  0  0  0  0  0  0  0  0  0  0  # atno 10764 bound_to 10752
  153.0255  135.6459  154.1544 H   0  0  0  0  0  0  0  0  0  0  0  0  # atno 10765 bound_to 10752
  139.8773  134.9040  156.4427 H   0  0  0  0  0  0  0  0  0  0  0  0  # atno 11005 bound_to 11000
  146.0388  140.8186  142.9839 LP  0  0  0  0  0  0  0  0  0  0  0  0  # atno 17320 bound_to 7965
  144.6857  140.2878  143.7282 LP  0  0  0  0  0  0  0  0  0  0  0  0  # atno 17321 bound_to 7965
  139.6111  144.7609  151.2949 LP  0  0  0  0  0  0  0  0  0  0  0  0  # atno 17342 bound_to 10162
  140.7324  143.6823  150.7991 LP  0  0  0  0  0  0  0  0  0  0  0  0  # atno 17343 bound_to 10162
  157.4536  131.0875  151.0820 LP  0  0  0  0  0  0  0  0  0  0  0  0  # atno 17370 bound_to 10713
  157.1328  130.6109  149.5534 LP  0  0  0  0  0  0  0  0  0  0  0  0  # atno 17371 bound_to 10713
  140.8988  133.7794  155.9656 LP  0  0  0  0  0  0  0  0  0  0  0  0  # atno 17394 bound_to 11000
  140.8674  134.2768  157.5207 LP  0  0  0  0  0  0  0  0  0  0  0  0  # atno 17395 bound_to 11000

$$$$
