AV-unprocessed.smi:826|AV-procd|sdf|3852|dock3
  -GOLD-   22720 1303D 1   1.00000     0.00000
 Structure written by MMmdl.
 39 40  0  0  0  0  0  0  0  0  1 V2000
  143.9907  143.6997  162.6154 C   0  0  0  0  0  0  0  0  0  0  0  0
  144.7390  143.1804  161.4357 C   0  0  0  0  0  0  0  0  0  0  0  0
  144.8736  141.8723  161.1870 N   0  0  0  0  0  0  0  0  0  0  0  0
  145.6120  141.6285  160.0373 N   0  0  0  0  0  0  0  0  0  0  0  0
  146.0131  142.7646  159.4505 C   0  0  0  0  0  0  0  0  0  0  0  0
  146.7902  142.8085  158.2631 N   0  0  0  0  0  0  0  0  0  0  0  0
  147.8277  142.0269  157.9164 C   0  0  0  0  0  0  0  0  0  0  0  0
  148.2724  141.0933  158.5853 O   0  0  0  0  0  0  0  0  0  0  0  0
  148.3322  142.3898  156.7274 N   0  0  0  0  0  0  0  0  0  0  0  0
  149.4505  141.7337  156.0520 C   0  0  2  0  0  0  0  0  0  0  0  0
  149.1799  140.2199  156.0422 C   0  0  0  0  0  0  0  0  0  0  0  0
  150.7579  141.9829  156.8200 C   0  0  0  0  0  0  0  0  0  0  0  0
  151.5214  141.0503  157.0767 O   0  0  0  0  0  0  0  0  0  0  0  0
  151.0049  143.2535  157.1724 N   0  0  0  0  0  0  0  0  0  0  0  0
  152.1784  143.7034  157.9152 C   0  0  0  0  0  0  0  0  0  0  0  0
  152.5779  142.6981  159.0162 C   0  0  0  0  0  0  0  0  0  0  0  0
  152.7346  143.5147  160.3003 C   0  0  0  0  0  0  0  0  0  0  0  0
  151.7726  144.6847  160.1213 C   0  0  0  0  0  0  0  0  0  0  0  0
  151.8854  145.0314  158.6368 C   0  0  0  0  0  0  0  0  0  0  0  0
  145.5119  144.2384  160.2613 S   0  0  0  0  0  0  0  0  0  0  0  0
  144.3090  143.1821  163.5206 H   0  0  0  0  0  0  0  0  0  0  0  0
  142.9208  143.5426  162.4774 H   0  0  0  0  0  0  0  0  0  0  0  0
  144.1745  144.7667  162.7426 H   0  0  0  0  0  0  0  0  0  0  0  0
  146.5333  143.5289  157.6048 H   0  0  0  0  0  0  0  0  0  0  0  0
  147.9005  143.1622  156.2418 H   0  0  0  0  0  0  0  0  0  0  0  0
  149.5351  142.0976  155.0259 H   0  0  0  0  0  0  0  0  0  0  0  0
  149.9878  139.6763  155.5507 H   0  0  0  0  0  0  0  0  0  0  0  0
  148.2615  139.9933  155.4996 H   0  0  0  0  0  0  0  0  0  0  0  0
  149.0736  139.8181  157.0513 H   0  0  0  0  0  0  0  0  0  0  0  0
  150.3237  143.9563  156.9239 H   0  0  0  0  0  0  0  0  0  0  0  0
  153.0073  143.8548  157.2211 H   0  0  0  0  0  0  0  0  0  0  0  0
  151.7924  141.9547  159.1633 H   0  0  0  0  0  0  0  0  0  0  0  0
  153.4894  142.1551  158.7652 H   0  0  0  0  0  0  0  0  0  0  0  0
  152.5260  142.9313  161.1972 H   0  0  0  0  0  0  0  0  0  0  0  0
  153.7567  143.8889  160.3756 H   0  0  0  0  0  0  0  0  0  0  0  0
  150.7554  144.3629  160.3488 H   0  0  0  0  0  0  0  0  0  0  0  0
  152.0099  145.5288  160.7696 H   0  0  0  0  0  0  0  0  0  0  0  0
  152.7272  145.7101  158.4933 H   0  0  0  0  0  0  0  0  0  0  0  0
  150.9969  145.5429  158.2641 H   0  0  0  0  0  0  0  0  0  0  0  0
  1  2  1  0  0  0  0
  1 21  1  0  0  0  0
  1 22  1  0  0  0  0
  1 23  1  0  0  0  0
  2 20  1  0  0  0  0
  2  3  2  0  0  0  0
  3  4  1  0  0  0  0
  4  5  2  0  0  0  0
  5  6  1  0  0  0  0
  5 20  1  0  0  0  0
  6  7  1  0  0  0  0
  6 24  1  0  0  0  0
  7  8  2  0  0  0  0
  7  9  1  0  0  0  0
  9 10  1  0  0  0  0
  9 25  1  0  0  0  0
 10 11  1  0  0  0  0
 10 12  1  0  0  0  0
 10 26  1  0  0  0  0
 11 27  1  0  0  0  0
 11 28  1  0  0  0  0
 11 29  1  0  0  0  0
 12 13  2  0  0  0  0
 12 14  1  0  0  0  0
 14 15  1  0  0  0  0
 14 30  1  0  0  0  0
 15 19  1  0  0  0  0
 15 16  1  0  0  0  0
 15 31  1  0  0  0  0
 16 17  1  0  0  0  0
 16 32  1  0  0  0  0
 16 33  1  0  0  0  0
 17 18  1  0  0  0  0
 17 34  1  0  0  0  0
 17 35  1  0  0  0  0
 18 19  1  0  0  0  0
 18 36  1  0  0  0  0
 18 37  1  0  0  0  0
 19 38  1  0  0  0  0
 19 39  1  0  0  0  0
M  END
> <s_m_source_file>
AV-unprocessed.smi

> <i_m_source_file_index>
826

> <i_lp_mmshare_version>
43012

> <i_f3d_flags>
0

> <s_epik_input>
W0NIM11jMW5uYyhzMSlbTkhdQyg9TylbTkhdW0NASF0oW0NIM10pQyg9TylbTkhdW0NIXTJbQ0gyXVtDSDJdW0NIMl1bQ0gyXTI=

> <s_epik_cmdline>
J2VwaWtfcHl0aG9uJywgJy1waCcsICc3LjAnLCAnLXRuJywgJzgnLCAnLW1hJywgJzIwMCcsICctbWV0YWxfYmluZGluZycsICctaW1hZScsICc8aW5maWxlLm1hZT4nLCAnLW9tYWUnLCAnPG91dGZpbGUubWFlPic=

> <r_lp_tautomer_probability>
1

> <r_epik_Ionization_Penalty>
0.00368568

> <r_epik_Ionization_Penalty_Charging>
0

> <r_epik_Ionization_Penalty_Neutral>
0.00368568

> <r_epik_State_Penalty>
-0

> <r_epik_Charging_Adjusted_Penalty>
0

> <i_epik_Tot_Q>
0

> <i_epik_Tot_abs_Q>
0

> <r_epik_Metal_State_Penalty>
0.369753

> <b_epik_Metal_Only>
0

> <s_lp_Force_Field>
OPLS_2005

> <r_lp_Energy>
15.7146

> <b_lp_Chiralities_Consistent>
1

> <s_lp_Variant>
AV-unprocessed.smi:826-1

> <Gold.Version>
5.8.1

> <Gold.Id.Protein>
6NUR|6NUR_protein|mol2

> <Gold.PLP.Fitness>
44.4131

> <Gold.PLP.PLP>
-39.0779

> <Gold.PLP.part.hbond>
-5.0296

> <Gold.PLP.part.metal>
0.0000

> <Gold.PLP.part.buried>
-3.6764

> <Gold.PLP.part.nonpolar>
-30.1710

> <Gold.PLP.part.repulsive>
0.1302

> <Gold.PLP.ligand.clash>
0.0000

> <Gold.PLP.ligand.torsion>
1.0132

> <Gold.PLP.Chemscore.Hbond>
2.4462

> <Gold.PLP.Chemscore.CHOScore>
0.0000

> <Gold.PLP.Chemscore.Metal>
0.0000

> <Gold.Chemscore.Hbonds>
donor molecule, donor type, donor heavy atom, donor atom, acceptor molecule, acceptor atom, score
      L1  H     9    25       P1  8028  0.48
      L1  H    14    30       P1  8028  0.98
      P1  H  6934  6946       L1     4  0.95

> <Gold.PLP.Chemscore.Internal.Correction>
0.0229

> <Gold.Rescore>
     Score         DG    S(hbond)    S(metal)    S(lipo)     H(rot)  DE(clash)    DE(int)     intcor
     12.73     -16.72       1.51        0.00      89.04       1.65       0.13       3.85       ----

> <Gold.Chemscore.Fitness>
12.7350

> <Gold.Chemscore.DG>
-16.7177

> <Gold.Chemscore.ZeroCoef>
-5.4800

> <Gold.Chemscore.Hbond>
1.5070

> <Gold.Chemscore.Metal>
0.0000

> <Gold.Chemscore.Lipo>
89.0402

> <Gold.Chemscore.Internal_Hbond>
0.0000

> <Gold.Chemscore.DEClash>
0.1301

> <Gold.Chemscore.DEInternal>
3.8527

> <Gold.Chemscore.Rot>
1.6458

> <Gold.Chemscore.Internal.Correction>
   9.000000E+99

> <Gold.Chemscore.Hbonds>
donor molecule, donor type, donor heavy atom, donor atom, acceptor molecule, acceptor atom, score
      L1  H     9    25       P1  8028  0.12
      L1  H    14    30       P1  8028  0.87
      P1  H  6934  6946       L1     4  0.17

> <Gold.Chemscore.Hbond.Weighted>
-5.0333

> <Gold.Chemscore.Metal.Weighted>
-0.0000

> <Gold.Chemscore.Lipo.Weighted>
-10.4177

> <Gold.Chemscore.Internal_Hbond.Weighted>
0.0000

> <Gold.Chemscore.DEClash.Weighted>
0.1301

> <Gold.Chemscore.DEInternal.Weighted>
3.8527

> <Gold.Chemscore.Rot.Weighted>
4.2133

> <Gold.Chemscore.Internal.Correction.Weighted>
   9.000000E+99

> <Gold.Protein.RotatedTorsions>
[ 6907 6896 6895 6894 ] final    5.00 input  -60.11 | X-H torsion
[ 7974 7965 7964 7962 ] final  108.66 input  175.53 | X-H torsion
[ 8008 7997 7996 7995 ] final  172.45 input   59.86 | X-H torsion
[ 10167 10162 10161 10158 ] final   -6.61 input  -65.29 | X-H torsion
[ 10718 10713 10712 10709 ] final   87.69 input   66.30 | X-H torsion
[ 10763 10752 10751 10750 ] final  151.36 input  -60.55 | X-H torsion
[ 11005 11000 10999 10996 ] final  -69.94 input  -57.11 | X-H torsion

> <Gold.Protein.ActiveResidues>
 VAL166  LYS551  ARG553  GLY616  TRP617  ASP618  TYR619  PRO620  LYS621  CYS622 
 ASP623  PHE694  ASN695  SER759  ASP760  ASP761  ALA762  ILE779  LEU786  VAL792 
 PHE793  MET794  SER795  GLU796  ALA797  LYS798  CYS799  TRP800  GLU811  SER814 

> <Gold.Protein.RotatedAtoms>
  151.6504  135.1002  160.0159 H   0  0  0  0  0  0  0  0  0  0  0  0  # atno 6907 bound_to 6896
  152.4004  133.6805  159.6320 H   0  0  0  0  0  0  0  0  0  0  0  0  # atno 6908 bound_to 6896
  150.7905  133.8718  159.3302 H   0  0  0  0  0  0  0  0  0  0  0  0  # atno 6909 bound_to 6896
  145.2778  139.2643  143.3932 H   0  0  0  0  0  0  0  0  0  0  0  0  # atno 7974 bound_to 7965
  156.1173  140.1485  156.9254 H   0  0  0  0  0  0  0  0  0  0  0  0  # atno 8008 bound_to 7997
  154.4810  140.0879  156.7419 H   0  0  0  0  0  0  0  0  0  0  0  0  # atno 8009 bound_to 7997
  155.4490  140.3434  155.4301 H   0  0  0  0  0  0  0  0  0  0  0  0  # atno 8010 bound_to 7997
  140.7002  143.6174  150.8645 H   0  0  0  0  0  0  0  0  0  0  0  0  # atno 10167 bound_to 10162
  157.6942  131.0265  150.3161 H   0  0  0  0  0  0  0  0  0  0  0  0  # atno 10718 bound_to 10713
  154.1026  135.2844  155.3248 H   0  0  0  0  0  0  0  0  0  0  0  0  # atno 10763 bound_to 10752
  154.6545  135.5357  153.7945 H   0  0  0  0  0  0  0  0  0  0  0  0  # atno 10764 bound_to 10752
  153.0374  135.6518  154.1188 H   0  0  0  0  0  0  0  0  0  0  0  0  # atno 10765 bound_to 10752
  141.1564  133.6777  156.6677 H   0  0  0  0  0  0  0  0  0  0  0  0  # atno 11005 bound_to 11000
  146.3226  140.3237  142.8635 LP  0  0  0  0  0  0  0  0  0  0  0  0  # atno 17320 bound_to 7965
  144.9279  140.7942  143.5707 LP  0  0  0  0  0  0  0  0  0  0  0  0  # atno 17321 bound_to 7965
  139.9896  143.5862  152.2915 LP  0  0  0  0  0  0  0  0  0  0  0  0  # atno 17342 bound_to 10162
  139.6512  144.7660  151.2144 LP  0  0  0  0  0  0  0  0  0  0  0  0  # atno 17343 bound_to 10162
  156.3656  130.3854  149.7216 LP  0  0  0  0  0  0  0  0  0  0  0  0  # atno 17370 bound_to 10713
  156.4648  130.7969  151.2988 LP  0  0  0  0  0  0  0  0  0  0  0  0  # atno 17371 bound_to 10713
  140.3199  134.8016  157.4244 LP  0  0  0  0  0  0  0  0  0  0  0  0  # atno 17394 bound_to 11000
  140.1106  134.5351  155.8270 LP  0  0  0  0  0  0  0  0  0  0  0  0  # atno 17395 bound_to 11000

$$$$
