AV-unprocessed.smi:2725|AV-procd|sdf|10515|dock3
  -GOLD-   2272014553D 1   1.00000     0.00000
 Structure written by MMmdl.
 44 45  0  0  0  0  0  0  0  0  1 V2000
  148.8743  140.2855  157.2962 O   0  0  0  0  0  0  0  0  0  0  0  0
  149.0233  141.4792  157.0329 C   0  0  0  0  0  0  0  0  0  0  0  0
  149.7246  142.4194  158.0180 C   0  0  0  0  0  0  0  0  0  0  0  0
  151.1769  142.7490  157.6218 C   0  0  0  0  0  0  0  0  0  0  0  0
  151.9229  143.5646  158.6926 C   0  0  0  0  0  0  0  0  0  0  0  0
  151.9631  142.9091  160.0770 C   0  0  0  0  0  0  0  0  0  0  0  0
  152.2487  144.0526  161.0576 C   0  0  0  0  0  0  0  0  0  0  0  0
  151.8506  145.3497  160.3366 C   0  0  0  0  0  0  0  0  0  0  0  0
  151.2862  144.9267  158.9767 C   0  0  0  0  0  0  0  0  0  0  0  0
  148.5924  142.0395  155.8926 N   0  0  0  0  0  0  0  0  0  0  0  0
  147.8953  141.3386  154.8142 C   0  0  2  0  0  0  0  0  0  0  0  0
  148.8436  140.2925  154.1943 C   0  0  0  0  0  0  0  0  0  0  0  0
  149.7027  140.9018  153.2536 O   0  0  0  0  0  0  0  0  0  0  0  0
  147.3652  142.3389  153.7566 C   0  0  0  0  0  0  0  0  0  0  0  0
  146.1965  143.1965  154.2208 C   0  0  0  0  0  0  0  0  0  0  0  0
  145.6623  144.2004  153.3840 C   0  0  0  0  0  0  0  0  0  0  0  0
  144.5752  144.9609  153.8556 C   0  0  0  0  0  0  0  0  0  0  0  0
  144.0676  144.6928  155.1416 C   0  0  0  0  0  0  0  0  0  0  0  0
  144.6730  143.6722  155.9015 C   0  0  0  0  0  0  0  0  0  0  0  0
  145.7146  142.9361  155.4574 N   0  0  0  0  0  0  0  0  0  0  0  0
  149.1372  143.3350  158.0899 H   0  0  0  0  0  0  0  0  0  0  0  0
  149.7146  141.9611  159.0082 H   0  0  0  0  0  0  0  0  0  0  0  0
  151.7203  141.8188  157.4485 H   0  0  0  0  0  0  0  0  0  0  0  0
  151.1917  143.2919  156.6753 H   0  0  0  0  0  0  0  0  0  0  0  0
  152.9483  143.7357  158.3609 H   0  0  0  0  0  0  0  0  0  0  0  0
  150.9914  142.4698  160.3078 H   0  0  0  0  0  0  0  0  0  0  0  0
  152.7067  142.1144  160.1423 H   0  0  0  0  0  0  0  0  0  0  0  0
  151.6970  143.9197  161.9887 H   0  0  0  0  0  0  0  0  0  0  0  0
  153.3096  144.0796  161.3086 H   0  0  0  0  0  0  0  0  0  0  0  0
  151.1265  145.9314  160.9080 H   0  0  0  0  0  0  0  0  0  0  0  0
  152.7324  145.9757  160.1950 H   0  0  0  0  0  0  0  0  0  0  0  0
  151.4944  145.6576  158.1947 H   0  0  0  0  0  0  0  0  0  0  0  0
  150.2027  144.8226  159.0510 H   0  0  0  0  0  0  0  0  0  0  0  0
  148.7610  143.0259  155.7578 H   0  0  0  0  0  0  0  0  0  0  0  0
  147.0300  140.8102  155.2196 H   0  0  0  0  0  0  0  0  0  0  0  0
  149.4779  139.8525  154.9643 H   0  0  0  0  0  0  0  0  0  0  0  0
  148.2954  139.4725  153.7285 H   0  0  0  0  0  0  0  0  0  0  0  0
  149.7812  140.3310  152.5045 H   0  0  0  0  0  0  0  0  0  0  0  0
  148.1730  142.9889  153.4173 H   0  0  0  0  0  0  0  0  0  0  0  0
  147.0495  141.7877  152.8698 H   0  0  0  0  0  0  0  0  0  0  0  0
  146.0718  144.3803  152.4006 H   0  0  0  0  0  0  0  0  0  0  0  0
  144.1387  145.7351  153.2421 H   0  0  0  0  0  0  0  0  0  0  0  0
  143.2352  145.2560  155.5367 H   0  0  0  0  0  0  0  0  0  0  0  0
  144.3107  143.4399  156.8920 H   0  0  0  0  0  0  0  0  0  0  0  0
  1  2  2  0  0  0  0
  2  3  1  0  0  0  0
  2 10  1  0  0  0  0
  3  4  1  0  0  0  0
  3 21  1  0  0  0  0
  3 22  1  0  0  0  0
  4  5  1  0  0  0  0
  4 23  1  0  0  0  0
  4 24  1  0  0  0  0
  5  9  1  0  0  0  0
  5  6  1  0  0  0  0
  5 25  1  0  0  0  0
  6  7  1  0  0  0  0
  6 26  1  0  0  0  0
  6 27  1  0  0  0  0
  7  8  1  0  0  0  0
  7 28  1  0  0  0  0
  7 29  1  0  0  0  0
  8  9  1  0  0  0  0
  8 30  1  0  0  0  0
  8 31  1  0  0  0  0
  9 32  1  0  0  0  0
  9 33  1  0  0  0  0
 10 11  1  0  0  0  0
 10 34  1  0  0  0  0
 11 12  1  0  0  0  0
 11 14  1  0  0  0  0
 11 35  1  0  0  0  0
 12 13  1  0  0  0  0
 12 36  1  0  0  0  0
 12 37  1  0  0  0  0
 13 38  1  0  0  0  0
 14 15  1  0  0  0  0
 14 39  1  0  0  0  0
 14 40  1  0  0  0  0
 15 20  1  0  0  0  0
 15 16  2  0  0  0  0
 16 17  1  0  0  0  0
 16 41  1  0  0  0  0
 17 18  2  0  0  0  0
 17 42  1  0  0  0  0
 18 19  1  0  0  0  0
 18 43  1  0  0  0  0
 19 20  2  0  0  0  0
 19 44  1  0  0  0  0
M  END
> <s_m_source_file>
AV-unprocessed.smi

> <i_m_source_file_index>
2725

> <i_lp_mmshare_version>
43012

> <i_f3d_flags>
0

> <s_epik_input>
W0NIMl0xW0NIMl1bQ0gyXVtDSDJdW0NIXTFbQ0gyXVtDSDJdQyg9TylbTkhdW0NASF0oW0NIMl1bT0hdKVtDSDJdYzJbY0hdW2NIXVtjSF1bY0hdbjI=

> <s_epik_cmdline>
J2VwaWtfcHl0aG9uJywgJy1waCcsICc3LjAnLCAnLXRuJywgJzgnLCAnLW1hJywgJzIwMCcsICctbWV0YWxfYmluZGluZycsICctaW1hZScsICc8aW5maWxlLm1hZT4nLCAnLW9tYWUnLCAnPG91dGZpbGUubWFlPic=

> <r_epik_Ionization_Penalty>
0.0257016

> <r_epik_Ionization_Penalty_Charging>
0

> <r_epik_Ionization_Penalty_Neutral>
0.0257016

> <r_epik_State_Penalty>
0.0209381

> <r_epik_Charging_Adjusted_Penalty>
0.0209381

> <i_epik_Tot_Q>
0

> <i_epik_Tot_abs_Q>
0

> <r_epik_Metal_State_Penalty>
0.0200649

> <b_epik_Metal_Only>
0

> <s_lp_Force_Field>
OPLS_2005

> <r_lp_Energy>
24.7076

> <b_lp_Chiralities_Consistent>
1

> <s_lp_Variant>
AV-unprocessed.smi:2725-1

> <Gold.Version>
5.8.1

> <Gold.Id.Protein>
6NUR|6NUR_protein|mol2

> <Gold.PLP.Fitness>
56.6031

> <Gold.PLP.PLP>
-48.8571

> <Gold.PLP.part.hbond>
-3.3248

> <Gold.PLP.part.metal>
0.0000

> <Gold.PLP.part.buried>
-8.2080

> <Gold.PLP.part.nonpolar>
-37.7879

> <Gold.PLP.part.repulsive>
0.2592

> <Gold.PLP.ligand.clash>
0.0000

> <Gold.PLP.ligand.torsion>
0.5791

> <Gold.PLP.Chemscore.Hbond>
2.9232

> <Gold.PLP.Chemscore.CHOScore>
0.0000

> <Gold.PLP.Chemscore.Metal>
0.0000

> <Gold.Chemscore.Hbonds>
donor molecule, donor type, donor heavy atom, donor atom, acceptor molecule, acceptor atom, score
      L1  H    10    34       P1  8028  1.00
      L1  H    13    38       P1  7957  0.63
      P1  H  7989  7998       L1    13  0.10
      P1  H  8011  8017       L1    13  0.75

> <Gold.PLP.Chemscore.Internal.Correction>
0.1347

> <Gold.Rescore>
     Score         DG    S(hbond)    S(metal)    S(lipo)     H(rot)  DE(clash)    DE(int)     intcor
     19.43     -20.13       1.98        0.00     122.21       2.44       0.02       0.68       ----

> <Gold.Chemscore.Fitness>
19.4299

> <Gold.Chemscore.DG>
-20.1346

> <Gold.Chemscore.ZeroCoef>
-5.4800

> <Gold.Chemscore.Hbond>
1.9780

> <Gold.Chemscore.Metal>
0.0000

> <Gold.Chemscore.Lipo>
122.2111

> <Gold.Chemscore.Internal_Hbond>
0.0000

> <Gold.Chemscore.DEClash>
0.0234

> <Gold.Chemscore.DEInternal>
0.6813

> <Gold.Chemscore.Rot>
2.4416

> <Gold.Chemscore.Internal.Correction>
   9.000000E+99

> <Gold.Chemscore.Hbonds>
donor molecule, donor type, donor heavy atom, donor atom, acceptor molecule, acceptor atom, score
      L1  H    10    34       P1  8028  1.00
      L1  H    13    38       P1  7957  0.60
      P1  H  8011  8017       L1    13  0.09

> <Gold.Chemscore.Hbond.Weighted>
-6.6065

> <Gold.Chemscore.Metal.Weighted>
-0.0000

> <Gold.Chemscore.Lipo.Weighted>
-14.2987

> <Gold.Chemscore.Internal_Hbond.Weighted>
0.0000

> <Gold.Chemscore.DEClash.Weighted>
0.0234

> <Gold.Chemscore.DEInternal.Weighted>
0.6813

> <Gold.Chemscore.Rot.Weighted>
6.2505

> <Gold.Chemscore.Internal.Correction.Weighted>
   9.000000E+99

> <Gold.Protein.RotatedTorsions>
[ 6907 6896 6895 6894 ] final -120.82 input  -60.11 | X-H torsion
[ 7974 7965 7964 7962 ] final -154.25 input  175.53 | X-H torsion
[ 8008 7997 7996 7995 ] final -128.03 input   59.86 | X-H torsion
[ 10167 10162 10161 10158 ] final  173.66 input  -65.29 | X-H torsion
[ 10718 10713 10712 10709 ] final   89.03 input   66.30 | X-H torsion
[ 10763 10752 10751 10750 ] final   47.55 input  -60.55 | X-H torsion
[ 11005 11000 10999 10996 ] final  102.03 input  -57.11 | X-H torsion

> <Gold.Protein.ActiveResidues>
 VAL166  LYS551  ARG553  GLY616  TRP617  ASP618  TYR619  PRO620  LYS621  CYS622 
 ASP623  PHE694  ASN695  SER759  ASP760  ASP761  ALA762  ILE779  LEU786  VAL792 
 PHE793  MET794  SER795  GLU796  ALA797  LYS798  CYS799  TRP800  GLU811  SER814 

> <Gold.Protein.RotatedAtoms>
  150.8427  133.7910  159.3054 H   0  0  0  0  0  0  0  0  0  0  0  0  # atno 6907 bound_to 6896
  151.5606  135.1064  159.9981 H   0  0  0  0  0  0  0  0  0  0  0  0  # atno 6908 bound_to 6896
  152.4488  133.7545  159.6769 H   0  0  0  0  0  0  0  0  0  0  0  0  # atno 6909 bound_to 6896
  144.7699  140.4414  143.5915 H   0  0  0  0  0  0  0  0  0  0  0  0  # atno 7974 bound_to 7965
  155.2559  140.0434  157.2992 H   0  0  0  0  0  0  0  0  0  0  0  0  # atno 8008 bound_to 7997
  154.5740  140.2382  155.8119 H   0  0  0  0  0  0  0  0  0  0  0  0  # atno 8009 bound_to 7997
  156.2144  140.2989  155.9814 H   0  0  0  0  0  0  0  0  0  0  0  0  # atno 8010 bound_to 7997
  139.5116  144.3235  152.0180 H   0  0  0  0  0  0  0  0  0  0  0  0  # atno 10167 bound_to 10162
  157.6953  131.0317  150.3364 H   0  0  0  0  0  0  0  0  0  0  0  0  # atno 10718 bound_to 10713
  152.9799  135.5972  154.3781 H   0  0  0  0  0  0  0  0  0  0  0  0  # atno 10763 bound_to 10752
  154.3449  135.2767  155.2405 H   0  0  0  0  0  0  0  0  0  0  0  0  # atno 10764 bound_to 10752
  154.4470  135.5999  153.6222 H   0  0  0  0  0  0  0  0  0  0  0  0  # atno 10765 bound_to 10752
  139.8775  134.9207  156.4996 H   0  0  0  0  0  0  0  0  0  0  0  0  # atno 11005 bound_to 11000
  145.6356  139.1542  143.2944 LP  0  0  0  0  0  0  0  0  0  0  0  0  # atno 17320 bound_to 7965
  146.1837  140.6456  142.9177 LP  0  0  0  0  0  0  0  0  0  0  0  0  # atno 17321 bound_to 7965
  140.2676  144.3999  150.6163 LP  0  0  0  0  0  0  0  0  0  0  0  0  # atno 17342 bound_to 10162
  140.6112  143.2169  151.6883 LP  0  0  0  0  0  0  0  0  0  0  0  0  # atno 17343 bound_to 10162
  156.3831  130.3884  149.7086 LP  0  0  0  0  0  0  0  0  0  0  0  0  # atno 17370 bound_to 10713
  156.4462  130.7885  151.2906 LP  0  0  0  0  0  0  0  0  0  0  0  0  # atno 17371 bound_to 10713
  140.8599  133.8067  155.9255 LP  0  0  0  0  0  0  0  0  0  0  0  0  # atno 17394 bound_to 11000
  140.9060  134.2320  157.5014 LP  0  0  0  0  0  0  0  0  0  0  0  0  # atno 17395 bound_to 11000

$$$$
