AV-unprocessed.smi:3209|AV-procd|sdf|12271|dock4
  -GOLD-   2272018103D 1   1.00000     0.00000
 Structure written by MMmdl.
 37 39  0  0  0  0  0  0  0  0  2 V2000
  145.2527  142.8294  154.6800 C   0  0  0  0  0  0  0  0  0  0  0  0
  146.5260  142.0554  154.6492 C   0  0  0  0  0  0  0  0  0  0  0  0
  147.3883  142.0081  155.6681 N   0  0  0  0  0  0  0  0  0  0  0  0
  148.5061  141.2147  155.3914 C   0  0  0  0  0  0  0  0  0  0  0  0
  149.5797  141.0515  156.4241 C   0  0  0  0  0  0  0  0  0  0  0  0
  149.1936  141.6820  157.7689 C   0  0  0  0  0  0  0  0  0  0  0  0
  149.7607  143.0391  157.8999 N   0  3  0  0  0  0  0  0  0  0  0  0
  151.2377  143.0848  157.9666 C   0  0  1  0  0  0  0  0  0  0  0  0
  151.8577  144.3647  157.3647 C   0  0  0  0  0  0  0  0  0  0  0  0
  152.7706  144.8646  158.5018 C   0  0  1  0  0  0  0  0  0  0  0  0
  151.8989  145.4935  159.6028 C   0  0  0  0  0  0  0  0  0  0  0  0
  151.2157  144.2658  160.2320 C   0  0  0  0  0  0  0  0  0  0  0  0
  151.7878  143.0903  159.4094 C   0  0  2  0  0  0  0  0  0  0  0  0
  153.2169  143.5644  159.1645 C   0  0  0  0  0  0  0  0  0  0  0  0
  148.4756  140.6549  154.1384 C   0  0  0  0  0  0  0  0  0  0  0  0
  147.0407  141.1070  153.2597 S   0  0  0  0  0  0  0  0  0  0  0  0
  145.2188  143.4801  155.5544 H   0  0  0  0  0  0  0  0  0  0  0  0
  144.4035  142.1472  154.7177 H   0  0  0  0  0  0  0  0  0  0  0  0
  145.1687  143.4447  153.7842 H   0  0  0  0  0  0  0  0  0  0  0  0
  149.7953  139.9918  156.5672 H   0  0  0  0  0  0  0  0  0  0  0  0
  150.5076  141.4998  156.0666 H   0  0  0  0  0  0  0  0  0  0  0  0
  148.1076  141.7372  157.8559 H   0  0  0  0  0  0  0  0  0  0  0  0
  149.5514  141.0582  158.5888 H   0  0  0  0  0  0  0  0  0  0  0  0
  149.4553  143.6025  157.1191 H   0  0  0  0  0  0  0  0  0  0  0  0
  151.6339  142.2084  157.4499 H   0  0  0  0  0  0  0  0  0  0  0  0
  152.4396  144.1227  156.4744 H   0  0  0  0  0  0  0  0  0  0  0  0
  151.1165  145.1139  157.0828 H   0  0  0  0  0  0  0  0  0  0  0  0
  153.5792  145.5128  158.1624 H   0  0  0  0  0  0  0  0  0  0  0  0
  152.5169  146.0073  160.3405 H   0  0  0  0  0  0  0  0  0  0  0  0
  151.1824  146.2147  159.2078 H   0  0  0  0  0  0  0  0  0  0  0  0
  151.5008  144.1722  161.2808 H   0  0  0  0  0  0  0  0  0  0  0  0
  150.1280  144.3277  160.1948 H   0  0  0  0  0  0  0  0  0  0  0  0
  151.7078  142.1255  159.9113 H   0  0  0  0  0  0  0  0  0  0  0  0
  153.7853  142.9122  158.4990 H   0  0  0  0  0  0  0  0  0  0  0  0
  153.7861  143.7199  160.0830 H   0  0  0  0  0  0  0  0  0  0  0  0
  149.2061  140.0052  153.6789 H   0  0  0  0  0  0  0  0  0  0  0  0
  149.3968  143.4441  158.7507 H   0  0  0  0  0  0  0  0  0  0  0  0
  1  2  1  0  0  0  0
  1 17  1  0  0  0  0
  1 18  1  0  0  0  0
  1 19  1  0  0  0  0
  2 16  1  0  0  0  0
  2  3  2  0  0  0  0
  3  4  1  0  0  0  0
  4  5  1  0  0  0  0
  4 15  2  0  0  0  0
  5  6  1  0  0  0  0
  5 20  1  0  0  0  0
  5 21  1  0  0  0  0
  6  7  1  0  0  0  0
  6 22  1  0  0  0  0
  6 23  1  0  0  0  0
  7  8  1  0  0  0  0
  7 24  1  0  0  0  0
  7 37  1  0  0  0  0
  8 13  1  0  0  0  0
  8  9  1  0  0  0  0
  8 25  1  0  0  0  0
  9 10  1  0  0  0  0
  9 26  1  0  0  0  0
  9 27  1  0  0  0  0
 10 14  1  0  0  0  0
 10 11  1  0  0  0  0
 10 28  1  0  0  0  0
 11 12  1  0  0  0  0
 11 29  1  0  0  0  0
 11 30  1  0  0  0  0
 12 13  1  0  0  0  0
 12 31  1  0  0  0  0
 12 32  1  0  0  0  0
 13 14  1  0  0  0  0
 13 33  1  0  0  0  0
 14 34  1  0  0  0  0
 14 35  1  0  0  0  0
 15 16  1  0  0  0  0
 15 36  1  0  0  0  0
M  CHG  1   7   1
M  END
> <s_m_source_file>
AV-unprocessed.smi

> <i_m_source_file_index>
3209

> <i_lp_mmshare_version>
43012

> <i_f3d_flags>
0

> <s_epik_input>
W0NIM11jMW5jKFtjSF1zMSlbQ0gyXVtDSDJdW05IXVtDQEhdKFtDSDJdW0NASF0yMylbQ0BIXShbQ0gyXTMpW0NIMl1bQ0gyXTI=

> <s_epik_cmdline>
J2VwaWtfcHl0aG9uJywgJy1waCcsICc3LjAnLCAnLXRuJywgJzgnLCAnLW1hJywgJzIwMCcsICctbWV0YWxfYmluZGluZycsICctaW1hZScsICc8aW5maWxlLm1hZT4nLCAnLW9tYWUnLCAnPG91dGZpbGUubWFlPic=

> <r_lp_tautomer_probability>
1

> <r_epik_Ionization_Penalty>
0.000342479

> <r_epik_Ionization_Penalty_Charging>
0.000317129

> <r_epik_Ionization_Penalty_Neutral>
2.535e-05

> <r_epik_State_Penalty>
-0

> <r_epik_Charging_Adjusted_Penalty>
0.000317129

> <i_epik_Tot_Q>
1

> <i_epik_Tot_abs_Q>
1

> <r_epik_Metal_State_Penalty>
-0

> <b_epik_Metal_Only>
0

> <s_lp_Force_Field>
OPLS_2005

> <r_lp_Energy>
49.0881

> <b_lp_Chiralities_Consistent>
1

> <s_lp_Variant>
AV-unprocessed.smi:3209-4

> <Gold.Version>
5.8.1

> <Gold.Id.Protein>
6NUR|6NUR_protein|mol2

> <Gold.PLP.Fitness>
47.2638

> <Gold.PLP.PLP>
-40.2135

> <Gold.PLP.part.hbond>
-1.0000

> <Gold.PLP.part.metal>
0.0000

> <Gold.PLP.part.buried>
-5.8004

> <Gold.PLP.part.nonpolar>
-33.7724

> <Gold.PLP.part.repulsive>
0.8704

> <Gold.PLP.ligand.clash>
0.0000

> <Gold.PLP.ligand.torsion>
0.7327

> <Gold.PLP.Chemscore.Hbond>
2.0000

> <Gold.PLP.Chemscore.CHOScore>
0.8333

> <Gold.PLP.Chemscore.Metal>
0.0000

> <Gold.Chemscore.Hbonds>
donor molecule, donor type, donor heavy atom, donor atom, acceptor molecule, acceptor atom, score
      L1  H     7    24       P1  8028  2.00
      L1  C    15    36       P1  7957  0.78

> <Gold.PLP.Chemscore.Internal.Correction>
0.0159

> <Gold.Rescore>
     Score         DG    S(hbond)    S(metal)    S(lipo)     H(rot)  DE(clash)    DE(int)     intcor
     19.31     -20.50       0.97        0.00     129.40       1.31       0.39       0.80       ----

> <Gold.Chemscore.Fitness>
19.3057

> <Gold.Chemscore.DG>
-20.4995

> <Gold.Chemscore.ZeroCoef>
-5.4800

> <Gold.Chemscore.Hbond>
0.9687

> <Gold.Chemscore.Metal>
0.0000

> <Gold.Chemscore.Lipo>
129.4011

> <Gold.Chemscore.Internal_Hbond>
0.0000

> <Gold.Chemscore.DEClash>
0.3901

> <Gold.Chemscore.DEInternal>
0.8037

> <Gold.Chemscore.Rot>
1.3108

> <Gold.Chemscore.Internal.Correction>
   9.000000E+99

> <Gold.Chemscore.Hbonds>
donor molecule, donor type, donor heavy atom, donor atom, acceptor molecule, acceptor atom, score
      L1  H     7    24       P1  8028  0.82

> <Gold.Chemscore.Hbond.Weighted>
-3.2354

> <Gold.Chemscore.Metal.Weighted>
-0.0000

> <Gold.Chemscore.Lipo.Weighted>
-15.1399

> <Gold.Chemscore.Internal_Hbond.Weighted>
0.0000

> <Gold.Chemscore.DEClash.Weighted>
0.3901

> <Gold.Chemscore.DEInternal.Weighted>
0.8037

> <Gold.Chemscore.Rot.Weighted>
3.3558

> <Gold.Chemscore.Internal.Correction.Weighted>
   9.000000E+99

> <Gold.Protein.RotatedTorsions>
[ 6907 6896 6895 6894 ] final -131.49 input  -60.11 | X-H torsion
[ 7974 7965 7964 7962 ] final   -6.51 input  175.53 | X-H torsion
[ 8008 7997 7996 7995 ] final  113.02 input   59.86 | X-H torsion
[ 10167 10162 10161 10158 ] final -174.61 input  -65.29 | X-H torsion
[ 10718 10713 10712 10709 ] final   22.33 input   66.30 | X-H torsion
[ 10763 10752 10751 10750 ] final -151.24 input  -60.55 | X-H torsion
[ 11005 11000 10999 10996 ] final  -96.97 input  -57.11 | X-H torsion

> <Gold.Protein.ActiveResidues>
 VAL166  LYS551  ARG553  GLY616  TRP617  ASP618  TYR619  PRO620  LYS621  CYS622 
 ASP623  PHE694  ASN695  SER759  ASP760  ASP761  ALA762  ILE779  LEU786  VAL792 
 PHE793  MET794  SER795  GLU796  ALA797  LYS798  CYS799  TRP800  GLU811  SER814 

> <Gold.Protein.RotatedAtoms>
  150.9515  133.6544  159.2770 H   0  0  0  0  0  0  0  0  0  0  0  0  # atno 6907 bound_to 6896
  151.3898  135.0953  159.9532 H   0  0  0  0  0  0  0  0  0  0  0  0  # atno 6908 bound_to 6896
  152.5112  133.9032  159.7506 H   0  0  0  0  0  0  0  0  0  0  0  0  # atno 6909 bound_to 6896
  146.2329  140.2180  142.8337 H   0  0  0  0  0  0  0  0  0  0  0  0  # atno 7974 bound_to 7965
  156.2230  140.2988  155.9999 H   0  0  0  0  0  0  0  0  0  0  0  0  # atno 8008 bound_to 7997
  155.2430  140.0423  157.2994 H   0  0  0  0  0  0  0  0  0  0  0  0  # atno 8009 bound_to 7997
  154.5871  140.2391  155.7980 H   0  0  0  0  0  0  0  0  0  0  0  0  # atno 8010 bound_to 7997
  139.5625  144.1835  152.1261 H   0  0  0  0  0  0  0  0  0  0  0  0  # atno 10167 bound_to 10162
  157.1509  130.6674  149.6011 H   0  0  0  0  0  0  0  0  0  0  0  0  # atno 10718 bound_to 10713
  154.8070  135.3265  154.7406 H   0  0  0  0  0  0  0  0  0  0  0  0  # atno 10763 bound_to 10752
  153.8062  135.6899  153.4852 H   0  0  0  0  0  0  0  0  0  0  0  0  # atno 10764 bound_to 10752
  153.1822  135.4582  154.9987 H   0  0  0  0  0  0  0  0  0  0  0  0  # atno 10765 bound_to 10752
  141.1394  133.8136  157.0643 H   0  0  0  0  0  0  0  0  0  0  0  0  # atno 11005 bound_to 11000
  144.9654  140.8316  143.5488 LP  0  0  0  0  0  0  0  0  0  0  0  0  # atno 17320 bound_to 7965
  145.2156  139.2183  143.5120 LP  0  0  0  0  0  0  0  0  0  0  0  0  # atno 17321 bound_to 7965
  140.1352  144.5252  150.6778 LP  0  0  0  0  0  0  0  0  0  0  0  0  # atno 17342 bound_to 10162
  140.6906  143.2374  151.5142 LP  0  0  0  0  0  0  0  0  0  0  0  0  # atno 17343 bound_to 10162
  155.9771  130.4745  150.6570 LP  0  0  0  0  0  0  0  0  0  0  0  0  # atno 17370 bound_to 10713
  157.4221  131.0838  151.1120 LP  0  0  0  0  0  0  0  0  0  0  0  0  # atno 17371 bound_to 10713
  140.0552  134.9784  157.1207 LP  0  0  0  0  0  0  0  0  0  0  0  0  # atno 17394 bound_to 11000
  140.3930  134.2163  155.7165 LP  0  0  0  0  0  0  0  0  0  0  0  0  # atno 17395 bound_to 11000

$$$$
