AV-unprocessed.smi:1047|AV-procd|sdf|4576|dock7
  -GOLD-   22720 3 43D 1   1.00000     0.00000
 Structure written by MMmdl.
 56 58  0  0  0  0  0  0  0  0  2 V2000
  144.5402  136.6987  152.3785 C   0  0  0  0  0  0  0  0  0  0  0  0
  145.8450  137.4999  152.2680 C   0  0  0  0  0  0  0  0  0  0  0  0
  145.8672  138.6785  153.1699 N   0  3  1  0  0  0  0  0  0  0  0  0
  145.2556  138.4219  154.4972 C   0  0  0  0  0  0  0  0  0  0  0  0
  145.2709  139.7000  155.3523 C   0  0  0  0  0  0  0  0  0  0  0  0
  146.6044  140.1755  155.4882 O   0  0  0  0  0  0  0  0  0  0  0  0
  147.1950  140.4924  154.2316 C   0  0  1  0  0  0  0  0  0  0  0  0
  148.5764  141.1245  154.4718 C   0  0  0  0  0  0  0  0  0  0  0  0
  149.4788  140.2201  155.1797 N   0  0  0  0  0  0  0  0  0  0  0  0
  150.7217  140.8592  155.6009 C   0  0  0  0  0  0  0  0  0  0  0  0
  150.5245  141.6621  156.9016 C   0  0  1  0  0  0  0  0  0  0  0  0
  150.7743  140.8050  157.9958 O   0  0  0  0  0  0  0  0  0  0  0  0
  151.4784  142.8654  157.0352 C   0  0  0  0  0  0  0  0  0  0  0  0
  151.4501  143.4566  158.3609 N   0  0  0  0  0  0  0  0  0  0  0  0
  150.7319  144.5261  158.7534 C   0  0  0  0  0  0  0  0  0  0  0  0
  150.8554  144.9110  160.0201 N   0  0  0  0  0  0  0  0  0  0  0  0
  151.7550  143.9791  160.5085 C   0  0  0  0  0  0  0  0  0  0  0  0
  152.3106  143.8298  161.7980 C   0  0  0  0  0  0  0  0  0  0  0  0
  153.2269  142.7907  162.0767 C   0  0  0  0  0  0  0  0  0  0  0  0
  153.7996  142.6675  163.4775 C   0  0  0  0  0  0  0  0  0  0  0  0
  153.6006  141.8800  161.0559 C   0  0  0  0  0  0  0  0  0  0  0  0
  154.5820  140.7546  161.3320 C   0  0  0  0  0  0  0  0  0  0  0  0
  153.0561  142.0159  159.7617 C   0  0  0  0  0  0  0  0  0  0  0  0
  152.1448  143.0535  159.4967 C   0  0  0  0  0  0  0  0  0  0  0  0
  147.2296  139.2393  153.3314 C   0  0  0  0  0  0  0  0  0  0  0  0
  144.5193  135.8972  151.6399 H   0  0  0  0  0  0  0  0  0  0  0  0
  143.6716  137.3332  152.2000 H   0  0  0  0  0  0  0  0  0  0  0  0
  144.4253  136.2361  153.3581 H   0  0  0  0  0  0  0  0  0  0  0  0
  146.7071  136.8609  152.4642 H   0  0  0  0  0  0  0  0  0  0  0  0
  145.9404  137.8401  151.2361 H   0  0  0  0  0  0  0  0  0  0  0  0
  144.2275  138.0800  154.3845 H   0  0  0  0  0  0  0  0  0  0  0  0
  145.8035  137.6271  155.0062 H   0  0  0  0  0  0  0  0  0  0  0  0
  144.6399  140.4719  154.9092 H   0  0  0  0  0  0  0  0  0  0  0  0
  144.8690  139.4922  156.3441 H   0  0  0  0  0  0  0  0  0  0  0  0
  146.5746  141.2497  153.7484 H   0  0  0  0  0  0  0  0  0  0  0  0
  149.0152  141.4089  153.5146 H   0  0  0  0  0  0  0  0  0  0  0  0
  148.4533  142.0468  155.0408 H   0  0  0  0  0  0  0  0  0  0  0  0
  149.0048  139.8330  155.9897 H   0  0  0  0  0  0  0  0  0  0  0  0
  151.5174  140.1228  155.7222 H   0  0  0  0  0  0  0  0  0  0  0  0
  151.0460  141.5297  154.8055 H   0  0  0  0  0  0  0  0  0  0  0  0
  149.4959  142.0199  156.9680 H   0  0  0  0  0  0  0  0  0  0  0  0
  149.9467  140.4749  158.3108 H   0  0  0  0  0  0  0  0  0  0  0  0
  152.5040  142.5588  156.8243 H   0  0  0  0  0  0  0  0  0  0  0  0
  151.2282  143.6347  156.3035 H   0  0  0  0  0  0  0  0  0  0  0  0
  150.0854  145.0547  158.0680 H   0  0  0  0  0  0  0  0  0  0  0  0
  152.0261  144.5239  162.5751 H   0  0  0  0  0  0  0  0  0  0  0  0
  153.5395  141.7025  163.9129 H   0  0  0  0  0  0  0  0  0  0  0  0
  153.4132  143.4463  164.1357 H   0  0  0  0  0  0  0  0  0  0  0  0
  154.8859  142.7567  163.4556 H   0  0  0  0  0  0  0  0  0  0  0  0
  154.7444  140.1418  160.4450 H   0  0  0  0  0  0  0  0  0  0  0  0
  154.2061  140.1044  162.1223 H   0  0  0  0  0  0  0  0  0  0  0  0
  155.5468  141.1564  161.6425 H   0  0  0  0  0  0  0  0  0  0  0  0
  153.3350  141.3308  158.9747 H   0  0  0  0  0  0  0  0  0  0  0  0
  147.8805  138.4744  153.7578 H   0  0  0  0  0  0  0  0  0  0  0  0
  147.6394  139.5013  152.3551 H   0  0  0  0  0  0  0  0  0  0  0  0
  145.3157  139.3965  152.7220 H   0  0  0  0  0  0  0  0  0  0  0  0
  1  2  1  0  0  0  0
  1 26  1  0  0  0  0
  1 27  1  0  0  0  0
  1 28  1  0  0  0  0
  2  3  1  0  0  0  0
  2 29  1  0  0  0  0
  2 30  1  0  0  0  0
  3 25  1  0  0  0  0
  3  4  1  0  0  0  0
  3 56  1  0  0  0  0
  4  5  1  0  0  0  0
  4 31  1  0  0  0  0
  4 32  1  0  0  0  0
  5  6  1  0  0  0  0
  5 33  1  0  0  0  0
  5 34  1  0  0  0  0
  6  7  1  0  0  0  0
  7  8  1  0  0  0  0
  7 25  1  0  0  0  0
  7 35  1  0  0  0  0
  8  9  1  0  0  0  0
  8 36  1  0  0  0  0
  8 37  1  0  0  0  0
  9 10  1  0  0  0  0
  9 38  1  0  0  0  0
 10 11  1  0  0  0  0
 10 39  1  0  0  0  0
 10 40  1  0  0  0  0
 11 12  1  0  0  0  0
 11 13  1  0  0  0  0
 11 41  1  0  0  0  0
 12 42  1  0  0  0  0
 13 14  1  0  0  0  0
 13 43  1  0  0  0  0
 13 44  1  0  0  0  0
 14 24  1  0  0  0  0
 14 15  1  0  0  0  0
 15 16  2  0  0  0  0
 15 45  1  0  0  0  0
 16 17  1  0  0  0  0
 17 24  2  0  0  0  0
 17 18  1  0  0  0  0
 18 19  2  0  0  0  0
 18 46  1  0  0  0  0
 19 20  1  0  0  0  0
 19 21  1  0  0  0  0
 20 47  1  0  0  0  0
 20 48  1  0  0  0  0
 20 49  1  0  0  0  0
 21 22  1  0  0  0  0
 21 23  2  0  0  0  0
 22 50  1  0  0  0  0
 22 51  1  0  0  0  0
 22 52  1  0  0  0  0
 23 24  1  0  0  0  0
 23 53  1  0  0  0  0
 25 54  1  0  0  0  0
 25 55  1  0  0  0  0
M  CHG  1   3   1
M  END
> <s_m_source_file>
AV-unprocessed.smi

> <i_m_source_file_index>
1047

> <i_lp_mmshare_version>
43012

> <i_f3d_flags>
0

> <s_epik_input>
W0NIM11bQ0gyXU4xW0NIMl1bQ0gyXU9bQ0BIXShbQ0gyXTEpW0NIMl1bTkhdW0NIMl1bQ0BIXShbT0hdKVtDSDJdbihbY0hdbjIpYyhjMjMpW2NIXWMoW0NIM10pYyhbY0hdMylbQ0gzXQ==

> <s_epik_cmdline>
J2VwaWtfcHl0aG9uJywgJy1waCcsICc3LjAnLCAnLXRuJywgJzgnLCAnLW1hJywgJzIwMCcsICctbWV0YWxfYmluZGluZycsICctaW1hZScsICc8aW5maWxlLm1hZT4nLCAnLW9tYWUnLCAnPG91dGZpbGUubWFlPic=

> <r_epik_Ionization_Penalty>
1.19246

> <r_epik_Ionization_Penalty_Charging>
0.210041

> <r_epik_Ionization_Penalty_Neutral>
0.982415

> <r_epik_State_Penalty>
1.57595

> <r_epik_Charging_Adjusted_Penalty>
1.78599

> <i_epik_Tot_Q>
1

> <i_epik_Tot_abs_Q>
1

> <r_epik_Metal_State_Penalty>
1.46172

> <b_epik_Metal_Only>
0

> <s_lp_Force_Field>
OPLS_2005

> <r_lp_Energy>
33.3203

> <b_lp_Chiralities_Consistent>
1

> <s_lp_Variant>
AV-unprocessed.smi:1047-17

> <Gold.Version>
5.8.1

> <Gold.Id.Protein>
6NUR|6NUR_protein|mol2

> <Gold.PLP.Fitness>
60.5692

> <Gold.PLP.PLP>
-53.5726

> <Gold.PLP.part.hbond>
-1.0000

> <Gold.PLP.part.metal>
0.0000

> <Gold.PLP.part.buried>
-5.3791

> <Gold.PLP.part.nonpolar>
-47.6364

> <Gold.PLP.part.repulsive>
0.2056

> <Gold.PLP.ligand.clash>
0.0000

> <Gold.PLP.ligand.torsion>
1.0262

> <Gold.PLP.Chemscore.Hbond>
2.0000

> <Gold.PLP.Chemscore.CHOScore>
0.9779

> <Gold.PLP.Chemscore.Metal>
0.0000

> <Gold.Chemscore.Hbonds>
donor molecule, donor type, donor heavy atom, donor atom, acceptor molecule, acceptor atom, score
      L1  H     3    56       P1 10175  2.00
      L1  C    15    45       P1  8028  0.23
      L1  C    15    45       P1  8029  0.77

> <Gold.PLP.Chemscore.Internal.Correction>
0.1153

> <Gold.Rescore>
     Score         DG    S(hbond)    S(metal)    S(lipo)     H(rot)  DE(clash)    DE(int)     intcor
     18.01     -19.24       0.98        0.00     146.98       2.62       0.24       0.99       ----

> <Gold.Chemscore.Fitness>
18.0114

> <Gold.Chemscore.DG>
-19.2392

> <Gold.Chemscore.ZeroCoef>
-5.4800

> <Gold.Chemscore.Hbond>
0.9795

> <Gold.Chemscore.Metal>
0.0000

> <Gold.Chemscore.Lipo>
146.9839

> <Gold.Chemscore.Internal_Hbond>
0.0000

> <Gold.Chemscore.DEClash>
0.2413

> <Gold.Chemscore.DEInternal>
0.9864

> <Gold.Chemscore.Rot>
2.6209

> <Gold.Chemscore.Internal.Correction>
   9.000000E+99

> <Gold.Chemscore.Hbonds>
donor molecule, donor type, donor heavy atom, donor atom, acceptor molecule, acceptor atom, score
      L1  H     3    56       P1 10175  0.96

> <Gold.Chemscore.Hbond.Weighted>
-3.2717

> <Gold.Chemscore.Metal.Weighted>
-0.0000

> <Gold.Chemscore.Lipo.Weighted>
-17.1971

> <Gold.Chemscore.Internal_Hbond.Weighted>
0.0000

> <Gold.Chemscore.DEClash.Weighted>
0.2413

> <Gold.Chemscore.DEInternal.Weighted>
0.9864

> <Gold.Chemscore.Rot.Weighted>
6.7096

> <Gold.Chemscore.Internal.Correction.Weighted>
   9.000000E+99

> <Gold.Protein.RotatedTorsions>
[ 6907 6896 6895 6894 ] final   19.35 input  -60.11 | X-H torsion
[ 7974 7965 7964 7962 ] final -114.20 input  175.53 | X-H torsion
[ 8008 7997 7996 7995 ] final  134.49 input   59.86 | X-H torsion
[ 10167 10162 10161 10158 ] final -130.99 input  -65.29 | X-H torsion
[ 10718 10713 10712 10709 ] final   10.50 input   66.30 | X-H torsion
[ 10763 10752 10751 10750 ] final  -60.53 input  -60.55 | X-H torsion
[ 11005 11000 10999 10996 ] final -136.82 input  -57.11 | X-H torsion

> <Gold.Protein.ActiveResidues>
 VAL166  LYS551  ARG553  GLY616  TRP617  ASP618  TYR619  PRO620  LYS621  CYS622 
 ASP623  PHE694  ASN695  SER759  ASP760  ASP761  ALA762  ILE779  LEU786  VAL792 
 PHE793  MET794  SER795  GLU796  ALA797  LYS798  CYS799  TRP800  GLU811  SER814 

> <Gold.Protein.RotatedAtoms>
  151.8795  135.0459  160.0487 H   0  0  0  0  0  0  0  0  0  0  0  0  # atno 6907 bound_to 6896
  152.2524  133.5222  159.5341 H   0  0  0  0  0  0  0  0  0  0  0  0  # atno 6908 bound_to 6896
  150.7088  134.0858  159.3956 H   0  0  0  0  0  0  0  0  0  0  0  0  # atno 6909 bound_to 6896
  145.1229  140.8680  143.3803 H   0  0  0  0  0  0  0  0  0  0  0  0  # atno 7974 bound_to 7965
  156.2999  140.2495  156.3426 H   0  0  0  0  0  0  0  0  0  0  0  0  # atno 8008 bound_to 7997
  154.9041  140.0405  157.1929 H   0  0  0  0  0  0  0  0  0  0  0  0  # atno 8009 bound_to 7997
  154.8471  140.2900  155.5626 H   0  0  0  0  0  0  0  0  0  0  0  0  # atno 8010 bound_to 7997
  139.9236  143.6354  152.2547 H   0  0  0  0  0  0  0  0  0  0  0  0  # atno 10167 bound_to 10162
  156.9818  130.6008  149.5677 H   0  0  0  0  0  0  0  0  0  0  0  0  # atno 10718 bound_to 10713
  154.2706  135.6291  153.5309 H   0  0  0  0  0  0  0  0  0  0  0  0  # atno 10763 bound_to 10752
  152.9881  135.5609  154.5604 H   0  0  0  0  0  0  0  0  0  0  0  0  # atno 10764 bound_to 10752
  154.5173  135.2880  155.1267 H   0  0  0  0  0  0  0  0  0  0  0  0  # atno 10765 bound_to 10752
  140.8770  134.1980  157.4616 H   0  0  0  0  0  0  0  0  0  0  0  0  # atno 11005 bound_to 11000
  145.0720  139.3024  143.5827 LP  0  0  0  0  0  0  0  0  0  0  0  0  # atno 17320 bound_to 7965
  146.3519  140.0197  142.8659 LP  0  0  0  0  0  0  0  0  0  0  0  0  # atno 17321 bound_to 7965
  139.6841  144.7653  151.1556 LP  0  0  0  0  0  0  0  0  0  0  0  0  # atno 17342 bound_to 10162
  140.7656  143.5683  150.9024 LP  0  0  0  0  0  0  0  0  0  0  0  0  # atno 17343 bound_to 10162
  156.0241  130.5335  150.8358 LP  0  0  0  0  0  0  0  0  0  0  0  0  # atno 17370 bound_to 10713
  157.5521  131.0944  150.9681 LP  0  0  0  0  0  0  0  0  0  0  0  0  # atno 17371 bound_to 10713
  139.8716  134.9800  156.5058 LP  0  0  0  0  0  0  0  0  0  0  0  0  # atno 17394 bound_to 11000
  140.8507  133.8134  155.9165 LP  0  0  0  0  0  0  0  0  0  0  0  0  # atno 17395 bound_to 11000

$$$$
