AV-unprocessed.smi:1535|AV-procd|sdf|6182|dock3
  -GOLD-   22720 6343D 1   1.00000     0.00000
 Structure written by MMmdl.
 47 48  0  0  0  0  0  0  0  0  2 V2000
  152.9318  142.7663  161.7616 C   0  0  0  0  0  0  0  0  0  0  0  0
  152.3944  142.5309  160.3609 C   0  0  0  0  0  0  0  0  0  0  0  0
  152.7335  141.3363  159.6867 C   0  0  0  0  0  0  0  0  0  0  0  0
  152.2534  141.0785  158.3843 C   0  0  0  0  0  0  0  0  0  0  0  0
  152.4547  139.9912  157.5514 N   0  0  0  0  0  0  0  0  0  0  0  0
  151.7504  140.3405  156.4795 C   0  0  0  0  0  0  0  0  0  0  0  0
  151.1201  141.5302  156.5161 N   0  0  0  0  0  0  0  0  0  0  0  0
  150.3059  142.1170  155.4677 C   0  0  0  0  0  0  0  0  0  0  0  0
  149.2994  141.1109  154.8723 C   0  0  2  0  0  0  0  0  0  0  0  0
  149.9765  140.2311  153.9977 O   0  0  0  0  0  0  0  0  0  0  0  0
  148.1753  141.7967  154.0721 C   0  0  0  0  0  0  0  0  0  0  0  0
  147.1210  142.3616  154.9543 N   0  3  2  0  0  0  0  0  0  0  0  0
  146.5299  141.3439  155.8546 C   0  0  0  0  0  0  0  0  0  0  0  0
  146.0801  143.1198  154.2138 C   0  0  0  0  0  0  0  0  0  0  0  0
  144.8338  143.4107  155.0739 C   0  0  1  0  0  0  0  0  0  0  0  0
  145.2185  143.9771  156.4462 C   0  0  0  0  0  0  0  0  0  0  0  0
  143.9010  144.3129  154.3795 C   0  0  0  0  0  0  0  0  0  0  0  0
  143.1656  145.0222  153.8381 N   0  0  0  0  0  0  0  0  0  0  0  0
  151.4208  142.0579  157.7677 C   0  0  0  0  0  0  0  0  0  0  0  0
  151.0776  143.2513  158.4276 C   0  0  0  0  0  0  0  0  0  0  0  0
  151.5623  143.4906  159.7307 C   0  0  0  0  0  0  0  0  0  0  0  0
  151.1797  144.7780  160.4394 C   0  0  0  0  0  0  0  0  0  0  0  0
  153.5616  141.9393  162.0907 H   0  0  0  0  0  0  0  0  0  0  0  0
  152.1121  142.8663  162.4733 H   0  0  0  0  0  0  0  0  0  0  0  0
  153.5318  143.6758  161.7932 H   0  0  0  0  0  0  0  0  0  0  0  0
  153.3669  140.6047  160.1662 H   0  0  0  0  0  0  0  0  0  0  0  0
  151.6918  139.6954  155.6148 H   0  0  0  0  0  0  0  0  0  0  0  0
  149.7822  142.9740  155.8923 H   0  0  0  0  0  0  0  0  0  0  0  0
  150.9627  142.5097  154.6904 H   0  0  0  0  0  0  0  0  0  0  0  0
  148.8740  140.5033  155.6713 H   0  0  0  0  0  0  0  0  0  0  0  0
  149.5377  140.2410  153.1601 H   0  0  0  0  0  0  0  0  0  0  0  0
  148.6200  142.5762  153.4543 H   0  0  0  0  0  0  0  0  0  0  0  0
  147.7173  141.0943  153.3733 H   0  0  0  0  0  0  0  0  0  0  0  0
  145.9811  140.5916  155.2865 H   0  0  0  0  0  0  0  0  0  0  0  0
  145.8401  141.8071  156.5610 H   0  0  0  0  0  0  0  0  0  0  0  0
  147.2974  140.8363  156.4383 H   0  0  0  0  0  0  0  0  0  0  0  0
  146.5089  144.0450  153.8254 H   0  0  0  0  0  0  0  0  0  0  0  0
  145.7628  142.5395  153.3457 H   0  0  0  0  0  0  0  0  0  0  0  0
  144.2804  142.4882  155.2451 H   0  0  0  0  0  0  0  0  0  0  0  0
  144.3333  144.1516  157.0585 H   0  0  0  0  0  0  0  0  0  0  0  0
  145.7470  144.9262  156.3494 H   0  0  0  0  0  0  0  0  0  0  0  0
  145.8651  143.2879  156.9902 H   0  0  0  0  0  0  0  0  0  0  0  0
  150.4455  143.9759  157.9360 H   0  0  0  0  0  0  0  0  0  0  0  0
  150.5411  145.4023  159.8140 H   0  0  0  0  0  0  0  0  0  0  0  0
  152.0693  145.3558  160.6911 H   0  0  0  0  0  0  0  0  0  0  0  0
  150.6363  144.5593  161.3589 H   0  0  0  0  0  0  0  0  0  0  0  0
  147.5765  143.0359  155.5531 H   0  0  0  0  0  0  0  0  0  0  0  0
  1  2  1  0  0  0  0
  1 23  1  0  0  0  0
  1 24  1  0  0  0  0
  1 25  1  0  0  0  0
  2 21  1  0  0  0  0
  2  3  2  0  0  0  0
  3  4  1  0  0  0  0
  3 26  1  0  0  0  0
  4 19  2  0  0  0  0
  4  5  1  0  0  0  0
  5  6  2  0  0  0  0
  6  7  1  0  0  0  0
  6 27  1  0  0  0  0
  7  8  1  0  0  0  0
  7 19  1  0  0  0  0
  8  9  1  0  0  0  0
  8 28  1  0  0  0  0
  8 29  1  0  0  0  0
  9 10  1  0  0  0  0
  9 11  1  0  0  0  0
  9 30  1  0  0  0  0
 10 31  1  0  0  0  0
 11 12  1  0  0  0  0
 11 32  1  0  0  0  0
 11 33  1  0  0  0  0
 12 13  1  0  0  0  0
 12 14  1  0  0  0  0
 12 47  1  0  0  0  0
 13 34  1  0  0  0  0
 13 35  1  0  0  0  0
 13 36  1  0  0  0  0
 14 15  1  0  0  0  0
 14 37  1  0  0  0  0
 14 38  1  0  0  0  0
 15 16  1  0  0  0  0
 15 17  1  0  0  0  0
 15 39  1  0  0  0  0
 16 40  1  0  0  0  0
 16 41  1  0  0  0  0
 16 42  1  0  0  0  0
 17 18  3  0  0  0  0
 19 20  1  0  0  0  0
 20 21  2  0  0  0  0
 20 43  1  0  0  0  0
 21 22  1  0  0  0  0
 22 44  1  0  0  0  0
 22 45  1  0  0  0  0
 22 46  1  0  0  0  0
M  CHG  1  12   1
M  END
> <s_m_source_file>
AV-unprocessed.smi

> <i_m_source_file_index>
1535

> <i_lp_mmshare_version>
43012

> <i_f3d_flags>
0

> <s_epik_input>
W0NIM11jKFtjSF0xKWMoW0NIM10pW2NIXWMoYzEyKW4oW2NIXW4yKVtDSDJdW0NASF0oW09IXSlbQ0gyXU4oW0NIM10pW0NIMl1bQ0BIXShbQ0gzXSlDI04=

> <s_epik_cmdline>
J2VwaWtfcHl0aG9uJywgJy1waCcsICc3LjAnLCAnLXRuJywgJzgnLCAnLW1hJywgJzIwMCcsICctbWV0YWxfYmluZGluZycsICctaW1hZScsICc8aW5maWxlLm1hZT4nLCAnLW9tYWUnLCAnPG91dGZpbGUubWFlPic=

> <r_epik_Ionization_Penalty>
2.21058

> <r_epik_Ionization_Penalty_Charging>
2.12381

> <r_epik_Ionization_Penalty_Neutral>
0.0867699

> <r_epik_State_Penalty>
2.36208

> <r_epik_Charging_Adjusted_Penalty>
4.48589

> <i_epik_Tot_Q>
1

> <i_epik_Tot_abs_Q>
1

> <r_epik_Metal_State_Penalty>
2.2818

> <b_epik_Metal_Only>
0

> <s_lp_Force_Field>
OPLS_2005

> <r_lp_Energy>
14.5369

> <b_lp_Chiralities_Consistent>
1

> <s_lp_Variant>
AV-unprocessed.smi:1535-13

> <Gold.Version>
5.8.1

> <Gold.Id.Protein>
6NUR|6NUR_protein|mol2

> <Gold.PLP.Fitness>
58.8188

> <Gold.PLP.PLP>
-46.1514

> <Gold.PLP.part.hbond>
-4.3895

> <Gold.PLP.part.metal>
0.0000

> <Gold.PLP.part.buried>
-3.8443

> <Gold.PLP.part.nonpolar>
-35.9433

> <Gold.PLP.part.repulsive>
0.1991

> <Gold.PLP.ligand.clash>
0.0000

> <Gold.PLP.ligand.torsion>
0.6912

> <Gold.PLP.Chemscore.Hbond>
4.5580

> <Gold.PLP.Chemscore.CHOScore>
0.0000

> <Gold.PLP.Chemscore.Metal>
0.0000

> <Gold.Chemscore.Hbonds>
donor molecule, donor type, donor heavy atom, donor atom, acceptor molecule, acceptor atom, score
      L1  H    10    31       P1  7957  0.99
      L1  H    12    47       P1  8028  1.48
      P1  H  7989  7998       L1    10  0.79
      P1  H  7997  8010       L1     5  0.76

> <Gold.PLP.Chemscore.Internal.Correction>
0.3759

> <Gold.Rescore>
     Score         DG    S(hbond)    S(metal)    S(lipo)     H(rot)  DE(clash)    DE(int)     intcor
     16.03     -19.27       1.99        0.00     117.99       2.60       2.62       0.63       ----

> <Gold.Chemscore.Fitness>
16.0290

> <Gold.Chemscore.DG>
-19.2735

> <Gold.Chemscore.ZeroCoef>
-5.4800

> <Gold.Chemscore.Hbond>
1.9917

> <Gold.Chemscore.Metal>
0.0000

> <Gold.Chemscore.Lipo>
117.9931

> <Gold.Chemscore.Internal_Hbond>
0.0000

> <Gold.Chemscore.DEClash>
2.6170

> <Gold.Chemscore.DEInternal>
0.6275

> <Gold.Chemscore.Rot>
2.6031

> <Gold.Chemscore.Internal.Correction>
   9.000000E+99

> <Gold.Chemscore.Hbonds>
donor molecule, donor type, donor heavy atom, donor atom, acceptor molecule, acceptor atom, score
      L1  H    10    31       P1  7957  0.89
      L1  H    12    47       P1  8028  0.22
      P1  H  7989  7998       L1    10  0.15
      P1  H  7997  8010       L1     5  0.19

> <Gold.Chemscore.Hbond.Weighted>
-6.6522

> <Gold.Chemscore.Metal.Weighted>
-0.0000

> <Gold.Chemscore.Lipo.Weighted>
-13.8052

> <Gold.Chemscore.Internal_Hbond.Weighted>
0.0000

> <Gold.Chemscore.DEClash.Weighted>
2.6170

> <Gold.Chemscore.DEInternal.Weighted>
0.6275

> <Gold.Chemscore.Rot.Weighted>
6.6640

> <Gold.Chemscore.Internal.Correction.Weighted>
   9.000000E+99

> <Gold.Protein.RotatedTorsions>
[ 6907 6896 6895 6894 ] final -170.31 input  -60.11 | X-H torsion
[ 7974 7965 7964 7962 ] final -105.21 input  175.53 | X-H torsion
[ 8008 7997 7996 7995 ] final   46.97 input   59.86 | X-H torsion
[ 10167 10162 10161 10158 ] final  177.51 input  -65.29 | X-H torsion
[ 10718 10713 10712 10709 ] final    8.01 input   66.30 | X-H torsion
[ 10763 10752 10751 10750 ] final   98.00 input  -60.55 | X-H torsion
[ 11005 11000 10999 10996 ] final  -97.75 input  -57.11 | X-H torsion

> <Gold.Protein.ActiveResidues>
 VAL166  LYS551  ARG553  GLY616  TRP617  ASP618  TYR619  PRO620  LYS621  CYS622 
 ASP623  PHE694  ASN695  SER759  ASP760  ASP761  ALA762  ILE779  LEU786  VAL792 
 PHE793  MET794  SER795  GLU796  ALA797  LYS798  CYS799  TRP800  GLU811  SER814 

> <Gold.Protein.RotatedAtoms>
  151.5057  133.3495  159.2876 H   0  0  0  0  0  0  0  0  0  0  0  0  # atno 6907 bound_to 6896
  150.8744  134.8126  159.7190 H   0  0  0  0  0  0  0  0  0  0  0  0  # atno 6908 bound_to 6896
  152.4720  134.4946  159.9757 H   0  0  0  0  0  0  0  0  0  0  0  0  # atno 6909 bound_to 6896
  145.2333  140.9179  143.3192 H   0  0  0  0  0  0  0  0  0  0  0  0  # atno 7974 bound_to 7965
  155.3614  140.3419  155.4241 H   0  0  0  0  0  0  0  0  0  0  0  0  # atno 8008 bound_to 7997
  156.1712  140.1632  156.8479 H   0  0  0  0  0  0  0  0  0  0  0  0  # atno 8009 bound_to 7997
  154.5235  140.0761  156.8197 H   0  0  0  0  0  0  0  0  0  0  0  0  # atno 8010 bound_to 7997
  139.5256  144.2790  152.0563 H   0  0  0  0  0  0  0  0  0  0  0  0  # atno 10167 bound_to 10162
  156.9454  130.5877  149.5654 H   0  0  0  0  0  0  0  0  0  0  0  0  # atno 10718 bound_to 10713
  153.2837  135.4163  155.1103 H   0  0  0  0  0  0  0  0  0  0  0  0  # atno 10763 bound_to 10752
  154.8498  135.3501  154.6076 H   0  0  0  0  0  0  0  0  0  0  0  0  # atno 10764 bound_to 10752
  153.6497  135.7053  153.5271 H   0  0  0  0  0  0  0  0  0  0  0  0  # atno 10765 bound_to 10752
  141.1368  133.8194  157.0748 H   0  0  0  0  0  0  0  0  0  0  0  0  # atno 11005 bound_to 11000
  144.9656  139.3934  143.6334 LP  0  0  0  0  0  0  0  0  0  0  0  0  # atno 17320 bound_to 7965
  146.3347  139.8730  142.8837 LP  0  0  0  0  0  0  0  0  0  0  0  0  # atno 17321 bound_to 7965
  140.2246  144.4431  150.6327 LP  0  0  0  0  0  0  0  0  0  0  0  0  # atno 17342 bound_to 10162
  140.6396  143.2201  151.6320 LP  0  0  0  0  0  0  0  0  0  0  0  0  # atno 17343 bound_to 10162
  156.0386  130.5471  150.8715 LP  0  0  0  0  0  0  0  0  0  0  0  0  # atno 17370 bound_to 10713
  157.5757  131.0946  150.9349 LP  0  0  0  0  0  0  0  0  0  0  0  0  # atno 17371 bound_to 10713
  140.0488  134.9816  157.1099 LP  0  0  0  0  0  0  0  0  0  0  0  0  # atno 17394 bound_to 11000
  140.4021  134.2071  155.7163 LP  0  0  0  0  0  0  0  0  0  0  0  0  # atno 17395 bound_to 11000

$$$$
