AV-unprocessed.smi:2976|AV-procd|sdf|11365|dock7
  -GOLD-   2272016283D 1   1.00000     0.00000
 Structure written by MMmdl.
 40 41  0  0  0  0  0  0  0  0  1 V2000
  153.6622  141.2651  160.0060 C   0  0  0  0  0  0  0  0  0  0  0  0
  152.9520  142.3647  159.1987 C   0  0  2  0  0  0  0  0  0  0  0  0
  152.3223  143.4328  160.1155 C   0  0  0  0  0  0  0  0  0  0  0  0
  151.7071  144.5811  159.3003 C   0  0  0  0  0  0  0  0  0  0  0  0
  150.6995  144.0618  158.2633 C   0  0  0  0  0  0  0  0  0  0  0  0
  151.3349  142.9960  157.3496 C   0  0  2  0  0  0  0  0  0  0  0  0
  150.3599  142.5523  156.3553 N   0  0  0  0  0  0  0  0  0  0  0  0
  150.4402  141.4213  155.6378 C   0  0  0  0  0  0  0  0  0  0  0  0
  151.3668  140.6171  155.7499 O   0  0  0  0  0  0  0  0  0  0  0  0
  149.2820  141.1680  154.6607 C   0  0  0  0  0  0  0  0  0  0  0  0
  147.9863  141.6742  155.1375 N   0  0  0  0  0  0  0  0  0  0  0  0
  147.2730  142.3790  154.1839 N   0  0  0  0  0  0  0  0  0  0  0  0
  146.1329  142.8920  154.4953 C   0  0  0  0  0  0  0  0  0  0  0  0
  145.5611  142.7547  155.8164 C   0  0  0  0  0  0  0  0  0  0  0  0
  144.0276  143.4666  156.1755 Cl  0  0  0  0  0  0  0  0  0  0  0  0
  146.2653  142.0559  156.7420 C   0  0  0  0  0  0  0  0  0  0  0  0
  145.6465  141.8491  158.3446 Cl  0  0  0  0  0  0  0  0  0  0  0  0
  147.5683  141.4560  156.4225 C   0  0  0  0  0  0  0  0  0  0  0  0
  148.2366  140.8135  157.2334 O   0  0  0  0  0  0  0  0  0  0  0  0
  151.9259  141.8165  158.1715 C   0  0  2  0  0  0  0  0  0  0  0  0
  150.8435  140.9099  158.8027 C   0  0  0  0  0  0  0  0  0  0  0  0
  152.9848  140.7710  160.7023 H   0  0  0  0  0  0  0  0  0  0  0  0
  154.4808  141.6833  160.5922 H   0  0  0  0  0  0  0  0  0  0  0  0
  154.0852  140.5049  159.3491 H   0  0  0  0  0  0  0  0  0  0  0  0
  153.7328  142.8641  158.6227 H   0  0  0  0  0  0  0  0  0  0  0  0
  151.5594  142.9823  160.7511 H   0  0  0  0  0  0  0  0  0  0  0  0
  153.0789  143.8358  160.7895 H   0  0  0  0  0  0  0  0  0  0  0  0
  151.2206  145.2924  159.9683 H   0  0  0  0  0  0  0  0  0  0  0  0
  152.5004  145.1300  158.7913 H   0  0  0  0  0  0  0  0  0  0  0  0
  149.8276  143.6515  158.7736 H   0  0  0  0  0  0  0  0  0  0  0  0
  150.3360  144.8973  157.6636 H   0  0  0  0  0  0  0  0  0  0  0  0
  152.1540  143.4803  156.8136 H   0  0  0  0  0  0  0  0  0  0  0  0
  149.5631  143.1532  156.2024 H   0  0  0  0  0  0  0  0  0  0  0  0
  149.5359  141.6325  153.7062 H   0  0  0  0  0  0  0  0  0  0  0  0
  149.2157  140.0980  154.4546 H   0  0  0  0  0  0  0  0  0  0  0  0
  145.5379  143.4579  153.7782 H   0  0  0  0  0  0  0  0  0  0  0  0
  152.4827  141.1856  157.4770 H   0  0  0  0  0  0  0  0  0  0  0  0
  150.2418  141.4406  159.5394 H   0  0  0  0  0  0  0  0  0  0  0  0
  151.2857  140.0468  159.2992 H   0  0  0  0  0  0  0  0  0  0  0  0
  150.1636  140.5132  158.0490 H   0  0  0  0  0  0  0  0  0  0  0  0
  1  2  1  0  0  0  0
  1 22  1  0  0  0  0
  1 23  1  0  0  0  0
  1 24  1  0  0  0  0
  2 20  1  0  0  0  0
  2  3  1  0  0  0  0
  2 25  1  0  0  0  0
  3  4  1  0  0  0  0
  3 26  1  0  0  0  0
  3 27  1  0  0  0  0
  4  5  1  0  0  0  0
  4 28  1  0  0  0  0
  4 29  1  0  0  0  0
  5  6  1  0  0  0  0
  5 30  1  0  0  0  0
  5 31  1  0  0  0  0
  6  7  1  0  0  0  0
  6 20  1  0  0  0  0
  6 32  1  0  0  0  0
  7  8  1  0  0  0  0
  7 33  1  0  0  0  0
  8  9  2  0  0  0  0
  8 10  1  0  0  0  0
 10 11  1  0  0  0  0
 10 34  1  0  0  0  0
 10 35  1  0  0  0  0
 11 18  1  0  0  0  0
 11 12  1  0  0  0  0
 12 13  2  0  0  0  0
 13 14  1  0  0  0  0
 13 36  1  0  0  0  0
 14 15  1  0  0  0  0
 14 16  2  0  0  0  0
 16 17  1  0  0  0  0
 16 18  1  0  0  0  0
 18 19  2  0  0  0  0
 20 21  1  0  0  0  0
 20 37  1  0  0  0  0
 21 38  1  0  0  0  0
 21 39  1  0  0  0  0
 21 40  1  0  0  0  0
M  END
> <s_m_source_file>
AV-unprocessed.smi

> <i_m_source_file_index>
2976

> <i_lp_mmshare_version>
43012

> <i_f3d_flags>
0

> <s_epik_input>
W0NIM11bQ0BASF0xW0NIMl1bQ0gyXVtDSDJdW0NASF0oW0NASF0xW0NIM10pW05IXUMoPU8pW0NIMl1uMm5bY0hdYyhDbCljKENsKWMyPU8=

> <s_epik_cmdline>
J2VwaWtfcHl0aG9uJywgJy1waCcsICc3LjAnLCAnLXRuJywgJzgnLCAnLW1hJywgJzIwMCcsICctbWV0YWxfYmluZGluZycsICctaW1hZScsICc8aW5maWxlLm1hZT4nLCAnLW9tYWUnLCAnPG91dGZpbGUubWFlPic=

> <r_lp_tautomer_probability>
1

> <r_epik_Ionization_Penalty>
1.90777e-08

> <r_epik_Ionization_Penalty_Charging>
3.07942e-11

> <r_epik_Ionization_Penalty_Neutral>
1.90469e-08

> <r_epik_State_Penalty>
-0

> <r_epik_Charging_Adjusted_Penalty>
3.07942e-11

> <i_epik_Tot_Q>
0

> <i_epik_Tot_abs_Q>
0

> <r_epik_Metal_State_Penalty>
-0

> <b_epik_Metal_Only>
0

> <s_lp_Force_Field>
OPLS_2005

> <r_lp_Energy>
28.3124

> <b_lp_Chiralities_Consistent>
1

> <s_lp_Variant>
AV-unprocessed.smi:2976-7

> <Gold.Version>
5.8.1

> <Gold.Id.Protein>
6NUR|6NUR_protein|mol2

> <Gold.PLP.Fitness>
43.1404

> <Gold.PLP.PLP>
-41.4311

> <Gold.PLP.part.hbond>
-1.8821

> <Gold.PLP.part.metal>
0.0000

> <Gold.PLP.part.buried>
-5.0401

> <Gold.PLP.part.nonpolar>
-35.2421

> <Gold.PLP.part.repulsive>
0.3081

> <Gold.PLP.ligand.clash>
0.0020

> <Gold.PLP.ligand.torsion>
0.8196

> <Gold.PLP.Chemscore.Hbond>
1.1123

> <Gold.PLP.Chemscore.CHOScore>
0.0000

> <Gold.PLP.Chemscore.Metal>
0.0000

> <Gold.Chemscore.Hbonds>
donor molecule, donor type, donor heavy atom, donor atom, acceptor molecule, acceptor atom, score
      L1  H     7    33       P1  8028  0.99
      P1  H  7989  7998       L1     9  0.10

> <Gold.PLP.Chemscore.Internal.Correction>
0.0135

> <Gold.Rescore>
     Score         DG    S(hbond)    S(metal)    S(lipo)     H(rot)  DE(clash)    DE(int)     intcor
     13.69     -16.82       0.97        0.00     101.83       1.49       0.06       3.06       ----

> <Gold.Chemscore.Fitness>
13.6923

> <Gold.Chemscore.DG>
-16.8177

> <Gold.Chemscore.ZeroCoef>
-5.4800

> <Gold.Chemscore.Hbond>
0.9669

> <Gold.Chemscore.Metal>
0.0000

> <Gold.Chemscore.Lipo>
101.8289

> <Gold.Chemscore.Internal_Hbond>
0.0000

> <Gold.Chemscore.DEClash>
0.0640

> <Gold.Chemscore.DEInternal>
3.0615

> <Gold.Chemscore.Rot>
1.4866

> <Gold.Chemscore.Internal.Correction>
   9.000000E+99

> <Gold.Chemscore.Hbonds>
donor molecule, donor type, donor heavy atom, donor atom, acceptor molecule, acceptor atom, score
      L1  H     7    33       P1  8028  0.94

> <Gold.Chemscore.Hbond.Weighted>
-3.2294

> <Gold.Chemscore.Metal.Weighted>
-0.0000

> <Gold.Chemscore.Lipo.Weighted>
-11.9140

> <Gold.Chemscore.Internal_Hbond.Weighted>
0.0000

> <Gold.Chemscore.DEClash.Weighted>
0.0640

> <Gold.Chemscore.DEInternal.Weighted>
3.0615

> <Gold.Chemscore.Rot.Weighted>
3.8057

> <Gold.Chemscore.Internal.Correction.Weighted>
   9.000000E+99

> <Gold.Protein.RotatedTorsions>
[ 6907 6896 6895 6894 ] final  -89.33 input  -60.11 | X-H torsion
[ 7974 7965 7964 7962 ] final  164.82 input  175.53 | X-H torsion
[ 8008 7997 7996 7995 ] final   71.00 input   59.86 | X-H torsion
[ 10167 10162 10161 10158 ] final   40.79 input  -65.29 | X-H torsion
[ 10718 10713 10712 10709 ] final -113.35 input   66.30 | X-H torsion
[ 10763 10752 10751 10750 ] final -116.70 input  -60.55 | X-H torsion
[ 11005 11000 10999 10996 ] final  177.98 input  -57.11 | X-H torsion

> <Gold.Protein.ActiveResidues>
 VAL166  LYS551  ARG553  GLY616  TRP617  ASP618  TYR619  PRO620  LYS621  CYS622 
 ASP623  PHE694  ASN695  SER759  ASP760  ASP761  ALA762  ILE779  LEU786  VAL792 
 PHE793  MET794  SER795  GLU796  ALA797  LYS798  CYS799  TRP800  GLU811  SER814 

> <Gold.Protein.RotatedAtoms>
  150.6873  134.2603  159.4546 H   0  0  0  0  0  0  0  0  0  0  0  0  # atno 6907 bound_to 6896
  152.0534  134.9637  160.0584 H   0  0  0  0  0  0  0  0  0  0  0  0  # atno 6908 bound_to 6896
  152.1092  133.4257  159.4660 H   0  0  0  0  0  0  0  0  0  0  0  0  # atno 6909 bound_to 6896
  144.7528  139.8381  143.6360 H   0  0  0  0  0  0  0  0  0  0  0  0  # atno 7974 bound_to 7965
  155.7472  140.3489  155.5133 H   0  0  0  0  0  0  0  0  0  0  0  0  # atno 8008 bound_to 7997
  155.9038  140.1038  157.1351 H   0  0  0  0  0  0  0  0  0  0  0  0  # atno 8009 bound_to 7997
  154.4047  140.1281  156.4457 H   0  0  0  0  0  0  0  0  0  0  0  0  # atno 8010 bound_to 7997
  140.3708  144.2108  150.6133 H   0  0  0  0  0  0  0  0  0  0  0  0  # atno 10167 bound_to 10162
  156.0761  130.5968  150.8630 H   0  0  0  0  0  0  0  0  0  0  0  0  # atno 10718 bound_to 10713
  154.8529  135.4336  154.1863 H   0  0  0  0  0  0  0  0  0  0  0  0  # atno 10763 bound_to 10752
  153.2942  135.6964  153.7270 H   0  0  0  0  0  0  0  0  0  0  0  0  # atno 10764 bound_to 10752
  153.6426  135.3465  155.3050 H   0  0  0  0  0  0  0  0  0  0  0  0  # atno 10765 bound_to 10752
  140.3901  134.6870  157.4502 H   0  0  0  0  0  0  0  0  0  0  0  0  # atno 11005 bound_to 11000
  146.1502  139.4582  143.0054 LP  0  0  0  0  0  0  0  0  0  0  0  0  # atno 17320 bound_to 7965
  145.6882  141.0172  143.1569 LP  0  0  0  0  0  0  0  0  0  0  0  0  # atno 17321 bound_to 7965
  140.5035  143.2311  151.8642 LP  0  0  0  0  0  0  0  0  0  0  0  0  # atno 17342 bound_to 10162
  139.4804  144.5032  151.9033 LP  0  0  0  0  0  0  0  0  0  0  0  0  # atno 17343 bound_to 10162
  157.5857  131.0945  150.9200 LP  0  0  0  0  0  0  0  0  0  0  0  0  # atno 17370 bound_to 10713
  156.9386  130.5376  149.5280 LP  0  0  0  0  0  0  0  0  0  0  0  0  # atno 17371 bound_to 10713
  140.0413  134.6263  155.8977 LP  0  0  0  0  0  0  0  0  0  0  0  0  # atno 17394 bound_to 11000
  141.1894  133.6565  156.5365 LP  0  0  0  0  0  0  0  0  0  0  0  0  # atno 17395 bound_to 11000

$$$$
