AV-unprocessed.smi:157|AV-procd|sdf|1298|dock2
  -GOLD-   2262018583D 1   1.00000     0.00000
 Structure written by MMmdl.
 35 37  0  0  0  0  0  0  0  0  1 V2000
  152.6412  137.6367  154.0278 O   0  0  0  0  0  0  0  0  0  0  0  0
  151.2830  137.5239  154.3978 C   0  0  0  0  0  0  0  0  0  0  0  0
  150.4980  138.7915  154.0001 C   0  0  2  0  0  0  0  0  0  0  0  0
  151.1202  139.9003  154.6521 O   0  0  0  0  0  0  0  0  0  0  0  0
  150.3030  140.4010  155.6704 C   0  0  2  0  0  0  0  0  0  0  0  0
  151.1088  140.5192  156.9267 N   0  0  0  0  0  0  0  0  0  0  0  0
  151.6248  139.5106  157.6422 C   0  0  0  0  0  0  0  0  0  0  0  0
  152.2856  139.8860  158.7240 N   0  0  0  0  0  0  0  0  0  0  0  0
  152.1903  141.2763  158.7101 C   0  0  0  0  0  0  0  0  0  0  0  0
  151.4637  141.6898  157.6027 C   0  0  0  0  0  0  0  0  0  0  0  0
  151.0408  142.8987  157.0838 N   0  0  0  0  0  0  0  0  0  0  0  0
  151.6391  143.9756  157.4854 C   0  0  0  0  0  0  0  0  0  0  0  0
  152.6155  144.1492  158.4559 N   0  0  0  0  0  0  0  0  0  0  0  0
  152.5262  143.5767  159.7885 C   0  0  0  0  0  0  0  0  0  0  0  0
  152.8042  142.0690  159.8277 C   0  0  2  0  0  0  0  0  0  0  0  0
  154.1988  141.8499  159.7714 O   0  0  0  0  0  0  0  0  0  0  0  0
  149.1632  139.4056  155.8664 C   0  0  0  0  0  0  0  0  0  0  0  0
  149.0324  138.8521  154.4654 C   0  0  2  0  0  0  0  0  0  0  0  0
  148.3542  137.6123  154.4551 O   0  0  0  0  0  0  0  0  0  0  0  0
  150.5675  138.9390  152.9215 H   0  0  0  0  0  0  0  0  0  0  0  0
  149.9735  141.4106  155.4221 H   0  0  0  0  0  0  0  0  0  0  0  0
  152.4626  141.6804  160.7877 H   0  0  0  0  0  0  0  0  0  0  0  0
  148.4837  139.5625  153.8452 H   0  0  0  0  0  0  0  0  0  0  0  0
  153.0968  138.1202  154.7001 H   0  0  0  0  0  0  0  0  0  0  0  0
  150.8481  136.6256  153.9595 H   0  0  0  0  0  0  0  0  0  0  0  0
  151.2522  137.3956  155.4801 H   0  0  0  0  0  0  0  0  0  0  0  0
  151.5101  138.4725  157.3681 H   0  0  0  0  0  0  0  0  0  0  0  0
  151.3624  144.9243  157.0234 H   0  0  0  0  0  0  0  0  0  0  0  0
  153.1371  145.0138  158.4645 H   0  0  0  0  0  0  0  0  0  0  0  0
  153.1905  144.1117  160.4676 H   0  0  0  0  0  0  0  0  0  0  0  0
  151.5127  143.7566  160.1501 H   0  0  0  0  0  0  0  0  0  0  0  0
  154.4326  141.6698  158.8734 H   0  0  0  0  0  0  0  0  0  0  0  0
  149.4645  138.6289  156.5717 H   0  0  0  0  0  0  0  0  0  0  0  0
  148.2641  139.8989  156.2370 H   0  0  0  0  0  0  0  0  0  0  0  0
  148.5716  137.1584  153.6551 H   0  0  0  0  0  0  0  0  0  0  0  0
  1  2  1  0  0  0  0
  1 24  1  0  0  0  0
  2  3  1  0  0  0  0
  2 25  1  0  0  0  0
  2 26  1  0  0  0  0
  3 20  1  0  0  0  0
  3 18  1  0  0  0  0
  3  4  1  0  0  0  0
  4  5  1  0  0  0  0
  5 21  1  0  0  0  0
  5  6  1  0  0  0  0
  5 17  1  0  0  0  0
  6 10  1  0  0  0  0
  6  7  1  0  0  0  0
  7  8  2  0  0  0  0
  7 27  1  0  0  0  0
  8  9  1  0  0  0  0
  9 15  1  0  0  0  0
  9 10  2  0  0  0  0
 10 11  1  0  0  0  0
 11 12  2  0  0  0  0
 12 13  1  0  0  0  0
 12 28  1  0  0  0  0
 13 14  1  0  0  0  0
 13 29  1  0  0  0  0
 14 15  1  0  0  0  0
 14 30  1  0  0  0  0
 14 31  1  0  0  0  0
 15 22  1  0  0  0  0
 15 16  1  0  0  0  0
 16 32  1  0  0  0  0
 17 18  1  0  0  0  0
 17 33  1  0  0  0  0
 17 34  1  0  0  0  0
 18 23  1  0  0  0  0
 18 19  1  0  0  0  0
 19 35  1  0  0  0  0
M  END
> <s_m_source_file>
AV-unprocessed.smi

> <i_m_source_file_index>
157

> <i_lp_mmshare_version>
43012

> <i_f3d_flags>
0

> <s_epik_input>
W09IXVtDSDJdW0NASF0xT1tDQEhdKFtDSDJdW0NAQEhdMVtPSF0pbihbY0hdbjIpYyhjMjMpTj1bQ0hdW05IXVtDSDJdW0NASF0zW09IXQ==

> <s_epik_cmdline>
J2VwaWtfcHl0aG9uJywgJy1waCcsICc3LjAnLCAnLXRuJywgJzgnLCAnLW1hJywgJzIwMCcsICctbWV0YWxfYmluZGluZycsICctaW1hZScsICc8aW5maWxlLm1hZT4nLCAnLW9tYWUnLCAnPG91dGZpbGUubWFlPic=

> <r_lp_tautomer_probability>
1

> <r_epik_Ionization_Penalty>
0.0357149

> <r_epik_Ionization_Penalty_Charging>
0.0355056

> <r_epik_Ionization_Penalty_Neutral>
0.000209255

> <r_epik_State_Penalty>
0.0296046

> <r_epik_Charging_Adjusted_Penalty>
0.0651102

> <i_epik_Tot_Q>
0

> <i_epik_Tot_abs_Q>
0

> <r_epik_Metal_State_Penalty>
3.03559e-05

> <b_epik_Metal_Only>
0

> <s_epik_Chemistry_Notes>
This compound has an imine and may undergo hydrolysis. This compound contains an acetal/aminal-like group ( X-CH(R)-Y where X, Y are N, S, or O) that may be acid/base labile, releasing an aldehyde.

> <s_lp_Force_Field>
OPLS_2005

> <r_lp_Energy>
46.5194

> <b_lp_Chiralities_Consistent>
1

> <s_lp_Variant>
AV-unprocessed.smi:157-8

> <Gold.Version>
5.8.1

> <Gold.Id.Protein>
6NUR|6NUR_protein|mol2

> <Gold.PLP.Fitness>
43.4061

> <Gold.PLP.PLP>
-35.0437

> <Gold.PLP.part.hbond>
-3.0000

> <Gold.PLP.part.metal>
0.0000

> <Gold.PLP.part.buried>
-6.8354

> <Gold.PLP.part.nonpolar>
-26.0920

> <Gold.PLP.part.repulsive>
0.2282

> <Gold.PLP.ligand.clash>
0.0000

> <Gold.PLP.ligand.torsion>
0.1268

> <Gold.PLP.Chemscore.Hbond>
2.5600

> <Gold.PLP.Chemscore.CHOScore>
0.3081

> <Gold.PLP.Chemscore.Metal>
0.0000

> <Gold.Chemscore.Hbonds>
donor molecule, donor type, donor heavy atom, donor atom, acceptor molecule, acceptor atom, score
      L1  H    19    35       P1  7948  0.96
      P1  H  7989  7998       L1     4  1.00
      P1  H 10752 10765       L1     1  0.59
      L1  C    12    28       P1  8028  0.23

> <Gold.PLP.Chemscore.Internal.Correction>
0.0118

> <Gold.Rescore>
     Score         DG    S(hbond)    S(metal)    S(lipo)     H(rot)  DE(clash)    DE(int)     intcor
      9.95     -10.18       2.32        0.00      53.35       3.64       0.05       0.18       ----

> <Gold.Chemscore.Fitness>
9.9492

> <Gold.Chemscore.DG>
-10.1758

> <Gold.Chemscore.ZeroCoef>
-5.4800

> <Gold.Chemscore.Hbond>
2.3241

> <Gold.Chemscore.Metal>
0.0000

> <Gold.Chemscore.Lipo>
53.3513

> <Gold.Chemscore.Internal_Hbond>
0.0000

> <Gold.Chemscore.DEClash>
0.0477

> <Gold.Chemscore.DEInternal>
0.1789

> <Gold.Chemscore.Rot>
3.6362

> <Gold.Chemscore.Internal.Correction>
   9.000000E+99

> <Gold.Chemscore.Hbonds>
donor molecule, donor type, donor heavy atom, donor atom, acceptor molecule, acceptor atom, score
      L1  H    19    35       P1  7948  0.91
      P1  H  7989  7998       L1     4  0.53
      P1  H 10752 10765       L1     1  0.20

> <Gold.Chemscore.Hbond.Weighted>
-7.7624

> <Gold.Chemscore.Metal.Weighted>
-0.0000

> <Gold.Chemscore.Lipo.Weighted>
-6.2421

> <Gold.Chemscore.Internal_Hbond.Weighted>
0.0000

> <Gold.Chemscore.DEClash.Weighted>
0.0477

> <Gold.Chemscore.DEInternal.Weighted>
0.1789

> <Gold.Chemscore.Rot.Weighted>
9.3087

> <Gold.Chemscore.Internal.Correction.Weighted>
   9.000000E+99

> <Gold.Protein.RotatedTorsions>
[ 6907 6896 6895 6894 ] final  102.27 input  -60.11 | X-H torsion
[ 7974 7965 7964 7962 ] final   41.89 input  175.53 | X-H torsion
[ 8008 7997 7996 7995 ] final  -90.33 input   59.86 | X-H torsion
[ 10167 10162 10161 10158 ] final  176.58 input  -65.29 | X-H torsion
[ 10718 10713 10712 10709 ] final  116.74 input   66.30 | X-H torsion
[ 10763 10752 10751 10750 ] final  130.01 input  -60.55 | X-H torsion
[ 11005 11000 10999 10996 ] final  132.41 input  -57.11 | X-H torsion

> <Gold.Protein.ActiveResidues>
 VAL166  LYS551  ARG553  GLY616  TRP617  ASP618  TYR619  PRO620  LYS621  CYS622 
 ASP623  PHE694  ASN695  SER759  ASP760  ASP761  ALA762  ILE779  LEU786  VAL792 
 PHE793  MET794  SER795  GLU796  ALA797  LYS798  CYS799  TRP800  GLU811  SER814 

> <Gold.Protein.RotatedAtoms>
  152.5328  134.0000  159.7890 H   0  0  0  0  0  0  0  0  0  0  0  0  # atno 6907 bound_to 6896
  151.0221  133.5859  159.2677 H   0  0  0  0  0  0  0  0  0  0  0  0  # atno 6908 bound_to 6896
  151.2895  135.0744  159.9252 H   0  0  0  0  0  0  0  0  0  0  0  0  # atno 6909 bound_to 6896
  146.0786  139.5363  142.9552 H   0  0  0  0  0  0  0  0  0  0  0  0  # atno 7974 bound_to 7965
  154.6973  140.0531  157.0423 H   0  0  0  0  0  0  0  0  0  0  0  0  # atno 8008 bound_to 7997
  155.0734  140.3202  155.4604 H   0  0  0  0  0  0  0  0  0  0  0  0  # atno 8009 bound_to 7997
  156.2748  140.2078  156.5861 H   0  0  0  0  0  0  0  0  0  0  0  0  # atno 8010 bound_to 7997
  139.5220  144.2899  152.0473 H   0  0  0  0  0  0  0  0  0  0  0  0  # atno 10167 bound_to 10162
  157.6141  131.1029  150.7516 H   0  0  0  0  0  0  0  0  0  0  0  0  # atno 10718 bound_to 10713
  153.7510  135.3210  155.3321 H   0  0  0  0  0  0  0  0  0  0  0  0  # atno 10763 bound_to 10752
  154.8263  135.4567  154.0932 H   0  0  0  0  0  0  0  0  0  0  0  0  # atno 10764 bound_to 10752
  153.2134  135.6939  153.8168 H   0  0  0  0  0  0  0  0  0  0  0  0  # atno 10765 bound_to 10752
  139.9788  134.9555  156.9578 H   0  0  0  0  0  0  0  0  0  0  0  0  # atno 11005 bound_to 11000
  145.6261  141.0313  143.1889 LP  0  0  0  0  0  0  0  0  0  0  0  0  # atno 17320 bound_to 7965
  144.7278  139.7821  143.7358 LP  0  0  0  0  0  0  0  0  0  0  0  0  # atno 17321 bound_to 7965
  140.2351  144.4328  150.6283 LP  0  0  0  0  0  0  0  0  0  0  0  0  # atno 17342 bound_to 10162
  140.6329  143.2190  151.6457 LP  0  0  0  0  0  0  0  0  0  0  0  0  # atno 17343 bound_to 10162
  156.7887  130.4883  149.5388 LP  0  0  0  0  0  0  0  0  0  0  0  0  # atno 17370 bound_to 10713
  156.1256  130.6141  151.0258 LP  0  0  0  0  0  0  0  0  0  0  0  0  # atno 17371 bound_to 10713
  140.5138  134.0975  155.7276 LP  0  0  0  0  0  0  0  0  0  0  0  0  # atno 17394 bound_to 11000
  141.1463  133.9049  157.2208 LP  0  0  0  0  0  0  0  0  0  0  0  0  # atno 17395 bound_to 11000

$$$$
