AV-unprocessed.smi:684|AV-procd|sdf|3332|dock8
  -GOLD-   22720 0303D 1   1.00000     0.00000
 Structure written by MMmdl.
 40 41  0  0  0  0  0  0  0  0  1 V2000
  154.5638  140.2090  160.6534 C   0  0  0  0  0  0  0  0  0  0  0  0
  154.0992  141.6422  160.3701 C   0  0  0  0  0  0  0  0  0  0  0  0
  152.9833  141.6703  159.4407 N   0  0  0  0  0  0  0  0  0  0  0  0
  152.5583  140.5093  158.8971 N   0  0  0  0  0  0  0  0  0  0  0  0
  151.5580  140.8693  158.1078 C   0  0  0  0  0  0  0  0  0  0  0  0
  150.7700  140.0026  157.3083 N   0  0  0  0  0  0  0  0  0  0  0  0
  150.4506  140.1480  156.0109 C   0  0  0  0  0  0  0  0  0  0  0  0
  150.7984  141.0885  155.2958 O   0  0  0  0  0  0  0  0  0  0  0  0
  149.6883  139.1309  155.5827 N   0  0  0  0  0  0  0  0  0  0  0  0
  149.1631  138.9742  154.2289 C   0  0  0  0  0  0  0  0  0  0  0  0
  147.9397  139.8776  153.9662 C   0  0  0  0  0  0  0  0  0  0  0  0
  147.1428  139.3715  152.7549 C   0  0  0  0  0  0  0  0  0  0  0  0
  148.3185  141.3570  153.7787 C   0  0  0  0  0  0  0  0  0  0  0  0
  151.3123  142.2685  158.1185 C   0  0  0  0  0  0  0  0  0  0  0  0
  152.2530  142.7555  158.9835 C   0  0  0  0  0  0  0  0  0  0  0  0
  152.5271  144.1568  159.4266 C   0  0  0  0  0  0  0  0  0  0  0  0
  151.5796  144.8935  160.3434 C   0  0  0  0  0  0  0  0  0  0  0  0
  151.7136  145.3117  158.8965 C   0  0  0  0  0  0  0  0  0  0  0  0
  155.4022  140.2039  161.3498 H   0  0  0  0  0  0  0  0  0  0  0  0
  154.8872  139.7105  159.7392 H   0  0  0  0  0  0  0  0  0  0  0  0
  153.7619  139.6152  161.0933 H   0  0  0  0  0  0  0  0  0  0  0  0
  153.7974  142.1303  161.2982 H   0  0  0  0  0  0  0  0  0  0  0  0
  154.9199  142.2323  159.9615 H   0  0  0  0  0  0  0  0  0  0  0  0
  150.4102  139.1835  157.7748 H   0  0  0  0  0  0  0  0  0  0  0  0
  149.4517  138.4063  156.2445 H   0  0  0  0  0  0  0  0  0  0  0  0
  149.9377  139.1570  153.4818 H   0  0  0  0  0  0  0  0  0  0  0  0
  148.8767  137.9284  154.1142 H   0  0  0  0  0  0  0  0  0  0  0  0
  147.2829  139.8134  154.8350 H   0  0  0  0  0  0  0  0  0  0  0  0
  147.7391  139.4140  151.8429 H   0  0  0  0  0  0  0  0  0  0  0  0
  146.2468  139.9721  152.5950 H   0  0  0  0  0  0  0  0  0  0  0  0
  146.8233  138.3386  152.8964 H   0  0  0  0  0  0  0  0  0  0  0  0
  149.0170  141.4840  152.9510 H   0  0  0  0  0  0  0  0  0  0  0  0
  148.7831  141.7705  154.6736 H   0  0  0  0  0  0  0  0  0  0  0  0
  147.4375  141.9633  153.5659 H   0  0  0  0  0  0  0  0  0  0  0  0
  150.5663  142.8296  157.5755 H   0  0  0  0  0  0  0  0  0  0  0  0
  153.5916  144.3203  159.5829 H   0  0  0  0  0  0  0  0  0  0  0  0
  150.6560  144.3969  160.6346 H   0  0  0  0  0  0  0  0  0  0  0  0
  152.0159  145.5451  161.0977 H   0  0  0  0  0  0  0  0  0  0  0  0
  152.2405  146.2397  158.6851 H   0  0  0  0  0  0  0  0  0  0  0  0
  150.8847  145.0822  158.2294 H   0  0  0  0  0  0  0  0  0  0  0  0
  1  2  1  0  0  0  0
  1 19  1  0  0  0  0
  1 20  1  0  0  0  0
  1 21  1  0  0  0  0
  2  3  1  0  0  0  0
  2 22  1  0  0  0  0
  2 23  1  0  0  0  0
  3 15  1  0  0  0  0
  3  4  1  0  0  0  0
  4  5  2  0  0  0  0
  5  6  1  0  0  0  0
  5 14  1  0  0  0  0
  6  7  1  0  0  0  0
  6 24  1  0  0  0  0
  7  8  2  0  0  0  0
  7  9  1  0  0  0  0
  9 10  1  0  0  0  0
  9 25  1  0  0  0  0
 10 11  1  0  0  0  0
 10 26  1  0  0  0  0
 10 27  1  0  0  0  0
 11 12  1  0  0  0  0
 11 13  1  0  0  0  0
 11 28  1  0  0  0  0
 12 29  1  0  0  0  0
 12 30  1  0  0  0  0
 12 31  1  0  0  0  0
 13 32  1  0  0  0  0
 13 33  1  0  0  0  0
 13 34  1  0  0  0  0
 14 15  2  0  0  0  0
 14 35  1  0  0  0  0
 15 16  1  0  0  0  0
 16 18  1  0  0  0  0
 16 17  1  0  0  0  0
 16 36  1  0  0  0  0
 17 18  1  0  0  0  0
 17 37  1  0  0  0  0
 17 38  1  0  0  0  0
 18 39  1  0  0  0  0
 18 40  1  0  0  0  0
M  END
> <s_m_source_file>
AV-unprocessed.smi

> <i_m_source_file_index>
684

> <i_lp_mmshare_version>
43012

> <i_f3d_flags>
0

> <s_epik_input>
W0NIMl0xW0NIMl1bQ0hdMWMyW2NIXWMobm4yW0NIMl1bQ0gzXSlbTkhdQyg9TylbTkhdW0NIMl1bQ0hdKFtDSDNdKVtDSDNd

> <s_epik_cmdline>
J2VwaWtfcHl0aG9uJywgJy1waCcsICc3LjAnLCAnLXRuJywgJzgnLCAnLW1hJywgJzIwMCcsICctbWV0YWxfYmluZGluZycsICctaW1hZScsICc8aW5maWxlLm1hZT4nLCAnLW9tYWUnLCAnPG91dGZpbGUubWFlPic=

> <r_lp_tautomer_probability>
1

> <r_epik_Ionization_Penalty>
4.15598e-05

> <r_epik_Ionization_Penalty_Charging>
0

> <r_epik_Ionization_Penalty_Neutral>
4.15598e-05

> <r_epik_State_Penalty>
-0

> <r_epik_Charging_Adjusted_Penalty>
0

> <i_epik_Tot_Q>
0

> <i_epik_Tot_abs_Q>
0

> <r_epik_Metal_State_Penalty>
-0

> <b_epik_Metal_Only>
0

> <s_lp_Force_Field>
OPLS_2005

> <r_lp_Energy>
10.212

> <b_lp_Chiralities_Consistent>
1

> <s_lp_Variant>
AV-unprocessed.smi:684-1

> <Gold.Version>
5.8.1

> <Gold.Id.Protein>
6NUR|6NUR_protein|mol2

> <Gold.PLP.Fitness>
40.9103

> <Gold.PLP.PLP>
-40.2415

> <Gold.PLP.part.hbond>
-1.0000

> <Gold.PLP.part.metal>
0.0000

> <Gold.PLP.part.buried>
-2.5004

> <Gold.PLP.part.nonpolar>
-36.3209

> <Gold.PLP.part.repulsive>
0.1260

> <Gold.PLP.ligand.clash>
0.0000

> <Gold.PLP.ligand.torsion>
0.7999

> <Gold.PLP.Chemscore.Hbond>
0.7040

> <Gold.PLP.Chemscore.CHOScore>
0.0000

> <Gold.PLP.Chemscore.Metal>
0.0000

> <Gold.Chemscore.Hbonds>
donor molecule, donor type, donor heavy atom, donor atom, acceptor molecule, acceptor atom, score
      P1  H  7989  7998       L1     8  0.66

> <Gold.PLP.Chemscore.Internal.Correction>
0.1566

> <Gold.Rescore>
     Score         DG    S(hbond)    S(metal)    S(lipo)     H(rot)  DE(clash)    DE(int)     intcor
     15.40     -16.29       0.79        0.00     101.29       1.45       0.13       0.76       ----

> <Gold.Chemscore.Fitness>
15.3989

> <Gold.Chemscore.DG>
-16.2858

> <Gold.Chemscore.ZeroCoef>
-5.4800

> <Gold.Chemscore.Hbond>
0.7949

> <Gold.Chemscore.Metal>
0.0000

> <Gold.Chemscore.Lipo>
101.2880

> <Gold.Chemscore.Internal_Hbond>
0.0000

> <Gold.Chemscore.DEClash>
0.1268

> <Gold.Chemscore.DEInternal>
0.7601

> <Gold.Chemscore.Rot>
1.4452

> <Gold.Chemscore.Internal.Correction>
   9.000000E+99

> <Gold.Chemscore.Hbonds>
donor molecule, donor type, donor heavy atom, donor atom, acceptor molecule, acceptor atom, score
      P1  H  7989  7998       L1     8  0.64

> <Gold.Chemscore.Hbond.Weighted>
-2.6549

> <Gold.Chemscore.Metal.Weighted>
-0.0000

> <Gold.Chemscore.Lipo.Weighted>
-11.8507

> <Gold.Chemscore.Internal_Hbond.Weighted>
0.0000

> <Gold.Chemscore.DEClash.Weighted>
0.1268

> <Gold.Chemscore.DEInternal.Weighted>
0.7601

> <Gold.Chemscore.Rot.Weighted>
3.6998

> <Gold.Chemscore.Internal.Correction.Weighted>
   9.000000E+99

> <Gold.Protein.RotatedTorsions>
[ 6907 6896 6895 6894 ] final  -90.18 input  -60.11 | X-H torsion
[ 7974 7965 7964 7962 ] final   25.78 input  175.53 | X-H torsion
[ 8008 7997 7996 7995 ] final  -26.15 input   59.86 | X-H torsion
[ 10167 10162 10161 10158 ] final -123.21 input  -65.29 | X-H torsion
[ 10718 10713 10712 10709 ] final   64.97 input   66.30 | X-H torsion
[ 10763 10752 10751 10750 ] final  122.96 input  -60.55 | X-H torsion
[ 11005 11000 10999 10996 ] final -160.32 input  -57.11 | X-H torsion

> <Gold.Protein.ActiveResidues>
 VAL166  LYS551  ARG553  GLY616  TRP617  ASP618  TYR619  PRO620  LYS621  CYS622 
 ASP623  PHE694  ASN695  SER759  ASP760  ASP761  ALA762  ILE779  LEU786  VAL792 
 PHE793  MET794  SER795  GLU796  ALA797  LYS798  CYS799  TRP800  GLU811  SER814 

> <Gold.Protein.RotatedAtoms>
  150.6879  134.2472  159.4496 H   0  0  0  0  0  0  0  0  0  0  0  0  # atno 6907 bound_to 6896
  152.0412  134.9707  160.0583 H   0  0  0  0  0  0  0  0  0  0  0  0  # atno 6908 bound_to 6896
  152.1208  133.4317  159.4711 H   0  0  0  0  0  0  0  0  0  0  0  0  # atno 6909 bound_to 6896
  146.1871  139.7419  142.8858 H   0  0  0  0  0  0  0  0  0  0  0  0  # atno 7974 bound_to 7965
  154.4439  140.1907  156.0730 H   0  0  0  0  0  0  0  0  0  0  0  0  # atno 8008 bound_to 7997
  156.0496  140.3310  155.7309 H   0  0  0  0  0  0  0  0  0  0  0  0  # atno 8009 bound_to 7997
  155.5577  140.0601  157.2827 H   0  0  0  0  0  0  0  0  0  0  0  0  # atno 8010 bound_to 7997
  140.0060  143.5491  152.2283 H   0  0  0  0  0  0  0  0  0  0  0  0  # atno 10167 bound_to 10162
  157.6075  130.9189  149.9915 H   0  0  0  0  0  0  0  0  0  0  0  0  # atno 10718 bound_to 10713
  153.6380  135.3384  155.3062 H   0  0  0  0  0  0  0  0  0  0  0  0  # atno 10763 bound_to 10752
  154.8566  135.4311  154.2035 H   0  0  0  0  0  0  0  0  0  0  0  0  # atno 10764 bound_to 10752
  153.2947  135.7020  153.7333 H   0  0  0  0  0  0  0  0  0  0  0  0  # atno 10765 bound_to 10752
  140.6328  134.4633  157.5230 H   0  0  0  0  0  0  0  0  0  0  0  0  # atno 11005 bound_to 11000
  145.3905  141.0371  143.3127 LP  0  0  0  0  0  0  0  0  0  0  0  0  # atno 17320 bound_to 7965
  144.8418  139.5460  143.6897 LP  0  0  0  0  0  0  0  0  0  0  0  0  # atno 17321 bound_to 7965
  139.6238  144.7634  151.2682 LP  0  0  0  0  0  0  0  0  0  0  0  0  # atno 17342 bound_to 10162
  140.7400  143.6600  150.8172 LP  0  0  0  0  0  0  0  0  0  0  0  0  # atno 17343 bound_to 10162
  156.1166  130.3647  149.9958 LP  0  0  0  0  0  0  0  0  0  0  0  0  # atno 17370 bound_to 10713
  156.8046  130.9303  151.3645 LP  0  0  0  0  0  0  0  0  0  0  0  0  # atno 17371 bound_to 10713
  139.9109  134.8346  156.1531 LP  0  0  0  0  0  0  0  0  0  0  0  0  # atno 17394 bound_to 11000
  141.0663  133.6818  156.2051 LP  0  0  0  0  0  0  0  0  0  0  0  0  # atno 17395 bound_to 11000

$$$$
