AV-unprocessed.smi:498|AV-procd|sdf|2731|dock10
  -GOLD-   2262023183D 1   1.00000     0.00000
 Structure written by MMmdl.
 42 44  0  0  0  0  0  0  0  0  3 V2000
  139.1741  136.9620  154.0662 C   0  0  0  0  0  0  0  0  0  0  0  0
  140.6862  136.9070  153.8362 C   0  0  0  0  0  0  0  0  0  0  0  0
  141.1979  135.7219  154.4224 O   0  0  0  0  0  0  0  0  0  0  0  0
  142.5556  135.4884  154.0902 C   0  0  0  0  0  0  0  0  0  0  0  0
  142.6811  135.3960  152.5644 C   0  0  0  0  0  0  0  0  0  0  0  0
  144.0842  135.2257  152.1371 N   0  0  0  0  0  0  0  0  0  0  0  0
  145.1914  136.0238  152.2893 C   0  0  0  0  0  0  0  0  0  0  0  0
  145.2995  137.3596  152.9762 C   0  0  0  0  0  0  0  0  0  0  0  0
  146.6545  137.9058  152.9216 N   0  5  0  0  0  0  0  0  0  0  0  0
  147.3498  138.3168  154.0186 C   0  0  0  0  0  0  0  0  0  0  0  0
  147.8561  137.6512  154.9284 O   0  0  0  0  0  0  0  0  0  0  0  0
  147.5218  139.7877  154.0478 C   0  0  0  0  0  0  0  0  0  0  0  0
  147.2080  140.7672  153.1394 C   0  0  0  0  0  0  0  0  0  0  0  0
  147.5836  142.0075  153.7252 C   0  0  0  0  0  0  0  0  0  0  0  0
  148.0904  141.7022  154.9550 C   0  0  0  0  0  0  0  0  0  0  0  0
  148.0541  140.3590  155.1685 O   0  0  0  0  0  0  0  0  0  0  0  0
  146.2346  135.3650  151.7059 N   0  3  0  0  0  0  0  0  0  0  0  0
  145.8059  134.1476  151.1822 C   0  0  0  0  0  0  0  0  0  0  0  0
  146.5037  133.1508  150.5078 C   0  0  0  0  0  0  0  0  0  0  0  0
  145.7632  132.0179  150.1120 C   0  0  0  0  0  0  0  0  0  0  0  0
  144.3854  131.9089  150.3907 C   0  0  0  0  0  0  0  0  0  0  0  0
  143.6894  132.9280  151.0738 C   0  0  0  0  0  0  0  0  0  0  0  0
  144.4281  134.0473  151.4595 C   0  0  0  0  0  0  0  0  0  0  0  0
  138.7445  137.8607  153.6231 H   0  0  0  0  0  0  0  0  0  0  0  0
  138.9401  136.9697  155.1309 H   0  0  0  0  0  0  0  0  0  0  0  0
  138.6788  136.0994  153.6196 H   0  0  0  0  0  0  0  0  0  0  0  0
  140.9003  136.9206  152.7666 H   0  0  0  0  0  0  0  0  0  0  0  0
  141.1612  137.7830  154.2803 H   0  0  0  0  0  0  0  0  0  0  0  0
  143.1802  136.2994  154.4682 H   0  0  0  0  0  0  0  0  0  0  0  0
  142.8978  134.5627  154.5555 H   0  0  0  0  0  0  0  0  0  0  0  0
  142.0877  134.5697  152.1726 H   0  0  0  0  0  0  0  0  0  0  0  0
  142.2792  136.2951  152.0973 H   0  0  0  0  0  0  0  0  0  0  0  0
  144.5825  138.0378  152.5138 H   0  0  0  0  0  0  0  0  0  0  0  0
  144.9579  137.2242  154.0029 H   0  0  0  0  0  0  0  0  0  0  0  0
  146.7610  140.6098  152.1689 H   0  0  0  0  0  0  0  0  0  0  0  0
  147.4906  142.9967  153.3019 H   0  0  0  0  0  0  0  0  0  0  0  0
  148.4974  142.2872  155.7665 H   0  0  0  0  0  0  0  0  0  0  0  0
  147.5598  133.2341  150.2973 H   0  0  0  0  0  0  0  0  0  0  0  0
  146.2622  131.2167  149.5864 H   0  0  0  0  0  0  0  0  0  0  0  0
  143.8509  131.0249  150.0743 H   0  0  0  0  0  0  0  0  0  0  0  0
  142.6346  132.8310  151.2836 H   0  0  0  0  0  0  0  0  0  0  0  0
  147.1727  135.7440  151.6740 H   0  0  0  0  0  0  0  0  0  0  0  0
  1  2  1  0  0  0  0
  1 24  1  0  0  0  0
  1 25  1  0  0  0  0
  1 26  1  0  0  0  0
  2  3  1  0  0  0  0
  2 27  1  0  0  0  0
  2 28  1  0  0  0  0
  3  4  1  0  0  0  0
  4  5  1  0  0  0  0
  4 29  1  0  0  0  0
  4 30  1  0  0  0  0
  5  6  1  0  0  0  0
  5 31  1  0  0  0  0
  5 32  1  0  0  0  0
  6 23  1  0  0  0  0
  6  7  1  0  0  0  0
  7  8  1  0  0  0  0
  7 17  2  0  0  0  0
  8  9  1  0  0  0  0
  8 33  1  0  0  0  0
  8 34  1  0  0  0  0
  9 10  1  0  0  0  0
 10 11  2  0  0  0  0
 10 12  1  0  0  0  0
 12 16  1  0  0  0  0
 12 13  2  0  0  0  0
 13 14  1  0  0  0  0
 13 35  1  0  0  0  0
 14 15  2  0  0  0  0
 14 36  1  0  0  0  0
 15 16  1  0  0  0  0
 15 37  1  0  0  0  0
 17 18  1  0  0  0  0
 17 42  1  0  0  0  0
 18 23  2  0  0  0  0
 18 19  1  0  0  0  0
 19 20  2  0  0  0  0
 19 38  1  0  0  0  0
 20 21  1  0  0  0  0
 20 39  1  0  0  0  0
 21 22  2  0  0  0  0
 21 40  1  0  0  0  0
 22 23  1  0  0  0  0
 22 41  1  0  0  0  0
M  CHG  1   9  -1
M  CHG  1  17   1
M  END
> <s_m_source_file>
AV-unprocessed.smi

> <i_m_source_file_index>
498

> <i_lp_mmshare_version>
43012

> <i_f3d_flags>
0

> <s_epik_input>
W0NIM11bQ0gyXU9bQ0gyXVtDSDJdbihjKGMxMilbY0hdW2NIXVtjSF1bY0hdMiljKG4xKVtDSDJdW05IXUMoPU8pYzNbY0hdW2NIXVtjSF1vMw==

> <s_epik_cmdline>
J2VwaWtfcHl0aG9uJywgJy1waCcsICc3LjAnLCAnLXRuJywgJzgnLCAnLW1hJywgJzIwMCcsICctbWV0YWxfYmluZGluZycsICctaW1hZScsICc8aW5maWxlLm1hZT4nLCAnLW9tYWUnLCAnPG91dGZpbGUubWFlPic=

> <r_epik_Ionization_Penalty>
6.05973

> <r_epik_Ionization_Penalty_Charging>
6.05973

> <r_epik_Ionization_Penalty_Neutral>
2.61143e-12

> <r_epik_State_Penalty>
7.27867

> <r_epik_Charging_Adjusted_Penalty>
13.3384

> <i_epik_Tot_Q>
0

> <i_epik_Tot_abs_Q>
2

> <r_epik_Metal_State_Penalty>
3.28829

> <b_epik_Metal_Only>
1

> <s_lp_Force_Field>
OPLS_2005

> <r_lp_Energy>
13.3144

> <b_lp_Chiralities_Consistent>
1

> <s_lp_Variant>
AV-unprocessed.smi:498-4

> <Gold.Version>
5.8.1

> <Gold.Id.Protein>
6NUR|6NUR_protein|mol2

> <Gold.PLP.Fitness>
52.5588

> <Gold.PLP.PLP>
-43.0286

> <Gold.PLP.part.hbond>
-2.0000

> <Gold.PLP.part.metal>
0.0000

> <Gold.PLP.part.buried>
-8.8779

> <Gold.PLP.part.nonpolar>
-32.9792

> <Gold.PLP.part.repulsive>
0.7484

> <Gold.PLP.ligand.clash>
0.0000

> <Gold.PLP.ligand.torsion>
0.7449

> <Gold.PLP.Chemscore.Hbond>
2.7840

> <Gold.PLP.Chemscore.CHOScore>
0.8602

> <Gold.PLP.Chemscore.Metal>
0.0000

> <Gold.Chemscore.Hbonds>
donor molecule, donor type, donor heavy atom, donor atom, acceptor molecule, acceptor atom, score
      L1  H    17    42       P1  7948  2.00
      P1  H 11000 11005       L1     3  0.62
      L1  C    15    37       P1  8028  0.87

> <Gold.PLP.Chemscore.Internal.Correction>
0.0875

> <Gold.Rescore>
     Score         DG    S(hbond)    S(metal)    S(lipo)     H(rot)  DE(clash)    DE(int)     intcor
     18.44     -19.26       1.91        0.00     106.15       1.96       0.05       0.77       ----

> <Gold.Chemscore.Fitness>
18.4389

> <Gold.Chemscore.DG>
-19.2596

> <Gold.Chemscore.ZeroCoef>
-5.4800

> <Gold.Chemscore.Hbond>
1.9123

> <Gold.Chemscore.Metal>
0.0000

> <Gold.Chemscore.Lipo>
106.1499

> <Gold.Chemscore.Internal_Hbond>
0.0000

> <Gold.Chemscore.DEClash>
0.0534

> <Gold.Chemscore.DEInternal>
0.7673

> <Gold.Chemscore.Rot>
1.9637

> <Gold.Chemscore.Internal.Correction>
   9.000000E+99

> <Gold.Chemscore.Hbonds>
donor molecule, donor type, donor heavy atom, donor atom, acceptor molecule, acceptor atom, score
      L1  H    17    42       P1  7948  1.00
      P1  H 11000 11005       L1     3  0.59

> <Gold.Chemscore.Hbond.Weighted>
-6.3870

> <Gold.Chemscore.Metal.Weighted>
-0.0000

> <Gold.Chemscore.Lipo.Weighted>
-12.4195

> <Gold.Chemscore.Internal_Hbond.Weighted>
0.0000

> <Gold.Chemscore.DEClash.Weighted>
0.0534

> <Gold.Chemscore.DEInternal.Weighted>
0.7673

> <Gold.Chemscore.Rot.Weighted>
5.0270

> <Gold.Chemscore.Internal.Correction.Weighted>
   9.000000E+99

> <Gold.Protein.RotatedTorsions>
[ 6907 6896 6895 6894 ] final  143.92 input  -60.11 | X-H torsion
[ 7974 7965 7964 7962 ] final  -39.08 input  175.53 | X-H torsion
[ 8008 7997 7996 7995 ] final  113.91 input   59.86 | X-H torsion
[ 10167 10162 10161 10158 ] final   74.97 input  -65.29 | X-H torsion
[ 10718 10713 10712 10709 ] final -131.89 input   66.30 | X-H torsion
[ 10763 10752 10751 10750 ] final -167.34 input  -60.55 | X-H torsion
[ 11005 11000 10999 10996 ] final   38.48 input  -57.11 | X-H torsion

> <Gold.Protein.ActiveResidues>
 VAL166  LYS551  ARG553  GLY616  TRP617  ASP618  TYR619  PRO620  LYS621  CYS622 
 ASP623  PHE694  ASN695  SER759  ASP760  ASP761  ALA762  ILE779  LEU786  VAL792 
 PHE793  MET794  SER795  GLU796  ALA797  LYS798  CYS799  TRP800  GLU811  SER814 

> <Gold.Protein.RotatedAtoms>
  152.2002  133.4835  159.5053 H   0  0  0  0  0  0  0  0  0  0  0  0  # atno 6907 bound_to 6896
  150.6968  134.1601  159.4182 H   0  0  0  0  0  0  0  0  0  0  0  0  # atno 6908 bound_to 6896
  151.9518  135.0165  160.0593 H   0  0  0  0  0  0  0  0  0  0  0  0  # atno 6909 bound_to 6896
  146.0428  140.6585  142.9079 H   0  0  0  0  0  0  0  0  0  0  0  0  # atno 7974 bound_to 7965
  156.2288  140.2970  156.0135 H   0  0  0  0  0  0  0  0  0  0  0  0  # atno 8008 bound_to 7997
  155.2282  140.0418  157.2975 H   0  0  0  0  0  0  0  0  0  0  0  0  # atno 8009 bound_to 7997
  154.5961  140.2414  155.7863 H   0  0  0  0  0  0  0  0  0  0  0  0  # atno 8010 bound_to 7997
  140.0079  144.5636  150.7682 H   0  0  0  0  0  0  0  0  0  0  0  0  # atno 10167 bound_to 10162
  156.2290  130.7025  151.0838 H   0  0  0  0  0  0  0  0  0  0  0  0  # atno 10718 bound_to 10713
  154.6742  135.2944  154.9701 H   0  0  0  0  0  0  0  0  0  0  0  0  # atno 10763 bound_to 10752
  154.0718  135.6617  153.4829 H   0  0  0  0  0  0  0  0  0  0  0  0  # atno 10764 bound_to 10752
  153.0505  135.5176  154.7752 H   0  0  0  0  0  0  0  0  0  0  0  0  # atno 10765 bound_to 10752
  140.2122  134.3742  155.8044 H   0  0  0  0  0  0  0  0  0  0  0  0  # atno 11005 bound_to 11000
  144.7083  140.3940  143.7100 LP  0  0  0  0  0  0  0  0  0  0  0  0  # atno 17320 bound_to 7965
  145.6855  139.1627  143.2676 LP  0  0  0  0  0  0  0  0  0  0  0  0  # atno 17321 bound_to 7965
  140.7393  143.2789  151.3657 LP  0  0  0  0  0  0  0  0  0  0  0  0  # atno 17342 bound_to 10162
  139.6225  144.0878  152.2404 LP  0  0  0  0  0  0  0  0  0  0  0  0  # atno 17343 bound_to 10162
  157.7124  131.0727  150.6452 LP  0  0  0  0  0  0  0  0  0  0  0  0  # atno 17370 bound_to 10713
  156.6519  130.4487  149.5716 LP  0  0  0  0  0  0  0  0  0  0  0  0  # atno 17371 bound_to 10713
  141.2226  133.7149  156.8436 LP  0  0  0  0  0  0  0  0  0  0  0  0  # atno 17394 bound_to 11000
  140.1939  134.8946  157.3092 LP  0  0  0  0  0  0  0  0  0  0  0  0  # atno 17395 bound_to 11000

$$$$
