AV-unprocessed.smi:73|AV-procd|sdf|759|dock3
  -GOLD-   2262017 93D 1   1.00000     0.00000
 Structure written by MMmdl.
 35 36  0  0  0  0  0  0  0  0  2 V2000
  152.9119  138.7233  154.6740 C   0  0  0  0  0  0  0  0  0  0  0  0
  151.8137  138.8124  155.7438 C   0  0  0  0  0  0  0  0  0  0  0  0
  150.3999  138.7919  155.3024 N   0  0  0  0  0  0  0  0  0  0  0  0
  150.2286  137.6661  154.3649 C   0  0  0  0  0  0  0  0  0  0  0  0
  150.4485  136.3175  154.9752 C   0  0  0  0  0  0  0  0  0  0  0  0
  151.5401  135.8835  155.6099 N   0  0  0  0  0  0  0  0  0  0  0  0
  151.2673  134.5842  155.9766 N   0  0  0  0  0  0  0  0  0  0  0  0
  150.0318  134.3341  155.5362 C   0  0  0  0  0  0  0  0  0  0  0  0
  149.2594  133.0672  155.6757 C   0  0  0  0  0  0  0  0  0  0  0  0
  149.4605  135.3887  154.8993 O   0  0  0  0  0  0  0  0  0  0  0  0
  149.9875  140.0772  154.6832 C   0  0  2  0  0  0  0  0  0  0  0  0
  150.2773  141.3272  155.5598 C   0  0  0  0  0  0  0  0  0  0  0  0
  149.0312  142.0947  155.7150 N   0  3  0  0  0  0  0  0  0  0  0  0
  148.1468  141.7000  154.6214 C   0  0  0  0  0  0  0  0  0  0  0  0
  148.4686  140.2265  154.3997 C   0  0  1  0  0  0  0  0  0  0  0  0
  148.1440  139.8837  153.0667 O   0  0  0  0  0  0  0  0  0  0  0  0
  147.8786  139.6348  155.1015 H   0  0  0  0  0  0  0  0  0  0  0  0
  153.8746  139.0012  155.1036 H   0  0  0  0  0  0  0  0  0  0  0  0
  152.7187  139.4056  153.8456 H   0  0  0  0  0  0  0  0  0  0  0  0
  153.0311  137.7139  154.2839 H   0  0  0  0  0  0  0  0  0  0  0  0
  151.9778  138.0351  156.4916 H   0  0  0  0  0  0  0  0  0  0  0  0
  152.0168  139.7491  156.2617 H   0  0  0  0  0  0  0  0  0  0  0  0
  149.2166  137.6342  153.9676 H   0  0  0  0  0  0  0  0  0  0  0  0
  150.8925  137.7837  153.5070 H   0  0  0  0  0  0  0  0  0  0  0  0
  149.9373  132.2248  155.8136 H   0  0  0  0  0  0  0  0  0  0  0  0
  148.6602  132.8908  154.7822 H   0  0  0  0  0  0  0  0  0  0  0  0
  148.5955  133.1294  156.5379 H   0  0  0  0  0  0  0  0  0  0  0  0
  150.5191  140.2043  153.7383 H   0  0  0  0  0  0  0  0  0  0  0  0
  150.6055  141.0796  156.5676 H   0  0  0  0  0  0  0  0  0  0  0  0
  151.0370  141.9554  155.0938 H   0  0  0  0  0  0  0  0  0  0  0  0
  148.5977  141.8195  156.5851 H   0  0  0  0  0  0  0  0  0  0  0  0
  147.0976  141.8781  154.8588 H   0  0  0  0  0  0  0  0  0  0  0  0
  148.4054  142.2942  153.7429 H   0  0  0  0  0  0  0  0  0  0  0  0
  148.8613  140.1364  152.5055 H   0  0  0  0  0  0  0  0  0  0  0  0
  149.2030  143.0900  155.7170 H   0  0  0  0  0  0  0  0  0  0  0  0
  1  2  1  0  0  0  0
  1 18  1  0  0  0  0
  1 19  1  0  0  0  0
  1 20  1  0  0  0  0
  2  3  1  0  0  0  0
  2 21  1  0  0  0  0
  2 22  1  0  0  0  0
  3  4  1  0  0  0  0
  3 11  1  0  0  0  0
  4  5  1  0  0  0  0
  4 23  1  0  0  0  0
  4 24  1  0  0  0  0
  5 10  1  0  0  0  0
  5  6  2  0  0  0  0
  6  7  1  0  0  0  0
  7  8  2  0  0  0  0
  8  9  1  0  0  0  0
  8 10  1  0  0  0  0
  9 25  1  0  0  0  0
  9 26  1  0  0  0  0
  9 27  1  0  0  0  0
 11 15  1  0  0  0  0
 11 12  1  0  0  0  0
 11 28  1  0  0  0  0
 12 13  1  0  0  0  0
 12 29  1  0  0  0  0
 12 30  1  0  0  0  0
 13 14  1  0  0  0  0
 13 31  1  0  0  0  0
 13 35  1  0  0  0  0
 14 15  1  0  0  0  0
 14 32  1  0  0  0  0
 14 33  1  0  0  0  0
 15 17  1  0  0  0  0
 15 16  1  0  0  0  0
 16 34  1  0  0  0  0
M  CHG  1  13   1
M  END
> <s_m_source_file>
AV-unprocessed.smi

> <i_m_source_file_index>
73

> <i_lp_mmshare_version>
43012

> <i_f3d_flags>
0

> <s_epik_input>
W09IXVtDQEBIXTFbQ0gyXVtOSF1bQ0gyXVtDQEhdMU4oW0NIMl1bQ0gzXSlbQ0gyXWMybm5jKG8yKVtDSDNd

> <s_epik_cmdline>
J2VwaWtfcHl0aG9uJywgJy1waCcsICc3LjAnLCAnLXRuJywgJzgnLCAnLW1hJywgJzIwMCcsICctbWV0YWxfYmluZGluZycsICctaW1hZScsICc8aW5maWxlLm1hZT4nLCAnLW9tYWUnLCAnPG91dGZpbGUubWFlPic=

> <r_lp_tautomer_probability>
1

> <r_epik_Ionization_Penalty>
0.00160433

> <r_epik_Ionization_Penalty_Charging>
0.000122314

> <r_epik_Ionization_Penalty_Neutral>
0.00148202

> <r_epik_State_Penalty>
-0

> <r_epik_Charging_Adjusted_Penalty>
0.000122314

> <i_epik_Tot_Q>
1

> <i_epik_Tot_abs_Q>
1

> <r_epik_Metal_State_Penalty>
-0

> <b_epik_Metal_Only>
0

> <s_lp_Force_Field>
OPLS_2005

> <r_lp_Energy>
42.0904

> <b_lp_Chiralities_Consistent>
1

> <s_lp_Variant>
AV-unprocessed.smi:73-1

> <Gold.Version>
5.8.1

> <Gold.Id.Protein>
6NUR|6NUR_protein|mol2

> <Gold.PLP.Fitness>
37.9010

> <Gold.PLP.PLP>
-26.2328

> <Gold.PLP.part.hbond>
-3.3122

> <Gold.PLP.part.metal>
0.0000

> <Gold.PLP.part.buried>
-2.1504

> <Gold.PLP.part.nonpolar>
-21.9032

> <Gold.PLP.part.repulsive>
0.4112

> <Gold.PLP.ligand.clash>
0.0000

> <Gold.PLP.ligand.torsion>
0.1736

> <Gold.PLP.Chemscore.Hbond>
4.0000

> <Gold.PLP.Chemscore.CHOScore>
0.0000

> <Gold.PLP.Chemscore.Metal>
0.0000

> <Gold.Chemscore.Hbonds>
donor molecule, donor type, donor heavy atom, donor atom, acceptor molecule, acceptor atom, score
      L1  H    13    35       P1  8028  2.00
      L1  H    16    34       P1  7957  0.99
      P1  H 10752 10763       L1     6  0.95

> <Gold.PLP.Chemscore.Internal.Correction>
0.0152

> <Gold.Rescore>
     Score         DG    S(hbond)    S(metal)    S(lipo)     H(rot)  DE(clash)    DE(int)     intcor
     14.26     -14.77       2.84        0.00      53.15       2.51       0.17       0.33       ----

> <Gold.Chemscore.Fitness>
14.2614

> <Gold.Chemscore.DG>
-14.7704

> <Gold.Chemscore.ZeroCoef>
-5.4800

> <Gold.Chemscore.Hbond>
2.8399

> <Gold.Chemscore.Metal>
0.0000

> <Gold.Chemscore.Lipo>
53.1473

> <Gold.Chemscore.Internal_Hbond>
0.0000

> <Gold.Chemscore.DEClash>
0.1741

> <Gold.Chemscore.DEInternal>
0.3349

> <Gold.Chemscore.Rot>
2.5051

> <Gold.Chemscore.Internal.Correction>
   9.000000E+99

> <Gold.Chemscore.Hbonds>
donor molecule, donor type, donor heavy atom, donor atom, acceptor molecule, acceptor atom, score
      L1  H    13    35       P1  8028  0.99
      L1  H    16    34       P1  7957  0.89
      P1  H 10752 10763       L1     6  0.19

> <Gold.Chemscore.Hbond.Weighted>
-9.4853

> <Gold.Chemscore.Metal.Weighted>
-0.0000

> <Gold.Chemscore.Lipo.Weighted>
-6.2182

> <Gold.Chemscore.Internal_Hbond.Weighted>
0.0000

> <Gold.Chemscore.DEClash.Weighted>
0.1741

> <Gold.Chemscore.DEInternal.Weighted>
0.3349

> <Gold.Chemscore.Rot.Weighted>
6.4131

> <Gold.Chemscore.Internal.Correction.Weighted>
   9.000000E+99

> <Gold.Protein.RotatedTorsions>
[ 6907 6896 6895 6894 ] final  -92.31 input  -60.11 | X-H torsion
[ 7974 7965 7964 7962 ] final -155.38 input  175.53 | X-H torsion
[ 8008 7997 7996 7995 ] final   61.66 input   59.86 | X-H torsion
[ 10167 10162 10161 10158 ] final  -15.68 input  -65.29 | X-H torsion
[ 10718 10713 10712 10709 ] final  149.24 input   66.30 | X-H torsion
[ 10763 10752 10751 10750 ] final   56.23 input  -60.55 | X-H torsion
[ 11005 11000 10999 10996 ] final -150.68 input  -57.11 | X-H torsion

> <Gold.Protein.ActiveResidues>
 VAL166  LYS551  ARG553  GLY616  TRP617  ASP618  TYR619  PRO620  LYS621  CYS622 
 ASP623  PHE694  ASN695  SER759  ASP760  ASP761  ALA762  ILE779  LEU786  VAL792 
 PHE793  MET794  SER795  GLU796  ALA797  LYS798  CYS799  TRP800  GLU811  SER814 

> <Gold.Protein.RotatedAtoms>
  150.6904  134.2141  159.4370 H   0  0  0  0  0  0  0  0  0  0  0  0  # atno 6907 bound_to 6896
  152.0101  134.9878  160.0577 H   0  0  0  0  0  0  0  0  0  0  0  0  # atno 6908 bound_to 6896
  152.1496  133.4479  159.4844 H   0  0  0  0  0  0  0  0  0  0  0  0  # atno 6909 bound_to 6896
  144.7643  140.4258  143.5953 H   0  0  0  0  0  0  0  0  0  0  0  0  # atno 7974 bound_to 7965
  155.6020  140.3494  155.4596 H   0  0  0  0  0  0  0  0  0  0  0  0  # atno 8008 bound_to 7997
  156.0221  140.1256  157.0371 H   0  0  0  0  0  0  0  0  0  0  0  0  # atno 8009 bound_to 7997
  154.4319  140.1060  156.5964 H   0  0  0  0  0  0  0  0  0  0  0  0  # atno 8010 bound_to 7997
  140.7222  143.5194  150.9652 H   0  0  0  0  0  0  0  0  0  0  0  0  # atno 10167 bound_to 10162
  157.2986  131.0866  151.1408 H   0  0  0  0  0  0  0  0  0  0  0  0  # atno 10718 bound_to 10713
  152.9828  135.5683  154.5194 H   0  0  0  0  0  0  0  0  0  0  0  0  # atno 10763 bound_to 10752
  154.4685  135.2784  155.1662 H   0  0  0  0  0  0  0  0  0  0  0  0  # atno 10764 bound_to 10752
  154.3220  135.6267  153.5565 H   0  0  0  0  0  0  0  0  0  0  0  0  # atno 10765 bound_to 10752
  140.7376  134.3551  157.5154 H   0  0  0  0  0  0  0  0  0  0  0  0  # atno 11005 bound_to 11000
  145.6519  139.1566  143.2857 LP  0  0  0  0  0  0  0  0  0  0  0  0  # atno 17320 bound_to 7965
  146.1736  140.6607  142.9222 LP  0  0  0  0  0  0  0  0  0  0  0  0  # atno 17321 bound_to 7965
  139.8910  143.6953  152.3145 LP  0  0  0  0  0  0  0  0  0  0  0  0  # atno 17342 bound_to 10162
  139.7269  144.7591  151.0865 LP  0  0  0  0  0  0  0  0  0  0  0  0  # atno 17343 bound_to 10162
  157.2776  130.6734  149.6050 LP  0  0  0  0  0  0  0  0  0  0  0  0  # atno 17370 bound_to 10713
  155.9670  130.4460  150.5523 LP  0  0  0  0  0  0  0  0  0  0  0  0  # atno 17371 bound_to 10713
  139.8813  134.9059  156.2911 LP  0  0  0  0  0  0  0  0  0  0  0  0  # atno 17394 bound_to 11000
  140.9866  133.7235  156.0750 LP  0  0  0  0  0  0  0  0  0  0  0  0  # atno 17395 bound_to 11000

$$$$
