AV-unprocessed.smi:2057|AV-procd|sdf|8343|dock4
  -GOLD-   2272011 13D 1   1.00000     0.00000
 Structure written by MMmdl.
 45 47  0  0  0  0  0  0  0  0  2 V2000
  151.7999  145.7899  160.2692 C   0  0  0  0  0  0  0  0  0  0  0  0
  151.2081  144.8292  159.4069 O   0  0  0  0  0  0  0  0  0  0  0  0
  151.8375  143.6116  159.2638 C   0  0  0  0  0  0  0  0  0  0  0  0
  153.0505  143.2618  159.9017 C   0  0  0  0  0  0  0  0  0  0  0  0
  153.6292  141.9972  159.6888 C   0  0  0  0  0  0  0  0  0  0  0  0
  153.0111  141.0496  158.8360 C   0  0  0  0  0  0  0  0  0  0  0  0
  153.5481  139.8055  158.5733 O   0  0  0  0  0  0  0  0  0  0  0  0
  154.5760  139.3183  159.4227 C   0  0  0  0  0  0  0  0  0  0  0  0
  151.7908  141.3930  158.2032 C   0  0  0  0  0  0  0  0  0  0  0  0
  151.1077  140.4128  157.2504 C   0  0  1  0  0  0  0  0  0  0  0  0
  149.8769  139.9320  157.7523 O   0  0  0  0  0  0  0  0  0  0  0  0
  150.8518  141.0218  155.8553 C   0  0  0  0  0  0  0  0  0  0  0  0
  150.1665  140.0894  154.9456 N   0  0  0  0  0  0  0  0  0  0  0  0
  150.5886  138.8966  154.4353 C   0  0  0  0  0  0  0  0  0  0  0  0
  151.8891  138.2153  154.7051 C   0  0  0  0  0  0  0  0  0  0  0  0
  152.2603  137.3412  153.6626 O   0  0  0  0  0  0  0  0  0  0  0  0
  149.5970  138.4294  153.6261 N   0  3  0  0  0  0  0  0  0  0  0  0
  148.5318  139.3299  153.6157 C   0  0  0  0  0  0  0  0  0  0  0  0
  147.3153  139.2918  152.9413 C   0  0  0  0  0  0  0  0  0  0  0  0
  146.4448  140.3825  153.1443 C   0  0  0  0  0  0  0  0  0  0  0  0
  146.7952  141.4532  153.9919 C   0  0  0  0  0  0  0  0  0  0  0  0
  148.0294  141.4781  154.6736 C   0  0  0  0  0  0  0  0  0  0  0  0
  148.8871  140.3974  154.4655 C   0  0  0  0  0  0  0  0  0  0  0  0
  151.2217  142.6678  158.4210 C   0  0  0  0  0  0  0  0  0  0  0  0
  151.1899  146.6932  160.2735 H   0  0  0  0  0  0  0  0  0  0  0  0
  152.7984  146.0681  159.9297 H   0  0  0  0  0  0  0  0  0  0  0  0
  151.8552  145.4248  161.2956 H   0  0  0  0  0  0  0  0  0  0  0  0
  153.5613  143.9485  160.5593 H   0  0  0  0  0  0  0  0  0  0  0  0
  154.5571  141.7798  160.1948 H   0  0  0  0  0  0  0  0  0  0  0  0
  154.9307  138.3609  159.0414 H   0  0  0  0  0  0  0  0  0  0  0  0
  154.2119  139.1543  160.4377 H   0  0  0  0  0  0  0  0  0  0  0  0
  155.4288  139.9984  159.4473 H   0  0  0  0  0  0  0  0  0  0  0  0
  151.7337  139.5271  157.1438 H   0  0  0  0  0  0  0  0  0  0  0  0
  149.9589  139.8115  158.6860 H   0  0  0  0  0  0  0  0  0  0  0  0
  150.2072  141.8973  155.9459 H   0  0  0  0  0  0  0  0  0  0  0  0
  151.7747  141.3744  155.3949 H   0  0  0  0  0  0  0  0  0  0  0  0
  152.6703  138.9643  154.8374 H   0  0  0  0  0  0  0  0  0  0  0  0
  151.8232  137.6535  155.6366 H   0  0  0  0  0  0  0  0  0  0  0  0
  151.5115  137.2051  153.1019 H   0  0  0  0  0  0  0  0  0  0  0  0
  147.0448  138.4727  152.2911 H   0  0  0  0  0  0  0  0  0  0  0  0
  145.4893  140.3982  152.6403 H   0  0  0  0  0  0  0  0  0  0  0  0
  146.1041  142.2734  154.1218 H   0  0  0  0  0  0  0  0  0  0  0  0
  148.2871  142.3077  155.3146 H   0  0  0  0  0  0  0  0  0  0  0  0
  150.3006  142.9391  157.9264 H   0  0  0  0  0  0  0  0  0  0  0  0
  149.6489  137.5553  153.1190 H   0  0  0  0  0  0  0  0  0  0  0  0
  1  2  1  0  0  0  0
  1 25  1  0  0  0  0
  1 26  1  0  0  0  0
  1 27  1  0  0  0  0
  2  3  1  0  0  0  0
  3 24  1  0  0  0  0
  3  4  2  0  0  0  0
  4  5  1  0  0  0  0
  4 28  1  0  0  0  0
  5  6  2  0  0  0  0
  5 29  1  0  0  0  0
  6  7  1  0  0  0  0
  6  9  1  0  0  0  0
  7  8  1  0  0  0  0
  8 30  1  0  0  0  0
  8 31  1  0  0  0  0
  8 32  1  0  0  0  0
  9 10  1  0  0  0  0
  9 24  2  0  0  0  0
 10 11  1  0  0  0  0
 10 12  1  0  0  0  0
 10 33  1  0  0  0  0
 11 34  1  0  0  0  0
 12 13  1  0  0  0  0
 12 35  1  0  0  0  0
 12 36  1  0  0  0  0
 13 23  1  0  0  0  0
 13 14  1  0  0  0  0
 14 15  1  0  0  0  0
 14 17  2  0  0  0  0
 15 16  1  0  0  0  0
 15 37  1  0  0  0  0
 15 38  1  0  0  0  0
 16 39  1  0  0  0  0
 17 18  1  0  0  0  0
 17 45  1  0  0  0  0
 18 23  2  0  0  0  0
 18 19  1  0  0  0  0
 19 20  2  0  0  0  0
 19 40  1  0  0  0  0
 20 21  1  0  0  0  0
 20 41  1  0  0  0  0
 21 22  2  0  0  0  0
 21 42  1  0  0  0  0
 22 23  1  0  0  0  0
 22 43  1  0  0  0  0
 24 44  1  0  0  0  0
M  CHG  1  17   1
M  END
> <s_m_source_file>
AV-unprocessed.smi

> <i_m_source_file_index>
2057

> <i_lp_mmshare_version>
43012

> <i_f3d_flags>
0

> <s_epik_input>
W0NIM11PYzFbY0hdW2NIXWMoT1tDSDNdKWMoW2NIXTEpW0NASF0oW09IXSlbQ0gyXW4oYyhuMilbQ0gyXVtPSF0pYyhjMjMpW2NIXVtjSF1bY0hdW2NIXTM=

> <s_epik_cmdline>
J2VwaWtfcHl0aG9uJywgJy1waCcsICc3LjAnLCAnLXRuJywgJzgnLCAnLW1hJywgJzIwMCcsICctbWV0YWxfYmluZGluZycsICctaW1hZScsICc8aW5maWxlLm1hZT4nLCAnLW9tYWUnLCAnPG91dGZpbGUubWFlPic=

> <r_lp_tautomer_probability>
1

> <r_epik_Ionization_Penalty>
1.35643

> <r_epik_Ionization_Penalty_Charging>
1.35557

> <r_epik_Ionization_Penalty_Neutral>
0.000857128

> <r_epik_State_Penalty>
1.43401

> <r_epik_Charging_Adjusted_Penalty>
2.78958

> <i_epik_Tot_Q>
1

> <i_epik_Tot_abs_Q>
1

> <r_epik_Metal_State_Penalty>
5.47166

> <b_epik_Metal_Only>
0

> <s_lp_Force_Field>
OPLS_2005

> <r_lp_Energy>
20.8596

> <b_lp_Chiralities_Consistent>
1

> <s_lp_Variant>
AV-unprocessed.smi:2057-4

> <Gold.Version>
5.8.1

> <Gold.Id.Protein>
6NUR|6NUR_protein|mol2

> <Gold.PLP.Fitness>
64.4754

> <Gold.PLP.PLP>
-51.7674

> <Gold.PLP.part.hbond>
-5.0000

> <Gold.PLP.part.metal>
0.0000

> <Gold.PLP.part.buried>
1.9349

> <Gold.PLP.part.nonpolar>
-48.4989

> <Gold.PLP.part.repulsive>
0.1810

> <Gold.PLP.ligand.clash>
0.0000

> <Gold.PLP.ligand.torsion>
0.6541

> <Gold.PLP.Chemscore.Hbond>
4.6293

> <Gold.PLP.Chemscore.CHOScore>
0.0000

> <Gold.PLP.Chemscore.Metal>
0.0000

> <Gold.Chemscore.Hbonds>
donor molecule, donor type, donor heavy atom, donor atom, acceptor molecule, acceptor atom, score
      L1  H    16    39       P1  7949  0.63
      L1  H    17    45       P1  7948  2.00
      P1  H  7997  8010       L1     7  0.90
      P1  H 10752 10765       L1    16  0.98

> <Gold.PLP.Chemscore.Internal.Correction>
0.1284

> <Gold.Rescore>
     Score         DG    S(hbond)    S(metal)    S(lipo)     H(rot)  DE(clash)    DE(int)     intcor
     18.77     -21.23       2.34        0.00     139.10       3.25       1.68       0.78       ----

> <Gold.Chemscore.Fitness>
18.7720

> <Gold.Chemscore.DG>
-21.2280

> <Gold.Chemscore.ZeroCoef>
-5.4800

> <Gold.Chemscore.Hbond>
2.3363

> <Gold.Chemscore.Metal>
0.0000

> <Gold.Chemscore.Lipo>
139.0977

> <Gold.Chemscore.Internal_Hbond>
0.0000

> <Gold.Chemscore.DEClash>
1.6783

> <Gold.Chemscore.DEInternal>
0.7777

> <Gold.Chemscore.Rot>
3.2537

> <Gold.Chemscore.Internal.Correction>
   9.000000E+99

> <Gold.Chemscore.Hbonds>
donor molecule, donor type, donor heavy atom, donor atom, acceptor molecule, acceptor atom, score
      L1  H    16    39       P1  7949  0.55
      L1  H    17    45       P1  7948  0.68
      P1  H  7997  8010       L1     7  0.09
      P1  H 10752 10765       L1    16  0.65

> <Gold.Chemscore.Hbond.Weighted>
-7.8031

> <Gold.Chemscore.Metal.Weighted>
-0.0000

> <Gold.Chemscore.Lipo.Weighted>
-16.2744

> <Gold.Chemscore.Internal_Hbond.Weighted>
0.0000

> <Gold.Chemscore.DEClash.Weighted>
1.6783

> <Gold.Chemscore.DEInternal.Weighted>
0.7777

> <Gold.Chemscore.Rot.Weighted>
8.3295

> <Gold.Chemscore.Internal.Correction.Weighted>
   9.000000E+99

> <Gold.Protein.RotatedTorsions>
[ 6907 6896 6895 6894 ] final  173.68 input  -60.11 | X-H torsion
[ 7974 7965 7964 7962 ] final  172.67 input  175.53 | X-H torsion
[ 8008 7997 7996 7995 ] final   35.52 input   59.86 | X-H torsion
[ 10167 10162 10161 10158 ] final  -46.16 input  -65.29 | X-H torsion
[ 10718 10713 10712 10709 ] final -109.74 input   66.30 | X-H torsion
[ 10763 10752 10751 10750 ] final  140.60 input  -60.55 | X-H torsion
[ 11005 11000 10999 10996 ] final  -67.32 input  -57.11 | X-H torsion

> <Gold.Protein.ActiveResidues>
 VAL166  LYS551  ARG553  GLY616  TRP617  ASP618  TYR619  PRO620  LYS621  CYS622 
 ASP623  PHE694  ASN695  SER759  ASP760  ASP761  ALA762  ILE779  LEU786  VAL792 
 PHE793  MET794  SER795  GLU796  ALA797  LYS798  CYS799  TRP800  GLU811  SER814 

> <Gold.Protein.RotatedAtoms>
  151.7644  133.3336  159.3426 H   0  0  0  0  0  0  0  0  0  0  0  0  # atno 6907 bound_to 6896
  150.7485  134.6076  159.6078 H   0  0  0  0  0  0  0  0  0  0  0  0  # atno 6908 bound_to 6896
  152.3383  134.7170  160.0322 H   0  0  0  0  0  0  0  0  0  0  0  0  # atno 6909 bound_to 6896
  144.7262  139.9534  143.6432 H   0  0  0  0  0  0  0  0  0  0  0  0  # atno 7974 bound_to 7965
  155.1725  140.3293  155.4390 H   0  0  0  0  0  0  0  0  0  0  0  0  # atno 8008 bound_to 7997
  156.2505  140.1941  156.6778 H   0  0  0  0  0  0  0  0  0  0  0  0  # atno 8009 bound_to 7997
  154.6327  140.0580  156.9738 H   0  0  0  0  0  0  0  0  0  0  0  0  # atno 8010 bound_to 7997
  140.6829  143.2844  151.3742 H   0  0  0  0  0  0  0  0  0  0  0  0  # atno 10167 bound_to 10162
  156.0553  130.5779  150.8142 H   0  0  0  0  0  0  0  0  0  0  0  0  # atno 10718 bound_to 10713
  153.9254  135.2996  155.3447 H   0  0  0  0  0  0  0  0  0  0  0  0  # atno 10763 bound_to 10752
  154.7554  135.4960  153.9368 H   0  0  0  0  0  0  0  0  0  0  0  0  # atno 10764 bound_to 10752
  153.1120  135.6761  153.9588 H   0  0  0  0  0  0  0  0  0  0  0  0  # atno 10765 bound_to 10752
  141.1505  133.6717  156.6275 H   0  0  0  0  0  0  0  0  0  0  0  0  # atno 11005 bound_to 11000
  146.0694  139.3683  143.0532 LP  0  0  0  0  0  0  0  0  0  0  0  0  # atno 17320 bound_to 7965
  145.7988  140.9780  143.1010 LP  0  0  0  0  0  0  0  0  0  0  0  0  # atno 17321 bound_to 7965
  139.6165  144.0993  152.2350 LP  0  0  0  0  0  0  0  0  0  0  0  0  # atno 17342 bound_to 10162
  140.0424  144.5997  150.7400 LP  0  0  0  0  0  0  0  0  0  0  0  0  # atno 17343 bound_to 10162
  157.5517  131.0944  150.9685 LP  0  0  0  0  0  0  0  0  0  0  0  0  # atno 17370 bound_to 10713
  156.9944  130.5575  149.5306 LP  0  0  0  0  0  0  0  0  0  0  0  0  # atno 17371 bound_to 10713
  140.3493  134.7782  157.4455 LP  0  0  0  0  0  0  0  0  0  0  0  0  # atno 17394 bound_to 11000
  140.0874  134.5648  155.8478 LP  0  0  0  0  0  0  0  0  0  0  0  0  # atno 17395 bound_to 11000

$$$$
