AV-unprocessed.smi:229|AV-procd|sdf|1750|dock10
  -GOLD-   2262020273D 1   1.00000     0.00000
 Structure written by MMmdl.
 58 62  0  0  0  0  0  0  0  0  1 V2000
  154.3306  129.8584  165.2269 C   0  0  0  0  0  0  0  0  0  0  0  0
  154.8189  131.3121  165.2778 C   0  0  0  0  0  0  0  0  0  0  0  0
  154.6928  132.0541  163.9370 C   0  0  1  0  0  0  0  0  0  0  0  0
  154.9681  133.5641  164.0615 C   0  0  0  0  0  0  0  0  0  0  0  0
  154.9817  134.1821  162.7420 N   0  0  0  0  0  0  0  0  0  0  0  0
  154.8896  135.5356  162.7470 C   0  0  0  0  0  0  0  0  0  0  0  0
  155.1443  136.2323  163.8872 N   0  0  0  0  0  0  0  0  0  0  0  0
  155.0487  137.5651  163.8996 C   0  0  0  0  0  0  0  0  0  0  0  0
  154.7228  138.3878  162.9012 N   0  0  0  0  0  0  0  0  0  0  0  0
  154.4759  137.6958  161.7524 C   0  0  0  0  0  0  0  0  0  0  0  0
  154.5350  136.2832  161.5889 C   0  0  0  0  0  0  0  0  0  0  0  0
  154.2356  135.9466  160.2735 N   0  0  0  0  0  0  0  0  0  0  0  0
  154.0166  137.0945  159.6922 C   0  0  0  0  0  0  0  0  0  0  0  0
  154.1446  138.1968  160.5057 N   0  0  0  0  0  0  0  0  0  0  0  0
  153.9783  139.5853  160.1162 C   0  0  0  0  0  0  0  0  0  0  0  0
  154.1369  140.5663  161.2974 C   0  0  1  0  0  0  0  0  0  0  0  0
  155.5195  140.6695  161.5746 O   0  0  0  0  0  0  0  0  0  0  0  0
  153.5658  141.9773  161.0322 C   0  0  2  0  0  0  0  0  0  0  0  0
  153.0064  142.6878  162.2659 C   0  0  0  0  0  0  0  0  0  0  0  0
  152.0516  143.7137  161.6772 C   0  0  0  0  0  0  0  0  0  0  0  0
  151.7626  143.1820  160.2711 C   0  0  0  0  0  0  0  0  0  0  0  0
  152.4063  141.9172  160.2144 O   0  0  0  0  0  0  0  0  0  0  0  0
  155.9445  133.5628  161.8375 C   0  0  0  0  0  0  0  0  0  0  0  0
  155.6901  132.0452  161.7279 C   0  0  1  0  0  0  0  0  0  0  0  0
  154.4759  131.6707  160.8832 C   0  0  0  0  0  0  0  0  0  0  0  0
  154.8099  130.2480  160.4620 C   0  0  0  0  0  0  0  0  0  0  0  0
  156.2026  130.2917  160.1904 O   0  0  0  0  0  0  0  0  0  0  0  0
  156.8130  131.3169  160.9719 C   0  0  0  0  0  0  0  0  0  0  0  0
  155.6417  131.4729  163.0408 O   0  0  0  0  0  0  0  0  0  0  0  0
  154.4960  129.3627  166.1836 H   0  0  0  0  0  0  0  0  0  0  0  0
  154.8630  129.2908  164.4634 H   0  0  0  0  0  0  0  0  0  0  0  0
  153.2646  129.7999  165.0079 H   0  0  0  0  0  0  0  0  0  0  0  0
  154.2785  131.8551  166.0539 H   0  0  0  0  0  0  0  0  0  0  0  0
  155.8661  131.3116  165.5823 H   0  0  0  0  0  0  0  0  0  0  0  0
  153.6845  131.8974  163.5554 H   0  0  0  0  0  0  0  0  0  0  0  0
  154.2178  134.0252  164.7022 H   0  0  0  0  0  0  0  0  0  0  0  0
  155.9354  133.7316  164.5374 H   0  0  0  0  0  0  0  0  0  0  0  0
  155.2654  138.0406  164.8448 H   0  0  0  0  0  0  0  0  0  0  0  0
  153.7630  137.1703  158.6449 H   0  0  0  0  0  0  0  0  0  0  0  0
  154.7114  139.8084  159.3396 H   0  0  0  0  0  0  0  0  0  0  0  0
  152.9959  139.7006  159.6562 H   0  0  0  0  0  0  0  0  0  0  0  0
  153.6575  140.1478  162.1833 H   0  0  0  0  0  0  0  0  0  0  0  0
  155.9554  141.0114  160.8093 H   0  0  0  0  0  0  0  0  0  0  0  0
  154.3161  142.6084  160.5515 H   0  0  0  0  0  0  0  0  0  0  0  0
  152.4502  141.9823  162.8848 H   0  0  0  0  0  0  0  0  0  0  0  0
  153.7830  143.1396  162.8836 H   0  0  0  0  0  0  0  0  0  0  0  0
  151.1458  143.8039  162.2774 H   0  0  0  0  0  0  0  0  0  0  0  0
  152.5185  144.6977  161.6213 H   0  0  0  0  0  0  0  0  0  0  0  0
  150.6955  143.0822  160.0713 H   0  0  0  0  0  0  0  0  0  0  0  0
  152.1915  143.8392  159.5135 H   0  0  0  0  0  0  0  0  0  0  0  0
  155.8912  134.0241  160.8503 H   0  0  0  0  0  0  0  0  0  0  0  0
  156.9506  133.7398  162.2210 H   0  0  0  0  0  0  0  0  0  0  0  0
  153.5166  131.7501  161.3916 H   0  0  0  0  0  0  0  0  0  0  0  0
  154.4264  132.3045  159.9968 H   0  0  0  0  0  0  0  0  0  0  0  0
  154.6233  129.5505  161.2797 H   0  0  0  0  0  0  0  0  0  0  0  0
  154.2407  129.9193  159.5924 H   0  0  0  0  0  0  0  0  0  0  0  0
  157.3266  131.9914  160.2858 H   0  0  0  0  0  0  0  0  0  0  0  0
  157.5638  130.9023  161.6455 H   0  0  0  0  0  0  0  0  0  0  0  0
  1  2  1  0  0  0  0
  1 30  1  0  0  0  0
  1 31  1  0  0  0  0
  1 32  1  0  0  0  0
  2  3  1  0  0  0  0
  2 33  1  0  0  0  0
  2 34  1  0  0  0  0
  3 29  1  0  0  0  0
  3  4  1  0  0  0  0
  3 35  1  0  0  0  0
  4  5  1  0  0  0  0
  4 36  1  0  0  0  0
  4 37  1  0  0  0  0
  5  6  1  0  0  0  0
  5 23  1  0  0  0  0
  6 11  1  0  0  0  0
  6  7  2  0  0  0  0
  7  8  1  0  0  0  0
  8  9  2  0  0  0  0
  8 38  1  0  0  0  0
  9 10  1  0  0  0  0
 10 14  1  0  0  0  0
 10 11  2  0  0  0  0
 11 12  1  0  0  0  0
 12 13  2  0  0  0  0
 13 14  1  0  0  0  0
 13 39  1  0  0  0  0
 14 15  1  0  0  0  0
 15 16  1  0  0  0  0
 15 40  1  0  0  0  0
 15 41  1  0  0  0  0
 16 17  1  0  0  0  0
 16 18  1  0  0  0  0
 16 42  1  0  0  0  0
 17 43  1  0  0  0  0
 18 22  1  0  0  0  0
 18 19  1  0  0  0  0
 18 44  1  0  0  0  0
 19 20  1  0  0  0  0
 19 45  1  0  0  0  0
 19 46  1  0  0  0  0
 20 21  1  0  0  0  0
 20 47  1  0  0  0  0
 20 48  1  0  0  0  0
 21 22  1  0  0  0  0
 21 49  1  0  0  0  0
 21 50  1  0  0  0  0
 23 24  1  0  0  0  0
 23 51  1  0  0  0  0
 23 52  1  0  0  0  0
 24 28  1  0  0  0  0
 24 25  1  0  0  0  0
 24 29  1  0  0  0  0
 25 26  1  0  0  0  0
 25 53  1  0  0  0  0
 25 54  1  0  0  0  0
 26 27  1  0  0  0  0
 26 55  1  0  0  0  0
 26 56  1  0  0  0  0
 27 28  1  0  0  0  0
 28 57  1  0  0  0  0
 28 58  1  0  0  0  0
M  END
> <s_m_source_file>
AV-unprocessed.smi

> <i_m_source_file_index>
229

> <i_lp_mmshare_version>
43012

> <i_f3d_flags>
0

> <s_epik_input>
W0NIMl0xT1tDSDJdW0NIMl1bQ0BdMTJbQ0gyXU4oW0NIMl1bQ0BIXShPMilbQ0gyXVtDSDNdKWMobltjSF1uMyljKGMzNCluW2NIXW40W0NIMl1bQ0BIXShbT0hdKVtDQEBIXTVbQ0gyXVtDSDJdW0NIMl1PNQ==

> <s_epik_cmdline>
J2VwaWtfcHl0aG9uJywgJy1waCcsICc3LjAnLCAnLXRuJywgJzgnLCAnLW1hJywgJzIwMCcsICctbWV0YWxfYmluZGluZycsICctaW1hZScsICc8aW5maWxlLm1hZT4nLCAnLW9tYWUnLCAnPG91dGZpbGUubWFlPic=

> <r_lp_tautomer_probability>
1

> <r_epik_Ionization_Penalty>
0.00318402

> <r_epik_Ionization_Penalty_Charging>
0

> <r_epik_Ionization_Penalty_Neutral>
0.00318402

> <r_epik_State_Penalty>
0.00215642

> <r_epik_Charging_Adjusted_Penalty>
0.00215642

> <i_epik_Tot_Q>
0

> <i_epik_Tot_abs_Q>
0

> <r_epik_Metal_State_Penalty>
-0

> <b_epik_Metal_Only>
0

> <s_lp_Force_Field>
OPLS_2005

> <r_lp_Energy>
55.6403

> <b_lp_Chiralities_Consistent>
1

> <s_lp_Variant>
AV-unprocessed.smi:229-4

> <Gold.Version>
5.8.1

> <Gold.Id.Protein>
6NUR|6NUR_protein|mol2

> <Gold.PLP.Fitness>
46.2955

> <Gold.PLP.PLP>
-45.1904

> <Gold.PLP.part.hbond>
-2.0000

> <Gold.PLP.part.metal>
0.0000

> <Gold.PLP.part.buried>
-6.1374

> <Gold.PLP.part.nonpolar>
-36.5800

> <Gold.PLP.part.repulsive>
0.0657

> <Gold.PLP.ligand.clash>
0.0000

> <Gold.PLP.ligand.torsion>
1.1124

> <Gold.PLP.Chemscore.Hbond>
1.0000

> <Gold.PLP.Chemscore.CHOScore>
0.0000

> <Gold.PLP.Chemscore.Metal>
0.0000

> <Gold.Chemscore.Hbonds>
donor molecule, donor type, donor heavy atom, donor atom, acceptor molecule, acceptor atom, score
      P1  H  6896  6907       L1    12  0.57

> <Gold.PLP.Chemscore.Internal.Correction>
0.3298

> <Gold.Rescore>
     Score         DG    S(hbond)    S(metal)    S(lipo)     H(rot)  DE(clash)    DE(int)     intcor
     12.29     -14.80       0.93        0.00     106.94       2.46       0.05       2.47       ----

> <Gold.Chemscore.Fitness>
12.2916

> <Gold.Chemscore.DG>
-14.8044

> <Gold.Chemscore.ZeroCoef>
-5.4800

> <Gold.Chemscore.Hbond>
0.9303

> <Gold.Chemscore.Metal>
0.0000

> <Gold.Chemscore.Lipo>
106.9441

> <Gold.Chemscore.Internal_Hbond>
0.0000

> <Gold.Chemscore.DEClash>
0.0470

> <Gold.Chemscore.DEInternal>
2.4658

> <Gold.Chemscore.Rot>
2.4591

> <Gold.Chemscore.Internal.Correction>
   9.000000E+99

> <Gold.Chemscore.Hbonds>
donor molecule, donor type, donor heavy atom, donor atom, acceptor molecule, acceptor atom, score
      P1  H  6896  6907       L1    12  0.33

> <Gold.Chemscore.Hbond.Weighted>
-3.1072

> <Gold.Chemscore.Metal.Weighted>
-0.0000

> <Gold.Chemscore.Lipo.Weighted>
-12.5125

> <Gold.Chemscore.Internal_Hbond.Weighted>
0.0000

> <Gold.Chemscore.DEClash.Weighted>
0.0470

> <Gold.Chemscore.DEInternal.Weighted>
2.4658

> <Gold.Chemscore.Rot.Weighted>
6.2953

> <Gold.Chemscore.Internal.Correction.Weighted>
   9.000000E+99

> <Gold.Protein.RotatedTorsions>
[ 6907 6896 6895 6894 ] final   57.29 input  -60.11 | X-H torsion
[ 7974 7965 7964 7962 ] final   41.50 input  175.53 | X-H torsion
[ 8008 7997 7996 7995 ] final   40.90 input   59.86 | X-H torsion
[ 10167 10162 10161 10158 ] final   -5.53 input  -65.29 | X-H torsion
[ 10718 10713 10712 10709 ] final  -28.91 input   66.30 | X-H torsion
[ 10763 10752 10751 10750 ] final -126.58 input  -60.55 | X-H torsion
[ 11005 11000 10999 10996 ] final  -66.30 input  -57.11 | X-H torsion

> <Gold.Protein.ActiveResidues>
 VAL166  LYS551  ARG553  GLY616  TRP617  ASP618  TYR619  PRO620  LYS621  CYS622 
 ASP623  PHE694  ASN695  SER759  ASP760  ASP761  ALA762  ILE779  LEU786  VAL792 
 PHE793  MET794  SER795  GLU796  ALA797  LYS798  CYS799  TRP800  GLU811  SER814 

> <Gold.Protein.RotatedAtoms>
  152.3717  134.6724  160.0173 H   0  0  0  0  0  0  0  0  0  0  0  0  # atno 6907 bound_to 6896
  151.7015  133.3306  159.3276 H   0  0  0  0  0  0  0  0  0  0  0  0  # atno 6908 bound_to 6896
  150.7678  134.6546  159.6351 H   0  0  0  0  0  0  0  0  0  0  0  0  # atno 6909 bound_to 6896
  146.0818  139.5409  142.9532 H   0  0  0  0  0  0  0  0  0  0  0  0  # atno 7974 bound_to 7965
  155.2608  140.3359  155.4273 H   0  0  0  0  0  0  0  0  0  0  0  0  # atno 8008 bound_to 7997
  156.2175  140.1795  156.7597 H   0  0  0  0  0  0  0  0  0  0  0  0  # atno 8009 bound_to 7997
  154.5776  140.0659  156.9041 H   0  0  0  0  0  0  0  0  0  0  0  0  # atno 8010 bound_to 7997
  140.6966  143.6298  150.8534 H   0  0  0  0  0  0  0  0  0  0  0  0  # atno 10167 bound_to 10162
  156.4191  130.4423  149.7196 H   0  0  0  0  0  0  0  0  0  0  0  0  # atno 10718 bound_to 10713
  154.8746  135.3991  154.3454 H   0  0  0  0  0  0  0  0  0  0  0  0  # atno 10763 bound_to 10752
  153.4247  135.7024  153.6275 H   0  0  0  0  0  0  0  0  0  0  0  0  # atno 10764 bound_to 10752
  153.4923  135.3745  155.2468 H   0  0  0  0  0  0  0  0  0  0  0  0  # atno 10765 bound_to 10752
  141.1478  133.6697  156.6118 H   0  0  0  0  0  0  0  0  0  0  0  0  # atno 11005 bound_to 11000
  145.6203  141.0324  143.1918 LP  0  0  0  0  0  0  0  0  0  0  0  0  # atno 17320 bound_to 7965
  144.7298  139.7759  143.7351 LP  0  0  0  0  0  0  0  0  0  0  0  0  # atno 17321 bound_to 7965
  140.0016  143.5738  152.2873 LP  0  0  0  0  0  0  0  0  0  0  0  0  # atno 17342 bound_to 10162
  139.6429  144.7656  151.2302 LP  0  0  0  0  0  0  0  0  0  0  0  0  # atno 17343 bound_to 10162
  156.4144  130.7738  151.2752 LP  0  0  0  0  0  0  0  0  0  0  0  0  # atno 17370 bound_to 10713
  157.7508  131.0201  150.3697 LP  0  0  0  0  0  0  0  0  0  0  0  0  # atno 17371 bound_to 10713
  140.3609  134.7688  157.4533 LP  0  0  0  0  0  0  0  0  0  0  0  0  # atno 17394 bound_to 11000
  140.0786  134.5763  155.8564 LP  0  0  0  0  0  0  0  0  0  0  0  0  # atno 17395 bound_to 11000

$$$$
