AV-unprocessed.smi:1222|AV-procd|sdf|5121|dock4
  -GOLD-   22720 4183D 1   1.00000     0.00000
 Structure written by MMmdl.
 37 39  0  0  0  0  0  0  0  0  2 V2000
  146.0216  138.9851  153.5426 O   0  0  0  0  0  0  0  0  0  0  0  0
  146.9100  138.2078  153.1920 C   0  0  0  0  0  0  0  0  0  0  0  0
  148.2206  138.3537  153.4547 N   0  0  0  0  0  0  0  0  0  0  0  0
  148.8601  139.3985  154.1723 C   0  0  0  0  0  0  0  0  0  0  0  0
  149.9904  139.2508  154.8733 N   0  0  0  0  0  0  0  0  0  0  0  0
  150.3927  140.4446  155.4775 C   0  0  0  0  0  0  0  0  0  0  0  0
  149.5509  141.4990  155.2242 C   0  0  0  0  0  0  0  0  0  0  0  0
  148.2115  141.0315  154.2107 S   0  0  0  0  0  0  0  0  0  0  0  0
  146.6754  137.0902  152.4885 N   0  0  0  0  0  0  0  0  0  0  0  0
  145.3603  136.6463  152.0352 C   0  0  2  0  0  0  0  0  0  0  0  0
  144.7279  135.6714  153.0468 C   0  0  0  0  0  0  0  0  0  0  0  0
  143.3855  135.1229  152.5271 C   0  0  0  0  0  0  0  0  0  0  0  0
  143.5181  134.4916  151.1888 N   0  3  2  0  0  0  0  0  0  0  0  0
  144.1706  133.1618  151.2302 C   0  0  0  0  0  0  0  0  0  0  0  0
  144.8294  132.7677  149.9289 C   0  0  0  0  0  0  0  0  0  0  0  0
  143.5147  132.1388  150.3325 C   0  0  0  0  0  0  0  0  0  0  0  0
  144.1223  135.4137  150.1927 C   0  0  0  0  0  0  0  0  0  0  0  0
  145.4820  135.9651  150.6622 C   0  0  0  0  0  0  0  0  0  0  0  0
  148.8336  137.6342  153.1012 H   0  0  0  0  0  0  0  0  0  0  0  0
  151.2936  140.4540  156.0733 H   0  0  0  0  0  0  0  0  0  0  0  0
  149.6374  142.5177  155.5714 H   0  0  0  0  0  0  0  0  0  0  0  0
  147.4639  136.5095  152.2429 H   0  0  0  0  0  0  0  0  0  0  0  0
  144.7101  137.5167  151.9264 H   0  0  0  0  0  0  0  0  0  0  0  0
  145.4126  134.8467  153.2486 H   0  0  0  0  0  0  0  0  0  0  0  0
  144.5671  136.1729  154.0018 H   0  0  0  0  0  0  0  0  0  0  0  0
  142.9663  134.4085  153.2365 H   0  0  0  0  0  0  0  0  0  0  0  0
  142.6655  135.9388  152.4520 H   0  0  0  0  0  0  0  0  0  0  0  0
  144.6086  132.8581  152.1790 H   0  0  0  0  0  0  0  0  0  0  0  0
  144.8135  133.4792  149.1052 H   0  0  0  0  0  0  0  0  0  0  0  0
  145.7186  132.1432  149.9858 H   0  0  0  0  0  0  0  0  0  0  0  0
  143.5375  131.0999  150.6551 H   0  0  0  0  0  0  0  0  0  0  0  0
  142.6263  132.4331  149.7764 H   0  0  0  0  0  0  0  0  0  0  0  0
  144.2273  134.9085  149.2321 H   0  0  0  0  0  0  0  0  0  0  0  0
  143.4318  136.2421  150.0290 H   0  0  0  0  0  0  0  0  0  0  0  0
  145.8608  136.6759  149.9268 H   0  0  0  0  0  0  0  0  0  0  0  0
  146.2129  135.1565  150.7087 H   0  0  0  0  0  0  0  0  0  0  0  0
  142.5763  134.3137  150.8697 H   0  0  0  0  0  0  0  0  0  0  0  0
  1  2  2  0  0  0  0
  2  3  1  0  0  0  0
  2  9  1  0  0  0  0
  3  4  1  0  0  0  0
  3 19  1  0  0  0  0
  4  8  1  0  0  0  0
  4  5  2  0  0  0  0
  5  6  1  0  0  0  0
  6  7  2  0  0  0  0
  6 20  1  0  0  0  0
  7  8  1  0  0  0  0
  7 21  1  0  0  0  0
  9 10  1  0  0  0  0
  9 22  1  0  0  0  0
 10 18  1  0  0  0  0
 10 11  1  0  0  0  0
 10 23  1  0  0  0  0
 11 12  1  0  0  0  0
 11 24  1  0  0  0  0
 11 25  1  0  0  0  0
 12 13  1  0  0  0  0
 12 26  1  0  0  0  0
 12 27  1  0  0  0  0
 13 14  1  0  0  0  0
 13 17  1  0  0  0  0
 13 37  1  0  0  0  0
 14 16  1  0  0  0  0
 14 15  1  0  0  0  0
 14 28  1  0  0  0  0
 15 16  1  0  0  0  0
 15 29  1  0  0  0  0
 15 30  1  0  0  0  0
 16 31  1  0  0  0  0
 16 32  1  0  0  0  0
 17 18  1  0  0  0  0
 17 33  1  0  0  0  0
 17 34  1  0  0  0  0
 18 35  1  0  0  0  0
 18 36  1  0  0  0  0
M  CHG  1  13   1
M  END
> <s_m_source_file>
AV-unprocessed.smi

> <i_m_source_file_index>
1222

> <i_lp_mmshare_version>
43012

> <i_f3d_flags>
0

> <s_epik_input>
czFbY0hdW2NIXW5jMVtOSF1DKD1PKVtOSF1bQ0hdMltDSDJdW0NIMl1OKFtDSDJdW0NIMl0yKVtDSF0zW0NIMl1bQ0gyXTM=

> <s_epik_cmdline>
J2VwaWtfcHl0aG9uJywgJy1waCcsICc3LjAnLCAnLXRuJywgJzgnLCAnLW1hJywgJzIwMCcsICctbWV0YWxfYmluZGluZycsICctaW1hZScsICc8aW5maWxlLm1hZT4nLCAnLW9tYWUnLCAnPG91dGZpbGUubWFlPic=

> <r_lp_tautomer_probability>
0.999

> <r_epik_Ionization_Penalty>
0.124652

> <r_epik_Ionization_Penalty_Charging>
0.124514

> <r_epik_Ionization_Penalty_Neutral>
0.000138693

> <r_epik_State_Penalty>
0.113992

> <r_epik_Charging_Adjusted_Penalty>
0.238505

> <i_epik_Tot_Q>
1

> <i_epik_Tot_abs_Q>
1

> <r_epik_Metal_State_Penalty>
0.160715

> <b_epik_Metal_Only>
0

> <s_lp_Force_Field>
OPLS_2005

> <r_lp_Energy>
26.0033

> <b_lp_Chiralities_Consistent>
1

> <s_lp_Variant>
AV-unprocessed.smi:1222-2

> <Gold.Version>
5.8.1

> <Gold.Id.Protein>
6NUR|6NUR_protein|mol2

> <Gold.PLP.Fitness>
44.2491

> <Gold.PLP.PLP>
-31.1977

> <Gold.PLP.part.hbond>
-3.6418

> <Gold.PLP.part.metal>
0.0000

> <Gold.PLP.part.buried>
-1.3488

> <Gold.PLP.part.nonpolar>
-28.8814

> <Gold.PLP.part.repulsive>
1.6613

> <Gold.PLP.ligand.clash>
0.0000

> <Gold.PLP.ligand.torsion>
1.4013

> <Gold.PLP.Chemscore.Hbond>
3.8625

> <Gold.PLP.Chemscore.CHOScore>
1.0000

> <Gold.PLP.Chemscore.Metal>
0.0000

> <Gold.Chemscore.Hbonds>
donor molecule, donor type, donor heavy atom, donor atom, acceptor molecule, acceptor atom, score
      L1  H     3    19       P1  7948  0.88
      L1  H     9    22       P1  7948  1.00
      L1  H    13    37       P1 10186  1.95
      L1  C     7    21       P1  8028  1.00

> <Gold.PLP.Chemscore.Internal.Correction>
1.2666

> <Gold.Rescore>
     Score         DG    S(hbond)    S(metal)    S(lipo)     H(rot)  DE(clash)    DE(int)     intcor
     16.39     -18.96       2.33        0.00      76.37       1.26       1.08       1.48       ----

> <Gold.Chemscore.Fitness>
16.3940

> <Gold.Chemscore.DG>
-18.9588

> <Gold.Chemscore.ZeroCoef>
-5.4800

> <Gold.Chemscore.Hbond>
2.3267

> <Gold.Chemscore.Metal>
0.0000

> <Gold.Chemscore.Lipo>
76.3707

> <Gold.Chemscore.Internal_Hbond>
0.0000

> <Gold.Chemscore.DEClash>
1.0847

> <Gold.Chemscore.DEInternal>
1.4801

> <Gold.Chemscore.Rot>
1.2609

> <Gold.Chemscore.Internal.Correction>
   9.000000E+99

> <Gold.Chemscore.Hbonds>
donor molecule, donor type, donor heavy atom, donor atom, acceptor molecule, acceptor atom, score
      L1  H     3    19       P1  7948  0.86
      L1  H     9    22       P1  7948  0.93
      L1  H    13    37       P1 10186  0.23

> <Gold.Chemscore.Hbond.Weighted>
-7.7713

> <Gold.Chemscore.Metal.Weighted>
-0.0000

> <Gold.Chemscore.Lipo.Weighted>
-8.9354

> <Gold.Chemscore.Internal_Hbond.Weighted>
0.0000

> <Gold.Chemscore.DEClash.Weighted>
1.0847

> <Gold.Chemscore.DEInternal.Weighted>
1.4801

> <Gold.Chemscore.Rot.Weighted>
3.2279

> <Gold.Chemscore.Internal.Correction.Weighted>
   9.000000E+99

> <Gold.Protein.RotatedTorsions>
[ 6907 6896 6895 6894 ] final    7.87 input  -60.11 | X-H torsion
[ 7974 7965 7964 7962 ] final   68.08 input  175.53 | X-H torsion
[ 8008 7997 7996 7995 ] final  130.54 input   59.86 | X-H torsion
[ 10167 10162 10161 10158 ] final  -51.19 input  -65.29 | X-H torsion
[ 10718 10713 10712 10709 ] final   56.14 input   66.30 | X-H torsion
[ 10763 10752 10751 10750 ] final  136.27 input  -60.55 | X-H torsion
[ 11005 11000 10999 10996 ] final  -16.51 input  -57.11 | X-H torsion

> <Gold.Protein.ActiveResidues>
 VAL166  LYS551  ARG553  GLY616  TRP617  ASP618  TYR619  PRO620  LYS621  CYS622 
 ASP623  PHE694  ASN695  SER759  ASP760  ASP761  ALA762  ILE779  LEU786  VAL792 
 PHE793  MET794  SER795  GLU796  ALA797  LYS798  CYS799  TRP800  GLU811  SER814 

> <Gold.Protein.RotatedAtoms>
  151.6968  135.0937  160.0243 H   0  0  0  0  0  0  0  0  0  0  0  0  # atno 6907 bound_to 6896
  152.3745  133.6458  159.6121 H   0  0  0  0  0  0  0  0  0  0  0  0  # atno 6908 bound_to 6896
  150.7698  133.9133  159.3417 H   0  0  0  0  0  0  0  0  0  0  0  0  # atno 6909 bound_to 6896
  145.8069  139.3011  143.1122 H   0  0  0  0  0  0  0  0  0  0  0  0  # atno 7974 bound_to 7965
  156.2956  140.2593  156.2778 H   0  0  0  0  0  0  0  0  0  0  0  0  # atno 8008 bound_to 7997
  154.9631  140.0392  157.2218 H   0  0  0  0  0  0  0  0  0  0  0  0  # atno 8009 bound_to 7997
  154.7928  140.2814  155.5984 H   0  0  0  0  0  0  0  0  0  0  0  0  # atno 8010 bound_to 7997
  140.6601  143.2629  151.4468 H   0  0  0  0  0  0  0  0  0  0  0  0  # atno 10167 bound_to 10162
  157.5405  130.8694  149.8816 H   0  0  0  0  0  0  0  0  0  0  0  0  # atno 10718 bound_to 10713
  153.8538  135.3076  155.3434 H   0  0  0  0  0  0  0  0  0  0  0  0  # atno 10763 bound_to 10752
  154.7879  135.4799  153.9990 H   0  0  0  0  0  0  0  0  0  0  0  0  # atno 10764 bound_to 10752
  153.1502  135.6841  153.8987 H   0  0  0  0  0  0  0  0  0  0  0  0  # atno 10765 bound_to 10752
  140.8075  133.8166  155.9531 H   0  0  0  0  0  0  0  0  0  0  0  0  # atno 11005 bound_to 11000
  145.9819  140.8675  143.0110 LP  0  0  0  0  0  0  0  0  0  0  0  0  # atno 17320 bound_to 7965
  144.6762  140.2092  143.7379 LP  0  0  0  0  0  0  0  0  0  0  0  0  # atno 17321 bound_to 7965
  139.5832  144.1662  152.1995 LP  0  0  0  0  0  0  0  0  0  0  0  0  # atno 17342 bound_to 10162
  140.0994  144.5552  150.6999 LP  0  0  0  0  0  0  0  0  0  0  0  0  # atno 17343 bound_to 10162
  156.0493  130.3721  150.1240 LP  0  0  0  0  0  0  0  0  0  0  0  0  # atno 17370 bound_to 10713
  156.9420  130.9747  151.3514 LP  0  0  0  0  0  0  0  0  0  0  0  0  # atno 17371 bound_to 10713
  140.9231  134.2116  157.4913 LP  0  0  0  0  0  0  0  0  0  0  0  0  # atno 17394 bound_to 11000
  139.8716  134.9801  156.5062 LP  0  0  0  0  0  0  0  0  0  0  0  0  # atno 17395 bound_to 11000

$$$$
