AV-unprocessed.smi:3096|AV-procd|sdf|11797|dock7
  -GOLD-   2272017173D 1   1.00000     0.00000
 Structure written by MMmdl.
 33 33  0  0  0  0  0  0  0  0  2 V2000
  144.3741  132.7558  150.5026 C   0  0  0  0  0  0  0  0  0  0  0  0
  145.3293  133.0544  151.4004 C   0  0  0  0  0  0  0  0  0  0  0  0
  145.9164  134.4283  151.6911 C   0  0  0  0  0  0  0  0  0  0  0  0
  144.8866  135.3965  152.1042 N   0  0  0  0  0  0  0  0  0  0  0  0
  145.0597  136.7254  152.2504 C   0  0  0  0  0  0  0  0  0  0  0  0
  144.0238  137.5027  152.6212 N   0  3  0  0  0  0  0  0  0  0  0  0
  142.6593  137.0347  152.8924 C   0  0  0  0  0  0  0  0  0  0  0  0
  146.2687  137.2763  152.0298 N   0  0  0  0  0  0  0  0  0  0  0  0
  146.6147  138.6980  152.1609 C   0  0  0  0  0  0  0  0  0  0  0  0
  147.6339  138.9271  153.2875 C   0  0  0  0  0  0  0  0  0  0  0  0
  147.5969  140.2881  153.7909 N   0  0  0  0  0  0  0  0  0  0  0  0
  146.6474  141.2610  153.5605 C   0  0  0  0  0  0  0  0  0  0  0  0
  147.0328  142.3756  154.2486 C   0  0  0  0  0  0  0  0  0  0  0  0
  148.2469  141.9823  154.8773 C   0  0  0  0  0  0  0  0  0  0  0  0
  148.5821  140.7320  154.6021 N   0  0  0  0  0  0  0  0  0  0  0  0
  143.9163  133.5064  149.8751 H   0  0  0  0  0  0  0  0  0  0  0  0
  144.0341  131.7375  150.3842 H   0  0  0  0  0  0  0  0  0  0  0  0
  145.7390  132.2491  151.9927 H   0  0  0  0  0  0  0  0  0  0  0  0
  146.6549  134.3352  152.4874 H   0  0  0  0  0  0  0  0  0  0  0  0
  146.4369  134.7984  150.8075 H   0  0  0  0  0  0  0  0  0  0  0  0
  143.9679  135.0170  152.2831 H   0  0  0  0  0  0  0  0  0  0  0  0
  142.0224  137.8741  153.1712 H   0  0  0  0  0  0  0  0  0  0  0  0
  142.6592  136.3141  153.7103 H   0  0  0  0  0  0  0  0  0  0  0  0
  142.2367  136.5592  152.0071 H   0  0  0  0  0  0  0  0  0  0  0  0
  147.0292  136.6597  151.7793 H   0  0  0  0  0  0  0  0  0  0  0  0
  147.0408  139.0348  151.2156 H   0  0  0  0  0  0  0  0  0  0  0  0
  145.7098  139.2817  152.3324 H   0  0  0  0  0  0  0  0  0  0  0  0
  147.4560  138.2381  154.1148 H   0  0  0  0  0  0  0  0  0  0  0  0
  148.6414  138.7216  152.9240 H   0  0  0  0  0  0  0  0  0  0  0  0
  145.7860  141.0813  152.9341 H   0  0  0  0  0  0  0  0  0  0  0  0
  146.5246  143.3272  154.2958 H   0  0  0  0  0  0  0  0  0  0  0  0
  148.8897  142.5639  155.5216 H   0  0  0  0  0  0  0  0  0  0  0  0
  144.1861  138.4941  152.7263 H   0  0  0  0  0  0  0  0  0  0  0  0
  1  2  2  0  0  0  0
  1 16  1  0  0  0  0
  1 17  1  0  0  0  0
  2  3  1  0  0  0  0
  2 18  1  0  0  0  0
  3  4  1  0  0  0  0
  3 19  1  0  0  0  0
  3 20  1  0  0  0  0
  4  5  1  0  0  0  0
  4 21  1  0  0  0  0
  5  6  2  0  0  0  0
  5  8  1  0  0  0  0
  6  7  1  0  0  0  0
  6 33  1  0  0  0  0
  7 22  1  0  0  0  0
  7 23  1  0  0  0  0
  7 24  1  0  0  0  0
  8  9  1  0  0  0  0
  8 25  1  0  0  0  0
  9 10  1  0  0  0  0
  9 26  1  0  0  0  0
  9 27  1  0  0  0  0
 10 11  1  0  0  0  0
 10 28  1  0  0  0  0
 10 29  1  0  0  0  0
 11 15  1  0  0  0  0
 11 12  1  0  0  0  0
 12 13  2  0  0  0  0
 12 30  1  0  0  0  0
 13 14  1  0  0  0  0
 13 31  1  0  0  0  0
 14 15  2  0  0  0  0
 14 32  1  0  0  0  0
M  CHG  1   6   1
M  END
> <s_m_source_file>
AV-unprocessed.smi

> <i_m_source_file_index>
3096

> <i_lp_mmshare_version>
43012

> <i_f3d_flags>
0

> <s_epik_input>
W0NIMl09W0NIXVtDSDJdW05IXS9DKD1OL1tDSDNdKVtOSF1bQ0gyXVtDSDJdbjFbY0hdW2NIXVtjSF1uMQ==

> <s_epik_cmdline>
J2VwaWtfcHl0aG9uJywgJy1waCcsICc3LjAnLCAnLXRuJywgJzgnLCAnLW1hJywgJzIwMCcsICctbWV0YWxfYmluZGluZycsICctaW1hZScsICc8aW5maWxlLm1hZT4nLCAnLW9tYWUnLCAnPG91dGZpbGUubWFlPic=

> <r_lp_tautomer_probability>
1

> <r_epik_Ionization_Penalty>
5.14269e-05

> <r_epik_Ionization_Penalty_Charging>
1.55211e-07

> <r_epik_Ionization_Penalty_Neutral>
5.12717e-05

> <r_epik_State_Penalty>
-0

> <r_epik_Charging_Adjusted_Penalty>
1.55211e-07

> <i_epik_Tot_Q>
1

> <i_epik_Tot_abs_Q>
1

> <r_epik_Metal_State_Penalty>
-0

> <b_epik_Metal_Only>
0

> <s_epik_Chemistry_Notes>
This compound has an imine and may undergo hydrolysis.

> <s_lp_Force_Field>
OPLS_2005

> <r_lp_Energy>
6.72739

> <b_lp_Chiralities_Consistent>
1

> <s_lp_Variant>
AV-unprocessed.smi:3096-2

> <Gold.Version>
5.8.1

> <Gold.Id.Protein>
6NUR|6NUR_protein|mol2

> <Gold.PLP.Fitness>
44.8196

> <Gold.PLP.PLP>
-28.1694

> <Gold.PLP.part.hbond>
-3.0000

> <Gold.PLP.part.metal>
0.0000

> <Gold.PLP.part.buried>
-0.9324

> <Gold.PLP.part.nonpolar>
-25.3504

> <Gold.PLP.part.repulsive>
0.1994

> <Gold.PLP.ligand.clash>
0.0000

> <Gold.PLP.ligand.torsion>
0.3123

> <Gold.PLP.Chemscore.Hbond>
3.9840

> <Gold.PLP.Chemscore.CHOScore>
1.7729

> <Gold.PLP.Chemscore.Metal>
0.0000

> <Gold.Chemscore.Hbonds>
donor molecule, donor type, donor heavy atom, donor atom, acceptor molecule, acceptor atom, score
      L1  H     6    33       P1 10175  1.98
      L1  H     8    25       P1  7948  1.98
      L1  C    12    30       P1 10175  0.94
      L1  C    14    32       P1  8028  0.89

> <Gold.PLP.Chemscore.Internal.Correction>
0.0040

> <Gold.Rescore>
     Score         DG    S(hbond)    S(metal)    S(lipo)     H(rot)  DE(clash)    DE(int)     intcor
     12.82     -13.74       1.92        0.00      57.03       1.89       0.68       0.25       ----

> <Gold.Chemscore.Fitness>
12.8154

> <Gold.Chemscore.DG>
-13.7403

> <Gold.Chemscore.ZeroCoef>
-5.4800

> <Gold.Chemscore.Hbond>
1.9232

> <Gold.Chemscore.Metal>
0.0000

> <Gold.Chemscore.Lipo>
57.0333

> <Gold.Chemscore.Internal_Hbond>
0.0000

> <Gold.Chemscore.DEClash>
0.6792

> <Gold.Chemscore.DEInternal>
0.2457

> <Gold.Chemscore.Rot>
1.8891

> <Gold.Chemscore.Internal.Correction>
   9.000000E+99

> <Gold.Chemscore.Hbonds>
donor molecule, donor type, donor heavy atom, donor atom, acceptor molecule, acceptor atom, score
      L1  H     6    33       P1 10175  0.89
      L1  H     8    25       P1  7948  0.93

> <Gold.Chemscore.Hbond.Weighted>
-6.4234

> <Gold.Chemscore.Metal.Weighted>
-0.0000

> <Gold.Chemscore.Lipo.Weighted>
-6.6729

> <Gold.Chemscore.Internal_Hbond.Weighted>
0.0000

> <Gold.Chemscore.DEClash.Weighted>
0.6792

> <Gold.Chemscore.DEInternal.Weighted>
0.2457

> <Gold.Chemscore.Rot.Weighted>
4.8361

> <Gold.Chemscore.Internal.Correction.Weighted>
   9.000000E+99

> <Gold.Protein.RotatedTorsions>
[ 6907 6896 6895 6894 ] final   63.74 input  -60.11 | X-H torsion
[ 7974 7965 7964 7962 ] final  -40.75 input  175.53 | X-H torsion
[ 8008 7997 7996 7995 ] final  -23.29 input   59.86 | X-H torsion
[ 10167 10162 10161 10158 ] final -148.82 input  -65.29 | X-H torsion
[ 10718 10713 10712 10709 ] final   -2.86 input   66.30 | X-H torsion
[ 10763 10752 10751 10750 ] final -143.85 input  -60.55 | X-H torsion
[ 11005 11000 10999 10996 ] final  138.13 input  -57.11 | X-H torsion

> <Gold.Protein.ActiveResidues>
 VAL166  LYS551  ARG553  GLY616  TRP617  ASP618  TYR619  PRO620  LYS621  CYS622 
 ASP623  PHE694  ASN695  SER759  ASP760  ASP761  ALA762  ILE779  LEU786  VAL792 
 PHE793  MET794  SER795  GLU796  ALA797  LYS798  CYS799  TRP800  GLU811  SER814 

> <Gold.Protein.RotatedAtoms>
  152.4277  134.5837  159.9954 H   0  0  0  0  0  0  0  0  0  0  0  0  # atno 6907 bound_to 6896
  151.5969  133.3355  159.3047 H   0  0  0  0  0  0  0  0  0  0  0  0  # atno 6908 bound_to 6896
  150.8167  134.7390  159.6802 H   0  0  0  0  0  0  0  0  0  0  0  0  # atno 6909 bound_to 6896
  146.0275  140.6773  142.9148 H   0  0  0  0  0  0  0  0  0  0  0  0  # atno 7974 bound_to 7965
  154.4594  140.1984  156.0288 H   0  0  0  0  0  0  0  0  0  0  0  0  # atno 8008 bound_to 7997
  156.0810  140.3271  155.7665 H   0  0  0  0  0  0  0  0  0  0  0  0  # atno 8009 bound_to 7997
  155.5112  140.0562  157.2914 H   0  0  0  0  0  0  0  0  0  0  0  0  # atno 8010 bound_to 7997
  139.7497  143.8537  152.2583 H   0  0  0  0  0  0  0  0  0  0  0  0  # atno 10167 bound_to 10162
  156.7846  130.5341  149.5745 H   0  0  0  0  0  0  0  0  0  0  0  0  # atno 10718 bound_to 10713
  154.8453  135.3456  154.6252 H   0  0  0  0  0  0  0  0  0  0  0  0  # atno 10763 bound_to 10752
  153.6861  135.6977  153.5108 H   0  0  0  0  0  0  0  0  0  0  0  0  # atno 10764 bound_to 10752
  153.2630  135.4317  155.0869 H   0  0  0  0  0  0  0  0  0  0  0  0  # atno 10765 bound_to 10752
  140.0162  134.9417  157.0381 H   0  0  0  0  0  0  0  0  0  0  0  0  # atno 11005 bound_to 11000
  144.7016  140.3676  143.7151 LP  0  0  0  0  0  0  0  0  0  0  0  0  # atno 17320 bound_to 7965
  145.7094  139.1681  143.2547 LP  0  0  0  0  0  0  0  0  0  0  0  0  # atno 17321 bound_to 7965
  139.8511  144.7164  150.9213 LP  0  0  0  0  0  0  0  0  0  0  0  0  # atno 17342 bound_to 10162
  140.7796  143.3898  151.1330 LP  0  0  0  0  0  0  0  0  0  0  0  0  # atno 17343 bound_to 10162
  156.1197  130.6101  151.0174 LP  0  0  0  0  0  0  0  0  0  0  0  0  # atno 17370 bound_to 10713
  157.6630  131.0877  150.7794 LP  0  0  0  0  0  0  0  0  0  0  0  0  # atno 17371 bound_to 10713
  140.4466  134.1625  155.7178 LP  0  0  0  0  0  0  0  0  0  0  0  0  # atno 17394 bound_to 11000
  141.1744  133.8543  157.1467 LP  0  0  0  0  0  0  0  0  0  0  0  0  # atno 17395 bound_to 11000

$$$$
