AV-unprocessed.smi:1278|AV-procd|sdf|5354|dock2
  -GOLD-   22720 4493D 1   1.00000     0.00000
 Structure written by MMmdl.
 38 39  0  0  0  0  0  0  0  0  3 V2000
  146.6628  132.1213  152.0084 C   0  0  0  0  0  0  0  0  0  0  0  0
  146.6452  133.6535  151.9132 C   0  0  1  0  0  0  0  0  0  0  0  0
  145.5415  134.1440  150.9614 C   0  0  0  0  0  0  0  0  0  0  0  0
  145.5307  135.6765  150.9064 C   0  0  0  0  0  0  0  0  0  0  0  0
  145.3935  136.2763  152.3145 C   0  0  0  0  0  0  0  0  0  0  0  0
  146.4718  135.7884  153.2129 N   0  3  1  0  0  0  0  0  0  0  0  0
  146.4367  136.4506  154.5401 C   0  0  0  0  0  0  0  0  0  0  0  0
  147.4619  135.8496  155.5205 C   0  0  0  0  0  0  0  0  0  0  0  0
  147.4294  136.5351  156.8068 N   0  0  0  0  0  0  0  0  0  0  0  0
  147.6336  135.9652  158.0029 C   0  0  0  0  0  0  0  0  0  0  0  0
  147.8542  134.7541  158.0768 O   0  0  0  0  0  0  0  0  0  0  0  0
  147.5781  136.8354  159.0354 N   0  5  0  0  0  0  0  0  0  0  0  0
  147.3853  136.3828  160.2852 C   0  0  0  0  0  0  0  0  0  0  0  0
  147.4360  137.1720  161.3644 N   0  0  0  0  0  0  0  0  0  0  0  0
  147.2120  136.4895  162.5617 C   0  0  0  0  0  0  0  0  0  0  0  0
  146.9921  135.1487  162.3904 C   0  0  0  0  0  0  0  0  0  0  0  0
  147.0639  134.6994  160.7105 S   0  0  0  0  0  0  0  0  0  0  0  0
  146.4799  134.3033  153.3020 C   0  0  0  0  0  0  0  0  0  0  0  0
  145.7254  131.7374  152.4128 H   0  0  0  0  0  0  0  0  0  0  0  0
  147.4696  131.7771  152.6562 H   0  0  0  0  0  0  0  0  0  0  0  0
  146.8128  131.6685  151.0278 H   0  0  0  0  0  0  0  0  0  0  0  0
  147.6076  133.9677  151.5063 H   0  0  0  0  0  0  0  0  0  0  0  0
  145.6945  133.7378  149.9608 H   0  0  0  0  0  0  0  0  0  0  0  0
  144.5692  133.7826  151.2997 H   0  0  0  0  0  0  0  0  0  0  0  0
  146.4519  136.0338  150.4440 H   0  0  0  0  0  0  0  0  0  0  0  0
  144.7126  136.0210  150.2731 H   0  0  0  0  0  0  0  0  0  0  0  0
  145.4361  137.3640  152.2426 H   0  0  0  0  0  0  0  0  0  0  0  0
  144.4210  136.0234  152.7400 H   0  0  0  0  0  0  0  0  0  0  0  0
  146.6639  137.5098  154.4125 H   0  0  0  0  0  0  0  0  0  0  0  0
  145.4280  136.4032  154.9538 H   0  0  0  0  0  0  0  0  0  0  0  0
  147.2505  134.7980  155.7102 H   0  0  0  0  0  0  0  0  0  0  0  0
  148.4684  135.8941  155.1005 H   0  0  0  0  0  0  0  0  0  0  0  0
  147.2444  137.5277  156.7935 H   0  0  0  0  0  0  0  0  0  0  0  0
  147.2275  137.0384  163.4913 H   0  0  0  0  0  0  0  0  0  0  0  0
  146.7961  134.4015  163.1444 H   0  0  0  0  0  0  0  0  0  0  0  0
  145.5538  133.9638  153.7691 H   0  0  0  0  0  0  0  0  0  0  0  0
  147.2944  133.9734  153.9461 H   0  0  0  0  0  0  0  0  0  0  0  0
  147.3421  136.0658  152.7820 H   0  0  0  0  0  0  0  0  0  0  0  0
  1  2  1  0  0  0  0
  1 19  1  0  0  0  0
  1 20  1  0  0  0  0
  1 21  1  0  0  0  0
  2 18  1  0  0  0  0
  2  3  1  0  0  0  0
  2 22  1  0  0  0  0
  3  4  1  0  0  0  0
  3 23  1  0  0  0  0
  3 24  1  0  0  0  0
  4  5  1  0  0  0  0
  4 25  1  0  0  0  0
  4 26  1  0  0  0  0
  5  6  1  0  0  0  0
  5 27  1  0  0  0  0
  5 28  1  0  0  0  0
  6  7  1  0  0  0  0
  6 18  1  0  0  0  0
  6 38  1  0  0  0  0
  7  8  1  0  0  0  0
  7 29  1  0  0  0  0
  7 30  1  0  0  0  0
  8  9  1  0  0  0  0
  8 31  1  0  0  0  0
  8 32  1  0  0  0  0
  9 10  1  0  0  0  0
  9 33  1  0  0  0  0
 10 11  2  0  0  0  0
 10 12  1  0  0  0  0
 12 13  1  0  0  0  0
 13 17  1  0  0  0  0
 13 14  2  0  0  0  0
 14 15  1  0  0  0  0
 15 16  2  0  0  0  0
 15 34  1  0  0  0  0
 16 17  1  0  0  0  0
 16 35  1  0  0  0  0
 18 36  1  0  0  0  0
 18 37  1  0  0  0  0
M  CHG  1   6   1
M  CHG  1  12  -1
M  END
> <s_m_source_file>
AV-unprocessed.smi

> <i_m_source_file_index>
1278

> <i_lp_mmshare_version>
43012

> <i_f3d_flags>
0

> <s_epik_input>
W0NIM11bQ0BASF0xW0NIMl1bQ0gyXVtDSDJdTihbQ0gyXTEpW0NIMl1bQ0gyXVtOSF1DKD1PKVtOSF1jMm5bY0hdW2NIXXMy

> <s_epik_cmdline>
J2VwaWtfcHl0aG9uJywgJy1waCcsICc3LjAnLCAnLXRuJywgJzgnLCAnLW1hJywgJzIwMCcsICctbWV0YWxfYmluZGluZycsICctaW1hZScsICc8aW5maWxlLm1hZT4nLCAnLW9tYWUnLCAnPG91dGZpbGUubWFlPic=

> <r_lp_tautomer_probability>
0.999

> <r_epik_Ionization_Penalty>
6.22019

> <r_epik_Ionization_Penalty_Charging>
5.38911

> <r_epik_Ionization_Penalty_Neutral>
0.831074

> <r_epik_State_Penalty>
5.38904

> <r_epik_Charging_Adjusted_Penalty>
10.7782

> <i_epik_Tot_Q>
0

> <i_epik_Tot_abs_Q>
2

> <r_epik_Metal_State_Penalty>
1.41502

> <b_epik_Metal_Only>
1

> <s_lp_Force_Field>
OPLS_2005

> <r_lp_Energy>
5.28715

> <b_lp_Chiralities_Consistent>
1

> <s_lp_Variant>
AV-unprocessed.smi:1278-8

> <Gold.Version>
5.8.1

> <Gold.Id.Protein>
6NUR|6NUR_protein|mol2

> <Gold.PLP.Fitness>
39.2927

> <Gold.PLP.PLP>
-28.3371

> <Gold.PLP.part.hbond>
-3.0000

> <Gold.PLP.part.metal>
0.0000

> <Gold.PLP.part.buried>
-4.0996

> <Gold.PLP.part.nonpolar>
-21.1511

> <Gold.PLP.part.repulsive>
0.0000

> <Gold.PLP.ligand.clash>
0.0000

> <Gold.PLP.ligand.torsion>
0.3139

> <Gold.PLP.Chemscore.Hbond>
3.8320

> <Gold.PLP.Chemscore.CHOScore>
0.0000

> <Gold.PLP.Chemscore.Metal>
0.0000

> <Gold.Chemscore.Hbonds>
donor molecule, donor type, donor heavy atom, donor atom, acceptor molecule, acceptor atom, score
      L1  H     6    38       P1  7948  2.00
      P1  H  6931  6943       L1    14  0.87
      P1  H  6934  6947       L1    14  0.93

> <Gold.PLP.Chemscore.Internal.Correction>
0.0873

> <Gold.Rescore>
     Score         DG    S(hbond)    S(metal)    S(lipo)     H(rot)  DE(clash)    DE(int)     intcor
     13.95     -15.72       2.31        0.00      55.90       1.57       0.00       1.78       ----

> <Gold.Chemscore.Fitness>
13.9452

> <Gold.Chemscore.DG>
-15.7242

> <Gold.Chemscore.ZeroCoef>
-5.4800

> <Gold.Chemscore.Hbond>
2.3104

> <Gold.Chemscore.Metal>
0.0000

> <Gold.Chemscore.Lipo>
55.9000

> <Gold.Chemscore.Internal_Hbond>
0.0000

> <Gold.Chemscore.DEClash>
0.0000

> <Gold.Chemscore.DEInternal>
1.7790

> <Gold.Chemscore.Rot>
1.5676

> <Gold.Chemscore.Internal.Correction>
   9.000000E+99

> <Gold.Chemscore.Hbonds>
donor molecule, donor type, donor heavy atom, donor atom, acceptor molecule, acceptor atom, score
      L1  H     6    38       P1  7948  1.00
      P1  H  6931  6943       L1    14  0.18
      P1  H  6934  6947       L1    14  0.77

> <Gold.Chemscore.Hbond.Weighted>
-7.7169

> <Gold.Chemscore.Metal.Weighted>
-0.0000

> <Gold.Chemscore.Lipo.Weighted>
-6.5403

> <Gold.Chemscore.Internal_Hbond.Weighted>
0.0000

> <Gold.Chemscore.DEClash.Weighted>
0.0000

> <Gold.Chemscore.DEInternal.Weighted>
1.7790

> <Gold.Chemscore.Rot.Weighted>
4.0130

> <Gold.Chemscore.Internal.Correction.Weighted>
   9.000000E+99

> <Gold.Protein.RotatedTorsions>
[ 6907 6896 6895 6894 ] final  -52.28 input  -60.11 | X-H torsion
[ 7974 7965 7964 7962 ] final  179.85 input  175.53 | X-H torsion
[ 8008 7997 7996 7995 ] final -164.65 input   59.86 | X-H torsion
[ 10167 10162 10161 10158 ] final   62.28 input  -65.29 | X-H torsion
[ 10718 10713 10712 10709 ] final -113.46 input   66.30 | X-H torsion
[ 10763 10752 10751 10750 ] final  153.92 input  -60.55 | X-H torsion
[ 11005 11000 10999 10996 ] final -177.84 input  -57.11 | X-H torsion

> <Gold.Protein.ActiveResidues>
 VAL166  LYS551  ARG553  GLY616  TRP617  ASP618  TYR619  PRO620  LYS621  CYS622 
 ASP623  PHE694  ASN695  SER759  ASP760  ASP761  ALA762  ILE779  LEU786  VAL792 
 PHE793  MET794  SER795  GLU796  ALA797  LYS798  CYS799  TRP800  GLU811  SER814 

> <Gold.Protein.RotatedAtoms>
  150.8533  134.7864  159.7025 H   0  0  0  0  0  0  0  0  0  0  0  0  # atno 6907 bound_to 6896
  152.4592  134.5220  159.9795 H   0  0  0  0  0  0  0  0  0  0  0  0  # atno 6908 bound_to 6896
  151.5337  133.3406  159.2958 H   0  0  0  0  0  0  0  0  0  0  0  0  # atno 6909 bound_to 6896
  144.7142  140.0610  143.6432 H   0  0  0  0  0  0  0  0  0  0  0  0  # atno 7974 bound_to 7965
  155.8387  140.0945  157.1748 H   0  0  0  0  0  0  0  0  0  0  0  0  # atno 8008 bound_to 7997
  154.3981  140.1405  156.3763 H   0  0  0  0  0  0  0  0  0  0  0  0  # atno 8009 bound_to 7997
  155.8088  140.3450  155.5448 H   0  0  0  0  0  0  0  0  0  0  0  0  # atno 8010 bound_to 7997
  140.1456  144.4511  150.6787 H   0  0  0  0  0  0  0  0  0  0  0  0  # atno 10167 bound_to 10162
  156.0768  130.5974  150.8645 H   0  0  0  0  0  0  0  0  0  0  0  0  # atno 10718 bound_to 10713
  154.1440  135.2819  155.3153 H   0  0  0  0  0  0  0  0  0  0  0  0  # atno 10763 bound_to 10752
  154.6266  135.5449  153.7637 H   0  0  0  0  0  0  0  0  0  0  0  0  # atno 10764 bound_to 10752
  153.0242  135.6452  154.1586 H   0  0  0  0  0  0  0  0  0  0  0  0  # atno 10765 bound_to 10752
  140.4364  134.6471  157.4737 H   0  0  0  0  0  0  0  0  0  0  0  0  # atno 11005 bound_to 11000
  145.9864  139.2981  143.1011 LP  0  0  0  0  0  0  0  0  0  0  0  0  # atno 17320 bound_to 7965
  145.8952  140.9278  143.0531 LP  0  0  0  0  0  0  0  0  0  0  0  0  # atno 17321 bound_to 7965
  140.6734  143.2295  151.5569 LP  0  0  0  0  0  0  0  0  0  0  0  0  # atno 17342 bound_to 10162
  139.5450  144.2544  152.1425 LP  0  0  0  0  0  0  0  0  0  0  0  0  # atno 17343 bound_to 10162
  157.5867  131.0945  150.9185 LP  0  0  0  0  0  0  0  0  0  0  0  0  # atno 17370 bound_to 10713
  156.9369  130.5370  149.5279 LP  0  0  0  0  0  0  0  0  0  0  0  0  # atno 17371 bound_to 10713
  140.0099  134.6706  155.9397 LP  0  0  0  0  0  0  0  0  0  0  0  0  # atno 17394 bound_to 11000
  141.1724  133.6538  156.4700 LP  0  0  0  0  0  0  0  0  0  0  0  0  # atno 17395 bound_to 11000

$$$$
