AV-unprocessed.smi:2076|AV-procd|sdf|8460|dock2
  -GOLD-   2272011163D 1   1.00000     0.00000
 Structure written by MMmdl.
 45 46  0  0  0  0  0  0  0  0  2 V2000
  154.2301  140.9949  160.2508 C   0  0  0  0  0  0  0  0  0  0  0  0
  153.2897  142.0329  159.7138 C   0  0  0  0  0  0  0  0  0  0  0  0
  153.5044  143.4333  159.5849 C   0  0  0  0  0  0  0  0  0  0  0  0
  152.3417  143.9052  159.0442 C   0  0  0  0  0  0  0  0  0  0  0  0
  151.9485  145.2970  158.6710 C   0  0  0  0  0  0  0  0  0  0  0  0
  151.5064  142.8151  158.8754 N   0  0  0  0  0  0  0  0  0  0  0  0
  150.1594  142.7672  158.3288 C   0  0  0  0  0  0  0  0  0  0  0  0
  150.0511  141.7166  157.2229 C   0  0  0  0  0  0  0  0  0  0  0  0
  150.5364  140.5977  157.3866 O   0  0  0  0  0  0  0  0  0  0  0  0
  149.4154  142.0918  156.1014 N   0  0  0  0  0  0  0  0  0  0  0  0
  149.1473  141.2349  154.9488 C   0  0  0  0  0  0  0  0  0  0  0  0
  148.0091  141.7658  154.0320 C   0  0  1  0  0  0  0  0  0  0  0  0
  147.4273  140.6236  153.1624 C   0  0  0  0  0  0  0  0  0  0  0  0
  146.9347  142.4652  154.8164 N   0  3  0  0  0  0  0  0  0  0  0  0
  145.7881  142.9329  153.9863 C   0  0  0  0  0  0  0  0  0  0  0  0
  144.7199  143.6401  154.8374 C   0  0  0  0  0  0  0  0  0  0  0  0
  144.2721  142.7718  155.8650 O   0  0  0  0  0  0  0  0  0  0  0  0
  145.3318  142.4320  156.7439 C   0  0  0  0  0  0  0  0  0  0  0  0
  146.4240  141.6731  155.9716 C   0  0  0  0  0  0  0  0  0  0  0  0
  152.0918  141.6686  159.2862 N   0  0  0  0  0  0  0  0  0  0  0  0
  155.1283  141.4538  160.6644 H   0  0  0  0  0  0  0  0  0  0  0  0
  154.5415  140.3052  159.4659 H   0  0  0  0  0  0  0  0  0  0  0  0
  153.7619  140.4108  161.0433 H   0  0  0  0  0  0  0  0  0  0  0  0
  154.3812  144.0056  159.8497 H   0  0  0  0  0  0  0  0  0  0  0  0
  152.7666  145.9943  158.8520 H   0  0  0  0  0  0  0  0  0  0  0  0
  151.0903  145.6280  159.2560 H   0  0  0  0  0  0  0  0  0  0  0  0
  151.6853  145.3584  157.6152 H   0  0  0  0  0  0  0  0  0  0  0  0
  149.4496  142.5445  159.1275 H   0  0  0  0  0  0  0  0  0  0  0  0
  149.8964  143.7510  157.9390 H   0  0  0  0  0  0  0  0  0  0  0  0
  149.0530  143.0340  156.0627 H   0  0  0  0  0  0  0  0  0  0  0  0
  150.0541  141.0628  154.3664 H   0  0  0  0  0  0  0  0  0  0  0  0
  148.8774  140.2763  155.3881 H   0  0  0  0  0  0  0  0  0  0  0  0
  148.4487  142.5005  153.3551 H   0  0  0  0  0  0  0  0  0  0  0  0
  148.2026  140.0792  152.6255 H   0  0  0  0  0  0  0  0  0  0  0  0
  146.7591  140.9906  152.3850 H   0  0  0  0  0  0  0  0  0  0  0  0
  146.8809  139.9018  153.7703 H   0  0  0  0  0  0  0  0  0  0  0  0
  146.1133  143.6481  153.2335 H   0  0  0  0  0  0  0  0  0  0  0  0
  145.3456  142.0843  153.4620 H   0  0  0  0  0  0  0  0  0  0  0  0
  145.1109  144.5647  155.2655 H   0  0  0  0  0  0  0  0  0  0  0  0
  143.8684  143.9154  154.2147 H   0  0  0  0  0  0  0  0  0  0  0  0
  145.7371  143.3293  157.2147 H   0  0  0  0  0  0  0  0  0  0  0  0
  144.9366  141.8061  157.5442 H   0  0  0  0  0  0  0  0  0  0  0  0
  146.0334  140.7185  155.6155 H   0  0  0  0  0  0  0  0  0  0  0  0
  147.2196  141.4543  156.6812 H   0  0  0  0  0  0  0  0  0  0  0  0
  147.3598  143.2946  155.2062 H   0  0  0  0  0  0  0  0  0  0  0  0
  1  2  1  0  0  0  0
  1 21  1  0  0  0  0
  1 22  1  0  0  0  0
  1 23  1  0  0  0  0
  2 20  2  0  0  0  0
  2  3  1  0  0  0  0
  3  4  2  0  0  0  0
  3 24  1  0  0  0  0
  4  5  1  0  0  0  0
  4  6  1  0  0  0  0
  5 25  1  0  0  0  0
  5 26  1  0  0  0  0
  5 27  1  0  0  0  0
  6  7  1  0  0  0  0
  6 20  1  0  0  0  0
  7  8  1  0  0  0  0
  7 28  1  0  0  0  0
  7 29  1  0  0  0  0
  8  9  2  0  0  0  0
  8 10  1  0  0  0  0
 10 11  1  0  0  0  0
 10 30  1  0  0  0  0
 11 12  1  0  0  0  0
 11 31  1  0  0  0  0
 11 32  1  0  0  0  0
 12 13  1  0  0  0  0
 12 14  1  0  0  0  0
 12 33  1  0  0  0  0
 13 34  1  0  0  0  0
 13 35  1  0  0  0  0
 13 36  1  0  0  0  0
 14 19  1  0  0  0  0
 14 15  1  0  0  0  0
 14 45  1  0  0  0  0
 15 16  1  0  0  0  0
 15 37  1  0  0  0  0
 15 38  1  0  0  0  0
 16 17  1  0  0  0  0
 16 39  1  0  0  0  0
 16 40  1  0  0  0  0
 17 18  1  0  0  0  0
 18 19  1  0  0  0  0
 18 41  1  0  0  0  0
 18 42  1  0  0  0  0
 19 43  1  0  0  0  0
 19 44  1  0  0  0  0
M  CHG  1  14   1
M  END
> <s_m_source_file>
AV-unprocessed.smi

> <i_m_source_file_index>
2076

> <i_lp_mmshare_version>
43012

> <i_f3d_flags>
0

> <s_epik_input>
W0NIM11jMVtjSF1jKFtDSDNdKW4objEpW0NIMl1DKD1PKVtOSF1bQ0gyXVtDQEhdKFtDSDNdKU4yW0NIMl1bQ0gyXU9bQ0gyXVtDSDJdMg==

> <s_epik_cmdline>
J2VwaWtfcHl0aG9uJywgJy1waCcsICc3LjAnLCAnLXRuJywgJzgnLCAnLW1hJywgJzIwMCcsICctbWV0YWxfYmluZGluZycsICctaW1hZScsICc8aW5maWxlLm1hZT4nLCAnLW9tYWUnLCAnPG91dGZpbGUubWFlPic=

> <r_lp_tautomer_probability>
1

> <r_epik_Ionization_Penalty>
0.748594

> <r_epik_Ionization_Penalty_Charging>
0.748396

> <r_epik_Ionization_Penalty_Neutral>
0.000197403

> <r_epik_State_Penalty>
0.775162

> <r_epik_Charging_Adjusted_Penalty>
1.52356

> <i_epik_Tot_Q>
1

> <i_epik_Tot_abs_Q>
1

> <r_epik_Metal_State_Penalty>
0.77529

> <b_epik_Metal_Only>
0

> <s_lp_Force_Field>
OPLS_2005

> <r_lp_Energy>
19.0856

> <b_lp_Chiralities_Consistent>
1

> <s_lp_Variant>
AV-unprocessed.smi:2076-4

> <Gold.Version>
5.8.1

> <Gold.Id.Protein>
6NUR|6NUR_protein|mol2

> <Gold.PLP.Fitness>
52.0031

> <Gold.PLP.PLP>
-44.3035

> <Gold.PLP.part.hbond>
-2.0000

> <Gold.PLP.part.metal>
0.0000

> <Gold.PLP.part.buried>
-6.2298

> <Gold.PLP.part.nonpolar>
-35.7991

> <Gold.PLP.part.repulsive>
0.3355

> <Gold.PLP.ligand.clash>
0.0000

> <Gold.PLP.ligand.torsion>
0.7071

> <Gold.PLP.Chemscore.Hbond>
3.0000

> <Gold.PLP.Chemscore.CHOScore>
0.0000

> <Gold.PLP.Chemscore.Metal>
0.0000

> <Gold.Chemscore.Hbonds>
donor molecule, donor type, donor heavy atom, donor atom, acceptor molecule, acceptor atom, score
      L1  H    10    30       P1  8028  1.00
      L1  H    14    45       P1  8028  1.35

> <Gold.PLP.Chemscore.Internal.Correction>
0.1139

> <Gold.Rescore>
     Score         DG    S(hbond)    S(metal)    S(lipo)     H(rot)  DE(clash)    DE(int)     intcor
     16.20     -18.62       1.58        0.00     106.12       1.78       0.22       2.20       ----

> <Gold.Chemscore.Fitness>
16.1992

> <Gold.Chemscore.DG>
-18.6248

> <Gold.Chemscore.ZeroCoef>
-5.4800

> <Gold.Chemscore.Hbond>
1.5793

> <Gold.Chemscore.Metal>
0.0000

> <Gold.Chemscore.Lipo>
106.1235

> <Gold.Chemscore.Internal_Hbond>
0.0000

> <Gold.Chemscore.DEClash>
0.2241

> <Gold.Chemscore.DEInternal>
2.2015

> <Gold.Chemscore.Rot>
1.7760

> <Gold.Chemscore.Internal.Correction>
   9.000000E+99

> <Gold.Chemscore.Hbonds>
donor molecule, donor type, donor heavy atom, donor atom, acceptor molecule, acceptor atom, score
      L1  H    10    30       P1  8028  1.00
      L1  H    14    45       P1  8028  0.10

> <Gold.Chemscore.Hbond.Weighted>
-5.2748

> <Gold.Chemscore.Metal.Weighted>
-0.0000

> <Gold.Chemscore.Lipo.Weighted>
-12.4165

> <Gold.Chemscore.Internal_Hbond.Weighted>
0.0000

> <Gold.Chemscore.DEClash.Weighted>
0.2241

> <Gold.Chemscore.DEInternal.Weighted>
2.2015

> <Gold.Chemscore.Rot.Weighted>
4.5464

> <Gold.Chemscore.Internal.Correction.Weighted>
   9.000000E+99

> <Gold.Protein.RotatedTorsions>
[ 6907 6896 6895 6894 ] final   47.46 input  -60.11 | X-H torsion
[ 7974 7965 7964 7962 ] final   89.51 input  175.53 | X-H torsion
[ 8008 7997 7996 7995 ] final   90.27 input   59.86 | X-H torsion
[ 10167 10162 10161 10158 ] final -158.81 input  -65.29 | X-H torsion
[ 10718 10713 10712 10709 ] final -173.34 input   66.30 | X-H torsion
[ 10763 10752 10751 10750 ] final  100.69 input  -60.55 | X-H torsion
[ 11005 11000 10999 10996 ] final -130.74 input  -57.11 | X-H torsion

> <Gold.Protein.ActiveResidues>
 VAL166  LYS551  ARG553  GLY616  TRP617  ASP618  TYR619  PRO620  LYS621  CYS622 
 ASP623  PHE694  ASN695  SER759  ASP760  ASP761  ALA762  ILE779  LEU786  VAL792 
 PHE793  MET794  SER795  GLU796  ALA797  LYS798  CYS799  TRP800  GLU811  SER814 

> <Gold.Protein.RotatedAtoms>
  152.2683  134.7960  160.0418 H   0  0  0  0  0  0  0  0  0  0  0  0  # atno 6907 bound_to 6896
  151.8582  133.3447  159.3703 H   0  0  0  0  0  0  0  0  0  0  0  0  # atno 6908 bound_to 6896
  150.7142  134.5160  159.5675 H   0  0  0  0  0  0  0  0  0  0  0  0  # atno 6909 bound_to 6896
  145.5313  139.2283  143.2617 H   0  0  0  0  0  0  0  0  0  0  0  0  # atno 7974 bound_to 7965
  156.0099  140.3351  155.6930 H   0  0  0  0  0  0  0  0  0  0  0  0  # atno 8008 bound_to 7997
  155.6172  140.0671  157.2707 H   0  0  0  0  0  0  0  0  0  0  0  0  # atno 8009 bound_to 7997
  154.4278  140.1783  156.1321 H   0  0  0  0  0  0  0  0  0  0  0  0  # atno 8010 bound_to 7997
  139.6663  143.9823  152.2257 H   0  0  0  0  0  0  0  0  0  0  0  0  # atno 10167 bound_to 10162
  156.7688  130.9441  151.3119 H   0  0  0  0  0  0  0  0  0  0  0  0  # atno 10718 bound_to 10713
  153.3172  135.4070  155.1386 H   0  0  0  0  0  0  0  0  0  0  0  0  # atno 10763 bound_to 10752
  154.8591  135.3578  154.5645 H   0  0  0  0  0  0  0  0  0  0  0  0  # atno 10764 bound_to 10752
  153.6077  135.7069  153.5418 H   0  0  0  0  0  0  0  0  0  0  0  0  # atno 10765 bound_to 10752
  140.9320  134.1307  157.4226 H   0  0  0  0  0  0  0  0  0  0  0  0  # atno 11005 bound_to 11000
  146.2042  140.6130  142.9088 LP  0  0  0  0  0  0  0  0  0  0  0  0  # atno 17320 bound_to 7965
  144.7624  140.5453  143.6726 LP  0  0  0  0  0  0  0  0  0  0  0  0  # atno 17321 bound_to 7965
  139.9576  144.6579  150.8111 LP  0  0  0  0  0  0  0  0  0  0  0  0  # atno 17342 bound_to 10162
  140.7600  143.3142  151.2771 LP  0  0  0  0  0  0  0  0  0  0  0  0  # atno 17343 bound_to 10162
  157.6700  130.9042  150.0019 LP  0  0  0  0  0  0  0  0  0  0  0  0  # atno 17370 bound_to 10713
  156.1291  130.3644  149.9761 LP  0  0  0  0  0  0  0  0  0  0  0  0  # atno 17371 bound_to 10713
  139.8798  135.0008  156.6031 LP  0  0  0  0  0  0  0  0  0  0  0  0  # atno 17394 bound_to 11000
  140.7850  133.8629  155.8599 LP  0  0  0  0  0  0  0  0  0  0  0  0  # atno 17395 bound_to 11000

$$$$
