AV-unprocessed.smi:771|AV-procd|sdf|3683|dock2
  -GOLD-   22720 1 93D 1   1.00000     0.00000
 Structure written by MMmdl.
 41 42  0  0  0  0  0  0  0  0  3 V2000
  150.7190  140.0854  154.5722 O   0  0  0  0  0  0  0  0  0  0  0  0
  151.2207  139.6790  155.6215 C   0  0  0  0  0  0  0  0  0  0  0  0
  151.7567  138.2447  155.7376 C   0  0  0  0  0  0  0  0  0  0  0  0
  150.7609  137.2854  156.2450 N   0  0  0  0  0  0  0  0  0  0  0  0
  150.1304  137.6036  157.4641 C   0  0  0  0  0  0  0  0  0  0  0  0
  149.2088  136.7966  158.0255 C   0  0  0  0  0  0  0  0  0  0  0  0
  148.5741  137.1372  159.2797 N   0  3  0  0  0  0  0  0  0  0  0  0
  147.4341  137.5900  159.2579 O   0  0  0  0  0  0  0  0  0  0  0  0
  149.1917  136.9651  160.3263 O   0  5  0  0  0  0  0  0  0  0  0  0
  148.8744  135.5690  157.3298 C   0  0  0  0  0  0  0  0  0  0  0  0
  149.4772  135.2569  156.1657 C   0  0  0  0  0  0  0  0  0  0  0  0
  150.4831  136.1347  155.5589 C   0  0  0  0  0  0  0  0  0  0  0  0
  151.0424  135.8520  154.4992 O   0  0  0  0  0  0  0  0  0  0  0  0
  151.3565  140.4433  156.7160 N   0  0  0  0  0  0  0  0  0  0  0  0
  150.9318  141.8352  156.8391 C   0  0  0  0  0  0  0  0  0  0  0  0
  151.7126  142.5973  157.9338 C   0  0  2  0  0  0  0  0  0  0  0  0
  151.6136  141.8742  159.2940 C   0  0  0  0  0  0  0  0  0  0  0  0
  152.4490  142.5775  160.3757 C   0  0  0  0  0  0  0  0  0  0  0  0
  152.0409  144.0501  160.5251 C   0  0  0  0  0  0  0  0  0  0  0  0
  152.1317  144.7921  159.1810 C   0  0  0  0  0  0  0  0  0  0  0  0
  151.3212  144.0928  158.0721 C   0  0  2  0  0  0  0  0  0  0  0  0
  149.9398  144.2350  158.3448 O   0  0  0  0  0  0  0  0  0  0  0  0
  152.1155  137.9350  154.7549 H   0  0  0  0  0  0  0  0  0  0  0  0
  152.6421  138.2444  156.3761 H   0  0  0  0  0  0  0  0  0  0  0  0
  150.4531  138.5358  157.9053 H   0  0  0  0  0  0  0  0  0  0  0  0
  148.1397  134.8903  157.7372 H   0  0  0  0  0  0  0  0  0  0  0  0
  149.2140  134.3367  155.6652 H   0  0  0  0  0  0  0  0  0  0  0  0
  151.7848  140.0276  157.5307 H   0  0  0  0  0  0  0  0  0  0  0  0
  151.0014  142.3560  155.8826 H   0  0  0  0  0  0  0  0  0  0  0  0
  149.8713  141.8240  157.0929 H   0  0  0  0  0  0  0  0  0  0  0  0
  152.7641  142.5722  157.6427 H   0  0  0  0  0  0  0  0  0  0  0  0
  150.5717  141.8233  159.6132 H   0  0  0  0  0  0  0  0  0  0  0  0
  151.9525  140.8428  159.1923 H   0  0  0  0  0  0  0  0  0  0  0  0
  152.3317  142.0618  161.3292 H   0  0  0  0  0  0  0  0  0  0  0  0
  153.5071  142.5152  160.1191 H   0  0  0  0  0  0  0  0  0  0  0  0
  151.0227  144.1093  160.9116 H   0  0  0  0  0  0  0  0  0  0  0  0
  152.6779  144.5394  161.2625 H   0  0  0  0  0  0  0  0  0  0  0  0
  151.7984  145.8238  159.2997 H   0  0  0  0  0  0  0  0  0  0  0  0
  153.1778  144.8453  158.8769 H   0  0  0  0  0  0  0  0  0  0  0  0
  151.5165  144.6118  157.1335 H   0  0  0  0  0  0  0  0  0  0  0  0
  149.4607  144.1095  157.5392 H   0  0  0  0  0  0  0  0  0  0  0  0
  1  2  2  0  0  0  0
  2  3  1  0  0  0  0
  2 14  1  0  0  0  0
  3  4  1  0  0  0  0
  3 23  1  0  0  0  0
  3 24  1  0  0  0  0
  4 12  1  0  0  0  0
  4  5  1  0  0  0  0
  5  6  2  0  0  0  0
  5 25  1  0  0  0  0
  6  7  1  0  0  0  0
  6 10  1  0  0  0  0
  7  8  2  0  0  0  0
  7  9  1  0  0  0  0
 10 11  2  0  0  0  0
 10 26  1  0  0  0  0
 11 12  1  0  0  0  0
 11 27  1  0  0  0  0
 12 13  2  0  0  0  0
 14 15  1  0  0  0  0
 14 28  1  0  0  0  0
 15 16  1  0  0  0  0
 15 29  1  0  0  0  0
 15 30  1  0  0  0  0
 16 21  1  0  0  0  0
 16 17  1  0  0  0  0
 16 31  1  0  0  0  0
 17 18  1  0  0  0  0
 17 32  1  0  0  0  0
 17 33  1  0  0  0  0
 18 19  1  0  0  0  0
 18 34  1  0  0  0  0
 18 35  1  0  0  0  0
 19 20  1  0  0  0  0
 19 36  1  0  0  0  0
 19 37  1  0  0  0  0
 20 21  1  0  0  0  0
 20 38  1  0  0  0  0
 20 39  1  0  0  0  0
 21 22  1  0  0  0  0
 21 40  1  0  0  0  0
 22 41  1  0  0  0  0
M  CHG  1   7   1
M  CHG  1   9  -1
M  END
> <s_m_source_file>
AV-unprocessed.smi

> <i_m_source_file_index>
771

> <i_lp_mmshare_version>
43012

> <i_f3d_flags>
0

> <s_epik_input>
Tz1jMVtjSF1bY0hdYyhbTitdKD1PKVtPLV0pW2NIXW4xW0NIMl1DKD1PKVtOSF1bQ0gyXVtDQEBIXTJbQ0gyXVtDSDJdW0NIMl1bQ0gyXVtDQEhdMltPSF0=

> <s_epik_cmdline>
J2VwaWtfcHl0aG9uJywgJy1waCcsICc3LjAnLCAnLXRuJywgJzgnLCAnLW1hJywgJzIwMCcsICctbWV0YWxfYmluZGluZycsICctaW1hZScsICc8aW5maWxlLm1hZT4nLCAnLW9tYWUnLCAnPG91dGZpbGUubWFlPic=

> <r_lp_tautomer_probability>
1

> <r_epik_Ionization_Penalty>
3.77175e-07

> <r_epik_Ionization_Penalty_Charging>
7.70067e-11

> <r_epik_Ionization_Penalty_Neutral>
3.77098e-07

> <r_epik_State_Penalty>
-0

> <r_epik_Charging_Adjusted_Penalty>
7.70067e-11

> <i_epik_Tot_Q>
0

> <i_epik_Tot_abs_Q>
2

> <r_epik_Metal_State_Penalty>
-0

> <b_epik_Metal_Only>
0

> <s_lp_Force_Field>
OPLS_2005

> <r_lp_Energy>
25.3676

> <b_lp_Chiralities_Consistent>
1

> <s_lp_Variant>
AV-unprocessed.smi:771-3

> <Gold.Version>
5.8.1

> <Gold.Id.Protein>
6NUR|6NUR_protein|mol2

> <Gold.PLP.Fitness>
47.4830

> <Gold.PLP.PLP>
-39.2265

> <Gold.PLP.part.hbond>
-6.0000

> <Gold.PLP.part.metal>
0.0000

> <Gold.PLP.part.buried>
-7.1709

> <Gold.PLP.part.nonpolar>
-28.3509

> <Gold.PLP.part.repulsive>
0.8741

> <Gold.PLP.ligand.clash>
0.0000

> <Gold.PLP.ligand.torsion>
2.0228

> <Gold.PLP.Chemscore.Hbond>
4.0924

> <Gold.PLP.Chemscore.CHOScore>
0.0000

> <Gold.PLP.Chemscore.Metal>
0.0000

> <Gold.Chemscore.Hbonds>
donor molecule, donor type, donor heavy atom, donor atom, acceptor molecule, acceptor atom, score
      L1  H    22    41       P1  8028  0.85
      P1  H  6931  6943       L1     9  0.59
      P1  H  6934  6947       L1     8  0.39
      P1  H  7989  7998       L1     1  1.00
      P1  H 10752 10765       L1    13  1.00

> <Gold.PLP.Chemscore.Internal.Correction>
0.0250

> <Gold.Rescore>
     Score         DG    S(hbond)    S(metal)    S(lipo)     H(rot)  DE(clash)    DE(int)     intcor
     20.06     -22.06       3.71        0.00      90.05       2.48       0.00       2.00       ----

> <Gold.Chemscore.Fitness>
20.0594

> <Gold.Chemscore.DG>
-22.0622

> <Gold.Chemscore.ZeroCoef>
-5.4800

> <Gold.Chemscore.Hbond>
3.7077

> <Gold.Chemscore.Metal>
0.0000

> <Gold.Chemscore.Lipo>
90.0463

> <Gold.Chemscore.Internal_Hbond>
0.0000

> <Gold.Chemscore.DEClash>
0.0042

> <Gold.Chemscore.DEInternal>
1.9986

> <Gold.Chemscore.Rot>
2.4753

> <Gold.Chemscore.Internal.Correction>
   9.000000E+99

> <Gold.Chemscore.Hbonds>
donor molecule, donor type, donor heavy atom, donor atom, acceptor molecule, acceptor atom, score
      L1  H    22    41       P1  8028  0.13
      P1  H  6931  6943       L1     9  0.56
      P1  H  6934  6947       L1     8  0.29
      P1  H  7989  7998       L1     1  0.97
      P1  H 10752 10765       L1    13  0.98

> <Gold.Chemscore.Hbond.Weighted>
-12.3837

> <Gold.Chemscore.Metal.Weighted>
-0.0000

> <Gold.Chemscore.Lipo.Weighted>
-10.5354

> <Gold.Chemscore.Internal_Hbond.Weighted>
0.0000

> <Gold.Chemscore.DEClash.Weighted>
0.0042

> <Gold.Chemscore.DEInternal.Weighted>
1.9986

> <Gold.Chemscore.Rot.Weighted>
6.3369

> <Gold.Chemscore.Internal.Correction.Weighted>
   9.000000E+99

> <Gold.Protein.RotatedTorsions>
[ 6907 6896 6895 6894 ] final   -3.82 input  -60.11 | X-H torsion
[ 7974 7965 7964 7962 ] final   68.54 input  175.53 | X-H torsion
[ 8008 7997 7996 7995 ] final  108.14 input   59.86 | X-H torsion
[ 10167 10162 10161 10158 ] final   36.01 input  -65.29 | X-H torsion
[ 10718 10713 10712 10709 ] final   23.45 input   66.30 | X-H torsion
[ 10763 10752 10751 10750 ] final  169.16 input  -60.55 | X-H torsion
[ 11005 11000 10999 10996 ] final  131.30 input  -57.11 | X-H torsion

> <Gold.Protein.ActiveResidues>
 VAL166  LYS551  ARG553  GLY616  TRP617  ASP618  TYR619  PRO620  LYS621  CYS622 
 ASP623  PHE694  ASN695  SER759  ASP760  ASP761  ALA762  ILE779  LEU786  VAL792 
 PHE793  MET794  SER795  GLU796  ALA797  LYS798  CYS799  TRP800  GLU811  SER814 

> <Gold.Protein.RotatedAtoms>
  151.5076  135.1064  159.9845 H   0  0  0  0  0  0  0  0  0  0  0  0  # atno 6907 bound_to 6896
  152.4675  133.7951  159.6933 H   0  0  0  0  0  0  0  0  0  0  0  0  # atno 6908 bound_to 6896
  150.8666  133.7502  159.3000 H   0  0  0  0  0  0  0  0  0  0  0  0  # atno 6909 bound_to 6896
  145.8013  139.2984  143.1153 H   0  0  0  0  0  0  0  0  0  0  0  0  # atno 7974 bound_to 7965
  156.1879  140.3082  155.9275 H   0  0  0  0  0  0  0  0  0  0  0  0  # atno 8008 bound_to 7997
  155.3239  140.0457  157.3057 H   0  0  0  0  0  0  0  0  0  0  0  0  # atno 8009 bound_to 7997
  154.5418  140.2264  155.8639 H   0  0  0  0  0  0  0  0  0  0  0  0  # atno 8010 bound_to 7997
  140.4168  144.1516  150.6144 H   0  0  0  0  0  0  0  0  0  0  0  0  # atno 10167 bound_to 10162
  157.1663  130.6739  149.6062 H   0  0  0  0  0  0  0  0  0  0  0  0  # atno 10718 bound_to 10713
  154.3791  135.2753  155.2222 H   0  0  0  0  0  0  0  0  0  0  0  0  # atno 10763 bound_to 10752
  154.4336  135.5971  153.6088 H   0  0  0  0  0  0  0  0  0  0  0  0  # atno 10764 bound_to 10752
  152.9835  135.6001  154.4031 H   0  0  0  0  0  0  0  0  0  0  0  0  # atno 10765 bound_to 10752
  139.9722  134.9574  156.9418 H   0  0  0  0  0  0  0  0  0  0  0  0  # atno 11005 bound_to 11000
  145.9874  140.8631  143.0083 LP  0  0  0  0  0  0  0  0  0  0  0  0  # atno 17320 bound_to 7965
  144.6768  140.2167  143.7371 LP  0  0  0  0  0  0  0  0  0  0  0  0  # atno 17321 bound_to 7965
  140.4578  143.2461  151.9261 LP  0  0  0  0  0  0  0  0  0  0  0  0  # atno 17342 bound_to 10162
  139.4782  144.5498  151.8403 LP  0  0  0  0  0  0  0  0  0  0  0  0  # atno 17343 bound_to 10162
  155.9745  130.4694  150.6395 LP  0  0  0  0  0  0  0  0  0  0  0  0  # atno 17370 bound_to 10713
  157.4085  131.0820  151.1243 LP  0  0  0  0  0  0  0  0  0  0  0  0  # atno 17371 bound_to 10713
  140.5269  134.0852  155.7306 LP  0  0  0  0  0  0  0  0  0  0  0  0  # atno 17394 bound_to 11000
  141.1401  133.9153  157.2345 LP  0  0  0  0  0  0  0  0  0  0  0  0  # atno 17395 bound_to 11000

$$$$
