AV-unprocessed.smi:3038|AV-procd|sdf|11589|dock9
  -GOLD-   2272016563D 1   1.00000     0.00000
 Structure written by MMmdl.
 37 39  0  0  0  0  0  0  0  0  2 V2000
  150.7041  139.6735  154.6436 O   0  0  0  0  0  0  0  0  0  0  0  0
  150.6445  140.0878  155.8008 C   0  0  0  0  0  0  0  0  0  0  0  0
  151.8892  140.0533  156.6896 C   0  0  0  0  0  0  0  0  0  0  0  0
  152.7436  138.9273  156.3594 N   0  0  0  0  0  0  0  0  0  0  0  0
  152.8725  137.7265  156.9276 C   0  0  0  0  0  0  0  0  0  0  0  0
  153.7913  136.9937  156.3170 N   0  0  0  0  0  0  0  0  0  0  0  0
  154.2392  137.8277  155.3062 N   0  0  0  0  0  0  0  0  0  0  0  0
  153.6213  138.9764  155.3261 N   0  0  0  0  0  0  0  0  0  0  0  0
  149.5267  140.5920  156.3482 N   0  0  0  0  0  0  0  0  0  0  0  0
  148.2352  140.7029  155.6787 C   0  0  2  0  0  0  0  0  0  0  0  0
  147.5163  139.3414  155.6532 C   0  0  0  0  0  0  0  0  0  0  0  0
  146.2041  139.4180  154.8503 C   0  0  0  0  0  0  0  0  0  0  0  0
  146.4186  139.9347  153.4739 N   0  3  2  0  0  0  0  0  0  0  0  0
  147.0490  138.9466  152.5671 C   0  0  0  0  0  0  0  0  0  0  0  0
  146.4889  138.9690  151.1638 C   0  0  0  0  0  0  0  0  0  0  0  0
  146.1099  137.8536  152.1122 C   0  0  0  0  0  0  0  0  0  0  0  0
  147.1022  141.2538  153.4727 C   0  0  0  0  0  0  0  0  0  0  0  0
  148.4357  141.2166  154.2434 C   0  0  0  0  0  0  0  0  0  0  0  0
  152.4627  140.9734  156.5692 H   0  0  0  0  0  0  0  0  0  0  0  0
  151.5931  139.9913  157.7379 H   0  0  0  0  0  0  0  0  0  0  0  0
  152.3039  137.3950  157.7839 H   0  0  0  0  0  0  0  0  0  0  0  0
  149.5740  140.9099  157.3060 H   0  0  0  0  0  0  0  0  0  0  0  0
  147.6126  141.4234  156.2129 H   0  0  0  0  0  0  0  0  0  0  0  0
  148.1700  138.5820  155.2217 H   0  0  0  0  0  0  0  0  0  0  0  0
  147.3002  139.0132  156.6706 H   0  0  0  0  0  0  0  0  0  0  0  0
  145.7246  138.4393  154.8109 H   0  0  0  0  0  0  0  0  0  0  0  0
  145.5048  140.0810  155.3612 H   0  0  0  0  0  0  0  0  0  0  0  0
  148.1020  138.7284  152.7332 H   0  0  0  0  0  0  0  0  0  0  0  0
  145.7232  139.7048  150.9244 H   0  0  0  0  0  0  0  0  0  0  0  0
  147.1659  138.7208  150.3488 H   0  0  0  0  0  0  0  0  0  0  0  0
  146.5376  136.8714  151.9214 H   0  0  0  0  0  0  0  0  0  0  0  0
  145.0931  137.8503  152.5012 H   0  0  0  0  0  0  0  0  0  0  0  0
  147.2642  141.5886  152.4476 H   0  0  0  0  0  0  0  0  0  0  0  0
  146.4372  141.9861  153.9327 H   0  0  0  0  0  0  0  0  0  0  0  0
  148.8732  142.2157  154.2643 H   0  0  0  0  0  0  0  0  0  0  0  0
  149.1504  140.5834  153.7157 H   0  0  0  0  0  0  0  0  0  0  0  0
  145.4983  140.0964  153.0901 H   0  0  0  0  0  0  0  0  0  0  0  0
  1  2  2  0  0  0  0
  2  3  1  0  0  0  0
  2  9  1  0  0  0  0
  3  4  1  0  0  0  0
  3 19  1  0  0  0  0
  3 20  1  0  0  0  0
  4  8  1  0  0  0  0
  4  5  1  0  0  0  0
  5  6  2  0  0  0  0
  5 21  1  0  0  0  0
  6  7  1  0  0  0  0
  7  8  2  0  0  0  0
  9 10  1  0  0  0  0
  9 22  1  0  0  0  0
 10 18  1  0  0  0  0
 10 11  1  0  0  0  0
 10 23  1  0  0  0  0
 11 12  1  0  0  0  0
 11 24  1  0  0  0  0
 11 25  1  0  0  0  0
 12 13  1  0  0  0  0
 12 26  1  0  0  0  0
 12 27  1  0  0  0  0
 13 14  1  0  0  0  0
 13 17  1  0  0  0  0
 13 37  1  0  0  0  0
 14 16  1  0  0  0  0
 14 15  1  0  0  0  0
 14 28  1  0  0  0  0
 15 16  1  0  0  0  0
 15 29  1  0  0  0  0
 15 30  1  0  0  0  0
 16 31  1  0  0  0  0
 16 32  1  0  0  0  0
 17 18  1  0  0  0  0
 17 33  1  0  0  0  0
 17 34  1  0  0  0  0
 18 35  1  0  0  0  0
 18 36  1  0  0  0  0
M  CHG  1  13   1
M  END
> <s_m_source_file>
AV-unprocessed.smi

> <i_m_source_file_index>
3038

> <i_lp_mmshare_version>
43012

> <i_f3d_flags>
0

> <s_epik_input>
bjFubltjSF1uMVtDSDJdQyg9TylbTkhdW0NIXTJbQ0gyXVtDSDJdTihbQ0gyXVtDSDJdMilbQ0hdM1tDSDJdW0NIMl0z

> <s_epik_cmdline>
J2VwaWtfcHl0aG9uJywgJy1waCcsICc3LjAnLCAnLXRuJywgJzgnLCAnLW1hJywgJzIwMCcsICctbWV0YWxfYmluZGluZycsICctaW1hZScsICc8aW5maWxlLm1hZT4nLCAnLW9tYWUnLCAnPG91dGZpbGUubWFlPic=

> <r_lp_tautomer_probability>
1

> <r_epik_Ionization_Penalty>
0.284275

> <r_epik_Ionization_Penalty_Charging>
0.284273

> <r_epik_Ionization_Penalty_Neutral>
2.31262e-06

> <r_epik_State_Penalty>
0.277002

> <r_epik_Charging_Adjusted_Penalty>
0.561274

> <i_epik_Tot_Q>
1

> <i_epik_Tot_abs_Q>
1

> <r_epik_Metal_State_Penalty>
0.277002

> <b_epik_Metal_Only>
0

> <s_lp_Force_Field>
OPLS_2005

> <r_lp_Energy>
29.3434

> <b_lp_Chiralities_Consistent>
1

> <s_lp_Variant>
AV-unprocessed.smi:3038-2

> <Gold.Version>
5.8.1

> <Gold.Id.Protein>
6NUR|6NUR_protein|mol2

> <Gold.PLP.Fitness>
39.2773

> <Gold.PLP.PLP>
-27.6098

> <Gold.PLP.part.hbond>
-5.7555

> <Gold.PLP.part.metal>
0.0000

> <Gold.PLP.part.buried>
1.6051

> <Gold.PLP.part.nonpolar>
-23.7240

> <Gold.PLP.part.repulsive>
0.1170

> <Gold.PLP.ligand.clash>
0.0000

> <Gold.PLP.ligand.torsion>
1.5577

> <Gold.PLP.Chemscore.Hbond>
4.5040

> <Gold.PLP.Chemscore.CHOScore>
0.0000

> <Gold.PLP.Chemscore.Metal>
0.0000

> <Gold.Chemscore.Hbonds>
donor molecule, donor type, donor heavy atom, donor atom, acceptor molecule, acceptor atom, score
      L1  H    13    37       P1 10175  2.00
      P1  H  7989  7998       L1     1  1.00
      P1  H  7997  8009       L1     8  0.91
      P1  H 10752 10765       L1     6  0.56

> <Gold.PLP.Chemscore.Internal.Correction>
1.2709

> <Gold.Rescore>
     Score         DG    S(hbond)    S(metal)    S(lipo)     H(rot)  DE(clash)    DE(int)     intcor
     11.80     -15.78       2.87        0.00      55.39       2.25       0.98       3.01       ----

> <Gold.Chemscore.Fitness>
11.7966

> <Gold.Chemscore.DG>
-15.7822

> <Gold.Chemscore.ZeroCoef>
-5.4800

> <Gold.Chemscore.Hbond>
2.8708

> <Gold.Chemscore.Metal>
0.0000

> <Gold.Chemscore.Lipo>
55.3930

> <Gold.Chemscore.Internal_Hbond>
0.0000

> <Gold.Chemscore.DEClash>
0.9801

> <Gold.Chemscore.DEInternal>
3.0055

> <Gold.Chemscore.Rot>
2.2528

> <Gold.Chemscore.Internal.Correction>
   9.000000E+99

> <Gold.Chemscore.Hbonds>
donor molecule, donor type, donor heavy atom, donor atom, acceptor molecule, acceptor atom, score
      L1  H    13    37       P1 10175  0.98
      P1  H  7989  7998       L1     1  0.85
      P1  H  7997  8009       L1     8  0.20
      P1  H 10752 10765       L1     6  0.13

> <Gold.Chemscore.Hbond.Weighted>
-9.5885

> <Gold.Chemscore.Metal.Weighted>
-0.0000

> <Gold.Chemscore.Lipo.Weighted>
-6.4810

> <Gold.Chemscore.Internal_Hbond.Weighted>
0.0000

> <Gold.Chemscore.DEClash.Weighted>
0.9801

> <Gold.Chemscore.DEInternal.Weighted>
3.0055

> <Gold.Chemscore.Rot.Weighted>
5.7672

> <Gold.Chemscore.Internal.Correction.Weighted>
   9.000000E+99

> <Gold.Protein.RotatedTorsions>
[ 6907 6896 6895 6894 ] final   16.88 input  -60.11 | X-H torsion
[ 7974 7965 7964 7962 ] final -126.44 input  175.53 | X-H torsion
[ 8008 7997 7996 7995 ] final -128.38 input   59.86 | X-H torsion
[ 10167 10162 10161 10158 ] final -112.53 input  -65.29 | X-H torsion
[ 10718 10713 10712 10709 ] final  109.15 input   66.30 | X-H torsion
[ 10763 10752 10751 10750 ] final -112.64 input  -60.55 | X-H torsion
[ 11005 11000 10999 10996 ] final  146.76 input  -57.11 | X-H torsion

> <Gold.Protein.ActiveResidues>
 VAL166  LYS551  ARG553  GLY616  TRP617  ASP618  TYR619  PRO620  LYS621  CYS622 
 ASP623  PHE694  ASN695  SER759  ASP760  ASP761  ALA762  ILE779  LEU786  VAL792 
 PHE793  MET794  SER795  GLU796  ALA797  LYS798  CYS799  TRP800  GLU811  SER814 

> <Gold.Protein.RotatedAtoms>
  151.8409  135.0590  160.0447 H   0  0  0  0  0  0  0  0  0  0  0  0  # atno 6907 bound_to 6896
  152.2810  133.5466  159.5506 H   0  0  0  0  0  0  0  0  0  0  0  0  # atno 6908 bound_to 6896
  150.7189  134.0480  159.3831 H   0  0  0  0  0  0  0  0  0  0  0  0  # atno 6909 bound_to 6896
  144.9873  140.7698  143.4576 H   0  0  0  0  0  0  0  0  0  0  0  0  # atno 7974 bound_to 7965
  155.2617  140.0436  157.2998 H   0  0  0  0  0  0  0  0  0  0  0  0  # atno 8008 bound_to 7997
  154.5706  140.2373  155.8166 H   0  0  0  0  0  0  0  0  0  0  0  0  # atno 8009 bound_to 7997
  156.2120  140.2996  155.9761 H   0  0  0  0  0  0  0  0  0  0  0  0  # atno 8010 bound_to 7997
  140.1217  143.4437  152.1686 H   0  0  0  0  0  0  0  0  0  0  0  0  # atno 10167 bound_to 10162
  157.6554  131.0908  150.6411 H   0  0  0  0  0  0  0  0  0  0  0  0  # atno 10718 bound_to 10713
  154.8359  135.4483  154.1226 H   0  0  0  0  0  0  0  0  0  0  0  0  # atno 10763 bound_to 10752
  153.2458  135.6921  153.7739 H   0  0  0  0  0  0  0  0  0  0  0  0  # atno 10764 bound_to 10752
  153.7070  135.3362  155.3213 H   0  0  0  0  0  0  0  0  0  0  0  0  # atno 10765 bound_to 10752
  140.0820  134.9092  157.1515 H   0  0  0  0  0  0  0  0  0  0  0  0  # atno 11005 bound_to 11000
  145.2336  139.2104  143.5030 LP  0  0  0  0  0  0  0  0  0  0  0  0  # atno 17320 bound_to 7965
  146.3423  140.2218  142.8591 LP  0  0  0  0  0  0  0  0  0  0  0  0  # atno 17321 bound_to 7965
  139.5565  144.7376  151.4279 LP  0  0  0  0  0  0  0  0  0  0  0  0  # atno 17342 bound_to 10162
  140.6868  143.7955  150.7197 LP  0  0  0  0  0  0  0  0  0  0  0  0  # atno 17343 bound_to 10162
  156.6718  130.4542  149.5655 LP  0  0  0  0  0  0  0  0  0  0  0  0  # atno 17370 bound_to 10713
  156.1992  130.6609  151.1148 LP  0  0  0  0  0  0  0  0  0  0  0  0  # atno 17371 bound_to 10713
  140.3475  134.2636  155.7203 LP  0  0  0  0  0  0  0  0  0  0  0  0  # atno 17394 bound_to 11000
  141.2050  133.7872  157.0258 LP  0  0  0  0  0  0  0  0  0  0  0  0  # atno 17395 bound_to 11000

$$$$
