AV-unprocessed.smi:2172|AV-procd|sdf|8835|dock3
  -GOLD-   2272012 23D 1   1.00000     0.00000
 Structure written by MMmdl.
 36 38  0  0  0  0  0  0  0  0  1 V2000
  152.3179  136.8580  156.3108 O   0  0  0  0  0  0  0  0  0  0  0  0
  152.1973  138.0810  155.6164 C   0  0  0  0  0  0  0  0  0  0  0  0
  152.0049  139.2506  156.5331 C   0  0  0  0  0  0  0  0  0  0  0  0
  152.9353  139.6138  157.4165 N   0  0  0  0  0  0  0  0  0  0  0  0
  152.3641  140.7146  158.0246 C   0  0  0  0  0  0  0  0  0  0  0  0
  152.8545  141.5542  159.0503 C   0  0  0  0  0  0  0  0  0  0  0  0
  152.0801  142.6358  159.5187 C   0  0  0  0  0  0  0  0  0  0  0  0
  150.8072  142.8932  158.9694 C   0  0  0  0  0  0  0  0  0  0  0  0
  150.3000  142.0690  157.9464 C   0  0  0  0  0  0  0  0  0  0  0  0
  151.0770  140.9906  157.4821 C   0  0  0  0  0  0  0  0  0  0  0  0
  150.8808  140.0103  156.5138 N   0  0  0  0  0  0  0  0  0  0  0  0
  149.7066  139.8575  155.6652 C   0  0  0  0  0  0  0  0  0  0  0  0
  149.4503  141.0848  154.7675 C   0  0  1  0  0  0  0  0  0  0  0  0
  149.6816  140.7529  153.4117 O   0  0  0  0  0  0  0  0  0  0  0  0
  148.0570  141.6493  154.9984 C   0  0  0  0  0  0  0  0  0  0  0  0
  147.5627  141.8474  156.3071 C   0  0  0  0  0  0  0  0  0  0  0  0
  146.2753  142.3832  156.5060 C   0  0  0  0  0  0  0  0  0  0  0  0
  145.4764  142.7283  155.3988 C   0  0  0  0  0  0  0  0  0  0  0  0
  143.9002  143.3864  155.6427 Cl  0  0  0  0  0  0  0  0  0  0  0  0
  145.9662  142.5379  154.0922 C   0  0  0  0  0  0  0  0  0  0  0  0
  147.2527  142.0008  153.8931 C   0  0  0  0  0  0  0  0  0  0  0  0
  152.2382  137.0295  157.2366 H   0  0  0  0  0  0  0  0  0  0  0  0
  153.0802  138.2337  154.9968 H   0  0  0  0  0  0  0  0  0  0  0  0
  151.3473  138.0127  154.9365 H   0  0  0  0  0  0  0  0  0  0  0  0
  153.8285  141.3658  159.4768 H   0  0  0  0  0  0  0  0  0  0  0  0
  152.4643  143.2707  160.3035 H   0  0  0  0  0  0  0  0  0  0  0  0
  150.2201  143.7234  159.3340 H   0  0  0  0  0  0  0  0  0  0  0  0
  149.3241  142.2610  157.5256 H   0  0  0  0  0  0  0  0  0  0  0  0
  149.8336  138.9626  155.0546 H   0  0  0  0  0  0  0  0  0  0  0  0
  148.8405  139.6658  156.2991 H   0  0  0  0  0  0  0  0  0  0  0  0
  150.1713  141.8638  155.0154 H   0  0  0  0  0  0  0  0  0  0  0  0
  149.4580  139.8438  153.2835 H   0  0  0  0  0  0  0  0  0  0  0  0
  148.1697  141.5929  157.1636 H   0  0  0  0  0  0  0  0  0  0  0  0
  145.9028  142.5307  157.5092 H   0  0  0  0  0  0  0  0  0  0  0  0
  145.3571  142.8053  153.2412 H   0  0  0  0  0  0  0  0  0  0  0  0
  147.6216  141.8625  152.8872 H   0  0  0  0  0  0  0  0  0  0  0  0
  1  2  1  0  0  0  0
  1 22  1  0  0  0  0
  2  3  1  0  0  0  0
  2 23  1  0  0  0  0
  2 24  1  0  0  0  0
  3 11  1  0  0  0  0
  3  4  2  0  0  0  0
  4  5  1  0  0  0  0
  5 10  2  0  0  0  0
  5  6  1  0  0  0  0
  6  7  2  0  0  0  0
  6 25  1  0  0  0  0
  7  8  1  0  0  0  0
  7 26  1  0  0  0  0
  8  9  2  0  0  0  0
  8 27  1  0  0  0  0
  9 10  1  0  0  0  0
  9 28  1  0  0  0  0
 10 11  1  0  0  0  0
 11 12  1  0  0  0  0
 12 13  1  0  0  0  0
 12 29  1  0  0  0  0
 12 30  1  0  0  0  0
 13 14  1  0  0  0  0
 13 15  1  0  0  0  0
 13 31  1  0  0  0  0
 14 32  1  0  0  0  0
 15 21  1  0  0  0  0
 15 16  2  0  0  0  0
 16 17  1  0  0  0  0
 16 33  1  0  0  0  0
 17 18  2  0  0  0  0
 17 34  1  0  0  0  0
 18 19  1  0  0  0  0
 18 20  1  0  0  0  0
 20 21  2  0  0  0  0
 20 35  1  0  0  0  0
 21 36  1  0  0  0  0
M  END
> <s_m_source_file>
AV-unprocessed.smi

> <i_m_source_file_index>
2172

> <i_lp_mmshare_version>
43012

> <i_f3d_flags>
0

> <s_epik_input>
W2NIXTFbY0hdW2NIXVtjSF1jKGMxMiluKGMobjIpW0NIMl1bT0hdKVtDSDJdW0NASF0oW09IXSljM1tjSF1bY0hdYyhDbClbY0hdW2NIXTM=

> <s_epik_cmdline>
J2VwaWtfcHl0aG9uJywgJy1waCcsICc3LjAnLCAnLXRuJywgJzgnLCAnLW1hJywgJzIwMCcsICctbWV0YWxfYmluZGluZycsICctaW1hZScsICc8aW5maWxlLm1hZT4nLCAnLW9tYWUnLCAnPG91dGZpbGUubWFlPic=

> <r_epik_Ionization_Penalty>
0.0634726

> <r_epik_Ionization_Penalty_Charging>
0

> <r_epik_Ionization_Penalty_Neutral>
0.0634726

> <r_epik_State_Penalty>
0.0551572

> <r_epik_Charging_Adjusted_Penalty>
0.0551572

> <i_epik_Tot_Q>
0

> <i_epik_Tot_abs_Q>
0

> <r_epik_Metal_State_Penalty>
5.78034e-05

> <b_epik_Metal_Only>
0

> <s_lp_Force_Field>
OPLS_2005

> <r_lp_Energy>
11.6759

> <b_lp_Chiralities_Consistent>
1

> <s_lp_Variant>
AV-unprocessed.smi:2172-2

> <Gold.Version>
5.8.1

> <Gold.Id.Protein>
6NUR|6NUR_protein|mol2

> <Gold.PLP.Fitness>
47.4732

> <Gold.PLP.PLP>
-39.7478

> <Gold.PLP.part.hbond>
-4.4183

> <Gold.PLP.part.metal>
0.0000

> <Gold.PLP.part.buried>
-3.8176

> <Gold.PLP.part.nonpolar>
-31.6884

> <Gold.PLP.part.repulsive>
0.0000

> <Gold.PLP.ligand.clash>
0.0000

> <Gold.PLP.ligand.torsion>
1.0117

> <Gold.PLP.Chemscore.Hbond>
3.2368

> <Gold.PLP.Chemscore.CHOScore>
0.0000

> <Gold.PLP.Chemscore.Metal>
0.0000

> <Gold.Chemscore.Hbonds>
donor molecule, donor type, donor heavy atom, donor atom, acceptor molecule, acceptor atom, score
      P1  H  7989  7998       L1    14  0.29
      P1  H  7997  8008       L1     4  1.00
      P1  H  8011  8017       L1    14  1.00
      P1  H 10752 10764       L1     1  0.96

> <Gold.PLP.Chemscore.Internal.Correction>
0.0385

> <Gold.Rescore>
     Score         DG    S(hbond)    S(metal)    S(lipo)     H(rot)  DE(clash)    DE(int)     intcor
     18.08     -19.14       2.79        0.00      94.37       2.62       0.04       1.03       ----

> <Gold.Chemscore.Fitness>
18.0750

> <Gold.Chemscore.DG>
-19.1401

> <Gold.Chemscore.ZeroCoef>
-5.4800

> <Gold.Chemscore.Hbond>
2.7947

> <Gold.Chemscore.Metal>
0.0000

> <Gold.Chemscore.Lipo>
94.3705

> <Gold.Chemscore.Internal_Hbond>
0.0000

> <Gold.Chemscore.DEClash>
0.0358

> <Gold.Chemscore.DEInternal>
1.0293

> <Gold.Chemscore.Rot>
2.6232

> <Gold.Chemscore.Internal.Correction>
   9.000000E+99

> <Gold.Chemscore.Hbonds>
donor molecule, donor type, donor heavy atom, donor atom, acceptor molecule, acceptor atom, score
      L1  H    14    32       P1  7957  0.01
      P1  H  7989  7998       L1    14  0.03
      P1  H  7997  8008       L1     4  0.51
      P1  H  8011  8017       L1    14  0.72
      P1  H 10752 10764       L1     1  0.52

> <Gold.Chemscore.Hbond.Weighted>
-9.3342

> <Gold.Chemscore.Metal.Weighted>
-0.0000

> <Gold.Chemscore.Lipo.Weighted>
-11.0414

> <Gold.Chemscore.Internal_Hbond.Weighted>
0.0000

> <Gold.Chemscore.DEClash.Weighted>
0.0358

> <Gold.Chemscore.DEInternal.Weighted>
1.0293

> <Gold.Chemscore.Rot.Weighted>
6.7154

> <Gold.Chemscore.Internal.Correction.Weighted>
   9.000000E+99

> <Gold.Protein.RotatedTorsions>
[ 6907 6896 6895 6894 ] final -157.40 input  -60.11 | X-H torsion
[ 7974 7965 7964 7962 ] final  -63.52 input  175.53 | X-H torsion
[ 8008 7997 7996 7995 ] final  -53.76 input   59.86 | X-H torsion
[ 10167 10162 10161 10158 ] final  -43.22 input  -65.29 | X-H torsion
[ 10718 10713 10712 10709 ] final  -35.80 input   66.30 | X-H torsion
[ 10763 10752 10751 10750 ] final  -34.37 input  -60.55 | X-H torsion
[ 11005 11000 10999 10996 ] final  -47.60 input  -57.11 | X-H torsion

> <Gold.Protein.ActiveResidues>
 VAL166  LYS551  ARG553  GLY616  TRP617  ASP618  TYR619  PRO620  LYS621  CYS622 
 ASP623  PHE694  ASN695  SER759  ASP760  ASP761  ALA762  ILE779  LEU786  VAL792 
 PHE793  MET794  SER795  GLU796  ALA797  LYS798  CYS799  TRP800  GLU811  SER814 

> <Gold.Protein.RotatedAtoms>
  151.3022  133.4117  159.2640 H   0  0  0  0  0  0  0  0  0  0  0  0  # atno 6907 bound_to 6896
  151.0185  134.9452  159.8057 H   0  0  0  0  0  0  0  0  0  0  0  0  # atno 6908 bound_to 6896
  152.5318  134.2986  159.9122 H   0  0  0  0  0  0  0  0  0  0  0  0  # atno 6909 bound_to 6896
  145.7780  140.8777  143.0345 H   0  0  0  0  0  0  0  0  0  0  0  0  # atno 7974 bound_to 7965
  154.4142  140.1192  156.5206 H   0  0  0  0  0  0  0  0  0  0  0  0  # atno 8008 bound_to 7997
  155.6706  140.3496  155.4797 H   0  0  0  0  0  0  0  0  0  0  0  0  # atno 8009 bound_to 7997
  155.9636  140.1127  157.0864 H   0  0  0  0  0  0  0  0  0  0  0  0  # atno 8010 bound_to 7997
  140.6942  143.2995  151.3321 H   0  0  0  0  0  0  0  0  0  0  0  0  # atno 10167 bound_to 10162
  156.3344  130.4284  149.7844 H   0  0  0  0  0  0  0  0  0  0  0  0  # atno 10718 bound_to 10713
  153.8455  135.6853  153.4798 H   0  0  0  0  0  0  0  0  0  0  0  0  # atno 10763 bound_to 10752
  153.1428  135.4650  154.9519 H   0  0  0  0  0  0  0  0  0  0  0  0  # atno 10764 bound_to 10752
  154.7825  135.3274  154.7905 H   0  0  0  0  0  0  0  0  0  0  0  0  # atno 10765 bound_to 10752
  141.0650  133.6696  156.3321 H   0  0  0  0  0  0  0  0  0  0  0  0  # atno 11005 bound_to 11000
  144.6801  139.9948  143.7484 LP  0  0  0  0  0  0  0  0  0  0  0  0  # atno 17320 bound_to 7965
  146.0103  139.3164  143.0874 LP  0  0  0  0  0  0  0  0  0  0  0  0  # atno 17321 bound_to 7965
  139.6377  144.0599  152.2529 LP  0  0  0  0  0  0  0  0  0  0  0  0  # atno 17342 bound_to 10162
  140.0094  144.6235  150.7660 LP  0  0  0  0  0  0  0  0  0  0  0  0  # atno 17343 bound_to 10162
  156.5104  130.8169  151.3166 LP  0  0  0  0  0  0  0  0  0  0  0  0  # atno 17370 bound_to 10713
  157.7436  130.9916  150.2605 LP  0  0  0  0  0  0  0  0  0  0  0  0  # atno 17371 bound_to 10713
  140.5791  134.5764  157.5475 LP  0  0  0  0  0  0  0  0  0  0  0  0  # atno 17394 bound_to 11000
  139.9468  134.7687  156.0542 LP  0  0  0  0  0  0  0  0  0  0  0  0  # atno 17395 bound_to 11000

$$$$
