AV-unprocessed.smi:186|AV-procd|sdf|1467|dock8
  -GOLD-   2262019283D 1   1.00000     0.00000
 Structure written by MMmdl.
 48 51  0  0  0  0  0  0  0  0  1 V2000
  142.2548  140.4463  155.9258 C   0  0  0  0  0  0  0  0  0  0  0  0
  143.6262  140.7315  155.7135 O   0  0  0  0  0  0  0  0  0  0  0  0
  144.4240  139.5584  155.6694 C   0  0  0  0  0  0  0  0  0  0  0  0
  145.8553  139.9228  155.2713 C   0  0  0  0  0  0  0  0  0  0  0  0
  146.8055  139.6369  156.0006 O   0  0  0  0  0  0  0  0  0  0  0  0
  145.9943  140.5625  154.1013 N   0  0  0  0  0  0  0  0  0  0  0  0
  147.2697  140.9926  153.5427 C   0  0  0  0  0  0  0  0  0  0  0  0
  148.3655  139.9251  153.6020 C   0  0  0  0  0  0  0  0  0  0  0  0
  149.2446  141.0238  153.9839 N   0  0  0  0  0  0  0  0  0  0  0  0
  150.2930  140.6871  154.8865 C   0  0  0  0  0  0  0  0  0  0  0  0
  151.2904  139.8591  154.4745 N   0  0  0  0  0  0  0  0  0  0  0  0
  152.2847  139.5131  155.2969 C   0  0  0  0  0  0  0  0  0  0  0  0
  152.4734  139.8644  156.5685 N   0  0  0  0  0  0  0  0  0  0  0  0
  151.4687  140.6740  157.0066 C   0  0  0  0  0  0  0  0  0  0  0  0
  150.3579  141.1293  156.2400 C   0  0  0  0  0  0  0  0  0  0  0  0
  149.5475  141.9403  157.0261 N   0  0  0  0  0  0  0  0  0  0  0  0
  150.1464  141.9670  158.1851 C   0  0  0  0  0  0  0  0  0  0  0  0
  151.3004  141.2214  158.2671 N   0  0  0  0  0  0  0  0  0  0  0  0
  152.1611  141.0677  159.4310 C   0  0  0  0  0  0  0  0  0  0  0  0
  153.0192  142.3169  159.7578 C   0  0  2  0  0  0  0  0  0  0  0  0
  154.3913  141.9738  159.6931 O   0  0  0  0  0  0  0  0  0  0  0  0
  152.7248  142.9415  161.1245 C   0  0  0  0  0  0  0  0  0  0  0  0
  151.8399  144.1308  160.7787 C   0  0  0  0  0  0  0  0  0  0  0  0
  152.4241  144.6035  159.5787 O   0  0  0  0  0  0  0  0  0  0  0  0
  152.7336  143.4715  158.7760 C   0  0  0  0  0  0  0  0  0  0  0  0
  148.1242  141.7801  154.5356 C   0  0  0  0  0  0  0  0  0  0  0  0
  141.6859  141.3756  155.9486 H   0  0  0  0  0  0  0  0  0  0  0  0
  142.1021  139.9347  156.8770 H   0  0  0  0  0  0  0  0  0  0  0  0
  141.8526  139.8245  155.1250 H   0  0  0  0  0  0  0  0  0  0  0  0
  144.4318  139.0711  156.6458 H   0  0  0  0  0  0  0  0  0  0  0  0
  144.0206  138.8515  154.9426 H   0  0  0  0  0  0  0  0  0  0  0  0
  145.1645  140.7619  153.5619 H   0  0  0  0  0  0  0  0  0  0  0  0
  147.1945  141.4793  152.5671 H   0  0  0  0  0  0  0  0  0  0  0  0
  148.2258  139.1885  154.3960 H   0  0  0  0  0  0  0  0  0  0  0  0
  148.6073  139.4714  152.6406 H   0  0  0  0  0  0  0  0  0  0  0  0
  153.0343  138.8591  154.8767 H   0  0  0  0  0  0  0  0  0  0  0  0
  149.7552  142.5307  159.0197 H   0  0  0  0  0  0  0  0  0  0  0  0
  151.5312  140.8139  160.2847 H   0  0  0  0  0  0  0  0  0  0  0  0
  152.8063  140.2041  159.2628 H   0  0  0  0  0  0  0  0  0  0  0  0
  154.9025  142.7623  159.7920 H   0  0  0  0  0  0  0  0  0  0  0  0
  152.2541  142.2677  161.8381 H   0  0  0  0  0  0  0  0  0  0  0  0
  153.6413  143.3125  161.5867 H   0  0  0  0  0  0  0  0  0  0  0  0
  150.8116  143.8162  160.5937 H   0  0  0  0  0  0  0  0  0  0  0  0
  151.8367  144.8956  161.5554 H   0  0  0  0  0  0  0  0  0  0  0  0
  153.5689  143.6917  158.1098 H   0  0  0  0  0  0  0  0  0  0  0  0
  151.8678  143.2512  158.1497 H   0  0  0  0  0  0  0  0  0  0  0  0
  148.1733  142.8522  154.3439 H   0  0  0  0  0  0  0  0  0  0  0  0
  147.9110  141.5454  155.5805 H   0  0  0  0  0  0  0  0  0  0  0  0
  1  2  1  0  0  0  0
  1 27  1  0  0  0  0
  1 28  1  0  0  0  0
  1 29  1  0  0  0  0
  2  3  1  0  0  0  0
  3  4  1  0  0  0  0
  3 30  1  0  0  0  0
  3 31  1  0  0  0  0
  4  5  2  0  0  0  0
  4  6  1  0  0  0  0
  6  7  1  0  0  0  0
  6 32  1  0  0  0  0
  7 26  1  0  0  0  0
  7  8  1  0  0  0  0
  7 33  1  0  0  0  0
  8  9  1  0  0  0  0
  8 34  1  0  0  0  0
  8 35  1  0  0  0  0
  9 10  1  0  0  0  0
  9 26  1  0  0  0  0
 10 15  1  0  0  0  0
 10 11  2  0  0  0  0
 11 12  1  0  0  0  0
 12 13  2  0  0  0  0
 12 36  1  0  0  0  0
 13 14  1  0  0  0  0
 14 18  1  0  0  0  0
 14 15  2  0  0  0  0
 15 16  1  0  0  0  0
 16 17  2  0  0  0  0
 17 18  1  0  0  0  0
 17 37  1  0  0  0  0
 18 19  1  0  0  0  0
 19 20  1  0  0  0  0
 19 38  1  0  0  0  0
 19 39  1  0  0  0  0
 20 25  1  0  0  0  0
 20 21  1  0  0  0  0
 20 22  1  0  0  0  0
 21 40  1  0  0  0  0
 22 23  1  0  0  0  0
 22 41  1  0  0  0  0
 22 42  1  0  0  0  0
 23 24  1  0  0  0  0
 23 43  1  0  0  0  0
 23 44  1  0  0  0  0
 24 25  1  0  0  0  0
 25 45  1  0  0  0  0
 25 46  1  0  0  0  0
 26 47  1  0  0  0  0
 26 48  1  0  0  0  0
M  END
> <s_m_source_file>
AV-unprocessed.smi

> <i_m_source_file_index>
186

> <i_lp_mmshare_version>
43012

> <i_f3d_flags>
0

> <s_epik_input>
W0NIM11PW0NIMl1DKD1PKVtOSF1bQ0hdMVtDSDJdTihbQ0gyXTEpYyhuW2NIXW4yKWMoYzIzKW5bY0hdbjNbQ0gyXVtDQEBdNChbT0hdKVtDSDJdW0NIMl1PW0NIMl00

> <s_epik_cmdline>
J2VwaWtfcHl0aG9uJywgJy1waCcsICc3LjAnLCAnLXRuJywgJzgnLCAnLW1hJywgJzIwMCcsICctbWV0YWxfYmluZGluZycsICctaW1hZScsICc8aW5maWxlLm1hZT4nLCAnLW9tYWUnLCAnPG91dGZpbGUubWFlPic=

> <r_lp_tautomer_probability>
1

> <r_epik_Ionization_Penalty>
0.00138671

> <r_epik_Ionization_Penalty_Charging>
0

> <r_epik_Ionization_Penalty_Neutral>
0.00138671

> <r_epik_State_Penalty>
0.000746021

> <r_epik_Charging_Adjusted_Penalty>
0.000746021

> <i_epik_Tot_Q>
0

> <i_epik_Tot_abs_Q>
0

> <r_epik_Metal_State_Penalty>
-0

> <b_epik_Metal_Only>
0

> <s_lp_Force_Field>
OPLS_2005

> <r_lp_Energy>
43.6542

> <b_lp_Chiralities_Consistent>
1

> <s_lp_Variant>
AV-unprocessed.smi:186-2

> <Gold.Version>
5.8.1

> <Gold.Id.Protein>
6NUR|6NUR_protein|mol2

> <Gold.PLP.Fitness>
49.5552

> <Gold.PLP.PLP>
-43.2708

> <Gold.PLP.part.hbond>
-4.2350

> <Gold.PLP.part.metal>
0.0000

> <Gold.PLP.part.buried>
-1.2563

> <Gold.PLP.part.nonpolar>
-38.1547

> <Gold.PLP.part.repulsive>
0.6118

> <Gold.PLP.ligand.clash>
0.0000

> <Gold.PLP.ligand.torsion>
1.5416

> <Gold.PLP.Chemscore.Hbond>
2.9516

> <Gold.PLP.Chemscore.CHOScore>
0.0000

> <Gold.PLP.Chemscore.Metal>
0.0000

> <Gold.Chemscore.Hbonds>
donor molecule, donor type, donor heavy atom, donor atom, acceptor molecule, acceptor atom, score
      L1  H     6    32       P1 10175  1.00
      P1  H  7989  7998       L1    11  0.31
      P1  H  7997  8008       L1    13  1.00
      P1  H  8011  8017       L1     9  0.41

> <Gold.PLP.Chemscore.Internal.Correction>
0.5127

> <Gold.Rescore>
     Score         DG    S(hbond)    S(metal)    S(lipo)     H(rot)  DE(clash)    DE(int)     intcor
      5.77     -11.26       1.48        0.00      80.63       3.36       0.06       5.43       ----

> <Gold.Chemscore.Fitness>
5.7687

> <Gold.Chemscore.DG>
-11.2624

> <Gold.Chemscore.ZeroCoef>
-5.4800

> <Gold.Chemscore.Hbond>
1.4837

> <Gold.Chemscore.Metal>
0.0000

> <Gold.Chemscore.Lipo>
80.6285

> <Gold.Chemscore.Internal_Hbond>
0.0000

> <Gold.Chemscore.DEClash>
0.0595

> <Gold.Chemscore.DEInternal>
5.4342

> <Gold.Chemscore.Rot>
3.3620

> <Gold.Chemscore.Internal.Correction>
   9.000000E+99

> <Gold.Chemscore.Hbonds>
donor molecule, donor type, donor heavy atom, donor atom, acceptor molecule, acceptor atom, score
      L1  H     6    32       P1 10175  0.90
      P1  H  7989  7998       L1    11  0.01
      P1  H  7997  8008       L1    13  0.34
      P1  H  8011  8017       L1     9  0.07

> <Gold.Chemscore.Hbond.Weighted>
-4.9556

> <Gold.Chemscore.Metal.Weighted>
-0.0000

> <Gold.Chemscore.Lipo.Weighted>
-9.4335

> <Gold.Chemscore.Internal_Hbond.Weighted>
0.0000

> <Gold.Chemscore.DEClash.Weighted>
0.0595

> <Gold.Chemscore.DEInternal.Weighted>
5.4342

> <Gold.Chemscore.Rot.Weighted>
8.6067

> <Gold.Chemscore.Internal.Correction.Weighted>
   9.000000E+99

> <Gold.Protein.RotatedTorsions>
[ 6907 6896 6895 6894 ] final -122.43 input  -60.11 | X-H torsion
[ 7974 7965 7964 7962 ] final  134.13 input  175.53 | X-H torsion
[ 8008 7997 7996 7995 ] final  -61.80 input   59.86 | X-H torsion
[ 10167 10162 10161 10158 ] final   39.64 input  -65.29 | X-H torsion
[ 10718 10713 10712 10709 ] final   97.47 input   66.30 | X-H torsion
[ 10763 10752 10751 10750 ] final -168.34 input  -60.55 | X-H torsion
[ 11005 11000 10999 10996 ] final   58.14 input  -57.11 | X-H torsion

> <Gold.Protein.ActiveResidues>
 VAL166  LYS551  ARG553  GLY616  TRP617  ASP618  TYR619  PRO620  LYS621  CYS622 
 ASP623  PHE694  ASN695  SER759  ASP760  ASP761  ALA762  ILE779  LEU786  VAL792 
 PHE793  MET794  SER795  GLU796  ALA797  LYS798  CYS799  TRP800  GLU811  SER814 

> <Gold.Protein.RotatedAtoms>
  150.8575  133.7693  159.3003 H   0  0  0  0  0  0  0  0  0  0  0  0  # atno 6907 bound_to 6896
  151.5346  135.1067  159.9921 H   0  0  0  0  0  0  0  0  0  0  0  0  # atno 6908 bound_to 6896
  152.4601  133.7760  159.6881 H   0  0  0  0  0  0  0  0  0  0  0  0  # atno 6909 bound_to 6896
  144.9794  139.4520  143.5393 H   0  0  0  0  0  0  0  0  0  0  0  0  # atno 7974 bound_to 7965
  154.4466  140.1010  156.6488 H   0  0  0  0  0  0  0  0  0  0  0  0  # atno 8008 bound_to 7997
  155.5420  140.3484  155.4430 H   0  0  0  0  0  0  0  0  0  0  0  0  # atno 8009 bound_to 7997
  156.0590  140.1322  156.9952 H   0  0  0  0  0  0  0  0  0  0  0  0  # atno 8010 bound_to 7997
  140.3819  144.1968  150.6130 H   0  0  0  0  0  0  0  0  0  0  0  0  # atno 10167 bound_to 10162
  157.6912  131.0610  150.4648 H   0  0  0  0  0  0  0  0  0  0  0  0  # atno 10718 bound_to 10713
  154.6638  135.2929  154.9831 H   0  0  0  0  0  0  0  0  0  0  0  0  # atno 10763 bound_to 10752
  154.0882  135.6594  153.4852 H   0  0  0  0  0  0  0  0  0  0  0  0  # atno 10764 bound_to 10752
  153.0445  135.5213  154.7602 H   0  0  0  0  0  0  0  0  0  0  0  0  # atno 10765 bound_to 10752
  140.0400  134.5887  155.9394 H   0  0  0  0  0  0  0  0  0  0  0  0  # atno 11005 bound_to 11000
  146.3404  139.9057  142.8787 LP  0  0  0  0  0  0  0  0  0  0  0  0  # atno 17320 bound_to 7965
  145.2442  141.0020  143.3918 LP  0  0  0  0  0  0  0  0  0  0  0  0  # atno 17321 bound_to 7965
  140.4928  143.2342  151.8793 LP  0  0  0  0  0  0  0  0  0  0  0  0  # atno 17342 bound_to 10162
  139.4795  144.5147  151.8885 LP  0  0  0  0  0  0  0  0  0  0  0  0  # atno 17343 bound_to 10162
  156.4990  130.4113  149.6363 LP  0  0  0  0  0  0  0  0  0  0  0  0  # atno 17370 bound_to 10713
  156.3346  130.7349  151.2285 LP  0  0  0  0  0  0  0  0  0  0  0  0  # atno 17371 bound_to 10713
  141.1878  133.6561  156.5296 LP  0  0  0  0  0  0  0  0  0  0  0  0  # atno 17394 bound_to 11000
  140.4085  134.7293  157.4822 LP  0  0  0  0  0  0  0  0  0  0  0  0  # atno 17395 bound_to 11000

$$$$
