AV-unprocessed.smi:1007|AV-procd|sdf|4409|dock5
  -GOLD-   22720 2353D 1   1.00000     0.00000
 Structure written by MMmdl.
 57 59  0  0  0  0  0  0  0  0  3 V2000
  141.0564  144.4178  154.5367 C   0  0  0  0  0  0  0  0  0  0  0  0
  142.3067  143.8409  154.8716 O   0  0  0  0  0  0  0  0  0  0  0  0
  142.1782  142.7413  155.7574 C   0  0  0  0  0  0  0  0  0  0  0  0
  143.5500  142.0667  155.9101 C   0  0  0  0  0  0  0  0  0  0  0  0
  144.6409  143.0512  156.1409 N   0  3  2  0  0  0  0  0  0  0  0  0
  145.0672  143.8038  154.9316 C   0  0  0  0  0  0  0  0  0  0  0  0
  145.9581  142.9567  153.9991 C   0  0  0  0  0  0  0  0  0  0  0  0
  147.1181  142.3803  154.7288 N   0  3  2  0  0  0  0  0  0  0  0  0
  148.0353  141.5980  153.8593 C   0  0  0  0  0  0  0  0  0  0  0  0
  149.1225  140.8574  154.6624 C   0  0  1  0  0  0  0  0  0  0  0  0
  149.8107  139.9797  153.7913 O   0  0  0  0  0  0  0  0  0  0  0  0
  150.1247  141.8343  155.3074 C   0  0  0  0  0  0  0  0  0  0  0  0
  150.8145  141.2529  156.4451 N   0  0  0  0  0  0  0  0  0  0  0  0
  151.1508  139.9596  156.6133 C   0  0  0  0  0  0  0  0  0  0  0  0
  151.7858  139.6362  157.7357 N   0  0  0  0  0  0  0  0  0  0  0  0
  151.8686  140.8624  158.3727 C   0  0  0  0  0  0  0  0  0  0  0  0
  152.4336  141.2117  159.6188 C   0  0  0  0  0  0  0  0  0  0  0  0
  152.4052  142.5476  160.0784 C   0  0  0  0  0  0  0  0  0  0  0  0
  153.0251  142.8788  161.4246 C   0  0  0  0  0  0  0  0  0  0  0  0
  151.8043  143.5590  159.2866 C   0  0  0  0  0  0  0  0  0  0  0  0
  151.7607  145.0007  159.7615 C   0  0  0  0  0  0  0  0  0  0  0  0
  151.2357  143.2275  158.0389 C   0  0  0  0  0  0  0  0  0  0  0  0
  151.2698  141.8945  157.5923 C   0  0  0  0  0  0  0  0  0  0  0  0
  146.6784  141.6127  155.9205 C   0  0  0  0  0  0  0  0  0  0  0  0
  145.8122  142.4813  156.8519 C   0  0  0  0  0  0  0  0  0  0  0  0
  141.2098  145.2553  153.8563 H   0  0  0  0  0  0  0  0  0  0  0  0
  140.5461  144.7949  155.4237 H   0  0  0  0  0  0  0  0  0  0  0  0
  140.4080  143.6950  154.0398 H   0  0  0  0  0  0  0  0  0  0  0  0
  141.8418  143.0978  156.7323 H   0  0  0  0  0  0  0  0  0  0  0  0
  141.4245  142.0413  155.3959 H   0  0  0  0  0  0  0  0  0  0  0  0
  143.4911  141.3783  156.7543 H   0  0  0  0  0  0  0  0  0  0  0  0
  143.7675  141.4529  155.0363 H   0  0  0  0  0  0  0  0  0  0  0  0
  144.2056  144.1885  154.3871 H   0  0  0  0  0  0  0  0  0  0  0  0
  145.6277  144.6798  155.2610 H   0  0  0  0  0  0  0  0  0  0  0  0
  145.3767  142.1532  153.5451 H   0  0  0  0  0  0  0  0  0  0  0  0
  146.3035  143.5858  153.1798 H   0  0  0  0  0  0  0  0  0  0  0  0
  147.4670  140.8613  153.2888 H   0  0  0  0  0  0  0  0  0  0  0  0
  148.4884  142.2643  153.1237 H   0  0  0  0  0  0  0  0  0  0  0  0
  148.6688  140.2604  155.4528 H   0  0  0  0  0  0  0  0  0  0  0  0
  149.4495  140.0677  152.9217 H   0  0  0  0  0  0  0  0  0  0  0  0
  150.8662  142.1630  154.5780 H   0  0  0  0  0  0  0  0  0  0  0  0
  149.6073  142.7321  155.6484 H   0  0  0  0  0  0  0  0  0  0  0  0
  150.9181  139.2129  155.8681 H   0  0  0  0  0  0  0  0  0  0  0  0
  152.8916  140.4409  160.2212 H   0  0  0  0  0  0  0  0  0  0  0  0
  152.2816  143.3173  162.0902 H   0  0  0  0  0  0  0  0  0  0  0  0
  153.8445  143.5878  161.3041 H   0  0  0  0  0  0  0  0  0  0  0  0
  153.4233  141.9873  161.9097 H   0  0  0  0  0  0  0  0  0  0  0  0
  151.2746  145.6465  159.0295 H   0  0  0  0  0  0  0  0  0  0  0  0
  152.7694  145.3808  159.9253 H   0  0  0  0  0  0  0  0  0  0  0  0
  151.2050  145.0782  160.6963 H   0  0  0  0  0  0  0  0  0  0  0  0
  150.7759  143.9890  157.4271 H   0  0  0  0  0  0  0  0  0  0  0  0
  146.1270  140.7262  155.6032 H   0  0  0  0  0  0  0  0  0  0  0  0
  147.5512  141.2607  156.4719 H   0  0  0  0  0  0  0  0  0  0  0  0
  146.4123  143.3059  157.2394 H   0  0  0  0  0  0  0  0  0  0  0  0
  145.4888  141.9093  157.7223 H   0  0  0  0  0  0  0  0  0  0  0  0
  147.6623  143.1562  155.0799 H   0  0  0  0  0  0  0  0  0  0  0  0
  144.2422  143.7293  156.7759 H   0  0  0  0  0  0  0  0  0  0  0  0
  1  2  1  0  0  0  0
  1 26  1  0  0  0  0
  1 27  1  0  0  0  0
  1 28  1  0  0  0  0
  2  3  1  0  0  0  0
  3  4  1  0  0  0  0
  3 29  1  0  0  0  0
  3 30  1  0  0  0  0
  4  5  1  0  0  0  0
  4 31  1  0  0  0  0
  4 32  1  0  0  0  0
  5 25  1  0  0  0  0
  5  6  1  0  0  0  0
  5 57  1  0  0  0  0
  6  7  1  0  0  0  0
  6 33  1  0  0  0  0
  6 34  1  0  0  0  0
  7  8  1  0  0  0  0
  7 35  1  0  0  0  0
  7 36  1  0  0  0  0
  8  9  1  0  0  0  0
  8 24  1  0  0  0  0
  8 56  1  0  0  0  0
  9 10  1  0  0  0  0
  9 37  1  0  0  0  0
  9 38  1  0  0  0  0
 10 11  1  0  0  0  0
 10 12  1  0  0  0  0
 10 39  1  0  0  0  0
 11 40  1  0  0  0  0
 12 13  1  0  0  0  0
 12 41  1  0  0  0  0
 12 42  1  0  0  0  0
 13 23  1  0  0  0  0
 13 14  1  0  0  0  0
 14 15  2  0  0  0  0
 14 43  1  0  0  0  0
 15 16  1  0  0  0  0
 16 23  2  0  0  0  0
 16 17  1  0  0  0  0
 17 18  2  0  0  0  0
 17 44  1  0  0  0  0
 18 19  1  0  0  0  0
 18 20  1  0  0  0  0
 19 45  1  0  0  0  0
 19 46  1  0  0  0  0
 19 47  1  0  0  0  0
 20 21  1  0  0  0  0
 20 22  2  0  0  0  0
 21 48  1  0  0  0  0
 21 49  1  0  0  0  0
 21 50  1  0  0  0  0
 22 23  1  0  0  0  0
 22 51  1  0  0  0  0
 24 25  1  0  0  0  0
 24 52  1  0  0  0  0
 24 53  1  0  0  0  0
 25 54  1  0  0  0  0
 25 55  1  0  0  0  0
M  CHG  1   5   1
M  CHG  1   8   1
M  END
> <s_m_source_file>
AV-unprocessed.smi

> <i_m_source_file_index>
1007

> <i_lp_mmshare_version>
43012

> <i_f3d_flags>
0

> <s_epik_input>
W0NIM11PW0NIMl1bQ0gyXU4xW0NIMl1bQ0gyXU4oW0NIMl1bQ0gyXTEpW0NIMl1bQ0BIXShbT0hdKVtDSDJdbihbY0hdbjIpYyhjMjMpW2NIXWMoW0NIM10pYyhbY0hdMylbQ0gzXQ==

> <s_epik_cmdline>
J2VwaWtfcHl0aG9uJywgJy1waCcsICc3LjAnLCAnLXRuJywgJzgnLCAnLW1hJywgJzIwMCcsICctbWV0YWxfYmluZGluZycsICctaW1hZScsICc8aW5maWxlLm1hZT4nLCAnLW9tYWUnLCAnPG91dGZpbGUubWFlPic=

> <r_epik_Ionization_Penalty>
3.88944

> <r_epik_Ionization_Penalty_Charging>
3.80608

> <r_epik_Ionization_Penalty_Neutral>
0.0833653

> <r_epik_State_Penalty>
2.70739

> <r_epik_Charging_Adjusted_Penalty>
6.51347

> <i_epik_Tot_Q>
2

> <i_epik_Tot_abs_Q>
2

> <r_epik_Metal_State_Penalty>
2.62239

> <b_epik_Metal_Only>
0

> <s_lp_Force_Field>
OPLS_2005

> <r_lp_Energy>
30.9183

> <b_lp_Chiralities_Consistent>
1

> <s_lp_Variant>
AV-unprocessed.smi:1007-12

> <Gold.Version>
5.8.1

> <Gold.Id.Protein>
6NUR|6NUR_protein|mol2

> <Gold.PLP.Fitness>
59.1820

> <Gold.PLP.PLP>
-49.5876

> <Gold.PLP.part.hbond>
-3.0000

> <Gold.PLP.part.metal>
0.0000

> <Gold.PLP.part.buried>
-6.3420

> <Gold.PLP.part.nonpolar>
-40.1686

> <Gold.PLP.part.repulsive>
0.2406

> <Gold.PLP.ligand.clash>
0.0000

> <Gold.PLP.ligand.torsion>
0.9603

> <Gold.PLP.Chemscore.Hbond>
3.7440

> <Gold.PLP.Chemscore.CHOScore>
0.0000

> <Gold.PLP.Chemscore.Metal>
0.0000

> <Gold.Chemscore.Hbonds>
donor molecule, donor type, donor heavy atom, donor atom, acceptor molecule, acceptor atom, score
      L1  H     8    56       P1  8028  2.00
      L1  H    11    40       P1  7957  1.00
      P1  H  7989  7998       L1    11  0.71

> <Gold.PLP.Chemscore.Internal.Correction>
0.2829

> <Gold.Rescore>
     Score         DG    S(hbond)    S(metal)    S(lipo)     H(rot)  DE(clash)    DE(int)     intcor
     16.74     -19.30       1.72        0.00     126.63       2.63       0.22       2.34       ----

> <Gold.Chemscore.Fitness>
16.7422

> <Gold.Chemscore.DG>
-19.3030

> <Gold.Chemscore.ZeroCoef>
-5.4800

> <Gold.Chemscore.Hbond>
1.7220

> <Gold.Chemscore.Metal>
0.0000

> <Gold.Chemscore.Lipo>
126.6348

> <Gold.Chemscore.Internal_Hbond>
0.0000

> <Gold.Chemscore.DEClash>
0.2180

> <Gold.Chemscore.DEInternal>
2.3428

> <Gold.Chemscore.Rot>
2.6347

> <Gold.Chemscore.Internal.Correction>
   9.000000E+99

> <Gold.Chemscore.Hbonds>
donor molecule, donor type, donor heavy atom, donor atom, acceptor molecule, acceptor atom, score
      L1  H     8    56       P1  8028  0.47
      L1  H    11    40       P1  7957  0.95
      P1  H  7989  7998       L1    11  0.06

> <Gold.Chemscore.Hbond.Weighted>
-5.7514

> <Gold.Chemscore.Metal.Weighted>
-0.0000

> <Gold.Chemscore.Lipo.Weighted>
-14.8163

> <Gold.Chemscore.Internal_Hbond.Weighted>
0.0000

> <Gold.Chemscore.DEClash.Weighted>
0.2180

> <Gold.Chemscore.DEInternal.Weighted>
2.3428

> <Gold.Chemscore.Rot.Weighted>
6.7448

> <Gold.Chemscore.Internal.Correction.Weighted>
   9.000000E+99

> <Gold.Protein.RotatedTorsions>
[ 6907 6896 6895 6894 ] final -135.22 input  -60.11 | X-H torsion
[ 7974 7965 7964 7962 ] final -126.22 input  175.53 | X-H torsion
[ 8008 7997 7996 7995 ] final -166.85 input   59.86 | X-H torsion
[ 10167 10162 10161 10158 ] final  140.74 input  -65.29 | X-H torsion
[ 10718 10713 10712 10709 ] final  151.77 input   66.30 | X-H torsion
[ 10763 10752 10751 10750 ] final  143.46 input  -60.55 | X-H torsion
[ 11005 11000 10999 10996 ] final -170.13 input  -57.11 | X-H torsion

> <Gold.Protein.ActiveResidues>
 VAL166  LYS551  ARG553  GLY616  TRP617  ASP618  TYR619  PRO620  LYS621  CYS622 
 ASP623  PHE694  ASN695  SER759  ASP760  ASP761  ALA762  ILE779  LEU786  VAL792 
 PHE793  MET794  SER795  GLU796  ALA797  LYS798  CYS799  TRP800  GLU811  SER814 

> <Gold.Protein.RotatedAtoms>
  150.9953  133.6109  159.2702 H   0  0  0  0  0  0  0  0  0  0  0  0  # atno 6907 bound_to 6896
  151.3315  135.0842  159.9350 H   0  0  0  0  0  0  0  0  0  0  0  0  # atno 6908 bound_to 6896
  152.5258  133.9581  159.7758 H   0  0  0  0  0  0  0  0  0  0  0  0  # atno 6909 bound_to 6896
  144.9895  140.7718  143.4563 H   0  0  0  0  0  0  0  0  0  0  0  0  # atno 7974 bound_to 7965
  155.8695  140.0991  157.1560 H   0  0  0  0  0  0  0  0  0  0  0  0  # atno 8008 bound_to 7997
  154.3996  140.1350  156.4123 H   0  0  0  0  0  0  0  0  0  0  0  0  # atno 8009 bound_to 7997
  155.7767  140.3459  155.5278 H   0  0  0  0  0  0  0  0  0  0  0  0  # atno 8010 bound_to 7997
  139.5040  144.6215  151.6039 H   0  0  0  0  0  0  0  0  0  0  0  0  # atno 10167 bound_to 10162
  157.2665  131.0808  151.1630 H   0  0  0  0  0  0  0  0  0  0  0  0  # atno 10718 bound_to 10713
  153.9727  135.2949  155.3426 H   0  0  0  0  0  0  0  0  0  0  0  0  # atno 10763 bound_to 10752
  154.7313  135.5066  153.8972 H   0  0  0  0  0  0  0  0  0  0  0  0  # atno 10764 bound_to 10752
  153.0892  135.6702  154.0000 H   0  0  0  0  0  0  0  0  0  0  0  0  # atno 10765 bound_to 10752
  140.5230  134.5691  157.5053 H   0  0  0  0  0  0  0  0  0  0  0  0  # atno 11005 bound_to 11000
  145.2306  139.2116  143.5045 LP  0  0  0  0  0  0  0  0  0  0  0  0  # atno 17320 bound_to 7965
  146.3428  140.2183  142.8591 LP  0  0  0  0  0  0  0  0  0  0  0  0  # atno 17321 bound_to 7965
  140.5919  143.9765  150.6330 LP  0  0  0  0  0  0  0  0  0  0  0  0  # atno 17342 bound_to 10162
  140.2948  143.3300  152.1028 LP  0  0  0  0  0  0  0  0  0  0  0  0  # atno 17343 bound_to 10162
  157.3119  130.6894  149.6220 LP  0  0  0  0  0  0  0  0  0  0  0  0  # atno 17370 bound_to 10713
  155.9663  130.4361  150.5120 LP  0  0  0  0  0  0  0  0  0  0  0  0  # atno 17371 bound_to 10713
  139.9595  134.7476  156.0267 LP  0  0  0  0  0  0  0  0  0  0  0  0  # atno 17394 bound_to 11000
  141.1324  133.6583  156.3500 LP  0  0  0  0  0  0  0  0  0  0  0  0  # atno 17395 bound_to 11000

$$$$
