AV-unprocessed.smi:1195|AV-procd|sdf|4994|dock6
  -GOLD-   22720 3593D 1   1.00000     0.00000
 Structure written by MMmdl.
 39 40  0  0  0  0  0  0  0  0  1 V2000
  142.4310  132.5101  147.9070 N   0  0  0  0  0  0  0  0  0  0  0  0
  143.5775  133.0938  148.2642 C   0  0  0  0  0  0  0  0  0  0  0  0
  144.1699  133.8741  147.5199 O   0  0  0  0  0  0  0  0  0  0  0  0
  144.1171  132.7392  149.6561 C   0  0  0  0  0  0  0  0  0  0  0  0
  144.1177  133.8710  150.5690 N   0  0  0  0  0  0  0  0  0  0  0  0
  144.7455  135.0918  150.4142 C   0  0  0  0  0  0  0  0  0  0  0  0
  144.4443  135.8078  151.5380 C   0  0  0  0  0  0  0  0  0  0  0  0
  144.8281  137.1247  151.8952 N   0  0  0  0  0  0  0  0  0  0  0  0
  145.6314  137.4936  152.9062 C   0  0  0  0  0  0  0  0  0  0  0  0
  146.1675  136.7224  153.7022 O   0  0  0  0  0  0  0  0  0  0  0  0
  145.7824  138.8253  152.9463 N   0  0  0  0  0  0  0  0  0  0  0  0
  146.5884  139.5535  153.9214 C   0  0  2  0  0  0  0  0  0  0  0  0
  146.6086  141.0499  153.5556 C   0  0  0  0  0  0  0  0  0  0  0  0
  147.5007  141.8540  154.5154 C   0  0  0  0  0  0  0  0  0  0  0  0
  148.9270  141.2796  154.5574 C   0  0  1  0  0  0  0  0  0  0  0  0
  149.6972  141.9988  155.4970 O   0  0  0  0  0  0  0  0  0  0  0  0
  148.9104  139.7894  154.9383 C   0  0  0  0  0  0  0  0  0  0  0  0
  148.0214  138.9831  153.9778 C   0  0  0  0  0  0  0  0  0  0  0  0
  143.6284  134.9595  152.3307 C   0  0  0  0  0  0  0  0  0  0  0  0
  143.4374  133.7897  151.7402 N   0  0  0  0  0  0  0  0  0  0  0  0
  142.0298  132.7088  147.0018 H   0  0  0  0  0  0  0  0  0  0  0  0
  141.9682  131.8746  148.5406 H   0  0  0  0  0  0  0  0  0  0  0  0
  143.5194  131.9323  150.0830 H   0  0  0  0  0  0  0  0  0  0  0  0
  145.1394  132.3698  149.5668 H   0  0  0  0  0  0  0  0  0  0  0  0
  145.3300  135.3286  149.5374 H   0  0  0  0  0  0  0  0  0  0  0  0
  144.4477  137.8639  151.3224 H   0  0  0  0  0  0  0  0  0  0  0  0
  145.3041  139.3785  152.2503 H   0  0  0  0  0  0  0  0  0  0  0  0
  146.1289  139.4521  154.9069 H   0  0  0  0  0  0  0  0  0  0  0  0
  146.9735  141.1763  152.5352 H   0  0  0  0  0  0  0  0  0  0  0  0
  145.5953  141.4531  153.5733 H   0  0  0  0  0  0  0  0  0  0  0  0
  147.5261  142.8996  154.2063 H   0  0  0  0  0  0  0  0  0  0  0  0
  147.0636  141.8371  155.5149 H   0  0  0  0  0  0  0  0  0  0  0  0
  149.3940  141.3986  153.5789 H   0  0  0  0  0  0  0  0  0  0  0  0
  149.4134  142.9004  155.4908 H   0  0  0  0  0  0  0  0  0  0  0  0
  149.9237  139.3863  154.9276 H   0  0  0  0  0  0  0  0  0  0  0  0
  148.5401  139.6708  155.9577 H   0  0  0  0  0  0  0  0  0  0  0  0
  148.0010  137.9390  154.2924 H   0  0  0  0  0  0  0  0  0  0  0  0
  148.4634  138.9957  152.9804 H   0  0  0  0  0  0  0  0  0  0  0  0
  143.1797  135.1477  153.2948 H   0  0  0  0  0  0  0  0  0  0  0  0
  1  2  1  0  0  0  0
  1 21  1  0  0  0  0
  1 22  1  0  0  0  0
  2  3  2  0  0  0  0
  2  4  1  0  0  0  0
  4  5  1  0  0  0  0
  4 23  1  0  0  0  0
  4 24  1  0  0  0  0
  5 20  1  0  0  0  0
  5  6  1  0  0  0  0
  6  7  2  0  0  0  0
  6 25  1  0  0  0  0
  7  8  1  0  0  0  0
  7 19  1  0  0  0  0
  8  9  1  0  0  0  0
  8 26  1  0  0  0  0
  9 10  2  0  0  0  0
  9 11  1  0  0  0  0
 11 12  1  0  0  0  0
 11 27  1  0  0  0  0
 12 18  1  0  0  0  0
 12 13  1  0  0  0  0
 12 28  1  0  0  0  0
 13 14  1  0  0  0  0
 13 29  1  0  0  0  0
 13 30  1  0  0  0  0
 14 15  1  0  0  0  0
 14 31  1  0  0  0  0
 14 32  1  0  0  0  0
 15 16  1  0  0  0  0
 15 17  1  0  0  0  0
 15 33  1  0  0  0  0
 16 34  1  0  0  0  0
 17 18  1  0  0  0  0
 17 35  1  0  0  0  0
 17 36  1  0  0  0  0
 18 37  1  0  0  0  0
 18 38  1  0  0  0  0
 19 20  2  0  0  0  0
 19 39  1  0  0  0  0
M  END
> <s_m_source_file>
AV-unprocessed.smi

> <i_m_source_file_index>
1195

> <i_lp_mmshare_version>
43012

> <i_f3d_flags>
0

> <s_epik_input>
W05IMl1DKD1PKVtDSDJdbjFbY0hdYyhbY0hdbjEpW05IXUMoPU8pW05IXVtDQEBIXTJbQ0gyXVtDSDJdW0NAQEhdKFtPSF0pW0NIMl1bQ0gyXTI=

> <s_epik_cmdline>
J2VwaWtfcHl0aG9uJywgJy1waCcsICc3LjAnLCAnLXRuJywgJzgnLCAnLW1hJywgJzIwMCcsICctbWV0YWxfYmluZGluZycsICctaW1hZScsICc8aW5maWxlLm1hZT4nLCAnLW9tYWUnLCAnPG91dGZpbGUubWFlPic=

> <r_lp_tautomer_probability>
1

> <r_epik_Ionization_Penalty>
4.75851e-05

> <r_epik_Ionization_Penalty_Charging>
0

> <r_epik_Ionization_Penalty_Neutral>
4.75851e-05

> <r_epik_State_Penalty>
-0

> <r_epik_Charging_Adjusted_Penalty>
0

> <i_epik_Tot_Q>
0

> <i_epik_Tot_abs_Q>
0

> <r_epik_Metal_State_Penalty>
-0

> <b_epik_Metal_Only>
0

> <s_lp_Force_Field>
OPLS_2005

> <r_lp_Energy>
13.1232

> <b_lp_Chiralities_Consistent>
1

> <s_lp_Variant>
AV-unprocessed.smi:1195-1

> <Gold.Version>
5.8.1

> <Gold.Id.Protein>
6NUR|6NUR_protein|mol2

> <Gold.PLP.Fitness>
53.2487

> <Gold.PLP.PLP>
-34.3204

> <Gold.PLP.part.hbond>
-7.2200

> <Gold.PLP.part.metal>
0.0000

> <Gold.PLP.part.buried>
-4.0198

> <Gold.PLP.part.nonpolar>
-29.3766

> <Gold.PLP.part.repulsive>
5.8778

> <Gold.PLP.ligand.clash>
0.0000

> <Gold.PLP.ligand.torsion>
0.7143

> <Gold.PLP.Chemscore.Hbond>
5.7832

> <Gold.PLP.Chemscore.CHOScore>
1.0000

> <Gold.PLP.Chemscore.Metal>
0.0000

> <Gold.Chemscore.Hbonds>
donor molecule, donor type, donor heavy atom, donor atom, acceptor molecule, acceptor atom, score
      L1  H     1    21       P1 10195  1.00
      L1  H     1    22       P1 10952  0.70
      L1  H     8    26       P1 10171  1.00
      L1  H    11    27       P1 10175  0.58
      L1  H    16    34       P1  8028  1.00
      P1  H  7918  7932       L1     3  0.85
      L1  C     6    25       P1  7921  1.00

> <Gold.PLP.Chemscore.Internal.Correction>
0.0074

> <Gold.Rescore>
     Score         DG    S(hbond)    S(metal)    S(lipo)     H(rot)  DE(clash)    DE(int)     intcor
     20.79     -24.22       5.41        0.00      63.04       2.62       2.67       0.76       ----

> <Gold.Chemscore.Fitness>
20.7903

> <Gold.Chemscore.DG>
-24.2192

> <Gold.Chemscore.ZeroCoef>
-5.4800

> <Gold.Chemscore.Hbond>
5.4112

> <Gold.Chemscore.Metal>
0.0000

> <Gold.Chemscore.Lipo>
63.0424

> <Gold.Chemscore.Internal_Hbond>
0.0000

> <Gold.Chemscore.DEClash>
2.6724

> <Gold.Chemscore.DEInternal>
0.7565

> <Gold.Chemscore.Rot>
2.6212

> <Gold.Chemscore.Internal.Correction>
   9.000000E+99

> <Gold.Chemscore.Hbonds>
donor molecule, donor type, donor heavy atom, donor atom, acceptor molecule, acceptor atom, score
      L1  H     1    21       P1 10195  0.95
      L1  H     1    22       P1 10952  0.71
      L1  H     8    26       P1 10171  0.98
      L1  H    11    27       P1 10175  0.57
      L1  H    16    34       P1  8028  1.00
      P1  H  7918  7932       L1     3  0.84

> <Gold.Chemscore.Hbond.Weighted>
-18.0735

> <Gold.Chemscore.Metal.Weighted>
-0.0000

> <Gold.Chemscore.Lipo.Weighted>
-7.3760

> <Gold.Chemscore.Internal_Hbond.Weighted>
0.0000

> <Gold.Chemscore.DEClash.Weighted>
2.6724

> <Gold.Chemscore.DEInternal.Weighted>
0.7565

> <Gold.Chemscore.Rot.Weighted>
6.7103

> <Gold.Chemscore.Internal.Correction.Weighted>
   9.000000E+99

> <Gold.Protein.RotatedTorsions>
[ 6907 6896 6895 6894 ] final -167.92 input  -60.11 | X-H torsion
[ 7974 7965 7964 7962 ] final   -5.18 input  175.53 | X-H torsion
[ 8008 7997 7996 7995 ] final  -90.86 input   59.86 | X-H torsion
[ 10167 10162 10161 10158 ] final  -45.91 input  -65.29 | X-H torsion
[ 10718 10713 10712 10709 ] final   98.66 input   66.30 | X-H torsion
[ 10763 10752 10751 10750 ] final  -81.93 input  -60.55 | X-H torsion
[ 11005 11000 10999 10996 ] final -114.67 input  -57.11 | X-H torsion

> <Gold.Protein.ActiveResidues>
 VAL166  LYS551  ARG553  GLY616  TRP617  ASP618  TYR619  PRO620  LYS621  CYS622 
 ASP623  PHE694  ASN695  SER759  ASP760  ASP761  ALA762  ILE779  LEU786  VAL792 
 PHE793  MET794  SER795  GLU796  ALA797  LYS798  CYS799  TRP800  GLU811  SER814 

> <Gold.Protein.RotatedAtoms>
  151.4673  133.3578  159.2817 H   0  0  0  0  0  0  0  0  0  0  0  0  # atno 6907 bound_to 6896
  150.8985  134.8397  159.7354 H   0  0  0  0  0  0  0  0  0  0  0  0  # atno 6908 bound_to 6896
  152.4865  134.4590  159.9651 H   0  0  0  0  0  0  0  0  0  0  0  0  # atno 6909 bound_to 6896
  146.2358  140.1982  142.8333 H   0  0  0  0  0  0  0  0  0  0  0  0  # atno 7974 bound_to 7965
  154.7037  140.0526  157.0483 H   0  0  0  0  0  0  0  0  0  0  0  0  # atno 8008 bound_to 7997
  155.0650  140.3193  155.4629 H   0  0  0  0  0  0  0  0  0  0  0  0  # atno 8009 bound_to 7997
  156.2768  140.2092  156.5777 H   0  0  0  0  0  0  0  0  0  0  0  0  # atno 8010 bound_to 7997
  140.6839  143.2856  151.3707 H   0  0  0  0  0  0  0  0  0  0  0  0  # atno 10167 bound_to 10162
  157.6891  131.0646  150.4829 H   0  0  0  0  0  0  0  0  0  0  0  0  # atno 10718 bound_to 10713
  154.5695  135.5609  153.7082 H   0  0  0  0  0  0  0  0  0  0  0  0  # atno 10763 bound_to 10752
  153.0044  135.6293  154.2133 H   0  0  0  0  0  0  0  0  0  0  0  0  # atno 10764 bound_to 10752
  154.2073  135.2875  155.2950 H   0  0  0  0  0  0  0  0  0  0  0  0  # atno 10765 bound_to 10752
  141.0537  133.9647  157.2792 H   0  0  0  0  0  0  0  0  0  0  0  0  # atno 11005 bound_to 11000
  144.9803  140.8453  143.5401 LP  0  0  0  0  0  0  0  0  0  0  0  0  # atno 17320 bound_to 7965
  145.1974  139.2269  143.5211 LP  0  0  0  0  0  0  0  0  0  0  0  0  # atno 17321 bound_to 7965
  139.6182  144.0961  152.2366 LP  0  0  0  0  0  0  0  0  0  0  0  0  # atno 17342 bound_to 10162
  140.0396  144.6017  150.7421 LP  0  0  0  0  0  0  0  0  0  0  0  0  # atno 17343 bound_to 10162
  156.5160  130.4150  149.6275 LP  0  0  0  0  0  0  0  0  0  0  0  0  # atno 17370 bound_to 10713
  156.3197  130.7274  151.2183 LP  0  0  0  0  0  0  0  0  0  0  0  0  # atno 17371 bound_to 10713
  139.9371  135.0195  156.8592 LP  0  0  0  0  0  0  0  0  0  0  0  0  # atno 17394 bound_to 11000
  140.6006  134.0175  155.7536 LP  0  0  0  0  0  0  0  0  0  0  0  0  # atno 17395 bound_to 11000

$$$$
