AV-unprocessed.smi:1245|AV-procd|sdf|5239|dock9
  -GOLD-   22720 4343D 1   1.00000     0.00000
 Structure written by MMmdl.
 43 44  0  0  0  0  0  0  0  0  1 V2000
  153.5747  138.8873  158.2444 O   0  0  0  0  0  0  0  0  0  0  0  0
  152.5543  139.4935  158.5704 C   0  0  0  0  0  0  0  0  0  0  0  0
  151.2200  139.1697  157.8960 C   0  0  0  0  0  0  0  0  0  0  0  0
  151.3742  138.2237  156.6925 C   0  0  0  0  0  0  0  0  0  0  0  0
  150.8082  139.0185  155.1223 S   0  0  0  0  0  0  0  0  0  0  0  0
  151.5885  140.2490  154.9201 O   0  0  0  0  0  0  0  0  0  0  0  0
  150.7939  137.9959  154.0650 O   0  0  0  0  0  0  0  0  0  0  0  0
  149.0584  139.4839  155.5158 C   0  0  0  0  0  0  0  0  0  0  0  0
  148.0946  138.9005  154.4630 C   0  0  0  0  0  0  0  0  0  0  0  0
  147.3976  140.0890  153.7901 C   0  0  0  0  0  0  0  0  0  0  0  0
  148.2877  141.2948  154.0789 C   0  0  0  0  0  0  0  0  0  0  0  0
  148.8504  141.0068  155.4691 C   0  0  0  0  0  0  0  0  0  0  0  0
  152.5319  140.4538  159.5062 N   0  0  0  0  0  0  0  0  0  0  0  0
  153.6909  140.9141  160.2646 C   0  0  0  0  0  0  0  0  0  0  0  0
  153.3806  142.1425  161.1428 C   0  0  0  0  0  0  0  0  0  0  0  0
  152.6377  143.2434  160.4046 C   0  0  0  0  0  0  0  0  0  0  0  0
  152.0019  144.2856  161.1133 C   0  0  0  0  0  0  0  0  0  0  0  0
  151.3378  145.2881  160.3804 C   0  0  0  0  0  0  0  0  0  0  0  0
  151.3346  145.2104  158.9744 C   0  0  0  0  0  0  0  0  0  0  0  0
  151.9973  144.1283  158.3614 C   0  0  0  0  0  0  0  0  0  0  0  0
  152.6368  143.1617  159.0548 N   0  0  0  0  0  0  0  0  0  0  0  0
  150.5163  138.7523  158.6174 H   0  0  0  0  0  0  0  0  0  0  0  0
  150.7873  140.1118  157.5586 H   0  0  0  0  0  0  0  0  0  0  0  0
  152.4234  137.9572  156.5677 H   0  0  0  0  0  0  0  0  0  0  0  0
  150.8210  137.2970  156.8429 H   0  0  0  0  0  0  0  0  0  0  0  0
  148.8327  139.0922  156.5080 H   0  0  0  0  0  0  0  0  0  0  0  0
  148.6408  138.3234  153.7160 H   0  0  0  0  0  0  0  0  0  0  0  0
  147.3669  138.2259  154.9148 H   0  0  0  0  0  0  0  0  0  0  0  0
  147.2404  139.9324  152.7225 H   0  0  0  0  0  0  0  0  0  0  0  0
  146.4199  140.2434  154.2482 H   0  0  0  0  0  0  0  0  0  0  0  0
  149.0968  141.3427  153.3491 H   0  0  0  0  0  0  0  0  0  0  0  0
  147.7431  142.2384  154.0348 H   0  0  0  0  0  0  0  0  0  0  0  0
  148.1116  141.2916  156.2189 H   0  0  0  0  0  0  0  0  0  0  0  0
  149.7546  141.5787  155.6739 H   0  0  0  0  0  0  0  0  0  0  0  0
  151.6479  140.8971  159.7114 H   0  0  0  0  0  0  0  0  0  0  0  0
  154.0132  140.0875  160.8984 H   0  0  0  0  0  0  0  0  0  0  0  0
  154.5226  141.1271  159.5914 H   0  0  0  0  0  0  0  0  0  0  0  0
  152.7908  141.8349  162.0071 H   0  0  0  0  0  0  0  0  0  0  0  0
  154.3090  142.5499  161.5452 H   0  0  0  0  0  0  0  0  0  0  0  0
  152.0277  144.3201  162.1927 H   0  0  0  0  0  0  0  0  0  0  0  0
  150.8418  146.1024  160.8879 H   0  0  0  0  0  0  0  0  0  0  0  0
  150.8366  145.9619  158.3797 H   0  0  0  0  0  0  0  0  0  0  0  0
  152.0157  144.0372  157.2855 H   0  0  0  0  0  0  0  0  0  0  0  0
  1  2  2  0  0  0  0
  2  3  1  0  0  0  0
  2 13  1  0  0  0  0
  3  4  1  0  0  0  0
  3 22  1  0  0  0  0
  3 23  1  0  0  0  0
  4  5  1  0  0  0  0
  4 24  1  0  0  0  0
  4 25  1  0  0  0  0
  5  6  2  0  0  0  0
  5  7  2  0  0  0  0
  5  8  1  0  0  0  0
  8 12  1  0  0  0  0
  8  9  1  0  0  0  0
  8 26  1  0  0  0  0
  9 10  1  0  0  0  0
  9 27  1  0  0  0  0
  9 28  1  0  0  0  0
 10 11  1  0  0  0  0
 10 29  1  0  0  0  0
 10 30  1  0  0  0  0
 11 12  1  0  0  0  0
 11 31  1  0  0  0  0
 11 32  1  0  0  0  0
 12 33  1  0  0  0  0
 12 34  1  0  0  0  0
 13 14  1  0  0  0  0
 13 35  1  0  0  0  0
 14 15  1  0  0  0  0
 14 36  1  0  0  0  0
 14 37  1  0  0  0  0
 15 16  1  0  0  0  0
 15 38  1  0  0  0  0
 15 39  1  0  0  0  0
 16 21  1  0  0  0  0
 16 17  2  0  0  0  0
 17 18  1  0  0  0  0
 17 40  1  0  0  0  0
 18 19  2  0  0  0  0
 18 41  1  0  0  0  0
 19 20  1  0  0  0  0
 19 42  1  0  0  0  0
 20 21  2  0  0  0  0
 20 43  1  0  0  0  0
M  END
> <s_m_source_file>
AV-unprocessed.smi

> <i_m_source_file_index>
1245

> <i_lp_mmshare_version>
43012

> <i_f3d_flags>
0

> <s_epik_input>
W0NIMl0xW0NIMl1bQ0gyXVtDSDJdW0NIXTFTKD1PKSg9TylbQ0gyXVtDSDJdQyg9TylbTkhdW0NIMl1bQ0gyXWMyW2NIXVtjSF1bY0hdW2NIXW4y

> <s_epik_cmdline>
J2VwaWtfcHl0aG9uJywgJy1waCcsICc3LjAnLCAnLXRuJywgJzgnLCAnLW1hJywgJzIwMCcsICctbWV0YWxfYmluZGluZycsICctaW1hZScsICc8aW5maWxlLm1hZT4nLCAnLW9tYWUnLCAnPG91dGZpbGUubWFlPic=

> <r_epik_Ionization_Penalty>
0.0243247

> <r_epik_Ionization_Penalty_Charging>
0

> <r_epik_Ionization_Penalty_Neutral>
0.0243247

> <r_epik_State_Penalty>
0.0197389

> <r_epik_Charging_Adjusted_Penalty>
0.0197389

> <i_epik_Tot_Q>
0

> <i_epik_Tot_abs_Q>
0

> <r_epik_Metal_State_Penalty>
0.0189562

> <b_epik_Metal_Only>
0

> <s_lp_Force_Field>
OPLS_2005

> <r_lp_Energy>
12.2182

> <b_lp_Chiralities_Consistent>
1

> <s_lp_Variant>
AV-unprocessed.smi:1245-1

> <Gold.Version>
5.8.1

> <Gold.Id.Protein>
6NUR|6NUR_protein|mol2

> <Gold.PLP.Fitness>
49.6453

> <Gold.PLP.PLP>
-45.1919

> <Gold.PLP.part.hbond>
-1.7320

> <Gold.PLP.part.metal>
0.0000

> <Gold.PLP.part.buried>
-6.4308

> <Gold.PLP.part.nonpolar>
-37.3054

> <Gold.PLP.part.repulsive>
0.4337

> <Gold.PLP.ligand.clash>
0.0000

> <Gold.PLP.ligand.torsion>
0.8606

> <Gold.PLP.Chemscore.Hbond>
1.9600

> <Gold.PLP.Chemscore.CHOScore>
0.0000

> <Gold.PLP.Chemscore.Metal>
0.0000

> <Gold.Chemscore.Hbonds>
donor molecule, donor type, donor heavy atom, donor atom, acceptor molecule, acceptor atom, score
      P1  H  7989  7998       L1     6  0.99
      P1  H  7997  8010       L1     1  1.00

> <Gold.PLP.Chemscore.Internal.Correction>
0.2945

> <Gold.Rescore>
     Score         DG    S(hbond)    S(metal)    S(lipo)     H(rot)  DE(clash)    DE(int)     intcor
     18.05     -20.40       1.90        0.00     116.95       2.00       0.08       2.26       ----

> <Gold.Chemscore.Fitness>
18.0529

> <Gold.Chemscore.DG>
-20.3967

> <Gold.Chemscore.ZeroCoef>
-5.4800

> <Gold.Chemscore.Hbond>
1.9032

> <Gold.Chemscore.Metal>
0.0000

> <Gold.Chemscore.Lipo>
116.9539

> <Gold.Chemscore.Internal_Hbond>
0.0000

> <Gold.Chemscore.DEClash>
0.0815

> <Gold.Chemscore.DEInternal>
2.2623

> <Gold.Chemscore.Rot>
2.0014

> <Gold.Chemscore.Internal.Correction>
   9.000000E+99

> <Gold.Chemscore.Hbonds>
donor molecule, donor type, donor heavy atom, donor atom, acceptor molecule, acceptor atom, score
      P1  H  7989  7998       L1     6  0.86
      P1  H  7997  8010       L1     1  0.74

> <Gold.Chemscore.Hbond.Weighted>
-6.3567

> <Gold.Chemscore.Metal.Weighted>
-0.0000

> <Gold.Chemscore.Lipo.Weighted>
-13.6836

> <Gold.Chemscore.Internal_Hbond.Weighted>
0.0000

> <Gold.Chemscore.DEClash.Weighted>
0.0815

> <Gold.Chemscore.DEInternal.Weighted>
2.2623

> <Gold.Chemscore.Rot.Weighted>
5.1236

> <Gold.Chemscore.Internal.Correction.Weighted>
   9.000000E+99

> <Gold.Protein.RotatedTorsions>
[ 6907 6896 6895 6894 ] final  124.16 input  -60.11 | X-H torsion
[ 7974 7965 7964 7962 ] final  149.12 input  175.53 | X-H torsion
[ 8008 7997 7996 7995 ] final   27.03 input   59.86 | X-H torsion
[ 10167 10162 10161 10158 ] final   96.54 input  -65.29 | X-H torsion
[ 10718 10713 10712 10709 ] final  122.76 input   66.30 | X-H torsion
[ 10763 10752 10751 10750 ] final  -54.16 input  -60.55 | X-H torsion
[ 11005 11000 10999 10996 ] final   -2.79 input  -57.11 | X-H torsion

> <Gold.Protein.ActiveResidues>
 VAL166  LYS551  ARG553  GLY616  TRP617  ASP618  TYR619  PRO620  LYS621  CYS622 
 ASP623  PHE694  ASN695  SER759  ASP760  ASP761  ALA762  ILE779  LEU786  VAL792 
 PHE793  MET794  SER795  GLU796  ALA797  LYS798  CYS799  TRP800  GLU811  SER814 

> <Gold.Protein.RotatedAtoms>
  152.4102  133.6951  159.6390 H   0  0  0  0  0  0  0  0  0  0  0  0  # atno 6907 bound_to 6896
  150.7982  133.8638  159.3248 H   0  0  0  0  0  0  0  0  0  0  0  0  # atno 6908 bound_to 6896
  151.6383  135.1017  160.0187 H   0  0  0  0  0  0  0  0  0  0  0  0  # atno 6909 bound_to 6896
  144.8462  139.6240  143.5994 H   0  0  0  0  0  0  0  0  0  0  0  0  # atno 7974 bound_to 7965
  155.0365  140.3164  155.4739 H   0  0  0  0  0  0  0  0  0  0  0  0  # atno 8008 bound_to 7997
  156.2863  140.2171  156.5431 H   0  0  0  0  0  0  0  0  0  0  0  0  # atno 8009 bound_to 7997
  154.7326  140.0480  157.0727 H   0  0  0  0  0  0  0  0  0  0  0  0  # atno 8010 bound_to 7997
  139.7885  144.6861  150.9925 H   0  0  0  0  0  0  0  0  0  0  0  0  # atno 10167 bound_to 10162
  157.5717  131.1082  150.8354 H   0  0  0  0  0  0  0  0  0  0  0  0  # atno 10718 bound_to 10713
  154.1704  135.6460  153.5008 H   0  0  0  0  0  0  0  0  0  0  0  0  # atno 10763 bound_to 10752
  153.0086  135.5382  154.6619 H   0  0  0  0  0  0  0  0  0  0  0  0  # atno 10764 bound_to 10752
  154.5956  135.2938  155.0562 H   0  0  0  0  0  0  0  0  0  0  0  0  # atno 10765 bound_to 10752
  140.6623  133.9309  155.8443 H   0  0  0  0  0  0  0  0  0  0  0  0  # atno 11005 bound_to 11000
  146.2746  139.6720  142.9272 LP  0  0  0  0  0  0  0  0  0  0  0  0  # atno 17320 bound_to 7965
  145.4592  141.0432  143.2761 LP  0  0  0  0  0  0  0  0  0  0  0  0  # atno 17321 bound_to 7965
  140.7820  143.4406  151.0557 LP  0  0  0  0  0  0  0  0  0  0  0  0  # atno 17342 bound_to 10162
  139.8084  143.7985  152.3169 LP  0  0  0  0  0  0  0  0  0  0  0  0  # atno 17343 bound_to 10162
  156.8824  130.5184  149.5290 LP  0  0  0  0  0  0  0  0  0  0  0  0  # atno 17370 bound_to 10713
  156.0762  130.5784  150.9478 LP  0  0  0  0  0  0  0  0  0  0  0  0  # atno 17371 bound_to 10713
  141.0456  134.0559  157.3848 LP  0  0  0  0  0  0  0  0  0  0  0  0  # atno 17394 bound_to 11000
  139.9009  135.0164  156.7262 LP  0  0  0  0  0  0  0  0  0  0  0  0  # atno 17395 bound_to 11000

$$$$
