AV-unprocessed.smi:180|AV-procd|sdf|1451|dock5
  -GOLD-   2262019253D 1   1.00000     0.00000
 Structure written by MMmdl.
 54 57  0  0  0  0  0  0  0  0  1 V2000
  151.9177  144.5729  160.0363 C   0  0  0  0  0  0  0  0  0  0  0  0
  152.2559  143.2046  160.6193 C   0  0  0  0  0  0  0  0  0  0  0  0
  151.5736  142.7438  161.5336 O   0  0  0  0  0  0  0  0  0  0  0  0
  153.3095  142.5689  160.0844 N   0  0  0  0  0  0  0  0  0  0  0  0
  153.7885  141.2473  160.4807 C   0  0  0  0  0  0  0  0  0  0  0  0
  153.9970  140.3009  159.2823 C   0  0  2  0  0  0  0  0  0  0  0  0
  152.7789  140.2248  158.3383 C   0  0  0  0  0  0  0  0  0  0  0  0
  153.0327  139.2689  157.2633 N   0  0  0  0  0  0  0  0  0  0  0  0
  152.1801  139.2567  156.2064 C   0  0  0  0  0  0  0  0  0  0  0  0
  152.2682  138.2691  155.2751 N   0  0  0  0  0  0  0  0  0  0  0  0
  151.4369  138.2482  154.2294 C   0  0  0  0  0  0  0  0  0  0  0  0
  150.4551  139.0993  153.9275 N   0  0  0  0  0  0  0  0  0  0  0  0
  150.3524  140.0868  154.8621 C   0  0  0  0  0  0  0  0  0  0  0  0
  151.1684  140.2416  156.0189 C   0  0  0  0  0  0  0  0  0  0  0  0
  150.7603  141.3605  156.7358 N   0  0  0  0  0  0  0  0  0  0  0  0
  149.7703  141.8449  156.0375 C   0  0  0  0  0  0  0  0  0  0  0  0
  149.4474  141.1332  154.9043 N   0  0  0  0  0  0  0  0  0  0  0  0
  148.3916  141.4413  153.9519 C   0  0  0  0  0  0  0  0  0  0  0  0
  147.2336  140.4111  153.9196 C   0  0  0  0  0  0  0  0  0  0  0  0
  146.3701  140.8518  152.8871 O   0  0  0  0  0  0  0  0  0  0  0  0
  147.7052  138.9799  153.5814 C   0  0  0  0  0  0  0  0  0  0  0  0
  146.5505  137.9640  153.6483 C   0  0  0  0  0  0  0  0  0  0  0  0
  145.9315  138.0133  154.9287 O   0  0  0  0  0  0  0  0  0  0  0  0
  145.3446  139.2780  155.2128 C   0  0  0  0  0  0  0  0  0  0  0  0
  146.4300  140.3693  155.2374 C   0  0  0  0  0  0  0  0  0  0  0  0
  153.4374  137.9544  157.7511 C   0  0  0  0  0  0  0  0  0  0  0  0
  154.6324  138.0915  158.7084 C   0  0  0  0  0  0  0  0  0  0  0  0
  154.3060  138.9937  159.7603 O   0  0  0  0  0  0  0  0  0  0  0  0
  152.4164  144.7344  159.0798 H   0  0  0  0  0  0  0  0  0  0  0  0
  152.2282  145.3602  160.7232 H   0  0  0  0  0  0  0  0  0  0  0  0
  150.8426  144.6605  159.8772 H   0  0  0  0  0  0  0  0  0  0  0  0
  153.8108  143.0291  159.3385 H   0  0  0  0  0  0  0  0  0  0  0  0
  154.7388  141.3868  160.9965 H   0  0  0  0  0  0  0  0  0  0  0  0
  153.1132  140.7947  161.2087 H   0  0  0  0  0  0  0  0  0  0  0  0
  154.8574  140.6680  158.7197 H   0  0  0  0  0  0  0  0  0  0  0  0
  151.8889  139.9129  158.8866 H   0  0  0  0  0  0  0  0  0  0  0  0
  152.5774  141.2125  157.9212 H   0  0  0  0  0  0  0  0  0  0  0  0
  151.5782  137.4321  153.5364 H   0  0  0  0  0  0  0  0  0  0  0  0
  149.2376  142.7359  156.3374 H   0  0  0  0  0  0  0  0  0  0  0  0
  148.0042  142.4330  154.1902 H   0  0  0  0  0  0  0  0  0  0  0  0
  148.8454  141.5253  152.9632 H   0  0  0  0  0  0  0  0  0  0  0  0
  145.5068  140.5031  153.0488 H   0  0  0  0  0  0  0  0  0  0  0  0
  148.1748  138.9530  152.5973 H   0  0  0  0  0  0  0  0  0  0  0  0
  148.4668  138.6627  154.2936 H   0  0  0  0  0  0  0  0  0  0  0  0
  145.8124  138.1516  152.8671 H   0  0  0  0  0  0  0  0  0  0  0  0
  146.9326  136.9564  153.4842 H   0  0  0  0  0  0  0  0  0  0  0  0
  144.5710  139.5061  154.4780 H   0  0  0  0  0  0  0  0  0  0  0  0
  144.8501  139.2236  156.1826 H   0  0  0  0  0  0  0  0  0  0  0  0
  147.0968  140.1551  156.0723 H   0  0  0  0  0  0  0  0  0  0  0  0
  145.9812  141.3417  155.4439 H   0  0  0  0  0  0  0  0  0  0  0  0
  152.5953  137.4965  158.2718 H   0  0  0  0  0  0  0  0  0  0  0  0
  153.7046  137.2857  156.9342 H   0  0  0  0  0  0  0  0  0  0  0  0
  154.8815  137.1214  159.1386 H   0  0  0  0  0  0  0  0  0  0  0  0
  155.5187  138.4409  158.1761 H   0  0  0  0  0  0  0  0  0  0  0  0
  1  2  1  0  0  0  0
  1 29  1  0  0  0  0
  1 30  1  0  0  0  0
  1 31  1  0  0  0  0
  2  3  2  0  0  0  0
  2  4  1  0  0  0  0
  4  5  1  0  0  0  0
  4 32  1  0  0  0  0
  5  6  1  0  0  0  0
  5 33  1  0  0  0  0
  5 34  1  0  0  0  0
  6 28  1  0  0  0  0
  6  7  1  0  0  0  0
  6 35  1  0  0  0  0
  7  8  1  0  0  0  0
  7 36  1  0  0  0  0
  7 37  1  0  0  0  0
  8  9  1  0  0  0  0
  8 26  1  0  0  0  0
  9 14  1  0  0  0  0
  9 10  2  0  0  0  0
 10 11  1  0  0  0  0
 11 12  2  0  0  0  0
 11 38  1  0  0  0  0
 12 13  1  0  0  0  0
 13 17  1  0  0  0  0
 13 14  2  0  0  0  0
 14 15  1  0  0  0  0
 15 16  2  0  0  0  0
 16 17  1  0  0  0  0
 16 39  1  0  0  0  0
 17 18  1  0  0  0  0
 18 19  1  0  0  0  0
 18 40  1  0  0  0  0
 18 41  1  0  0  0  0
 19 25  1  0  0  0  0
 19 20  1  0  0  0  0
 19 21  1  0  0  0  0
 20 42  1  0  0  0  0
 21 22  1  0  0  0  0
 21 43  1  0  0  0  0
 21 44  1  0  0  0  0
 22 23  1  0  0  0  0
 22 45  1  0  0  0  0
 22 46  1  0  0  0  0
 23 24  1  0  0  0  0
 24 25  1  0  0  0  0
 24 47  1  0  0  0  0
 24 48  1  0  0  0  0
 25 49  1  0  0  0  0
 25 50  1  0  0  0  0
 26 27  1  0  0  0  0
 26 51  1  0  0  0  0
 26 52  1  0  0  0  0
 27 28  1  0  0  0  0
 27 53  1  0  0  0  0
 27 54  1  0  0  0  0
M  END
> <s_m_source_file>
AV-unprocessed.smi

> <i_m_source_file_index>
180

> <i_lp_mmshare_version>
43012

> <i_f3d_flags>
0

> <s_epik_input>
W0NIM11DKD1PKVtOSF1bQ0gyXVtDQEBIXTFbQ0gyXU4oW0NIMl1bQ0gyXU8xKWMobltjSF1uMiljKGMyMyluW2NIXW4zW0NIMl1DNChbT0hdKVtDSDJdW0NIMl1PW0NIMl1bQ0gyXTQ=

> <s_epik_cmdline>
J2VwaWtfcHl0aG9uJywgJy1waCcsICc3LjAnLCAnLXRuJywgJzgnLCAnLW1hJywgJzIwMCcsICctbWV0YWxfYmluZGluZycsICctaW1hZScsICc8aW5maWxlLm1hZT4nLCAnLW9tYWUnLCAnPG91dGZpbGUubWFlPic=

> <r_lp_tautomer_probability>
1

> <r_epik_Ionization_Penalty>
7.38871e-05

> <r_epik_Ionization_Penalty_Charging>
0

> <r_epik_Ionization_Penalty_Neutral>
7.38871e-05

> <r_epik_State_Penalty>
-0

> <r_epik_Charging_Adjusted_Penalty>
0

> <i_epik_Tot_Q>
0

> <i_epik_Tot_abs_Q>
0

> <r_epik_Metal_State_Penalty>
-0

> <b_epik_Metal_Only>
0

> <s_lp_Force_Field>
OPLS_2005

> <r_lp_Energy>
31.1245

> <b_lp_Chiralities_Consistent>
1

> <s_lp_Variant>
AV-unprocessed.smi:180-1

> <Gold.Version>
5.8.1

> <Gold.Id.Protein>
6NUR|6NUR_protein|mol2

> <Gold.PLP.Fitness>
54.2989

> <Gold.PLP.PLP>
-42.8738

> <Gold.PLP.part.hbond>
-3.5899

> <Gold.PLP.part.metal>
0.0000

> <Gold.PLP.part.buried>
-2.7027

> <Gold.PLP.part.nonpolar>
-36.6780

> <Gold.PLP.part.repulsive>
0.4984

> <Gold.PLP.ligand.clash>
0.0000

> <Gold.PLP.ligand.torsion>
0.5818

> <Gold.PLP.Chemscore.Hbond>
2.3520

> <Gold.PLP.Chemscore.CHOScore>
1.7241

> <Gold.PLP.Chemscore.Metal>
0.0000

> <Gold.Chemscore.Hbonds>
donor molecule, donor type, donor heavy atom, donor atom, acceptor molecule, acceptor atom, score
      L1  H    20    42       P1 10175  0.90
      P1  H  6933  6945       L1     3  0.58
      P1  H  7997  8008       L1     8  0.70
      L1  C    11    38       P1  7949  0.99
      L1  C    16    39       P1  8028  1.00

> <Gold.PLP.Chemscore.Internal.Correction>
0.3603

> <Gold.Rescore>
     Score         DG    S(hbond)    S(metal)    S(lipo)     H(rot)  DE(clash)    DE(int)     intcor
      7.82     -11.23       1.39        0.00      74.91       2.99       0.03       3.38       ----

> <Gold.Chemscore.Fitness>
7.8213

> <Gold.Chemscore.DG>
-11.2266

> <Gold.Chemscore.ZeroCoef>
-5.4800

> <Gold.Chemscore.Hbond>
1.3870

> <Gold.Chemscore.Metal>
0.0000

> <Gold.Chemscore.Lipo>
74.9120

> <Gold.Chemscore.Internal_Hbond>
0.0000

> <Gold.Chemscore.DEClash>
0.0284

> <Gold.Chemscore.DEInternal>
3.3768

> <Gold.Chemscore.Rot>
2.9885

> <Gold.Chemscore.Internal.Correction>
   9.000000E+99

> <Gold.Chemscore.Hbonds>
donor molecule, donor type, donor heavy atom, donor atom, acceptor molecule, acceptor atom, score
      L1  H    20    42       P1 10175  0.77
      P1  H  6933  6945       L1     3  0.58
      P1  H  7997  8008       L1     8  0.02

> <Gold.Chemscore.Hbond.Weighted>
-4.6324

> <Gold.Chemscore.Metal.Weighted>
-0.0000

> <Gold.Chemscore.Lipo.Weighted>
-8.7647

> <Gold.Chemscore.Internal_Hbond.Weighted>
0.0000

> <Gold.Chemscore.DEClash.Weighted>
0.0284

> <Gold.Chemscore.DEInternal.Weighted>
3.3768

> <Gold.Chemscore.Rot.Weighted>
7.6506

> <Gold.Chemscore.Internal.Correction.Weighted>
   9.000000E+99

> <Gold.Protein.RotatedTorsions>
[ 6907 6896 6895 6894 ] final  155.72 input  -60.11 | X-H torsion
[ 7974 7965 7964 7962 ] final   18.66 input  175.53 | X-H torsion
[ 8008 7997 7996 7995 ] final  -64.84 input   59.86 | X-H torsion
[ 10167 10162 10161 10158 ] final  109.99 input  -65.29 | X-H torsion
[ 10718 10713 10712 10709 ] final  143.56 input   66.30 | X-H torsion
[ 10763 10752 10751 10750 ] final   21.18 input  -60.55 | X-H torsion
[ 11005 11000 10999 10996 ] final   18.74 input  -57.11 | X-H torsion

> <Gold.Protein.ActiveResidues>
 VAL166  LYS551  ARG553  GLY616  TRP617  ASP618  TYR619  PRO620  LYS621  CYS622 
 ASP623  PHE694  ASN695  SER759  ASP760  ASP761  ALA762  ILE779  LEU786  VAL792 
 PHE793  MET794  SER795  GLU796  ALA797  LYS798  CYS799  TRP800  GLU811  SER814 

> <Gold.Protein.RotatedAtoms>
  152.0400  133.3973  159.4332 H   0  0  0  0  0  0  0  0  0  0  0  0  # atno 6907 bound_to 6896
  150.6876  134.3425  159.4883 H   0  0  0  0  0  0  0  0  0  0  0  0  # atno 6908 bound_to 6896
  152.1222  134.9196  160.0613 H   0  0  0  0  0  0  0  0  0  0  0  0  # atno 6909 bound_to 6896
  146.2177  139.8424  142.8638 H   0  0  0  0  0  0  0  0  0  0  0  0  # atno 7974 bound_to 7965
  154.4636  140.0945  156.6959 H   0  0  0  0  0  0  0  0  0  0  0  0  # atno 8008 bound_to 7997
  155.4923  140.3471  155.4338 H   0  0  0  0  0  0  0  0  0  0  0  0  # atno 8009 bound_to 7997
  156.0915  140.1398  156.9574 H   0  0  0  0  0  0  0  0  0  0  0  0  # atno 8010 bound_to 7997
  139.6723  144.7124  151.1665 H   0  0  0  0  0  0  0  0  0  0  0  0  # atno 10167 bound_to 10162
  157.3675  131.0974  151.0859 H   0  0  0  0  0  0  0  0  0  0  0  0  # atno 10718 bound_to 10713
  153.1016  135.6674  153.9662 H   0  0  0  0  0  0  0  0  0  0  0  0  # atno 10763 bound_to 10752
  153.9231  135.3012  155.3448 H   0  0  0  0  0  0  0  0  0  0  0  0  # atno 10764 bound_to 10752
  154.7437  135.5067  153.9242 H   0  0  0  0  0  0  0  0  0  0  0  0  # atno 10765 bound_to 10752
  140.4214  134.1515  155.7673 H   0  0  0  0  0  0  0  0  0  0  0  0  # atno 11005 bound_to 11000
  145.2885  141.0160  143.3677 LP  0  0  0  0  0  0  0  0  0  0  0  0  # atno 17320 bound_to 7965
  144.9095  139.4546  143.6593 LP  0  0  0  0  0  0  0  0  0  0  0  0  # atno 17321 bound_to 7965
  140.7623  143.5825  150.8880 LP  0  0  0  0  0  0  0  0  0  0  0  0  # atno 17342 bound_to 10162
  139.9491  143.6293  152.3034 LP  0  0  0  0  0  0  0  0  0  0  0  0  # atno 17343 bound_to 10162
  157.1975  130.6380  149.5726 LP  0  0  0  0  0  0  0  0  0  0  0  0  # atno 17370 bound_to 10713
  155.9749  130.4702  150.6420 LP  0  0  0  0  0  0  0  0  0  0  0  0  # atno 17371 bound_to 10713
  141.1782  133.8469  157.1348 LP  0  0  0  0  0  0  0  0  0  0  0  0  # atno 17394 bound_to 11000
  140.0197  134.9951  157.0567 LP  0  0  0  0  0  0  0  0  0  0  0  0  # atno 17395 bound_to 11000

$$$$
