AV-unprocessed.smi:110|AV-procd|sdf|1070|dock9
  -GOLD-   2262018153D 1   1.00000     0.00000
 Structure written by MMmdl.
 46 50  0  0  0  0  0  0  0  0  1 V2000
  147.4316  135.8905  154.2162 O   0  0  0  0  0  0  0  0  0  0  0  0
  146.8536  137.0997  154.6598 C   0  0  0  0  0  0  0  0  0  0  0  0
  147.5570  138.2963  153.9955 C   0  0  2  0  0  0  0  0  0  0  0  0
  148.7592  138.6212  154.6766 O   0  0  0  0  0  0  0  0  0  0  0  0
  149.1446  139.9053  154.3071 C   0  0  2  0  0  0  0  0  0  0  0  0
  149.8452  140.5322  155.4678 N   0  0  0  0  0  0  0  0  0  0  0  0
  149.5341  141.7157  156.0968 C   0  0  0  0  0  0  0  0  0  0  0  0
  150.3088  142.0363  157.0972 N   0  0  0  0  0  0  0  0  0  0  0  0
  151.2365  141.0022  157.1602 C   0  0  0  0  0  0  0  0  0  0  0  0
  152.3485  140.7079  158.0030 C   0  0  0  0  0  0  0  0  0  0  0  0
  152.7623  141.5149  159.0142 N   0  0  0  0  0  0  0  0  0  0  0  0
  153.3094  140.9111  160.2393 C   0  0  0  0  0  0  0  0  0  0  0  0
  153.1930  141.9462  161.3721 C   0  0  0  0  0  0  0  0  0  0  0  0
  152.6745  143.1284  160.6231 C   0  0  0  0  0  0  0  0  0  0  0  0
  152.4321  144.4155  161.1337 C   0  0  0  0  0  0  0  0  0  0  0  0
  151.9525  145.4031  160.2479 C   0  0  0  0  0  0  0  0  0  0  0  0
  151.7329  145.0936  158.8860 C   0  0  0  0  0  0  0  0  0  0  0  0
  151.9843  143.7932  158.3953 C   0  0  0  0  0  0  0  0  0  0  0  0
  152.4498  142.8035  159.2882 C   0  0  0  0  0  0  0  0  0  0  0  0
  153.0355  139.5646  157.7460 N   0  0  0  0  0  0  0  0  0  0  0  0
  152.6643  138.7606  156.7469 C   0  0  0  0  0  0  0  0  0  0  0  0
  151.6520  138.9080  155.8922 N   0  0  0  0  0  0  0  0  0  0  0  0
  150.9530  140.0529  156.1366 C   0  0  0  0  0  0  0  0  0  0  0  0
  147.8730  140.6865  153.9286 C   0  0  1  0  0  0  0  0  0  0  0  0
  147.9528  141.1741  152.6038 O   0  0  0  0  0  0  0  0  0  0  0  0
  146.7788  139.6220  154.0094 C   0  0  2  0  0  0  0  0  0  0  0  0
  146.0257  139.7738  155.1983 O   0  0  0  0  0  0  0  0  0  0  0  0
  147.8022  138.0595  152.9581 H   0  0  0  0  0  0  0  0  0  0  0  0
  149.8888  139.8644  153.5102 H   0  0  0  0  0  0  0  0  0  0  0  0
  147.6966  141.5193  154.6118 H   0  0  0  0  0  0  0  0  0  0  0  0
  146.0785  139.6757  153.1744 H   0  0  0  0  0  0  0  0  0  0  0  0
  148.1334  136.0942  153.6173 H   0  0  0  0  0  0  0  0  0  0  0  0
  145.8006  137.0779  154.3780 H   0  0  0  0  0  0  0  0  0  0  0  0
  146.9004  137.1648  155.7475 H   0  0  0  0  0  0  0  0  0  0  0  0
  148.7046  142.3370  155.7919 H   0  0  0  0  0  0  0  0  0  0  0  0
  152.7790  139.9930  160.4954 H   0  0  0  0  0  0  0  0  0  0  0  0
  154.3570  140.6575  160.0752 H   0  0  0  0  0  0  0  0  0  0  0  0
  152.4791  141.6377  162.1363 H   0  0  0  0  0  0  0  0  0  0  0  0
  154.1549  142.1619  161.8378 H   0  0  0  0  0  0  0  0  0  0  0  0
  152.6110  144.6435  162.1742 H   0  0  0  0  0  0  0  0  0  0  0  0
  151.7581  146.4016  160.6108 H   0  0  0  0  0  0  0  0  0  0  0  0
  151.3748  145.8589  158.2133 H   0  0  0  0  0  0  0  0  0  0  0  0
  151.8275  143.5767  157.3493 H   0  0  0  0  0  0  0  0  0  0  0  0
  153.2646  137.8731  156.6120 H   0  0  0  0  0  0  0  0  0  0  0  0
  148.7064  140.7853  152.1869 H   0  0  0  0  0  0  0  0  0  0  0  0
  145.5543  140.5913  155.1542 H   0  0  0  0  0  0  0  0  0  0  0  0
  1  2  1  0  0  0  0
  1 32  1  0  0  0  0
  2  3  1  0  0  0  0
  2 33  1  0  0  0  0
  2 34  1  0  0  0  0
  3 28  1  0  0  0  0
  3 26  1  0  0  0  0
  3  4  1  0  0  0  0
  4  5  1  0  0  0  0
  5 29  1  0  0  0  0
  5  6  1  0  0  0  0
  5 24  1  0  0  0  0
  6 23  1  0  0  0  0
  6  7  1  0  0  0  0
  7  8  2  0  0  0  0
  7 35  1  0  0  0  0
  8  9  1  0  0  0  0
  9 23  2  0  0  0  0
  9 10  1  0  0  0  0
 10 11  1  0  0  0  0
 10 20  2  0  0  0  0
 11 19  1  0  0  0  0
 11 12  1  0  0  0  0
 12 13  1  0  0  0  0
 12 36  1  0  0  0  0
 12 37  1  0  0  0  0
 13 14  1  0  0  0  0
 13 38  1  0  0  0  0
 13 39  1  0  0  0  0
 14 19  2  0  0  0  0
 14 15  1  0  0  0  0
 15 16  2  0  0  0  0
 15 40  1  0  0  0  0
 16 17  1  0  0  0  0
 16 41  1  0  0  0  0
 17 18  2  0  0  0  0
 17 42  1  0  0  0  0
 18 19  1  0  0  0  0
 18 43  1  0  0  0  0
 20 21  1  0  0  0  0
 21 22  2  0  0  0  0
 21 44  1  0  0  0  0
 22 23  1  0  0  0  0
 24 30  1  0  0  0  0
 24 25  1  0  0  0  0
 24 26  1  0  0  0  0
 25 45  1  0  0  0  0
 26 31  1  0  0  0  0
 26 27  1  0  0  0  0
 27 46  1  0  0  0  0
M  END
> <s_m_source_file>
AV-unprocessed.smi

> <i_m_source_file_index>
110

> <i_lp_mmshare_version>
43012

> <i_f3d_flags>
0

> <s_epik_input>
W09IXVtDSDJdW0NASF0xT1tDQEhdKFtDQEhdKFtPSF0pW0NAQEhdMVtPSF0pbihbY0hdbjIpYyhjMjMpbltjSF1uYzNOKFtDSDJdW0NIMl00KWMoYzQ1KVtjSF1bY0hdW2NIXVtjSF01

> <s_epik_cmdline>
J2VwaWtfcHl0aG9uJywgJy1waCcsICc3LjAnLCAnLXRuJywgJzgnLCAnLW1hJywgJzIwMCcsICctbWV0YWxfYmluZGluZycsICctaW1hZScsICc8aW5maWxlLm1hZT4nLCAnLW9tYWUnLCAnPG91dGZpbGUubWFlPic=

> <r_lp_tautomer_probability>
1

> <r_epik_Ionization_Penalty>
0.00068475

> <r_epik_Ionization_Penalty_Charging>
0

> <r_epik_Ionization_Penalty_Neutral>
0.00068475

> <r_epik_State_Penalty>
0.000417442

> <r_epik_Charging_Adjusted_Penalty>
0.000417442

> <i_epik_Tot_Q>
0

> <i_epik_Tot_abs_Q>
0

> <r_epik_Metal_State_Penalty>
-0

> <b_epik_Metal_Only>
0

> <s_epik_Chemistry_Notes>
This compound contains an acetal/aminal-like group ( X-CH(R)-Y where X, Y are N, S, or O) that may be acid/base labile, releasing an aldehyde.

> <s_lp_Force_Field>
OPLS_2005

> <r_lp_Energy>
57.5739

> <b_lp_Chiralities_Consistent>
1

> <s_lp_Variant>
AV-unprocessed.smi:110-8

> <Gold.Version>
5.8.1

> <Gold.Id.Protein>
6NUR|6NUR_protein|mol2

> <Gold.PLP.Fitness>
58.5993

> <Gold.PLP.PLP>
-48.3485

> <Gold.PLP.part.hbond>
-3.7069

> <Gold.PLP.part.metal>
0.0000

> <Gold.PLP.part.buried>
-0.8800

> <Gold.PLP.part.nonpolar>
-43.7998

> <Gold.PLP.part.repulsive>
0.2465

> <Gold.PLP.ligand.clash>
0.0000

> <Gold.PLP.ligand.torsion>
0.5443

> <Gold.PLP.Chemscore.Hbond>
2.9000

> <Gold.PLP.Chemscore.CHOScore>
0.8456

> <Gold.PLP.Chemscore.Metal>
0.0000

> <Gold.Chemscore.Hbonds>
donor molecule, donor type, donor heavy atom, donor atom, acceptor molecule, acceptor atom, score
      L1  H     1    32       P1  7948  1.00
      L1  H    25    45       P1  7957  1.00
      P1  H  7997  8009       L1    20  0.90
      L1  C     7    35       P1  8028  0.85

> <Gold.PLP.Chemscore.Internal.Correction>
0.1025

> <Gold.Rescore>
     Score         DG    S(hbond)    S(metal)    S(lipo)     H(rot)  DE(clash)    DE(int)     intcor
     14.20     -17.90       2.33        0.00     113.62       3.38       1.62       2.08       ----

> <Gold.Chemscore.Fitness>
14.1988

> <Gold.Chemscore.DG>
-17.9041

> <Gold.Chemscore.ZeroCoef>
-5.4800

> <Gold.Chemscore.Hbond>
2.3331

> <Gold.Chemscore.Metal>
0.0000

> <Gold.Chemscore.Lipo>
113.6210

> <Gold.Chemscore.Internal_Hbond>
0.0000

> <Gold.Chemscore.DEClash>
1.6214

> <Gold.Chemscore.DEInternal>
2.0839

> <Gold.Chemscore.Rot>
3.3837

> <Gold.Chemscore.Internal.Correction>
   9.000000E+99

> <Gold.Chemscore.Hbonds>
donor molecule, donor type, donor heavy atom, donor atom, acceptor molecule, acceptor atom, score
      L1  H     1    32       P1  7948  0.97
      L1  H    25    45       P1  7957  0.94
      P1  H  7997  8009       L1    20  0.11

> <Gold.Chemscore.Hbond.Weighted>
-7.7927

> <Gold.Chemscore.Metal.Weighted>
-0.0000

> <Gold.Chemscore.Lipo.Weighted>
-13.2937

> <Gold.Chemscore.Internal_Hbond.Weighted>
0.0000

> <Gold.Chemscore.DEClash.Weighted>
1.6214

> <Gold.Chemscore.DEInternal.Weighted>
2.0839

> <Gold.Chemscore.Rot.Weighted>
8.6622

> <Gold.Chemscore.Internal.Correction.Weighted>
   9.000000E+99

> <Gold.Protein.RotatedTorsions>
[ 6907 6896 6895 6894 ] final  -49.63 input  -60.11 | X-H torsion
[ 7974 7965 7964 7962 ] final   48.88 input  175.53 | X-H torsion
[ 8008 7997 7996 7995 ] final  147.85 input   59.86 | X-H torsion
[ 10167 10162 10161 10158 ] final   -9.81 input  -65.29 | X-H torsion
[ 10718 10713 10712 10709 ] final   85.47 input   66.30 | X-H torsion
[ 10763 10752 10751 10750 ] final -115.61 input  -60.55 | X-H torsion
[ 11005 11000 10999 10996 ] final  -50.88 input  -57.11 | X-H torsion

> <Gold.Protein.ActiveResidues>
 VAL166  LYS551  ARG553  GLY616  TRP617  ASP618  TYR619  PRO620  LYS621  CYS622 
 ASP623  PHE694  ASN695  SER759  ASP760  ASP761  ALA762  ILE779  LEU786  VAL792 
 PHE793  MET794  SER795  GLU796  ALA797  LYS798  CYS799  TRP800  GLU811  SER814 

> <Gold.Protein.RotatedAtoms>
  150.8786  134.8173  159.7207 H   0  0  0  0  0  0  0  0  0  0  0  0  # atno 6907 bound_to 6896
  152.4763  134.4832  159.9682 H   0  0  0  0  0  0  0  0  0  0  0  0  # atno 6908 bound_to 6896
  151.4910  133.3486  159.2889 H   0  0  0  0  0  0  0  0  0  0  0  0  # atno 6909 bound_to 6896
  146.0162  139.4599  142.9925 H   0  0  0  0  0  0  0  0  0  0  0  0  # atno 7974 bound_to 7965
  156.2811  140.2144  156.5603 H   0  0  0  0  0  0  0  0  0  0  0  0  # atno 8008 bound_to 7997
  154.7218  140.0503  157.0669 H   0  0  0  0  0  0  0  0  0  0  0  0  # atno 8009 bound_to 7997
  155.0468  140.3152  155.4708 H   0  0  0  0  0  0  0  0  0  0  0  0  # atno 8010 bound_to 7997
  140.7097  143.5817  150.8985 H   0  0  0  0  0  0  0  0  0  0  0  0  # atno 10167 bound_to 10162
  157.6915  131.0176  150.2827 H   0  0  0  0  0  0  0  0  0  0  0  0  # atno 10718 bound_to 10713
  154.8488  135.4375  154.1690 H   0  0  0  0  0  0  0  0  0  0  0  0  # atno 10763 bound_to 10752
  153.2808  135.6953  153.7393 H   0  0  0  0  0  0  0  0  0  0  0  0  # atno 10764 bound_to 10752
  153.6598  135.3437  155.3099 H   0  0  0  0  0  0  0  0  0  0  0  0  # atno 10765 bound_to 10752
  141.0840  133.6646  156.3795 H   0  0  0  0  0  0  0  0  0  0  0  0  # atno 11005 bound_to 11000
  145.7264  141.0057  143.1375 LP  0  0  0  0  0  0  0  0  0  0  0  0  # atno 17320 bound_to 7965
  144.6972  139.8932  143.7454 LP  0  0  0  0  0  0  0  0  0  0  0  0  # atno 17321 bound_to 7965
  139.9543  143.6236  152.3020 LP  0  0  0  0  0  0  0  0  0  0  0  0  # atno 17342 bound_to 10162
  139.6766  144.7658  151.1685 LP  0  0  0  0  0  0  0  0  0  0  0  0  # atno 17343 bound_to 10162
  156.3371  130.3809  149.7441 LP  0  0  0  0  0  0  0  0  0  0  0  0  # atno 17370 bound_to 10713
  156.4962  130.8107  151.3114 LP  0  0  0  0  0  0  0  0  0  0  0  0  # atno 17371 bound_to 10713
  140.5404  134.6125  157.5378 LP  0  0  0  0  0  0  0  0  0  0  0  0  # atno 17394 bound_to 11000
  139.9656  134.7378  156.0145 LP  0  0  0  0  0  0  0  0  0  0  0  0  # atno 17395 bound_to 11000

$$$$
