AV-unprocessed.smi:3187|AV-procd|sdf|12182|dock8
  -GOLD-   2272018 23D 1   1.00000     0.00000
 Structure written by MMmdl.
 42 43  0  0  0  0  0  0  0  0  3 V2000
  153.0445  140.6811  159.6378 C   0  0  0  0  0  0  0  0  0  0  0  0
  152.5894  142.1122  159.8670 C   0  0  0  0  0  0  0  0  0  0  0  0
  152.6493  142.6778  161.0886 C   0  0  0  0  0  0  0  0  0  0  0  0
  152.2569  144.1109  161.3973 C   0  0  0  0  0  0  0  0  0  0  0  0
  151.5733  144.8131  160.2135 C   0  0  0  0  0  0  0  0  0  0  0  0
  152.2141  144.4113  158.8729 C   0  0  2  0  0  0  0  0  0  0  0  0
  151.7171  145.2947  157.7161 C   0  0  0  0  0  0  0  0  0  0  0  0
  152.1062  142.8745  158.6303 C   0  0  2  0  0  0  0  0  0  0  0  0
  150.6941  142.3803  158.2226 C   0  0  0  0  0  0  0  0  0  0  0  0
  150.4819  142.4215  156.7615 N   0  3  0  0  0  0  0  0  0  0  0  0
  149.6831  141.2973  156.2357 C   0  0  0  0  0  0  0  0  0  0  0  0
  149.3642  141.4957  154.7470 C   0  0  0  0  0  0  0  0  0  0  0  0
  147.9223  141.5845  154.5036 N   0  0  0  0  0  0  0  0  0  0  0  0
  147.0338  142.4512  155.0876 C   0  0  0  0  0  0  0  0  0  0  0  0
  145.8028  142.1675  154.5541 C   0  0  0  0  0  0  0  0  0  0  0  0
  145.9914  141.1402  153.6684 N   0  3  0  0  0  0  0  0  0  0  0  0
  147.2809  140.7867  153.6392 C   0  0  0  0  0  0  0  0  0  0  0  0
  153.8451  140.6531  158.8983 H   0  0  0  0  0  0  0  0  0  0  0  0
  152.2272  140.0551  159.2825 H   0  0  0  0  0  0  0  0  0  0  0  0
  153.4252  140.2355  160.5576 H   0  0  0  0  0  0  0  0  0  0  0  0
  153.0232  142.1050  161.9250 H   0  0  0  0  0  0  0  0  0  0  0  0
  151.6066  144.1300  162.2722 H   0  0  0  0  0  0  0  0  0  0  0  0
  153.1662  144.6479  161.6691 H   0  0  0  0  0  0  0  0  0  0  0  0
  150.5112  144.5687  160.2061 H   0  0  0  0  0  0  0  0  0  0  0  0
  151.6312  145.8929  160.3565 H   0  0  0  0  0  0  0  0  0  0  0  0
  153.2796  144.6307  158.9639 H   0  0  0  0  0  0  0  0  0  0  0  0
  150.6326  145.2588  157.6144 H   0  0  0  0  0  0  0  0  0  0  0  0
  152.1631  144.9936  156.7680 H   0  0  0  0  0  0  0  0  0  0  0  0
  151.9877  146.3375  157.8848 H   0  0  0  0  0  0  0  0  0  0  0  0
  152.7993  142.6226  157.8259 H   0  0  0  0  0  0  0  0  0  0  0  0
  150.5427  141.3469  158.5325 H   0  0  0  0  0  0  0  0  0  0  0  0
  149.9231  142.9638  158.7254 H   0  0  0  0  0  0  0  0  0  0  0  0
  150.0051  143.2837  156.5385 H   0  0  0  0  0  0  0  0  0  0  0  0
  150.2314  140.3655  156.3817 H   0  0  0  0  0  0  0  0  0  0  0  0
  148.7571  141.2205  156.8074 H   0  0  0  0  0  0  0  0  0  0  0  0
  149.8207  142.4141  154.3746 H   0  0  0  0  0  0  0  0  0  0  0  0
  149.7623  140.6736  154.1501 H   0  0  0  0  0  0  0  0  0  0  0  0
  147.3338  143.1880  155.8194 H   0  0  0  0  0  0  0  0  0  0  0  0
  144.8327  142.6085  154.7334 H   0  0  0  0  0  0  0  0  0  0  0  0
  147.7157  140.0101  153.0348 H   0  0  0  0  0  0  0  0  0  0  0  0
  151.3840  142.4254  156.3069 H   0  0  0  0  0  0  0  0  0  0  0  0
  145.2618  140.7106  153.1126 H   0  0  0  0  0  0  0  0  0  0  0  0
  1  2  1  0  0  0  0
  1 18  1  0  0  0  0
  1 19  1  0  0  0  0
  1 20  1  0  0  0  0
  2  8  1  0  0  0  0
  2  3  2  0  0  0  0
  3  4  1  0  0  0  0
  3 21  1  0  0  0  0
  4  5  1  0  0  0  0
  4 22  1  0  0  0  0
  4 23  1  0  0  0  0
  5  6  1  0  0  0  0
  5 24  1  0  0  0  0
  5 25  1  0  0  0  0
  6  7  1  0  0  0  0
  6  8  1  0  0  0  0
  6 26  1  0  0  0  0
  7 27  1  0  0  0  0
  7 28  1  0  0  0  0
  7 29  1  0  0  0  0
  8  9  1  0  0  0  0
  8 30  1  0  0  0  0
  9 10  1  0  0  0  0
  9 31  1  0  0  0  0
  9 32  1  0  0  0  0
 10 11  1  0  0  0  0
 10 33  1  0  0  0  0
 10 41  1  0  0  0  0
 11 12  1  0  0  0  0
 11 34  1  0  0  0  0
 11 35  1  0  0  0  0
 12 13  1  0  0  0  0
 12 36  1  0  0  0  0
 12 37  1  0  0  0  0
 13 17  1  0  0  0  0
 13 14  1  0  0  0  0
 14 15  2  0  0  0  0
 14 38  1  0  0  0  0
 15 16  1  0  0  0  0
 15 39  1  0  0  0  0
 16 17  2  0  0  0  0
 16 42  1  0  0  0  0
 17 40  1  0  0  0  0
M  CHG  1  10   1
M  CHG  1  16   1
M  END
> <s_m_source_file>
AV-unprocessed.smi

> <i_m_source_file_index>
3187

> <i_lp_mmshare_version>
43012

> <i_f3d_flags>
0

> <s_epik_input>
W0NIM11DMT1bQ0hdW0NIMl1bQ0gyXVtDQEBIXShbQ0gzXSlbQ0BIXTFbQ0gyXVtOSF1bQ0gyXVtDSDJdbjJbY0hdW2NIXW5bY0hdMg==

> <s_epik_cmdline>
J2VwaWtfcHl0aG9uJywgJy1waCcsICc3LjAnLCAnLXRuJywgJzgnLCAnLW1hJywgJzIwMCcsICctbWV0YWxfYmluZGluZycsICctaW1hZScsICc8aW5maWxlLm1hZT4nLCAnLW9tYWUnLCAnPG91dGZpbGUubWFlPic=

> <r_lp_tautomer_probability>
1

> <r_epik_Ionization_Penalty>
1.51066

> <r_epik_Ionization_Penalty_Charging>
0.0026721

> <r_epik_Ionization_Penalty_Neutral>
1.50798

> <r_epik_State_Penalty>
1.12593

> <r_epik_Charging_Adjusted_Penalty>
1.12861

> <i_epik_Tot_Q>
2

> <i_epik_Tot_abs_Q>
2

> <r_epik_Metal_State_Penalty>
5.12155

> <b_epik_Metal_Only>
0

> <s_lp_Force_Field>
OPLS_2005

> <r_lp_Energy>
26.0631

> <b_lp_Chiralities_Consistent>
1

> <s_lp_Variant>
AV-unprocessed.smi:3187-8

> <Gold.Version>
5.8.1

> <Gold.Id.Protein>
6NUR|6NUR_protein|mol2

> <Gold.PLP.Fitness>
59.1561

> <Gold.PLP.PLP>
-44.0257

> <Gold.PLP.part.hbond>
-2.0000

> <Gold.PLP.part.metal>
0.0000

> <Gold.PLP.part.buried>
-2.2477

> <Gold.PLP.part.nonpolar>
-39.5496

> <Gold.PLP.part.repulsive>
0.0664

> <Gold.PLP.ligand.clash>
0.0000

> <Gold.PLP.ligand.torsion>
1.0554

> <Gold.PLP.Chemscore.Hbond>
3.9825

> <Gold.PLP.Chemscore.CHOScore>
1.7514

> <Gold.PLP.Chemscore.Metal>
0.0000

> <Gold.Chemscore.Hbonds>
donor molecule, donor type, donor heavy atom, donor atom, acceptor molecule, acceptor atom, score
      L1  H    10    33       P1  8028  2.00
      L1  H    16    42       P1 10175  2.00
      L1  C    14    38       P1  8028  0.59
      L1  C    17    40       P1  7957  0.69

> <Gold.PLP.Chemscore.Internal.Correction>
0.0396

> <Gold.Rescore>
     Score         DG    S(hbond)    S(metal)    S(lipo)     H(rot)  DE(clash)    DE(int)     intcor
     18.54     -21.32       1.93        0.00     123.49       1.97       1.73       1.05       ----

> <Gold.Chemscore.Fitness>
18.5379

> <Gold.Chemscore.DG>
-21.3226

> <Gold.Chemscore.ZeroCoef>
-5.4800

> <Gold.Chemscore.Hbond>
1.9298

> <Gold.Chemscore.Metal>
0.0000

> <Gold.Chemscore.Lipo>
123.4925

> <Gold.Chemscore.Internal_Hbond>
0.0000

> <Gold.Chemscore.DEClash>
1.7329

> <Gold.Chemscore.DEInternal>
1.0519

> <Gold.Chemscore.Rot>
1.9732

> <Gold.Chemscore.Internal.Correction>
   9.000000E+99

> <Gold.Chemscore.Hbonds>
donor molecule, donor type, donor heavy atom, donor atom, acceptor molecule, acceptor atom, score
      L1  H    10    33       P1  8028  0.94
      L1  H    16    42       P1 10175  0.74

> <Gold.Chemscore.Hbond.Weighted>
-6.4454

> <Gold.Chemscore.Metal.Weighted>
-0.0000

> <Gold.Chemscore.Lipo.Weighted>
-14.4486

> <Gold.Chemscore.Internal_Hbond.Weighted>
0.0000

> <Gold.Chemscore.DEClash.Weighted>
1.7329

> <Gold.Chemscore.DEInternal.Weighted>
1.0519

> <Gold.Chemscore.Rot.Weighted>
5.0514

> <Gold.Chemscore.Internal.Correction.Weighted>
   9.000000E+99

> <Gold.Protein.RotatedTorsions>
[ 6907 6896 6895 6894 ] final  -21.73 input  -60.11 | X-H torsion
[ 7974 7965 7964 7962 ] final  101.85 input  175.53 | X-H torsion
[ 8008 7997 7996 7995 ] final  -66.53 input   59.86 | X-H torsion
[ 10167 10162 10161 10158 ] final -119.89 input  -65.29 | X-H torsion
[ 10718 10713 10712 10709 ] final  159.67 input   66.30 | X-H torsion
[ 10763 10752 10751 10750 ] final   -8.70 input  -60.55 | X-H torsion
[ 11005 11000 10999 10996 ] final  -93.89 input  -57.11 | X-H torsion

> <Gold.Protein.ActiveResidues>
 VAL166  LYS551  ARG553  GLY616  TRP617  ASP618  TYR619  PRO620  LYS621  CYS622 
 ASP623  PHE694  ASN695  SER759  ASP760  ASP761  ALA762  ILE779  LEU786  VAL792 
 PHE793  MET794  SER795  GLU796  ALA797  LYS798  CYS799  TRP800  GLU811  SER814 

> <Gold.Protein.RotatedAtoms>
  151.2291  135.0547  159.8980 H   0  0  0  0  0  0  0  0  0  0  0  0  # atno 6907 bound_to 6896
  152.5407  134.0557  159.8140 H   0  0  0  0  0  0  0  0  0  0  0  0  # atno 6908 bound_to 6896
  151.0734  133.5399  159.2657 H   0  0  0  0  0  0  0  0  0  0  0  0  # atno 6909 bound_to 6896
  145.3669  139.2406  143.3476 H   0  0  0  0  0  0  0  0  0  0  0  0  # atno 7974 bound_to 7965
  154.4740  140.0911  156.7217 H   0  0  0  0  0  0  0  0  0  0  0  0  # atno 8008 bound_to 7997
  155.4645  140.3462  155.4299 H   0  0  0  0  0  0  0  0  0  0  0  0  # atno 8009 bound_to 7997
  156.1087  140.1442  156.9357 H   0  0  0  0  0  0  0  0  0  0  0  0  # atno 8010 bound_to 7997
  140.0418  143.5146  152.2126 H   0  0  0  0  0  0  0  0  0  0  0  0  # atno 10167 bound_to 10162
  157.1610  131.0587  151.2232 H   0  0  0  0  0  0  0  0  0  0  0  0  # atno 10718 bound_to 10713
  153.4443  135.7014  153.6149 H   0  0  0  0  0  0  0  0  0  0  0  0  # atno 10763 bound_to 10752
  153.4511  135.3758  155.2284 H   0  0  0  0  0  0  0  0  0  0  0  0  # atno 10764 bound_to 10752
  154.8728  135.3997  154.3846 H   0  0  0  0  0  0  0  0  0  0  0  0  # atno 10765 bound_to 10752
  141.1485  133.7918  157.0222 H   0  0  0  0  0  0  0  0  0  0  0  0  # atno 11005 bound_to 11000
  146.2903  140.4313  142.8742 LP  0  0  0  0  0  0  0  0  0  0  0  0  # atno 17320 bound_to 7965
  144.8605  140.7133  143.6110 LP  0  0  0  0  0  0  0  0  0  0  0  0  # atno 17321 bound_to 7965
  139.6009  144.7582  151.3175 LP  0  0  0  0  0  0  0  0  0  0  0  0  # atno 17342 bound_to 10162
  140.7256  143.7011  150.7844 LP  0  0  0  0  0  0  0  0  0  0  0  0  # atno 17343 bound_to 10162
  157.4132  130.7397  149.6855 LP  0  0  0  0  0  0  0  0  0  0  0  0  # atno 17370 bound_to 10713
  155.9754  130.4090  150.3854 LP  0  0  0  0  0  0  0  0  0  0  0  0  # atno 17371 bound_to 10713
  140.0808  134.9649  157.1621 LP  0  0  0  0  0  0  0  0  0  0  0  0  # atno 17394 bound_to 11000
  140.3579  134.2526  155.7190 LP  0  0  0  0  0  0  0  0  0  0  0  0  # atno 17395 bound_to 11000

$$$$
