AV-unprocessed.smi:99|AV-procd|sdf|889|dock2
  -GOLD-   2262017373D 1   1.00000     0.00000
 Structure written by MMmdl.
 52 55  0  0  0  0  0  0  0  0  2 V2000
  144.0744  134.6544  156.3611 O   0  0  0  0  0  0  0  0  0  0  0  0
  144.6564  135.5048  155.6842 C   0  0  0  0  0  0  0  0  0  0  0  0
  145.4825  136.4340  156.2034 O   0  0  0  0  0  0  0  0  0  0  0  0
  145.6811  136.5012  157.6055 C   0  0  0  0  0  0  0  0  0  0  0  0
  146.8278  137.4854  157.9117 C   0  0  2  0  0  0  0  0  0  0  0  0
  147.6399  137.6015  156.7513 O   0  0  0  0  0  0  0  0  0  0  0  0
  148.6276  136.6146  156.7613 C   0  0  1  0  0  0  0  0  0  0  0  0
  149.9112  137.2335  156.2490 N   0  0  0  0  0  0  0  0  0  0  0  0
  150.3955  138.3950  156.8255 C   0  0  0  0  0  0  0  0  0  0  0  0
  151.5342  138.9733  156.3919 C   0  0  0  0  0  0  0  0  0  0  0  0
  152.2729  138.3623  155.2904 C   0  0  0  0  0  0  0  0  0  0  0  0
  153.3056  138.9001  154.8957 O   0  0  0  0  0  0  0  0  0  0  0  0
  151.7798  137.2122  154.7460 N   0  5  0  0  0  0  0  0  0  0  0  0
  150.6313  136.6202  155.1873 C   0  0  0  0  0  0  0  0  0  0  0  0
  150.1927  135.5716  154.7148 O   0  0  0  0  0  0  0  0  0  0  0  0
  148.7463  136.0703  158.2034 C   0  0  1  0  0  0  0  0  0  0  0  0
  150.0552  136.1041  158.7423 O   0  0  0  0  0  0  0  0  0  0  0  0
  147.8178  136.9987  158.9777 C   0  0  2  0  0  0  0  0  0  0  0  0
  147.1335  136.3193  160.0239 O   0  0  0  0  0  0  0  0  0  0  0  0
  146.1724  136.9331  160.7440 C   0  0  0  0  0  0  0  0  0  0  0  0
  145.9692  138.1484  160.7225 O   0  0  0  0  0  0  0  0  0  0  0  0
  145.3749  135.9793  161.5680 C   0  0  0  0  0  0  0  0  0  0  0  0
  144.1645  136.4143  162.1569 C   0  0  0  0  0  0  0  0  0  0  0  0
  143.3888  135.5338  162.9357 C   0  0  0  0  0  0  0  0  0  0  0  0
  143.8135  134.2075  163.1352 C   0  0  0  0  0  0  0  0  0  0  0  0
  145.0159  133.7624  162.5556 C   0  0  0  0  0  0  0  0  0  0  0  0
  145.7935  134.6414  161.7769 C   0  0  0  0  0  0  0  0  0  0  0  0
  144.5191  135.6123  154.2030 C   0  0  0  0  0  0  0  0  0  0  0  0
  145.5704  136.1843  153.4490 C   0  0  0  0  0  0  0  0  0  0  0  0
  145.4691  136.2992  152.0488 C   0  0  0  0  0  0  0  0  0  0  0  0
  144.3148  135.8440  151.3855 C   0  0  0  0  0  0  0  0  0  0  0  0
  143.2617  135.2734  152.1241 C   0  0  0  0  0  0  0  0  0  0  0  0
  143.3616  135.1570  153.5243 C   0  0  0  0  0  0  0  0  0  0  0  0
  144.7541  136.8470  158.0644 H   0  0  0  0  0  0  0  0  0  0  0  0
  145.8961  135.5108  158.0091 H   0  0  0  0  0  0  0  0  0  0  0  0
  146.4155  138.4560  158.1891 H   0  0  0  0  0  0  0  0  0  0  0  0
  148.3308  135.8459  156.0473 H   0  0  0  0  0  0  0  0  0  0  0  0
  149.8573  138.8493  157.6442 H   0  0  0  0  0  0  0  0  0  0  0  0
  151.8986  139.8785  156.8549 H   0  0  0  0  0  0  0  0  0  0  0  0
  148.3681  135.0470  158.2103 H   0  0  0  0  0  0  0  0  0  0  0  0
  150.4370  136.9467  158.5484 H   0  0  0  0  0  0  0  0  0  0  0  0
  148.3711  137.8643  159.3467 H   0  0  0  0  0  0  0  0  0  0  0  0
  143.8172  137.4278  162.0171 H   0  0  0  0  0  0  0  0  0  0  0  0
  142.4658  135.8769  163.3797 H   0  0  0  0  0  0  0  0  0  0  0  0
  143.2179  133.5322  163.7314 H   0  0  0  0  0  0  0  0  0  0  0  0
  145.3431  132.7444  162.7073 H   0  0  0  0  0  0  0  0  0  0  0  0
  146.7104  134.2659  161.3467 H   0  0  0  0  0  0  0  0  0  0  0  0
  146.4663  136.5415  153.9364 H   0  0  0  0  0  0  0  0  0  0  0  0
  146.2785  136.7376  151.4838 H   0  0  0  0  0  0  0  0  0  0  0  0
  144.2373  135.9326  150.3120 H   0  0  0  0  0  0  0  0  0  0  0  0
  142.3747  134.9243  151.6162 H   0  0  0  0  0  0  0  0  0  0  0  0
  142.5351  134.7138  154.0605 H   0  0  0  0  0  0  0  0  0  0  0  0
  1  2  2  0  0  0  0
  2  3  1  0  0  0  0
  2 28  1  0  0  0  0
  3  4  1  0  0  0  0
  4  5  1  0  0  0  0
  4 34  1  0  0  0  0
  4 35  1  0  0  0  0
  5 18  1  0  0  0  0
  5  6  1  0  0  0  0
  5 36  1  0  0  0  0
  6  7  1  0  0  0  0
  7  8  1  0  0  0  0
  7 16  1  0  0  0  0
  7 37  1  0  0  0  0
  8 14  1  0  0  0  0
  8  9  1  0  0  0  0
  9 10  2  0  0  0  0
  9 38  1  0  0  0  0
 10 11  1  0  0  0  0
 10 39  1  0  0  0  0
 11 12  2  0  0  0  0
 11 13  1  0  0  0  0
 13 14  1  0  0  0  0
 14 15  2  0  0  0  0
 16 17  1  0  0  0  0
 16 18  1  0  0  0  0
 16 40  1  0  0  0  0
 17 41  1  0  0  0  0
 18 19  1  0  0  0  0
 18 42  1  0  0  0  0
 19 20  1  0  0  0  0
 20 21  2  0  0  0  0
 20 22  1  0  0  0  0
 22 27  1  0  0  0  0
 22 23  2  0  0  0  0
 23 24  1  0  0  0  0
 23 43  1  0  0  0  0
 24 25  2  0  0  0  0
 24 44  1  0  0  0  0
 25 26  1  0  0  0  0
 25 45  1  0  0  0  0
 26 27  2  0  0  0  0
 26 46  1  0  0  0  0
 27 47  1  0  0  0  0
 28 33  1  0  0  0  0
 28 29  2  0  0  0  0
 29 30  1  0  0  0  0
 29 48  1  0  0  0  0
 30 31  2  0  0  0  0
 30 49  1  0  0  0  0
 31 32  1  0  0  0  0
 31 50  1  0  0  0  0
 32 33  2  0  0  0  0
 32 51  1  0  0  0  0
 33 52  1  0  0  0  0
M  CHG  1  13  -1
M  END
> <s_m_source_file>
AV-unprocessed.smi

> <i_m_source_file_index>
99

> <i_lp_mmshare_version>
43012

> <i_f3d_flags>
0

> <s_epik_input>
W2NIXTFbY0hdW2NIXVtjSF1bY0hdYzFDKD1PKU9bQ0gyXVtDQEBIXTJPW0NAQEhdKG4zW2NIXVtjSF1jKD1PKVtuSF1jMz1PKVtDQEBIXShbT0hdKVtDQEhdMk9DKD1PKWM0W2NIXVtjSF1bY0hdW2NIXVtjSF00

> <s_epik_cmdline>
J2VwaWtfcHl0aG9uJywgJy1waCcsICc3LjAnLCAnLXRuJywgJzgnLCAnLW1hJywgJzIwMCcsICctbWV0YWxfYmluZGluZycsICctaW1hZScsICc8aW5maWxlLm1hZT4nLCAnLW9tYWUnLCAnPG91dGZpbGUubWFlPic=

> <r_lp_tautomer_probability>
1

> <r_epik_Ionization_Penalty>
2.89159

> <r_epik_Ionization_Penalty_Charging>
2.1077e-08

> <r_epik_Ionization_Penalty_Neutral>
2.89159

> <r_epik_State_Penalty>
2.88671

> <r_epik_Charging_Adjusted_Penalty>
2.88671

> <i_epik_Tot_Q>
-1

> <i_epik_Tot_abs_Q>
1

> <r_epik_Metal_State_Penalty>
0.0727308

> <b_epik_Metal_Only>
1

> <s_epik_Chemistry_Notes>
This compound has an ester and may undergo hydrolysis at high or low pH. This compound contains an acetal/aminal-like group ( X-CH(R)-Y where X, Y are N, S, or O) that may be acid/base labile, releasing an aldehyde.

> <s_lp_Force_Field>
OPLS_2005

> <r_lp_Energy>
49.6514

> <b_lp_Chiralities_Consistent>
1

> <s_lp_Variant>
AV-unprocessed.smi:99-25

> <Gold.Version>
5.8.1

> <Gold.Id.Protein>
6NUR|6NUR_protein|mol2

> <Gold.PLP.Fitness>
49.0797

> <Gold.PLP.PLP>
-36.2683

> <Gold.PLP.part.hbond>
-3.7281

> <Gold.PLP.part.metal>
0.0000

> <Gold.PLP.part.buried>
-8.8286

> <Gold.PLP.part.nonpolar>
-24.8216

> <Gold.PLP.part.repulsive>
0.3650

> <Gold.PLP.ligand.clash>
0.0000

> <Gold.PLP.ligand.torsion>
1.2174

> <Gold.PLP.Chemscore.Hbond>
4.9200

> <Gold.PLP.Chemscore.CHOScore>
0.0000

> <Gold.PLP.Chemscore.Metal>
0.0000

> <Gold.Chemscore.Hbonds>
donor molecule, donor type, donor heavy atom, donor atom, acceptor molecule, acceptor atom, score
      P1  H  6896  6908       L1    17  1.00
      P1  H  6934  6947       L1    21  0.83
      P1  H  7997  8010       L1    12  0.98
      P1  H 10752 10765       L1    13  2.00

> <Gold.PLP.Chemscore.Internal.Correction>
0.4861

> <Gold.Rescore>
     Score         DG    S(hbond)    S(metal)    S(lipo)     H(rot)  DE(clash)    DE(int)     intcor
     15.78     -17.22       3.27        0.00      75.57       3.13       0.00       1.45       ----

> <Gold.Chemscore.Fitness>
15.7774

> <Gold.Chemscore.DG>
-17.2233

> <Gold.Chemscore.ZeroCoef>
-5.4800

> <Gold.Chemscore.Hbond>
3.2715

> <Gold.Chemscore.Metal>
0.0000

> <Gold.Chemscore.Lipo>
75.5653

> <Gold.Chemscore.Internal_Hbond>
0.0000

> <Gold.Chemscore.DEClash>
0.0000

> <Gold.Chemscore.DEInternal>
1.4459

> <Gold.Chemscore.Rot>
3.1346

> <Gold.Chemscore.Internal.Correction>
   9.000000E+99

> <Gold.Chemscore.Hbonds>
donor molecule, donor type, donor heavy atom, donor atom, acceptor molecule, acceptor atom, score
      P1  H  6896  6908       L1    17  0.99
      P1  H  6934  6947       L1    21  0.75
      P1  H  7997  8010       L1    12  0.86
      P1  H 10752 10765       L1    13  0.23

> <Gold.Chemscore.Hbond.Weighted>
-10.9267

> <Gold.Chemscore.Metal.Weighted>
-0.0000

> <Gold.Chemscore.Lipo.Weighted>
-8.8411

> <Gold.Chemscore.Internal_Hbond.Weighted>
0.0000

> <Gold.Chemscore.DEClash.Weighted>
0.0000

> <Gold.Chemscore.DEInternal.Weighted>
1.4459

> <Gold.Chemscore.Rot.Weighted>
8.0246

> <Gold.Chemscore.Internal.Correction.Weighted>
   9.000000E+99

> <Gold.Protein.RotatedTorsions>
[ 6907 6896 6895 6894 ] final -167.16 input  -60.11 | X-H torsion
[ 7974 7965 7964 7962 ] final  -78.74 input  175.53 | X-H torsion
[ 8008 7997 7996 7995 ] final   90.96 input   59.86 | X-H torsion
[ 10167 10162 10161 10158 ] final   53.57 input  -65.29 | X-H torsion
[ 10718 10713 10712 10709 ] final -166.87 input   66.30 | X-H torsion
[ 10763 10752 10751 10750 ] final  177.61 input  -60.55 | X-H torsion
[ 11005 11000 10999 10996 ] final -128.99 input  -57.11 | X-H torsion

> <Gold.Protein.ActiveResidues>
 VAL166  LYS551  ARG553  GLY616  TRP617  ASP618  TYR619  PRO620  LYS621  CYS622 
 ASP623  PHE694  ASN695  SER759  ASP760  ASP761  ALA762  ILE779  LEU786  VAL792 
 PHE793  MET794  SER795  GLU796  ALA797  LYS798  CYS799  TRP800  GLU811  SER814 

> <Gold.Protein.RotatedAtoms>
  151.4551  133.3607  159.2800 H   0  0  0  0  0  0  0  0  0  0  0  0  # atno 6907 bound_to 6896
  150.9064  134.8481  159.7406 H   0  0  0  0  0  0  0  0  0  0  0  0  # atno 6908 bound_to 6896
  152.4908  134.4477  159.9616 H   0  0  0  0  0  0  0  0  0  0  0  0  # atno 6909 bound_to 6896
  145.5825  140.9445  143.1336 H   0  0  0  0  0  0  0  0  0  0  0  0  # atno 7974 bound_to 7965
  156.0181  140.3343  155.7010 H   0  0  0  0  0  0  0  0  0  0  0  0  # atno 8008 bound_to 7997
  155.6061  140.0660  157.2737 H   0  0  0  0  0  0  0  0  0  0  0  0  # atno 8009 bound_to 7997
  154.4306  140.1801  156.1211 H   0  0  0  0  0  0  0  0  0  0  0  0  # atno 8010 bound_to 7997
  140.2393  144.3601  150.6386 H   0  0  0  0  0  0  0  0  0  0  0  0  # atno 10167 bound_to 10162
  156.6741  130.9096  151.3048 H   0  0  0  0  0  0  0  0  0  0  0  0  # atno 10718 bound_to 10713
  154.4967  135.2781  155.1453 H   0  0  0  0  0  0  0  0  0  0  0  0  # atno 10763 bound_to 10752
  154.3103  135.6230  153.5466 H   0  0  0  0  0  0  0  0  0  0  0  0  # atno 10764 bound_to 10752
  152.9896  135.5718  154.5401 H   0  0  0  0  0  0  0  0  0  0  0  0  # atno 10765 bound_to 10752
  140.9469  134.1117  157.4098 H   0  0  0  0  0  0  0  0  0  0  0  0  # atno 11005 bound_to 11000
  144.7387  139.7509  143.7319 LP  0  0  0  0  0  0  0  0  0  0  0  0  # atno 17320 bound_to 7965
  146.1706  139.4855  142.9930 LP  0  0  0  0  0  0  0  0  0  0  0  0  # atno 17321 bound_to 7965
  140.6126  143.2170  151.6856 LP  0  0  0  0  0  0  0  0  0  0  0  0  # atno 17342 bound_to 10162
  139.5083  144.3617  152.0556 LP  0  0  0  0  0  0  0  0  0  0  0  0  # atno 17343 bound_to 10162
  157.7067  130.9393  150.0953 LP  0  0  0  0  0  0  0  0  0  0  0  0  # atno 17370 bound_to 10713
  156.1916  130.3655  149.8902 LP  0  0  0  0  0  0  0  0  0  0  0  0  # atno 17371 bound_to 10713
  139.8836  135.0054  156.6312 LP  0  0  0  0  0  0  0  0  0  0  0  0  # atno 17394 bound_to 11000
  140.7656  133.8781  155.8452 LP  0  0  0  0  0  0  0  0  0  0  0  0  # atno 17395 bound_to 11000

$$$$
