AV-unprocessed.smi:614|AV-procd|sdf|3069|dock10
  -GOLD-   2262023593D 1   1.00000     0.00000
 Structure written by MMmdl.
 44 45  0  0  0  0  0  0  0  0  1 V2000
  144.4948  132.5741  149.7597 C   0  0  0  0  0  0  0  0  0  0  0  0
  144.5976  133.7054  150.6559 N   0  0  0  0  0  0  0  0  0  0  0  0
  143.6045  134.3028  151.4055 C   0  0  0  0  0  0  0  0  0  0  0  0
  144.1758  135.3352  152.0940 C   0  0  0  0  0  0  0  0  0  0  0  0
  145.5389  135.2829  151.6907 C   0  0  0  0  0  0  0  0  0  0  0  0
  146.4783  136.2187  152.1947 N   0  0  0  0  0  0  0  0  0  0  0  0
  146.2612  137.2025  153.0842 C   0  0  0  0  0  0  0  0  0  0  0  0
  145.1688  137.4723  153.5820 O   0  0  0  0  0  0  0  0  0  0  0  0
  147.4007  137.8618  153.3547 N   0  0  0  0  0  0  0  0  0  0  0  0
  147.6228  138.9856  154.2779 C   0  0  2  0  0  0  0  0  0  0  0  0
  146.9964  138.5087  155.6093 C   0  0  0  0  0  0  0  0  0  0  0  0
  146.7845  140.2123  153.8037 C   0  0  0  0  0  0  0  0  0  0  0  0
  146.9820  140.5637  152.4488 O   0  0  0  0  0  0  0  0  0  0  0  0
  149.1532  139.2977  154.4616 C   0  0  0  0  0  0  0  0  0  0  0  0
  150.0558  138.0393  154.5500 C   0  0  0  0  0  0  0  0  0  0  0  0
  151.5465  138.4119  154.6065 C   0  0  0  0  0  0  0  0  0  0  0  0
  151.8423  139.3594  155.7780 C   0  0  0  0  0  0  0  0  0  0  0  0
  150.9545  140.6103  155.7108 C   0  0  0  0  0  0  0  0  0  0  0  0
  149.4650  140.2336  155.6571 C   0  0  0  0  0  0  0  0  0  0  0  0
  145.7931  134.3070  150.8296 N   0  0  0  0  0  0  0  0  0  0  0  0
  143.4712  132.1984  149.7466 H   0  0  0  0  0  0  0  0  0  0  0  0
  145.1609  131.7778  150.0929 H   0  0  0  0  0  0  0  0  0  0  0  0
  144.7741  132.8772  148.7502 H   0  0  0  0  0  0  0  0  0  0  0  0
  142.5846  133.9478  151.3858 H   0  0  0  0  0  0  0  0  0  0  0  0
  143.6930  136.0185  152.7767 H   0  0  0  0  0  0  0  0  0  0  0  0
  147.4217  136.1197  151.8509 H   0  0  0  0  0  0  0  0  0  0  0  0
  148.2254  137.5432  152.8678 H   0  0  0  0  0  0  0  0  0  0  0  0
  147.0588  139.2655  156.3906 H   0  0  0  0  0  0  0  0  0  0  0  0
  147.4700  137.6033  155.9885 H   0  0  0  0  0  0  0  0  0  0  0  0
  145.9372  138.2794  155.4826 H   0  0  0  0  0  0  0  0  0  0  0  0
  145.7200  140.0516  153.9801 H   0  0  0  0  0  0  0  0  0  0  0  0
  147.0535  141.0956  154.3840 H   0  0  0  0  0  0  0  0  0  0  0  0
  147.8452  140.2825  152.1872 H   0  0  0  0  0  0  0  0  0  0  0  0
  149.4827  139.8311  153.5699 H   0  0  0  0  0  0  0  0  0  0  0  0
  149.8069  137.4554  155.4358 H   0  0  0  0  0  0  0  0  0  0  0  0
  149.8960  137.3842  153.6940 H   0  0  0  0  0  0  0  0  0  0  0  0
  152.1516  137.5096  154.6984 H   0  0  0  0  0  0  0  0  0  0  0  0
  151.8398  138.8862  153.6693 H   0  0  0  0  0  0  0  0  0  0  0  0
  151.6716  138.8397  156.7217 H   0  0  0  0  0  0  0  0  0  0  0  0
  152.8938  139.6475  155.7679 H   0  0  0  0  0  0  0  0  0  0  0  0
  151.1454  141.2470  156.5751 H   0  0  0  0  0  0  0  0  0  0  0  0
  151.2153  141.1985  154.8301 H   0  0  0  0  0  0  0  0  0  0  0  0
  148.8749  141.1476  155.5975 H   0  0  0  0  0  0  0  0  0  0  0  0
  149.1940  139.7529  156.5968 H   0  0  0  0  0  0  0  0  0  0  0  0
  1  2  1  0  0  0  0
  1 21  1  0  0  0  0
  1 22  1  0  0  0  0
  1 23  1  0  0  0  0
  2 20  1  0  0  0  0
  2  3  1  0  0  0  0
  3  4  2  0  0  0  0
  3 24  1  0  0  0  0
  4  5  1  0  0  0  0
  4 25  1  0  0  0  0
  5  6  1  0  0  0  0
  5 20  2  0  0  0  0
  6  7  1  0  0  0  0
  6 26  1  0  0  0  0
  7  8  2  0  0  0  0
  7  9  1  0  0  0  0
  9 10  1  0  0  0  0
  9 27  1  0  0  0  0
 10 11  1  0  0  0  0
 10 12  1  0  0  0  0
 10 14  1  0  0  0  0
 11 28  1  0  0  0  0
 11 29  1  0  0  0  0
 11 30  1  0  0  0  0
 12 13  1  0  0  0  0
 12 31  1  0  0  0  0
 12 32  1  0  0  0  0
 13 33  1  0  0  0  0
 14 19  1  0  0  0  0
 14 15  1  0  0  0  0
 14 34  1  0  0  0  0
 15 16  1  0  0  0  0
 15 35  1  0  0  0  0
 15 36  1  0  0  0  0
 16 17  1  0  0  0  0
 16 37  1  0  0  0  0
 16 38  1  0  0  0  0
 17 18  1  0  0  0  0
 17 39  1  0  0  0  0
 17 40  1  0  0  0  0
 18 19  1  0  0  0  0
 18 41  1  0  0  0  0
 18 42  1  0  0  0  0
 19 43  1  0  0  0  0
 19 44  1  0  0  0  0
M  END
> <s_m_source_file>
AV-unprocessed.smi

> <i_m_source_file_index>
614

> <i_lp_mmshare_version>
43012

> <i_f3d_flags>
0

> <s_epik_input>
W0NIM11uMVtjSF1bY0hdYyhuMSlbTkhdQyg9TylbTkhdW0NAQF0oW0NIM10pKFtDSDJdW09IXSlbQ0hdMltDSDJdW0NIMl1bQ0gyXVtDSDJdW0NIMl0y

> <s_epik_cmdline>
J2VwaWtfcHl0aG9uJywgJy1waCcsICc3LjAnLCAnLXRuJywgJzgnLCAnLW1hJywgJzIwMCcsICctbWV0YWxfYmluZGluZycsICctaW1hZScsICc8aW5maWxlLm1hZT4nLCAnLW9tYWUnLCAnPG91dGZpbGUubWFlPic=

> <r_lp_tautomer_probability>
1

> <r_epik_Ionization_Penalty>
3.66621e-05

> <r_epik_Ionization_Penalty_Charging>
0

> <r_epik_Ionization_Penalty_Neutral>
3.66621e-05

> <r_epik_State_Penalty>
-0

> <r_epik_Charging_Adjusted_Penalty>
0

> <i_epik_Tot_Q>
0

> <i_epik_Tot_abs_Q>
0

> <r_epik_Metal_State_Penalty>
-0

> <b_epik_Metal_Only>
0

> <s_lp_Force_Field>
OPLS_2005

> <r_lp_Energy>
19.716

> <b_lp_Chiralities_Consistent>
1

> <s_lp_Variant>
AV-unprocessed.smi:614-2

> <Gold.Version>
5.8.1

> <Gold.Id.Protein>
6NUR|6NUR_protein|mol2

> <Gold.PLP.Fitness>
42.4517

> <Gold.PLP.PLP>
-31.9958

> <Gold.PLP.part.hbond>
-3.0856

> <Gold.PLP.part.metal>
0.0000

> <Gold.PLP.part.buried>
-3.1970

> <Gold.PLP.part.nonpolar>
-25.7809

> <Gold.PLP.part.repulsive>
0.3838

> <Gold.PLP.ligand.clash>
0.0000

> <Gold.PLP.ligand.torsion>
0.5040

> <Gold.PLP.Chemscore.Hbond>
2.9760

> <Gold.PLP.Chemscore.CHOScore>
0.8093

> <Gold.PLP.Chemscore.Metal>
0.0000

> <Gold.Chemscore.Hbonds>
donor molecule, donor type, donor heavy atom, donor atom, acceptor molecule, acceptor atom, score
      L1  H     6    26       P1  7948  0.94
      L1  H     9    27       P1  7948  0.93
      L1  H    13    33       P1  7957  0.99
      L1  C     3    24       P1 10186  0.88

> <Gold.PLP.Chemscore.Internal.Correction>
0.1080

> <Gold.Rescore>
     Score         DG    S(hbond)    S(metal)    S(lipo)     H(rot)  DE(clash)    DE(int)     intcor
     14.46     -18.07       2.95        0.00      68.68       2.07       0.88       2.73       ----

> <Gold.Chemscore.Fitness>
14.4585

> <Gold.Chemscore.DG>
-18.0662

> <Gold.Chemscore.ZeroCoef>
-5.4800

> <Gold.Chemscore.Hbond>
2.9497

> <Gold.Chemscore.Metal>
0.0000

> <Gold.Chemscore.Lipo>
68.6834

> <Gold.Chemscore.Internal_Hbond>
0.0000

> <Gold.Chemscore.DEClash>
0.8811

> <Gold.Chemscore.DEInternal>
2.7267

> <Gold.Chemscore.Rot>
2.0710

> <Gold.Chemscore.Internal.Correction>
   9.000000E+99

> <Gold.Chemscore.Hbonds>
donor molecule, donor type, donor heavy atom, donor atom, acceptor molecule, acceptor atom, score
      L1  H     6    26       P1  7948  0.89
      L1  H     9    27       P1  7948  0.91
      L1  H    13    33       P1  7957  0.92

> <Gold.Chemscore.Hbond.Weighted>
-9.8520

> <Gold.Chemscore.Metal.Weighted>
-0.0000

> <Gold.Chemscore.Lipo.Weighted>
-8.0360

> <Gold.Chemscore.Internal_Hbond.Weighted>
0.0000

> <Gold.Chemscore.DEClash.Weighted>
0.8811

> <Gold.Chemscore.DEInternal.Weighted>
2.7267

> <Gold.Chemscore.Rot.Weighted>
5.3017

> <Gold.Chemscore.Internal.Correction.Weighted>
   9.000000E+99

> <Gold.Protein.RotatedTorsions>
[ 6907 6896 6895 6894 ] final -119.69 input  -60.11 | X-H torsion
[ 7974 7965 7964 7962 ] final -130.48 input  175.53 | X-H torsion
[ 8008 7997 7996 7995 ] final  120.30 input   59.86 | X-H torsion
[ 10167 10162 10161 10158 ] final   82.81 input  -65.29 | X-H torsion
[ 10718 10713 10712 10709 ] final  -34.56 input   66.30 | X-H torsion
[ 10763 10752 10751 10750 ] final  110.67 input  -60.55 | X-H torsion
[ 11005 11000 10999 10996 ] final  154.69 input  -57.11 | X-H torsion

> <Gold.Protein.ActiveResidues>
 VAL166  LYS551  ARG553  GLY616  TRP617  ASP618  TYR619  PRO620  LYS621  CYS622 
 ASP623  PHE694  ASN695  SER759  ASP760  ASP761  ALA762  ILE779  LEU786  VAL792 
 PHE793  MET794  SER795  GLU796  ALA797  LYS798  CYS799  TRP800  GLU811  SER814 

> <Gold.Protein.RotatedAtoms>
  150.8327  133.8064  159.3091 H   0  0  0  0  0  0  0  0  0  0  0  0  # atno 6907 bound_to 6896
  151.5790  135.1057  160.0022 H   0  0  0  0  0  0  0  0  0  0  0  0  # atno 6908 bound_to 6896
  152.4404  133.7396  159.6689 H   0  0  0  0  0  0  0  0  0  0  0  0  # atno 6909 bound_to 6896
  144.9470  140.7303  143.4811 H   0  0  0  0  0  0  0  0  0  0  0  0  # atno 7974 bound_to 7965
  156.2636  140.2834  156.1128 H   0  0  0  0  0  0  0  0  0  0  0  0  # atno 8008 bound_to 7997
  155.1239  140.0392  157.2775 H   0  0  0  0  0  0  0  0  0  0  0  0  # atno 8009 bound_to 7997
  154.6650  140.2575  155.7074 H   0  0  0  0  0  0  0  0  0  0  0  0  # atno 8010 bound_to 7997
  139.9249  144.6189  150.8403 H   0  0  0  0  0  0  0  0  0  0  0  0  # atno 10167 bound_to 10162
  156.3491  130.4305  149.7720 H   0  0  0  0  0  0  0  0  0  0  0  0  # atno 10718 bound_to 10713
  153.4522  135.3741  155.2290 H   0  0  0  0  0  0  0  0  0  0  0  0  # atno 10763 bound_to 10752
  154.8756  135.3888  154.4024 H   0  0  0  0  0  0  0  0  0  0  0  0  # atno 10764 bound_to 10752
  153.4585  135.7086  153.6128 H   0  0  0  0  0  0  0  0  0  0  0  0  # atno 10765 bound_to 10752
  140.1512  134.8673  157.2457 H   0  0  0  0  0  0  0  0  0  0  0  0  # atno 11005 bound_to 11000
  145.2902  139.1886  143.4744 LP  0  0  0  0  0  0  0  0  0  0  0  0  # atno 17320 bound_to 7965
  146.3307  140.2877  142.8613 LP  0  0  0  0  0  0  0  0  0  0  0  0  # atno 17321 bound_to 7965
  140.7653  143.3271  151.2492 LP  0  0  0  0  0  0  0  0  0  0  0  0  # atno 17342 bound_to 10162
  139.6831  143.9821  152.2819 LP  0  0  0  0  0  0  0  0  0  0  0  0  # atno 17343 bound_to 10162
  156.4927  130.8092  151.3101 LP  0  0  0  0  0  0  0  0  0  0  0  0  # atno 17370 bound_to 10713
  157.7458  130.9970  150.2800 LP  0  0  0  0  0  0  0  0  0  0  0  0  # atno 17371 bound_to 10713
  140.2602  134.3580  155.7409 LP  0  0  0  0  0  0  0  0  0  0  0  0  # atno 17394 bound_to 11000
  141.2199  133.7365  156.9068 LP  0  0  0  0  0  0  0  0  0  0  0  0  # atno 17395 bound_to 11000

$$$$
