AV-unprocessed.smi:260|AV-procd|sdf|1976|dock3
  -GOLD-   2262021143D 1   1.00000     0.00000
 Structure written by MMmdl.
 53 56  0  0  0  0  0  0  0  0  1 V2000
  141.2971  135.5190  153.5849 C   0  0  0  0  0  0  0  0  0  0  0  0
  142.5817  135.5585  152.9032 N   0  0  0  0  0  0  0  0  0  0  0  0
  143.6681  136.1963  153.3676 C   0  0  0  0  0  0  0  0  0  0  0  0
  143.6528  136.8202  154.4297 O   0  0  0  0  0  0  0  0  0  0  0  0
  144.9746  136.1447  152.5323 C   0  0  2  0  0  0  0  0  0  0  0  0
  144.6824  135.4524  151.1864 C   0  0  0  0  0  0  0  0  0  0  0  0
  146.1728  135.4970  153.2641 C   0  0  0  0  0  0  0  0  0  0  0  0
  146.7699  136.6198  154.1224 C   0  0  0  0  0  0  0  0  0  0  0  0
  146.3229  137.8590  153.5038 N   0  0  0  0  0  0  0  0  0  0  0  0
  147.0182  139.0187  153.6330 C   0  0  0  0  0  0  0  0  0  0  0  0
  146.6945  140.0636  152.8258 N   0  0  0  0  0  0  0  0  0  0  0  0
  147.3483  141.2244  152.9207 C   0  0  0  0  0  0  0  0  0  0  0  0
  148.3449  141.5547  153.7428 N   0  0  0  0  0  0  0  0  0  0  0  0
  148.6733  140.5162  154.5629 C   0  0  0  0  0  0  0  0  0  0  0  0
  148.0655  139.2272  154.5793 C   0  0  0  0  0  0  0  0  0  0  0  0
  148.6589  138.4466  155.5658 N   0  0  0  0  0  0  0  0  0  0  0  0
  149.5676  139.2212  156.0907 C   0  0  0  0  0  0  0  0  0  0  0  0
  149.6571  140.4772  155.5360 N   0  0  0  0  0  0  0  0  0  0  0  0
  150.5680  141.5374  155.9329 C   0  0  0  0  0  0  0  0  0  0  0  0
  150.4545  141.9293  157.4243 C   0  0  2  0  0  0  0  0  0  0  0  0
  149.2739  142.6991  157.5305 O   0  0  0  0  0  0  0  0  0  0  0  0
  151.6127  142.7950  157.9718 C   0  0  2  0  0  0  0  0  0  0  0  0
  151.5849  143.0884  159.4740 C   0  0  0  0  0  0  0  0  0  0  0  0
  152.3577  144.3903  159.6092 C   0  0  0  0  0  0  0  0  0  0  0  0
  152.3841  144.9497  158.1864 C   0  0  0  0  0  0  0  0  0  0  0  0
  151.5072  144.1114  157.4482 O   0  0  0  0  0  0  0  0  0  0  0  0
  145.5150  137.5724  152.3246 C   0  0  0  0  0  0  0  0  0  0  0  0
  140.5840  134.9380  153.0005 H   0  0  0  0  0  0  0  0  0  0  0  0
  140.8939  136.5242  153.7136 H   0  0  0  0  0  0  0  0  0  0  0  0
  141.3933  135.0538  154.5665 H   0  0  0  0  0  0  0  0  0  0  0  0
  142.6548  135.0637  152.0261 H   0  0  0  0  0  0  0  0  0  0  0  0
  145.5660  135.4374  150.5475 H   0  0  0  0  0  0  0  0  0  0  0  0
  143.8941  135.9626  150.6311 H   0  0  0  0  0  0  0  0  0  0  0  0
  144.3695  134.4180  151.3338 H   0  0  0  0  0  0  0  0  0  0  0  0
  145.9280  134.6068  153.8445 H   0  0  0  0  0  0  0  0  0  0  0  0
  146.9195  135.1864  152.5319 H   0  0  0  0  0  0  0  0  0  0  0  0
  146.3869  136.5747  155.1423 H   0  0  0  0  0  0  0  0  0  0  0  0
  147.8572  136.5448  154.1582 H   0  0  0  0  0  0  0  0  0  0  0  0
  147.0267  141.9984  152.2396 H   0  0  0  0  0  0  0  0  0  0  0  0
  150.2040  138.8934  156.8999 H   0  0  0  0  0  0  0  0  0  0  0  0
  151.5912  141.2460  155.6929 H   0  0  0  0  0  0  0  0  0  0  0  0
  150.3387  142.3990  155.3037 H   0  0  0  0  0  0  0  0  0  0  0  0
  150.3312  141.0357  158.0371 H   0  0  0  0  0  0  0  0  0  0  0  0
  149.3506  143.4466  156.9575 H   0  0  0  0  0  0  0  0  0  0  0  0
  152.5805  142.3682  157.7004 H   0  0  0  0  0  0  0  0  0  0  0  0
  150.5590  143.2424  159.8111 H   0  0  0  0  0  0  0  0  0  0  0  0
  152.0230  142.2871  160.0679 H   0  0  0  0  0  0  0  0  0  0  0  0
  151.8630  145.0689  160.3047 H   0  0  0  0  0  0  0  0  0  0  0  0
  153.3716  144.2163  159.9708 H   0  0  0  0  0  0  0  0  0  0  0  0
  152.0627  145.9903  158.1385 H   0  0  0  0  0  0  0  0  0  0  0  0
  153.3879  144.8821  157.7645 H   0  0  0  0  0  0  0  0  0  0  0  0
  146.1444  137.6246  151.4349 H   0  0  0  0  0  0  0  0  0  0  0  0
  144.7178  138.3085  152.2095 H   0  0  0  0  0  0  0  0  0  0  0  0
  1  2  1  0  0  0  0
  1 28  1  0  0  0  0
  1 29  1  0  0  0  0
  1 30  1  0  0  0  0
  2  3  1  0  0  0  0
  2 31  1  0  0  0  0
  3  4  2  0  0  0  0
  3  5  1  0  0  0  0
  5 27  1  0  0  0  0
  5  6  1  0  0  0  0
  5  7  1  0  0  0  0
  6 32  1  0  0  0  0
  6 33  1  0  0  0  0
  6 34  1  0  0  0  0
  7  8  1  0  0  0  0
  7 35  1  0  0  0  0
  7 36  1  0  0  0  0
  8  9  1  0  0  0  0
  8 37  1  0  0  0  0
  8 38  1  0  0  0  0
  9 10  1  0  0  0  0
  9 27  1  0  0  0  0
 10 15  1  0  0  0  0
 10 11  2  0  0  0  0
 11 12  1  0  0  0  0
 12 13  2  0  0  0  0
 12 39  1  0  0  0  0
 13 14  1  0  0  0  0
 14 18  1  0  0  0  0
 14 15  2  0  0  0  0
 15 16  1  0  0  0  0
 16 17  2  0  0  0  0
 17 18  1  0  0  0  0
 17 40  1  0  0  0  0
 18 19  1  0  0  0  0
 19 20  1  0  0  0  0
 19 41  1  0  0  0  0
 19 42  1  0  0  0  0
 20 21  1  0  0  0  0
 20 22  1  0  0  0  0
 20 43  1  0  0  0  0
 21 44  1  0  0  0  0
 22 26  1  0  0  0  0
 22 23  1  0  0  0  0
 22 45  1  0  0  0  0
 23 24  1  0  0  0  0
 23 46  1  0  0  0  0
 23 47  1  0  0  0  0
 24 25  1  0  0  0  0
 24 48  1  0  0  0  0
 24 49  1  0  0  0  0
 25 26  1  0  0  0  0
 25 50  1  0  0  0  0
 25 51  1  0  0  0  0
 27 52  1  0  0  0  0
 27 53  1  0  0  0  0
M  END
> <s_m_source_file>
AV-unprocessed.smi

> <i_m_source_file_index>
260

> <i_lp_mmshare_version>
43012

> <i_f3d_flags>
0

> <s_epik_input>
W0NIM11bTkhdQyg9TylbQ0BAXTEoW0NIM10pW0NIMl1bQ0gyXU4oW0NIMl0xKWMobltjSF1uMiljKGMyMyluW2NIXW4zW0NIMl1bQ0BIXShbT0hdKVtDQEBIXTRbQ0gyXVtDSDJdW0NIMl1PNA==

> <s_epik_cmdline>
J2VwaWtfcHl0aG9uJywgJy1waCcsICc3LjAnLCAnLXRuJywgJzgnLCAnLW1hJywgJzIwMCcsICctbWV0YWxfYmluZGluZycsICctaW1hZScsICc8aW5maWxlLm1hZT4nLCAnLW9tYWUnLCAnPG91dGZpbGUubWFlPic=

> <r_lp_tautomer_probability>
1

> <r_epik_Ionization_Penalty>
0.00115068

> <r_epik_Ionization_Penalty_Charging>
0

> <r_epik_Ionization_Penalty_Neutral>
0.00115068

> <r_epik_State_Penalty>
0.000668876

> <r_epik_Charging_Adjusted_Penalty>
0.000668876

> <i_epik_Tot_Q>
0

> <i_epik_Tot_abs_Q>
0

> <r_epik_Metal_State_Penalty>
-0

> <b_epik_Metal_Only>
0

> <s_lp_Force_Field>
OPLS_2005

> <r_lp_Energy>
52.371

> <b_lp_Chiralities_Consistent>
1

> <s_lp_Variant>
AV-unprocessed.smi:260-2

> <Gold.Version>
5.8.1

> <Gold.Id.Protein>
6NUR|6NUR_protein|mol2

> <Gold.PLP.Fitness>
41.7801

> <Gold.PLP.PLP>
-39.0526

> <Gold.PLP.part.hbond>
-2.0000

> <Gold.PLP.part.metal>
0.0000

> <Gold.PLP.part.buried>
-4.6352

> <Gold.PLP.part.nonpolar>
-32.9210

> <Gold.PLP.part.repulsive>
0.6489

> <Gold.PLP.ligand.clash>
1.2583

> <Gold.PLP.ligand.torsion>
0.4459

> <Gold.PLP.Chemscore.Hbond>
1.4999

> <Gold.PLP.Chemscore.CHOScore>
0.0000

> <Gold.PLP.Chemscore.Metal>
0.0000

> <Gold.Chemscore.Hbonds>
donor molecule, donor type, donor heavy atom, donor atom, acceptor molecule, acceptor atom, score
      L1  H    21    44       P1  8028  1.00
      P1  H  8011  8017       L1    13  0.38

> <Gold.PLP.Chemscore.Internal.Correction>
0.3778

> <Gold.Rescore>
     Score         DG    S(hbond)    S(metal)    S(lipo)     H(rot)  DE(clash)    DE(int)     intcor
      9.66     -13.46       1.13        0.00      91.32       2.53       1.55       2.24       ----

> <Gold.Chemscore.Fitness>
9.6623

> <Gold.Chemscore.DG>
-13.4595

> <Gold.Chemscore.ZeroCoef>
-5.4800

> <Gold.Chemscore.Hbond>
1.1263

> <Gold.Chemscore.Metal>
0.0000

> <Gold.Chemscore.Lipo>
91.3169

> <Gold.Chemscore.Internal_Hbond>
0.0000

> <Gold.Chemscore.DEClash>
1.5527

> <Gold.Chemscore.DEInternal>
2.2445

> <Gold.Chemscore.Rot>
2.5259

> <Gold.Chemscore.Internal.Correction>
   9.000000E+99

> <Gold.Chemscore.Hbonds>
donor molecule, donor type, donor heavy atom, donor atom, acceptor molecule, acceptor atom, score
      L1  H    21    44       P1  8028  0.92
      P1  H  8011  8017       L1    13  0.11

> <Gold.Chemscore.Hbond.Weighted>
-3.7617

> <Gold.Chemscore.Metal.Weighted>
-0.0000

> <Gold.Chemscore.Lipo.Weighted>
-10.6841

> <Gold.Chemscore.Internal_Hbond.Weighted>
0.0000

> <Gold.Chemscore.DEClash.Weighted>
1.5527

> <Gold.Chemscore.DEInternal.Weighted>
2.2445

> <Gold.Chemscore.Rot.Weighted>
6.4663

> <Gold.Chemscore.Internal.Correction.Weighted>
   9.000000E+99

> <Gold.Protein.RotatedTorsions>
[ 6907 6896 6895 6894 ] final  -44.62 input  -60.11 | X-H torsion
[ 7974 7965 7964 7962 ] final -128.70 input  175.53 | X-H torsion
[ 8008 7997 7996 7995 ] final  -18.18 input   59.86 | X-H torsion
[ 10167 10162 10161 10158 ] final  113.05 input  -65.29 | X-H torsion
[ 10718 10713 10712 10709 ] final  -62.38 input   66.30 | X-H torsion
[ 10763 10752 10751 10750 ] final  174.44 input  -60.55 | X-H torsion
[ 11005 11000 10999 10996 ] final  -67.35 input  -57.11 | X-H torsion

> <Gold.Protein.ActiveResidues>
 VAL166  LYS551  ARG553  GLY616  TRP617  ASP618  TYR619  PRO620  LYS621  CYS622 
 ASP623  PHE694  ASN695  SER759  ASP760  ASP761  ALA762  ILE779  LEU786  VAL792 
 PHE793  MET794  SER795  GLU796  ALA797  LYS798  CYS799  TRP800  GLU811  SER814 

> <Gold.Protein.RotatedAtoms>
  150.9309  134.8724  159.7550 H   0  0  0  0  0  0  0  0  0  0  0  0  # atno 6907 bound_to 6896
  152.5037  134.4081  159.9449 H   0  0  0  0  0  0  0  0  0  0  0  0  # atno 6908 bound_to 6896
  151.4108  133.3688  159.2778 H   0  0  0  0  0  0  0  0  0  0  0  0  # atno 6909 bound_to 6896
  144.9644  140.7481  143.4709 H   0  0  0  0  0  0  0  0  0  0  0  0  # atno 7974 bound_to 7965
  154.4925  140.2123  155.9518 H   0  0  0  0  0  0  0  0  0  0  0  0  # atno 8008 bound_to 7997
  156.1324  140.3194  155.8338 H   0  0  0  0  0  0  0  0  0  0  0  0  # atno 8009 bound_to 7997
  155.4271  140.0501  157.3012 H   0  0  0  0  0  0  0  0  0  0  0  0  # atno 8010 bound_to 7997
  139.6490  144.7127  151.2085 H   0  0  0  0  0  0  0  0  0  0  0  0  # atno 10167 bound_to 10162
  156.0859  130.4208  150.1126 H   0  0  0  0  0  0  0  0  0  0  0  0  # atno 10718 bound_to 10713
  154.4539  135.2765  155.1761 H   0  0  0  0  0  0  0  0  0  0  0  0  # atno 10763 bound_to 10752
  154.3577  135.6136  153.5678 H   0  0  0  0  0  0  0  0  0  0  0  0  # atno 10764 bound_to 10752
  152.9849  135.5826  154.4889 H   0  0  0  0  0  0  0  0  0  0  0  0  # atno 10765 bound_to 10752
  141.1506  133.6717  156.6280 H   0  0  0  0  0  0  0  0  0  0  0  0  # atno 11005 bound_to 11000
  145.2651  139.1977  143.4871 LP  0  0  0  0  0  0  0  0  0  0  0  0  # atno 17320 bound_to 7965
  146.3363  140.2588  142.8601 LP  0  0  0  0  0  0  0  0  0  0  0  0  # atno 17321 bound_to 7965
  140.7529  143.6182  150.8539 LP  0  0  0  0  0  0  0  0  0  0  0  0  # atno 17342 bound_to 10162
  139.9828  143.5933  152.2937 LP  0  0  0  0  0  0  0  0  0  0  0  0  # atno 17343 bound_to 10162
  156.9147  130.9663  151.3557 LP  0  0  0  0  0  0  0  0  0  0  0  0  # atno 17370 bound_to 10713
  157.5993  130.8501  149.8778 LP  0  0  0  0  0  0  0  0  0  0  0  0  # atno 17371 bound_to 10713
  140.3489  134.7785  157.4452 LP  0  0  0  0  0  0  0  0  0  0  0  0  # atno 17394 bound_to 11000
  140.0877  134.5644  155.8476 LP  0  0  0  0  0  0  0  0  0  0  0  0  # atno 17395 bound_to 11000

$$$$
