AV-unprocessed.smi:2510|AV-procd|sdf|9873|dock8
  -GOLD-   2272013503D 1   1.00000     0.00000
 Structure written by MMmdl.
 48 49  0  0  0  0  0  0  0  0  1 V2000
  149.8300  139.7930  157.1426 C   0  0  0  0  0  0  0  0  0  0  0  0
  150.9347  139.0998  156.3277 C   0  0  0  0  0  0  0  0  0  0  0  0
  150.4412  138.3254  155.0804 C   0  0  0  0  0  0  0  0  0  0  0  0
  151.6486  137.6303  154.4034 C   0  0  0  0  0  0  0  0  0  0  0  0
  152.9552  138.4390  154.4142 C   0  0  0  0  0  0  0  0  0  0  0  0
  149.1623  137.4754  155.3526 C   0  0  2  0  0  0  0  0  0  0  0  0
  149.0463  136.2921  154.5011 N   0  0  0  0  0  0  0  0  0  0  0  0
  148.6908  135.0713  154.9293 C   0  0  0  0  0  0  0  0  0  0  0  0
  148.3355  134.8349  156.0837 O   0  0  0  0  0  0  0  0  0  0  0  0
  148.7712  133.9410  153.9016 C   0  0  0  0  0  0  0  0  0  0  0  0
  147.3845  133.4807  153.5339 C   0  0  0  0  0  0  0  0  0  0  0  0
  146.8400  133.2951  152.2283 C   0  0  0  0  0  0  0  0  0  0  0  0
  145.5722  132.8378  152.4522 C   0  0  0  0  0  0  0  0  0  0  0  0
  144.4860  132.4422  151.5112 C   0  0  0  0  0  0  0  0  0  0  0  0
  145.4188  132.7836  153.8182 N   0  0  0  0  0  0  0  0  0  0  0  0
  146.5171  133.1761  154.4895 N   0  0  0  0  0  0  0  0  0  0  0  0
  148.2938  138.6383  154.8392 C   0  0  2  0  0  0  0  0  0  0  0  0
  147.0124  138.3641  154.0556 C   0  0  0  0  0  0  0  0  0  0  0  0
  149.5488  139.1368  154.1085 C   0  0  1  0  0  0  0  0  0  0  0  0
  149.7784  140.5359  154.1878 O   0  0  0  0  0  0  0  0  0  0  0  0
  148.6024  141.3047  154.0081 C   0  0  0  0  0  0  0  0  0  0  0  0
  144.5827  132.4840  154.2995 H   0  0  0  0  0  0  0  0  0  0  0  0
  150.2665  140.4089  157.9288 H   0  0  0  0  0  0  0  0  0  0  0  0
  149.1720  139.0732  157.6288 H   0  0  0  0  0  0  0  0  0  0  0  0
  149.2161  140.4430  156.5196 H   0  0  0  0  0  0  0  0  0  0  0  0
  151.6426  139.8715  156.0246 H   0  0  0  0  0  0  0  0  0  0  0  0
  151.5107  138.4510  156.9869 H   0  0  0  0  0  0  0  0  0  0  0  0
  151.8237  136.6442  154.8329 H   0  0  0  0  0  0  0  0  0  0  0  0
  151.4246  137.4386  153.3544 H   0  0  0  0  0  0  0  0  0  0  0  0
  153.7146  137.9428  153.8101 H   0  0  0  0  0  0  0  0  0  0  0  0
  153.3630  138.5426  155.4190 H   0  0  0  0  0  0  0  0  0  0  0  0
  152.8076  139.4376  154.0023 H   0  0  0  0  0  0  0  0  0  0  0  0
  148.9795  137.2695  156.4084 H   0  0  0  0  0  0  0  0  0  0  0  0
  149.3196  136.3961  153.5345 H   0  0  0  0  0  0  0  0  0  0  0  0
  149.3135  134.2842  153.0193 H   0  0  0  0  0  0  0  0  0  0  0  0
  149.3484  133.1168  154.3221 H   0  0  0  0  0  0  0  0  0  0  0  0
  147.3157  133.4604  151.2727 H   0  0  0  0  0  0  0  0  0  0  0  0
  144.8606  132.3795  150.4894 H   0  0  0  0  0  0  0  0  0  0  0  0
  143.6745  133.1698  151.5289 H   0  0  0  0  0  0  0  0  0  0  0  0
  144.0757  131.4683  151.7791 H   0  0  0  0  0  0  0  0  0  0  0  0
  148.0809  139.3015  155.6794 H   0  0  0  0  0  0  0  0  0  0  0  0
  147.2157  137.8556  153.1129 H   0  0  0  0  0  0  0  0  0  0  0  0
  146.4869  139.2890  153.8196 H   0  0  0  0  0  0  0  0  0  0  0  0
  146.3282  137.7380  154.6283 H   0  0  0  0  0  0  0  0  0  0  0  0
  149.6144  138.7561  153.0866 H   0  0  0  0  0  0  0  0  0  0  0  0
  148.8528  142.3649  154.0378 H   0  0  0  0  0  0  0  0  0  0  0  0
  147.8767  141.1121  154.7980 H   0  0  0  0  0  0  0  0  0  0  0  0
  148.1371  141.0959  153.0441 H   0  0  0  0  0  0  0  0  0  0  0  0
  1  2  1  0  0  0  0
  1 23  1  0  0  0  0
  1 24  1  0  0  0  0
  1 25  1  0  0  0  0
  2  3  1  0  0  0  0
  2 26  1  0  0  0  0
  2 27  1  0  0  0  0
  3 19  1  0  0  0  0
  3  4  1  0  0  0  0
  3  6  1  0  0  0  0
  4  5  1  0  0  0  0
  4 28  1  0  0  0  0
  4 29  1  0  0  0  0
  5 30  1  0  0  0  0
  5 31  1  0  0  0  0
  5 32  1  0  0  0  0
  6  7  1  0  0  0  0
  6 17  1  0  0  0  0
  6 33  1  0  0  0  0
  7  8  1  0  0  0  0
  7 34  1  0  0  0  0
  8  9  2  0  0  0  0
  8 10  1  0  0  0  0
 10 11  1  0  0  0  0
 10 35  1  0  0  0  0
 10 36  1  0  0  0  0
 11 16  2  0  0  0  0
 11 12  1  0  0  0  0
 12 13  2  0  0  0  0
 12 37  1  0  0  0  0
 13 14  1  0  0  0  0
 13 15  1  0  0  0  0
 14 38  1  0  0  0  0
 14 39  1  0  0  0  0
 14 40  1  0  0  0  0
 15 22  1  0  0  0  0
 15 16  1  0  0  0  0
 17 18  1  0  0  0  0
 17 19  1  0  0  0  0
 17 41  1  0  0  0  0
 18 42  1  0  0  0  0
 18 43  1  0  0  0  0
 18 44  1  0  0  0  0
 19 20  1  0  0  0  0
 19 45  1  0  0  0  0
 20 21  1  0  0  0  0
 21 46  1  0  0  0  0
 21 47  1  0  0  0  0
 21 48  1  0  0  0  0
M  END
> <s_m_source_file>
AV-unprocessed.smi

> <i_m_source_file_index>
2510

> <i_lp_mmshare_version>
43012

> <i_f3d_flags>
0

> <s_epik_input>
W0NIM11PW0NAQEhdMVtDQEhdKFtDSDNdKVtDQEBIXShDMShbQ0gyXVtDSDNdKVtDSDJdW0NIM10pW05IXUMoPU8pW0NIMl1jMltjSF1jKFtDSDNdKVtuSF1uMg==

> <s_epik_cmdline>
J2VwaWtfcHl0aG9uJywgJy1waCcsICc3LjAnLCAnLXRuJywgJzgnLCAnLW1hJywgJzIwMCcsICctbWV0YWxfYmluZGluZycsICctaW1hZScsICc8aW5maWxlLm1hZT4nLCAnLW9tYWUnLCAnPG91dGZpbGUubWFlPic=

> <r_lp_tautomer_probability>
0.5

> <r_epik_Ionization_Penalty>
9.73156e-05

> <r_epik_Ionization_Penalty_Charging>
0

> <r_epik_Ionization_Penalty_Neutral>
9.73156e-05

> <r_epik_State_Penalty>
0.41068

> <r_epik_Charging_Adjusted_Penalty>
0.41068

> <i_epik_Tot_Q>
0

> <i_epik_Tot_abs_Q>
0

> <r_epik_Metal_State_Penalty>
0.410699

> <b_epik_Metal_Only>
0

> <s_lp_Force_Field>
OPLS_2005

> <r_lp_Energy>
25.1692

> <b_lp_Chiralities_Consistent>
1

> <s_lp_Variant>
AV-unprocessed.smi:2510-4

> <Gold.Version>
5.8.1

> <Gold.Id.Protein>
6NUR|6NUR_protein|mol2

> <Gold.PLP.Fitness>
35.3008

> <Gold.PLP.PLP>
-28.5851

> <Gold.PLP.part.hbond>
-3.0000

> <Gold.PLP.part.metal>
0.0000

> <Gold.PLP.part.buried>
-2.8105

> <Gold.PLP.part.nonpolar>
-23.8387

> <Gold.PLP.part.repulsive>
0.2134

> <Gold.PLP.ligand.clash>
0.0053

> <Gold.PLP.ligand.torsion>
1.0542

> <Gold.PLP.Chemscore.Hbond>
2.7433

> <Gold.PLP.Chemscore.CHOScore>
0.0000

> <Gold.PLP.Chemscore.Metal>
0.0000

> <Gold.Chemscore.Hbonds>
donor molecule, donor type, donor heavy atom, donor atom, acceptor molecule, acceptor atom, score
      L1  H     7    34       P1  7948  1.00
      L1  H    15    22       P1 10957  0.86
      P1  H  7989  7998       L1    20  0.72

> <Gold.PLP.Chemscore.Internal.Correction>
0.5998

> <Gold.Rescore>
     Score         DG    S(hbond)    S(metal)    S(lipo)     H(rot)  DE(clash)    DE(int)     intcor
     13.87     -18.10       2.41        0.00      78.67       1.81       0.07       4.16       ----

> <Gold.Chemscore.Fitness>
13.8688

> <Gold.Chemscore.DG>
-18.1004

> <Gold.Chemscore.ZeroCoef>
-5.4800

> <Gold.Chemscore.Hbond>
2.4102

> <Gold.Chemscore.Metal>
0.0000

> <Gold.Chemscore.Lipo>
78.6701

> <Gold.Chemscore.Internal_Hbond>
0.0000

> <Gold.Chemscore.DEClash>
0.0677

> <Gold.Chemscore.DEInternal>
4.1640

> <Gold.Chemscore.Rot>
1.8102

> <Gold.Chemscore.Internal.Correction>
   9.000000E+99

> <Gold.Chemscore.Hbonds>
donor molecule, donor type, donor heavy atom, donor atom, acceptor molecule, acceptor atom, score
      L1  H     7    34       P1  7948  0.84
      L1  H    15    22       P1 10957  0.55
      P1  H  7989  7998       L1    20  0.45

> <Gold.Chemscore.Hbond.Weighted>
-8.0501

> <Gold.Chemscore.Metal.Weighted>
-0.0000

> <Gold.Chemscore.Lipo.Weighted>
-9.2044

> <Gold.Chemscore.Internal_Hbond.Weighted>
0.0000

> <Gold.Chemscore.DEClash.Weighted>
0.0677

> <Gold.Chemscore.DEInternal.Weighted>
4.1640

> <Gold.Chemscore.Rot.Weighted>
4.6341

> <Gold.Chemscore.Internal.Correction.Weighted>
   9.000000E+99

> <Gold.Protein.RotatedTorsions>
[ 6907 6896 6895 6894 ] final  134.42 input  -60.11 | X-H torsion
[ 7974 7965 7964 7962 ] final  156.00 input  175.53 | X-H torsion
[ 8008 7997 7996 7995 ] final  133.71 input   59.86 | X-H torsion
[ 10167 10162 10161 10158 ] final  112.33 input  -65.29 | X-H torsion
[ 10718 10713 10712 10709 ] final  111.34 input   66.30 | X-H torsion
[ 10763 10752 10751 10750 ] final  149.68 input  -60.55 | X-H torsion
[ 11005 11000 10999 10996 ] final -147.36 input  -57.11 | X-H torsion

> <Gold.Protein.ActiveResidues>
 VAL166  LYS551  ARG553  GLY616  TRP617  ASP618  TYR619  PRO620  LYS621  CYS622 
 ASP623  PHE694  ASN695  SER759  ASP760  ASP761  ALA762  ILE779  LEU786  VAL792 
 PHE793  MET794  SER795  GLU796  ALA797  LYS798  CYS799  TRP800  GLU811  SER814 

> <Gold.Protein.RotatedAtoms>
  152.3115  133.5758  159.5683 H   0  0  0  0  0  0  0  0  0  0  0  0  # atno 6907 bound_to 6896
  150.7325  134.0145  159.3689 H   0  0  0  0  0  0  0  0  0  0  0  0  # atno 6908 bound_to 6896
  151.8037  135.0701  160.0454 H   0  0  0  0  0  0  0  0  0  0  0  0  # atno 6909 bound_to 6896
  144.7990  139.7145  143.6190 H   0  0  0  0  0  0  0  0  0  0  0  0  # atno 7974 bound_to 7965
  156.2994  140.2514  156.3297 H   0  0  0  0  0  0  0  0  0  0  0  0  # atno 8008 bound_to 7997
  154.9156  140.0402  157.1989 H   0  0  0  0  0  0  0  0  0  0  0  0  # atno 8009 bound_to 7997
  154.8361  140.2883  155.5694 H   0  0  0  0  0  0  0  0  0  0  0  0  # atno 8010 bound_to 7997
  139.6543  144.7129  151.1987 H   0  0  0  0  0  0  0  0  0  0  0  0  # atno 10167 bound_to 10162
  157.6449  131.0949  150.6735 H   0  0  0  0  0  0  0  0  0  0  0  0  # atno 10718 bound_to 10713
  154.0750  135.2863  155.3301 H   0  0  0  0  0  0  0  0  0  0  0  0  # atno 10763 bound_to 10752
  154.6721  135.5295  153.8155 H   0  0  0  0  0  0  0  0  0  0  0  0  # atno 10764 bound_to 10752
  153.0470  135.6560  154.0929 H   0  0  0  0  0  0  0  0  0  0  0  0  # atno 10765 bound_to 10752
  140.7724  134.3174  157.5071 H   0  0  0  0  0  0  0  0  0  0  0  0  # atno 11005 bound_to 11000
  146.2266  139.5734  142.9583 LP  0  0  0  0  0  0  0  0  0  0  0  0  # atno 17320 bound_to 7965
  145.5602  141.0405  143.2230 LP  0  0  0  0  0  0  0  0  0  0  0  0  # atno 17321 bound_to 7965
  140.7552  143.6098  150.8617 LP  0  0  0  0  0  0  0  0  0  0  0  0  # atno 17342 bound_to 10162
  139.9749  143.6015  152.2962 LP  0  0  0  0  0  0  0  0  0  0  0  0  # atno 17343 bound_to 10162
  156.7053  130.4635  149.5562 LP  0  0  0  0  0  0  0  0  0  0  0  0  # atno 17370 bound_to 10713
  156.1767  130.6472  151.0902 LP  0  0  0  0  0  0  0  0  0  0  0  0  # atno 17371 bound_to 10713
  139.8754  134.9269  156.3411 LP  0  0  0  0  0  0  0  0  0  0  0  0  # atno 17394 bound_to 11000
  140.9561  133.7419  156.0337 LP  0  0  0  0  0  0  0  0  0  0  0  0  # atno 17395 bound_to 11000

$$$$
