AV-unprocessed.smi:1399|AV-procd|sdf|5683|dock1
  -GOLD-   22720 5303D 1   1.00000     0.00000
 Structure written by MMmdl.
 38 39  0  0  0  0  0  0  0  0  2 V2000
  146.0447  133.8859  150.4523 N   0  0  0  0  0  0  0  0  0  0  0  0
  145.5841  134.5217  151.5318 C   0  0  0  0  0  0  0  0  0  0  0  0
  145.9698  134.2493  152.6672 O   0  0  0  0  0  0  0  0  0  0  0  0
  144.5274  135.6061  151.2975 C   0  0  0  0  0  0  0  0  0  0  0  0
  144.9902  136.9635  151.6863 N   0  3  2  0  0  0  0  0  0  0  0  0
  146.0783  137.4635  150.8078 C   0  0  0  0  0  0  0  0  0  0  0  0
  146.4287  138.9266  151.1342 C   0  0  0  0  0  0  0  0  0  0  0  0
  146.7901  139.1186  152.6174 C   0  0  2  0  0  0  0  0  0  0  0  0
  148.0883  138.5119  152.9150 N   0  0  0  0  0  0  0  0  0  0  0  0
  149.0831  139.0802  153.6123 C   0  0  0  0  0  0  0  0  0  0  0  0
  149.0200  140.2077  154.1009 O   0  0  0  0  0  0  0  0  0  0  0  0
  150.1414  138.2587  153.7022 N   0  0  0  0  0  0  0  0  0  0  0  0
  151.3764  138.5177  154.3475 C   0  0  0  0  0  0  0  0  0  0  0  0
  151.6900  139.4931  155.3393 C   0  0  0  0  0  0  0  0  0  0  0  0
  152.9651  139.4223  155.6944 N   0  0  0  0  0  0  0  0  0  0  0  0
  153.4666  138.4172  154.9419 N   0  0  0  0  0  0  0  0  0  0  0  0
  152.5346  137.8399  154.1084 C   0  0  0  0  0  0  0  0  0  0  0  0
  145.6900  138.5185  153.5103 C   0  0  0  0  0  0  0  0  0  0  0  0
  145.3595  137.0658  153.1238 C   0  0  0  0  0  0  0  0  0  0  0  0
  154.4359  138.1406  155.0081 H   0  0  0  0  0  0  0  0  0  0  0  0
  146.7381  133.1589  150.5586 H   0  0  0  0  0  0  0  0  0  0  0  0
  145.6994  134.1240  149.5335 H   0  0  0  0  0  0  0  0  0  0  0  0
  144.2008  135.6058  150.2561 H   0  0  0  0  0  0  0  0  0  0  0  0
  143.6603  135.3281  151.8980 H   0  0  0  0  0  0  0  0  0  0  0  0
  146.9578  136.8268  150.9170 H   0  0  0  0  0  0  0  0  0  0  0  0
  145.7692  137.3974  149.7641 H   0  0  0  0  0  0  0  0  0  0  0  0
  147.2463  139.2686  150.4982 H   0  0  0  0  0  0  0  0  0  0  0  0
  145.5731  139.5584  150.8913 H   0  0  0  0  0  0  0  0  0  0  0  0
  146.8336  140.1909  152.8143 H   0  0  0  0  0  0  0  0  0  0  0  0
  148.2447  137.5814  152.5570 H   0  0  0  0  0  0  0  0  0  0  0  0
  150.0573  137.3546  153.2612 H   0  0  0  0  0  0  0  0  0  0  0  0
  151.0601  140.2356  155.8061 H   0  0  0  0  0  0  0  0  0  0  0  0
  152.7717  137.0244  153.4410 H   0  0  0  0  0  0  0  0  0  0  0  0
  145.9840  138.5709  154.5595 H   0  0  0  0  0  0  0  0  0  0  0  0
  144.7866  139.1231  153.4192 H   0  0  0  0  0  0  0  0  0  0  0  0
  144.5401  136.7114  153.7494 H   0  0  0  0  0  0  0  0  0  0  0  0
  146.2117  136.4161  153.3293 H   0  0  0  0  0  0  0  0  0  0  0  0
  144.2019  137.5785  151.5398 H   0  0  0  0  0  0  0  0  0  0  0  0
  1  2  1  0  0  0  0
  1 21  1  0  0  0  0
  1 22  1  0  0  0  0
  2  3  2  0  0  0  0
  2  4  1  0  0  0  0
  4  5  1  0  0  0  0
  4 23  1  0  0  0  0
  4 24  1  0  0  0  0
  5 19  1  0  0  0  0
  5  6  1  0  0  0  0
  5 38  1  0  0  0  0
  6  7  1  0  0  0  0
  6 25  1  0  0  0  0
  6 26  1  0  0  0  0
  7  8  1  0  0  0  0
  7 27  1  0  0  0  0
  7 28  1  0  0  0  0
  8  9  1  0  0  0  0
  8 18  1  0  0  0  0
  8 29  1  0  0  0  0
  9 10  1  0  0  0  0
  9 30  1  0  0  0  0
 10 11  2  0  0  0  0
 10 12  1  0  0  0  0
 12 13  1  0  0  0  0
 12 31  1  0  0  0  0
 13 17  2  0  0  0  0
 13 14  1  0  0  0  0
 14 15  2  0  0  0  0
 14 32  1  0  0  0  0
 15 16  1  0  0  0  0
 16 20  1  0  0  0  0
 16 17  1  0  0  0  0
 17 33  1  0  0  0  0
 18 19  1  0  0  0  0
 18 34  1  0  0  0  0
 18 35  1  0  0  0  0
 19 36  1  0  0  0  0
 19 37  1  0  0  0  0
M  CHG  1   5   1
M  END
> <s_m_source_file>
AV-unprocessed.smi

> <i_m_source_file_index>
1399

> <i_lp_mmshare_version>
43012

> <i_f3d_flags>
0

> <s_epik_input>
W05IMl1DKD1PKVtDSDJdTjFbQ0gyXVtDSDJdW0NIXShbQ0gyXVtDSDJdMSlbTkhdQyg9TylbTkhdYzJbY0hdbltuSF1bY0hdMg==

> <s_epik_cmdline>
J2VwaWtfcHl0aG9uJywgJy1waCcsICc3LjAnLCAnLXRuJywgJzgnLCAnLW1hJywgJzIwMCcsICctbWV0YWxfYmluZGluZycsICctaW1hZScsICc8aW5maWxlLm1hZT4nLCAnLW9tYWUnLCAnPG91dGZpbGUubWFlPic=

> <r_lp_tautomer_probability>
0.5

> <r_epik_Ionization_Penalty>
0.838927

> <r_epik_Ionization_Penalty_Charging>
0.838844

> <r_epik_Ionization_Penalty_Neutral>
8.28742e-05

> <r_epik_State_Penalty>
0.8734

> <r_epik_Charging_Adjusted_Penalty>
1.71224

> <i_epik_Tot_Q>
1

> <i_epik_Tot_abs_Q>
1

> <r_epik_Metal_State_Penalty>
0.890702

> <b_epik_Metal_Only>
0

> <s_lp_Force_Field>
OPLS_2005

> <r_lp_Energy>
14.6422

> <b_lp_Chiralities_Consistent>
1

> <s_lp_Variant>
AV-unprocessed.smi:1399-3

> <Gold.Version>
5.8.1

> <Gold.Id.Protein>
6NUR|6NUR_protein|mol2

> <Gold.PLP.Fitness>
40.2925

> <Gold.PLP.PLP>
-26.4986

> <Gold.PLP.part.hbond>
-6.5789

> <Gold.PLP.part.metal>
0.0000

> <Gold.PLP.part.buried>
8.1915

> <Gold.PLP.part.nonpolar>
-28.9216

> <Gold.PLP.part.repulsive>
1.4013

> <Gold.PLP.ligand.clash>
0.0000

> <Gold.PLP.ligand.torsion>
0.2939

> <Gold.PLP.Chemscore.Hbond>
4.2859

> <Gold.PLP.Chemscore.CHOScore>
0.4777

> <Gold.PLP.Chemscore.Metal>
0.0000

> <Gold.Chemscore.Hbonds>
donor molecule, donor type, donor heavy atom, donor atom, acceptor molecule, acceptor atom, score
      L1  H     1    22       P1  7921  0.87
      L1  H     5    38       P1 10171  0.48
      L1  H     9    30       P1  7948  1.00
      L1  H    12    31       P1  7948  0.79
      P1  H  7997  8009       L1    15  1.00
      L1  C    17    33       P1  7949  0.51

> <Gold.PLP.Chemscore.Internal.Correction>
0.0910

> <Gold.Rescore>
     Score         DG    S(hbond)    S(metal)    S(lipo)     H(rot)  DE(clash)    DE(int)     intcor
     11.58     -18.53       3.14        0.00      67.41       2.09       4.61       2.34       ----

> <Gold.Chemscore.Fitness>
11.5788

> <Gold.Chemscore.DG>
-18.5293

> <Gold.Chemscore.ZeroCoef>
-5.4800

> <Gold.Chemscore.Hbond>
3.1447

> <Gold.Chemscore.Metal>
0.0000

> <Gold.Chemscore.Lipo>
67.4147

> <Gold.Chemscore.Internal_Hbond>
0.0000

> <Gold.Chemscore.DEClash>
4.6096

> <Gold.Chemscore.DEInternal>
2.3409

> <Gold.Chemscore.Rot>
2.0865

> <Gold.Chemscore.Internal.Correction>
   9.000000E+99

> <Gold.Chemscore.Hbonds>
donor molecule, donor type, donor heavy atom, donor atom, acceptor molecule, acceptor atom, score
      L1  H     1    22       P1  7921  0.49
      L1  H     5    38       P1 10171  0.45
      L1  H     9    30       P1  7948  1.00
      L1  H    12    31       P1  7948  0.17
      P1  H  7997  8009       L1    15  0.35

> <Gold.Chemscore.Hbond.Weighted>
-10.5032

> <Gold.Chemscore.Metal.Weighted>
-0.0000

> <Gold.Chemscore.Lipo.Weighted>
-7.8875

> <Gold.Chemscore.Internal_Hbond.Weighted>
0.0000

> <Gold.Chemscore.DEClash.Weighted>
4.6096

> <Gold.Chemscore.DEInternal.Weighted>
2.3409

> <Gold.Chemscore.Rot.Weighted>
5.3415

> <Gold.Chemscore.Internal.Correction.Weighted>
   9.000000E+99

> <Gold.Protein.RotatedTorsions>
[ 6907 6896 6895 6894 ] final -178.66 input  -60.11 | X-H torsion
[ 7974 7965 7964 7962 ] final -127.08 input  175.53 | X-H torsion
[ 8008 7997 7996 7995 ] final -163.25 input   59.86 | X-H torsion
[ 10167 10162 10161 10158 ] final  -50.12 input  -65.29 | X-H torsion
[ 10718 10713 10712 10709 ] final   53.20 input   66.30 | X-H torsion
[ 10763 10752 10751 10750 ] final  -99.51 input  -60.55 | X-H torsion
[ 11005 11000 10999 10996 ] final  179.26 input  -57.11 | X-H torsion

> <Gold.Protein.ActiveResidues>
 VAL166  LYS551  ARG553  GLY616  TRP617  ASP618  TYR619  PRO620  LYS621  CYS622 
 ASP623  PHE694  ASN695  SER759  ASP760  ASP761  ALA762  ILE779  LEU786  VAL792 
 PHE793  MET794  SER795  GLU796  ALA797  LYS798  CYS799  TRP800  GLU811  SER814 

> <Gold.Protein.RotatedAtoms>
  151.6408  133.3326  159.3129 H   0  0  0  0  0  0  0  0  0  0  0  0  # atno 6907 bound_to 6896
  150.8009  134.7106  159.6611 H   0  0  0  0  0  0  0  0  0  0  0  0  # atno 6908 bound_to 6896
  152.4101  134.6144  160.0085 H   0  0  0  0  0  0  0  0  0  0  0  0  # atno 6909 bound_to 6896
  144.9807  140.7637  143.4614 H   0  0  0  0  0  0  0  0  0  0  0  0  # atno 7974 bound_to 7965
  155.8186  140.0916  157.1862 H   0  0  0  0  0  0  0  0  0  0  0  0  # atno 8008 bound_to 7997
  154.3979  140.1441  156.3532 H   0  0  0  0  0  0  0  0  0  0  0  0  # atno 8009 bound_to 7997
  155.8290  140.3443  155.5563 H   0  0  0  0  0  0  0  0  0  0  0  0  # atno 8010 bound_to 7997
  140.6653  143.2670  151.4314 H   0  0  0  0  0  0  0  0  0  0  0  0  # atno 10167 bound_to 10162
  157.5145  130.8523  149.8478 H   0  0  0  0  0  0  0  0  0  0  0  0  # atno 10718 bound_to 10713
  154.7504  135.4969  153.9279 H   0  0  0  0  0  0  0  0  0  0  0  0  # atno 10763 bound_to 10752
  153.1137  135.6715  153.9463 H   0  0  0  0  0  0  0  0  0  0  0  0  # atno 10764 bound_to 10752
  153.9215  135.3088  155.3426 H   0  0  0  0  0  0  0  0  0  0  0  0  # atno 10765 bound_to 10752
  140.4042  134.6750  157.4578 H   0  0  0  0  0  0  0  0  0  0  0  0  # atno 11005 bound_to 11000
  145.2425  139.2066  143.4985 LP  0  0  0  0  0  0  0  0  0  0  0  0  # atno 17320 bound_to 7965
  146.3407  140.2323  142.8593 LP  0  0  0  0  0  0  0  0  0  0  0  0  # atno 17321 bound_to 7965
  139.5899  144.1521  152.2075 LP  0  0  0  0  0  0  0  0  0  0  0  0  # atno 17342 bound_to 10162
  140.0873  144.5650  150.7080 LP  0  0  0  0  0  0  0  0  0  0  0  0  # atno 17343 bound_to 10162
  156.0311  130.3764  150.1685 LP  0  0  0  0  0  0  0  0  0  0  0  0  # atno 17370 bound_to 10713
  156.9874  130.9883  151.3423 LP  0  0  0  0  0  0  0  0  0  0  0  0  # atno 17371 bound_to 10713
  140.0314  134.6400  155.9101 LP  0  0  0  0  0  0  0  0  0  0  0  0  # atno 17394 bound_to 11000
  141.1845  133.6553  156.5161 LP  0  0  0  0  0  0  0  0  0  0  0  0  # atno 17395 bound_to 11000

$$$$
