AV-unprocessed.smi:2791|AV-procd|sdf|10771|dock7
  -GOLD-   2272015203D 1   1.00000     0.00000
 Structure written by MMmdl.
 35 36  0  0  0  0  0  0  0  0  1 V2000
  149.1485  141.0847  154.7719 C   0  0  0  0  0  0  0  0  0  0  0  0
  150.4878  140.6289  154.6325 O   0  0  0  0  0  0  0  0  0  0  0  0
  150.8063  139.4083  155.3021 C   0  0  0  0  0  0  0  0  0  0  0  0
  150.7255  139.5538  156.8280 C   0  0  0  0  0  0  0  0  0  0  0  0
  151.5490  140.6654  157.2841 N   0  0  0  0  0  0  0  0  0  0  0  0
  151.1223  141.6390  158.0979 C   0  0  0  0  0  0  0  0  0  0  0  0
  149.9773  141.6905  158.5478 O   0  0  0  0  0  0  0  0  0  0  0  0
  152.0991  142.5298  158.3423 N   0  0  0  0  0  0  0  0  0  0  0  0
  152.0539  143.6504  159.1110 C   0  0  0  0  0  0  0  0  0  0  0  0
  151.7459  144.9326  158.7457 C   0  0  0  0  0  0  0  0  0  0  0  0
  151.8646  145.6402  159.9761 C   0  0  0  0  0  0  0  0  0  0  0  0
  152.2094  144.8605  160.9935 N   0  0  0  0  0  0  0  0  0  0  0  0
  152.3271  143.6244  160.4613 N   0  0  0  0  0  0  0  0  0  0  0  0
  152.6981  142.5038  161.3035 C   0  0  0  0  0  0  0  0  0  0  0  0
  149.9890  138.2790  154.6464 C   0  0  0  0  0  0  0  0  0  0  0  0
  151.2607  137.4295  154.6139 C   0  0  0  0  0  0  0  0  0  0  0  0
  152.0503  138.7376  154.6853 C   0  0  0  0  0  0  0  0  0  0  0  0
  149.0585  142.0725  154.3205 H   0  0  0  0  0  0  0  0  0  0  0  0
  148.8525  141.1707  155.8176 H   0  0  0  0  0  0  0  0  0  0  0  0
  148.4431  140.4299  154.2608 H   0  0  0  0  0  0  0  0  0  0  0  0
  149.6943  139.7342  157.1352 H   0  0  0  0  0  0  0  0  0  0  0  0
  151.0317  138.6365  157.3317 H   0  0  0  0  0  0  0  0  0  0  0  0
  152.5046  140.6884  156.9594 H   0  0  0  0  0  0  0  0  0  0  0  0
  152.9831  142.3554  157.8874 H   0  0  0  0  0  0  0  0  0  0  0  0
  151.4775  145.3192  157.7743 H   0  0  0  0  0  0  0  0  0  0  0  0
  151.7093  146.6929  160.1608 H   0  0  0  0  0  0  0  0  0  0  0  0
  153.5908  142.0236  160.9019 H   0  0  0  0  0  0  0  0  0  0  0  0
  151.8840  141.7792  161.3278 H   0  0  0  0  0  0  0  0  0  0  0  0
  152.9050  142.8390  162.3207 H   0  0  0  0  0  0  0  0  0  0  0  0
  149.1895  137.8690  155.2641 H   0  0  0  0  0  0  0  0  0  0  0  0
  149.6302  138.5309  153.6466 H   0  0  0  0  0  0  0  0  0  0  0  0
  151.3814  136.8106  155.5047 H   0  0  0  0  0  0  0  0  0  0  0  0
  151.4055  136.8566  153.6975 H   0  0  0  0  0  0  0  0  0  0  0  0
  152.3048  139.1224  153.6960 H   0  0  0  0  0  0  0  0  0  0  0  0
  152.9230  138.7032  155.3383 H   0  0  0  0  0  0  0  0  0  0  0  0
  1  2  1  0  0  0  0
  1 18  1  0  0  0  0
  1 19  1  0  0  0  0
  1 20  1  0  0  0  0
  2  3  1  0  0  0  0
  3 17  1  0  0  0  0
  3  4  1  0  0  0  0
  3 15  1  0  0  0  0
  4  5  1  0  0  0  0
  4 21  1  0  0  0  0
  4 22  1  0  0  0  0
  5  6  1  0  0  0  0
  5 23  1  0  0  0  0
  6  7  2  0  0  0  0
  6  8  1  0  0  0  0
  8  9  1  0  0  0  0
  8 24  1  0  0  0  0
  9 13  1  0  0  0  0
  9 10  2  0  0  0  0
 10 11  1  0  0  0  0
 10 25  1  0  0  0  0
 11 12  2  0  0  0  0
 11 26  1  0  0  0  0
 12 13  1  0  0  0  0
 13 14  1  0  0  0  0
 14 27  1  0  0  0  0
 14 28  1  0  0  0  0
 14 29  1  0  0  0  0
 15 16  1  0  0  0  0
 15 30  1  0  0  0  0
 15 31  1  0  0  0  0
 16 17  1  0  0  0  0
 16 32  1  0  0  0  0
 16 33  1  0  0  0  0
 17 34  1  0  0  0  0
 17 35  1  0  0  0  0
M  END
> <s_m_source_file>
AV-unprocessed.smi

> <i_m_source_file_index>
2791

> <i_lp_mmshare_version>
43012

> <i_f3d_flags>
0

> <s_epik_input>
W0NIMl0xW0NIMl1bQ0gyXUMxKE9bQ0gzXSlbQ0gyXVtOSF1DKD1PKVtOSF1jMltjSF1bY0hdbm4yW0NIM10=

> <s_epik_cmdline>
J2VwaWtfcHl0aG9uJywgJy1waCcsICc3LjAnLCAnLXRuJywgJzgnLCAnLW1hJywgJzIwMCcsICctbWV0YWxfYmluZGluZycsICctaW1hZScsICc8aW5maWxlLm1hZT4nLCAnLW9tYWUnLCAnPG91dGZpbGUubWFlPic=

> <r_lp_tautomer_probability>
1

> <r_epik_Ionization_Penalty>
4.34911e-05

> <r_epik_Ionization_Penalty_Charging>
0

> <r_epik_Ionization_Penalty_Neutral>
4.34911e-05

> <r_epik_State_Penalty>
-0

> <r_epik_Charging_Adjusted_Penalty>
0

> <i_epik_Tot_Q>
0

> <i_epik_Tot_abs_Q>
0

> <r_epik_Metal_State_Penalty>
-0

> <b_epik_Metal_Only>
0

> <s_lp_Force_Field>
OPLS_2005

> <r_lp_Energy>
18.0019

> <b_lp_Chiralities_Consistent>
1

> <s_lp_Variant>
AV-unprocessed.smi:2791-1

> <Gold.Version>
5.8.1

> <Gold.Id.Protein>
6NUR|6NUR_protein|mol2

> <Gold.PLP.Fitness>
40.1965

> <Gold.PLP.PLP>
-39.0707

> <Gold.PLP.part.hbond>
-0.8277

> <Gold.PLP.part.metal>
0.0000

> <Gold.PLP.part.buried>
-4.1218

> <Gold.PLP.part.nonpolar>
-34.8125

> <Gold.PLP.part.repulsive>
0.4792

> <Gold.PLP.ligand.clash>
0.0000

> <Gold.PLP.ligand.torsion>
1.0013

> <Gold.PLP.Chemscore.Hbond>
0.9440

> <Gold.PLP.Chemscore.CHOScore>
0.0000

> <Gold.PLP.Chemscore.Metal>
0.0000

> <Gold.Chemscore.Hbonds>
donor molecule, donor type, donor heavy atom, donor atom, acceptor molecule, acceptor atom, score
      P1  H  7989  7998       L1     2  0.93

> <Gold.PLP.Chemscore.Internal.Correction>
0.2965

> <Gold.Rescore>
     Score         DG    S(hbond)    S(metal)    S(lipo)     H(rot)  DE(clash)    DE(int)     intcor
     12.75     -13.75       0.93        0.00      77.68       1.53       0.05       0.95       ----

> <Gold.Chemscore.Fitness>
12.7499

> <Gold.Chemscore.DG>
-13.7538

> <Gold.Chemscore.ZeroCoef>
-5.4800

> <Gold.Chemscore.Hbond>
0.9316

> <Gold.Chemscore.Metal>
0.0000

> <Gold.Chemscore.Lipo>
77.6831

> <Gold.Chemscore.Internal_Hbond>
0.0000

> <Gold.Chemscore.DEClash>
0.0548

> <Gold.Chemscore.DEInternal>
0.9491

> <Gold.Chemscore.Rot>
1.5339

> <Gold.Chemscore.Internal.Correction>
   9.000000E+99

> <Gold.Chemscore.Hbonds>
donor molecule, donor type, donor heavy atom, donor atom, acceptor molecule, acceptor atom, score
      P1  H  7989  7998       L1     2  0.58

> <Gold.Chemscore.Hbond.Weighted>
-3.1116

> <Gold.Chemscore.Metal.Weighted>
-0.0000

> <Gold.Chemscore.Lipo.Weighted>
-9.0889

> <Gold.Chemscore.Internal_Hbond.Weighted>
0.0000

> <Gold.Chemscore.DEClash.Weighted>
0.0548

> <Gold.Chemscore.DEInternal.Weighted>
0.9491

> <Gold.Chemscore.Rot.Weighted>
3.9267

> <Gold.Chemscore.Internal.Correction.Weighted>
   9.000000E+99

> <Gold.Protein.RotatedTorsions>
[ 6907 6896 6895 6894 ] final   -4.34 input  -60.11 | X-H torsion
[ 7974 7965 7964 7962 ] final  -79.13 input  175.53 | X-H torsion
[ 8008 7997 7996 7995 ] final  -17.15 input   59.86 | X-H torsion
[ 10167 10162 10161 10158 ] final   70.22 input  -65.29 | X-H torsion
[ 10718 10713 10712 10709 ] final   64.16 input   66.30 | X-H torsion
[ 10763 10752 10751 10750 ] final   84.89 input  -60.55 | X-H torsion
[ 11005 11000 10999 10996 ] final  152.21 input  -57.11 | X-H torsion

> <Gold.Protein.ActiveResidues>
 VAL166  LYS551  ARG553  GLY616  TRP617  ASP618  TYR619  PRO620  LYS621  CYS622 
 ASP623  PHE694  ASN695  SER759  ASP760  ASP761  ALA762  ILE779  LEU786  VAL792 
 PHE793  MET794  SER795  GLU796  ALA797  LYS798  CYS799  TRP800  GLU811  SER814 

> <Gold.Protein.RotatedAtoms>
  151.4993  135.1061  159.9824 H   0  0  0  0  0  0  0  0  0  0  0  0  # atno 6907 bound_to 6896
  152.4708  133.8022  159.6969 H   0  0  0  0  0  0  0  0  0  0  0  0  # atno 6908 bound_to 6896
  150.8717  133.7434  159.2985 H   0  0  0  0  0  0  0  0  0  0  0  0  # atno 6909 bound_to 6896
  145.5773  140.9455  143.1363 H   0  0  0  0  0  0  0  0  0  0  0  0  # atno 7974 bound_to 7965
  154.5000  140.2150  155.9367 H   0  0  0  0  0  0  0  0  0  0  0  0  # atno 8008 bound_to 7997
  156.1421  140.3177  155.8479 H   0  0  0  0  0  0  0  0  0  0  0  0  # atno 8009 bound_to 7997
  155.4101  140.0490  157.3023 H   0  0  0  0  0  0  0  0  0  0  0  0  # atno 8010 bound_to 7997
  140.0593  144.5246  150.7306 H   0  0  0  0  0  0  0  0  0  0  0  0  # atno 10167 bound_to 10162
  157.6020  130.9144  149.9809 H   0  0  0  0  0  0  0  0  0  0  0  0  # atno 10718 bound_to 10713
  153.1424  135.4637  154.9515 H   0  0  0  0  0  0  0  0  0  0  0  0  # atno 10763 bound_to 10752
  154.7758  135.3173  154.8098 H   0  0  0  0  0  0  0  0  0  0  0  0  # atno 10764 bound_to 10752
  153.8618  135.6912  153.4836 H   0  0  0  0  0  0  0  0  0  0  0  0  # atno 10765 bound_to 10752
  140.1287  134.8816  157.2174 H   0  0  0  0  0  0  0  0  0  0  0  0  # atno 11005 bound_to 11000
  144.7410  139.7450  143.7311 LP  0  0  0  0  0  0  0  0  0  0  0  0  # atno 17320 bound_to 7965
  146.1741  139.4904  142.9908 LP  0  0  0  0  0  0  0  0  0  0  0  0  # atno 17321 bound_to 7965
  140.7179  143.2561  151.4373 LP  0  0  0  0  0  0  0  0  0  0  0  0  # atno 17342 bound_to 10162
  139.5904  144.1512  152.2081 LP  0  0  0  0  0  0  0  0  0  0  0  0  # atno 17343 bound_to 10162
  156.1096  130.3650  150.0072 LP  0  0  0  0  0  0  0  0  0  0  0  0  # atno 17370 bound_to 10713
  156.8173  130.9346  151.3642 LP  0  0  0  0  0  0  0  0  0  0  0  0  # atno 17371 bound_to 10713
  140.2870  134.3284  155.7326 LP  0  0  0  0  0  0  0  0  0  0  0  0  # atno 17394 bound_to 11000
  141.2166  133.7512  156.9447 LP  0  0  0  0  0  0  0  0  0  0  0  0  # atno 17395 bound_to 11000

$$$$
