AV-unprocessed.smi:1994|AV-procd|sdf|8075|dock1
  -GOLD-   2272010283D 1   1.00000     0.00000
 Structure written by MMmdl.
 40 42  0  0  0  0  0  0  0  0  2 V2000
  151.5314  137.8860  154.9058 C   0  0  0  0  0  0  0  0  0  0  0  0
  150.3880  138.8445  154.8920 C   0  0  0  0  0  0  0  0  0  0  0  0
  149.1384  138.5946  154.4082 N   0  3  0  0  0  0  0  0  0  0  0  0
  148.3379  139.7282  154.5591 C   0  0  0  0  0  0  0  0  0  0  0  0
  147.0080  139.9577  154.2200 C   0  0  0  0  0  0  0  0  0  0  0  0
  146.4924  141.2378  154.5122 C   0  0  0  0  0  0  0  0  0  0  0  0
  147.2903  142.2306  155.1173 C   0  0  0  0  0  0  0  0  0  0  0  0
  148.6379  141.9865  155.4558 C   0  0  0  0  0  0  0  0  0  0  0  0
  149.1385  140.7180  155.1648 C   0  0  0  0  0  0  0  0  0  0  0  0
  150.3923  140.1273  155.3549 N   0  0  0  0  0  0  0  0  0  0  0  0
  151.4692  140.9155  155.9728 C   0  0  0  0  0  0  0  0  0  0  0  0
  151.6407  140.6261  157.4780 C   0  0  1  0  0  0  0  0  0  0  0  0
  152.7155  139.7292  157.6733 O   0  0  0  0  0  0  0  0  0  0  0  0
  151.9110  141.9005  158.2897 C   0  0  0  0  0  0  0  0  0  0  0  0
  152.7593  141.5721  159.3817 O   0  0  0  0  0  0  0  0  0  0  0  0
  152.6571  142.3164  160.5375 C   0  0  0  0  0  0  0  0  0  0  0  0
  151.8211  143.4533  160.6799 C   0  0  0  0  0  0  0  0  0  0  0  0
  151.7763  144.1576  161.8988 C   0  0  0  0  0  0  0  0  0  0  0  0
  152.5636  143.7382  162.9870 C   0  0  0  0  0  0  0  0  0  0  0  0
  153.3969  142.6123  162.8545 C   0  0  0  0  0  0  0  0  0  0  0  0
  153.4423  141.9069  161.6365 C   0  0  0  0  0  0  0  0  0  0  0  0
  154.2473  140.8234  161.5225 F   0  0  0  0  0  0  0  0  0  0  0  0
  151.2033  136.8934  154.5964 H   0  0  0  0  0  0  0  0  0  0  0  0
  151.9532  137.8138  155.9084 H   0  0  0  0  0  0  0  0  0  0  0  0
  152.3115  138.2228  154.2229 H   0  0  0  0  0  0  0  0  0  0  0  0
  146.3950  139.1991  153.7558 H   0  0  0  0  0  0  0  0  0  0  0  0
  145.4643  141.4627  154.2674 H   0  0  0  0  0  0  0  0  0  0  0  0
  146.8605  143.1994  155.3265 H   0  0  0  0  0  0  0  0  0  0  0  0
  149.2418  142.7533  155.9187 H   0  0  0  0  0  0  0  0  0  0  0  0
  152.3932  140.6945  155.4369 H   0  0  0  0  0  0  0  0  0  0  0  0
  151.2610  141.9720  155.7988 H   0  0  0  0  0  0  0  0  0  0  0  0
  150.7427  140.1463  157.8679 H   0  0  0  0  0  0  0  0  0  0  0  0
  152.4948  139.1486  158.3849 H   0  0  0  0  0  0  0  0  0  0  0  0
  152.4026  142.6420  157.6572 H   0  0  0  0  0  0  0  0  0  0  0  0
  150.9702  142.3256  158.6440 H   0  0  0  0  0  0  0  0  0  0  0  0
  151.2046  143.8068  159.8675 H   0  0  0  0  0  0  0  0  0  0  0  0
  151.1364  145.0220  161.9985 H   0  0  0  0  0  0  0  0  0  0  0  0
  152.5285  144.2792  163.9211 H   0  0  0  0  0  0  0  0  0  0  0  0
  154.0022  142.2885  163.6883 H   0  0  0  0  0  0  0  0  0  0  0  0
  148.8567  137.7116  154.0022 H   0  0  0  0  0  0  0  0  0  0  0  0
  1  2  1  0  0  0  0
  1 23  1  0  0  0  0
  1 24  1  0  0  0  0
  1 25  1  0  0  0  0
  2 10  1  0  0  0  0
  2  3  2  0  0  0  0
  3  4  1  0  0  0  0
  3 40  1  0  0  0  0
  4  9  2  0  0  0  0
  4  5  1  0  0  0  0
  5  6  2  0  0  0  0
  5 26  1  0  0  0  0
  6  7  1  0  0  0  0
  6 27  1  0  0  0  0
  7  8  2  0  0  0  0
  7 28  1  0  0  0  0
  8  9  1  0  0  0  0
  8 29  1  0  0  0  0
  9 10  1  0  0  0  0
 10 11  1  0  0  0  0
 11 12  1  0  0  0  0
 11 30  1  0  0  0  0
 11 31  1  0  0  0  0
 12 13  1  0  0  0  0
 12 14  1  0  0  0  0
 12 32  1  0  0  0  0
 13 33  1  0  0  0  0
 14 15  1  0  0  0  0
 14 34  1  0  0  0  0
 14 35  1  0  0  0  0
 15 16  1  0  0  0  0
 16 21  1  0  0  0  0
 16 17  2  0  0  0  0
 17 18  1  0  0  0  0
 17 36  1  0  0  0  0
 18 19  2  0  0  0  0
 18 37  1  0  0  0  0
 19 20  1  0  0  0  0
 19 38  1  0  0  0  0
 20 21  2  0  0  0  0
 20 39  1  0  0  0  0
 21 22  1  0  0  0  0
M  CHG  1   3   1
M  END
> <s_m_source_file>
AV-unprocessed.smi

> <i_m_source_file_index>
1994

> <i_lp_mmshare_version>
43012

> <i_f3d_flags>
0

> <s_epik_input>
W2NIXTFbY0hdW2NIXVtjSF1jKGMxMiluKGMobjIpW0NIM10pW0NIMl1bQ0BIXShbT0hdKVtDSDJdT2MzW2NIXVtjSF1bY0hdW2NIXWMzRg==

> <s_epik_cmdline>
J2VwaWtfcHl0aG9uJywgJy1waCcsICc3LjAnLCAnLXRuJywgJzgnLCAnLW1hJywgJzIwMCcsICctbWV0YWxfYmluZGluZycsICctaW1hZScsICc8aW5maWxlLm1hZT4nLCAnLW9tYWUnLCAnPG91dGZpbGUubWFlPic=

> <r_lp_tautomer_probability>
1

> <r_epik_Ionization_Penalty>
1.03916

> <r_epik_Ionization_Penalty_Charging>
1.03916

> <r_epik_Ionization_Penalty_Neutral>
2.3993e-06

> <r_epik_State_Penalty>
1.09101

> <r_epik_Charging_Adjusted_Penalty>
2.13018

> <i_epik_Tot_Q>
1

> <i_epik_Tot_abs_Q>
1

> <r_epik_Metal_State_Penalty>
5.08156

> <b_epik_Metal_Only>
0

> <s_lp_Force_Field>
OPLS_2005

> <r_lp_Energy>
18.0159

> <b_lp_Chiralities_Consistent>
1

> <s_lp_Variant>
AV-unprocessed.smi:1994-4

> <Gold.Version>
5.8.1

> <Gold.Id.Protein>
6NUR|6NUR_protein|mol2

> <Gold.PLP.Fitness>
57.1169

> <Gold.PLP.PLP>
-52.7179

> <Gold.PLP.part.hbond>
-2.0000

> <Gold.PLP.part.metal>
0.0000

> <Gold.PLP.part.buried>
2.5229

> <Gold.PLP.part.nonpolar>
-50.5291

> <Gold.PLP.part.repulsive>
0.0271

> <Gold.PLP.ligand.clash>
0.0000

> <Gold.PLP.ligand.torsion>
1.5107

> <Gold.PLP.Chemscore.Hbond>
2.4633

> <Gold.PLP.Chemscore.CHOScore>
0.0000

> <Gold.PLP.Chemscore.Metal>
0.0000

> <Gold.Chemscore.Hbonds>
donor molecule, donor type, donor heavy atom, donor atom, acceptor molecule, acceptor atom, score
      P1  H  7997  8008       L1    13  1.00

> <Gold.PLP.Chemscore.Internal.Correction>
0.0307

> <Gold.Rescore>
     Score         DG    S(hbond)    S(metal)    S(lipo)     H(rot)  DE(clash)    DE(int)     intcor
     15.87     -18.91       1.02        0.00     135.44       2.27       1.36       1.68       ----

> <Gold.Chemscore.Fitness>
15.8685

> <Gold.Chemscore.DG>
-18.9096

> <Gold.Chemscore.ZeroCoef>
-5.4800

> <Gold.Chemscore.Hbond>
1.0167

> <Gold.Chemscore.Metal>
0.0000

> <Gold.Chemscore.Lipo>
135.4405

> <Gold.Chemscore.Internal_Hbond>
0.0000

> <Gold.Chemscore.DEClash>
1.3591

> <Gold.Chemscore.DEInternal>
1.6819

> <Gold.Chemscore.Rot>
2.2706

> <Gold.Chemscore.Internal.Correction>
   9.000000E+99

> <Gold.Chemscore.Hbonds>
donor molecule, donor type, donor heavy atom, donor atom, acceptor molecule, acceptor atom, score
      P1  H  7997  8008       L1    13  0.95

> <Gold.Chemscore.Hbond.Weighted>
-3.3959

> <Gold.Chemscore.Metal.Weighted>
-0.0000

> <Gold.Chemscore.Lipo.Weighted>
-15.8465

> <Gold.Chemscore.Internal_Hbond.Weighted>
0.0000

> <Gold.Chemscore.DEClash.Weighted>
1.3591

> <Gold.Chemscore.DEInternal.Weighted>
1.6819

> <Gold.Chemscore.Rot.Weighted>
5.8128

> <Gold.Chemscore.Internal.Correction.Weighted>
   9.000000E+99

> <Gold.Protein.RotatedTorsions>
[ 6907 6896 6895 6894 ] final  126.45 input  -60.11 | X-H torsion
[ 7974 7965 7964 7962 ] final   24.15 input  175.53 | X-H torsion
[ 8008 7997 7996 7995 ] final  -82.08 input   59.86 | X-H torsion
[ 10167 10162 10161 10158 ] final   39.17 input  -65.29 | X-H torsion
[ 10718 10713 10712 10709 ] final -139.01 input   66.30 | X-H torsion
[ 10763 10752 10751 10750 ] final -126.37 input  -60.55 | X-H torsion
[ 11005 11000 10999 10996 ] final  -35.27 input  -57.11 | X-H torsion

> <Gold.Protein.ActiveResidues>
 VAL166  LYS551  ARG553  GLY616  TRP617  ASP618  TYR619  PRO620  LYS621  CYS622 
 ASP623  PHE694  ASN695  SER759  ASP760  ASP761  ALA762  ILE779  LEU786  VAL792 
 PHE793  MET794  SER795  GLU796  ALA797  LYS798  CYS799  TRP800  GLU811  SER814 

> <Gold.Protein.RotatedAtoms>
  152.3903  133.6669  159.6231 H   0  0  0  0  0  0  0  0  0  0  0  0  # atno 6907 bound_to 6896
  150.7812  133.8966  159.3338 H   0  0  0  0  0  0  0  0  0  0  0  0  # atno 6908 bound_to 6896
  151.6754  135.0971  160.0257 H   0  0  0  0  0  0  0  0  0  0  0  0  # atno 6909 bound_to 6896
  146.1951  139.7645  142.8803 H   0  0  0  0  0  0  0  0  0  0  0  0  # atno 7974 bound_to 7965
  154.6049  140.0638  156.9417 H   0  0  0  0  0  0  0  0  0  0  0  0  # atno 8008 bound_to 7997
  155.2070  140.3319  155.4316 H   0  0  0  0  0  0  0  0  0  0  0  0  # atno 8009 bound_to 7997
  156.2341  140.1854  156.7149 H   0  0  0  0  0  0  0  0  0  0  0  0  # atno 8010 bound_to 7997
  140.3866  144.1909  150.6130 H   0  0  0  0  0  0  0  0  0  0  0  0  # atno 10167 bound_to 10162
  156.3059  130.7454  151.1518 H   0  0  0  0  0  0  0  0  0  0  0  0  # atno 10718 bound_to 10713
  154.8745  135.3998  154.3420 H   0  0  0  0  0  0  0  0  0  0  0  0  # atno 10763 bound_to 10752
  153.4218  135.7023  153.6294 H   0  0  0  0  0  0  0  0  0  0  0  0  # atno 10764 bound_to 10752
  153.4953  135.3739  155.2482 H   0  0  0  0  0  0  0  0  0  0  0  0  # atno 10765 bound_to 10752
  140.9783  133.7070  156.1640 H   0  0  0  0  0  0  0  0  0  0  0  0  # atno 11005 bound_to 11000
  145.3669  141.0336  143.3253 LP  0  0  0  0  0  0  0  0  0  0  0  0  # atno 17320 bound_to 7965
  144.8564  139.5243  143.6832 LP  0  0  0  0  0  0  0  0  0  0  0  0  # atno 17321 bound_to 7965
  140.4883  143.2356  151.8855 LP  0  0  0  0  0  0  0  0  0  0  0  0  # atno 17342 bound_to 10162
  139.4791  144.5194  151.8823 LP  0  0  0  0  0  0  0  0  0  0  0  0  # atno 17343 bound_to 10162
  157.7379  131.0546  150.5325 LP  0  0  0  0  0  0  0  0  0  0  0  0  # atno 17370 bound_to 10713
  156.5459  130.4219  149.6131 LP  0  0  0  0  0  0  0  0  0  0  0  0  # atno 17371 bound_to 10713
  140.7225  134.4342  157.5573 LP  0  0  0  0  0  0  0  0  0  0  0  0  # atno 17394 bound_to 11000
  139.8939  134.8718  156.2200 LP  0  0  0  0  0  0  0  0  0  0  0  0  # atno 17395 bound_to 11000

$$$$
