AV-unprocessed.smi:3230|AV-procd|sdf|12330|dock1
  -GOLD-   2272018183D 1   1.00000     0.00000
 Structure written by MMmdl.
 40 40  0  0  0  0  0  0  0  0  1 V2000
  152.7236  141.6045  160.3477 C   0  0  0  0  0  0  0  0  0  0  0  0
  152.0401  142.9783  160.2782 C   0  0  0  0  0  0  0  0  0  0  0  0
  152.1209  143.6712  158.8939 C   0  0  0  0  0  0  0  0  0  0  0  0
  151.7897  145.1827  158.9957 C   0  0  0  0  0  0  0  0  0  0  0  0
  151.6766  145.7111  160.4337 C   0  0  0  0  0  0  0  0  0  0  0  0
  151.2611  142.9468  157.8194 C   0  0  1  0  0  0  0  0  0  0  0  0
  151.2669  143.7155  156.6313 O   0  0  0  0  0  0  0  0  0  0  0  0
  151.7568  141.5186  157.4940 C   0  0  0  0  0  0  0  0  0  0  0  0
  151.1648  141.0000  156.2655 N   0  0  0  0  0  0  0  0  0  0  0  0
  151.5668  139.8944  155.6194 C   0  0  0  0  0  0  0  0  0  0  0  0
  152.5001  139.1878  155.9995 O   0  0  0  0  0  0  0  0  0  0  0  0
  150.8037  139.5318  154.3449 C   0  0  0  0  0  0  0  0  0  0  0  0
  150.2364  138.1425  154.4556 C   0  0  0  0  0  0  0  0  0  0  0  0
  150.9323  136.9167  154.6476 C   0  0  0  0  0  0  0  0  0  0  0  0
  149.9383  135.9802  154.6706 C   0  0  0  0  0  0  0  0  0  0  0  0
  149.9407  134.4990  154.8343 C   0  0  0  0  0  0  0  0  0  0  0  0
  148.7295  136.5756  154.5044 O   0  0  0  0  0  0  0  0  0  0  0  0
  148.9290  137.9537  154.3666 N   0  0  0  0  0  0  0  0  0  0  0  0
  152.7417  141.2384  161.3743 H   0  0  0  0  0  0  0  0  0  0  0  0
  153.7551  141.6579  159.9988 H   0  0  0  0  0  0  0  0  0  0  0  0
  152.2009  140.8578  159.7512 H   0  0  0  0  0  0  0  0  0  0  0  0
  151.0002  142.8839  160.5925 H   0  0  0  0  0  0  0  0  0  0  0  0
  152.5169  143.6069  161.0286 H   0  0  0  0  0  0  0  0  0  0  0  0
  153.1584  143.5957  158.5649 H   0  0  0  0  0  0  0  0  0  0  0  0
  152.5665  145.7671  158.5041 H   0  0  0  0  0  0  0  0  0  0  0  0
  150.8680  145.4008  158.4548 H   0  0  0  0  0  0  0  0  0  0  0  0
  151.5385  146.7925  160.4335 H   0  0  0  0  0  0  0  0  0  0  0  0
  152.5792  145.4949  161.0055 H   0  0  0  0  0  0  0  0  0  0  0  0
  150.8289  145.2792  160.9642 H   0  0  0  0  0  0  0  0  0  0  0  0
  150.2337  142.8774  158.1747 H   0  0  0  0  0  0  0  0  0  0  0  0
  150.3712  143.8691  156.3704 H   0  0  0  0  0  0  0  0  0  0  0  0
  152.8464  141.4614  157.4599 H   0  0  0  0  0  0  0  0  0  0  0  0
  151.4440  140.8351  158.2838 H   0  0  0  0  0  0  0  0  0  0  0  0
  150.3866  141.5168  155.8813 H   0  0  0  0  0  0  0  0  0  0  0  0
  150.0156  140.2657  154.1696 H   0  0  0  0  0  0  0  0  0  0  0  0
  151.4791  139.5957  153.4912 H   0  0  0  0  0  0  0  0  0  0  0  0
  151.9943  136.7522  154.7534 H   0  0  0  0  0  0  0  0  0  0  0  0
  150.9373  134.1365  155.0865 H   0  0  0  0  0  0  0  0  0  0  0  0
  149.6256  134.0085  153.9135 H   0  0  0  0  0  0  0  0  0  0  0  0
  149.2598  134.1965  155.6302 H   0  0  0  0  0  0  0  0  0  0  0  0
  1  2  1  0  0  0  0
  1 19  1  0  0  0  0
  1 20  1  0  0  0  0
  1 21  1  0  0  0  0
  2  3  1  0  0  0  0
  2 22  1  0  0  0  0
  2 23  1  0  0  0  0
  3  4  1  0  0  0  0
  3  6  1  0  0  0  0
  3 24  1  0  0  0  0
  4  5  1  0  0  0  0
  4 25  1  0  0  0  0
  4 26  1  0  0  0  0
  5 27  1  0  0  0  0
  5 28  1  0  0  0  0
  5 29  1  0  0  0  0
  6  7  1  0  0  0  0
  6  8  1  0  0  0  0
  6 30  1  0  0  0  0
  7 31  1  0  0  0  0
  8  9  1  0  0  0  0
  8 32  1  0  0  0  0
  8 33  1  0  0  0  0
  9 10  1  0  0  0  0
  9 34  1  0  0  0  0
 10 11  2  0  0  0  0
 10 12  1  0  0  0  0
 12 13  1  0  0  0  0
 12 35  1  0  0  0  0
 12 36  1  0  0  0  0
 13 18  2  0  0  0  0
 13 14  1  0  0  0  0
 14 15  2  0  0  0  0
 14 37  1  0  0  0  0
 15 16  1  0  0  0  0
 15 17  1  0  0  0  0
 16 38  1  0  0  0  0
 16 39  1  0  0  0  0
 16 40  1  0  0  0  0
 17 18  1  0  0  0  0
M  END
> <s_m_source_file>
AV-unprocessed.smi

> <i_m_source_file_index>
3230

> <i_lp_mmshare_version>
43012

> <i_f3d_flags>
0

> <s_epik_input>
W0NIM11bQ0gyXVtDSF0oW0NIMl1bQ0gzXSlbQ0BIXShbT0hdKVtDSDJdW05IXUMoPU8pW0NIMl1jMVtjSF1jKFtDSDNdKW9uMQ==

> <s_epik_cmdline>
J2VwaWtfcHl0aG9uJywgJy1waCcsICc3LjAnLCAnLXRuJywgJzgnLCAnLW1hJywgJzIwMCcsICctbWV0YWxfYmluZGluZycsICctaW1hZScsICc8aW5maWxlLm1hZT4nLCAnLW9tYWUnLCAnPG91dGZpbGUubWFlPic=

> <r_lp_tautomer_probability>
1

> <r_epik_Ionization_Penalty>
2.40054e-07

> <r_epik_Ionization_Penalty_Charging>
0

> <r_epik_Ionization_Penalty_Neutral>
2.40054e-07

> <r_epik_State_Penalty>
-0

> <r_epik_Charging_Adjusted_Penalty>
0

> <i_epik_Tot_Q>
0

> <i_epik_Tot_abs_Q>
0

> <r_epik_Metal_State_Penalty>
-0

> <b_epik_Metal_Only>
0

> <s_lp_Force_Field>
OPLS_2005

> <r_lp_Energy>
9.12341

> <b_lp_Chiralities_Consistent>
1

> <s_lp_Variant>
AV-unprocessed.smi:3230-2

> <Gold.Version>
5.8.1

> <Gold.Id.Protein>
6NUR|6NUR_protein|mol2

> <Gold.PLP.Fitness>
44.1338

> <Gold.PLP.PLP>
-40.2135

> <Gold.PLP.part.hbond>
-2.0000

> <Gold.PLP.part.metal>
0.0000

> <Gold.PLP.part.buried>
-4.3030

> <Gold.PLP.part.nonpolar>
-33.8536

> <Gold.PLP.part.repulsive>
0.4089

> <Gold.PLP.ligand.clash>
0.0000

> <Gold.PLP.ligand.torsion>
1.0330

> <Gold.PLP.Chemscore.Hbond>
1.8800

> <Gold.PLP.Chemscore.CHOScore>
0.0000

> <Gold.PLP.Chemscore.Metal>
0.0000

> <Gold.Chemscore.Hbonds>
donor molecule, donor type, donor heavy atom, donor atom, acceptor molecule, acceptor atom, score
      L1  H     7    31       P1  8028  1.00
      P1  H  7997  8008       L1    11  0.83

> <Gold.PLP.Chemscore.Internal.Correction>
0.3463

> <Gold.Rescore>
     Score         DG    S(hbond)    S(metal)    S(lipo)     H(rot)  DE(clash)    DE(int)     intcor
     15.19     -17.24       1.85        0.00     104.07       2.57       0.86       1.20       ----

> <Gold.Chemscore.Fitness>
15.1867

> <Gold.Chemscore.DG>
-17.2417

> <Gold.Chemscore.ZeroCoef>
-5.4800

> <Gold.Chemscore.Hbond>
1.8469

> <Gold.Chemscore.Metal>
0.0000

> <Gold.Chemscore.Lipo>
104.0688

> <Gold.Chemscore.Internal_Hbond>
0.0000

> <Gold.Chemscore.DEClash>
0.8559

> <Gold.Chemscore.DEInternal>
1.1991

> <Gold.Chemscore.Rot>
2.5715

> <Gold.Chemscore.Internal.Correction>
   9.000000E+99

> <Gold.Chemscore.Hbonds>
donor molecule, donor type, donor heavy atom, donor atom, acceptor molecule, acceptor atom, score
      L1  H     7    31       P1  8028  0.99
      P1  H  7997  8008       L1    11  0.78

> <Gold.Chemscore.Hbond.Weighted>
-6.1688

> <Gold.Chemscore.Metal.Weighted>
-0.0000

> <Gold.Chemscore.Lipo.Weighted>
-12.1761

> <Gold.Chemscore.Internal_Hbond.Weighted>
0.0000

> <Gold.Chemscore.DEClash.Weighted>
0.8559

> <Gold.Chemscore.DEInternal.Weighted>
1.1991

> <Gold.Chemscore.Rot.Weighted>
6.5831

> <Gold.Chemscore.Internal.Correction.Weighted>
   9.000000E+99

> <Gold.Protein.RotatedTorsions>
[ 6907 6896 6895 6894 ] final   48.62 input  -60.11 | X-H torsion
[ 7974 7965 7964 7962 ] final  159.60 input  175.53 | X-H torsion
[ 8008 7997 7996 7995 ] final  -48.96 input   59.86 | X-H torsion
[ 10167 10162 10161 10158 ] final   14.54 input  -65.29 | X-H torsion
[ 10718 10713 10712 10709 ] final   48.37 input   66.30 | X-H torsion
[ 10763 10752 10751 10750 ] final  -57.05 input  -60.55 | X-H torsion
[ 11005 11000 10999 10996 ] final  -49.05 input  -57.11 | X-H torsion

> <Gold.Protein.ActiveResidues>
 VAL166  LYS551  ARG553  GLY616  TRP617  ASP618  TYR619  PRO620  LYS621  CYS622 
 ASP623  PHE694  ASN695  SER759  ASP760  ASP761  ALA762  ILE779  LEU786  VAL792 
 PHE793  MET794  SER795  GLU796  ALA797  LYS798  CYS799  TRP800  GLU811  SER814 

> <Gold.Protein.RotatedAtoms>
  152.2816  134.7822  160.0395 H   0  0  0  0  0  0  0  0  0  0  0  0  # atno 6907 bound_to 6896
  151.8399  133.3417  159.3648 H   0  0  0  0  0  0  0  0  0  0  0  0  # atno 6908 bound_to 6896
  150.7192  134.5329  159.5754 H   0  0  0  0  0  0  0  0  0  0  0  0  # atno 6909 bound_to 6896
  144.7782  139.7639  143.6270 H   0  0  0  0  0  0  0  0  0  0  0  0  # atno 7974 bound_to 7965
  154.4036  140.1308  156.4424 H   0  0  0  0  0  0  0  0  0  0  0  0  # atno 8008 bound_to 7997
  155.7445  140.3489  155.5100 H   0  0  0  0  0  0  0  0  0  0  0  0  # atno 8009 bound_to 7997
  155.9007  140.1019  157.1342 H   0  0  0  0  0  0  0  0  0  0  0  0  # atno 8010 bound_to 7997
  140.5928  143.8761  150.6890 H   0  0  0  0  0  0  0  0  0  0  0  0  # atno 10167 bound_to 10162
  157.4680  130.8237  149.7957 H   0  0  0  0  0  0  0  0  0  0  0  0  # atno 10718 bound_to 10713
  154.2163  135.6386  153.5130 H   0  0  0  0  0  0  0  0  0  0  0  0  # atno 10763 bound_to 10752
  152.9979  135.5486  154.6162 H   0  0  0  0  0  0  0  0  0  0  0  0  # atno 10764 bound_to 10752
  154.5611  135.2909  155.0892 H   0  0  0  0  0  0  0  0  0  0  0  0  # atno 10765 bound_to 10752
  141.0737  133.6672  156.3530 H   0  0  0  0  0  0  0  0  0  0  0  0  # atno 11005 bound_to 11000
  146.1974  139.5248  142.9765 LP  0  0  0  0  0  0  0  0  0  0  0  0  # atno 17320 bound_to 7965
  145.6126  141.0337  143.1958 LP  0  0  0  0  0  0  0  0  0  0  0  0  # atno 17321 bound_to 7965
  140.2288  143.3752  152.1583 LP  0  0  0  0  0  0  0  0  0  0  0  0  # atno 17342 bound_to 10162
  139.5239  144.7077  151.5304 LP  0  0  0  0  0  0  0  0  0  0  0  0  # atno 17343 bound_to 10162
  156.0059  130.3856  150.2432 LP  0  0  0  0  0  0  0  0  0  0  0  0  # atno 17370 bound_to 10713
  157.0613  131.0090  151.3221 LP  0  0  0  0  0  0  0  0  0  0  0  0  # atno 17371 bound_to 10713
  140.5620  134.5925  157.5436 LP  0  0  0  0  0  0  0  0  0  0  0  0  # atno 17394 bound_to 11000
  139.9549  134.7552  156.0364 LP  0  0  0  0  0  0  0  0  0  0  0  0  # atno 17395 bound_to 11000

$$$$
