AV-unprocessed.smi:1064|AV-procd|sdf|4665|dock6
  -GOLD-   22720 3173D 1   1.00000     0.00000
 Structure written by MMmdl.
 36 37  0  0  0  0  0  0  0  0  2 V2000
  149.9761  140.0929  154.2745 O   0  0  0  0  0  0  0  0  0  0  0  0
  149.2594  141.0326  154.6226 C   0  0  0  0  0  0  0  0  0  0  0  0
  149.6602  141.9312  155.5386 N   0  0  0  0  0  0  0  0  0  0  0  0
  150.9532  141.9271  156.2123 C   0  0  0  0  0  0  0  0  0  0  0  0
  150.7930  141.9181  157.7435 C   0  0  0  0  0  0  0  0  0  0  0  0
  151.1679  143.2094  158.4085 C   0  0  0  0  0  0  0  0  0  0  0  0
  150.7959  144.4358  158.0194 N   0  3  0  0  0  0  0  0  0  0  0  0
  151.3342  145.3846  158.8445 C   0  0  0  0  0  0  0  0  0  0  0  0
  152.0803  144.7093  159.7740 C   0  0  0  0  0  0  0  0  0  0  0  0
  151.9697  143.3752  159.4750 N   0  0  0  0  0  0  0  0  0  0  0  0
  152.6013  142.2700  160.2034 C   0  0  0  0  0  0  0  0  0  0  0  0
  153.5100  141.6699  159.4351 F   0  0  0  0  0  0  0  0  0  0  0  0
  153.1631  142.7109  161.3291 F   0  0  0  0  0  0  0  0  0  0  0  0
  148.0074  141.2329  154.1379 N   0  0  0  0  0  0  0  0  0  0  0  0
  147.0794  140.1857  153.6791 C   0  0  0  0  0  0  0  0  0  0  0  0
  146.1068  139.8399  154.8190 C   0  0  0  0  0  0  0  0  0  0  0  0
  145.0927  141.2826  155.2694 S   0  0  0  0  0  0  0  0  0  0  0  0
  146.4025  142.5326  155.4574 C   0  0  0  0  0  0  0  0  0  0  0  0
  147.3425  142.5374  154.2398 C   0  0  0  0  0  0  0  0  0  0  0  0
  149.0201  142.6733  155.7814 H   0  0  0  0  0  0  0  0  0  0  0  0
  151.5394  141.0694  155.8776 H   0  0  0  0  0  0  0  0  0  0  0  0
  151.4964  142.8195  155.9000 H   0  0  0  0  0  0  0  0  0  0  0  0
  149.7576  141.7066  158.0107 H   0  0  0  0  0  0  0  0  0  0  0  0
  151.4163  141.1471  158.1974 H   0  0  0  0  0  0  0  0  0  0  0  0
  151.1524  146.4410  158.7107 H   0  0  0  0  0  0  0  0  0  0  0  0
  152.6708  145.0714  160.6031 H   0  0  0  0  0  0  0  0  0  0  0  0
  151.8452  141.5315  160.4719 H   0  0  0  0  0  0  0  0  0  0  0  0
  146.5215  140.5392  152.8109 H   0  0  0  0  0  0  0  0  0  0  0  0
  147.5861  139.2839  153.3355 H   0  0  0  0  0  0  0  0  0  0  0  0
  145.4440  139.0275  154.5204 H   0  0  0  0  0  0  0  0  0  0  0  0
  146.6546  139.4995  155.6985 H   0  0  0  0  0  0  0  0  0  0  0  0
  145.9374  143.5104  155.5831 H   0  0  0  0  0  0  0  0  0  0  0  0
  146.9634  142.3262  156.3698 H   0  0  0  0  0  0  0  0  0  0  0  0
  148.0595  143.3551  154.3272 H   0  0  0  0  0  0  0  0  0  0  0  0
  146.7791  142.7452  153.3290 H   0  0  0  0  0  0  0  0  0  0  0  0
  150.1981  144.6302  157.2260 H   0  0  0  0  0  0  0  0  0  0  0  0
  1  2  2  0  0  0  0
  2  3  1  0  0  0  0
  2 14  1  0  0  0  0
  3  4  1  0  0  0  0
  3 20  1  0  0  0  0
  4  5  1  0  0  0  0
  4 21  1  0  0  0  0
  4 22  1  0  0  0  0
  5  6  1  0  0  0  0
  5 23  1  0  0  0  0
  5 24  1  0  0  0  0
  6 10  1  0  0  0  0
  6  7  2  0  0  0  0
  7  8  1  0  0  0  0
  7 36  1  0  0  0  0
  8  9  2  0  0  0  0
  8 25  1  0  0  0  0
  9 10  1  0  0  0  0
  9 26  1  0  0  0  0
 10 11  1  0  0  0  0
 11 12  1  0  0  0  0
 11 13  1  0  0  0  0
 11 27  1  0  0  0  0
 14 19  1  0  0  0  0
 14 15  1  0  0  0  0
 15 16  1  0  0  0  0
 15 28  1  0  0  0  0
 15 29  1  0  0  0  0
 16 17  1  0  0  0  0
 16 30  1  0  0  0  0
 16 31  1  0  0  0  0
 17 18  1  0  0  0  0
 18 19  1  0  0  0  0
 18 32  1  0  0  0  0
 18 33  1  0  0  0  0
 19 34  1  0  0  0  0
 19 35  1  0  0  0  0
M  CHG  1   7   1
M  END
> <s_m_source_file>
AV-unprocessed.smi

> <i_m_source_file_index>
1064

> <i_lp_mmshare_version>
43012

> <i_f3d_flags>
0

> <s_epik_input>
W0NIMl0xW0NIMl1TW0NIMl1bQ0gyXU4xQyg9TylbTkhdW0NIMl1bQ0gyXWMybltjSF1bY0hdbjJbQ0hdKEYpRg==

> <s_epik_cmdline>
J2VwaWtfcHl0aG9uJywgJy1waCcsICc3LjAnLCAnLXRuJywgJzgnLCAnLW1hJywgJzIwMCcsICctbWV0YWxfYmluZGluZycsICctaW1hZScsICc8aW5maWxlLm1hZT4nLCAnLW9tYWUnLCAnPG91dGZpbGUubWFlPic=

> <r_lp_tautomer_probability>
1

> <r_epik_Ionization_Penalty>
1.10071

> <r_epik_Ionization_Penalty_Charging>
0

> <r_epik_Ionization_Penalty_Neutral>
1.10071

> <r_epik_State_Penalty>
1.15778

> <r_epik_Charging_Adjusted_Penalty>
1.15778

> <i_epik_Tot_Q>
1

> <i_epik_Tot_abs_Q>
1

> <r_epik_Metal_State_Penalty>
1.24497

> <b_epik_Metal_Only>
0

> <s_lp_Force_Field>
OPLS_2005

> <r_lp_Energy>
29.6346

> <b_lp_Chiralities_Consistent>
1

> <s_lp_Variant>
AV-unprocessed.smi:1064-2

> <Gold.Version>
5.8.1

> <Gold.Id.Protein>
6NUR|6NUR_protein|mol2

> <Gold.PLP.Fitness>
54.2009

> <Gold.PLP.PLP>
-45.5368

> <Gold.PLP.part.hbond>
-2.9906

> <Gold.PLP.part.metal>
0.0000

> <Gold.PLP.part.buried>
-2.8745

> <Gold.PLP.part.nonpolar>
-38.9907

> <Gold.PLP.part.repulsive>
0.5114

> <Gold.PLP.ligand.clash>
0.8991

> <Gold.PLP.ligand.torsion>
0.8954

> <Gold.PLP.Chemscore.Hbond>
3.7626

> <Gold.PLP.Chemscore.CHOScore>
0.0000

> <Gold.PLP.Chemscore.Metal>
0.0000

> <Gold.Chemscore.Hbonds>
donor molecule, donor type, donor heavy atom, donor atom, acceptor molecule, acceptor atom, score
      L1  H     3    20       P1  8028  0.75
      L1  H     7    36       P1  8028  2.00
      P1  H  7989  7998       L1     1  0.98

> <Gold.PLP.Chemscore.Internal.Correction>
0.0661

> <Gold.Rescore>
     Score         DG    S(hbond)    S(metal)    S(lipo)     H(rot)  DE(clash)    DE(int)     intcor
     15.06     -16.52       1.99        0.00      73.80       1.65       0.50       0.97       ----

> <Gold.Chemscore.Fitness>
15.0554

> <Gold.Chemscore.DG>
-16.5179

> <Gold.Chemscore.ZeroCoef>
-5.4800

> <Gold.Chemscore.Hbond>
1.9860

> <Gold.Chemscore.Metal>
0.0000

> <Gold.Chemscore.Lipo>
73.8049

> <Gold.Chemscore.Internal_Hbond>
0.0000

> <Gold.Chemscore.DEClash>
0.4965

> <Gold.Chemscore.DEInternal>
0.9660

> <Gold.Chemscore.Rot>
1.6525

> <Gold.Chemscore.Internal.Correction>
   9.000000E+99

> <Gold.Chemscore.Hbonds>
donor molecule, donor type, donor heavy atom, donor atom, acceptor molecule, acceptor atom, score
      L1  H     3    20       P1  8028  0.72
      L1  H     7    36       P1  8028  0.38
      P1  H  7989  7998       L1     1  0.55

> <Gold.Chemscore.Hbond.Weighted>
-6.6331

> <Gold.Chemscore.Metal.Weighted>
-0.0000

> <Gold.Chemscore.Lipo.Weighted>
-8.6352

> <Gold.Chemscore.Internal_Hbond.Weighted>
0.0000

> <Gold.Chemscore.DEClash.Weighted>
0.4965

> <Gold.Chemscore.DEInternal.Weighted>
0.9660

> <Gold.Chemscore.Rot.Weighted>
4.2304

> <Gold.Chemscore.Internal.Correction.Weighted>
   9.000000E+99

> <Gold.Protein.RotatedTorsions>
[ 6907 6896 6895 6894 ] final  163.43 input  -60.11 | X-H torsion
[ 7974 7965 7964 7962 ] final -108.92 input  175.53 | X-H torsion
[ 8008 7997 7996 7995 ] final  -38.54 input   59.86 | X-H torsion
[ 10167 10162 10161 10158 ] final   44.51 input  -65.29 | X-H torsion
[ 10718 10713 10712 10709 ] final   38.56 input   66.30 | X-H torsion
[ 10763 10752 10751 10750 ] final   11.48 input  -60.55 | X-H torsion
[ 11005 11000 10999 10996 ] final   44.24 input  -57.11 | X-H torsion

> <Gold.Protein.ActiveResidues>
 VAL166  LYS551  ARG553  GLY616  TRP617  ASP618  TYR619  PRO620  LYS621  CYS622 
 ASP623  PHE694  ASN695  SER759  ASP760  ASP761  ALA762  ILE779  LEU786  VAL792 
 PHE793  MET794  SER795  GLU796  ALA797  LYS798  CYS799  TRP800  GLU811  SER814 

> <Gold.Protein.RotatedAtoms>
  151.9254  133.3596  159.3911 H   0  0  0  0  0  0  0  0  0  0  0  0  # atno 6907 bound_to 6896
  150.7028  134.4592  159.5382 H   0  0  0  0  0  0  0  0  0  0  0  0  # atno 6908 bound_to 6896
  152.2223  134.8401  160.0535 H   0  0  0  0  0  0  0  0  0  0  0  0  # atno 6909 bound_to 6896
  145.1869  140.8997  143.3447 H   0  0  0  0  0  0  0  0  0  0  0  0  # atno 7974 bound_to 7965
  154.4035  140.1575  156.2716 H   0  0  0  0  0  0  0  0  0  0  0  0  # atno 8008 bound_to 7997
  155.8948  140.3436  155.5960 H   0  0  0  0  0  0  0  0  0  0  0  0  # atno 8009 bound_to 7997
  155.7517  140.0806  157.2189 H   0  0  0  0  0  0  0  0  0  0  0  0  # atno 8010 bound_to 7997
  140.3335  144.2559  150.6165 H   0  0  0  0  0  0  0  0  0  0  0  0  # atno 10167 bound_to 10162
  157.3603  130.7646  149.7042 H   0  0  0  0  0  0  0  0  0  0  0  0  # atno 10718 bound_to 10713
  153.1921  135.6844  153.8339 H   0  0  0  0  0  0  0  0  0  0  0  0  # atno 10763 bound_to 10752
  153.7634  135.3206  155.3342 H   0  0  0  0  0  0  0  0  0  0  0  0  # atno 10764 bound_to 10752
  154.8123  135.4709  154.0649 H   0  0  0  0  0  0  0  0  0  0  0  0  # atno 10765 bound_to 10752
  140.1570  134.4389  155.8343 H   0  0  0  0  0  0  0  0  0  0  0  0  # atno 11005 bound_to 11000
  145.0080  139.3536  143.6134 LP  0  0  0  0  0  0  0  0  0  0  0  0  # atno 17320 bound_to 7965
  146.3443  139.9331  142.8751 LP  0  0  0  0  0  0  0  0  0  0  0  0  # atno 17321 bound_to 7965
  140.5375  143.2230  151.8139 LP  0  0  0  0  0  0  0  0  0  0  0  0  # atno 17342 bound_to 10162
  139.4852  144.4642  151.9504 LP  0  0  0  0  0  0  0  0  0  0  0  0  # atno 17343 bound_to 10162
  155.9736  130.4116  150.3988 LP  0  0  0  0  0  0  0  0  0  0  0  0  # atno 17370 bound_to 10713
  157.2064  131.0450  151.2623 LP  0  0  0  0  0  0  0  0  0  0  0  0  # atno 17371 bound_to 10713
  141.2205  133.6897  156.7526 LP  0  0  0  0  0  0  0  0  0  0  0  0  # atno 17394 bound_to 11000
  140.2535  134.8522  157.3690 LP  0  0  0  0  0  0  0  0  0  0  0  0  # atno 17395 bound_to 11000

$$$$
