AV-unprocessed.smi:427|AV-procd|sdf|2543|dock9
  -GOLD-   2262022503D 1   1.00000     0.00000
 Structure written by MMmdl.
 51 52  0  0  0  0  0  0  0  0  1 V2000
  150.0768  140.9744  155.2716 C   0  0  0  0  0  0  0  0  0  0  0  0
  150.7580  141.0603  156.6250 C   0  0  0  0  0  0  0  0  0  0  0  0
  151.1264  142.3202  157.1416 C   0  0  0  0  0  0  0  0  0  0  0  0
  151.7654  142.4358  158.3999 C   0  0  0  0  0  0  0  0  0  0  0  0
  152.1799  143.7956  158.9948 C   0  0  0  0  0  0  0  0  0  0  0  0
  150.9202  144.5890  159.4004 C   0  0  0  0  0  0  0  0  0  0  0  0
  152.9847  144.6685  158.0050 C   0  0  0  0  0  0  0  0  0  0  0  0
  153.0610  143.5699  160.2413 C   0  0  0  0  0  0  0  0  0  0  0  0
  152.0242  141.2499  159.1241 C   0  0  0  0  0  0  0  0  0  0  0  0
  151.6589  139.9905  158.6144 C   0  0  0  0  0  0  0  0  0  0  0  0
  151.0198  139.8813  157.3562 C   0  0  0  0  0  0  0  0  0  0  0  0
  150.6318  138.6840  156.7925 O   0  0  0  0  0  0  0  0  0  0  0  0
  150.8702  137.4814  157.5133 C   0  0  0  0  0  0  0  0  0  0  0  0
  150.8089  136.2820  156.5531 C   0  0  1  0  0  0  0  0  0  0  0  0
  152.1328  135.8372  156.3365 O   0  0  0  0  0  0  0  0  0  0  0  0
  149.9319  135.1286  157.0893 C   0  0  0  0  0  0  0  0  0  0  0  0
  149.7371  134.0583  156.1259 N   0  0  0  0  0  0  0  0  0  0  0  0
  148.9266  134.3225  154.9938 C   0  0  0  0  0  0  0  0  0  0  0  0
  148.3931  135.4168  154.8081 O   0  0  0  0  0  0  0  0  0  0  0  0
  148.7654  133.1955  154.0815 C   0  0  0  0  0  0  0  0  0  0  0  0
  149.3500  132.0051  154.3381 C   0  0  0  0  0  0  0  0  0  0  0  0
  150.1212  131.7762  155.4607 N   0  0  0  0  0  0  0  0  0  0  0  0
  150.7320  130.5064  155.7297 C   0  0  0  0  0  0  0  0  0  0  0  0
  150.3346  132.8056  156.4031 C   0  0  0  0  0  0  0  0  0  0  0  0
  151.0039  132.6121  157.4222 O   0  0  0  0  0  0  0  0  0  0  0  0
  149.9272  141.9613  154.8330 H   0  0  0  0  0  0  0  0  0  0  0  0
  149.1020  140.4957  155.3679 H   0  0  0  0  0  0  0  0  0  0  0  0
  150.6812  140.3852  154.5813 H   0  0  0  0  0  0  0  0  0  0  0  0
  150.9056  143.1922  156.5466 H   0  0  0  0  0  0  0  0  0  0  0  0
  151.1816  145.5662  159.8077 H   0  0  0  0  0  0  0  0  0  0  0  0
  150.3361  144.0725  160.1622 H   0  0  0  0  0  0  0  0  0  0  0  0
  150.2665  144.7562  158.5436 H   0  0  0  0  0  0  0  0  0  0  0  0
  152.4081  144.8979  157.1079 H   0  0  0  0  0  0  0  0  0  0  0  0
  153.9110  144.1815  157.6978 H   0  0  0  0  0  0  0  0  0  0  0  0
  153.2623  145.6222  158.4553 H   0  0  0  0  0  0  0  0  0  0  0  0
  153.3869  144.5170  160.6732 H   0  0  0  0  0  0  0  0  0  0  0  0
  153.9562  142.9985  159.9933 H   0  0  0  0  0  0  0  0  0  0  0  0
  152.5328  143.0280  161.0259 H   0  0  0  0  0  0  0  0  0  0  0  0
  152.5097  141.2944  160.0874 H   0  0  0  0  0  0  0  0  0  0  0  0
  151.8815  139.1203  159.2127 H   0  0  0  0  0  0  0  0  0  0  0  0
  151.8680  137.5245  157.9528 H   0  0  0  0  0  0  0  0  0  0  0  0
  150.1536  137.3580  158.3273 H   0  0  0  0  0  0  0  0  0  0  0  0
  150.4238  136.6378  155.5966 H   0  0  0  0  0  0  0  0  0  0  0  0
  152.5798  135.8077  157.1686 H   0  0  0  0  0  0  0  0  0  0  0  0
  150.3196  134.7042  158.0170 H   0  0  0  0  0  0  0  0  0  0  0  0
  148.9354  135.4855  157.3560 H   0  0  0  0  0  0  0  0  0  0  0  0
  148.1686  133.3164  153.1894 H   0  0  0  0  0  0  0  0  0  0  0  0
  149.2019  131.1995  153.6338 H   0  0  0  0  0  0  0  0  0  0  0  0
  151.8116  130.6620  155.7654 H   0  0  0  0  0  0  0  0  0  0  0  0
  150.4674  129.8268  154.9190 H   0  0  0  0  0  0  0  0  0  0  0  0
  150.3356  130.1444  156.6798 H   0  0  0  0  0  0  0  0  0  0  0  0
  1  2  1  0  0  0  0
  1 26  1  0  0  0  0
  1 27  1  0  0  0  0
  1 28  1  0  0  0  0
  2 11  1  0  0  0  0
  2  3  2  0  0  0  0
  3  4  1  0  0  0  0
  3 29  1  0  0  0  0
  4  5  1  0  0  0  0
  4  9  2  0  0  0  0
  5  6  1  0  0  0  0
  5  7  1  0  0  0  0
  5  8  1  0  0  0  0
  6 30  1  0  0  0  0
  6 31  1  0  0  0  0
  6 32  1  0  0  0  0
  7 33  1  0  0  0  0
  7 34  1  0  0  0  0
  7 35  1  0  0  0  0
  8 36  1  0  0  0  0
  8 37  1  0  0  0  0
  8 38  1  0  0  0  0
  9 10  1  0  0  0  0
  9 39  1  0  0  0  0
 10 11  2  0  0  0  0
 10 40  1  0  0  0  0
 11 12  1  0  0  0  0
 12 13  1  0  0  0  0
 13 14  1  0  0  0  0
 13 41  1  0  0  0  0
 13 42  1  0  0  0  0
 14 15  1  0  0  0  0
 14 16  1  0  0  0  0
 14 43  1  0  0  0  0
 15 44  1  0  0  0  0
 16 17  1  0  0  0  0
 16 45  1  0  0  0  0
 16 46  1  0  0  0  0
 17 24  1  0  0  0  0
 17 18  1  0  0  0  0
 18 19  2  0  0  0  0
 18 20  1  0  0  0  0
 20 21  2  0  0  0  0
 20 47  1  0  0  0  0
 21 22  1  0  0  0  0
 21 48  1  0  0  0  0
 22 23  1  0  0  0  0
 22 24  1  0  0  0  0
 23 49  1  0  0  0  0
 23 50  1  0  0  0  0
 23 51  1  0  0  0  0
 24 25  2  0  0  0  0
M  END
> <s_m_source_file>
AV-unprocessed.smi

> <i_m_source_file_index>
427

> <i_lp_mmshare_version>
43012

> <i_f3d_flags>
0

> <s_epik_input>
W0NIM11jMVtjSF1jKEMoW0NIM10pKFtDSDNdKVtDSDNdKVtjSF1bY0hdYzFPW0NIMl1bQ0BIXShbT0hdKVtDSDJdbjJjKD1PKVtjSF1bY0hdbihbQ0gzXSljMj1P

> <s_epik_cmdline>
J2VwaWtfcHl0aG9uJywgJy1waCcsICc3LjAnLCAnLXRuJywgJzgnLCAnLW1hJywgJzIwMCcsICctbWV0YWxfYmluZGluZycsICctaW1hZScsICc8aW5maWxlLm1hZT4nLCAnLW9tYWUnLCAnPG91dGZpbGUubWFlPic=

> <r_lp_tautomer_probability>
1

> <r_epik_Ionization_Penalty>
2.02112e-07

> <r_epik_Ionization_Penalty_Charging>
8.49383e-08

> <r_epik_Ionization_Penalty_Neutral>
1.17174e-07

> <r_epik_State_Penalty>
-0

> <r_epik_Charging_Adjusted_Penalty>
8.49383e-08

> <i_epik_Tot_Q>
0

> <i_epik_Tot_abs_Q>
0

> <r_epik_Metal_State_Penalty>
-0

> <b_epik_Metal_Only>
0

> <s_lp_Force_Field>
OPLS_2005

> <r_lp_Energy>
28.8364

> <b_lp_Chiralities_Consistent>
1

> <s_lp_Variant>
AV-unprocessed.smi:427-2

> <Gold.Version>
5.8.1

> <Gold.Id.Protein>
6NUR|6NUR_protein|mol2

> <Gold.PLP.Fitness>
51.2288

> <Gold.PLP.PLP>
-47.4329

> <Gold.PLP.part.hbond>
-2.0000

> <Gold.PLP.part.metal>
0.0000

> <Gold.PLP.part.buried>
-5.9989

> <Gold.PLP.part.nonpolar>
-40.7795

> <Gold.PLP.part.repulsive>
1.1336

> <Gold.PLP.ligand.clash>
0.0000

> <Gold.PLP.ligand.torsion>
1.1217

> <Gold.PLP.Chemscore.Hbond>
2.0000

> <Gold.PLP.Chemscore.CHOScore>
0.0000

> <Gold.PLP.Chemscore.Metal>
0.0000

> <Gold.Chemscore.Hbonds>
donor molecule, donor type, donor heavy atom, donor atom, acceptor molecule, acceptor atom, score
      P1  H  6896  6907       L1    25  0.99
      P1  H 10752 10764       L1    15  1.00

> <Gold.PLP.Chemscore.Internal.Correction>
0.0393

> <Gold.Rescore>
     Score         DG    S(hbond)    S(metal)    S(lipo)     H(rot)  DE(clash)    DE(int)     intcor
     19.07     -20.24       1.97        0.00     124.45       2.49       0.05       1.12       ----

> <Gold.Chemscore.Fitness>
19.0721

> <Gold.Chemscore.DG>
-20.2441

> <Gold.Chemscore.ZeroCoef>
-5.4800

> <Gold.Chemscore.Hbond>
1.9688

> <Gold.Chemscore.Metal>
0.0000

> <Gold.Chemscore.Lipo>
124.4527

> <Gold.Chemscore.Internal_Hbond>
0.0000

> <Gold.Chemscore.DEClash>
0.0533

> <Gold.Chemscore.DEInternal>
1.1186

> <Gold.Chemscore.Rot>
2.4894

> <Gold.Chemscore.Internal.Correction>
   9.000000E+99

> <Gold.Chemscore.Hbonds>
donor molecule, donor type, donor heavy atom, donor atom, acceptor molecule, acceptor atom, score
      P1  H  6896  6907       L1    25  0.90
      P1  H 10752 10764       L1    15  0.90

> <Gold.Chemscore.Hbond.Weighted>
-6.5759

> <Gold.Chemscore.Metal.Weighted>
-0.0000

> <Gold.Chemscore.Lipo.Weighted>
-14.5610

> <Gold.Chemscore.Internal_Hbond.Weighted>
0.0000

> <Gold.Chemscore.DEClash.Weighted>
0.0533

> <Gold.Chemscore.DEInternal.Weighted>
1.1186

> <Gold.Chemscore.Rot.Weighted>
6.3728

> <Gold.Chemscore.Internal.Correction.Weighted>
   9.000000E+99

> <Gold.Protein.RotatedTorsions>
[ 6907 6896 6895 6894 ] final -172.04 input  -60.11 | X-H torsion
[ 7974 7965 7964 7962 ] final  -63.20 input  175.53 | X-H torsion
[ 8008 7997 7996 7995 ] final  103.59 input   59.86 | X-H torsion
[ 10167 10162 10161 10158 ] final   76.34 input  -65.29 | X-H torsion
[ 10718 10713 10712 10709 ] final -172.92 input   66.30 | X-H torsion
[ 10763 10752 10751 10750 ] final  -35.01 input  -60.55 | X-H torsion
[ 11005 11000 10999 10996 ] final -108.33 input  -57.11 | X-H torsion

> <Gold.Protein.ActiveResidues>
 VAL166  LYS551  ARG553  GLY616  TRP617  ASP618  TYR619  PRO620  LYS621  CYS622 
 ASP623  PHE694  ASN695  SER759  ASP760  ASP761  ALA762  ILE779  LEU786  VAL792 
 PHE793  MET794  SER795  GLU796  ALA797  LYS798  CYS799  TRP800  GLU811  SER814 

> <Gold.Protein.RotatedAtoms>
  151.5335  133.3445  159.2922 H   0  0  0  0  0  0  0  0  0  0  0  0  # atno 6907 bound_to 6896
  150.8579  134.7925  159.7071 H   0  0  0  0  0  0  0  0  0  0  0  0  # atno 6908 bound_to 6896
  152.4607  134.5199  159.9831 H   0  0  0  0  0  0  0  0  0  0  0  0  # atno 6909 bound_to 6896
  145.7820  140.8757  143.0325 H   0  0  0  0  0  0  0  0  0  0  0  0  # atno 7974 bound_to 7965
  156.1498  140.3162  155.8629 H   0  0  0  0  0  0  0  0  0  0  0  0  # atno 8008 bound_to 7997
  155.3994  140.0498  157.3054 H   0  0  0  0  0  0  0  0  0  0  0  0  # atno 8009 bound_to 7997
  154.5048  140.2143  155.9285 H   0  0  0  0  0  0  0  0  0  0  0  0  # atno 8010 bound_to 7997
  139.9933  144.5741  150.7799 H   0  0  0  0  0  0  0  0  0  0  0  0  # atno 10167 bound_to 10162
  156.7627  130.9419  151.3118 H   0  0  0  0  0  0  0  0  0  0  0  0  # atno 10718 bound_to 10713
  153.8562  135.6844  153.4787 H   0  0  0  0  0  0  0  0  0  0  0  0  # atno 10763 bound_to 10752
  153.1368  135.4674  154.9433 H   0  0  0  0  0  0  0  0  0  0  0  0  # atno 10764 bound_to 10752
  154.7780  135.3259  154.8000 H   0  0  0  0  0  0  0  0  0  0  0  0  # atno 10765 bound_to 10752
  141.0907  133.9059  157.2081 H   0  0  0  0  0  0  0  0  0  0  0  0  # atno 11005 bound_to 11000
  144.6795  140.0002  143.7484 LP  0  0  0  0  0  0  0  0  0  0  0  0  # atno 17320 bound_to 7965
  146.0065  139.3134  143.0896 LP  0  0  0  0  0  0  0  0  0  0  0  0  # atno 17321 bound_to 7965
  140.7446  143.2864  151.3452 LP  0  0  0  0  0  0  0  0  0  0  0  0  # atno 17342 bound_to 10162
  139.6324  144.0695  152.2488 LP  0  0  0  0  0  0  0  0  0  0  0  0  # atno 17343 bound_to 10162
  157.6727  130.9066  150.0078 LP  0  0  0  0  0  0  0  0  0  0  0  0  # atno 17370 bound_to 10713
  156.1328  130.3643  149.9704 LP  0  0  0  0  0  0  0  0  0  0  0  0  # atno 17371 bound_to 10713
  139.9733  135.0121  156.9567 LP  0  0  0  0  0  0  0  0  0  0  0  0  # atno 17394 bound_to 11000
  140.5258  134.0862  155.7303 LP  0  0  0  0  0  0  0  0  0  0  0  0  # atno 17395 bound_to 11000

$$$$
