AV-unprocessed.smi:1829|AV-procd|sdf|7430|dock3
  -GOLD-   22720 9113D 1   1.00000     0.00000
 Structure written by MMmdl.
 46 48  0  0  0  0  0  0  0  0  2 V2000
  141.4263  145.3908  156.5675 C   0  0  0  0  0  0  0  0  0  0  0  0
  142.8223  145.8460  156.1151 C   0  0  0  0  0  0  0  0  0  0  0  0
  142.7466  146.8266  154.9338 C   0  0  0  0  0  0  0  0  0  0  0  0
  143.7211  144.6554  155.8078 C   0  0  0  0  0  0  0  0  0  0  0  0
  143.9201  143.6529  156.7805 C   0  0  0  0  0  0  0  0  0  0  0  0
  144.7339  142.5398  156.4978 C   0  0  0  0  0  0  0  0  0  0  0  0
  145.3594  142.4149  155.2396 C   0  0  0  0  0  0  0  0  0  0  0  0
  146.1978  141.1822  154.9320 C   0  0  2  0  0  0  0  0  0  0  0  0
  146.3021  140.3106  156.0384 O   0  0  0  0  0  0  0  0  0  0  0  0
  147.6246  141.5485  154.4721 C   0  0  0  0  0  0  0  0  0  0  0  0
  148.4374  140.3675  154.1383 N   0  0  0  0  0  0  0  0  0  0  0  0
  148.2017  139.3458  153.2638 C   0  0  0  0  0  0  0  0  0  0  0  0
  147.0151  139.1746  152.3741 C   0  0  0  0  0  0  0  0  0  0  0  0
  147.1898  138.1309  151.4424 O   0  0  0  0  0  0  0  0  0  0  0  0
  149.2632  138.4949  153.3427 N   0  3  0  0  0  0  0  0  0  0  0  0
  150.1870  138.9755  154.2711 C   0  0  0  0  0  0  0  0  0  0  0  0
  151.4091  138.4602  154.6917 C   0  0  0  0  0  0  0  0  0  0  0  0
  152.1106  139.2071  155.6606 C   0  0  0  0  0  0  0  0  0  0  0  0
  151.5943  140.4158  156.1719 C   0  0  0  0  0  0  0  0  0  0  0  0
  150.3538  140.9281  155.7380 C   0  0  0  0  0  0  0  0  0  0  0  0
  149.6657  140.1818  154.7820 C   0  0  0  0  0  0  0  0  0  0  0  0
  145.1685  143.4213  154.2685 C   0  0  0  0  0  0  0  0  0  0  0  0
  144.3522  144.5332  154.5505 C   0  0  0  0  0  0  0  0  0  0  0  0
  141.4911  144.7428  157.4423 H   0  0  0  0  0  0  0  0  0  0  0  0
  140.9093  144.8387  155.7822 H   0  0  0  0  0  0  0  0  0  0  0  0
  140.8035  146.2442  156.8366 H   0  0  0  0  0  0  0  0  0  0  0  0
  143.2680  146.3892  156.9497 H   0  0  0  0  0  0  0  0  0  0  0  0
  143.7406  147.1742  154.6501 H   0  0  0  0  0  0  0  0  0  0  0  0
  142.1532  147.7039  155.1919 H   0  0  0  0  0  0  0  0  0  0  0  0
  142.2904  146.3687  154.0558 H   0  0  0  0  0  0  0  0  0  0  0  0
  143.4432  143.7281  157.7469 H   0  0  0  0  0  0  0  0  0  0  0  0
  144.8650  141.7733  157.2473 H   0  0  0  0  0  0  0  0  0  0  0  0
  145.6987  140.6157  154.1453 H   0  0  0  0  0  0  0  0  0  0  0  0
  146.4804  139.4393  155.7179 H   0  0  0  0  0  0  0  0  0  0  0  0
  147.5891  142.1923  153.5925 H   0  0  0  0  0  0  0  0  0  0  0  0
  148.1502  142.1131  155.2435 H   0  0  0  0  0  0  0  0  0  0  0  0
  146.1352  138.9625  152.9820 H   0  0  0  0  0  0  0  0  0  0  0  0
  146.8160  140.1024  151.8400 H   0  0  0  0  0  0  0  0  0  0  0  0
  147.5201  137.3724  151.8994 H   0  0  0  0  0  0  0  0  0  0  0  0
  151.8071  137.5352  154.3008 H   0  0  0  0  0  0  0  0  0  0  0  0
  153.0641  138.8460  156.0184 H   0  0  0  0  0  0  0  0  0  0  0  0
  152.1611  140.9614  156.9125 H   0  0  0  0  0  0  0  0  0  0  0  0
  149.9665  141.8545  156.1357 H   0  0  0  0  0  0  0  0  0  0  0  0
  145.6327  143.3363  153.2968 H   0  0  0  0  0  0  0  0  0  0  0  0
  144.2066  145.2881  153.7919 H   0  0  0  0  0  0  0  0  0  0  0  0
  149.3466  137.6477  152.7954 H   0  0  0  0  0  0  0  0  0  0  0  0
  1  2  1  0  0  0  0
  1 24  1  0  0  0  0
  1 25  1  0  0  0  0
  1 26  1  0  0  0  0
  2  3  1  0  0  0  0
  2  4  1  0  0  0  0
  2 27  1  0  0  0  0
  3 28  1  0  0  0  0
  3 29  1  0  0  0  0
  3 30  1  0  0  0  0
  4 23  1  0  0  0  0
  4  5  2  0  0  0  0
  5  6  1  0  0  0  0
  5 31  1  0  0  0  0
  6  7  2  0  0  0  0
  6 32  1  0  0  0  0
  7  8  1  0  0  0  0
  7 22  1  0  0  0  0
  8  9  1  0  0  0  0
  8 10  1  0  0  0  0
  8 33  1  0  0  0  0
  9 34  1  0  0  0  0
 10 11  1  0  0  0  0
 10 35  1  0  0  0  0
 10 36  1  0  0  0  0
 11 21  1  0  0  0  0
 11 12  1  0  0  0  0
 12 13  1  0  0  0  0
 12 15  2  0  0  0  0
 13 14  1  0  0  0  0
 13 37  1  0  0  0  0
 13 38  1  0  0  0  0
 14 39  1  0  0  0  0
 15 16  1  0  0  0  0
 15 46  1  0  0  0  0
 16 21  2  0  0  0  0
 16 17  1  0  0  0  0
 17 18  2  0  0  0  0
 17 40  1  0  0  0  0
 18 19  1  0  0  0  0
 18 41  1  0  0  0  0
 19 20  2  0  0  0  0
 19 42  1  0  0  0  0
 20 21  1  0  0  0  0
 20 43  1  0  0  0  0
 22 23  2  0  0  0  0
 22 44  1  0  0  0  0
 23 45  1  0  0  0  0
M  CHG  1  15   1
M  END
> <s_m_source_file>
AV-unprocessed.smi

> <i_m_source_file_index>
1829

> <i_lp_mmshare_version>
43012

> <i_f3d_flags>
0

> <s_epik_input>
W0NIM11bQ0hdKFtDSDNdKWMxW2NIXVtjSF1jKFtjSF1bY0hdMSlbQ0BIXShbT0hdKVtDSDJdbihjKG4yKVtDSDJdW09IXSljKGMyMylbY0hdW2NIXVtjSF1bY0hdMw==

> <s_epik_cmdline>
J2VwaWtfcHl0aG9uJywgJy1waCcsICc3LjAnLCAnLXRuJywgJzgnLCAnLW1hJywgJzIwMCcsICctbWV0YWxfYmluZGluZycsICctaW1hZScsICc8aW5maWxlLm1hZT4nLCAnLW9tYWUnLCAnPG91dGZpbGUubWFlPic=

> <r_epik_Ionization_Penalty>
1.35642

> <r_epik_Ionization_Penalty_Charging>
1.35557

> <r_epik_Ionization_Penalty_Neutral>
0.000856322

> <r_epik_State_Penalty>
1.43401

> <r_epik_Charging_Adjusted_Penalty>
2.78958

> <i_epik_Tot_Q>
1

> <i_epik_Tot_abs_Q>
1

> <r_epik_Metal_State_Penalty>
5.47166

> <b_epik_Metal_Only>
0

> <s_lp_Force_Field>
OPLS_2005

> <r_lp_Energy>
15.3194

> <b_lp_Chiralities_Consistent>
1

> <s_lp_Variant>
AV-unprocessed.smi:1829-3

> <Gold.Version>
5.8.1

> <Gold.Id.Protein>
6NUR|6NUR_protein|mol2

> <Gold.PLP.Fitness>
58.4685

> <Gold.PLP.PLP>
-47.5784

> <Gold.PLP.part.hbond>
-4.9204

> <Gold.PLP.part.metal>
0.0000

> <Gold.PLP.part.buried>
1.2846

> <Gold.PLP.part.nonpolar>
-44.2236

> <Gold.PLP.part.repulsive>
0.0807

> <Gold.PLP.ligand.clash>
0.0000

> <Gold.PLP.ligand.torsion>
0.1714

> <Gold.PLP.Chemscore.Hbond>
3.7040

> <Gold.PLP.Chemscore.CHOScore>
0.0000

> <Gold.PLP.Chemscore.Metal>
0.0000

> <Gold.Chemscore.Hbonds>
donor molecule, donor type, donor heavy atom, donor atom, acceptor molecule, acceptor atom, score
      L1  H    14    39       P1  7948  0.77
      L1  H    15    46       P1  7948  2.00
      P1  H  7954  7966       L1    14  0.80

> <Gold.PLP.Chemscore.Internal.Correction>
0.1208

> <Gold.Rescore>
     Score         DG    S(hbond)    S(metal)    S(lipo)     H(rot)  DE(clash)    DE(int)     intcor
     16.38     -18.23       2.18        0.00     107.00       2.75       1.80       0.05       ----

> <Gold.Chemscore.Fitness>
16.3800

> <Gold.Chemscore.DG>
-18.2322

> <Gold.Chemscore.ZeroCoef>
-5.4800

> <Gold.Chemscore.Hbond>
2.1813

> <Gold.Chemscore.Metal>
0.0000

> <Gold.Chemscore.Lipo>
107.0014

> <Gold.Chemscore.Internal_Hbond>
0.0000

> <Gold.Chemscore.DEClash>
1.7984

> <Gold.Chemscore.DEInternal>
0.0538

> <Gold.Chemscore.Rot>
2.7550

> <Gold.Chemscore.Internal.Correction>
   9.000000E+99

> <Gold.Chemscore.Hbonds>
donor molecule, donor type, donor heavy atom, donor atom, acceptor molecule, acceptor atom, score
      L1  H    14    39       P1  7948  0.76
      L1  H    15    46       P1  7948  0.91
      P1  H  7954  7966       L1    14  0.12

> <Gold.Chemscore.Hbond.Weighted>
-7.2857

> <Gold.Chemscore.Metal.Weighted>
-0.0000

> <Gold.Chemscore.Lipo.Weighted>
-12.5192

> <Gold.Chemscore.Internal_Hbond.Weighted>
0.0000

> <Gold.Chemscore.DEClash.Weighted>
1.7984

> <Gold.Chemscore.DEInternal.Weighted>
0.0538

> <Gold.Chemscore.Rot.Weighted>
7.0527

> <Gold.Chemscore.Internal.Correction.Weighted>
   9.000000E+99

> <Gold.Protein.RotatedTorsions>
[ 6907 6896 6895 6894 ] final   42.14 input  -60.11 | X-H torsion
[ 7974 7965 7964 7962 ] final  -62.47 input  175.53 | X-H torsion
[ 8008 7997 7996 7995 ] final  -60.79 input   59.86 | X-H torsion
[ 10167 10162 10161 10158 ] final   -6.58 input  -65.29 | X-H torsion
[ 10718 10713 10712 10709 ] final  -36.42 input   66.30 | X-H torsion
[ 10763 10752 10751 10750 ] final  106.41 input  -60.55 | X-H torsion
[ 11005 11000 10999 10996 ] final -126.47 input  -57.11 | X-H torsion

> <Gold.Protein.ActiveResidues>
 VAL166  LYS551  ARG553  GLY616  TRP617  ASP618  TYR619  PRO620  LYS621  CYS622 
 ASP623  PHE694  ASN695  SER759  ASP760  ASP761  ALA762  ILE779  LEU786  VAL792 
 PHE793  MET794  SER795  GLU796  ALA797  LYS798  CYS799  TRP800  GLU811  SER814 

> <Gold.Protein.RotatedAtoms>
  152.2042  134.8561  160.0504 H   0  0  0  0  0  0  0  0  0  0  0  0  # atno 6907 bound_to 6896
  151.9403  133.3631  159.3971 H   0  0  0  0  0  0  0  0  0  0  0  0  # atno 6908 bound_to 6896
  150.6961  134.4370  159.5319 H   0  0  0  0  0  0  0  0  0  0  0  0  # atno 6909 bound_to 6896
  145.7908  140.8710  143.0281 H   0  0  0  0  0  0  0  0  0  0  0  0  # atno 7974 bound_to 7965
  154.4416  140.1032  156.6330 H   0  0  0  0  0  0  0  0  0  0  0  0  # atno 8008 bound_to 7997
  155.5584  140.3487  155.4467 H   0  0  0  0  0  0  0  0  0  0  0  0  # atno 8009 bound_to 7997
  156.0477  140.1297  157.0074 H   0  0  0  0  0  0  0  0  0  0  0  0  # atno 8010 bound_to 7997
  140.7001  143.6177  150.8642 H   0  0  0  0  0  0  0  0  0  0  0  0  # atno 10167 bound_to 10162
  156.3271  130.4274  149.7906 H   0  0  0  0  0  0  0  0  0  0  0  0  # atno 10718 bound_to 10713
  153.3926  135.3878  155.1934 H   0  0  0  0  0  0  0  0  0  0  0  0  # atno 10763 bound_to 10752
  154.8721  135.3752  154.4718 H   0  0  0  0  0  0  0  0  0  0  0  0  # atno 10764 bound_to 10752
  153.5206  135.7087  153.5795 H   0  0  0  0  0  0  0  0  0  0  0  0  # atno 10765 bound_to 10752
  140.9678  134.0847  157.3901 H   0  0  0  0  0  0  0  0  0  0  0  0  # atno 11005 bound_to 11000
  144.6782  140.0121  143.7484 LP  0  0  0  0  0  0  0  0  0  0  0  0  # atno 17320 bound_to 7965
  145.9978  139.3066  143.0946 LP  0  0  0  0  0  0  0  0  0  0  0  0  # atno 17321 bound_to 7965
  139.9899  143.5858  152.2914 LP  0  0  0  0  0  0  0  0  0  0  0  0  # atno 17342 bound_to 10162
  139.6510  144.7660  151.2149 LP  0  0  0  0  0  0  0  0  0  0  0  0  # atno 17343 bound_to 10162
  156.5193  130.8207  151.3197 LP  0  0  0  0  0  0  0  0  0  0  0  0  # atno 17370 bound_to 10713
  157.7423  130.9888  150.2509 LP  0  0  0  0  0  0  0  0  0  0  0  0  # atno 17371 bound_to 10713
  139.8901  135.0109  156.6717 LP  0  0  0  0  0  0  0  0  0  0  0  0  # atno 17394 bound_to 11000
  140.7373  133.9008  155.8253 LP  0  0  0  0  0  0  0  0  0  0  0  0  # atno 17395 bound_to 11000

$$$$
