AV-unprocessed.smi:1762|AV-procd|sdf|7105|dock7
  -GOLD-   22720 8323D 1   1.00000     0.00000
 Structure written by MMmdl.
 53 54  0  0  0  0  0  0  0  0  2 V2000
  153.2037  143.0749  159.9155 C   0  0  0  0  0  0  0  0  0  0  0  0
  152.7190  141.9020  159.0559 C   0  0  2  0  0  0  0  0  0  0  0  0
  151.4536  142.2525  158.2512 C   0  0  0  0  0  0  0  0  0  0  0  0
  150.9321  141.1126  157.4891 N   0  0  0  0  0  0  0  0  0  0  0  0
  149.7504  141.4624  156.6512 C   0  0  2  0  0  0  0  0  0  0  0  0
  148.4470  141.6108  157.4715 C   0  0  0  0  0  0  0  0  0  0  0  0
  148.0266  140.6731  158.1505 O   0  0  0  0  0  0  0  0  0  0  0  0
  147.8348  142.8048  157.4207 N   0  0  0  0  0  0  0  0  0  0  0  0
  146.6151  143.1467  158.1419 C   0  0  0  0  0  0  0  0  0  0  0  0
  146.8930  143.3935  159.6344 C   0  0  0  0  0  0  0  0  0  0  0  0
  145.6295  143.7146  160.4083 C   0  0  0  0  0  0  0  0  0  0  0  0
  145.6350  143.8968  161.8082 C   0  0  0  0  0  0  0  0  0  0  0  0
  144.4238  144.1889  162.4696 C   0  0  0  0  0  0  0  0  0  0  0  0
  143.2345  144.2914  161.7181 C   0  0  0  0  0  0  0  0  0  0  0  0
  143.2863  144.0978  160.3225 C   0  0  0  0  0  0  0  0  0  0  0  0
  144.4662  143.8193  159.7255 N   0  3  0  0  0  0  0  0  0  0  0  0
  149.5192  140.5357  155.4100 C   0  0  0  0  0  0  0  0  0  0  0  0
  148.5178  141.1124  154.3885 C   0  0  0  0  0  0  0  0  0  0  0  0
  149.1375  139.0875  155.7747 C   0  0  0  0  0  0  0  0  0  0  0  0
  150.7053  139.9935  158.4218 C   0  0  0  0  0  0  0  0  0  0  0  0
  151.9423  139.6420  159.2724 C   0  0  1  0  0  0  0  0  0  0  0  0
  153.0378  138.9072  158.4800 C   0  0  0  0  0  0  0  0  0  0  0  0
  152.4457  140.8066  159.9224 O   0  0  0  0  0  0  0  0  0  0  0  0
  153.4508  143.9387  159.2979 H   0  0  0  0  0  0  0  0  0  0  0  0
  154.0977  142.8023  160.4769 H   0  0  0  0  0  0  0  0  0  0  0  0
  152.4412  143.3817  160.6319 H   0  0  0  0  0  0  0  0  0  0  0  0
  153.5220  141.6308  158.3698 H   0  0  0  0  0  0  0  0  0  0  0  0
  150.6824  142.6339  158.9229 H   0  0  0  0  0  0  0  0  0  0  0  0
  151.7239  143.0711  157.5877 H   0  0  0  0  0  0  0  0  0  0  0  0
  149.9481  142.4545  156.2394 H   0  0  0  0  0  0  0  0  0  0  0  0
  148.2454  143.5242  156.8429 H   0  0  0  0  0  0  0  0  0  0  0  0
  146.1916  144.0425  157.6867 H   0  0  0  0  0  0  0  0  0  0  0  0
  145.8751  142.3542  158.0155 H   0  0  0  0  0  0  0  0  0  0  0  0
  147.3645  142.5173  160.0820 H   0  0  0  0  0  0  0  0  0  0  0  0
  147.6009  144.2150  159.7529 H   0  0  0  0  0  0  0  0  0  0  0  0
  146.5546  143.8135  162.3697 H   0  0  0  0  0  0  0  0  0  0  0  0
  144.4071  144.3328  163.5402 H   0  0  0  0  0  0  0  0  0  0  0  0
  142.2968  144.5155  162.2056 H   0  0  0  0  0  0  0  0  0  0  0  0
  142.4267  144.1577  159.6710 H   0  0  0  0  0  0  0  0  0  0  0  0
  150.4549  140.4856  154.8555 H   0  0  0  0  0  0  0  0  0  0  0  0
  147.4965  141.1153  154.7705 H   0  0  0  0  0  0  0  0  0  0  0  0
  148.5157  140.5218  153.4719 H   0  0  0  0  0  0  0  0  0  0  0  0
  148.7777  142.1357  154.1160 H   0  0  0  0  0  0  0  0  0  0  0  0
  148.1608  139.0316  156.2547 H   0  0  0  0  0  0  0  0  0  0  0  0
  149.8663  138.6379  156.4490 H   0  0  0  0  0  0  0  0  0  0  0  0
  149.0957  138.4620  154.8828 H   0  0  0  0  0  0  0  0  0  0  0  0
  149.8793  140.2442  159.0896 H   0  0  0  0  0  0  0  0  0  0  0  0
  150.4099  139.0837  157.9004 H   0  0  0  0  0  0  0  0  0  0  0  0
  151.6214  138.9676  160.0669 H   0  0  0  0  0  0  0  0  0  0  0  0
  152.6713  137.9498  158.1088 H   0  0  0  0  0  0  0  0  0  0  0  0
  153.9048  138.7071  159.1096 H   0  0  0  0  0  0  0  0  0  0  0  0
  153.3753  139.4809  157.6171 H   0  0  0  0  0  0  0  0  0  0  0  0
  144.4803  143.6831  158.7143 H   0  0  0  0  0  0  0  0  0  0  0  0
  1  2  1  0  0  0  0
  1 24  1  0  0  0  0
  1 25  1  0  0  0  0
  1 26  1  0  0  0  0
  2 23  1  0  0  0  0
  2  3  1  0  0  0  0
  2 27  1  0  0  0  0
  3  4  1  0  0  0  0
  3 28  1  0  0  0  0
  3 29  1  0  0  0  0
  4  5  1  0  0  0  0
  4 20  1  0  0  0  0
  5  6  1  0  0  0  0
  5 17  1  0  0  0  0
  5 30  1  0  0  0  0
  6  7  2  0  0  0  0
  6  8  1  0  0  0  0
  8  9  1  0  0  0  0
  8 31  1  0  0  0  0
  9 10  1  0  0  0  0
  9 32  1  0  0  0  0
  9 33  1  0  0  0  0
 10 11  1  0  0  0  0
 10 34  1  0  0  0  0
 10 35  1  0  0  0  0
 11 16  1  0  0  0  0
 11 12  2  0  0  0  0
 12 13  1  0  0  0  0
 12 36  1  0  0  0  0
 13 14  2  0  0  0  0
 13 37  1  0  0  0  0
 14 15  1  0  0  0  0
 14 38  1  0  0  0  0
 15 16  2  0  0  0  0
 15 39  1  0  0  0  0
 16 53  1  0  0  0  0
 17 18  1  0  0  0  0
 17 19  1  0  0  0  0
 17 40  1  0  0  0  0
 18 41  1  0  0  0  0
 18 42  1  0  0  0  0
 18 43  1  0  0  0  0
 19 44  1  0  0  0  0
 19 45  1  0  0  0  0
 19 46  1  0  0  0  0
 20 21  1  0  0  0  0
 20 47  1  0  0  0  0
 20 48  1  0  0  0  0
 21 22  1  0  0  0  0
 21 23  1  0  0  0  0
 21 49  1  0  0  0  0
 22 50  1  0  0  0  0
 22 51  1  0  0  0  0
 22 52  1  0  0  0  0
M  CHG  1  16   1
M  END
> <s_m_source_file>
AV-unprocessed.smi

> <i_m_source_file_index>
1762

> <i_lp_mmshare_version>
43012

> <i_f3d_flags>
0

> <s_epik_input>
W0NIM11bQ0BASF0xW0NIMl1OKFtDSDJdW0NASF0oTzEpW0NIM10pW0NAQEhdKFtDSF0oW0NIM10pW0NIM10pQyg9TylbTkhdW0NIMl1bQ0gyXWMyW2NIXVtjSF1bY0hdW2NIXW4y

> <s_epik_cmdline>
J2VwaWtfcHl0aG9uJywgJy1waCcsICc3LjAnLCAnLXRuJywgJzgnLCAnLW1hJywgJzIwMCcsICctbWV0YWxfYmluZGluZycsICctaW1hZScsICc8aW5maWxlLm1hZT4nLCAnLW9tYWUnLCAnPG91dGZpbGUubWFlPic=

> <r_epik_Ionization_Penalty>
1.86475

> <r_epik_Ionization_Penalty_Charging>
1.85347

> <r_epik_Ionization_Penalty_Neutral>
0.0112771

> <r_epik_State_Penalty>
1.99714

> <r_epik_Charging_Adjusted_Penalty>
3.85061

> <i_epik_Tot_Q>
1

> <i_epik_Tot_abs_Q>
1

> <r_epik_Metal_State_Penalty>
2.02271

> <b_epik_Metal_Only>
0

> <s_lp_Force_Field>
OPLS_2005

> <r_lp_Energy>
35.8241

> <b_lp_Chiralities_Consistent>
1

> <s_lp_Variant>
AV-unprocessed.smi:1762-7

> <Gold.Version>
5.8.1

> <Gold.Id.Protein>
6NUR|6NUR_protein|mol2

> <Gold.PLP.Fitness>
38.8479

> <Gold.PLP.PLP>
-37.4154

> <Gold.PLP.part.hbond>
-2.1954

> <Gold.PLP.part.metal>
0.0000

> <Gold.PLP.part.buried>
-4.5100

> <Gold.PLP.part.nonpolar>
-30.2354

> <Gold.PLP.part.repulsive>
0.0750

> <Gold.PLP.ligand.clash>
0.0000

> <Gold.PLP.ligand.torsion>
0.6313

> <Gold.PLP.Chemscore.Hbond>
0.8000

> <Gold.PLP.Chemscore.CHOScore>
0.0000

> <Gold.PLP.Chemscore.Metal>
0.0000

> <Gold.Chemscore.Hbonds>
donor molecule, donor type, donor heavy atom, donor atom, acceptor molecule, acceptor atom, score
      L1  H     8    31       P1  8028  0.70

> <Gold.PLP.Chemscore.Internal.Correction>
0.2952

> <Gold.Rescore>
     Score         DG    S(hbond)    S(metal)    S(lipo)     H(rot)  DE(clash)    DE(int)     intcor
     13.94     -15.94       0.94        0.00     100.15       1.72       0.00       1.99       ----

> <Gold.Chemscore.Fitness>
13.9429

> <Gold.Chemscore.DG>
-15.9368

> <Gold.Chemscore.ZeroCoef>
-5.4800

> <Gold.Chemscore.Hbond>
0.9389

> <Gold.Chemscore.Metal>
0.0000

> <Gold.Chemscore.Lipo>
100.1497

> <Gold.Chemscore.Internal_Hbond>
0.0000

> <Gold.Chemscore.DEClash>
0.0040

> <Gold.Chemscore.DEInternal>
1.9899

> <Gold.Chemscore.Rot>
1.7174

> <Gold.Chemscore.Internal.Correction>
   9.000000E+99

> <Gold.Chemscore.Hbonds>
donor molecule, donor type, donor heavy atom, donor atom, acceptor molecule, acceptor atom, score
      L1  H     8    31       P1  8028  0.07

> <Gold.Chemscore.Hbond.Weighted>
-3.1359

> <Gold.Chemscore.Metal.Weighted>
-0.0000

> <Gold.Chemscore.Lipo.Weighted>
-11.7175

> <Gold.Chemscore.Internal_Hbond.Weighted>
0.0000

> <Gold.Chemscore.DEClash.Weighted>
0.0040

> <Gold.Chemscore.DEInternal.Weighted>
1.9899

> <Gold.Chemscore.Rot.Weighted>
4.3966

> <Gold.Chemscore.Internal.Correction.Weighted>
   9.000000E+99

> <Gold.Protein.RotatedTorsions>
[ 6907 6896 6895 6894 ] final  -18.47 input  -60.11 | X-H torsion
[ 7974 7965 7964 7962 ] final  158.68 input  175.53 | X-H torsion
[ 8008 7997 7996 7995 ] final -100.80 input   59.86 | X-H torsion
[ 10167 10162 10161 10158 ] final   73.87 input  -65.29 | X-H torsion
[ 10718 10713 10712 10709 ] final  -93.79 input   66.30 | X-H torsion
[ 10763 10752 10751 10750 ] final   58.84 input  -60.55 | X-H torsion
[ 11005 11000 10999 10996 ] final  -17.99 input  -57.11 | X-H torsion

> <Gold.Protein.ActiveResidues>
 VAL166  LYS551  ARG553  GLY616  TRP617  ASP618  TYR619  PRO620  LYS621  CYS622 
 ASP623  PHE694  ASN695  SER759  ASP760  ASP761  ALA762  ILE779  LEU786  VAL792 
 PHE793  MET794  SER795  GLU796  ALA797  LYS798  CYS799  TRP800  GLU811  SER814 

> <Gold.Protein.RotatedAtoms>
  151.2777  135.0704  159.9157 H   0  0  0  0  0  0  0  0  0  0  0  0  # atno 6907 bound_to 6896
  152.5339  134.0063  159.7928 H   0  0  0  0  0  0  0  0  0  0  0  0  # atno 6908 bound_to 6896
  151.0312  133.5738  159.2691 H   0  0  0  0  0  0  0  0  0  0  0  0  # atno 6909 bound_to 6896
  144.7832  139.7512  143.6251 H   0  0  0  0  0  0  0  0  0  0  0  0  # atno 7974 bound_to 7965
  154.8337  140.0438  157.1494 H   0  0  0  0  0  0  0  0  0  0  0  0  # atno 8008 bound_to 7997
  154.9124  140.3015  155.5239 H   0  0  0  0  0  0  0  0  0  0  0  0  # atno 8009 bound_to 7997
  156.2988  140.2356  156.4164 H   0  0  0  0  0  0  0  0  0  0  0  0  # atno 8010 bound_to 7997
  140.0198  144.5549  150.7591 H   0  0  0  0  0  0  0  0  0  0  0  0  # atno 10167 bound_to 10162
  156.0018  130.5041  150.5829 H   0  0  0  0  0  0  0  0  0  0  0  0  # atno 10718 bound_to 10713
  152.9880  135.5592  154.5618 H   0  0  0  0  0  0  0  0  0  0  0  0  # atno 10763 bound_to 10752
  154.5035  135.2798  155.1403 H   0  0  0  0  0  0  0  0  0  0  0  0  # atno 10764 bound_to 10752
  154.2824  135.6342  153.5405 H   0  0  0  0  0  0  0  0  0  0  0  0  # atno 10765 bound_to 10752
  140.8224  133.8058  155.9673 H   0  0  0  0  0  0  0  0  0  0  0  0  # atno 11005 bound_to 11000
  146.2051  139.5370  142.9718 LP  0  0  0  0  0  0  0  0  0  0  0  0  # atno 17320 bound_to 7965
  145.5993  141.0358  143.2027 LP  0  0  0  0  0  0  0  0  0  0  0  0  # atno 17321 bound_to 7965
  140.7347  143.2732  151.3823 LP  0  0  0  0  0  0  0  0  0  0  0  0  # atno 17342 bound_to 10162
  139.6147  144.1026  152.2334 LP  0  0  0  0  0  0  0  0  0  0  0  0  # atno 17343 bound_to 10162
  157.3706  131.0765  151.1561 LP  0  0  0  0  0  0  0  0  0  0  0  0  # atno 17370 bound_to 10713
  157.2316  130.6527  149.5852 LP  0  0  0  0  0  0  0  0  0  0  0  0  # atno 17371 bound_to 10713
  140.9085  134.2290  157.5000 LP  0  0  0  0  0  0  0  0  0  0  0  0  # atno 17394 bound_to 11000
  139.8708  134.9739  156.4827 LP  0  0  0  0  0  0  0  0  0  0  0  0  # atno 17395 bound_to 11000

$$$$
