AV-unprocessed.smi:2732|AV-procd|sdf|10535|dock1
  -GOLD-   2272014583D 1   1.00000     0.00000
 Structure written by MMmdl.
 35 36  0  0  0  0  0  0  0  0  2 V2000
  149.2706  134.1152  153.6565 C   0  0  0  0  0  0  0  0  0  0  0  0
  148.5696  132.8078  153.2571 C   0  0  1  0  0  0  0  0  0  0  0  0
  148.4240  132.0218  154.4370 O   0  0  0  0  0  0  0  0  0  0  0  0
  149.6174  131.8079  155.1804 C   0  0  0  0  0  0  0  0  0  0  0  0
  150.5456  130.9319  154.3678 C   0  0  0  0  0  0  0  0  0  0  0  0
  150.5439  129.4322  154.5594 C   0  0  0  0  0  0  0  0  0  0  0  0
  151.7255  130.2471  155.0196 C   0  0  0  0  0  0  0  0  0  0  0  0
  147.1952  133.0766  152.6218 C   0  0  0  0  0  0  0  0  0  0  0  0
  146.3478  133.7146  153.2462 O   0  0  0  0  0  0  0  0  0  0  0  0
  147.0024  132.5475  151.3991 N   0  0  0  0  0  0  0  0  0  0  0  0
  145.8454  132.6175  150.5775 C   0  0  0  0  0  0  0  0  0  0  0  0
  145.8690  131.9273  149.3458 C   0  0  0  0  0  0  0  0  0  0  0  0
  144.7471  131.9789  148.4928 C   0  0  0  0  0  0  0  0  0  0  0  0
  143.6209  132.7316  148.8836 C   0  0  0  0  0  0  0  0  0  0  0  0
  142.4797  132.8246  148.0893 N   0  0  0  0  0  0  0  0  0  0  0  0
  143.6364  133.3927  150.0609 N   0  3  0  0  0  0  0  0  0  0  0  0
  144.6892  133.3675  150.9075 C   0  0  0  0  0  0  0  0  0  0  0  0
  149.3871  134.7815  152.8010 H   0  0  0  0  0  0  0  0  0  0  0  0
  150.2658  133.9132  154.0532 H   0  0  0  0  0  0  0  0  0  0  0  0
  148.7137  134.6510  154.4263 H   0  0  0  0  0  0  0  0  0  0  0  0
  149.2102  132.2815  152.5467 H   0  0  0  0  0  0  0  0  0  0  0  0
  150.1199  132.7467  155.4161 H   0  0  0  0  0  0  0  0  0  0  0  0
  149.3907  131.3041  156.1208 H   0  0  0  0  0  0  0  0  0  0  0  0
  150.6919  131.2755  153.3455 H   0  0  0  0  0  0  0  0  0  0  0  0
  149.8921  129.0178  155.3260 H   0  0  0  0  0  0  0  0  0  0  0  0
  150.6748  128.8133  153.6741 H   0  0  0  0  0  0  0  0  0  0  0  0
  152.6442  130.1740  154.4411 H   0  0  0  0  0  0  0  0  0  0  0  0
  151.8592  130.3776  156.0916 H   0  0  0  0  0  0  0  0  0  0  0  0
  147.7551  131.9752  151.0447 H   0  0  0  0  0  0  0  0  0  0  0  0
  146.7381  131.3547  149.0559 H   0  0  0  0  0  0  0  0  0  0  0  0
  144.7564  131.4472  147.5523 H   0  0  0  0  0  0  0  0  0  0  0  0
  142.4159  132.3534  147.1980 H   0  0  0  0  0  0  0  0  0  0  0  0
  141.6726  133.3562  148.3824 H   0  0  0  0  0  0  0  0  0  0  0  0
  144.5647  133.9566  151.8037 H   0  0  0  0  0  0  0  0  0  0  0  0
  142.8167  133.9395  150.3257 H   0  0  0  0  0  0  0  0  0  0  0  0
  1  2  1  0  0  0  0
  1 18  1  0  0  0  0
  1 19  1  0  0  0  0
  1 20  1  0  0  0  0
  2  3  1  0  0  0  0
  2  8  1  0  0  0  0
  2 21  1  0  0  0  0
  3  4  1  0  0  0  0
  4  5  1  0  0  0  0
  4 22  1  0  0  0  0
  4 23  1  0  0  0  0
  5  7  1  0  0  0  0
  5  6  1  0  0  0  0
  5 24  1  0  0  0  0
  6  7  1  0  0  0  0
  6 25  1  0  0  0  0
  6 26  1  0  0  0  0
  7 27  1  0  0  0  0
  7 28  1  0  0  0  0
  8  9  2  0  0  0  0
  8 10  1  0  0  0  0
 10 11  1  0  0  0  0
 10 29  1  0  0  0  0
 11 17  1  0  0  0  0
 11 12  2  0  0  0  0
 12 13  1  0  0  0  0
 12 30  1  0  0  0  0
 13 14  2  0  0  0  0
 13 31  1  0  0  0  0
 14 15  1  0  0  0  0
 14 16  1  0  0  0  0
 15 32  1  0  0  0  0
 15 33  1  0  0  0  0
 16 17  2  0  0  0  0
 16 35  1  0  0  0  0
 17 34  1  0  0  0  0
M  CHG  1  16   1
M  END
> <s_m_source_file>
AV-unprocessed.smi

> <i_m_source_file_index>
2732

> <i_lp_mmshare_version>
43012

> <i_f3d_flags>
0

> <s_epik_input>
W0NIMl0xW0NIMl1bQ0hdMVtDSDJdT1tDQEBIXShbQ0gzXSlDKD1PKVtOSF1jMltjSF1bY0hdYyhbTkgyXSluW2NIXTI=

> <s_epik_cmdline>
J2VwaWtfcHl0aG9uJywgJy1waCcsICc3LjAnLCAnLXRuJywgJzgnLCAnLW1hJywgJzIwMCcsICctbWV0YWxfYmluZGluZycsICctaW1hZScsICc8aW5maWxlLm1hZT4nLCAnLW9tYWUnLCAnPG91dGZpbGUubWFlPic=

> <r_lp_tautomer_probability>
0.999994

> <r_epik_Ionization_Penalty>
1.25173

> <r_epik_Ionization_Penalty_Charging>
1.25172

> <r_epik_Ionization_Penalty_Neutral>
2.35798e-06

> <r_epik_State_Penalty>
1.32157

> <r_epik_Charging_Adjusted_Penalty>
2.5733

> <i_epik_Tot_Q>
1

> <i_epik_Tot_abs_Q>
1

> <r_epik_Metal_State_Penalty>
1.39188

> <b_epik_Metal_Only>
0

> <s_lp_Force_Field>
OPLS_2005

> <r_lp_Energy>
25.671

> <b_lp_Chiralities_Consistent>
1

> <s_lp_Variant>
AV-unprocessed.smi:2732-4

> <Gold.Version>
5.8.1

> <Gold.Id.Protein>
6NUR|6NUR_protein|mol2

> <Gold.PLP.Fitness>
49.5131

> <Gold.PLP.PLP>
-34.3444

> <Gold.PLP.part.hbond>
-4.0000

> <Gold.PLP.part.metal>
0.0000

> <Gold.PLP.part.buried>
-0.7405

> <Gold.PLP.part.nonpolar>
-28.7869

> <Gold.PLP.part.repulsive>
0.4190

> <Gold.PLP.ligand.clash>
0.0000

> <Gold.PLP.ligand.torsion>
0.3466

> <Gold.PLP.Chemscore.Hbond>
5.0986

> <Gold.PLP.Chemscore.CHOScore>
0.0000

> <Gold.PLP.Chemscore.Metal>
0.0000

> <Gold.Chemscore.Hbonds>
donor molecule, donor type, donor heavy atom, donor atom, acceptor molecule, acceptor atom, score
      L1  H    10    29       P1 10747  1.00
      L1  H    15    32       P1 10195  0.50
      L1  H    15    33       P1 10186  1.95
      L1  H    16    35       P1 10186  1.54

> <Gold.PLP.Chemscore.Internal.Correction>
0.5662

> <Gold.Rescore>
     Score         DG    S(hbond)    S(metal)    S(lipo)     H(rot)  DE(clash)    DE(int)     intcor
     17.86     -20.63       3.22        0.00      76.10       1.76       1.18       1.60       ----

> <Gold.Chemscore.Fitness>
17.8562

> <Gold.Chemscore.DG>
-20.6331

> <Gold.Chemscore.ZeroCoef>
-5.4800

> <Gold.Chemscore.Hbond>
3.2202

> <Gold.Chemscore.Metal>
0.0000

> <Gold.Chemscore.Lipo>
76.1032

> <Gold.Chemscore.Internal_Hbond>
0.0000

> <Gold.Chemscore.DEClash>
1.1818

> <Gold.Chemscore.DEInternal>
1.5951

> <Gold.Chemscore.Rot>
1.7604

> <Gold.Chemscore.Internal.Correction>
   9.000000E+99

> <Gold.Chemscore.Hbonds>
donor molecule, donor type, donor heavy atom, donor atom, acceptor molecule, acceptor atom, score
      L1  H    10    29       P1 10747  1.00
      L1  H    15    32       P1 10195  0.49
      L1  H    15    33       P1 10186  0.93
      L1  H    16    35       P1 10186  0.70

> <Gold.Chemscore.Hbond.Weighted>
-10.7555

> <Gold.Chemscore.Metal.Weighted>
-0.0000

> <Gold.Chemscore.Lipo.Weighted>
-8.9041

> <Gold.Chemscore.Internal_Hbond.Weighted>
0.0000

> <Gold.Chemscore.DEClash.Weighted>
1.1818

> <Gold.Chemscore.DEInternal.Weighted>
1.5951

> <Gold.Chemscore.Rot.Weighted>
4.5065

> <Gold.Chemscore.Internal.Correction.Weighted>
   9.000000E+99

> <Gold.Protein.RotatedTorsions>
[ 6907 6896 6895 6894 ] final  162.44 input  -60.11 | X-H torsion
[ 7974 7965 7964 7962 ] final  125.31 input  175.53 | X-H torsion
[ 8008 7997 7996 7995 ] final -177.16 input   59.86 | X-H torsion
[ 10167 10162 10161 10158 ] final  -44.52 input  -65.29 | X-H torsion
[ 10718 10713 10712 10709 ] final -105.88 input   66.30 | X-H torsion
[ 10763 10752 10751 10750 ] final   29.26 input  -60.55 | X-H torsion
[ 11005 11000 10999 10996 ] final -135.51 input  -57.11 | X-H torsion

> <Gold.Protein.ActiveResidues>
 VAL166  LYS551  ARG553  GLY616  TRP617  ASP618  TYR619  PRO620  LYS621  CYS622 
 ASP623  PHE694  ASN695  SER759  ASP760  ASP761  ALA762  ILE779  LEU786  VAL792 
 PHE793  MET794  SER795  GLU796  ALA797  LYS798  CYS799  TRP800  GLU811  SER814 

> <Gold.Protein.RotatedAtoms>
  151.9404  133.3636  159.3962 H   0  0  0  0  0  0  0  0  0  0  0  0  # atno 6907 bound_to 6896
  150.6999  134.4445  159.5317 H   0  0  0  0  0  0  0  0  0  0  0  0  # atno 6908 bound_to 6896
  152.2101  134.8509  160.0549 H   0  0  0  0  0  0  0  0  0  0  0  0  # atno 6909 bound_to 6896
  145.0745  139.3704  143.4941 H   0  0  0  0  0  0  0  0  0  0  0  0  # atno 7974 bound_to 7965
  156.0036  140.1225  157.0523 H   0  0  0  0  0  0  0  0  0  0  0  0  # atno 8008 bound_to 7997
  154.4251  140.1102  156.5800 H   0  0  0  0  0  0  0  0  0  0  0  0  # atno 8009 bound_to 7997
  155.6178  140.3472  155.4644 H   0  0  0  0  0  0  0  0  0  0  0  0  # atno 8010 bound_to 7997
  140.6893  143.2926  151.3508 H   0  0  0  0  0  0  0  0  0  0  0  0  # atno 10167 bound_to 10162
  156.0365  130.5585  150.7602 H   0  0  0  0  0  0  0  0  0  0  0  0  # atno 10718 bound_to 10713
  153.0441  135.6493  154.0864 H   0  0  0  0  0  0  0  0  0  0  0  0  # atno 10763 bound_to 10752
  154.0565  135.2891  155.3333 H   0  0  0  0  0  0  0  0  0  0  0  0  # atno 10764 bound_to 10752
  154.6686  135.5365  153.8174 H   0  0  0  0  0  0  0  0  0  0  0  0  # atno 10765 bound_to 10752
  140.8892  134.1834  157.4539 H   0  0  0  0  0  0  0  0  0  0  0  0  # atno 11005 bound_to 11000
  146.3529  140.0506  142.8636 LP  0  0  0  0  0  0  0  0  0  0  0  0  # atno 17320 bound_to 7965
  145.1252  140.9486  143.4577 LP  0  0  0  0  0  0  0  0  0  0  0  0  # atno 17321 bound_to 7965
  139.6281  144.0774  152.2452 LP  0  0  0  0  0  0  0  0  0  0  0  0  # atno 17342 bound_to 10162
  140.0240  144.6131  150.7543 LP  0  0  0  0  0  0  0  0  0  0  0  0  # atno 17343 bound_to 10162
  157.5123  131.0926  151.0182 LP  0  0  0  0  0  0  0  0  0  0  0  0  # atno 17370 bound_to 10713
  157.0535  130.5796  149.5374 LP  0  0  0  0  0  0  0  0  0  0  0  0  # atno 17371 bound_to 10713
  139.8727  134.9851  156.5267 LP  0  0  0  0  0  0  0  0  0  0  0  0  # atno 17394 bound_to 11000
  140.8368  133.8236  155.9036 LP  0  0  0  0  0  0  0  0  0  0  0  0  # atno 17395 bound_to 11000

$$$$
