AV-unprocessed.smi:767|AV-procd|sdf|3670|dock10
  -GOLD-   22720 1 83D 1   1.00000     0.00000
 Structure written by MMmdl.
 48 50  0  0  0  0  0  0  0  0  2 V2000
  150.7289  141.5134  156.5104 C   0  0  0  0  0  0  0  0  0  0  0  0
  149.6334  141.0782  155.5604 C   0  0  0  0  0  0  0  0  0  0  0  0
  149.5590  139.7634  155.0538 C   0  0  0  0  0  0  0  0  0  0  0  0
  148.5102  139.4230  154.1751 C   0  0  0  0  0  0  0  0  0  0  0  0
  147.5547  140.4014  153.8226 C   0  0  0  0  0  0  0  0  0  0  0  0
  146.3968  140.0529  152.9017 C   0  0  0  0  0  0  0  0  0  0  0  0
  146.8029  139.1886  151.6891 C   0  0  0  0  0  0  0  0  0  0  0  0
  147.0439  137.7894  152.0303 N   0  0  0  0  0  0  0  0  0  0  0  0
  146.1479  136.9590  152.5805 C   0  0  0  0  0  0  0  0  0  0  0  0
  144.9999  137.2820  152.8841 O   0  0  0  0  0  0  0  0  0  0  0  0
  146.6493  135.7272  152.7321 N   0  0  0  0  0  0  0  0  0  0  0  0
  145.9206  134.5801  153.2768 C   0  0  1  0  0  0  0  0  0  0  0  0
  144.6399  134.2258  152.4817 C   0  0  1  0  0  0  0  0  0  0  0  0
  144.0318  135.1383  151.4456 C   0  0  0  0  0  0  0  0  0  0  0  0
  144.6283  134.6169  150.1350 C   0  0  0  0  0  0  0  0  0  0  0  0
  145.7788  133.8694  150.5258 O   0  0  0  0  0  0  0  0  0  0  0  0
  145.4668  133.1887  151.7401 C   0  0  1  0  0  0  0  0  0  0  0  0
  146.5414  133.2244  152.8471 C   0  0  0  0  0  0  0  0  0  0  0  0
  148.0033  133.1941  152.3807 C   0  0  0  0  0  0  0  0  0  0  0  0
  146.4010  132.1106  153.8894 C   0  0  0  0  0  0  0  0  0  0  0  0
  147.6850  141.7027  154.3534 C   0  0  0  0  0  0  0  0  0  0  0  0
  148.7047  141.9895  155.1921 N   0  3  0  0  0  0  0  0  0  0  0  0
  151.1303  140.6584  157.0554 H   0  0  0  0  0  0  0  0  0  0  0  0
  150.3498  142.2305  157.2395 H   0  0  0  0  0  0  0  0  0  0  0  0
  151.5442  141.9814  155.9580 H   0  0  0  0  0  0  0  0  0  0  0  0
  150.2916  139.0214  155.3366 H   0  0  0  0  0  0  0  0  0  0  0  0
  148.4353  138.4168  153.7884 H   0  0  0  0  0  0  0  0  0  0  0  0
  145.6295  139.5373  153.4798 H   0  0  0  0  0  0  0  0  0  0  0  0
  145.9343  140.9759  152.5496 H   0  0  0  0  0  0  0  0  0  0  0  0
  145.9976  139.1994  150.9545 H   0  0  0  0  0  0  0  0  0  0  0  0
  147.6765  139.6129  151.1923 H   0  0  0  0  0  0  0  0  0  0  0  0
  147.9621  137.4238  151.8244 H   0  0  0  0  0  0  0  0  0  0  0  0
  147.6024  135.5599  152.4440 H   0  0  0  0  0  0  0  0  0  0  0  0
  145.7481  134.6419  154.3531 H   0  0  0  0  0  0  0  0  0  0  0  0
  143.9032  133.7490  153.1301 H   0  0  0  0  0  0  0  0  0  0  0  0
  142.9433  135.0769  151.4318 H   0  0  0  0  0  0  0  0  0  0  0  0
  144.2935  136.1803  151.6153 H   0  0  0  0  0  0  0  0  0  0  0  0
  143.9256  133.9492  149.6345 H   0  0  0  0  0  0  0  0  0  0  0  0
  144.8886  135.4193  149.4443 H   0  0  0  0  0  0  0  0  0  0  0  0
  144.9587  132.2351  151.5899 H   0  0  0  0  0  0  0  0  0  0  0  0
  148.2883  132.2036  152.0250 H   0  0  0  0  0  0  0  0  0  0  0  0
  148.6847  133.4615  153.1889 H   0  0  0  0  0  0  0  0  0  0  0  0
  148.1894  133.8854  151.5589 H   0  0  0  0  0  0  0  0  0  0  0  0
  146.6259  131.1324  153.4630 H   0  0  0  0  0  0  0  0  0  0  0  0
  145.3887  132.0586  154.2916 H   0  0  0  0  0  0  0  0  0  0  0  0
  147.0736  132.2655  154.7335 H   0  0  0  0  0  0  0  0  0  0  0  0
  147.0038  142.5141  154.1420 H   0  0  0  0  0  0  0  0  0  0  0  0
  148.7750  142.9356  155.5676 H   0  0  0  0  0  0  0  0  0  0  0  0
  1  2  1  0  0  0  0
  1 23  1  0  0  0  0
  1 24  1  0  0  0  0
  1 25  1  0  0  0  0
  2 22  1  0  0  0  0
  2  3  2  0  0  0  0
  3  4  1  0  0  0  0
  3 26  1  0  0  0  0
  4  5  2  0  0  0  0
  4 27  1  0  0  0  0
  5  6  1  0  0  0  0
  5 21  1  0  0  0  0
  6  7  1  0  0  0  0
  6 28  1  0  0  0  0
  6 29  1  0  0  0  0
  7  8  1  0  0  0  0
  7 30  1  0  0  0  0
  7 31  1  0  0  0  0
  8  9  1  0  0  0  0
  8 32  1  0  0  0  0
  9 10  2  0  0  0  0
  9 11  1  0  0  0  0
 11 12  1  0  0  0  0
 11 33  1  0  0  0  0
 12 18  1  0  0  0  0
 12 13  1  0  0  0  0
 12 34  1  0  0  0  0
 13 17  1  0  0  0  0
 13 14  1  0  0  0  0
 13 35  1  0  0  0  0
 14 15  1  0  0  0  0
 14 36  1  0  0  0  0
 14 37  1  0  0  0  0
 15 16  1  0  0  0  0
 15 38  1  0  0  0  0
 15 39  1  0  0  0  0
 16 17  1  0  0  0  0
 17 18  1  0  0  0  0
 17 40  1  0  0  0  0
 18 19  1  0  0  0  0
 18 20  1  0  0  0  0
 19 41  1  0  0  0  0
 19 42  1  0  0  0  0
 19 43  1  0  0  0  0
 20 44  1  0  0  0  0
 20 45  1  0  0  0  0
 20 46  1  0  0  0  0
 21 22  2  0  0  0  0
 21 47  1  0  0  0  0
 22 48  1  0  0  0  0
M  CHG  1  22   1
M  END
> <s_m_source_file>
AV-unprocessed.smi

> <i_m_source_file_index>
767

> <i_lp_mmshare_version>
43012

> <i_f3d_flags>
0

> <s_epik_input>
W0NIM11jMVtjSF1bY0hdYyhbY0hdbjEpW0NIMl1bQ0gyXVtOSF1DKD1PKVtOSF1bQ0BIXTJDKFtDSDNdKShbQ0gzXSlbQ0BIXShbQ0BASF0yMylPW0NIMl1bQ0gyXTM=

> <s_epik_cmdline>
J2VwaWtfcHl0aG9uJywgJy1waCcsICc3LjAnLCAnLXRuJywgJzgnLCAnLW1hJywgJzIwMCcsICctbWV0YWxfYmluZGluZycsICctaW1hZScsICc8aW5maWxlLm1hZT4nLCAnLW9tYWUnLCAnPG91dGZpbGUubWFlPic=

> <r_epik_Ionization_Penalty>
1.41853

> <r_epik_Ionization_Penalty_Charging>
1.41848

> <r_epik_Ionization_Penalty_Neutral>
5.17407e-05

> <r_epik_State_Penalty>
1.50205

> <r_epik_Charging_Adjusted_Penalty>
2.92053

> <i_epik_Tot_Q>
1

> <i_epik_Tot_abs_Q>
1

> <r_epik_Metal_State_Penalty>
1.5544

> <b_epik_Metal_Only>
0

> <s_lp_Force_Field>
OPLS_2005

> <r_lp_Energy>
40.9756

> <b_lp_Chiralities_Consistent>
1

> <s_lp_Variant>
AV-unprocessed.smi:767-14

> <Gold.Version>
5.8.1

> <Gold.Id.Protein>
6NUR|6NUR_protein|mol2

> <Gold.PLP.Fitness>
46.6782

> <Gold.PLP.PLP>
-35.4357

> <Gold.PLP.part.hbond>
-3.0000

> <Gold.PLP.part.metal>
0.0000

> <Gold.PLP.part.buried>
2.0178

> <Gold.PLP.part.nonpolar>
-34.7518

> <Gold.PLP.part.repulsive>
0.6760

> <Gold.PLP.ligand.clash>
0.0000

> <Gold.PLP.ligand.torsion>
0.4456

> <Gold.PLP.Chemscore.Hbond>
3.9760

> <Gold.PLP.Chemscore.CHOScore>
0.0000

> <Gold.PLP.Chemscore.Metal>
0.0000

> <Gold.Chemscore.Hbonds>
donor molecule, donor type, donor heavy atom, donor atom, acceptor molecule, acceptor atom, score
      L1  H     8    32       P1  7948  0.98
      L1  H    11    33       P1  7948  0.93
      L1  H    22    48       P1  8028  2.00

> <Gold.PLP.Chemscore.Internal.Correction>
0.2058

> <Gold.Rescore>
     Score         DG    S(hbond)    S(metal)    S(lipo)     H(rot)  DE(clash)    DE(int)     intcor
     18.01     -22.08       2.88        0.00      92.90       1.52       2.69       1.39       ----

> <Gold.Chemscore.Fitness>
18.0079

> <Gold.Chemscore.DG>
-22.0839

> <Gold.Chemscore.ZeroCoef>
-5.4800

> <Gold.Chemscore.Hbond>
2.8845

> <Gold.Chemscore.Metal>
0.0000

> <Gold.Chemscore.Lipo>
92.8991

> <Gold.Chemscore.Internal_Hbond>
0.0000

> <Gold.Chemscore.DEClash>
2.6871

> <Gold.Chemscore.DEInternal>
1.3890

> <Gold.Chemscore.Rot>
1.5233

> <Gold.Chemscore.Internal.Correction>
   9.000000E+99

> <Gold.Chemscore.Hbonds>
donor molecule, donor type, donor heavy atom, donor atom, acceptor molecule, acceptor atom, score
      L1  H     8    32       P1  7948  0.86
      L1  H    11    33       P1  7948  0.88
      L1  H    22    48       P1  8028  1.00

> <Gold.Chemscore.Hbond.Weighted>
-9.6342

> <Gold.Chemscore.Metal.Weighted>
-0.0000

> <Gold.Chemscore.Lipo.Weighted>
-10.8692

> <Gold.Chemscore.Internal_Hbond.Weighted>
0.0000

> <Gold.Chemscore.DEClash.Weighted>
2.6871

> <Gold.Chemscore.DEInternal.Weighted>
1.3890

> <Gold.Chemscore.Rot.Weighted>
3.8995

> <Gold.Chemscore.Internal.Correction.Weighted>
   9.000000E+99

> <Gold.Protein.RotatedTorsions>
[ 6907 6896 6895 6894 ] final -153.44 input  -60.11 | X-H torsion
[ 7974 7965 7964 7962 ] final  171.03 input  175.53 | X-H torsion
[ 8008 7997 7996 7995 ] final  -40.75 input   59.86 | X-H torsion
[ 10167 10162 10161 10158 ] final   55.40 input  -65.29 | X-H torsion
[ 10718 10713 10712 10709 ] final  -80.03 input   66.30 | X-H torsion
[ 10763 10752 10751 10750 ] final   50.88 input  -60.55 | X-H torsion
[ 11005 11000 10999 10996 ] final  -65.76 input  -57.11 | X-H torsion

> <Gold.Protein.ActiveResidues>
 VAL166  LYS551  ARG553  GLY616  TRP617  ASP618  TYR619  PRO620  LYS621  CYS622 
 ASP623  PHE694  ASN695  SER759  ASP760  ASP761  ALA762  ILE779  LEU786  VAL792 
 PHE793  MET794  SER795  GLU796  ALA797  LYS798  CYS799  TRP800  GLU811  SER814 

> <Gold.Protein.RotatedAtoms>
  151.2425  133.4392  159.2607 H   0  0  0  0  0  0  0  0  0  0  0  0  # atno 6907 bound_to 6896
  151.0692  134.9787  159.8310 H   0  0  0  0  0  0  0  0  0  0  0  0  # atno 6908 bound_to 6896
  152.5409  134.2372  159.8900 H   0  0  0  0  0  0  0  0  0  0  0  0  # atno 6909 bound_to 6896
  144.7306  139.9289  143.6423 H   0  0  0  0  0  0  0  0  0  0  0  0  # atno 7974 bound_to 7965
  154.4009  140.1517  156.3078 H   0  0  0  0  0  0  0  0  0  0  0  0  # atno 8008 bound_to 7997
  155.8643  140.3452  155.5756 H   0  0  0  0  0  0  0  0  0  0  0  0  # atno 8009 bound_to 7997
  155.7845  140.0848  157.2032 H   0  0  0  0  0  0  0  0  0  0  0  0  # atno 8010 bound_to 7997
  140.2198  144.3801  150.6455 H   0  0  0  0  0  0  0  0  0  0  0  0  # atno 10167 bound_to 10162
  156.0079  130.4563  150.3739 H   0  0  0  0  0  0  0  0  0  0  0  0  # atno 10718 bound_to 10713
  152.9784  135.5864  154.4324 H   0  0  0  0  0  0  0  0  0  0  0  0  # atno 10763 bound_to 10752
  154.3936  135.2768  155.2142 H   0  0  0  0  0  0  0  0  0  0  0  0  # atno 10764 bound_to 10752
  154.4003  135.6105  153.5948 H   0  0  0  0  0  0  0  0  0  0  0  0  # atno 10765 bound_to 10752
  141.1463  133.6687  156.6036 H   0  0  0  0  0  0  0  0  0  0  0  0  # atno 11005 bound_to 11000
  146.0872  139.3861  143.0428 LP  0  0  0  0  0  0  0  0  0  0  0  0  # atno 17320 bound_to 7965
  145.7760  140.9876  143.1124 LP  0  0  0  0  0  0  0  0  0  0  0  0  # atno 17321 bound_to 7965
  140.6263  143.2182  151.6589 LP  0  0  0  0  0  0  0  0  0  0  0  0  # atno 17342 bound_to 10162
  139.5148  144.3398  152.0751 LP  0  0  0  0  0  0  0  0  0  0  0  0  # atno 17343 bound_to 10162
  157.1822  131.0395  151.2743 LP  0  0  0  0  0  0  0  0  0  0  0  0  # atno 17370 bound_to 10713
  157.4135  130.7398  149.6858 LP  0  0  0  0  0  0  0  0  0  0  0  0  # atno 17371 bound_to 10713
  140.3669  134.7639  157.4572 LP  0  0  0  0  0  0  0  0  0  0  0  0  # atno 17394 bound_to 11000
  140.0741  134.5822  155.8610 LP  0  0  0  0  0  0  0  0  0  0  0  0  # atno 17395 bound_to 11000

$$$$
