AV-unprocessed.smi:2164|AV-procd|sdf|8810|dock5
  -GOLD-   2272012 03D 1   1.00000     0.00000
 Structure written by MMmdl.
 38 40  0  0  0  0  0  0  0  0  2 V2000
  150.4333  139.6502  154.1310 O   0  0  0  0  0  0  0  0  0  0  0  0
  150.9950  139.3695  155.1977 C   0  0  0  0  0  0  0  0  0  0  0  0
  151.7968  140.2181  155.9101 N   0  5  0  0  0  0  0  0  0  0  0  0
  151.3483  141.4304  156.5949 C   0  0  0  0  0  0  0  0  0  0  0  0
  151.9820  141.4962  157.9989 C   0  0  0  0  0  0  0  0  0  0  0  0
  151.9425  142.8832  158.6256 C   0  0  0  0  0  0  0  0  0  0  0  0
  152.4810  143.1168  159.9099 C   0  0  0  0  0  0  0  0  0  0  0  0
  152.4096  144.4141  160.4524 C   0  0  0  0  0  0  0  0  0  0  0  0
  151.7976  145.4273  159.6883 C   0  0  0  0  0  0  0  0  0  0  0  0
  151.2727  145.2176  158.4621 N   0  0  0  0  0  0  0  0  0  0  0  0
  151.3456  143.9705  157.9486 C   0  0  0  0  0  0  0  0  0  0  0  0
  150.7941  138.0232  155.7543 C   0  0  0  0  0  0  0  0  0  0  0  0
  150.1995  137.0205  155.0713 C   0  0  0  0  0  0  0  0  0  0  0  0
  150.0036  135.7389  155.5926 N   0  0  0  0  0  0  0  0  0  0  0  0
  149.2604  134.7773  154.7864 C   0  0  0  0  0  0  0  0  0  0  0  0
  149.8969  133.4000  154.8845 C   0  0  0  0  0  0  0  0  0  0  0  0
  149.7642  132.8945  156.6418 S   0  0  0  0  0  0  0  0  0  0  0  0
  148.3368  132.8480  156.9958 O   0  0  0  0  0  0  0  0  0  0  0  0
  150.5940  131.6958  156.8367 O   0  0  0  0  0  0  0  0  0  0  0  0
  150.4769  134.2095  157.3982 N   0  0  0  0  0  0  0  0  0  0  0  0
  150.4989  135.3991  156.8773 C   0  0  0  0  0  0  0  0  0  0  0  0
  151.1025  136.4857  157.6308 C   0  0  0  0  0  0  0  0  0  0  0  0
  151.2433  137.7190  157.1037 C   0  0  0  0  0  0  0  0  0  0  0  0
  151.6221  142.3290  156.0405 H   0  0  0  0  0  0  0  0  0  0  0  0
  150.2624  141.4578  156.6949 H   0  0  0  0  0  0  0  0  0  0  0  0
  151.4736  140.8001  158.6680 H   0  0  0  0  0  0  0  0  0  0  0  0
  153.0212  141.1673  157.9518 H   0  0  0  0  0  0  0  0  0  0  0  0
  152.9429  142.3161  160.4687 H   0  0  0  0  0  0  0  0  0  0  0  0
  152.8140  144.6271  161.4307 H   0  0  0  0  0  0  0  0  0  0  0  0
  151.7253  146.4335  160.0738 H   0  0  0  0  0  0  0  0  0  0  0  0
  150.9145  143.8357  156.9674 H   0  0  0  0  0  0  0  0  0  0  0  0
  149.8280  137.1394  154.0636 H   0  0  0  0  0  0  0  0  0  0  0  0
  148.2235  134.7508  155.1230 H   0  0  0  0  0  0  0  0  0  0  0  0
  149.2422  135.0856  153.7405 H   0  0  0  0  0  0  0  0  0  0  0  0
  149.3744  132.6686  154.2685 H   0  0  0  0  0  0  0  0  0  0  0  0
  150.9468  133.4139  154.5898 H   0  0  0  0  0  0  0  0  0  0  0  0
  151.4662  136.3320  158.6364 H   0  0  0  0  0  0  0  0  0  0  0  0
  151.7021  138.4843  157.7127 H   0  0  0  0  0  0  0  0  0  0  0  0
  1  2  2  0  0  0  0
  2  3  1  0  0  0  0
  2 12  1  0  0  0  0
  3  4  1  0  0  0  0
  4  5  1  0  0  0  0
  4 24  1  0  0  0  0
  4 25  1  0  0  0  0
  5  6  1  0  0  0  0
  5 26  1  0  0  0  0
  5 27  1  0  0  0  0
  6 11  1  0  0  0  0
  6  7  2  0  0  0  0
  7  8  1  0  0  0  0
  7 28  1  0  0  0  0
  8  9  2  0  0  0  0
  8 29  1  0  0  0  0
  9 10  1  0  0  0  0
  9 30  1  0  0  0  0
 10 11  2  0  0  0  0
 11 31  1  0  0  0  0
 12 23  1  0  0  0  0
 12 13  2  0  0  0  0
 13 14  1  0  0  0  0
 13 32  1  0  0  0  0
 14 21  1  0  0  0  0
 14 15  1  0  0  0  0
 15 16  1  0  0  0  0
 15 33  1  0  0  0  0
 15 34  1  0  0  0  0
 16 17  1  0  0  0  0
 16 35  1  0  0  0  0
 16 36  1  0  0  0  0
 17 18  2  0  0  0  0
 17 19  2  0  0  0  0
 17 20  1  0  0  0  0
 20 21  2  0  0  0  0
 21 22  1  0  0  0  0
 22 23  2  0  0  0  0
 22 37  1  0  0  0  0
 23 38  1  0  0  0  0
M  CHG  1   3  -1
M  END
> <s_m_source_file>
AV-unprocessed.smi

> <i_m_source_file_index>
2164

> <i_lp_mmshare_version>
43012

> <i_f3d_flags>
0

> <s_epik_input>
W0NIMl0xW0NIMl1TKD1PKSg9TylOPUMoTjEyKVtDSF09W0NIXUMoPVtDSF0yKUMoPU8pW05IXVtDSDJdW0NIMl1jM1tjSF1bY0hdW2NIXW5bY0hdMw==

> <s_epik_cmdline>
J2VwaWtfcHl0aG9uJywgJy1waCcsICc3LjAnLCAnLXRuJywgJzgnLCAnLW1hJywgJzIwMCcsICctbWV0YWxfYmluZGluZycsICctaW1hZScsICc8aW5maWxlLm1hZT4nLCAnLW9tYWUnLCAnPG91dGZpbGUubWFlPic=

> <r_epik_Ionization_Penalty>
5.17728

> <r_epik_Ionization_Penalty_Charging>
5.15676

> <r_epik_Ionization_Penalty_Neutral>
0.0205175

> <r_epik_State_Penalty>
5.1638

> <r_epik_Charging_Adjusted_Penalty>
10.3206

> <i_epik_Tot_Q>
-1

> <i_epik_Tot_abs_Q>
1

> <r_epik_Metal_State_Penalty>
1.2481

> <b_epik_Metal_Only>
1

> <s_lp_Force_Field>
OPLS_2005

> <r_lp_Energy>
26.7817

> <b_lp_Chiralities_Consistent>
1

> <s_lp_Variant>
AV-unprocessed.smi:2164-3

> <Gold.Version>
5.8.1

> <Gold.Id.Protein>
6NUR|6NUR_protein|mol2

> <Gold.PLP.Fitness>
47.3310

> <Gold.PLP.PLP>
-38.1674

> <Gold.PLP.part.hbond>
-2.0000

> <Gold.PLP.part.metal>
0.0000

> <Gold.PLP.part.buried>
-6.1917

> <Gold.PLP.part.nonpolar>
-30.0628

> <Gold.PLP.part.repulsive>
0.5665

> <Gold.PLP.ligand.clash>
0.0000

> <Gold.PLP.ligand.torsion>
0.8616

> <Gold.PLP.Chemscore.Hbond>
1.6240

> <Gold.PLP.Chemscore.CHOScore>
2.0000

> <Gold.PLP.Chemscore.Metal>
0.0000

> <Gold.Chemscore.Hbonds>
donor molecule, donor type, donor heavy atom, donor atom, acceptor molecule, acceptor atom, score
      P1  H  6896  6909       L1    20  0.64
      P1  H  7989  7998       L1     1  1.00
      L1  C    11    31       P1  8028  0.95
      L1  C    13    32       P1  7948  1.00

> <Gold.PLP.Chemscore.Internal.Correction>
0.0148

> <Gold.Rescore>
     Score         DG    S(hbond)    S(metal)    S(lipo)     H(rot)  DE(clash)    DE(int)     intcor
     18.14     -19.25       1.79        0.00      98.11       1.44       0.21       0.90       ----

> <Gold.Chemscore.Fitness>
18.1444

> <Gold.Chemscore.DG>
-19.2500

> <Gold.Chemscore.ZeroCoef>
-5.4800

> <Gold.Chemscore.Hbond>
1.7921

> <Gold.Chemscore.Metal>
0.0000

> <Gold.Chemscore.Lipo>
98.1130

> <Gold.Chemscore.Internal_Hbond>
0.0000

> <Gold.Chemscore.DEClash>
0.2050

> <Gold.Chemscore.DEInternal>
0.9006

> <Gold.Chemscore.Rot>
1.4433

> <Gold.Chemscore.Internal.Correction>
   9.000000E+99

> <Gold.Chemscore.Hbonds>
donor molecule, donor type, donor heavy atom, donor atom, acceptor molecule, acceptor atom, score
      P1  H  6896  6909       L1    20  0.44
      P1  H  7989  7998       L1     1  0.25

> <Gold.Chemscore.Hbond.Weighted>
-5.9857

> <Gold.Chemscore.Metal.Weighted>
-0.0000

> <Gold.Chemscore.Lipo.Weighted>
-11.4792

> <Gold.Chemscore.Internal_Hbond.Weighted>
0.0000

> <Gold.Chemscore.DEClash.Weighted>
0.2050

> <Gold.Chemscore.DEInternal.Weighted>
0.9006

> <Gold.Chemscore.Rot.Weighted>
3.6949

> <Gold.Chemscore.Internal.Correction.Weighted>
   9.000000E+99

> <Gold.Protein.RotatedTorsions>
[ 6907 6896 6895 6894 ] final   -6.07 input  -60.11 | X-H torsion
[ 7974 7965 7964 7962 ] final   41.11 input  175.53 | X-H torsion
[ 8008 7997 7996 7995 ] final  123.65 input   59.86 | X-H torsion
[ 10167 10162 10161 10158 ] final  -72.36 input  -65.29 | X-H torsion
[ 10718 10713 10712 10709 ] final  -11.01 input   66.30 | X-H torsion
[ 10763 10752 10751 10750 ] final -161.72 input  -60.55 | X-H torsion
[ 11005 11000 10999 10996 ] final  129.09 input  -57.11 | X-H torsion

> <Gold.Protein.ActiveResidues>
 VAL166  LYS551  ARG553  GLY616  TRP617  ASP618  TYR619  PRO620  LYS621  CYS622 
 ASP623  PHE694  ASN695  SER759  ASP760  ASP761  ALA762  ILE779  LEU786  VAL792 
 PHE793  MET794  SER795  GLU796  ALA797  LYS798  CYS799  TRP800  GLU811  SER814 

> <Gold.Protein.RotatedAtoms>
  151.4715  135.1046  159.9752 H   0  0  0  0  0  0  0  0  0  0  0  0  # atno 6907 bound_to 6896
  152.4814  133.8261  159.7089 H   0  0  0  0  0  0  0  0  0  0  0  0  # atno 6908 bound_to 6896
  150.8890  133.7208  159.2937 H   0  0  0  0  0  0  0  0  0  0  0  0  # atno 6909 bound_to 6896
  146.0850  139.5454  142.9512 H   0  0  0  0  0  0  0  0  0  0  0  0  # atno 7974 bound_to 7965
  156.2773  140.2758  156.1661 H   0  0  0  0  0  0  0  0  0  0  0  0  # atno 8008 bound_to 7997
  155.0703  140.0387  157.2624 H   0  0  0  0  0  0  0  0  0  0  0  0  # atno 8009 bound_to 7997
  154.7045  140.2656  155.6693 H   0  0  0  0  0  0  0  0  0  0  0  0  # atno 8010 bound_to 7997
  140.5198  143.2333  151.7449 H   0  0  0  0  0  0  0  0  0  0  0  0  # atno 10167 bound_to 10162
  156.6652  130.4993  149.6018 H   0  0  0  0  0  0  0  0  0  0  0  0  # atno 10718 bound_to 10713
  154.7278  135.3039  154.8942 H   0  0  0  0  0  0  0  0  0  0  0  0  # atno 10763 bound_to 10752
  153.9794  135.6732  153.4753 H   0  0  0  0  0  0  0  0  0  0  0  0  # atno 10764 bound_to 10752
  153.0891  135.4969  154.8574 H   0  0  0  0  0  0  0  0  0  0  0  0  # atno 10765 bound_to 10752
  139.9596  134.9605  156.9097 H   0  0  0  0  0  0  0  0  0  0  0  0  # atno 11005 bound_to 11000
  145.6147  141.0333  143.1947 LP  0  0  0  0  0  0  0  0  0  0  0  0  # atno 17320 bound_to 7965
  144.7319  139.7699  143.7344 LP  0  0  0  0  0  0  0  0  0  0  0  0  # atno 17321 bound_to 7965
  139.4920  144.4270  151.9914 LP  0  0  0  0  0  0  0  0  0  0  0  0  # atno 17342 bound_to 10162
  140.3367  144.3253  150.5976 LP  0  0  0  0  0  0  0  0  0  0  0  0  # atno 17343 bound_to 10162
  156.1981  130.6602  151.1136 LP  0  0  0  0  0  0  0  0  0  0  0  0  # atno 17370 bound_to 10713
  157.7096  131.0740  150.6547 LP  0  0  0  0  0  0  0  0  0  0  0  0  # atno 17371 bound_to 10713
  140.5530  134.0608  155.7375 LP  0  0  0  0  0  0  0  0  0  0  0  0  # atno 17394 bound_to 11000
  141.1272  133.9363  157.2611 LP  0  0  0  0  0  0  0  0  0  0  0  0  # atno 17395 bound_to 11000

$$$$
