AV-unprocessed.smi:2695|AV-procd|sdf|10410|dock2
  -GOLD-   2272014443D 1   1.00000     0.00000
 Structure written by MMmdl.
 42 43  0  0  0  0  0  0  0  0  1 V2000
  150.6972  145.4078  159.7939 C   0  0  0  0  0  0  0  0  0  0  0  0
  151.5378  144.2183  160.2420 C   0  0  0  0  0  0  0  0  0  0  0  0
  151.9446  144.0970  161.5189 C   0  0  0  0  0  0  0  0  0  0  0  0
  152.7686  142.9785  161.9056 C   0  0  0  0  0  0  0  0  0  0  0  0
  153.1682  142.8480  163.1767 O   0  0  0  0  0  0  0  0  0  0  0  0
  153.1392  142.0739  160.9808 C   0  0  0  0  0  0  0  0  0  0  0  0
  152.7216  142.1819  159.5810 C   0  0  0  0  0  0  0  0  0  0  0  0
  153.0811  141.3559  158.7406 O   0  0  0  0  0  0  0  0  0  0  0  0
  151.9116  143.2450  159.2690 N   0  0  0  0  0  0  0  0  0  0  0  0
  151.4232  143.3720  157.8760 C   0  0  0  0  0  0  0  0  0  0  0  0
  150.7669  142.0933  157.3324 C   0  0  0  0  0  0  0  0  0  0  0  0
  150.6972  141.0739  158.0201 O   0  0  0  0  0  0  0  0  0  0  0  0
  150.2924  142.1729  156.0801 N   0  0  0  0  0  0  0  0  0  0  0  0
  149.6376  141.0955  155.3353 C   0  0  1  0  0  0  0  0  0  0  0  0
  150.4639  139.7923  155.4833 C   0  0  0  0  0  0  0  0  0  0  0  0
  151.9835  140.0032  155.4580 C   0  0  0  0  0  0  0  0  0  0  0  0
  152.5660  138.6171  155.1794 C   0  0  0  0  0  0  0  0  0  0  0  0
  151.5036  137.8740  154.3594 C   0  0  0  0  0  0  0  0  0  0  0  0
  150.2485  138.7572  154.3702 C   0  0  0  0  0  0  0  0  0  0  0  0
  148.1760  140.9709  155.8233 C   0  0  0  0  0  0  0  0  0  0  0  0
  147.5532  142.1426  155.6886 F   0  0  0  0  0  0  0  0  0  0  0  0
  147.5058  140.0707  155.1053 F   0  0  0  0  0  0  0  0  0  0  0  0
  148.1396  140.6140  157.1078 F   0  0  0  0  0  0  0  0  0  0  0  0
  150.6991  146.1881  160.5558 H   0  0  0  0  0  0  0  0  0  0  0  0
  149.6616  145.1071  159.6331 H   0  0  0  0  0  0  0  0  0  0  0  0
  151.0831  145.8605  158.8810 H   0  0  0  0  0  0  0  0  0  0  0  0
  151.6688  144.8405  162.2530 H   0  0  0  0  0  0  0  0  0  0  0  0
  153.5101  141.9732  163.2794 H   0  0  0  0  0  0  0  0  0  0  0  0
  153.7606  141.2393  161.2723 H   0  0  0  0  0  0  0  0  0  0  0  0
  150.6969  144.1828  157.7948 H   0  0  0  0  0  0  0  0  0  0  0  0
  152.2166  143.6828  157.1976 H   0  0  0  0  0  0  0  0  0  0  0  0
  150.3995  143.0510  155.5933 H   0  0  0  0  0  0  0  0  0  0  0  0
  149.6047  141.3508  154.2746 H   0  0  0  0  0  0  0  0  0  0  0  0
  150.2122  139.3204  156.4346 H   0  0  0  0  0  0  0  0  0  0  0  0
  152.2516  140.6811  154.6462 H   0  0  0  0  0  0  0  0  0  0  0  0
  152.3669  140.4303  156.3853 H   0  0  0  0  0  0  0  0  0  0  0  0
  153.5248  138.6729  154.6630 H   0  0  0  0  0  0  0  0  0  0  0  0
  152.7319  138.0929  156.1215 H   0  0  0  0  0  0  0  0  0  0  0  0
  151.8414  137.7000  153.3372 H   0  0  0  0  0  0  0  0  0  0  0  0
  151.2983  136.8997  154.8042 H   0  0  0  0  0  0  0  0  0  0  0  0
  149.3429  138.1689  154.5206 H   0  0  0  0  0  0  0  0  0  0  0  0
  150.1565  139.2606  153.4066 H   0  0  0  0  0  0  0  0  0  0  0  0
  1  2  1  0  0  0  0
  1 24  1  0  0  0  0
  1 25  1  0  0  0  0
  1 26  1  0  0  0  0
  2  9  1  0  0  0  0
  2  3  2  0  0  0  0
  3  4  1  0  0  0  0
  3 27  1  0  0  0  0
  4  5  1  0  0  0  0
  4  6  2  0  0  0  0
  5 28  1  0  0  0  0
  6  7  1  0  0  0  0
  6 29  1  0  0  0  0
  7  8  2  0  0  0  0
  7  9  1  0  0  0  0
  9 10  1  0  0  0  0
 10 11  1  0  0  0  0
 10 30  1  0  0  0  0
 10 31  1  0  0  0  0
 11 12  2  0  0  0  0
 11 13  1  0  0  0  0
 13 14  1  0  0  0  0
 13 32  1  0  0  0  0
 14 15  1  0  0  0  0
 14 20  1  0  0  0  0
 14 33  1  0  0  0  0
 15 19  1  0  0  0  0
 15 16  1  0  0  0  0
 15 34  1  0  0  0  0
 16 17  1  0  0  0  0
 16 35  1  0  0  0  0
 16 36  1  0  0  0  0
 17 18  1  0  0  0  0
 17 37  1  0  0  0  0
 17 38  1  0  0  0  0
 18 19  1  0  0  0  0
 18 39  1  0  0  0  0
 18 40  1  0  0  0  0
 19 41  1  0  0  0  0
 19 42  1  0  0  0  0
 20 21  1  0  0  0  0
 20 22  1  0  0  0  0
 20 23  1  0  0  0  0
M  END
> <s_m_source_file>
AV-unprocessed.smi

> <i_m_source_file_index>
2695

> <i_lp_mmshare_version>
43012

> <i_f3d_flags>
0

> <s_epik_input>
W0NIM11jMVtjSF1jKFtPSF0pW2NIXWMoPU8pbjFbQ0gyXUMoPU8pW05IXVtDQEBIXShDKEYpKEYpRilbQ0hdMltDSDJdW0NIMl1bQ0gyXVtDSDJdMg==

> <s_epik_cmdline>
J2VwaWtfcHl0aG9uJywgJy1waCcsICc3LjAnLCAnLXRuJywgJzgnLCAnLW1hJywgJzIwMCcsICctbWV0YWxfYmluZGluZycsICctaW1hZScsICc8aW5maWxlLm1hZT4nLCAnLW9tYWUnLCAnPG91dGZpbGUubWFlPic=

> <r_lp_tautomer_probability>
0.999984

> <r_epik_Ionization_Penalty>
0.843628

> <r_epik_Ionization_Penalty_Charging>
1.18449e-07

> <r_epik_Ionization_Penalty_Neutral>
0.843628

> <r_epik_State_Penalty>
0.886913

> <r_epik_Charging_Adjusted_Penalty>
0.886913

> <i_epik_Tot_Q>
0

> <i_epik_Tot_abs_Q>
0

> <r_epik_Metal_State_Penalty>
0.886913

> <b_epik_Metal_Only>
0

> <s_lp_Force_Field>
OPLS_2005

> <r_lp_Energy>
35.4527

> <b_lp_Chiralities_Consistent>
1

> <s_lp_Variant>
AV-unprocessed.smi:2695-4

> <Gold.Version>
5.8.1

> <Gold.Id.Protein>
6NUR|6NUR_protein|mol2

> <Gold.PLP.Fitness>
49.2458

> <Gold.PLP.PLP>
-49.5716

> <Gold.PLP.part.hbond>
-1.2221

> <Gold.PLP.part.metal>
0.0000

> <Gold.PLP.part.buried>
-2.8460

> <Gold.PLP.part.nonpolar>
-46.8761

> <Gold.PLP.part.repulsive>
0.1193

> <Gold.PLP.ligand.clash>
0.0000

> <Gold.PLP.ligand.torsion>
0.7055

> <Gold.PLP.Chemscore.Hbond>
0.2488

> <Gold.PLP.Chemscore.CHOScore>
0.0000

> <Gold.PLP.Chemscore.Metal>
0.0000

> <Gold.Chemscore.Hbonds>
donor molecule, donor type, donor heavy atom, donor atom, acceptor molecule, acceptor atom, score
      L1  H    13    32       P1  8028  0.23

> <Gold.PLP.Chemscore.Internal.Correction>
0.3388

> <Gold.Rescore>
     Score         DG    S(hbond)    S(metal)    S(lipo)     H(rot)  DE(clash)    DE(int)     intcor
      4.06     -14.91       0.87        0.00     107.53       2.36       0.05      10.80       ----

> <Gold.Chemscore.Fitness>
4.0608

> <Gold.Chemscore.DG>
-14.9109

> <Gold.Chemscore.ZeroCoef>
-5.4800

> <Gold.Chemscore.Hbond>
0.8655

> <Gold.Chemscore.Metal>
0.0000

> <Gold.Chemscore.Lipo>
107.5341

> <Gold.Chemscore.Internal_Hbond>
0.0000

> <Gold.Chemscore.DEClash>
0.0460

> <Gold.Chemscore.DEInternal>
10.8041

> <Gold.Chemscore.Rot>
2.3599

> <Gold.Chemscore.Internal.Correction>
   9.000000E+99

> <Gold.Chemscore.Hbonds>
donor molecule, donor type, donor heavy atom, donor atom, acceptor molecule, acceptor atom, score
      L1  H    13    32       P1  8028  0.23

> <Gold.Chemscore.Hbond.Weighted>
-2.8907

> <Gold.Chemscore.Metal.Weighted>
-0.0000

> <Gold.Chemscore.Lipo.Weighted>
-12.5815

> <Gold.Chemscore.Internal_Hbond.Weighted>
0.0000

> <Gold.Chemscore.DEClash.Weighted>
0.0460

> <Gold.Chemscore.DEInternal.Weighted>
10.8041

> <Gold.Chemscore.Rot.Weighted>
6.0413

> <Gold.Chemscore.Internal.Correction.Weighted>
   9.000000E+99

> <Gold.Protein.RotatedTorsions>
[ 6907 6896 6895 6894 ] final -105.30 input  -60.11 | X-H torsion
[ 7974 7965 7964 7962 ] final -109.25 input  175.53 | X-H torsion
[ 8008 7997 7996 7995 ] final  -80.97 input   59.86 | X-H torsion
[ 10167 10162 10161 10158 ] final  -74.17 input  -65.29 | X-H torsion
[ 10718 10713 10712 10709 ] final    5.42 input   66.30 | X-H torsion
[ 10763 10752 10751 10750 ] final   26.36 input  -60.55 | X-H torsion
[ 11005 11000 10999 10996 ] final   35.73 input  -57.11 | X-H torsion

> <Gold.Protein.ActiveResidues>
 VAL166  LYS551  ARG553  GLY616  TRP617  ASP618  TYR619  PRO620  LYS621  CYS622 
 ASP623  PHE694  ASN695  SER759  ASP760  ASP761  ALA762  ILE779  LEU786  VAL792 
 PHE793  MET794  SER795  GLU796  ALA797  LYS798  CYS799  TRP800  GLU811  SER814 

> <Gold.Protein.RotatedAtoms>
  150.7330  134.0147  159.3681 H   0  0  0  0  0  0  0  0  0  0  0  0  # atno 6907 bound_to 6896
  151.8108  135.0679  160.0422 H   0  0  0  0  0  0  0  0  0  0  0  0  # atno 6908 bound_to 6896
  152.3074  133.5681  159.5694 H   0  0  0  0  0  0  0  0  0  0  0  0  # atno 6909 bound_to 6896
  145.1828  140.8979  143.3470 H   0  0  0  0  0  0  0  0  0  0  0  0  # atno 7974 bound_to 7965
  154.5936  140.0655  156.9272 H   0  0  0  0  0  0  0  0  0  0  0  0  # atno 8008 bound_to 7997
  155.2253  140.3333  155.4292 H   0  0  0  0  0  0  0  0  0  0  0  0  # atno 8009 bound_to 7997
  156.2272  140.1824  156.7317 H   0  0  0  0  0  0  0  0  0  0  0  0  # atno 8010 bound_to 7997
  140.5049  143.2354  151.7690 H   0  0  0  0  0  0  0  0  0  0  0  0  # atno 10167 bound_to 10162
  156.9072  130.5743  149.5647 H   0  0  0  0  0  0  0  0  0  0  0  0  # atno 10718 bound_to 10713
  153.0628  135.6562  154.0423 H   0  0  0  0  0  0  0  0  0  0  0  0  # atno 10763 bound_to 10752
  154.0087  135.2930  155.3396 H   0  0  0  0  0  0  0  0  0  0  0  0  # atno 10764 bound_to 10752
  154.6974  135.5258  153.8546 H   0  0  0  0  0  0  0  0  0  0  0  0  # atno 10765 bound_to 10752
  140.2397  134.3429  155.7930 H   0  0  0  0  0  0  0  0  0  0  0  0  # atno 11005 bound_to 11000
  145.0119  139.3502  143.6116 LP  0  0  0  0  0  0  0  0  0  0  0  0  # atno 17320 bound_to 7965
  146.3450  139.9385  142.8744 LP  0  0  0  0  0  0  0  0  0  0  0  0  # atno 17321 bound_to 7965
  139.4881  144.4470  151.9698 LP  0  0  0  0  0  0  0  0  0  0  0  0  # atno 17342 bound_to 10162
  140.3561  144.3030  150.5941 LP  0  0  0  0  0  0  0  0  0  0  0  0  # atno 17343 bound_to 10162
  156.0553  130.5616  150.9078 LP  0  0  0  0  0  0  0  0  0  0  0  0  # atno 17370 bound_to 10713
  157.5990  131.0942  150.8993 LP  0  0  0  0  0  0  0  0  0  0  0  0  # atno 17371 bound_to 10713
  141.2211  133.7292  156.8866 LP  0  0  0  0  0  0  0  0  0  0  0  0  # atno 17394 bound_to 11000
  140.1665  134.9129  157.2781 LP  0  0  0  0  0  0  0  0  0  0  0  0  # atno 17395 bound_to 11000

$$$$
