AV-unprocessed.smi:2886|AV-procd|sdf|11088|dock3
  -GOLD-   2272015563D 1   1.00000     0.00000
 Structure written by MMmdl.
 28 30  0  0  0  0  0  0  0  0  1 V2000
  150.9707  138.0709  154.2903 O   0  0  0  0  0  0  0  0  0  0  0  0
  150.6607  139.2162  154.6122 C   0  0  0  0  0  0  0  0  0  0  0  0
  149.8122  139.9565  153.8608 N   0  0  0  0  0  0  0  0  0  0  0  0
  149.4037  141.2431  154.1149 N   0  0  0  0  0  0  0  0  0  0  0  0
  149.8486  141.8304  155.1727 C   0  0  0  0  0  0  0  0  0  0  0  0
  150.7605  141.1854  156.1117 C   0  0  0  0  0  0  0  0  0  0  0  0
  151.2396  141.8194  157.2508 N   0  0  0  0  0  0  0  0  0  0  0  0
  150.9609  143.1673  157.7277 C   0  0  1  0  0  0  0  0  0  0  0  0
  150.2901  143.1907  159.1017 C   0  0  0  0  0  0  0  0  0  0  0  0
  151.2238  144.1250  159.8852 C   0  0  1  0  0  0  0  0  0  0  0  0
  152.5367  143.4243  160.2580 C   0  0  0  0  0  0  0  0  0  0  0  0
  153.2446  143.3510  158.9063 C   0  0  0  0  0  0  0  0  0  0  0  0
  152.2194  144.0171  157.9732 C   0  0  2  0  0  0  0  0  0  0  0  0
  151.6771  144.9872  158.8537 O   0  0  0  0  0  0  0  0  0  0  0  0
  151.1474  139.9147  155.8100 C   0  0  0  0  0  0  0  0  0  0  0  0
  152.2398  139.0591  156.8466 Cl  0  0  0  0  0  0  0  0  0  0  0  0
  149.4245  139.5578  153.0177 H   0  0  0  0  0  0  0  0  0  0  0  0
  149.5595  142.8537  155.4092 H   0  0  0  0  0  0  0  0  0  0  0  0
  151.7397  141.2387  157.9093 H   0  0  0  0  0  0  0  0  0  0  0  0
  150.3059  143.6849  157.0268 H   0  0  0  0  0  0  0  0  0  0  0  0
  149.2874  143.6124  159.0270 H   0  0  0  0  0  0  0  0  0  0  0  0
  150.2101  142.2078  159.5685 H   0  0  0  0  0  0  0  0  0  0  0  0
  150.7421  144.6347  160.7201 H   0  0  0  0  0  0  0  0  0  0  0  0
  153.1141  144.0281  160.9592 H   0  0  0  0  0  0  0  0  0  0  0  0
  152.3727  142.4434  160.7054 H   0  0  0  0  0  0  0  0  0  0  0  0
  154.1693  143.9282  158.9326 H   0  0  0  0  0  0  0  0  0  0  0  0
  153.4942  142.3317  158.6107 H   0  0  0  0  0  0  0  0  0  0  0  0
  152.6546  144.4308  157.0630 H   0  0  0  0  0  0  0  0  0  0  0  0
  1  2  2  0  0  0  0
  2 15  1  0  0  0  0
  2  3  1  0  0  0  0
  3 17  1  0  0  0  0
  3  4  1  0  0  0  0
  4  5  2  0  0  0  0
  5  6  1  0  0  0  0
  5 18  1  0  0  0  0
  6  7  1  0  0  0  0
  6 15  2  0  0  0  0
  7  8  1  0  0  0  0
  7 19  1  0  0  0  0
  8 13  1  0  0  0  0
  8  9  1  0  0  0  0
  8 20  1  0  0  0  0
  9 10  1  0  0  0  0
  9 21  1  0  0  0  0
  9 22  1  0  0  0  0
 10 14  1  0  0  0  0
 10 11  1  0  0  0  0
 10 23  1  0  0  0  0
 11 12  1  0  0  0  0
 11 24  1  0  0  0  0
 11 25  1  0  0  0  0
 12 13  1  0  0  0  0
 12 26  1  0  0  0  0
 12 27  1  0  0  0  0
 13 14  1  0  0  0  0
 13 28  1  0  0  0  0
 15 16  1  0  0  0  0
M  END
> <s_m_source_file>
AV-unprocessed.smi

> <i_m_source_file_index>
2886

> <i_lp_mmshare_version>
43012

> <i_f3d_flags>
0

> <s_epik_input>
Tz1jMVtuSF1uW2NIXWMoYzFDbClbTkhdW0NASF0oW0NIMl1bQ0BASF0yMylbQ0BASF0oTzMpW0NIMl1bQ0gyXTI=

> <s_epik_cmdline>
J2VwaWtfcHl0aG9uJywgJy1waCcsICc3LjAnLCAnLXRuJywgJzgnLCAnLW1hJywgJzIwMCcsICctbWV0YWxfYmluZGluZycsICctaW1hZScsICc8aW5maWxlLm1hZT4nLCAnLW9tYWUnLCAnPG91dGZpbGUubWFlPic=

> <r_lp_tautomer_probability>
0.986175

> <r_epik_Ionization_Penalty>
0.000975594

> <r_epik_Ionization_Penalty_Charging>
0.000940184

> <r_epik_Ionization_Penalty_Neutral>
3.54099e-05

> <r_epik_State_Penalty>
0.00620319

> <r_epik_Charging_Adjusted_Penalty>
0.00714337

> <i_epik_Tot_Q>
0

> <i_epik_Tot_abs_Q>
0

> <r_epik_Metal_State_Penalty>
0.287699

> <b_epik_Metal_Only>
0

> <s_lp_Force_Field>
OPLS_2005

> <r_lp_Energy>
55.2825

> <b_lp_Chiralities_Consistent>
1

> <s_lp_Variant>
AV-unprocessed.smi:2886-2

> <Gold.Version>
5.8.1

> <Gold.Id.Protein>
6NUR|6NUR_protein|mol2

> <Gold.PLP.Fitness>
38.6026

> <Gold.PLP.PLP>
-32.1699

> <Gold.PLP.part.hbond>
-3.0000

> <Gold.PLP.part.metal>
0.0000

> <Gold.PLP.part.buried>
-3.2024

> <Gold.PLP.part.nonpolar>
-27.4566

> <Gold.PLP.part.repulsive>
2.3855

> <Gold.PLP.ligand.clash>
0.0000

> <Gold.PLP.ligand.torsion>
0.0137

> <Gold.PLP.Chemscore.Hbond>
1.2461

> <Gold.PLP.Chemscore.CHOScore>
0.9043

> <Gold.PLP.Chemscore.Metal>
0.0000

> <Gold.Chemscore.Hbonds>
donor molecule, donor type, donor heavy atom, donor atom, acceptor molecule, acceptor atom, score
      L1  H     3    17       P1  7957  0.64
      P1  H  8011  8017       L1     4  0.51
      L1  C     5    18       P1  8028  0.91

> <Gold.PLP.Chemscore.Internal.Correction>
0.0090

> <Gold.Rescore>
     Score         DG    S(hbond)    S(metal)    S(lipo)     H(rot)  DE(clash)    DE(int)     intcor
     15.65     -16.81       0.84        0.00      94.78       1.00       1.15       0.02       ----

> <Gold.Chemscore.Fitness>
15.6462

> <Gold.Chemscore.DG>
-16.8102

> <Gold.Chemscore.ZeroCoef>
-5.4800

> <Gold.Chemscore.Hbond>
0.8386

> <Gold.Chemscore.Metal>
0.0000

> <Gold.Chemscore.Lipo>
94.7808

> <Gold.Chemscore.Internal_Hbond>
0.0000

> <Gold.Chemscore.DEClash>
1.1478

> <Gold.Chemscore.DEInternal>
0.0162

> <Gold.Chemscore.Rot>
1.0000

> <Gold.Chemscore.Internal.Correction>
   9.000000E+99

> <Gold.Chemscore.Hbonds>
donor molecule, donor type, donor heavy atom, donor atom, acceptor molecule, acceptor atom, score
      L1  H     3    17       P1  7957  0.64
      P1  H  8011  8017       L1     4  0.26

> <Gold.Chemscore.Hbond.Weighted>
-2.8009

> <Gold.Chemscore.Metal.Weighted>
-0.0000

> <Gold.Chemscore.Lipo.Weighted>
-11.0893

> <Gold.Chemscore.Internal_Hbond.Weighted>
0.0000

> <Gold.Chemscore.DEClash.Weighted>
1.1478

> <Gold.Chemscore.DEInternal.Weighted>
0.0162

> <Gold.Chemscore.Rot.Weighted>
2.5600

> <Gold.Chemscore.Internal.Correction.Weighted>
   9.000000E+99

> <Gold.Protein.RotatedTorsions>
[ 6907 6896 6895 6894 ] final  -27.30 input  -60.11 | X-H torsion
[ 7974 7965 7964 7962 ] final  -55.11 input  175.53 | X-H torsion
[ 8008 7997 7996 7995 ] final -105.46 input   59.86 | X-H torsion
[ 10167 10162 10161 10158 ] final  158.50 input  -65.29 | X-H torsion
[ 10718 10713 10712 10709 ] final  -97.79 input   66.30 | X-H torsion
[ 10763 10752 10751 10750 ] final  148.70 input  -60.55 | X-H torsion
[ 11005 11000 10999 10996 ] final  -45.16 input  -57.11 | X-H torsion

> <Gold.Protein.ActiveResidues>
 VAL166  LYS551  ARG553  GLY616  TRP617  ASP618  TYR619  PRO620  LYS621  CYS622 
 ASP623  PHE694  ASN695  SER759  ASP760  ASP761  ALA762  ILE779  LEU786  VAL792 
 PHE793  MET794  SER795  GLU796  ALA797  LYS798  CYS799  TRP800  GLU811  SER814 

> <Gold.Protein.RotatedAtoms>
  151.1489  135.0217  159.8658 H   0  0  0  0  0  0  0  0  0  0  0  0  # atno 6907 bound_to 6896
  152.5453  134.1412  159.8490 H   0  0  0  0  0  0  0  0  0  0  0  0  # atno 6908 bound_to 6896
  151.1495  133.4871  159.2628 H   0  0  0  0  0  0  0  0  0  0  0  0  # atno 6909 bound_to 6896
  145.8779  140.8167  142.9855 H   0  0  0  0  0  0  0  0  0  0  0  0  # atno 7974 bound_to 7965
  154.9002  140.0413  157.1889 H   0  0  0  0  0  0  0  0  0  0  0  0  # atno 8008 bound_to 7997
  154.8451  140.2920  155.5613 H   0  0  0  0  0  0  0  0  0  0  0  0  # atno 8009 bound_to 7997
  156.2994  140.2475  156.3400 H   0  0  0  0  0  0  0  0  0  0  0  0  # atno 8010 bound_to 7997
  139.4827  144.4818  151.8433 H   0  0  0  0  0  0  0  0  0  0  0  0  # atno 10167 bound_to 10162
  156.0092  130.5210  150.6427 H   0  0  0  0  0  0  0  0  0  0  0  0  # atno 10718 bound_to 10713
  154.0591  135.2875  155.3328 H   0  0  0  0  0  0  0  0  0  0  0  0  # atno 10763 bound_to 10752
  154.6820  135.5260  153.8278 H   0  0  0  0  0  0  0  0  0  0  0  0  # atno 10764 bound_to 10752
  153.0529  135.6584  154.0781 H   0  0  0  0  0  0  0  0  0  0  0  0  # atno 10765 bound_to 10752
  141.0497  133.6747  156.2974 H   0  0  0  0  0  0  0  0  0  0  0  0  # atno 11005 bound_to 11000
  144.6726  140.1338  143.7442 LP  0  0  0  0  0  0  0  0  0  0  0  0  # atno 17320 bound_to 7965
  145.9059  139.2458  143.1466 LP  0  0  0  0  0  0  0  0  0  0  0  0  # atno 17321 bound_to 7965
  140.4295  144.2135  150.5887 LP  0  0  0  0  0  0  0  0  0  0  0  0  # atno 17342 bound_to 10162
  140.4793  143.2384  151.8977 LP  0  0  0  0  0  0  0  0  0  0  0  0  # atno 17343 bound_to 10162
  157.4204  131.0836  151.1137 LP  0  0  0  0  0  0  0  0  0  0  0  0  # atno 17370 bound_to 10713
  157.1740  130.6280  149.5650 LP  0  0  0  0  0  0  0  0  0  0  0  0  # atno 17371 bound_to 10713
  140.6078  134.5489  157.5528 LP  0  0  0  0  0  0  0  0  0  0  0  0  # atno 17394 bound_to 11000
  139.9341  134.7909  156.0851 LP  0  0  0  0  0  0  0  0  0  0  0  0  # atno 17395 bound_to 11000

$$$$
