AV-unprocessed.smi:1190|AV-procd|sdf|4982|dock1
  -GOLD-   22720 3583D 1   1.00000     0.00000
 Structure written by MMmdl.
 44 45  0  0  0  0  0  0  0  0  2 V2000
  144.1108  132.6294  150.4507 C   0  0  0  0  0  0  0  0  0  0  0  0
  143.2086  132.9042  151.5166 O   0  0  0  0  0  0  0  0  0  0  0  0
  143.1291  134.1978  151.9901 C   0  0  0  0  0  0  0  0  0  0  0  0
  142.1932  134.4893  153.0017 C   0  0  0  0  0  0  0  0  0  0  0  0
  142.1101  135.8071  153.4886 C   0  0  0  0  0  0  0  0  0  0  0  0
  142.9670  136.7931  152.9595 C   0  0  0  0  0  0  0  0  0  0  0  0
  142.8461  138.1169  153.4631 N   0  0  0  0  0  0  0  0  0  0  0  0
  142.2860  138.5307  154.6126 C   0  0  0  0  0  0  0  0  0  0  0  0
  141.7479  137.8044  155.4468 O   0  0  0  0  0  0  0  0  0  0  0  0
  142.3663  139.8631  154.7366 N   0  0  0  0  0  0  0  0  0  0  0  0
  141.8670  140.6419  155.8694 C   0  0  0  0  0  0  0  0  0  0  0  0
  141.1518  141.9552  155.4516 C   0  0  2  0  0  0  0  0  0  0  0  0
  140.0150  141.6402  154.4547 C   0  0  0  0  0  0  0  0  0  0  0  0
  142.1025  142.9923  154.9332 N   0  3  0  0  0  0  0  0  0  0  0  0
  141.5240  144.3616  154.8437 C   0  0  0  0  0  0  0  0  0  0  0  0
  142.5489  145.3640  154.2861 C   0  0  0  0  0  0  0  0  0  0  0  0
  143.7158  145.3600  155.0945 O   0  0  0  0  0  0  0  0  0  0  0  0
  144.3421  144.0862  155.0945 C   0  0  0  0  0  0  0  0  0  0  0  0
  143.3844  143.0404  155.6888 C   0  0  0  0  0  0  0  0  0  0  0  0
  143.8649  136.4031  151.9356 C   0  0  0  0  0  0  0  0  0  0  0  0
  143.9489  135.1409  151.4639 N   0  0  0  0  0  0  0  0  0  0  0  0
  144.0573  131.5709  150.1968 H   0  0  0  0  0  0  0  0  0  0  0  0
  145.1412  132.8495  150.7334 H   0  0  0  0  0  0  0  0  0  0  0  0
  143.8557  133.1976  149.5551 H   0  0  0  0  0  0  0  0  0  0  0  0
  141.5505  133.7161  153.3962 H   0  0  0  0  0  0  0  0  0  0  0  0
  141.3979  136.0534  154.2627 H   0  0  0  0  0  0  0  0  0  0  0  0
  143.1887  138.8417  152.8500 H   0  0  0  0  0  0  0  0  0  0  0  0
  142.8334  140.3770  154.0038 H   0  0  0  0  0  0  0  0  0  0  0  0
  141.2142  140.0316  156.4962 H   0  0  0  0  0  0  0  0  0  0  0  0
  142.7207  140.8710  156.5066 H   0  0  0  0  0  0  0  0  0  0  0  0
  140.6772  142.3628  156.3458 H   0  0  0  0  0  0  0  0  0  0  0  0
  139.4199  140.7911  154.7922 H   0  0  0  0  0  0  0  0  0  0  0  0
  140.4028  141.3974  153.4652 H   0  0  0  0  0  0  0  0  0  0  0  0
  139.3204  142.4735  154.3507 H   0  0  0  0  0  0  0  0  0  0  0  0
  140.6582  144.3772  154.1834 H   0  0  0  0  0  0  0  0  0  0  0  0
  141.1861  144.6811  155.8306 H   0  0  0  0  0  0  0  0  0  0  0  0
  142.8051  145.1248  153.2527 H   0  0  0  0  0  0  0  0  0  0  0  0
  142.1267  146.3691  154.2834 H   0  0  0  0  0  0  0  0  0  0  0  0
  144.6422  143.8112  154.0819 H   0  0  0  0  0  0  0  0  0  0  0  0
  145.2525  144.1424  155.6914 H   0  0  0  0  0  0  0  0  0  0  0  0
  143.1824  143.2744  156.7352 H   0  0  0  0  0  0  0  0  0  0  0  0
  143.8866  142.0745  155.6686 H   0  0  0  0  0  0  0  0  0  0  0  0
  144.5275  137.1049  151.4546 H   0  0  0  0  0  0  0  0  0  0  0  0
  142.3319  142.7200  153.9880 H   0  0  0  0  0  0  0  0  0  0  0  0
  1  2  1  0  0  0  0
  1 22  1  0  0  0  0
  1 23  1  0  0  0  0
  1 24  1  0  0  0  0
  2  3  1  0  0  0  0
  3 21  1  0  0  0  0
  3  4  2  0  0  0  0
  4  5  1  0  0  0  0
  4 25  1  0  0  0  0
  5  6  2  0  0  0  0
  5 26  1  0  0  0  0
  6  7  1  0  0  0  0
  6 20  1  0  0  0  0
  7  8  1  0  0  0  0
  7 27  1  0  0  0  0
  8  9  2  0  0  0  0
  8 10  1  0  0  0  0
 10 11  1  0  0  0  0
 10 28  1  0  0  0  0
 11 12  1  0  0  0  0
 11 29  1  0  0  0  0
 11 30  1  0  0  0  0
 12 13  1  0  0  0  0
 12 14  1  0  0  0  0
 12 31  1  0  0  0  0
 13 32  1  0  0  0  0
 13 33  1  0  0  0  0
 13 34  1  0  0  0  0
 14 19  1  0  0  0  0
 14 15  1  0  0  0  0
 14 44  1  0  0  0  0
 15 16  1  0  0  0  0
 15 35  1  0  0  0  0
 15 36  1  0  0  0  0
 16 17  1  0  0  0  0
 16 37  1  0  0  0  0
 16 38  1  0  0  0  0
 17 18  1  0  0  0  0
 18 19  1  0  0  0  0
 18 39  1  0  0  0  0
 18 40  1  0  0  0  0
 19 41  1  0  0  0  0
 19 42  1  0  0  0  0
 20 21  2  0  0  0  0
 20 43  1  0  0  0  0
M  CHG  1  14   1
M  END
> <s_m_source_file>
AV-unprocessed.smi

> <i_m_source_file_index>
1190

> <i_lp_mmshare_version>
43012

> <i_f3d_flags>
0

> <s_epik_input>
W0NIM11PYzFbY0hdW2NIXWMoW2NIXW4xKVtOSF1DKD1PKVtOSF1bQ0gyXVtDQEhdKFtDSDNdKU4yW0NIMl1bQ0gyXU9bQ0gyXVtDSDJdMg==

> <s_epik_cmdline>
J2VwaWtfcHl0aG9uJywgJy1waCcsICc3LjAnLCAnLXRuJywgJzgnLCAnLW1hJywgJzIwMCcsICctbWV0YWxfYmluZGluZycsICctaW1hZScsICc8aW5maWxlLm1hZT4nLCAnLW9tYWUnLCAnPG91dGZpbGUubWFlPic=

> <r_lp_tautomer_probability>
1

> <r_epik_Ionization_Penalty>
0.602608

> <r_epik_Ionization_Penalty_Charging>
0.602531

> <r_epik_Ionization_Penalty_Neutral>
7.70246e-05

> <r_epik_State_Penalty>
0.617039

> <r_epik_Charging_Adjusted_Penalty>
1.21957

> <i_epik_Tot_Q>
1

> <i_epik_Tot_abs_Q>
1

> <r_epik_Metal_State_Penalty>
0.617043

> <b_epik_Metal_Only>
0

> <s_lp_Force_Field>
OPLS_2005

> <r_lp_Energy>
31.3292

> <b_lp_Chiralities_Consistent>
1

> <s_lp_Variant>
AV-unprocessed.smi:1190-3

> <Gold.Version>
5.8.1

> <Gold.Id.Protein>
6NUR|6NUR_protein|mol2

> <Gold.PLP.Fitness>
40.2202

> <Gold.PLP.PLP>
-26.8339

> <Gold.PLP.part.hbond>
-3.0000

> <Gold.PLP.part.metal>
0.0000

> <Gold.PLP.part.buried>
-3.9329

> <Gold.PLP.part.nonpolar>
-19.4883

> <Gold.PLP.part.repulsive>
0.5120

> <Gold.PLP.ligand.clash>
0.0000

> <Gold.PLP.ligand.torsion>
0.4800

> <Gold.PLP.Chemscore.Hbond>
4.0000

> <Gold.PLP.Chemscore.CHOScore>
0.7515

> <Gold.PLP.Chemscore.Metal>
0.0000

> <Gold.Chemscore.Hbonds>
donor molecule, donor type, donor heavy atom, donor atom, acceptor molecule, acceptor atom, score
      L1  H     7    27       P1 10175  1.00
      L1  H    10    28       P1 10175  1.00
      L1  H    14    44       P1 10174  2.00
      L1  C    20    43       P1 10171  0.87

> <Gold.PLP.Chemscore.Internal.Correction>
0.0917

> <Gold.Rescore>
     Score         DG    S(hbond)    S(metal)    S(lipo)     H(rot)  DE(clash)    DE(int)     intcor
     15.25     -17.15       2.88        0.00      56.79       1.79       0.14       1.76       ----

> <Gold.Chemscore.Fitness>
15.2493

> <Gold.Chemscore.DG>
-17.1513

> <Gold.Chemscore.ZeroCoef>
-5.4800

> <Gold.Chemscore.Hbond>
2.8755

> <Gold.Chemscore.Metal>
0.0000

> <Gold.Chemscore.Lipo>
56.7923

> <Gold.Chemscore.Internal_Hbond>
0.0000

> <Gold.Chemscore.DEClash>
0.1403

> <Gold.Chemscore.DEInternal>
1.7617

> <Gold.Chemscore.Rot>
1.7881

> <Gold.Chemscore.Internal.Correction>
   9.000000E+99

> <Gold.Chemscore.Hbonds>
donor molecule, donor type, donor heavy atom, donor atom, acceptor molecule, acceptor atom, score
      L1  H     7    27       P1 10175  0.98
      L1  H    10    28       P1 10175  0.93
      L1  H    14    44       P1 10174  0.96

> <Gold.Chemscore.Hbond.Weighted>
-9.6041

> <Gold.Chemscore.Metal.Weighted>
-0.0000

> <Gold.Chemscore.Lipo.Weighted>
-6.6447

> <Gold.Chemscore.Internal_Hbond.Weighted>
0.0000

> <Gold.Chemscore.DEClash.Weighted>
0.1403

> <Gold.Chemscore.DEInternal.Weighted>
1.7617

> <Gold.Chemscore.Rot.Weighted>
4.5775

> <Gold.Chemscore.Internal.Correction.Weighted>
   9.000000E+99

> <Gold.Protein.RotatedTorsions>
[ 6907 6896 6895 6894 ] final  156.18 input  -60.11 | X-H torsion
[ 7974 7965 7964 7962 ] final   27.26 input  175.53 | X-H torsion
[ 8008 7997 7996 7995 ] final  140.39 input   59.86 | X-H torsion
[ 10167 10162 10161 10158 ] final   41.47 input  -65.29 | X-H torsion
[ 10718 10713 10712 10709 ] final  -76.15 input   66.30 | X-H torsion
[ 10763 10752 10751 10750 ] final  -94.41 input  -60.55 | X-H torsion
[ 11005 11000 10999 10996 ] final   36.70 input  -57.11 | X-H torsion

> <Gold.Protein.ActiveResidues>
 VAL166  LYS551  ARG553  GLY616  TRP617  ASP618  TYR619  PRO620  LYS621  CYS622 
 ASP623  PHE694  ASN695  SER759  ASP760  ASP761  ALA762  ILE779  LEU786  VAL792 
 PHE793  MET794  SER795  GLU796  ALA797  LYS798  CYS799  TRP800  GLU811  SER814 

> <Gold.Protein.RotatedAtoms>
  152.0334  133.3947  159.4306 H   0  0  0  0  0  0  0  0  0  0  0  0  # atno 6907 bound_to 6896
  150.6880  134.3496  159.4912 H   0  0  0  0  0  0  0  0  0  0  0  0  # atno 6908 bound_to 6896
  152.1285  134.9152  160.0610 H   0  0  0  0  0  0  0  0  0  0  0  0  # atno 6909 bound_to 6896
  146.1794  139.7216  142.8911 H   0  0  0  0  0  0  0  0  0  0  0  0  # atno 7974 bound_to 7965
  156.2979  140.2342  156.4394 H   0  0  0  0  0  0  0  0  0  0  0  0  # atno 8008 bound_to 7997
  154.8199  140.0438  157.1424 H   0  0  0  0  0  0  0  0  0  0  0  0  # atno 8009 bound_to 7997
  154.9326  140.3019  155.5163 H   0  0  0  0  0  0  0  0  0  0  0  0  # atno 8010 bound_to 7997
  140.3640  144.2191  150.6136 H   0  0  0  0  0  0  0  0  0  0  0  0  # atno 10167 bound_to 10162
  156.0184  130.4458  150.3150 H   0  0  0  0  0  0  0  0  0  0  0  0  # atno 10718 bound_to 10713
  154.7052  135.5158  153.8585 H   0  0  0  0  0  0  0  0  0  0  0  0  # atno 10763 bound_to 10752
  153.0736  135.6609  154.0203 H   0  0  0  0  0  0  0  0  0  0  0  0  # atno 10764 bound_to 10752
  154.0055  135.3007  155.3377 H   0  0  0  0  0  0  0  0  0  0  0  0  # atno 10765 bound_to 10752
  140.2299  134.3540  155.7968 H   0  0  0  0  0  0  0  0  0  0  0  0  # atno 11005 bound_to 11000
  145.4120  141.0397  143.3012 LP  0  0  0  0  0  0  0  0  0  0  0  0  # atno 17320 bound_to 7965
  144.8289  139.5662  143.6953 LP  0  0  0  0  0  0  0  0  0  0  0  0  # atno 17321 bound_to 7965
  140.5099  143.2293  151.8551 LP  0  0  0  0  0  0  0  0  0  0  0  0  # atno 17342 bound_to 10162
  139.4811  144.4962  151.9121 LP  0  0  0  0  0  0  0  0  0  0  0  0  # atno 17343 bound_to 10162
  157.1251  131.0257  151.2993 LP  0  0  0  0  0  0  0  0  0  0  0  0  # atno 17370 bound_to 10713
  157.4596  130.7646  149.7224 LP  0  0  0  0  0  0  0  0  0  0  0  0  # atno 17371 bound_to 10713
  141.2218  133.7240  156.8714 LP  0  0  0  0  0  0  0  0  0  0  0  0  # atno 17394 bound_to 11000
  140.1761  134.9066  157.2893 LP  0  0  0  0  0  0  0  0  0  0  0  0  # atno 17395 bound_to 11000

$$$$
