AV-unprocessed.smi:1815|AV-procd|sdf|7358|dock9
  -GOLD-   22720 9 23D 1   1.00000     0.00000
 Structure written by MMmdl.
 38 39  0  0  0  0  0  0  0  0  2 V2000
  151.6526  144.6245  158.9334 C   0  0  0  0  0  0  0  0  0  0  0  0
  151.6614  143.1666  159.4043 C   0  0  1  0  0  0  0  0  0  0  0  0
  151.3509  142.1833  158.2603 C   0  0  0  0  0  0  0  0  0  0  0  0
  151.4332  140.7940  158.6957 N   0  0  0  0  0  0  0  0  0  0  0  0
  151.1245  139.8829  157.5945 C   0  0  0  0  0  0  0  0  0  0  0  0
  150.7739  138.4471  158.0160 C   0  0  0  0  0  0  0  0  0  0  0  0
  149.6339  138.4527  158.9224 N   0  0  0  0  0  0  0  0  0  0  0  0
  148.9548  137.3670  159.3163 C   0  0  0  0  0  0  0  0  0  0  0  0
  149.2869  136.2529  158.9046 O   0  0  0  0  0  0  0  0  0  0  0  0
  147.9339  137.6393  160.1608 N   0  5  0  0  0  0  0  0  0  0  0  0
  147.6313  136.7817  161.1491 C   0  0  0  0  0  0  0  0  0  0  0  0
  147.7095  137.1065  162.4446 N   0  0  0  0  0  0  0  0  0  0  0  0
  147.3425  136.0673  163.3013 C   0  0  0  0  0  0  0  0  0  0  0  0
  146.9671  134.9268  162.6425 C   0  0  0  0  0  0  0  0  0  0  0  0
  147.0636  135.1256  160.9160 S   0  0  0  0  0  0  0  0  0  0  0  0
  152.7562  140.5560  159.2677 C   0  0  0  0  0  0  0  0  0  0  0  0
  153.0753  141.5382  160.4115 C   0  0  1  0  0  0  0  0  0  0  0  0
  154.4952  141.3520  160.9571 C   0  0  0  0  0  0  0  0  0  0  0  0
  152.9527  142.8740  159.9305 O   0  0  0  0  0  0  0  0  0  0  0  0
  150.6791  144.8989  158.5267 H   0  0  0  0  0  0  0  0  0  0  0  0
  152.4000  144.7931  158.1576 H   0  0  0  0  0  0  0  0  0  0  0  0
  151.8710  145.3017  159.7593 H   0  0  0  0  0  0  0  0  0  0  0  0
  150.9208  143.0498  160.1976 H   0  0  0  0  0  0  0  0  0  0  0  0
  150.3531  142.3877  157.8707 H   0  0  0  0  0  0  0  0  0  0  0  0
  152.0469  142.3531  157.4370 H   0  0  0  0  0  0  0  0  0  0  0  0
  150.2714  140.2799  157.0421 H   0  0  0  0  0  0  0  0  0  0  0  0
  151.9557  139.8644  156.8875 H   0  0  0  0  0  0  0  0  0  0  0  0
  150.5227  137.8333  157.1509 H   0  0  0  0  0  0  0  0  0  0  0  0
  151.6301  137.9839  158.5089 H   0  0  0  0  0  0  0  0  0  0  0  0
  149.3347  139.3473  159.2813 H   0  0  0  0  0  0  0  0  0  0  0  0
  147.3777  136.2278  164.3686 H   0  0  0  0  0  0  0  0  0  0  0  0
  146.6411  133.9882  163.0638 H   0  0  0  0  0  0  0  0  0  0  0  0
  152.8225  139.5398  159.6545 H   0  0  0  0  0  0  0  0  0  0  0  0
  153.5153  140.6447  158.4888 H   0  0  0  0  0  0  0  0  0  0  0  0
  152.3649  141.3906  161.2266 H   0  0  0  0  0  0  0  0  0  0  0  0
  154.6357  140.3449  161.3501 H   0  0  0  0  0  0  0  0  0  0  0  0
  154.6972  142.0553  161.7652 H   0  0  0  0  0  0  0  0  0  0  0  0
  155.2414  141.5156  160.1793 H   0  0  0  0  0  0  0  0  0  0  0  0
  1  2  1  0  0  0  0
  1 20  1  0  0  0  0
  1 21  1  0  0  0  0
  1 22  1  0  0  0  0
  2 19  1  0  0  0  0
  2  3  1  0  0  0  0
  2 23  1  0  0  0  0
  3  4  1  0  0  0  0
  3 24  1  0  0  0  0
  3 25  1  0  0  0  0
  4  5  1  0  0  0  0
  4 16  1  0  0  0  0
  5  6  1  0  0  0  0
  5 26  1  0  0  0  0
  5 27  1  0  0  0  0
  6  7  1  0  0  0  0
  6 28  1  0  0  0  0
  6 29  1  0  0  0  0
  7  8  1  0  0  0  0
  7 30  1  0  0  0  0
  8  9  2  0  0  0  0
  8 10  1  0  0  0  0
 10 11  1  0  0  0  0
 11 15  1  0  0  0  0
 11 12  2  0  0  0  0
 12 13  1  0  0  0  0
 13 14  2  0  0  0  0
 13 31  1  0  0  0  0
 14 15  1  0  0  0  0
 14 32  1  0  0  0  0
 16 17  1  0  0  0  0
 16 33  1  0  0  0  0
 16 34  1  0  0  0  0
 17 18  1  0  0  0  0
 17 19  1  0  0  0  0
 17 35  1  0  0  0  0
 18 36  1  0  0  0  0
 18 37  1  0  0  0  0
 18 38  1  0  0  0  0
M  CHG  1  10  -1
M  END
> <s_m_source_file>
AV-unprocessed.smi

> <i_m_source_file_index>
1815

> <i_lp_mmshare_version>
43012

> <i_f3d_flags>
0

> <s_epik_input>
W0NIM11bQ0BASF0xW0NIMl1OKFtDSDJdW0NASF0oTzEpW0NIM10pW0NIMl1bQ0gyXVtOSF1DKD1PKVtOSF1jMm5bY0hdW2NIXXMy

> <s_epik_cmdline>
J2VwaWtfcHl0aG9uJywgJy1waCcsICc3LjAnLCAnLXRuJywgJzgnLCAnLW1hJywgJzIwMCcsICctbWV0YWxfYmluZGluZycsICctaW1hZScsICc8aW5maWxlLm1hZT4nLCAnLW9tYWUnLCAnPG91dGZpbGUubWFlPic=

> <r_lp_tautomer_probability>
0.999

> <r_epik_Ionization_Penalty>
7.22374

> <r_epik_Ionization_Penalty_Charging>
5.82415

> <r_epik_Ionization_Penalty_Neutral>
1.39959

> <r_epik_State_Penalty>
6.03347

> <r_epik_Charging_Adjusted_Penalty>
11.8576

> <i_epik_Tot_Q>
-1

> <i_epik_Tot_abs_Q>
1

> <r_epik_Metal_State_Penalty>
2.01024

> <b_epik_Metal_Only>
1

> <s_lp_Force_Field>
OPLS_2005

> <r_lp_Energy>
15.5459

> <b_lp_Chiralities_Consistent>
1

> <s_lp_Variant>
AV-unprocessed.smi:1815-9

> <Gold.Version>
5.8.1

> <Gold.Id.Protein>
6NUR|6NUR_protein|mol2

> <Gold.PLP.Fitness>
44.9803

> <Gold.PLP.PLP>
-38.9841

> <Gold.PLP.part.hbond>
-4.0000

> <Gold.PLP.part.metal>
0.0000

> <Gold.PLP.part.buried>
-5.4004

> <Gold.PLP.part.nonpolar>
-30.9720

> <Gold.PLP.part.repulsive>
0.2161

> <Gold.PLP.ligand.clash>
0.0000

> <Gold.PLP.ligand.torsion>
1.0246

> <Gold.PLP.Chemscore.Hbond>
2.6737

> <Gold.PLP.Chemscore.CHOScore>
0.0000

> <Gold.PLP.Chemscore.Metal>
0.0000

> <Gold.Chemscore.Hbonds>
donor molecule, donor type, donor heavy atom, donor atom, acceptor molecule, acceptor atom, score
      P1  H  6896  6907       L1     9  0.41
      P1  H  6931  6943       L1    12  0.28
      P1  H  6934  6947       L1    10  1.05

> <Gold.PLP.Chemscore.Internal.Correction>
0.0244

> <Gold.Rescore>
     Score         DG    S(hbond)    S(metal)    S(lipo)     H(rot)  DE(clash)    DE(int)     intcor
     14.54     -15.62       1.03        0.00      91.67       1.57       0.00       1.08       ----

> <Gold.Chemscore.Fitness>
14.5410

> <Gold.Chemscore.DG>
-15.6193

> <Gold.Chemscore.ZeroCoef>
-5.4800

> <Gold.Chemscore.Hbond>
1.0262

> <Gold.Chemscore.Metal>
0.0000

> <Gold.Chemscore.Lipo>
91.6658

> <Gold.Chemscore.Internal_Hbond>
0.0000

> <Gold.Chemscore.DEClash>
0.0029

> <Gold.Chemscore.DEInternal>
1.0754

> <Gold.Chemscore.Rot>
1.5676

> <Gold.Chemscore.Internal.Correction>
   9.000000E+99

> <Gold.Chemscore.Hbonds>
donor molecule, donor type, donor heavy atom, donor atom, acceptor molecule, acceptor atom, score
      P1  H  6896  6907       L1     9  0.41
      P1  H  6934  6947       L1    10  0.08

> <Gold.Chemscore.Hbond.Weighted>
-3.4274

> <Gold.Chemscore.Metal.Weighted>
-0.0000

> <Gold.Chemscore.Lipo.Weighted>
-10.7249

> <Gold.Chemscore.Internal_Hbond.Weighted>
0.0000

> <Gold.Chemscore.DEClash.Weighted>
0.0029

> <Gold.Chemscore.DEInternal.Weighted>
1.0754

> <Gold.Chemscore.Rot.Weighted>
4.0130

> <Gold.Chemscore.Internal.Correction.Weighted>
   9.000000E+99

> <Gold.Protein.RotatedTorsions>
[ 6907 6896 6895 6894 ] final  -71.34 input  -60.11 | X-H torsion
[ 7974 7965 7964 7962 ] final  -42.09 input  175.53 | X-H torsion
[ 8008 7997 7996 7995 ] final -128.41 input   59.86 | X-H torsion
[ 10167 10162 10161 10158 ] final  -35.73 input  -65.29 | X-H torsion
[ 10718 10713 10712 10709 ] final  138.59 input   66.30 | X-H torsion
[ 10763 10752 10751 10750 ] final   37.27 input  -60.55 | X-H torsion
[ 11005 11000 10999 10996 ] final  105.82 input  -57.11 | X-H torsion

> <Gold.Protein.ActiveResidues>
 VAL166  LYS551  ARG553  GLY616  TRP617  ASP618  TYR619  PRO620  LYS621  CYS622 
 ASP623  PHE694  ASN695  SER759  ASP760  ASP761  ALA762  ILE779  LEU786  VAL792 
 PHE793  MET794  SER795  GLU796  ALA797  LYS798  CYS799  TRP800  GLU811  SER814 

> <Gold.Protein.RotatedAtoms>
  150.7217  134.5323  159.5705 H   0  0  0  0  0  0  0  0  0  0  0  0  # atno 6907 bound_to 6896
  152.2853  134.7780  160.0397 H   0  0  0  0  0  0  0  0  0  0  0  0  # atno 6908 bound_to 6896
  151.8412  133.3388  159.3680 H   0  0  0  0  0  0  0  0  0  0  0  0  # atno 6909 bound_to 6896
  146.0149  140.6920  142.9206 H   0  0  0  0  0  0  0  0  0  0  0  0  # atno 7974 bound_to 7965
  155.2623  140.0436  157.2998 H   0  0  0  0  0  0  0  0  0  0  0  0  # atno 8008 bound_to 7997
  154.5703  140.2372  155.8170 H   0  0  0  0  0  0  0  0  0  0  0  0  # atno 8009 bound_to 7997
  156.2117  140.2996  155.9756 H   0  0  0  0  0  0  0  0  0  0  0  0  # atno 8010 bound_to 7997
  140.7158  143.3457  151.2261 H   0  0  0  0  0  0  0  0  0  0  0  0  # atno 10167 bound_to 10162
  157.4236  131.1041  151.0327 H   0  0  0  0  0  0  0  0  0  0  0  0  # atno 10718 bound_to 10713
  153.0044  135.6282  154.2117 H   0  0  0  0  0  0  0  0  0  0  0  0  # atno 10763 bound_to 10752
  154.1861  135.2811  155.3038 H   0  0  0  0  0  0  0  0  0  0  0  0  # atno 10764 bound_to 10752
  154.5797  135.5651  153.7233 H   0  0  0  0  0  0  0  0  0  0  0  0  # atno 10765 bound_to 10752
  139.8806  134.9348  156.5572 H   0  0  0  0  0  0  0  0  0  0  0  0  # atno 11005 bound_to 11000
  144.6967  140.3463  143.7190 LP  0  0  0  0  0  0  0  0  0  0  0  0  # atno 17320 bound_to 7965
  145.7285  139.1729  143.2444 LP  0  0  0  0  0  0  0  0  0  0  0  0  # atno 17321 bound_to 7965
  139.6976  143.9587  152.2890 LP  0  0  0  0  0  0  0  0  0  0  0  0  # atno 17342 bound_to 10162
  139.9269  144.6765  150.8403 LP  0  0  0  0  0  0  0  0  0  0  0  0  # atno 17343 bound_to 10162
  157.1248  130.6077  149.5514 LP  0  0  0  0  0  0  0  0  0  0  0  0  # atno 17370 bound_to 10713
  155.9889  130.4934  150.7190 LP  0  0  0  0  0  0  0  0  0  0  0  0  # atno 17371 bound_to 10713
  140.8196  133.8364  155.8884 LP  0  0  0  0  0  0  0  0  0  0  0  0  # atno 17394 bound_to 11000
  140.9430  134.1876  157.4783 LP  0  0  0  0  0  0  0  0  0  0  0  0  # atno 17395 bound_to 11000

$$$$
