AV-unprocessed.smi:1798|AV-procd|sdf|7260|dock8
  -GOLD-   22720 8513D 1   1.00000     0.00000
 Structure written by MMmdl.
 40 41  0  0  0  0  0  0  0  0  3 V2000
  150.3255  145.4233  160.1596 C   0  0  0  0  0  0  0  0  0  0  0  0
  151.7041  144.7504  160.2245 C   0  0  2  0  0  0  0  0  0  0  0  0
  152.1434  144.2305  158.8423 C   0  0  0  0  0  0  0  0  0  0  0  0
  153.5233  143.5508  158.9021 C   0  0  0  0  0  0  0  0  0  0  0  0
  153.5744  142.4215  159.9491 C   0  0  2  0  0  0  0  0  0  0  0  0
  152.7764  141.2812  159.5016 N   0  0  0  0  0  0  0  0  0  0  0  0
  153.2619  140.0879  159.1277 C   0  0  0  0  0  0  0  0  0  0  0  0
  154.4637  139.8172  159.1300 O   0  0  0  0  0  0  0  0  0  0  0  0
  152.2180  139.0432  158.7079 C   0  0  0  0  0  0  0  0  0  0  0  0
  151.3963  139.4666  157.5614 N   0  0  0  0  0  0  0  0  0  0  0  0
  150.0519  139.7961  157.8245 C   0  0  0  0  0  0  0  0  0  0  0  0
  149.2077  140.1907  156.8514 C   0  0  0  0  0  0  0  0  0  0  0  0
  147.8292  140.5216  157.1393 N   0  3  0  0  0  0  0  0  0  0  0  0
  147.0840  140.8005  156.2057 O   0  0  0  0  0  0  0  0  0  0  0  0
  147.4460  140.5147  158.3054 O   0  5  0  0  0  0  0  0  0  0  0  0
  149.7273  140.2709  155.4999 C   0  0  0  0  0  0  0  0  0  0  0  0
  151.0110  139.9530  155.2411 C   0  0  0  0  0  0  0  0  0  0  0  0
  151.9268  139.5200  156.3015 C   0  0  0  0  0  0  0  0  0  0  0  0
  153.0991  139.2233  156.0705 O   0  0  0  0  0  0  0  0  0  0  0  0
  153.1060  142.9325  161.3282 C   0  0  0  0  0  0  0  0  0  0  0  0
  151.7262  143.6104  161.2604 C   0  0  0  0  0  0  0  0  0  0  0  0
  149.5539  144.7186  159.8480 H   0  0  0  0  0  0  0  0  0  0  0  0
  150.3264  146.2517  159.4507 H   0  0  0  0  0  0  0  0  0  0  0  0
  150.0377  145.8229  161.1322 H   0  0  0  0  0  0  0  0  0  0  0  0
  152.4234  145.5066  160.5424 H   0  0  0  0  0  0  0  0  0  0  0  0
  151.4034  143.5263  158.4600 H   0  0  0  0  0  0  0  0  0  0  0  0
  152.1764  145.0548  158.1288 H   0  0  0  0  0  0  0  0  0  0  0  0
  153.7943  143.1664  157.9180 H   0  0  0  0  0  0  0  0  0  0  0  0
  154.2758  144.3003  159.1504 H   0  0  0  0  0  0  0  0  0  0  0  0
  154.6122  142.0936  160.0336 H   0  0  0  0  0  0  0  0  0  0  0  0
  151.7755  141.4126  159.4750 H   0  0  0  0  0  0  0  0  0  0  0  0
  152.7407  138.1132  158.4803 H   0  0  0  0  0  0  0  0  0  0  0  0
  151.5799  138.8086  159.5622 H   0  0  0  0  0  0  0  0  0  0  0  0
  149.7613  139.6976  158.8606 H   0  0  0  0  0  0  0  0  0  0  0  0
  149.0911  140.5850  154.6855 H   0  0  0  0  0  0  0  0  0  0  0  0
  151.3770  140.0184  154.2270 H   0  0  0  0  0  0  0  0  0  0  0  0
  153.0862  142.1177  162.0528 H   0  0  0  0  0  0  0  0  0  0  0  0
  153.8344  143.6511  161.7062 H   0  0  0  0  0  0  0  0  0  0  0  0
  151.4646  143.9981  162.2456 H   0  0  0  0  0  0  0  0  0  0  0  0
  150.9655  142.8690  161.0118 H   0  0  0  0  0  0  0  0  0  0  0  0
  1  2  1  0  0  0  0
  1 22  1  0  0  0  0
  1 23  1  0  0  0  0
  1 24  1  0  0  0  0
  2 21  1  0  0  0  0
  2  3  1  0  0  0  0
  2 25  1  0  0  0  0
  3  4  1  0  0  0  0
  3 26  1  0  0  0  0
  3 27  1  0  0  0  0
  4  5  1  0  0  0  0
  4 28  1  0  0  0  0
  4 29  1  0  0  0  0
  5  6  1  0  0  0  0
  5 20  1  0  0  0  0
  5 30  1  0  0  0  0
  6  7  1  0  0  0  0
  6 31  1  0  0  0  0
  7  8  2  0  0  0  0
  7  9  1  0  0  0  0
  9 10  1  0  0  0  0
  9 32  1  0  0  0  0
  9 33  1  0  0  0  0
 10 18  1  0  0  0  0
 10 11  1  0  0  0  0
 11 12  2  0  0  0  0
 11 34  1  0  0  0  0
 12 13  1  0  0  0  0
 12 16  1  0  0  0  0
 13 14  2  0  0  0  0
 13 15  1  0  0  0  0
 16 17  2  0  0  0  0
 16 35  1  0  0  0  0
 17 18  1  0  0  0  0
 17 36  1  0  0  0  0
 18 19  2  0  0  0  0
 20 21  1  0  0  0  0
 20 37  1  0  0  0  0
 20 38  1  0  0  0  0
 21 39  1  0  0  0  0
 21 40  1  0  0  0  0
M  CHG  1  13   1
M  CHG  1  15  -1
M  END
> <s_m_source_file>
AV-unprocessed.smi

> <i_m_source_file_index>
1798

> <i_lp_mmshare_version>
43012

> <i_f3d_flags>
0

> <s_epik_input>
W0NIM11bQ0BASF0xW0NIMl1bQ0gyXVtDQEhdKFtDSDJdW0NIMl0xKVtOSF1DKD1PKVtDSDJdbjJbY0hdYyhbTitdKD1PKVtPLV0pW2NIXVtjSF1jMj1P

> <s_epik_cmdline>
J2VwaWtfcHl0aG9uJywgJy1waCcsICc3LjAnLCAnLXRuJywgJzgnLCAnLW1hJywgJzIwMCcsICctbWV0YWxfYmluZGluZycsICctaW1hZScsICc8aW5maWxlLm1hZT4nLCAnLW9tYWUnLCAnPG91dGZpbGUubWFlPic=

> <r_lp_tautomer_probability>
1

> <r_epik_Ionization_Penalty>
1.91292e-08

> <r_epik_Ionization_Penalty_Charging>
8.23013e-11

> <r_epik_Ionization_Penalty_Neutral>
1.90469e-08

> <r_epik_State_Penalty>
-0

> <r_epik_Charging_Adjusted_Penalty>
8.23013e-11

> <i_epik_Tot_Q>
0

> <i_epik_Tot_abs_Q>
2

> <r_epik_Metal_State_Penalty>
-0

> <b_epik_Metal_Only>
0

> <s_lp_Force_Field>
OPLS_2005

> <r_lp_Energy>
19.5482

> <b_lp_Chiralities_Consistent>
1

> <s_lp_Variant>
AV-unprocessed.smi:1798-2

> <Gold.Version>
5.8.1

> <Gold.Id.Protein>
6NUR|6NUR_protein|mol2

> <Gold.PLP.Fitness>
42.7147

> <Gold.PLP.PLP>
-38.0141

> <Gold.PLP.part.hbond>
-3.0000

> <Gold.PLP.part.metal>
0.0000

> <Gold.PLP.part.buried>
-3.1124

> <Gold.PLP.part.nonpolar>
-31.7890

> <Gold.PLP.part.repulsive>
0.1523

> <Gold.PLP.ligand.clash>
0.0000

> <Gold.PLP.ligand.torsion>
0.1878

> <Gold.PLP.Chemscore.Hbond>
1.6880

> <Gold.PLP.Chemscore.CHOScore>
0.0000

> <Gold.PLP.Chemscore.Metal>
0.0000

> <Gold.Chemscore.Hbonds>
donor molecule, donor type, donor heavy atom, donor atom, acceptor molecule, acceptor atom, score
      P1  H  7997  8008       L1     8  1.00
      P1  H  7997  8009       L1    19  0.66

> <Gold.PLP.Chemscore.Internal.Correction>
0.0122

> <Gold.Rescore>
     Score         DG    S(hbond)    S(metal)    S(lipo)     H(rot)  DE(clash)    DE(int)     intcor
     19.46     -19.92       1.81        0.00     105.68       1.55       0.29       0.17       ----

> <Gold.Chemscore.Fitness>
19.4638

> <Gold.Chemscore.DG>
-19.9249

> <Gold.Chemscore.ZeroCoef>
-5.4800

> <Gold.Chemscore.Hbond>
1.8111

> <Gold.Chemscore.Metal>
0.0000

> <Gold.Chemscore.Lipo>
105.6829

> <Gold.Chemscore.Internal_Hbond>
0.0000

> <Gold.Chemscore.DEClash>
0.2906

> <Gold.Chemscore.DEInternal>
0.1705

> <Gold.Chemscore.Rot>
1.5505

> <Gold.Chemscore.Internal.Correction>
   9.000000E+99

> <Gold.Chemscore.Hbonds>
donor molecule, donor type, donor heavy atom, donor atom, acceptor molecule, acceptor atom, score
      P1  H  7997  8008       L1     8  0.75
      P1  H  7997  8009       L1    19  0.66

> <Gold.Chemscore.Hbond.Weighted>
-6.0492

> <Gold.Chemscore.Metal.Weighted>
-0.0000

> <Gold.Chemscore.Lipo.Weighted>
-12.3649

> <Gold.Chemscore.Internal_Hbond.Weighted>
0.0000

> <Gold.Chemscore.DEClash.Weighted>
0.2906

> <Gold.Chemscore.DEInternal.Weighted>
0.1705

> <Gold.Chemscore.Rot.Weighted>
3.9692

> <Gold.Chemscore.Internal.Correction.Weighted>
   9.000000E+99

> <Gold.Protein.RotatedTorsions>
[ 6907 6896 6895 6894 ] final   34.75 input  -60.11 | X-H torsion
[ 7974 7965 7964 7962 ] final   46.21 input  175.53 | X-H torsion
[ 8008 7997 7996 7995 ] final -127.58 input   59.86 | X-H torsion
[ 10167 10162 10161 10158 ] final   72.29 input  -65.29 | X-H torsion
[ 10718 10713 10712 10709 ] final -158.63 input   66.30 | X-H torsion
[ 10763 10752 10751 10750 ] final   -0.10 input  -60.55 | X-H torsion
[ 11005 11000 10999 10996 ] final -107.88 input  -57.11 | X-H torsion

> <Gold.Protein.ActiveResidues>
 VAL166  LYS551  ARG553  GLY616  TRP617  ASP618  TYR619  PRO620  LYS621  CYS622 
 ASP623  PHE694  ASN695  SER759  ASP760  ASP761  ALA762  ILE779  LEU786  VAL792 
 PHE793  MET794  SER795  GLU796  ALA797  LYS798  CYS799  TRP800  GLU811  SER814 

> <Gold.Protein.RotatedAtoms>
  152.1067  134.9303  160.0567 H   0  0  0  0  0  0  0  0  0  0  0  0  # atno 6907 bound_to 6896
  152.0497  133.4008  159.4380 H   0  0  0  0  0  0  0  0  0  0  0  0  # atno 6908 bound_to 6896
  150.6841  134.3243  159.4843 H   0  0  0  0  0  0  0  0  0  0  0  0  # atno 6909 bound_to 6896
  146.0410  139.4880  142.9778 H   0  0  0  0  0  0  0  0  0  0  0  0  # atno 7974 bound_to 7965
  155.2485  140.0431  157.2984 H   0  0  0  0  0  0  0  0  0  0  0  0  # atno 8008 bound_to 7997
  154.5783  140.2393  155.8059 H   0  0  0  0  0  0  0  0  0  0  0  0  # atno 8009 bound_to 7997
  156.2174  140.2980  155.9881 H   0  0  0  0  0  0  0  0  0  0  0  0  # atno 8010 bound_to 7997
  140.0369  144.5421  150.7464 H   0  0  0  0  0  0  0  0  0  0  0  0  # atno 10167 bound_to 10162
  156.5568  130.8629  151.2797 H   0  0  0  0  0  0  0  0  0  0  0  0  # atno 10718 bound_to 10713
  153.3275  135.6973  153.6976 H   0  0  0  0  0  0  0  0  0  0  0  0  # atno 10763 bound_to 10752
  153.5792  135.3501  155.2869 H   0  0  0  0  0  0  0  0  0  0  0  0  # atno 10764 bound_to 10752
  154.8611  135.4291  154.2455 H   0  0  0  0  0  0  0  0  0  0  0  0  # atno 10765 bound_to 10752
  141.0931  133.9020  157.2029 H   0  0  0  0  0  0  0  0  0  0  0  0  # atno 11005 bound_to 11000
  145.6884  141.0171  143.1569 LP  0  0  0  0  0  0  0  0  0  0  0  0  # atno 17320 bound_to 7965
  144.7075  139.8503  143.7425 LP  0  0  0  0  0  0  0  0  0  0  0  0  # atno 17321 bound_to 7965
  140.7277  143.2655  151.4061 LP  0  0  0  0  0  0  0  0  0  0  0  0  # atno 17342 bound_to 10162
  139.6039  144.1237  152.2228 LP  0  0  0  0  0  0  0  0  0  0  0  0  # atno 17343 bound_to 10162
  157.7377  130.9800  150.2206 LP  0  0  0  0  0  0  0  0  0  0  0  0  # atno 17370 bound_to 10713
  156.2835  130.3736  149.7911 LP  0  0  0  0  0  0  0  0  0  0  0  0  # atno 17371 bound_to 10713
  139.9761  135.0113  156.9634 LP  0  0  0  0  0  0  0  0  0  0  0  0  # atno 17394 bound_to 11000
  140.5205  134.0912  155.7291 LP  0  0  0  0  0  0  0  0  0  0  0  0  # atno 17395 bound_to 11000

$$$$
