AV-unprocessed.smi:198|AV-procd|sdf|1554|dock4
  -GOLD-   2262019423D 1   1.00000     0.00000
 Structure written by MMmdl.
 59 63  0  0  0  0  0  0  0  0  2 V2000
  151.2161  139.6908  157.6830 C   0  0  0  0  0  0  0  0  0  0  0  0
  150.6173  139.7891  156.3345 N   0  3  1  0  0  0  0  0  0  0  0  0
  150.2076  138.4675  155.8033 C   0  0  0  0  0  0  0  0  0  0  0  0
  149.7156  138.5936  154.3530 C   0  0  0  0  0  0  0  0  0  0  0  0
  148.5457  139.5989  154.2211 C   0  0  2  0  0  0  0  0  0  0  0  0
  148.9828  140.9530  154.8343 C   0  0  1  0  0  0  0  0  0  0  0  0
  147.8426  141.9866  154.7459 C   0  0  0  0  0  0  0  0  0  0  0  0
  146.5410  141.4405  155.3527 C   0  0  0  0  0  0  0  0  0  0  0  0
  146.1765  140.0836  154.7343 C   0  0  0  0  0  0  0  0  0  0  0  0
  147.2880  139.1389  154.8313 N   0  0  0  0  0  0  0  0  0  0  0  0
  146.8839  137.8914  154.5039 C   0  0  0  0  0  0  0  0  0  0  0  0
  146.8075  136.9259  155.4569 N   0  0  0  0  0  0  0  0  0  0  0  0
  146.4042  135.6958  155.1240 C   0  0  0  0  0  0  0  0  0  0  0  0
  146.0403  135.2317  153.9258 N   0  0  0  0  0  0  0  0  0  0  0  0
  146.1212  136.2016  152.9692 C   0  0  0  0  0  0  0  0  0  0  0  0
  146.5312  137.5479  153.1739 C   0  0  0  0  0  0  0  0  0  0  0  0
  146.4815  138.2532  151.9793 N   0  0  0  0  0  0  0  0  0  0  0  0
  146.0633  137.3710  151.1128 C   0  0  0  0  0  0  0  0  0  0  0  0
  145.8295  136.1105  151.6185 N   0  0  0  0  0  0  0  0  0  0  0  0
  145.3522  134.9677  150.8926 C   0  0  0  0  0  0  0  0  0  0  0  0
  144.2886  134.0353  151.4774 C   0  0  0  0  0  0  0  0  0  0  0  0
  144.9526  132.8405  150.7542 C   0  0  0  0  0  0  0  0  0  0  0  0
  145.0630  131.5462  151.5770 C   0  0  0  0  0  0  0  0  0  0  0  0
  146.0548  130.6884  151.0503 O   0  0  0  0  0  0  0  0  0  0  0  0
  144.3714  132.5091  149.3647 C   0  0  0  0  0  0  0  0  0  0  0  0
  143.0362  132.0543  149.4583 O   0  0  0  0  0  0  0  0  0  0  0  0
  146.2230  133.7206  150.7418 C   0  0  0  0  0  0  0  0  0  0  0  0
  149.5118  140.7764  156.2775 C   0  0  0  0  0  0  0  0  0  0  0  0
  150.4865  139.3324  158.4104 H   0  0  0  0  0  0  0  0  0  0  0  0
  151.5811  140.6634  158.0144 H   0  0  0  0  0  0  0  0  0  0  0  0
  152.0622  139.0027  157.6797 H   0  0  0  0  0  0  0  0  0  0  0  0
  151.0547  137.7814  155.8395 H   0  0  0  0  0  0  0  0  0  0  0  0
  149.4281  138.0400  156.4357 H   0  0  0  0  0  0  0  0  0  0  0  0
  150.5439  138.9374  153.7321 H   0  0  0  0  0  0  0  0  0  0  0  0
  149.4506  137.6122  153.9599 H   0  0  0  0  0  0  0  0  0  0  0  0
  148.3494  139.7536  153.1588 H   0  0  0  0  0  0  0  0  0  0  0  0
  149.8112  141.3371  154.2370 H   0  0  0  0  0  0  0  0  0  0  0  0
  148.1287  142.9167  155.2382 H   0  0  0  0  0  0  0  0  0  0  0  0
  147.6674  142.2369  153.6987 H   0  0  0  0  0  0  0  0  0  0  0  0
  146.6434  141.3360  156.4330 H   0  0  0  0  0  0  0  0  0  0  0  0
  145.7290  142.1500  155.1924 H   0  0  0  0  0  0  0  0  0  0  0  0
  145.2958  139.6793  155.2361 H   0  0  0  0  0  0  0  0  0  0  0  0
  145.9094  140.2182  153.6849 H   0  0  0  0  0  0  0  0  0  0  0  0
  146.3685  134.9812  155.9330 H   0  0  0  0  0  0  0  0  0  0  0  0
  145.9100  137.6202  150.0728 H   0  0  0  0  0  0  0  0  0  0  0  0
  145.0320  135.3257  149.9128 H   0  0  0  0  0  0  0  0  0  0  0  0
  144.3410  133.9548  152.5642 H   0  0  0  0  0  0  0  0  0  0  0  0
  143.2713  134.2610  151.1565 H   0  0  0  0  0  0  0  0  0  0  0  0
  145.3304  131.7666  152.6109 H   0  0  0  0  0  0  0  0  0  0  0  0
  144.1141  131.0109  151.6150 H   0  0  0  0  0  0  0  0  0  0  0  0
  146.8948  131.1125  151.1373 H   0  0  0  0  0  0  0  0  0  0  0  0
  144.3785  133.3850  148.7159 H   0  0  0  0  0  0  0  0  0  0  0  0
  144.9653  131.7511  148.8534 H   0  0  0  0  0  0  0  0  0  0  0  0
  142.4589  132.7966  149.3640 H   0  0  0  0  0  0  0  0  0  0  0  0
  146.7982  133.6820  149.8163 H   0  0  0  0  0  0  0  0  0  0  0  0
  146.8660  133.5512  151.6076 H   0  0  0  0  0  0  0  0  0  0  0  0
  148.7159  140.4513  156.9487 H   0  0  0  0  0  0  0  0  0  0  0  0
  149.8692  141.7355  156.6543 H   0  0  0  0  0  0  0  0  0  0  0  0
  151.3434  140.1335  155.7225 H   0  0  0  0  0  0  0  0  0  0  0  0
  1  2  1  0  0  0  0
  1 29  1  0  0  0  0
  1 30  1  0  0  0  0
  1 31  1  0  0  0  0
  2 28  1  0  0  0  0
  2  3  1  0  0  0  0
  2 59  1  0  0  0  0
  3  4  1  0  0  0  0
  3 32  1  0  0  0  0
  3 33  1  0  0  0  0
  4  5  1  0  0  0  0
  4 34  1  0  0  0  0
  4 35  1  0  0  0  0
  5 10  1  0  0  0  0
  5  6  1  0  0  0  0
  5 36  1  0  0  0  0
  6  7  1  0  0  0  0
  6 28  1  0  0  0  0
  6 37  1  0  0  0  0
  7  8  1  0  0  0  0
  7 38  1  0  0  0  0
  7 39  1  0  0  0  0
  8  9  1  0  0  0  0
  8 40  1  0  0  0  0
  8 41  1  0  0  0  0
  9 10  1  0  0  0  0
  9 42  1  0  0  0  0
  9 43  1  0  0  0  0
 10 11  1  0  0  0  0
 11 16  1  0  0  0  0
 11 12  2  0  0  0  0
 12 13  1  0  0  0  0
 13 14  2  0  0  0  0
 13 44  1  0  0  0  0
 14 15  1  0  0  0  0
 15 19  1  0  0  0  0
 15 16  2  0  0  0  0
 16 17  1  0  0  0  0
 17 18  2  0  0  0  0
 18 19  1  0  0  0  0
 18 45  1  0  0  0  0
 19 20  1  0  0  0  0
 20 27  1  0  0  0  0
 20 21  1  0  0  0  0
 20 46  1  0  0  0  0
 21 22  1  0  0  0  0
 21 47  1  0  0  0  0
 21 48  1  0  0  0  0
 22 23  1  0  0  0  0
 22 25  1  0  0  0  0
 22 27  1  0  0  0  0
 23 24  1  0  0  0  0
 23 49  1  0  0  0  0
 23 50  1  0  0  0  0
 24 51  1  0  0  0  0
 25 26  1  0  0  0  0
 25 52  1  0  0  0  0
 25 53  1  0  0  0  0
 26 54  1  0  0  0  0
 27 55  1  0  0  0  0
 27 56  1  0  0  0  0
 28 57  1  0  0  0  0
 28 58  1  0  0  0  0
M  CHG  1   2   1
M  END
> <s_m_source_file>
AV-unprocessed.smi

> <i_m_source_file_index>
198

> <i_lp_mmshare_version>
43012

> <i_f3d_flags>
0

> <s_epik_input>
W0NIMl0xW0NIMl1OKFtDSDNdKVtDSDJdW0NAQEhdKFtDQEhdMTIpW0NIMl1bQ0gyXVtDSDJdTjJjKG5bY0hdbjMpYyhjMzQpbltjSF1uNFtDSF0oW0NIMl01KVtDSDJdQzUoW0NIMl1bT0hdKVtDSDJdW09IXQ==

> <s_epik_cmdline>
J2VwaWtfcHl0aG9uJywgJy1waCcsICc3LjAnLCAnLXRuJywgJzgnLCAnLW1hJywgJzIwMCcsICctbWV0YWxfYmluZGluZycsICctaW1hZScsICc8aW5maWxlLm1hZT4nLCAnLW9tYWUnLCAnPG91dGZpbGUubWFlPic=

> <r_lp_tautomer_probability>
1

> <r_epik_Ionization_Penalty>
0.00239938

> <r_epik_Ionization_Penalty_Charging>
0.00138697

> <r_epik_Ionization_Penalty_Neutral>
0.00101241

> <r_epik_State_Penalty>
-0

> <r_epik_Charging_Adjusted_Penalty>
0.00138697

> <i_epik_Tot_Q>
1

> <i_epik_Tot_abs_Q>
1

> <r_epik_Metal_State_Penalty>
-0

> <b_epik_Metal_Only>
0

> <s_lp_Force_Field>
OPLS_2005

> <r_lp_Energy>
58.6864

> <b_lp_Chiralities_Consistent>
1

> <s_lp_Variant>
AV-unprocessed.smi:198-3

> <Gold.Version>
5.8.1

> <Gold.Id.Protein>
6NUR|6NUR_protein|mol2

> <Gold.PLP.Fitness>
46.6347

> <Gold.PLP.PLP>
-38.2467

> <Gold.PLP.part.hbond>
-3.7766

> <Gold.PLP.part.metal>
0.0000

> <Gold.PLP.part.buried>
1.9126

> <Gold.PLP.part.nonpolar>
-36.8985

> <Gold.PLP.part.repulsive>
0.6180

> <Gold.PLP.ligand.clash>
0.0000

> <Gold.PLP.ligand.torsion>
0.5766

> <Gold.PLP.Chemscore.Hbond>
2.2717

> <Gold.PLP.Chemscore.CHOScore>
0.6906

> <Gold.PLP.Chemscore.Metal>
0.0000

> <Gold.Chemscore.Hbonds>
donor molecule, donor type, donor heavy atom, donor atom, acceptor molecule, acceptor atom, score
      L1  H    24    51       P1 10747  0.29
      L1  H    26    54       P1 10186  0.63
      P1  H 10785 10796       L1    26  0.96
      L1  C    18    45       P1 10171  0.62

> <Gold.PLP.Chemscore.Internal.Correction>
0.6542

> <Gold.Rescore>
     Score         DG    S(hbond)    S(metal)    S(lipo)     H(rot)  DE(clash)    DE(int)     intcor
     12.21     -14.99       1.89        0.00      94.80       3.08       2.37       0.41       ----

> <Gold.Chemscore.Fitness>
12.2088

> <Gold.Chemscore.DG>
-14.9877

> <Gold.Chemscore.ZeroCoef>
-5.4800

> <Gold.Chemscore.Hbond>
1.8851

> <Gold.Chemscore.Metal>
0.0000

> <Gold.Chemscore.Lipo>
94.8006

> <Gold.Chemscore.Internal_Hbond>
0.0000

> <Gold.Chemscore.DEClash>
2.3677

> <Gold.Chemscore.DEInternal>
0.4113

> <Gold.Chemscore.Rot>
3.0781

> <Gold.Chemscore.Internal.Correction>
   9.000000E+99

> <Gold.Chemscore.Hbonds>
donor molecule, donor type, donor heavy atom, donor atom, acceptor molecule, acceptor atom, score
      L1  H    24    51       P1 10747  0.30
      L1  H    26    54       P1 10186  0.63
      P1  H 10785 10796       L1    26  0.31

> <Gold.Chemscore.Hbond.Weighted>
-6.2961

> <Gold.Chemscore.Metal.Weighted>
-0.0000

> <Gold.Chemscore.Lipo.Weighted>
-11.0917

> <Gold.Chemscore.Internal_Hbond.Weighted>
0.0000

> <Gold.Chemscore.DEClash.Weighted>
2.3677

> <Gold.Chemscore.DEInternal.Weighted>
0.4113

> <Gold.Chemscore.Rot.Weighted>
7.8800

> <Gold.Chemscore.Internal.Correction.Weighted>
   9.000000E+99

> <Gold.Protein.RotatedTorsions>
[ 6907 6896 6895 6894 ] final   94.47 input  -60.11 | X-H torsion
[ 7974 7965 7964 7962 ] final  124.89 input  175.53 | X-H torsion
[ 8008 7997 7996 7995 ] final   -5.16 input   59.86 | X-H torsion
[ 10167 10162 10161 10158 ] final  -44.84 input  -65.29 | X-H torsion
[ 10718 10713 10712 10709 ] final   -9.02 input   66.30 | X-H torsion
[ 10763 10752 10751 10750 ] final  -77.88 input  -60.55 | X-H torsion
[ 11005 11000 10999 10996 ] final  -91.38 input  -57.11 | X-H torsion

> <Gold.Protein.ActiveResidues>
 VAL166  LYS551  ARG553  GLY616  TRP617  ASP618  TYR619  PRO620  LYS621  CYS622 
 ASP623  PHE694  ASN695  SER759  ASP760  ASP761  ALA762  ILE779  LEU786  VAL792 
 PHE793  MET794  SER795  GLU796  ALA797  LYS798  CYS799  TRP800  GLU811  SER814 

> <Gold.Protein.RotatedAtoms>
  152.5449  134.1188  159.8389 H   0  0  0  0  0  0  0  0  0  0  0  0  # atno 6907 bound_to 6896
  151.1246  133.5072  159.2608 H   0  0  0  0  0  0  0  0  0  0  0  0  # atno 6908 bound_to 6896
  151.1741  135.0341  159.8819 H   0  0  0  0  0  0  0  0  0  0  0  0  # atno 6909 bound_to 6896
  145.0793  139.3670  143.4917 H   0  0  0  0  0  0  0  0  0  0  0  0  # atno 7974 bound_to 7965
  154.6067  140.2465  155.7721 H   0  0  0  0  0  0  0  0  0  0  0  0  # atno 8008 bound_to 7997
  156.2345  140.2955  156.0228 H   0  0  0  0  0  0  0  0  0  0  0  0  # atno 8009 bound_to 7997
  155.2120  140.0397  157.2925 H   0  0  0  0  0  0  0  0  0  0  0  0  # atno 8010 bound_to 7997
  140.6881  143.2910  151.3553 H   0  0  0  0  0  0  0  0  0  0  0  0  # atno 10167 bound_to 10162
  156.6941  130.5074  149.5935 H   0  0  0  0  0  0  0  0  0  0  0  0  # atno 10718 bound_to 10713
  154.5187  135.5749  153.6663 H   0  0  0  0  0  0  0  0  0  0  0  0  # atno 10763 bound_to 10752
  152.9912  135.6176  154.2783 H   0  0  0  0  0  0  0  0  0  0  0  0  # atno 10764 bound_to 10752
  154.2702  135.2853  155.2721 H   0  0  0  0  0  0  0  0  0  0  0  0  # atno 10765 bound_to 10752
  141.1546  133.7752  156.9871 H   0  0  0  0  0  0  0  0  0  0  0  0  # atno 11005 bound_to 11000
  146.3530  140.0575  142.8631 LP  0  0  0  0  0  0  0  0  0  0  0  0  # atno 17320 bound_to 7965
  145.1198  140.9455  143.4607 LP  0  0  0  0  0  0  0  0  0  0  0  0  # atno 17321 bound_to 7965
  139.6258  144.0817  152.2433 LP  0  0  0  0  0  0  0  0  0  0  0  0  # atno 17342 bound_to 10162
  140.0276  144.6106  150.7515 LP  0  0  0  0  0  0  0  0  0  0  0  0  # atno 17343 bound_to 10162
  156.1776  130.6478  151.0913 LP  0  0  0  0  0  0  0  0  0  0  0  0  # atno 17370 bound_to 10713
  157.6998  131.0780  150.6857 LP  0  0  0  0  0  0  0  0  0  0  0  0  # atno 17371 bound_to 10713
  140.1027  134.9525  157.1948 LP  0  0  0  0  0  0  0  0  0  0  0  0  # atno 17394 bound_to 11000
  140.3296  134.2824  155.7230 LP  0  0  0  0  0  0  0  0  0  0  0  0  # atno 17395 bound_to 11000

$$$$
