AV-unprocessed.smi:2674|AV-procd|sdf|10359|dock7
  -GOLD-   2272014383D 1   1.00000     0.00000
 Structure written by MMmdl.
 45 46  0  0  0  0  0  0  0  0  2 V2000
  146.7738  141.1914  156.1654 C   0  0  0  0  0  0  0  0  0  0  0  0
  146.9280  142.2053  155.0881 N   0  3  1  0  0  0  0  0  0  0  0  0
  147.7828  141.7082  153.9698 C   0  0  0  0  0  0  0  0  0  0  0  0
  149.2427  141.4088  154.3745 C   0  0  0  0  0  0  0  0  0  0  0  0
  149.7035  142.3179  155.4186 N   0  0  0  0  0  0  0  0  0  0  0  0
  150.5189  141.9756  156.4271 C   0  0  0  0  0  0  0  0  0  0  0  0
  150.9624  140.8367  156.5787 O   0  0  0  0  0  0  0  0  0  0  0  0
  150.7776  143.0256  157.2263 N   0  0  0  0  0  0  0  0  0  0  0  0
  151.6330  143.0745  158.3594 C   0  0  0  0  0  0  0  0  0  0  0  0
  152.6243  142.0683  158.4056 C   0  0  0  0  0  0  0  0  0  0  0  0
  153.5180  142.0257  159.4933 C   0  0  0  0  0  0  0  0  0  0  0  0
  153.3968  142.9915  160.5081 C   0  0  0  0  0  0  0  0  0  0  0  0
  152.3828  143.9591  160.3851 C   0  0  0  0  0  0  0  0  0  0  0  0
  151.5251  144.0017  159.3438 N   0  0  0  0  0  0  0  0  0  0  0  0
  145.6012  142.7770  154.6808 C   0  0  0  0  0  0  0  0  0  0  0  0
  145.6791  143.9462  153.6613 C   0  0  0  0  0  0  0  0  0  0  0  0
  144.2900  144.5017  153.3059 C   0  0  0  0  0  0  0  0  0  0  0  0
  143.5299  144.9526  154.5591 C   0  0  0  0  0  0  0  0  0  0  0  0
  143.4314  143.8080  155.5751 C   0  0  0  0  0  0  0  0  0  0  0  0
  144.8212  143.2566  155.9308 C   0  0  0  0  0  0  0  0  0  0  0  0
  146.4114  140.2463  155.7588 H   0  0  0  0  0  0  0  0  0  0  0  0
  146.0730  141.5068  156.9361 H   0  0  0  0  0  0  0  0  0  0  0  0
  147.7185  141.0071  156.6755 H   0  0  0  0  0  0  0  0  0  0  0  0
  147.3185  140.8207  153.5371 H   0  0  0  0  0  0  0  0  0  0  0  0
  147.8329  142.4609  153.1838 H   0  0  0  0  0  0  0  0  0  0  0  0
  149.3266  140.3885  154.7496 H   0  0  0  0  0  0  0  0  0  0  0  0
  149.9225  141.4919  153.5259 H   0  0  0  0  0  0  0  0  0  0  0  0
  149.3804  143.2733  155.3691 H   0  0  0  0  0  0  0  0  0  0  0  0
  150.3247  143.8957  156.9885 H   0  0  0  0  0  0  0  0  0  0  0  0
  152.7029  141.3331  157.6178 H   0  0  0  0  0  0  0  0  0  0  0  0
  154.2823  141.2645  159.5475 H   0  0  0  0  0  0  0  0  0  0  0  0
  154.0627  142.9912  161.3583 H   0  0  0  0  0  0  0  0  0  0  0  0
  152.2554  144.7182  161.1427 H   0  0  0  0  0  0  0  0  0  0  0  0
  145.0340  141.9784  154.1988 H   0  0  0  0  0  0  0  0  0  0  0  0
  146.2928  144.7535  154.0641 H   0  0  0  0  0  0  0  0  0  0  0  0
  146.1483  143.6215  152.7321 H   0  0  0  0  0  0  0  0  0  0  0  0
  144.3911  145.3385  152.6138 H   0  0  0  0  0  0  0  0  0  0  0  0
  143.7130  143.7377  152.7831 H   0  0  0  0  0  0  0  0  0  0  0  0
  144.0393  145.8043  155.0119 H   0  0  0  0  0  0  0  0  0  0  0  0
  142.5318  145.2973  154.2869 H   0  0  0  0  0  0  0  0  0  0  0  0
  142.9290  144.1575  156.4778 H   0  0  0  0  0  0  0  0  0  0  0  0
  142.8127  143.0073  155.1676 H   0  0  0  0  0  0  0  0  0  0  0  0
  144.6922  142.4518  156.6528 H   0  0  0  0  0  0  0  0  0  0  0  0
  145.3951  144.0306  156.4427 H   0  0  0  0  0  0  0  0  0  0  0  0
  147.4389  142.9772  155.4921 H   0  0  0  0  0  0  0  0  0  0  0  0
  1  2  1  0  0  0  0
  1 21  1  0  0  0  0
  1 22  1  0  0  0  0
  1 23  1  0  0  0  0
  2  3  1  0  0  0  0
  2 15  1  0  0  0  0
  2 45  1  0  0  0  0
  3  4  1  0  0  0  0
  3 24  1  0  0  0  0
  3 25  1  0  0  0  0
  4  5  1  0  0  0  0
  4 26  1  0  0  0  0
  4 27  1  0  0  0  0
  5  6  1  0  0  0  0
  5 28  1  0  0  0  0
  6  7  2  0  0  0  0
  6  8  1  0  0  0  0
  8  9  1  0  0  0  0
  8 29  1  0  0  0  0
  9 14  1  0  0  0  0
  9 10  2  0  0  0  0
 10 11  1  0  0  0  0
 10 30  1  0  0  0  0
 11 12  2  0  0  0  0
 11 31  1  0  0  0  0
 12 13  1  0  0  0  0
 12 32  1  0  0  0  0
 13 14  2  0  0  0  0
 13 33  1  0  0  0  0
 15 20  1  0  0  0  0
 15 16  1  0  0  0  0
 15 34  1  0  0  0  0
 16 17  1  0  0  0  0
 16 35  1  0  0  0  0
 16 36  1  0  0  0  0
 17 18  1  0  0  0  0
 17 37  1  0  0  0  0
 17 38  1  0  0  0  0
 18 19  1  0  0  0  0
 18 39  1  0  0  0  0
 18 40  1  0  0  0  0
 19 20  1  0  0  0  0
 19 41  1  0  0  0  0
 19 42  1  0  0  0  0
 20 43  1  0  0  0  0
 20 44  1  0  0  0  0
M  CHG  1   2   1
M  END
> <s_m_source_file>
AV-unprocessed.smi

> <i_m_source_file_index>
2674

> <i_lp_mmshare_version>
43012

> <i_f3d_flags>
0

> <s_epik_input>
W0NIMl0xW0NIMl1bQ0gyXVtDSDJdW0NIMl1bQ0hdMU4oW0NIM10pW0NIMl1bQ0gyXVtOSF1DKD1PKVtOSF1jMltjSF1bY0hdW2NIXVtjSF1uMg==

> <s_epik_cmdline>
J2VwaWtfcHl0aG9uJywgJy1waCcsICc3LjAnLCAnLXRuJywgJzgnLCAnLW1hJywgJzIwMCcsICctbWV0YWxfYmluZGluZycsICctaW1hZScsICc8aW5maWxlLm1hZT4nLCAnLW9tYWUnLCAnPG91dGZpbGUubWFlPic=

> <r_epik_Ionization_Penalty>
0.00206741

> <r_epik_Ionization_Penalty_Charging>
0.00203269

> <r_epik_Ionization_Penalty_Neutral>
3.47205e-05

> <r_epik_State_Penalty>
0.00139005

> <r_epik_Charging_Adjusted_Penalty>
0.00342273

> <i_epik_Tot_Q>
1

> <i_epik_Tot_abs_Q>
1

> <r_epik_Metal_State_Penalty>
-0

> <b_epik_Metal_Only>
0

> <s_lp_Force_Field>
OPLS_2005

> <r_lp_Energy>
21.1862

> <b_lp_Chiralities_Consistent>
1

> <s_lp_Variant>
AV-unprocessed.smi:2674-2

> <Gold.Version>
5.8.1

> <Gold.Id.Protein>
6NUR|6NUR_protein|mol2

> <Gold.PLP.Fitness>
49.9310

> <Gold.PLP.PLP>
-39.7492

> <Gold.PLP.part.hbond>
-2.9914

> <Gold.PLP.part.metal>
0.0000

> <Gold.PLP.part.buried>
-2.6213

> <Gold.PLP.part.nonpolar>
-33.0764

> <Gold.PLP.part.repulsive>
0.3788

> <Gold.PLP.ligand.clash>
0.0000

> <Gold.PLP.ligand.torsion>
0.4984

> <Gold.PLP.Chemscore.Hbond>
3.6991

> <Gold.PLP.Chemscore.CHOScore>
0.0000

> <Gold.PLP.Chemscore.Metal>
0.0000

> <Gold.Chemscore.Hbonds>
donor molecule, donor type, donor heavy atom, donor atom, acceptor molecule, acceptor atom, score
      L1  H     2    45       P1  8028  0.98
      L1  H     5    28       P1  8028  1.00
      L1  H     8    29       P1  8028  0.70

> <Gold.PLP.Chemscore.Internal.Correction>
0.0814

> <Gold.Rescore>
     Score         DG    S(hbond)    S(metal)    S(lipo)     H(rot)  DE(clash)    DE(int)     intcor
     16.72     -19.80       1.96        0.00     103.67       1.70       1.09       1.99       ----

> <Gold.Chemscore.Fitness>
16.7204

> <Gold.Chemscore.DG>
-19.7960

> <Gold.Chemscore.ZeroCoef>
-5.4800

> <Gold.Chemscore.Hbond>
1.9601

> <Gold.Chemscore.Metal>
0.0000

> <Gold.Chemscore.Lipo>
103.6659

> <Gold.Chemscore.Internal_Hbond>
0.0000

> <Gold.Chemscore.DEClash>
1.0861

> <Gold.Chemscore.DEInternal>
1.9894

> <Gold.Chemscore.Rot>
1.7030

> <Gold.Chemscore.Internal.Correction>
   9.000000E+99

> <Gold.Chemscore.Hbonds>
donor molecule, donor type, donor heavy atom, donor atom, acceptor molecule, acceptor atom, score
      L1  H     2    45       P1  8028  0.12
      L1  H     5    28       P1  8028  0.95
      L1  H     8    29       P1  8028  0.68

> <Gold.Chemscore.Hbond.Weighted>
-6.5468

> <Gold.Chemscore.Metal.Weighted>
-0.0000

> <Gold.Chemscore.Lipo.Weighted>
-12.1289

> <Gold.Chemscore.Internal_Hbond.Weighted>
0.0000

> <Gold.Chemscore.DEClash.Weighted>
1.0861

> <Gold.Chemscore.DEInternal.Weighted>
1.9894

> <Gold.Chemscore.Rot.Weighted>
4.3597

> <Gold.Chemscore.Internal.Correction.Weighted>
   9.000000E+99

> <Gold.Protein.RotatedTorsions>
[ 6907 6896 6895 6894 ] final  -96.31 input  -60.11 | X-H torsion
[ 7974 7965 7964 7962 ] final -155.43 input  175.53 | X-H torsion
[ 8008 7997 7996 7995 ] final  -37.97 input   59.86 | X-H torsion
[ 10167 10162 10161 10158 ] final  -14.15 input  -65.29 | X-H torsion
[ 10718 10713 10712 10709 ] final -121.64 input   66.30 | X-H torsion
[ 10763 10752 10751 10750 ] final  -17.08 input  -60.55 | X-H torsion
[ 11005 11000 10999 10996 ] final -117.33 input  -57.11 | X-H torsion

> <Gold.Protein.ActiveResidues>
 VAL166  LYS551  ARG553  GLY616  TRP617  ASP618  TYR619  PRO620  LYS621  CYS622 
 ASP623  PHE694  ASN695  SER759  ASP760  ASP761  ALA762  ILE779  LEU786  VAL792 
 PHE793  MET794  SER795  GLU796  ALA797  LYS798  CYS799  TRP800  GLU811  SER814 

> <Gold.Protein.RotatedAtoms>
  150.6985  134.1523  159.4144 H   0  0  0  0  0  0  0  0  0  0  0  0  # atno 6907 bound_to 6896
  151.9505  135.0169  160.0551 H   0  0  0  0  0  0  0  0  0  0  0  0  # atno 6908 bound_to 6896
  152.2015  133.4809  159.5098 H   0  0  0  0  0  0  0  0  0  0  0  0  # atno 6909 bound_to 6896
  144.7640  140.4250  143.5955 H   0  0  0  0  0  0  0  0  0  0  0  0  # atno 7974 bound_to 7965
  154.4044  140.1590  156.2623 H   0  0  0  0  0  0  0  0  0  0  0  0  # atno 8008 bound_to 7997
  155.9025  140.3432  155.6015 H   0  0  0  0  0  0  0  0  0  0  0  0  # atno 8009 bound_to 7997
  155.7431  140.0795  157.2227 H   0  0  0  0  0  0  0  0  0  0  0  0  # atno 8010 bound_to 7997
  140.7196  143.5351  150.9474 H   0  0  0  0  0  0  0  0  0  0  0  0  # atno 10167 bound_to 10162
  156.1353  130.6426  150.9687 H   0  0  0  0  0  0  0  0  0  0  0  0  # atno 10718 bound_to 10713
  153.5684  135.7008  153.5516 H   0  0  0  0  0  0  0  0  0  0  0  0  # atno 10763 bound_to 10752
  153.3366  135.4032  155.1538 H   0  0  0  0  0  0  0  0  0  0  0  0  # atno 10764 bound_to 10752
  154.8637  135.3732  154.5205 H   0  0  0  0  0  0  0  0  0  0  0  0  # atno 10765 bound_to 10752
  141.0362  133.9906  157.3067 H   0  0  0  0  0  0  0  0  0  0  0  0  # atno 11005 bound_to 11000
  145.6527  139.1568  143.2853 LP  0  0  0  0  0  0  0  0  0  0  0  0  # atno 17320 bound_to 7965
  146.1731  140.6615  142.9224 LP  0  0  0  0  0  0  0  0  0  0  0  0  # atno 17321 bound_to 7965
  139.9072  143.6763  152.3121 LP  0  0  0  0  0  0  0  0  0  0  0  0  # atno 17342 bound_to 10162
  139.7134  144.7616  151.1074 LP  0  0  0  0  0  0  0  0  0  0  0  0  # atno 17343 bound_to 10162
  157.6527  131.0894  150.8016 LP  0  0  0  0  0  0  0  0  0  0  0  0  # atno 17370 bound_to 10713
  156.8096  130.4948  149.5358 LP  0  0  0  0  0  0  0  0  0  0  0  0  # atno 17371 bound_to 10713
  139.9242  135.0201  156.8175 LP  0  0  0  0  0  0  0  0  0  0  0  0  # atno 17394 bound_to 11000
  140.6318  133.9899  155.7665 LP  0  0  0  0  0  0  0  0  0  0  0  0  # atno 17395 bound_to 11000

$$$$
