AV-unprocessed.smi:276|AV-procd|sdf|2080|dock7
  -GOLD-   2262021353D 1   1.00000     0.00000
 Structure written by MMmdl.
 57 61  0  0  0  0  0  0  0  0  1 V2000
  147.9090  136.9945  163.3113 C   0  0  0  0  0  0  0  0  0  0  0  0
  148.2021  136.9250  161.9271 O   0  0  0  0  0  0  0  0  0  0  0  0
  147.2843  136.1114  161.2145 C   0  0  2  0  0  0  0  0  0  0  0  0
  147.5511  134.6061  161.3295 C   0  0  0  0  0  0  0  0  0  0  0  0
  147.1482  134.5042  159.8524 C   0  0  2  0  0  0  0  0  0  0  0  0
  147.9238  133.5044  159.1141 N   0  0  0  0  0  0  0  0  0  0  0  0
  148.1915  132.2552  159.8158 C   0  0  0  0  0  0  0  0  0  0  0  0
  147.5180  133.2482  157.8497 C   0  0  0  0  0  0  0  0  0  0  0  0
  146.2671  132.7457  157.6974 N   0  0  0  0  0  0  0  0  0  0  0  0
  145.8034  132.4600  156.4772 C   0  0  0  0  0  0  0  0  0  0  0  0
  146.4106  132.6063  155.2977 N   0  0  0  0  0  0  0  0  0  0  0  0
  147.6600  133.1333  155.4458 C   0  0  0  0  0  0  0  0  0  0  0  0
  148.2870  133.4868  156.6741 C   0  0  0  0  0  0  0  0  0  0  0  0
  149.5513  134.0088  156.4240 N   0  0  0  0  0  0  0  0  0  0  0  0
  149.6693  133.9546  155.1255 C   0  0  0  0  0  0  0  0  0  0  0  0
  148.5796  133.4429  154.4599 N   0  0  0  0  0  0  0  0  0  0  0  0
  148.4408  133.2778  153.0236 C   0  0  0  0  0  0  0  0  0  0  0  0
  147.3139  132.2941  152.6502 C   0  0  2  0  0  0  0  0  0  0  0  0
  147.8621  131.0021  152.4679 O   0  0  0  0  0  0  0  0  0  0  0  0
  146.5789  132.7108  151.3625 C   0  0  1  0  0  0  0  0  0  0  0  0
  145.6356  131.6467  150.7994 C   0  0  0  0  0  0  0  0  0  0  0  0
  144.6856  132.4856  149.9762 C   0  0  0  0  0  0  0  0  0  0  0  0
  144.5334  133.7317  150.8438 C   0  0  0  0  0  0  0  0  0  0  0  0
  145.7304  133.8293  151.6123 O   0  0  0  0  0  0  0  0  0  0  0  0
  147.6007  135.9828  159.7115 C   0  0  0  0  0  0  0  0  0  0  0  0
  146.9536  136.9343  158.6967 C   0  0  0  0  0  0  0  0  0  0  0  0
  148.2779  136.9792  157.9277 C   0  0  0  0  0  0  0  0  0  0  0  0
  148.9803  136.3954  159.1582 C   0  0  0  0  0  0  0  0  0  0  0  0
  148.6391  137.6333  163.8080 H   0  0  0  0  0  0  0  0  0  0  0  0
  147.9532  136.0093  163.7770 H   0  0  0  0  0  0  0  0  0  0  0  0
  146.9188  137.4186  163.4826 H   0  0  0  0  0  0  0  0  0  0  0  0
  146.2386  136.3736  161.3912 H   0  0  0  0  0  0  0  0  0  0  0  0
  148.6026  134.3753  161.5122 H   0  0  0  0  0  0  0  0  0  0  0  0
  146.8938  134.0777  162.0201 H   0  0  0  0  0  0  0  0  0  0  0  0
  146.0673  134.3927  159.7578 H   0  0  0  0  0  0  0  0  0  0  0  0
  147.2671  131.7022  159.9867 H   0  0  0  0  0  0  0  0  0  0  0  0
  148.6564  132.4461  160.7831 H   0  0  0  0  0  0  0  0  0  0  0  0
  148.8709  131.6213  159.2447 H   0  0  0  0  0  0  0  0  0  0  0  0
  144.8031  132.0547  156.4411 H   0  0  0  0  0  0  0  0  0  0  0  0
  150.5583  134.2931  154.6135 H   0  0  0  0  0  0  0  0  0  0  0  0
  148.2465  134.2587  152.5889 H   0  0  0  0  0  0  0  0  0  0  0  0
  149.3944  132.9415  152.6147 H   0  0  0  0  0  0  0  0  0  0  0  0
  146.5976  132.2403  153.4712 H   0  0  0  0  0  0  0  0  0  0  0  0
  148.5421  131.0540  151.8135 H   0  0  0  0  0  0  0  0  0  0  0  0
  147.2953  133.0001  150.5915 H   0  0  0  0  0  0  0  0  0  0  0  0
  146.1515  130.8875  150.2112 H   0  0  0  0  0  0  0  0  0  0  0  0
  145.0924  131.1474  151.6031 H   0  0  0  0  0  0  0  0  0  0  0  0
  145.1477  132.7450  149.0227 H   0  0  0  0  0  0  0  0  0  0  0  0
  143.7372  131.9875  149.7733 H   0  0  0  0  0  0  0  0  0  0  0  0
  144.3696  134.6302  150.2483 H   0  0  0  0  0  0  0  0  0  0  0  0
  143.6916  133.6211  151.5281 H   0  0  0  0  0  0  0  0  0  0  0  0
  146.1211  136.5094  158.1363 H   0  0  0  0  0  0  0  0  0  0  0  0
  146.6915  137.8983  159.1347 H   0  0  0  0  0  0  0  0  0  0  0  0
  148.2925  136.3100  157.0676 H   0  0  0  0  0  0  0  0  0  0  0  0
  148.6058  137.9830  157.6567 H   0  0  0  0  0  0  0  0  0  0  0  0
  149.4692  137.1705  159.7490 H   0  0  0  0  0  0  0  0  0  0  0  0
  149.6678  135.5778  158.9438 H   0  0  0  0  0  0  0  0  0  0  0  0
  1  2  1  0  0  0  0
  1 29  1  0  0  0  0
  1 30  1  0  0  0  0
  1 31  1  0  0  0  0
  2  3  1  0  0  0  0
  3 25  1  0  0  0  0
  3  4  1  0  0  0  0
  3 32  1  0  0  0  0
  4  5  1  0  0  0  0
  4 33  1  0  0  0  0
  4 34  1  0  0  0  0
  5  6  1  0  0  0  0
  5 25  1  0  0  0  0
  5 35  1  0  0  0  0
  6  7  1  0  0  0  0
  6  8  1  0  0  0  0
  7 36  1  0  0  0  0
  7 37  1  0  0  0  0
  7 38  1  0  0  0  0
  8 13  1  0  0  0  0
  8  9  2  0  0  0  0
  9 10  1  0  0  0  0
 10 11  2  0  0  0  0
 10 39  1  0  0  0  0
 11 12  1  0  0  0  0
 12 16  1  0  0  0  0
 12 13  2  0  0  0  0
 13 14  1  0  0  0  0
 14 15  2  0  0  0  0
 15 16  1  0  0  0  0
 15 40  1  0  0  0  0
 16 17  1  0  0  0  0
 17 18  1  0  0  0  0
 17 41  1  0  0  0  0
 17 42  1  0  0  0  0
 18 19  1  0  0  0  0
 18 20  1  0  0  0  0
 18 43  1  0  0  0  0
 19 44  1  0  0  0  0
 20 24  1  0  0  0  0
 20 21  1  0  0  0  0
 20 45  1  0  0  0  0
 21 22  1  0  0  0  0
 21 46  1  0  0  0  0
 21 47  1  0  0  0  0
 22 23  1  0  0  0  0
 22 48  1  0  0  0  0
 22 49  1  0  0  0  0
 23 24  1  0  0  0  0
 23 50  1  0  0  0  0
 23 51  1  0  0  0  0
 25 28  1  0  0  0  0
 25 26  1  0  0  0  0
 26 27  1  0  0  0  0
 26 52  1  0  0  0  0
 26 53  1  0  0  0  0
 27 28  1  0  0  0  0
 27 54  1  0  0  0  0
 27 55  1  0  0  0  0
 28 56  1  0  0  0  0
 28 57  1  0  0  0  0
M  END
> <s_m_source_file>
AV-unprocessed.smi

> <i_m_source_file_index>
276

> <i_lp_mmshare_version>
43012

> <i_f3d_flags>
0

> <s_epik_input>
W0NIMl0xW0NIMl1bQ0gyXUMxMltDQEhdKE9bQ0gzXSlbQ0gyXVtDQEhdMk4oW0NIM10pYyhuW2NIXW4zKWMoYzM0KW5bY0hdbjRbQ0gyXVtDQEhdKFtPSF0pW0NAQEhdNVtDSDJdW0NIMl1bQ0gyXU81

> <s_epik_cmdline>
J2VwaWtfcHl0aG9uJywgJy1waCcsICc3LjAnLCAnLXRuJywgJzgnLCAnLW1hJywgJzIwMCcsICctbWV0YWxfYmluZGluZycsICctaW1hZScsICc8aW5maWxlLm1hZT4nLCAnLW9tYWUnLCAnPG91dGZpbGUubWFlPic=

> <r_lp_tautomer_probability>
1

> <r_epik_Ionization_Penalty>
0.00204117

> <r_epik_Ionization_Penalty_Charging>
0

> <r_epik_Ionization_Penalty_Neutral>
0.00204117

> <r_epik_State_Penalty>
0.00127401

> <r_epik_Charging_Adjusted_Penalty>
0.00127401

> <i_epik_Tot_Q>
0

> <i_epik_Tot_abs_Q>
0

> <r_epik_Metal_State_Penalty>
-0

> <b_epik_Metal_Only>
0

> <s_lp_Force_Field>
OPLS_2005

> <r_lp_Energy>
54.5778

> <b_lp_Chiralities_Consistent>
1

> <s_lp_Variant>
AV-unprocessed.smi:276-11

> <Gold.Version>
5.8.1

> <Gold.Id.Protein>
6NUR|6NUR_protein|mol2

> <Gold.PLP.Fitness>
44.2417

> <Gold.PLP.PLP>
-37.8400

> <Gold.PLP.part.hbond>
-2.0000

> <Gold.PLP.part.metal>
0.0000

> <Gold.PLP.part.buried>
-5.8723

> <Gold.PLP.part.nonpolar>
-30.6131

> <Gold.PLP.part.repulsive>
0.2377

> <Gold.PLP.ligand.clash>
0.0000

> <Gold.PLP.ligand.torsion>
1.6872

> <Gold.PLP.Chemscore.Hbond>
2.0000

> <Gold.PLP.Chemscore.CHOScore>
0.9986

> <Gold.PLP.Chemscore.Metal>
0.0000

> <Gold.Chemscore.Hbonds>
donor molecule, donor type, donor heavy atom, donor atom, acceptor molecule, acceptor atom, score
      L1  H    19    44       P1 10747  0.99
      P1  H  6931  6943       L1     2  0.70
      L1  C    10    39       P1 10957  0.65

> <Gold.PLP.Chemscore.Internal.Correction>
0.7805

> <Gold.Rescore>
     Score         DG    S(hbond)    S(metal)    S(lipo)     H(rot)  DE(clash)    DE(int)     intcor
     11.50     -15.47       1.61        0.00      98.89       2.72       0.77       3.20       ----

> <Gold.Chemscore.Fitness>
11.5028

> <Gold.Chemscore.DG>
-15.4698

> <Gold.Chemscore.ZeroCoef>
-5.4800

> <Gold.Chemscore.Hbond>
1.6095

> <Gold.Chemscore.Metal>
0.0000

> <Gold.Chemscore.Lipo>
98.8896

> <Gold.Chemscore.Internal_Hbond>
0.0000

> <Gold.Chemscore.DEClash>
0.7700

> <Gold.Chemscore.DEInternal>
3.1970

> <Gold.Chemscore.Rot>
2.7172

> <Gold.Chemscore.Internal.Correction>
   9.000000E+99

> <Gold.Chemscore.Hbonds>
donor molecule, donor type, donor heavy atom, donor atom, acceptor molecule, acceptor atom, score
      L1  H    19    44       P1 10747  0.90
      P1  H  6931  6943       L1     2  0.07

> <Gold.Chemscore.Hbond.Weighted>
-5.3757

> <Gold.Chemscore.Metal.Weighted>
-0.0000

> <Gold.Chemscore.Lipo.Weighted>
-11.5701

> <Gold.Chemscore.Internal_Hbond.Weighted>
0.0000

> <Gold.Chemscore.DEClash.Weighted>
0.7700

> <Gold.Chemscore.DEInternal.Weighted>
3.1970

> <Gold.Chemscore.Rot.Weighted>
6.9560

> <Gold.Chemscore.Internal.Correction.Weighted>
   9.000000E+99

> <Gold.Protein.RotatedTorsions>
[ 6907 6896 6895 6894 ] final  122.65 input  -60.11 | X-H torsion
[ 7974 7965 7964 7962 ] final  145.78 input  175.53 | X-H torsion
[ 8008 7997 7996 7995 ] final  -72.55 input   59.86 | X-H torsion
[ 10167 10162 10161 10158 ] final  109.42 input  -65.29 | X-H torsion
[ 10718 10713 10712 10709 ] final  -78.53 input   66.30 | X-H torsion
[ 10763 10752 10751 10750 ] final   67.90 input  -60.55 | X-H torsion
[ 11005 11000 10999 10996 ] final -127.83 input  -57.11 | X-H torsion

> <Gold.Protein.ActiveResidues>
 VAL166  LYS551  ARG553  GLY616  TRP617  ASP618  TYR619  PRO620  LYS621  CYS622 
 ASP623  PHE694  ASN695  SER759  ASP760  ASP761  ALA762  ILE779  LEU786  VAL792 
 PHE793  MET794  SER795  GLU796  ALA797  LYS798  CYS799  TRP800  GLU811  SER814 

> <Gold.Protein.RotatedAtoms>
  152.4225  133.7141  159.6495 H   0  0  0  0  0  0  0  0  0  0  0  0  # atno 6907 bound_to 6896
  150.8101  133.8426  159.3192 H   0  0  0  0  0  0  0  0  0  0  0  0  # atno 6908 bound_to 6896
  151.6138  135.1040  160.0138 H   0  0  0  0  0  0  0  0  0  0  0  0  # atno 6909 bound_to 6896
  144.8724  139.5824  143.5880 H   0  0  0  0  0  0  0  0  0  0  0  0  # atno 7974 bound_to 7965
  154.5175  140.0795  156.8109 H   0  0  0  0  0  0  0  0  0  0  0  0  # atno 8008 bound_to 7997
  155.3648  140.3420  155.4223 H   0  0  0  0  0  0  0  0  0  0  0  0  # atno 8009 bound_to 7997
  156.1644  140.1599  156.8544 H   0  0  0  0  0  0  0  0  0  0  0  0  # atno 8010 bound_to 7997
  139.6768  144.7121  151.1587 H   0  0  0  0  0  0  0  0  0  0  0  0  # atno 10167 bound_to 10162
  156.0115  130.4520  150.3510 H   0  0  0  0  0  0  0  0  0  0  0  0  # atno 10718 bound_to 10713
  153.0208  135.5267  154.7051 H   0  0  0  0  0  0  0  0  0  0  0  0  # atno 10763 bound_to 10752
  154.6149  135.2882  155.0393 H   0  0  0  0  0  0  0  0  0  0  0  0  # atno 10764 bound_to 10752
  154.1402  135.6579  153.4993 H   0  0  0  0  0  0  0  0  0  0  0  0  # atno 10765 bound_to 10752
  140.9567  134.0992  157.4009 H   0  0  0  0  0  0  0  0  0  0  0  0  # atno 11005 bound_to 11000
  146.2940  139.7222  142.9140 LP  0  0  0  0  0  0  0  0  0  0  0  0  # atno 17320 bound_to 7965
  145.4105  141.0396  143.3020 LP  0  0  0  0  0  0  0  0  0  0  0  0  # atno 17321 bound_to 7965
  140.7638  143.5760  150.8945 LP  0  0  0  0  0  0  0  0  0  0  0  0  # atno 17342 bound_to 10162
  139.9429  143.6361  152.3049 LP  0  0  0  0  0  0  0  0  0  0  0  0  # atno 17343 bound_to 10162
  157.1602  131.0343  151.2844 LP  0  0  0  0  0  0  0  0  0  0  0  0  # atno 17370 bound_to 10713
  157.4317  130.7494  149.6996 LP  0  0  0  0  0  0  0  0  0  0  0  0  # atno 17371 bound_to 10713
  139.8864  135.0081  156.6499 LP  0  0  0  0  0  0  0  0  0  0  0  0  # atno 17394 bound_to 11000
  140.7526  133.8885  155.8358 LP  0  0  0  0  0  0  0  0  0  0  0  0  # atno 17395 bound_to 11000

$$$$
