AV-unprocessed.smi:668|AV-procd|sdf|3262|dock3
  -GOLD-   22720 0213D 1   1.00000     0.00000
 Structure written by MMmdl.
 38 39  0  0  0  0  0  0  0  0  1 V2000
  151.8751  139.4581  155.1989 C   0  0  0  0  0  0  0  0  0  0  0  0
  150.9458  140.4916  154.8915 O   0  0  0  0  0  0  0  0  0  0  0  0
  149.6887  140.1323  154.4505 C   0  0  0  0  0  0  0  0  0  0  0  0
  148.7250  141.1432  154.2646 C   0  0  0  0  0  0  0  0  0  0  0  0
  147.4387  140.7853  153.8171 C   0  0  0  0  0  0  0  0  0  0  0  0
  147.1537  139.4198  153.5756 C   0  0  0  0  0  0  0  0  0  0  0  0
  145.9039  138.9294  153.1084 N   0  0  0  0  0  0  0  0  0  0  0  0
  145.5413  137.6609  152.8516 C   0  0  0  0  0  0  0  0  0  0  0  0
  146.2676  136.6741  152.9658 O   0  0  0  0  0  0  0  0  0  0  0  0
  144.2716  137.5986  152.4259 N   0  0  0  0  0  0  0  0  0  0  0  0
  143.5631  136.3747  152.0540 C   0  0  1  0  0  0  0  0  0  0  0  0
  144.2054  135.7333  150.8122 C   0  0  0  0  0  0  0  0  0  0  0  0
  144.9707  134.5153  151.3235 C   0  0  0  0  0  0  0  0  0  0  0  0
  144.1412  134.0246  152.5059 C   0  0  0  0  0  0  0  0  0  0  0  0
  143.6207  135.3062  153.1800 C   0  0  2  0  0  0  0  0  0  0  0  0
  142.2670  135.1019  153.8783 C   0  0  0  0  0  0  0  0  0  0  0  0
  142.1781  134.0926  154.7480 N   0  0  0  0  0  0  0  0  0  0  0  0
  141.3159  135.8440  153.6399 O   0  0  0  0  0  0  0  0  0  0  0  0
  148.1927  138.4880  153.7782 C   0  0  0  0  0  0  0  0  0  0  0  0
  149.4270  138.8241  154.2079 N   0  0  0  0  0  0  0  0  0  0  0  0
  152.8119  139.9034  155.5330 H   0  0  0  0  0  0  0  0  0  0  0  0
  152.0945  138.8444  154.3238 H   0  0  0  0  0  0  0  0  0  0  0  0
  151.5082  138.8182  156.0029 H   0  0  0  0  0  0  0  0  0  0  0  0
  148.9690  142.1773  154.4586 H   0  0  0  0  0  0  0  0  0  0  0  0
  146.7092  141.5636  153.6580 H   0  0  0  0  0  0  0  0  0  0  0  0
  145.2167  139.6375  152.8951 H   0  0  0  0  0  0  0  0  0  0  0  0
  143.7513  138.4609  152.3572 H   0  0  0  0  0  0  0  0  0  0  0  0
  142.5347  136.6432  151.8017 H   0  0  0  0  0  0  0  0  0  0  0  0
  143.4182  135.3998  150.1346 H   0  0  0  0  0  0  0  0  0  0  0  0
  144.8431  136.4168  150.2497 H   0  0  0  0  0  0  0  0  0  0  0  0
  145.1046  133.7508  150.5574 H   0  0  0  0  0  0  0  0  0  0  0  0
  145.9595  134.8201  151.6690 H   0  0  0  0  0  0  0  0  0  0  0  0
  143.3215  133.4055  152.1375 H   0  0  0  0  0  0  0  0  0  0  0  0
  144.7322  133.4121  153.1876 H   0  0  0  0  0  0  0  0  0  0  0  0
  144.3621  135.6067  153.9233 H   0  0  0  0  0  0  0  0  0  0  0  0
  141.3057  133.9092  155.2216 H   0  0  0  0  0  0  0  0  0  0  0  0
  142.9826  133.5068  154.9179 H   0  0  0  0  0  0  0  0  0  0  0  0
  148.0290  137.4363  153.5938 H   0  0  0  0  0  0  0  0  0  0  0  0
  1  2  1  0  0  0  0
  1 21  1  0  0  0  0
  1 22  1  0  0  0  0
  1 23  1  0  0  0  0
  2  3  1  0  0  0  0
  3 20  1  0  0  0  0
  3  4  2  0  0  0  0
  4  5  1  0  0  0  0
  4 24  1  0  0  0  0
  5  6  2  0  0  0  0
  5 25  1  0  0  0  0
  6  7  1  0  0  0  0
  6 19  1  0  0  0  0
  7  8  1  0  0  0  0
  7 26  1  0  0  0  0
  8  9  2  0  0  0  0
  8 10  1  0  0  0  0
 10 11  1  0  0  0  0
 10 27  1  0  0  0  0
 11 15  1  0  0  0  0
 11 12  1  0  0  0  0
 11 28  1  0  0  0  0
 12 13  1  0  0  0  0
 12 29  1  0  0  0  0
 12 30  1  0  0  0  0
 13 14  1  0  0  0  0
 13 31  1  0  0  0  0
 13 32  1  0  0  0  0
 14 15  1  0  0  0  0
 14 33  1  0  0  0  0
 14 34  1  0  0  0  0
 15 16  1  0  0  0  0
 15 35  1  0  0  0  0
 16 17  1  0  0  0  0
 16 18  2  0  0  0  0
 17 36  1  0  0  0  0
 17 37  1  0  0  0  0
 19 20  2  0  0  0  0
 19 38  1  0  0  0  0
M  END
> <s_m_source_file>
AV-unprocessed.smi

> <i_m_source_file_index>
668

> <i_lp_mmshare_version>
43012

> <i_f3d_flags>
0

> <s_epik_input>
W0NIM11PYzFbY0hdW2NIXWMoW2NIXW4xKVtOSF1DKD1PKVtOSF1bQ0BASF0yW0NIMl1bQ0gyXVtDSDJdW0NASF0yQyg9TylbTkgyXQ==

> <s_epik_cmdline>
J2VwaWtfcHl0aG9uJywgJy1waCcsICc3LjAnLCAnLXRuJywgJzgnLCAnLW1hJywgJzIwMCcsICctbWV0YWxfYmluZGluZycsICctaW1hZScsICc8aW5maWxlLm1hZT4nLCAnLW9tYWUnLCAnPG91dGZpbGUubWFlPic=

> <r_lp_tautomer_probability>
1

> <r_epik_Ionization_Penalty>
9.0916e-05

> <r_epik_Ionization_Penalty_Charging>
0

> <r_epik_Ionization_Penalty_Neutral>
9.0916e-05

> <r_epik_State_Penalty>
-0

> <r_epik_Charging_Adjusted_Penalty>
0

> <i_epik_Tot_Q>
0

> <i_epik_Tot_abs_Q>
0

> <r_epik_Metal_State_Penalty>
-0

> <b_epik_Metal_Only>
0

> <s_lp_Force_Field>
OPLS_2005

> <r_lp_Energy>
17.404

> <b_lp_Chiralities_Consistent>
1

> <s_lp_Variant>
AV-unprocessed.smi:668-4

> <Gold.Version>
5.8.1

> <Gold.Id.Protein>
6NUR|6NUR_protein|mol2

> <Gold.PLP.Fitness>
46.7717

> <Gold.PLP.PLP>
-32.1920

> <Gold.PLP.part.hbond>
-6.0000

> <Gold.PLP.part.metal>
0.0000

> <Gold.PLP.part.buried>
-2.3012

> <Gold.PLP.part.nonpolar>
-25.6164

> <Gold.PLP.part.repulsive>
1.7062

> <Gold.PLP.ligand.clash>
0.0000

> <Gold.PLP.ligand.torsion>
0.1849

> <Gold.PLP.Chemscore.Hbond>
4.1640

> <Gold.PLP.Chemscore.CHOScore>
0.8116

> <Gold.PLP.Chemscore.Metal>
0.0000

> <Gold.Chemscore.Hbonds>
donor molecule, donor type, donor heavy atom, donor atom, acceptor molecule, acceptor atom, score
      L1  H     7    26       P1 10175  1.00
      L1  H    10    27       P1 10175  1.00
      L1  H    17    36       P1 11000  0.96
      L1  H    17    37       P1 10957  0.29
      P1  H  7989  7998       L1     2  0.75
      L1  C    19    38       P1  7948  0.89

> <Gold.PLP.Chemscore.Internal.Correction>
0.0226

> <Gold.Rescore>
     Score         DG    S(hbond)    S(metal)    S(lipo)     H(rot)  DE(clash)    DE(int)     intcor
     13.07     -17.03       3.08        0.00      51.61       1.86       0.32       3.64       ----

> <Gold.Chemscore.Fitness>
13.0742

> <Gold.Chemscore.DG>
-17.0315

> <Gold.Chemscore.ZeroCoef>
-5.4800

> <Gold.Chemscore.Hbond>
3.0798

> <Gold.Chemscore.Metal>
0.0000

> <Gold.Chemscore.Lipo>
51.6139

> <Gold.Chemscore.Internal_Hbond>
0.0000

> <Gold.Chemscore.DEClash>
0.3197

> <Gold.Chemscore.DEInternal>
3.6376

> <Gold.Chemscore.Rot>
1.8648

> <Gold.Chemscore.Internal.Correction>
   9.000000E+99

> <Gold.Chemscore.Hbonds>
donor molecule, donor type, donor heavy atom, donor atom, acceptor molecule, acceptor atom, score
      L1  H     7    26       P1 10175  1.00
      L1  H    10    27       P1 10175  0.94
      L1  H    17    36       P1 11000  0.66
      L1  H    17    37       P1 10957  0.28
      P1  H  7989  7998       L1     2  0.02

> <Gold.Chemscore.Hbond.Weighted>
-10.2866

> <Gold.Chemscore.Metal.Weighted>
-0.0000

> <Gold.Chemscore.Lipo.Weighted>
-6.0388

> <Gold.Chemscore.Internal_Hbond.Weighted>
0.0000

> <Gold.Chemscore.DEClash.Weighted>
0.3197

> <Gold.Chemscore.DEInternal.Weighted>
3.6376

> <Gold.Chemscore.Rot.Weighted>
4.7739

> <Gold.Chemscore.Internal.Correction.Weighted>
   9.000000E+99

> <Gold.Protein.RotatedTorsions>
[ 6907 6896 6895 6894 ] final  114.74 input  -60.11 | X-H torsion
[ 7974 7965 7964 7962 ] final   22.98 input  175.53 | X-H torsion
[ 8008 7997 7996 7995 ] final   39.04 input   59.86 | X-H torsion
[ 10167 10162 10161 10158 ] final -163.34 input  -65.29 | X-H torsion
[ 10718 10713 10712 10709 ] final  137.53 input   66.30 | X-H torsion
[ 10763 10752 10751 10750 ] final   64.78 input  -60.55 | X-H torsion
[ 11005 11000 10999 10996 ] final -136.42 input  -57.11 | X-H torsion

> <Gold.Protein.ActiveResidues>
 VAL166  LYS551  ARG553  GLY616  TRP617  ASP618  TYR619  PRO620  LYS621  CYS622 
 ASP623  PHE694  ASN695  SER759  ASP760  ASP761  ALA762  ILE779  LEU786  VAL792 
 PHE793  MET794  SER795  GLU796  ALA797  LYS798  CYS799  TRP800  GLU811  SER814 

> <Gold.Protein.RotatedAtoms>
  152.4784  133.8195  159.7045 H   0  0  0  0  0  0  0  0  0  0  0  0  # atno 6907 bound_to 6896
  150.8817  133.7354  159.2937 H   0  0  0  0  0  0  0  0  0  0  0  0  # atno 6908 bound_to 6896
  151.4856  135.1058  159.9841 H   0  0  0  0  0  0  0  0  0  0  0  0  # atno 6909 bound_to 6896
  146.2005  139.7809  142.8765 H   0  0  0  0  0  0  0  0  0  0  0  0  # atno 7974 bound_to 7965
  155.2300  140.3337  155.4304 H   0  0  0  0  0  0  0  0  0  0  0  0  # atno 8008 bound_to 7997
  156.2299  140.1846  156.7316 H   0  0  0  0  0  0  0  0  0  0  0  0  # atno 8009 bound_to 7997
  154.5960  140.0630  156.9289 H   0  0  0  0  0  0  0  0  0  0  0  0  # atno 8010 bound_to 7997
  139.6327  144.0408  152.2029 H   0  0  0  0  0  0  0  0  0  0  0  0  # atno 10167 bound_to 10162
  157.4351  131.1052  151.0206 H   0  0  0  0  0  0  0  0  0  0  0  0  # atno 10718 bound_to 10713
  153.0069  135.5381  154.6563 H   0  0  0  0  0  0  0  0  0  0  0  0  # atno 10763 bound_to 10752
  154.5783  135.2847  155.0760 H   0  0  0  0  0  0  0  0  0  0  0  0  # atno 10764 bound_to 10752
  154.1899  135.6502  153.5110 H   0  0  0  0  0  0  0  0  0  0  0  0  # atno 10765 bound_to 10752
  140.8807  134.1935  157.4593 H   0  0  0  0  0  0  0  0  0  0  0  0  # atno 11005 bound_to 11000
  145.3500  141.0305  143.3344 LP  0  0  0  0  0  0  0  0  0  0  0  0  # atno 17320 bound_to 7965
  144.8672  139.5090  143.6784 LP  0  0  0  0  0  0  0  0  0  0  0  0  # atno 17321 bound_to 7965
  140.0077  144.6246  150.7674 LP  0  0  0  0  0  0  0  0  0  0  0  0  # atno 17342 bound_to 10162
  140.7448  143.2866  151.3445 LP  0  0  0  0  0  0  0  0  0  0  0  0  # atno 17343 bound_to 10162
  157.1089  130.6013  149.5477 LP  0  0  0  0  0  0  0  0  0  0  0  0  # atno 17370 bound_to 10713
  155.9927  130.4986  150.7353 LP  0  0  0  0  0  0  0  0  0  0  0  0  # atno 17371 bound_to 10713
  139.8719  134.9816  156.5122 LP  0  0  0  0  0  0  0  0  0  0  0  0  # atno 17394 bound_to 11000
  140.8464  133.8165  155.9126 LP  0  0  0  0  0  0  0  0  0  0  0  0  # atno 17395 bound_to 11000

$$$$
