AV-unprocessed.smi:788|AV-procd|sdf|3734|dock2
  -GOLD-   22720 1173D 1   1.00000     0.00000
 Structure written by MMmdl.
 35 36  0  0  0  0  0  0  0  0  1 V2000
  144.6823  135.6186  150.4896 C   0  0  0  0  0  0  0  0  0  0  0  0
  144.4529  134.9254  151.8494 C   0  0  1  0  0  0  0  0  0  0  0  0
  143.6009  133.6487  151.7061 C   0  0  0  0  0  0  0  0  0  0  0  0
  144.3903  132.4902  151.0773 C   0  0  0  0  0  0  0  0  0  0  0  0
  145.6734  132.1998  151.8688 C   0  0  0  0  0  0  0  0  0  0  0  0
  146.5623  133.4515  152.0069 C   0  0  2  0  0  0  0  0  0  0  0  0
  147.8383  133.1174  152.8014 C   0  0  0  0  0  0  0  0  0  0  0  0
  145.7587  134.6204  152.6336 C   0  0  1  0  0  0  0  0  0  0  0  0
  146.5963  135.8132  152.7459 N   0  0  0  0  0  0  0  0  0  0  0  0
  146.2758  136.9451  153.3936 C   0  0  0  0  0  0  0  0  0  0  0  0
  145.2067  137.0938  153.9825 O   0  0  0  0  0  0  0  0  0  0  0  0
  147.1981  137.9311  153.3689 N   0  0  0  0  0  0  0  0  0  0  0  0
  147.2054  139.2408  153.9331 C   0  0  0  0  0  0  0  0  0  0  0  0
  146.1175  139.8832  154.3897 N   0  0  0  0  0  0  0  0  0  0  0  0
  146.4231  141.1425  154.8878 N   0  0  0  0  0  0  0  0  0  0  0  0
  147.7298  141.4024  154.7922 C   0  0  0  0  0  0  0  0  0  0  0  0
  148.7128  140.1338  154.0826 S   0  0  0  0  0  0  0  0  0  0  0  0
  145.2949  135.0158  149.8202 H   0  0  0  0  0  0  0  0  0  0  0  0
  145.1763  136.5830  150.6088 H   0  0  0  0  0  0  0  0  0  0  0  0
  143.7343  135.8075  149.9857 H   0  0  0  0  0  0  0  0  0  0  0  0
  143.8680  135.6246  152.4489 H   0  0  0  0  0  0  0  0  0  0  0  0
  143.2488  133.3424  152.6920 H   0  0  0  0  0  0  0  0  0  0  0  0
  142.7061  133.8542  151.1175 H   0  0  0  0  0  0  0  0  0  0  0  0
  143.7681  131.5957  151.0443 H   0  0  0  0  0  0  0  0  0  0  0  0
  144.6406  132.7258  150.0426 H   0  0  0  0  0  0  0  0  0  0  0  0
  145.4097  131.8262  152.8592 H   0  0  0  0  0  0  0  0  0  0  0  0
  146.2287  131.4004  151.3771 H   0  0  0  0  0  0  0  0  0  0  0  0
  146.8783  133.7472  151.0057 H   0  0  0  0  0  0  0  0  0  0  0  0
  147.6037  132.8503  153.8322 H   0  0  0  0  0  0  0  0  0  0  0  0
  148.5323  133.9580  152.8242 H   0  0  0  0  0  0  0  0  0  0  0  0
  148.3683  132.2764  152.3537 H   0  0  0  0  0  0  0  0  0  0  0  0
  145.4773  134.3095  153.6420 H   0  0  0  0  0  0  0  0  0  0  0  0
  147.4960  135.7759  152.2879 H   0  0  0  0  0  0  0  0  0  0  0  0
  148.0425  137.6930  152.8693 H   0  0  0  0  0  0  0  0  0  0  0  0
  148.1181  142.3476  155.1414 H   0  0  0  0  0  0  0  0  0  0  0  0
  1  2  1  0  0  0  0
  1 18  1  0  0  0  0
  1 19  1  0  0  0  0
  1 20  1  0  0  0  0
  2  8  1  0  0  0  0
  2  3  1  0  0  0  0
  2 21  1  0  0  0  0
  3  4  1  0  0  0  0
  3 22  1  0  0  0  0
  3 23  1  0  0  0  0
  4  5  1  0  0  0  0
  4 24  1  0  0  0  0
  4 25  1  0  0  0  0
  5  6  1  0  0  0  0
  5 26  1  0  0  0  0
  5 27  1  0  0  0  0
  6  7  1  0  0  0  0
  6  8  1  0  0  0  0
  6 28  1  0  0  0  0
  7 29  1  0  0  0  0
  7 30  1  0  0  0  0
  7 31  1  0  0  0  0
  8  9  1  0  0  0  0
  8 32  1  0  0  0  0
  9 10  1  0  0  0  0
  9 33  1  0  0  0  0
 10 11  2  0  0  0  0
 10 12  1  0  0  0  0
 12 13  1  0  0  0  0
 12 34  1  0  0  0  0
 13 17  1  0  0  0  0
 13 14  2  0  0  0  0
 14 15  1  0  0  0  0
 15 16  2  0  0  0  0
 16 17  1  0  0  0  0
 16 35  1  0  0  0  0
M  END
> <s_m_source_file>
AV-unprocessed.smi

> <i_m_source_file_index>
788

> <i_lp_mmshare_version>
43012

> <i_f3d_flags>
0

> <s_epik_input>
W0NIM11bQ0BASF0xW0NIMl1bQ0gyXVtDSDJdW0NAQEhdKFtDSDNdKVtDQEhdMVtOSF1DKD1PKVtOSF1jMm5uW2NIXXMy

> <s_epik_cmdline>
J2VwaWtfcHl0aG9uJywgJy1waCcsICc3LjAnLCAnLXRuJywgJzgnLCAnLW1hJywgJzIwMCcsICctbWV0YWxfYmluZGluZycsICctaW1hZScsICc8aW5maWxlLm1hZT4nLCAnLW9tYWUnLCAnPG91dGZpbGUubWFlPic=

> <r_lp_tautomer_probability>
1

> <r_epik_Ionization_Penalty>
0.000304078

> <r_epik_Ionization_Penalty_Charging>
0

> <r_epik_Ionization_Penalty_Neutral>
0.000304078

> <r_epik_State_Penalty>
-0

> <r_epik_Charging_Adjusted_Penalty>
0

> <i_epik_Tot_Q>
0

> <i_epik_Tot_abs_Q>
0

> <r_epik_Metal_State_Penalty>
0.164801

> <b_epik_Metal_Only>
0

> <s_lp_Force_Field>
OPLS_2005

> <r_lp_Energy>
15.5702

> <b_lp_Chiralities_Consistent>
1

> <s_lp_Variant>
AV-unprocessed.smi:788-4

> <Gold.Version>
5.8.1

> <Gold.Id.Protein>
6NUR|6NUR_protein|mol2

> <Gold.PLP.Fitness>
33.4903

> <Gold.PLP.PLP>
-24.9903

> <Gold.PLP.part.hbond>
-2.0000

> <Gold.PLP.part.metal>
0.0000

> <Gold.PLP.part.buried>
-2.0265

> <Gold.PLP.part.nonpolar>
-21.6870

> <Gold.PLP.part.repulsive>
0.3459

> <Gold.PLP.ligand.clash>
0.0000

> <Gold.PLP.ligand.torsion>
0.1013

> <Gold.PLP.Chemscore.Hbond>
1.8960

> <Gold.PLP.Chemscore.CHOScore>
1.0000

> <Gold.PLP.Chemscore.Metal>
0.0000

> <Gold.Chemscore.Hbonds>
donor molecule, donor type, donor heavy atom, donor atom, acceptor molecule, acceptor atom, score
      L1  H     9    33       P1  7948  1.00
      L1  H    12    34       P1  7948  0.90
      L1  C    16    35       P1  8028  1.00

> <Gold.PLP.Chemscore.Internal.Correction>
0.0145

> <Gold.Rescore>
     Score         DG    S(hbond)    S(metal)    S(lipo)     H(rot)  DE(clash)    DE(int)     intcor
     14.72     -16.08       1.89        0.00      58.53       1.00       0.10       1.26       ----

> <Gold.Chemscore.Fitness>
14.7210

> <Gold.Chemscore.DG>
-16.0809

> <Gold.Chemscore.ZeroCoef>
-5.4800

> <Gold.Chemscore.Hbond>
1.8901

> <Gold.Chemscore.Metal>
0.0000

> <Gold.Chemscore.Lipo>
58.5293

> <Gold.Chemscore.Internal_Hbond>
0.0000

> <Gold.Chemscore.DEClash>
0.1009

> <Gold.Chemscore.DEInternal>
1.2590

> <Gold.Chemscore.Rot>
1.0000

> <Gold.Chemscore.Internal.Correction>
   9.000000E+99

> <Gold.Chemscore.Hbonds>
donor molecule, donor type, donor heavy atom, donor atom, acceptor molecule, acceptor atom, score
      L1  H     9    33       P1  7948  0.96
      L1  H    12    34       P1  7948  0.84

> <Gold.Chemscore.Hbond.Weighted>
-6.3130

> <Gold.Chemscore.Metal.Weighted>
-0.0000

> <Gold.Chemscore.Lipo.Weighted>
-6.8479

> <Gold.Chemscore.Internal_Hbond.Weighted>
0.0000

> <Gold.Chemscore.DEClash.Weighted>
0.1009

> <Gold.Chemscore.DEInternal.Weighted>
1.2590

> <Gold.Chemscore.Rot.Weighted>
2.5600

> <Gold.Chemscore.Internal.Correction.Weighted>
   9.000000E+99

> <Gold.Protein.RotatedTorsions>
[ 6907 6896 6895 6894 ] final   64.43 input  -60.11 | X-H torsion
[ 7974 7965 7964 7962 ] final   30.94 input  175.53 | X-H torsion
[ 8008 7997 7996 7995 ] final   -3.39 input   59.86 | X-H torsion
[ 10167 10162 10161 10158 ] final   45.24 input  -65.29 | X-H torsion
[ 10718 10713 10712 10709 ] final  -12.23 input   66.30 | X-H torsion
[ 10763 10752 10751 10750 ] final -153.69 input  -60.55 | X-H torsion
[ 11005 11000 10999 10996 ] final   53.94 input  -57.11 | X-H torsion

> <Gold.Protein.ActiveResidues>
 VAL166  LYS551  ARG553  GLY616  TRP617  ASP618  TYR619  PRO620  LYS621  CYS622 
 ASP623  PHE694  ASN695  SER759  ASP760  ASP761  ALA762  ILE779  LEU786  VAL792 
 PHE793  MET794  SER795  GLU796  ALA797  LYS798  CYS799  TRP800  GLU811  SER814 

> <Gold.Protein.RotatedAtoms>
  152.4331  134.5740  159.9928 H   0  0  0  0  0  0  0  0  0  0  0  0  # atno 6907 bound_to 6896
  151.5858  133.3366  159.3025 H   0  0  0  0  0  0  0  0  0  0  0  0  # atno 6908 bound_to 6896
  150.8226  134.7476  159.6850 H   0  0  0  0  0  0  0  0  0  0  0  0  # atno 6909 bound_to 6896
  146.1581  139.6721  142.9053 H   0  0  0  0  0  0  0  0  0  0  0  0  # atno 7974 bound_to 7965
  154.6254  140.2510  155.7498 H   0  0  0  0  0  0  0  0  0  0  0  0  # atno 8008 bound_to 7997
  156.2450  140.2918  156.0501 H   0  0  0  0  0  0  0  0  0  0  0  0  # atno 8009 bound_to 7997
  155.1830  140.0389  157.2876 H   0  0  0  0  0  0  0  0  0  0  0  0  # atno 8010 bound_to 7997
  140.3262  144.2645  150.6175 H   0  0  0  0  0  0  0  0  0  0  0  0  # atno 10167 bound_to 10162
  156.6476  130.4946  149.6073 H   0  0  0  0  0  0  0  0  0  0  0  0  # atno 10718 bound_to 10713
  154.7910  135.3207  154.7777 H   0  0  0  0  0  0  0  0  0  0  0  0  # atno 10763 bound_to 10752
  153.8466  135.6866  153.4801 H   0  0  0  0  0  0  0  0  0  0  0  0  # atno 10764 bound_to 10752
  153.1580  135.4672  154.9673 H   0  0  0  0  0  0  0  0  0  0  0  0  # atno 10765 bound_to 10752
  140.0726  134.5448  155.9030 H   0  0  0  0  0  0  0  0  0  0  0  0  # atno 11005 bound_to 11000
  145.4658  141.0434  143.2726 LP  0  0  0  0  0  0  0  0  0  0  0  0  # atno 17320 bound_to 7965
  144.7989  139.6179  143.7080 LP  0  0  0  0  0  0  0  0  0  0  0  0  # atno 17321 bound_to 7965
  140.5439  143.2218  151.8039 LP  0  0  0  0  0  0  0  0  0  0  0  0  # atno 17342 bound_to 10162
  139.4865  144.4565  151.9593 LP  0  0  0  0  0  0  0  0  0  0  0  0  # atno 17343 bound_to 10162
  156.2109  130.6678  151.1269 LP  0  0  0  0  0  0  0  0  0  0  0  0  # atno 17370 bound_to 10713
  157.7151  131.0714  150.6357 LP  0  0  0  0  0  0  0  0  0  0  0  0  # atno 17371 bound_to 10713
  141.2018  133.6620  156.5969 LP  0  0  0  0  0  0  0  0  0  0  0  0  # atno 17394 bound_to 11000
  140.3604  134.7692  157.4530 LP  0  0  0  0  0  0  0  0  0  0  0  0  # atno 17395 bound_to 11000

$$$$
