AV-unprocessed.smi:3070|AV-procd|sdf|11712|dock1
  -GOLD-   2272017113D 1   1.00000     0.00000
 Structure written by MMmdl.
 21 22  0  0  0  0  0  0  0  0  2 V2000
  153.6263  141.7275  161.6978 C   0  0  0  0  0  0  0  0  0  0  0  0
  153.7284  140.9237  160.5983 N   0  0  0  0  0  0  0  0  0  0  0  0
  153.1144  141.6883  159.7064 C   0  0  0  0  0  0  0  0  0  0  0  0
  152.6769  142.8489  160.1985 N   0  0  0  0  0  0  0  0  0  0  0  0
  151.9697  143.9382  159.5419 C   0  0  1  0  0  0  0  0  0  0  0  0
  152.7133  144.5326  158.3462 C   0  0  0  0  0  0  0  0  0  0  0  0
  151.6000  145.2503  157.5816 C   0  0  0  0  0  0  0  0  0  0  0  0
  150.3601  144.4920  157.8467 N   0  3  0  0  0  0  0  0  0  0  0  0
  150.6201  143.5312  158.9374 C   0  0  0  0  0  0  0  0  0  0  0  0
  153.0057  142.8929  161.5128 N   0  0  0  0  0  0  0  0  0  0  0  0
  154.0215  141.4460  162.6628 H   0  0  0  0  0  0  0  0  0  0  0  0
  152.9831  141.3962  158.6747 H   0  0  0  0  0  0  0  0  0  0  0  0
  151.8018  144.7289  160.2754 H   0  0  0  0  0  0  0  0  0  0  0  0
  153.5233  145.2012  158.6395 H   0  0  0  0  0  0  0  0  0  0  0  0
  153.1372  143.7468  157.7192 H   0  0  0  0  0  0  0  0  0  0  0  0
  151.4730  146.2622  157.9682 H   0  0  0  0  0  0  0  0  0  0  0  0
  151.8054  145.3221  156.5132 H   0  0  0  0  0  0  0  0  0  0  0  0
  149.6277  145.1330  158.1166 H   0  0  0  0  0  0  0  0  0  0  0  0
  150.6651  142.5342  158.4977 H   0  0  0  0  0  0  0  0  0  0  0  0
  149.8163  143.5351  159.6739 H   0  0  0  0  0  0  0  0  0  0  0  0
  150.0798  143.9859  157.0187 H   0  0  0  0  0  0  0  0  0  0  0  0
  1 10  2  0  0  0  0
  1  2  1  0  0  0  0
  1 11  1  0  0  0  0
  2  3  2  0  0  0  0
  3  4  1  0  0  0  0
  3 12  1  0  0  0  0
  4  5  1  0  0  0  0
  4 10  1  0  0  0  0
  5  9  1  0  0  0  0
  5  6  1  0  0  0  0
  5 13  1  0  0  0  0
  6  7  1  0  0  0  0
  6 14  1  0  0  0  0
  6 15  1  0  0  0  0
  7  8  1  0  0  0  0
  7 16  1  0  0  0  0
  7 17  1  0  0  0  0
  8  9  1  0  0  0  0
  8 18  1  0  0  0  0
  8 21  1  0  0  0  0
  9 19  1  0  0  0  0
  9 20  1  0  0  0  0
M  CHG  1   8   1
M  END
> <s_m_source_file>
AV-unprocessed.smi

> <i_m_source_file_index>
3070

> <i_lp_mmshare_version>
43012

> <i_f3d_flags>
0

> <s_epik_input>
bjFbY0hdbltjSF1uMVtDQEBIXTJbQ0gyXVtDSDJdW05IXVtDSDJdMg==

> <s_epik_cmdline>
J2VwaWtfcHl0aG9uJywgJy1waCcsICc3LjAnLCAnLXRuJywgJzgnLCAnLW1hJywgJzIwMCcsICctbWV0YWxfYmluZGluZycsICctaW1hZScsICc8aW5maWxlLm1hZT4nLCAnLW9tYWUnLCAnPG91dGZpbGUubWFlPic=

> <r_lp_tautomer_probability>
1

> <r_epik_Ionization_Penalty>
0.000421274

> <r_epik_Ionization_Penalty_Charging>
0.000420295

> <r_epik_Ionization_Penalty_Neutral>
9.79543e-07

> <r_epik_State_Penalty>
0.000258452

> <r_epik_Charging_Adjusted_Penalty>
0.000678746

> <i_epik_Tot_Q>
1

> <i_epik_Tot_abs_Q>
1

> <r_epik_Metal_State_Penalty>
-0

> <b_epik_Metal_Only>
0

> <s_lp_Force_Field>
OPLS_2005

> <r_lp_Energy>
29.098

> <b_lp_Chiralities_Consistent>
1

> <s_lp_Variant>
AV-unprocessed.smi:3070-2

> <Gold.Version>
5.8.1

> <Gold.Id.Protein>
6NUR|6NUR_protein|mol2

> <Gold.PLP.Fitness>
31.5712

> <Gold.PLP.PLP>
-24.8553

> <Gold.PLP.part.hbond>
-2.0000

> <Gold.PLP.part.metal>
0.0000

> <Gold.PLP.part.buried>
-2.6266

> <Gold.PLP.part.nonpolar>
-20.2571

> <Gold.PLP.part.repulsive>
0.1512

> <Gold.PLP.ligand.clash>
0.0000

> <Gold.PLP.ligand.torsion>
0.0048

> <Gold.PLP.Chemscore.Hbond>
2.2402

> <Gold.PLP.Chemscore.CHOScore>
0.0000

> <Gold.PLP.Chemscore.Metal>
0.0000

> <Gold.Chemscore.Hbonds>
donor molecule, donor type, donor heavy atom, donor atom, acceptor molecule, acceptor atom, score
      L1  H     8    18       P1  8029  1.34
      L1  H     8    21       P1  8028  0.90

> <Gold.PLP.Chemscore.Internal.Correction>
0.0050

> <Gold.Rescore>
     Score         DG    S(hbond)    S(metal)    S(lipo)     H(rot)  DE(clash)    DE(int)     intcor
      9.56     -11.30       0.78        0.00      49.42       1.00       1.73       0.00       ----

> <Gold.Chemscore.Fitness>
9.5636

> <Gold.Chemscore.DG>
-11.3001

> <Gold.Chemscore.ZeroCoef>
-5.4800

> <Gold.Chemscore.Hbond>
0.7777

> <Gold.Chemscore.Metal>
0.0000

> <Gold.Chemscore.Lipo>
49.4234

> <Gold.Chemscore.Internal_Hbond>
0.0000

> <Gold.Chemscore.DEClash>
1.7331

> <Gold.Chemscore.DEInternal>
0.0033

> <Gold.Chemscore.Rot>
1.0000

> <Gold.Chemscore.Internal.Correction>
   9.000000E+99

> <Gold.Chemscore.Hbonds>
donor molecule, donor type, donor heavy atom, donor atom, acceptor molecule, acceptor atom, score
      L1  H     8    18       P1  8029  0.16
      L1  H     8    21       P1  8028  0.41

> <Gold.Chemscore.Hbond.Weighted>
-2.5975

> <Gold.Chemscore.Metal.Weighted>
-0.0000

> <Gold.Chemscore.Lipo.Weighted>
-5.7825

> <Gold.Chemscore.Internal_Hbond.Weighted>
0.0000

> <Gold.Chemscore.DEClash.Weighted>
1.7331

> <Gold.Chemscore.DEInternal.Weighted>
0.0033

> <Gold.Chemscore.Rot.Weighted>
2.5600

> <Gold.Chemscore.Internal.Correction.Weighted>
   9.000000E+99

> <Gold.Protein.RotatedTorsions>
[ 6907 6896 6895 6894 ] final  -80.96 input  -60.11 | X-H torsion
[ 7974 7965 7964 7962 ] final  138.56 input  175.53 | X-H torsion
[ 8008 7997 7996 7995 ] final   63.78 input   59.86 | X-H torsion
[ 10167 10162 10161 10158 ] final   -5.65 input  -65.29 | X-H torsion
[ 10718 10713 10712 10709 ] final   61.85 input   66.30 | X-H torsion
[ 10763 10752 10751 10750 ] final  137.46 input  -60.55 | X-H torsion
[ 11005 11000 10999 10996 ] final  107.02 input  -57.11 | X-H torsion

> <Gold.Protein.ActiveResidues>
 VAL166  LYS551  ARG553  GLY616  TRP617  ASP618  TYR619  PRO620  LYS621  CYS622 
 ASP623  PHE694  ASN695  SER759  ASP760  ASP761  ALA762  ILE779  LEU786  VAL792 
 PHE793  MET794  SER795  GLU796  ALA797  LYS798  CYS799  TRP800  GLU811  SER814 

> <Gold.Protein.RotatedAtoms>
  150.6920  134.3890  159.5067 H   0  0  0  0  0  0  0  0  0  0  0  0  # atno 6907 bound_to 6896
  152.1681  134.8854  160.0545 H   0  0  0  0  0  0  0  0  0  0  0  0  # atno 6908 bound_to 6896
  151.9890  133.3749  159.4174 H   0  0  0  0  0  0  0  0  0  0  0  0  # atno 6909 bound_to 6896
  144.9361  139.4988  143.5594 H   0  0  0  0  0  0  0  0  0  0  0  0  # atno 7974 bound_to 7965
  155.6357  140.3496  155.4698 H   0  0  0  0  0  0  0  0  0  0  0  0  # atno 8008 bound_to 7997
  155.9967  140.1205  157.0610 H   0  0  0  0  0  0  0  0  0  0  0  0  # atno 8009 bound_to 7997
  154.4236  140.1108  156.5626 H   0  0  0  0  0  0  0  0  0  0  0  0  # atno 8010 bound_to 7997
  140.6970  143.6284  150.8546 H   0  0  0  0  0  0  0  0  0  0  0  0  # atno 10167 bound_to 10162
  157.5858  130.9018  149.9514 H   0  0  0  0  0  0  0  0  0  0  0  0  # atno 10718 bound_to 10713
  153.8735  135.3053  155.3443 H   0  0  0  0  0  0  0  0  0  0  0  0  # atno 10763 bound_to 10752
  154.7795  135.4843  153.9817 H   0  0  0  0  0  0  0  0  0  0  0  0  # atno 10764 bound_to 10752
  153.1392  135.6820  153.9150 H   0  0  0  0  0  0  0  0  0  0  0  0  # atno 10765 bound_to 10752
  139.8822  134.9388  156.5756 H   0  0  0  0  0  0  0  0  0  0  0  0  # atno 11005 bound_to 11000
  146.3267  139.8346  142.8902 LP  0  0  0  0  0  0  0  0  0  0  0  0  # atno 17320 bound_to 7965
  145.3065  141.0208  143.3579 LP  0  0  0  0  0  0  0  0  0  0  0  0  # atno 17321 bound_to 7965
  140.0002  143.5752  152.2878 LP  0  0  0  0  0  0  0  0  0  0  0  0  # atno 17342 bound_to 10162
  139.6439  144.7657  151.2284 LP  0  0  0  0  0  0  0  0  0  0  0  0  # atno 17343 bound_to 10162
  156.0907  130.3663  150.0400 LP  0  0  0  0  0  0  0  0  0  0  0  0  # atno 17370 bound_to 10713
  156.8531  130.9466  151.3624 LP  0  0  0  0  0  0  0  0  0  0  0  0  # atno 17371 bound_to 10713
  140.8065  133.8463  155.8772 LP  0  0  0  0  0  0  0  0  0  0  0  0  # atno 17394 bound_to 11000
  140.9545  134.1736  157.4702 LP  0  0  0  0  0  0  0  0  0  0  0  0  # atno 17395 bound_to 11000

$$$$
