AV-unprocessed.smi:1005|AV-procd|sdf|4365|dock2
  -GOLD-   22720 2263D 1   1.00000     0.00000
 Structure written by MMmdl.
 56 58  0  0  0  0  0  0  0  0  2 V2000
  151.8019  145.3352  160.3332 C   0  0  0  0  0  0  0  0  0  0  0  0
  151.7745  144.0764  159.4840 C   0  0  0  0  0  0  0  0  0  0  0  0
  151.1329  144.1105  158.2254 C   0  0  0  0  0  0  0  0  0  0  0  0
  151.0844  142.9616  157.4059 C   0  0  0  0  0  0  0  0  0  0  0  0
  150.5179  142.7722  156.1569 N   0  0  0  0  0  0  0  0  0  0  0  0
  150.8037  141.4943  155.9246 C   0  0  0  0  0  0  0  0  0  0  0  0
  151.4885  140.8322  156.8764 N   0  0  0  0  0  0  0  0  0  0  0  0
  151.9072  139.4419  156.8416 C   0  0  0  0  0  0  0  0  0  0  0  0
  152.0114  138.8916  155.4063 C   0  0  1  0  0  0  0  0  0  0  0  0
  153.2060  139.3609  154.8108 O   0  0  0  0  0  0  0  0  0  0  0  0
  152.0257  137.3491  155.3949 C   0  0  0  0  0  0  0  0  0  0  0  0
  150.7681  136.6981  155.7686 N   0  0  0  0  0  0  0  0  0  0  0  0
  150.7747  136.2030  157.1435 C   0  0  0  0  0  0  0  0  0  0  0  0
  149.4630  135.4844  157.4994 C   0  0  0  0  0  0  0  0  0  0  0  0
  149.2284  134.4357  156.5663 O   0  0  0  0  0  0  0  0  0  0  0  0
  149.1365  134.8945  155.2200 C   0  0  2  0  0  0  0  0  0  0  0  0
  148.8582  133.6927  154.2963 C   0  0  0  0  0  0  0  0  0  0  0  0
  147.9132  134.0038  153.1919 N   0  3  0  0  0  0  0  0  0  0  0  0
  146.6699  134.6720  153.6409 C   0  0  0  0  0  0  0  0  0  0  0  0
  147.6173  132.8105  152.3678 C   0  0  0  0  0  0  0  0  0  0  0  0
  150.4689  135.5889  154.8692 C   0  0  0  0  0  0  0  0  0  0  0  0
  151.6997  141.7676  157.8839 C   0  0  0  0  0  0  0  0  0  0  0  0
  152.3427  141.7219  159.1336 C   0  0  0  0  0  0  0  0  0  0  0  0
  152.3823  142.8790  159.9395 C   0  0  0  0  0  0  0  0  0  0  0  0
  153.0792  142.8195  161.2872 C   0  0  0  0  0  0  0  0  0  0  0  0
  151.2863  146.1600  159.8405 H   0  0  0  0  0  0  0  0  0  0  0  0
  152.8297  145.6473  160.5199 H   0  0  0  0  0  0  0  0  0  0  0  0
  151.3129  145.1602  161.2919 H   0  0  0  0  0  0  0  0  0  0  0  0
  150.6712  145.0227  157.8771 H   0  0  0  0  0  0  0  0  0  0  0  0
  150.4983  141.0101  155.0084 H   0  0  0  0  0  0  0  0  0  0  0  0
  152.8627  139.3505  157.3595 H   0  0  0  0  0  0  0  0  0  0  0  0
  151.1868  138.8575  157.4155 H   0  0  0  0  0  0  0  0  0  0  0  0
  151.1687  139.2760  154.8332 H   0  0  0  0  0  0  0  0  0  0  0  0
  153.4666  138.7522  154.1371 H   0  0  0  0  0  0  0  0  0  0  0  0
  152.3159  137.0236  154.3947 H   0  0  0  0  0  0  0  0  0  0  0  0
  152.8166  136.9957  156.0584 H   0  0  0  0  0  0  0  0  0  0  0  0
  151.6113  135.5174  157.2861 H   0  0  0  0  0  0  0  0  0  0  0  0
  150.9185  137.0229  157.8454 H   0  0  0  0  0  0  0  0  0  0  0  0
  149.5215  135.0625  158.5027 H   0  0  0  0  0  0  0  0  0  0  0  0
  148.6242  136.1823  157.4928 H   0  0  0  0  0  0  0  0  0  0  0  0
  148.3231  135.6174  155.1302 H   0  0  0  0  0  0  0  0  0  0  0  0
  149.8050  133.3976  153.8416 H   0  0  0  0  0  0  0  0  0  0  0  0
  148.5133  132.8299  154.8682 H   0  0  0  0  0  0  0  0  0  0  0  0
  146.1496  134.0721  154.3886 H   0  0  0  0  0  0  0  0  0  0  0  0
  145.9919  134.8298  152.8015 H   0  0  0  0  0  0  0  0  0  0  0  0
  146.8780  135.6527  154.0665 H   0  0  0  0  0  0  0  0  0  0  0  0
  147.1141  132.0433  152.9581 H   0  0  0  0  0  0  0  0  0  0  0  0
  148.5334  132.3825  151.9592 H   0  0  0  0  0  0  0  0  0  0  0  0
  146.9746  133.0711  151.5261 H   0  0  0  0  0  0  0  0  0  0  0  0
  150.4225  135.9556  153.8430 H   0  0  0  0  0  0  0  0  0  0  0  0
  151.2791  134.8583  154.9015 H   0  0  0  0  0  0  0  0  0  0  0  0
  152.8025  140.8039  159.4682 H   0  0  0  0  0  0  0  0  0  0  0  0
  153.5033  141.8321  161.4722 H   0  0  0  0  0  0  0  0  0  0  0  0
  152.3753  143.0373  162.0906 H   0  0  0  0  0  0  0  0  0  0  0  0
  153.8914  143.5456  161.3308 H   0  0  0  0  0  0  0  0  0  0  0  0
  148.3862  134.6533  152.5795 H   0  0  0  0  0  0  0  0  0  0  0  0
  1  2  1  0  0  0  0
  1 26  1  0  0  0  0
  1 27  1  0  0  0  0
  1 28  1  0  0  0  0
  2 24  1  0  0  0  0
  2  3  2  0  0  0  0
  3  4  1  0  0  0  0
  3 29  1  0  0  0  0
  4 22  2  0  0  0  0
  4  5  1  0  0  0  0
  5  6  2  0  0  0  0
  6  7  1  0  0  0  0
  6 30  1  0  0  0  0
  7  8  1  0  0  0  0
  7 22  1  0  0  0  0
  8  9  1  0  0  0  0
  8 31  1  0  0  0  0
  8 32  1  0  0  0  0
  9 10  1  0  0  0  0
  9 11  1  0  0  0  0
  9 33  1  0  0  0  0
 10 34  1  0  0  0  0
 11 12  1  0  0  0  0
 11 35  1  0  0  0  0
 11 36  1  0  0  0  0
 12 21  1  0  0  0  0
 12 13  1  0  0  0  0
 13 14  1  0  0  0  0
 13 37  1  0  0  0  0
 13 38  1  0  0  0  0
 14 15  1  0  0  0  0
 14 39  1  0  0  0  0
 14 40  1  0  0  0  0
 15 16  1  0  0  0  0
 16 17  1  0  0  0  0
 16 21  1  0  0  0  0
 16 41  1  0  0  0  0
 17 18  1  0  0  0  0
 17 42  1  0  0  0  0
 17 43  1  0  0  0  0
 18 19  1  0  0  0  0
 18 20  1  0  0  0  0
 18 56  1  0  0  0  0
 19 44  1  0  0  0  0
 19 45  1  0  0  0  0
 19 46  1  0  0  0  0
 20 47  1  0  0  0  0
 20 48  1  0  0  0  0
 20 49  1  0  0  0  0
 21 50  1  0  0  0  0
 21 51  1  0  0  0  0
 22 23  1  0  0  0  0
 23 24  2  0  0  0  0
 23 52  1  0  0  0  0
 24 25  1  0  0  0  0
 25 53  1  0  0  0  0
 25 54  1  0  0  0  0
 25 55  1  0  0  0  0
M  CHG  1  18   1
M  END
> <s_m_source_file>
AV-unprocessed.smi

> <i_m_source_file_index>
1005

> <i_lp_mmshare_version>
43012

> <i_f3d_flags>
0

> <s_epik_input>
W0NIM11jKFtjSF0xKWMoW0NIM10pW2NIXWMoYzEyKW4oW2NIXW4yKVtDSDJdW0NASF0oW09IXSlbQ0gyXU4zW0NIMl1bQ0gyXU9bQ0BIXShbQ0gyXTMpW0NIMl1OKFtDSDNdKVtDSDNd

> <s_epik_cmdline>
J2VwaWtfcHl0aG9uJywgJy1waCcsICc3LjAnLCAnLXRuJywgJzgnLCAnLW1hJywgJzIwMCcsICctbWV0YWxfYmluZGluZycsICctaW1hZScsICc8aW5maWxlLm1hZT4nLCAnLW9tYWUnLCAnPG91dGZpbGUubWFlPic=

> <r_epik_Ionization_Penalty>
0.226781

> <r_epik_Ionization_Penalty_Charging>
0.00915946

> <r_epik_Ionization_Penalty_Neutral>
0.217622

> <r_epik_State_Penalty>
0.173018

> <r_epik_Charging_Adjusted_Penalty>
0.182178

> <i_epik_Tot_Q>
1

> <i_epik_Tot_abs_Q>
1

> <r_epik_Metal_State_Penalty>
0.0905268

> <b_epik_Metal_Only>
0

> <s_lp_Force_Field>
OPLS_2005

> <r_lp_Energy>
38.1997

> <b_lp_Chiralities_Consistent>
1

> <s_lp_Variant>
AV-unprocessed.smi:1005-4

> <Gold.Version>
5.8.1

> <Gold.Id.Protein>
6NUR|6NUR_protein|mol2

> <Gold.PLP.Fitness>
51.1991

> <Gold.PLP.PLP>
-45.4701

> <Gold.PLP.part.hbond>
-2.6413

> <Gold.PLP.part.metal>
0.0000

> <Gold.PLP.part.buried>
-4.7843

> <Gold.PLP.part.nonpolar>
-41.4274

> <Gold.PLP.part.repulsive>
3.5439

> <Gold.PLP.ligand.clash>
0.0000

> <Gold.PLP.ligand.torsion>
1.6976

> <Gold.PLP.Chemscore.Hbond>
3.0000

> <Gold.PLP.Chemscore.CHOScore>
0.0000

> <Gold.PLP.Chemscore.Metal>
0.0000

> <Gold.Chemscore.Hbonds>
donor molecule, donor type, donor heavy atom, donor atom, acceptor molecule, acceptor atom, score
      L1  H    18    56       P1  7948  1.90
      P1  H  7997  8010       L1    10  1.00

> <Gold.PLP.Chemscore.Internal.Correction>
0.1241

> <Gold.Rescore>
     Score         DG    S(hbond)    S(metal)    S(lipo)     H(rot)  DE(clash)    DE(int)     intcor
     18.10     -21.50       1.97        0.00     133.52       2.41       1.61       1.78       ----

> <Gold.Chemscore.Fitness>
18.1043

> <Gold.Chemscore.DG>
-21.4969

> <Gold.Chemscore.ZeroCoef>
-5.4800

> <Gold.Chemscore.Hbond>
1.9682

> <Gold.Chemscore.Metal>
0.0000

> <Gold.Chemscore.Lipo>
133.5193

> <Gold.Chemscore.Internal_Hbond>
0.0000

> <Gold.Chemscore.DEClash>
1.6104

> <Gold.Chemscore.DEInternal>
1.7822

> <Gold.Chemscore.Rot>
2.4136

> <Gold.Chemscore.Internal.Correction>
   9.000000E+99

> <Gold.Chemscore.Hbonds>
donor molecule, donor type, donor heavy atom, donor atom, acceptor molecule, acceptor atom, score
      L1  H    18    56       P1  7948  0.22
      P1  H  7997  8010       L1    10  0.96

> <Gold.Chemscore.Hbond.Weighted>
-6.5739

> <Gold.Chemscore.Metal.Weighted>
-0.0000

> <Gold.Chemscore.Lipo.Weighted>
-15.6218

> <Gold.Chemscore.Internal_Hbond.Weighted>
0.0000

> <Gold.Chemscore.DEClash.Weighted>
1.6104

> <Gold.Chemscore.DEInternal.Weighted>
1.7822

> <Gold.Chemscore.Rot.Weighted>
6.1788

> <Gold.Chemscore.Internal.Correction.Weighted>
   9.000000E+99

> <Gold.Protein.RotatedTorsions>
[ 6907 6896 6895 6894 ] final  -17.37 input  -60.11 | X-H torsion
[ 7974 7965 7964 7962 ] final  166.44 input  175.53 | X-H torsion
[ 8008 7997 7996 7995 ] final  106.21 input   59.86 | X-H torsion
[ 10167 10162 10161 10158 ] final   18.91 input  -65.29 | X-H torsion
[ 10718 10713 10712 10709 ] final -172.30 input   66.30 | X-H torsion
[ 10763 10752 10751 10750 ] final  105.90 input  -60.55 | X-H torsion
[ 11005 11000 10999 10996 ] final  -45.60 input  -57.11 | X-H torsion

> <Gold.Protein.ActiveResidues>
 VAL166  LYS551  ARG553  GLY616  TRP617  ASP618  TYR619  PRO620  LYS621  CYS622 
 ASP623  PHE694  ASN695  SER759  ASP760  ASP761  ALA762  ILE779  LEU786  VAL792 
 PHE793  MET794  SER795  GLU796  ALA797  LYS798  CYS799  TRP800  GLU811  SER814 

> <Gold.Protein.RotatedAtoms>
  151.2944  135.0751  159.9215 H   0  0  0  0  0  0  0  0  0  0  0  0  # atno 6907 bound_to 6896
  152.5310  133.9898  159.7856 H   0  0  0  0  0  0  0  0  0  0  0  0  # atno 6908 bound_to 6896
  151.0174  133.5857  159.2706 H   0  0  0  0  0  0  0  0  0  0  0  0  # atno 6909 bound_to 6896
  144.7462  139.8615  143.6381 H   0  0  0  0  0  0  0  0  0  0  0  0  # atno 7974 bound_to 7965
  156.1724  140.3117  155.8998 H   0  0  0  0  0  0  0  0  0  0  0  0  # atno 8008 bound_to 7997
  155.3559  140.0473  157.3063 H   0  0  0  0  0  0  0  0  0  0  0  0  # atno 8009 bound_to 7997
  154.5255  140.2213  155.8909 H   0  0  0  0  0  0  0  0  0  0  0  0  # atno 8010 bound_to 7997
  140.5618  143.9322  150.6648 H   0  0  0  0  0  0  0  0  0  0  0  0  # atno 10167 bound_to 10162
  156.7536  130.9387  151.3115 H   0  0  0  0  0  0  0  0  0  0  0  0  # atno 10718 bound_to 10713
  153.3857  135.3894  155.1888 H   0  0  0  0  0  0  0  0  0  0  0  0  # atno 10763 bound_to 10752
  154.8713  135.3736  154.4801 H   0  0  0  0  0  0  0  0  0  0  0  0  # atno 10764 bound_to 10752
  153.5282  135.7086  153.5758 H   0  0  0  0  0  0  0  0  0  0  0  0  # atno 10765 bound_to 10752
  141.0526  133.6737  156.3037 H   0  0  0  0  0  0  0  0  0  0  0  0  # atno 11005 bound_to 11000
  146.1345  139.4387  143.0148 LP  0  0  0  0  0  0  0  0  0  0  0  0  # atno 17320 bound_to 7965
  145.7113  141.0105  143.1452 LP  0  0  0  0  0  0  0  0  0  0  0  0  # atno 17321 bound_to 7965
  140.2775  143.3412  152.1181 LP  0  0  0  0  0  0  0  0  0  0  0  0  # atno 17342 bound_to 10162
  139.5074  144.6831  151.5957 LP  0  0  0  0  0  0  0  0  0  0  0  0  # atno 17343 bound_to 10162
  157.6766  130.9100  150.0165 LP  0  0  0  0  0  0  0  0  0  0  0  0  # atno 17370 bound_to 10713
  156.1385  130.3642  149.9619 LP  0  0  0  0  0  0  0  0  0  0  0  0  # atno 17371 bound_to 10713
  140.6026  134.5539  157.5520 LP  0  0  0  0  0  0  0  0  0  0  0  0  # atno 17394 bound_to 11000
  139.9363  134.7869  156.0794 LP  0  0  0  0  0  0  0  0  0  0  0  0  # atno 17395 bound_to 11000

$$$$
