AV-unprocessed.smi:3303|AV-procd|sdf|12684|dock10
  -GOLD-   2272019 23D 1   1.00000     0.00000
 Structure written by MMmdl.
 44 45  0  0  0  0  0  0  0  0  2 V2000
  151.1114  138.1939  155.0722 C   0  0  0  0  0  0  0  0  0  0  0  0
  150.2312  139.2602  154.3965 C   0  0  1  0  0  0  0  0  0  0  0  0
  148.8430  138.7141  154.0096 C   0  0  0  0  0  0  0  0  0  0  0  0
  148.0581  139.7290  153.2636 N   0  3  1  0  0  0  0  0  0  0  0  0
  146.8239  139.1733  152.6636 C   0  0  0  0  0  0  0  0  0  0  0  0
  147.8520  140.9956  154.0223 C   0  0  1  0  0  0  0  0  0  0  0  0
  146.8291  140.8697  155.1728 C   0  0  0  0  0  0  0  0  0  0  0  0
  149.2077  141.5840  154.4765 C   0  0  0  0  0  0  0  0  0  0  0  0
  150.1270  140.5743  155.2049 C   0  0  1  0  0  0  0  0  0  0  0  0
  149.7005  140.3126  156.5774 N   0  0  0  0  0  0  0  0  0  0  0  0
  149.6642  141.5206  157.3896 C   0  0  0  0  0  0  0  0  0  0  0  0
  150.9581  142.3171  157.1770 C   0  0  0  0  0  0  0  0  0  0  0  0
  151.1107  143.4347  158.1909 C   0  0  0  0  0  0  0  0  0  0  0  0
  152.1657  144.3657  158.0825 C   0  0  0  0  0  0  0  0  0  0  0  0
  152.2687  145.3788  159.0554 C   0  0  0  0  0  0  0  0  0  0  0  0
  151.3187  145.4208  160.0941 C   0  0  0  0  0  0  0  0  0  0  0  0
  150.3040  144.4431  160.1142 C   0  0  0  0  0  0  0  0  0  0  0  0
  150.1964  143.4673  159.1866 N   0  0  0  0  0  0  0  0  0  0  0  0
  150.6588  137.8161  155.9895 H   0  0  0  0  0  0  0  0  0  0  0  0
  152.0925  138.5971  155.3246 H   0  0  0  0  0  0  0  0  0  0  0  0
  151.2679  137.3415  154.4106 H   0  0  0  0  0  0  0  0  0  0  0  0
  150.7346  139.5154  153.4624 H   0  0  0  0  0  0  0  0  0  0  0  0
  148.9692  137.8332  153.3787 H   0  0  0  0  0  0  0  0  0  0  0  0
  148.2949  138.3846  154.8928 H   0  0  0  0  0  0  0  0  0  0  0  0
  146.1597  138.7613  153.4240 H   0  0  0  0  0  0  0  0  0  0  0  0
  147.0696  138.3724  151.9656 H   0  0  0  0  0  0  0  0  0  0  0  0
  146.2823  139.9403  152.1090 H   0  0  0  0  0  0  0  0  0  0  0  0
  147.4292  141.7125  153.3171 H   0  0  0  0  0  0  0  0  0  0  0  0
  146.7530  141.8070  155.7246 H   0  0  0  0  0  0  0  0  0  0  0  0
  147.0948  140.0931  155.8882 H   0  0  0  0  0  0  0  0  0  0  0  0
  145.8307  140.6435  154.7991 H   0  0  0  0  0  0  0  0  0  0  0  0
  149.7375  141.9177  153.5832 H   0  0  0  0  0  0  0  0  0  0  0  0
  149.0526  142.4902  155.0608 H   0  0  0  0  0  0  0  0  0  0  0  0
  151.1306  140.9995  155.2586 H   0  0  0  0  0  0  0  0  0  0  0  0
  150.3482  139.6645  157.0035 H   0  0  0  0  0  0  0  0  0  0  0  0
  148.8035  142.1281  157.1073 H   0  0  0  0  0  0  0  0  0  0  0  0
  149.5599  141.2718  158.4449 H   0  0  0  0  0  0  0  0  0  0  0  0
  151.8214  141.6535  157.2435 H   0  0  0  0  0  0  0  0  0  0  0  0
  150.9764  142.7460  156.1739 H   0  0  0  0  0  0  0  0  0  0  0  0
  152.8810  144.3062  157.2754 H   0  0  0  0  0  0  0  0  0  0  0  0
  153.0623  146.1096  159.0061 H   0  0  0  0  0  0  0  0  0  0  0  0
  151.3665  146.1833  160.8573 H   0  0  0  0  0  0  0  0  0  0  0  0
  149.5595  144.4445  160.8966 H   0  0  0  0  0  0  0  0  0  0  0  0
  148.6394  139.9869  152.4789 H   0  0  0  0  0  0  0  0  0  0  0  0
  1  2  1  0  0  0  0
  1 19  1  0  0  0  0
  1 20  1  0  0  0  0
  1 21  1  0  0  0  0
  2  9  1  0  0  0  0
  2  3  1  0  0  0  0
  2 22  1  0  0  0  0
  3  4  1  0  0  0  0
  3 23  1  0  0  0  0
  3 24  1  0  0  0  0
  4  5  1  0  0  0  0
  4  6  1  0  0  0  0
  4 44  1  0  0  0  0
  5 25  1  0  0  0  0
  5 26  1  0  0  0  0
  5 27  1  0  0  0  0
  6  7  1  0  0  0  0
  6  8  1  0  0  0  0
  6 28  1  0  0  0  0
  7 29  1  0  0  0  0
  7 30  1  0  0  0  0
  7 31  1  0  0  0  0
  8  9  1  0  0  0  0
  8 32  1  0  0  0  0
  8 33  1  0  0  0  0
  9 10  1  0  0  0  0
  9 34  1  0  0  0  0
 10 11  1  0  0  0  0
 10 35  1  0  0  0  0
 11 12  1  0  0  0  0
 11 36  1  0  0  0  0
 11 37  1  0  0  0  0
 12 13  1  0  0  0  0
 12 38  1  0  0  0  0
 12 39  1  0  0  0  0
 13 18  1  0  0  0  0
 13 14  2  0  0  0  0
 14 15  1  0  0  0  0
 14 40  1  0  0  0  0
 15 16  2  0  0  0  0
 15 41  1  0  0  0  0
 16 17  1  0  0  0  0
 16 42  1  0  0  0  0
 17 18  2  0  0  0  0
 17 43  1  0  0  0  0
M  CHG  1   4   1
M  END
> <s_m_source_file>
AV-unprocessed.smi

> <i_m_source_file_index>
3303

> <i_lp_mmshare_version>
43012

> <i_f3d_flags>
0

> <s_epik_input>
W0NIM11bQ0BASF0xW0NIMl1OKFtDSDNdKVtDQEBIXShbQ0gzXSlbQ0gyXVtDQEhdMVtOSF1bQ0gyXVtDSDJdYzJbY0hdW2NIXVtjSF1bY0hdbjI=

> <s_epik_cmdline>
J2VwaWtfcHl0aG9uJywgJy1waCcsICc3LjAnLCAnLXRuJywgJzgnLCAnLW1hJywgJzIwMCcsICctbWV0YWxfYmluZGluZycsICctaW1hZScsICc8aW5maWxlLm1hZT4nLCAnLW9tYWUnLCAnPG91dGZpbGUubWFlPic=

> <r_epik_Ionization_Penalty>
2.31085

> <r_epik_Ionization_Penalty_Charging>
0.000313057

> <r_epik_Ionization_Penalty_Neutral>
2.31054

> <r_epik_State_Penalty>
2.4087

> <r_epik_Charging_Adjusted_Penalty>
2.40902

> <i_epik_Tot_Q>
1

> <i_epik_Tot_abs_Q>
1

> <r_epik_Metal_State_Penalty>
2.30979

> <b_epik_Metal_Only>
0

> <s_lp_Force_Field>
OPLS_2005

> <r_lp_Energy>
26.6876

> <b_lp_Chiralities_Consistent>
1

> <s_lp_Variant>
AV-unprocessed.smi:3303-28

> <Gold.Version>
5.8.1

> <Gold.Id.Protein>
6NUR|6NUR_protein|mol2

> <Gold.PLP.Fitness>
44.9246

> <Gold.PLP.PLP>
-42.1563

> <Gold.PLP.part.hbond>
-1.0000

> <Gold.PLP.part.metal>
0.0000

> <Gold.PLP.part.buried>
-3.1772

> <Gold.PLP.part.nonpolar>
-37.9605

> <Gold.PLP.part.repulsive>
0.2028

> <Gold.PLP.ligand.clash>
0.0000

> <Gold.PLP.ligand.torsion>
0.1215

> <Gold.PLP.Chemscore.Hbond>
1.0000

> <Gold.PLP.Chemscore.CHOScore>
0.0000

> <Gold.PLP.Chemscore.Metal>
0.0000

> <Gold.Chemscore.Hbonds>
donor molecule, donor type, donor heavy atom, donor atom, acceptor molecule, acceptor atom, score
      L1  H     4    44       P1  7957  1.00

> <Gold.PLP.Chemscore.Internal.Correction>
0.0113

> <Gold.Rescore>
     Score         DG    S(hbond)    S(metal)    S(lipo)     H(rot)  DE(clash)    DE(int)     intcor
     19.92     -20.17       0.99        0.00     126.34       1.33       0.09       0.15       ----

> <Gold.Chemscore.Fitness>
19.9229

> <Gold.Chemscore.DG>
-20.1684

> <Gold.Chemscore.ZeroCoef>
-5.4800

> <Gold.Chemscore.Hbond>
0.9893

> <Gold.Chemscore.Metal>
0.0000

> <Gold.Chemscore.Lipo>
126.3395

> <Gold.Chemscore.Internal_Hbond>
0.0000

> <Gold.Chemscore.DEClash>
0.0917

> <Gold.Chemscore.DEInternal>
0.1539

> <Gold.Chemscore.Rot>
1.3272

> <Gold.Chemscore.Internal.Correction>
   9.000000E+99

> <Gold.Chemscore.Hbonds>
donor molecule, donor type, donor heavy atom, donor atom, acceptor molecule, acceptor atom, score
      L1  H     4    44       P1  7957  0.99

> <Gold.Chemscore.Hbond.Weighted>
-3.3044

> <Gold.Chemscore.Metal.Weighted>
-0.0000

> <Gold.Chemscore.Lipo.Weighted>
-14.7817

> <Gold.Chemscore.Internal_Hbond.Weighted>
0.0000

> <Gold.Chemscore.DEClash.Weighted>
0.0917

> <Gold.Chemscore.DEInternal.Weighted>
0.1539

> <Gold.Chemscore.Rot.Weighted>
3.3976

> <Gold.Chemscore.Internal.Correction.Weighted>
   9.000000E+99

> <Gold.Protein.RotatedTorsions>
[ 6907 6896 6895 6894 ] final   18.49 input  -60.11 | X-H torsion
[ 7974 7965 7964 7962 ] final   72.65 input  175.53 | X-H torsion
[ 8008 7997 7996 7995 ] final  106.27 input   59.86 | X-H torsion
[ 10167 10162 10161 10158 ] final  124.77 input  -65.29 | X-H torsion
[ 10718 10713 10712 10709 ] final  130.09 input   66.30 | X-H torsion
[ 10763 10752 10751 10750 ] final -133.46 input  -60.55 | X-H torsion
[ 11005 11000 10999 10996 ] final   56.90 input  -57.11 | X-H torsion

> <Gold.Protein.ActiveResidues>
 VAL166  LYS551  ARG553  GLY616  TRP617  ASP618  TYR619  PRO620  LYS621  CYS622 
 ASP623  PHE694  ASN695  SER759  ASP760  ASP761  ALA762  ILE779  LEU786  VAL792 
 PHE793  MET794  SER795  GLU796  ALA797  LYS798  CYS799  TRP800  GLU811  SER814 

> <Gold.Protein.RotatedAtoms>
  151.8662  135.0506  160.0474 H   0  0  0  0  0  0  0  0  0  0  0  0  # atno 6907 bound_to 6896
  152.2624  133.5305  159.5398 H   0  0  0  0  0  0  0  0  0  0  0  0  # atno 6908 bound_to 6896
  150.7121  134.0727  159.3912 H   0  0  0  0  0  0  0  0  0  0  0  0  # atno 6909 bound_to 6896
  145.7507  139.2759  143.1433 H   0  0  0  0  0  0  0  0  0  0  0  0  # atno 7974 bound_to 7965
  156.1729  140.3116  155.9006 H   0  0  0  0  0  0  0  0  0  0  0  0  # atno 8008 bound_to 7997
  155.3549  140.0473  157.3063 H   0  0  0  0  0  0  0  0  0  0  0  0  # atno 8009 bound_to 7997
  154.5260  140.2214  155.8900 H   0  0  0  0  0  0  0  0  0  0  0  0  # atno 8010 bound_to 7997
  139.5723  144.6945  151.3746 H   0  0  0  0  0  0  0  0  0  0  0  0  # atno 10167 bound_to 10162
  157.5094  131.1096  150.9315 H   0  0  0  0  0  0  0  0  0  0  0  0  # atno 10718 bound_to 10713
  154.8732  135.3765  154.4576 H   0  0  0  0  0  0  0  0  0  0  0  0  # atno 10763 bound_to 10752
  153.5247  135.7028  153.5718 H   0  0  0  0  0  0  0  0  0  0  0  0  # atno 10764 bound_to 10752
  153.3950  135.3963  155.1914 H   0  0  0  0  0  0  0  0  0  0  0  0  # atno 10765 bound_to 10752
  140.0493  134.5759  155.9283 H   0  0  0  0  0  0  0  0  0  0  0  0  # atno 11005 bound_to 11000
  146.0359  140.8212  142.9853 LP  0  0  0  0  0  0  0  0  0  0  0  0  # atno 17320 bound_to 7965
  144.6850  140.2838  143.7288 LP  0  0  0  0  0  0  0  0  0  0  0  0  # atno 17321 bound_to 7965
  140.7007  143.7639  150.7398 LP  0  0  0  0  0  0  0  0  0  0  0  0  # atno 17342 bound_to 10162
  140.1149  143.4665  152.2348 LP  0  0  0  0  0  0  0  0  0  0  0  0  # atno 17343 bound_to 10162
  156.9960  130.5581  149.5307 LP  0  0  0  0  0  0  0  0  0  0  0  0  # atno 17370 bound_to 10713
  156.0279  130.5372  150.8456 LP  0  0  0  0  0  0  0  0  0  0  0  0  # atno 17371 bound_to 10713
  141.1922  133.6574  156.5494 LP  0  0  0  0  0  0  0  0  0  0  0  0  # atno 17394 bound_to 11000
  140.3942  134.7413  157.4740 LP  0  0  0  0  0  0  0  0  0  0  0  0  # atno 17395 bound_to 11000

$$$$
