AV-unprocessed.smi:297|AV-procd|sdf|2260|dock9
  -GOLD-   2262022143D 1   1.00000     0.00000
 Structure written by MMmdl.
 29 30  0  0  0  0  0  0  0  0  1 V2000
  153.8769  136.0034  160.8987 N   0  0  0  0  0  0  0  0  0  0  0  0
  153.7409  137.1004  160.5558 C   0  0  0  0  0  0  0  0  0  0  0  0
  153.5697  138.4796  160.1246 C   0  0  0  0  0  0  0  0  0  0  0  0
  152.9241  138.6727  158.9531 N   0  0  0  0  0  0  0  0  0  0  0  0
  152.7280  139.9336  158.4950 C   0  0  0  0  0  0  0  0  0  0  0  0
  152.0480  140.1026  157.2693 N   0  0  0  0  0  0  0  0  0  0  0  0
  150.9328  141.0449  157.2875 C   0  0  0  0  0  0  0  0  0  0  0  0
  150.4961  141.3792  155.8524 C   0  0  0  0  0  0  0  0  0  0  0  0
  150.1892  140.1786  155.1528 O   0  0  0  0  0  0  0  0  0  0  0  0
  151.3189  139.3125  155.0401 C   0  0  2  0  0  0  0  0  0  0  0  0
  150.9283  138.0940  154.1908 C   0  0  0  0  0  0  0  0  0  0  0  0
  150.0589  138.2939  153.1961 N   0  0  0  0  0  0  0  0  0  0  0  0
  151.4152  136.9865  154.4117 O   0  0  0  0  0  0  0  0  0  0  0  0
  151.7940  138.9144  156.4557 C   0  0  0  0  0  0  0  0  0  0  0  0
  153.1935  141.0599  159.2124 C   0  0  0  0  0  0  0  0  0  0  0  0
  153.8665  140.8639  160.4326 C   0  0  0  0  0  0  0  0  0  0  0  0
  154.0608  139.5529  160.9058 C   0  0  0  0  0  0  0  0  0  0  0  0
  154.8879  139.3053  162.4058 Cl  0  0  0  0  0  0  0  0  0  0  0  0
  150.1026  140.5968  157.8351 H   0  0  0  0  0  0  0  0  0  0  0  0
  151.1903  141.9688  157.8033 H   0  0  0  0  0  0  0  0  0  0  0  0
  149.6112  142.0155  155.8687 H   0  0  0  0  0  0  0  0  0  0  0  0
  151.2762  141.9319  155.3262 H   0  0  0  0  0  0  0  0  0  0  0  0
  152.1203  139.8353  154.5149 H   0  0  0  0  0  0  0  0  0  0  0  0
  149.7817  137.5198  152.6098 H   0  0  0  0  0  0  0  0  0  0  0  0
  149.6882  139.2183  153.0302 H   0  0  0  0  0  0  0  0  0  0  0  0
  152.7060  138.3203  156.3792 H   0  0  0  0  0  0  0  0  0  0  0  0
  151.0418  138.2963  156.9490 H   0  0  0  0  0  0  0  0  0  0  0  0
  153.0570  142.0633  158.8378 H   0  0  0  0  0  0  0  0  0  0  0  0
  154.2311  141.7103  160.9956 H   0  0  0  0  0  0  0  0  0  0  0  0
  1  2  3  0  0  0  0
  2  3  1  0  0  0  0
  3 17  1  0  0  0  0
  3  4  2  0  0  0  0
  4  5  1  0  0  0  0
  5  6  1  0  0  0  0
  5 15  2  0  0  0  0
  6 14  1  0  0  0  0
  6  7  1  0  0  0  0
  7  8  1  0  0  0  0
  7 19  1  0  0  0  0
  7 20  1  0  0  0  0
  8  9  1  0  0  0  0
  8 21  1  0  0  0  0
  8 22  1  0  0  0  0
  9 10  1  0  0  0  0
 10 11  1  0  0  0  0
 10 14  1  0  0  0  0
 10 23  1  0  0  0  0
 11 12  1  0  0  0  0
 11 13  2  0  0  0  0
 12 24  1  0  0  0  0
 12 25  1  0  0  0  0
 14 26  1  0  0  0  0
 14 27  1  0  0  0  0
 15 16  1  0  0  0  0
 15 28  1  0  0  0  0
 16 17  2  0  0  0  0
 16 29  1  0  0  0  0
 17 18  1  0  0  0  0
M  END
> <s_m_source_file>
AV-unprocessed.smi

> <i_m_source_file_index>
297

> <i_lp_mmshare_version>
43012

> <i_f3d_flags>
0

> <s_epik_input>
TiNDYzFuYyhbY0hdW2NIXWMxQ2wpTjJbQ0gyXVtDSDJdT1tDQEhdKFtDSDJdMilDKD1PKVtOSDJd

> <s_epik_cmdline>
J2VwaWtfcHl0aG9uJywgJy1waCcsICc3LjAnLCAnLXRuJywgJzgnLCAnLW1hJywgJzIwMCcsICctbWV0YWxfYmluZGluZycsICctaW1hZScsICc8aW5maWxlLm1hZT4nLCAnLW9tYWUnLCAnPG91dGZpbGUubWFlPic=

> <r_lp_tautomer_probability>
1

> <r_epik_Ionization_Penalty>
8.82403e-08

> <r_epik_Ionization_Penalty_Charging>
0

> <r_epik_Ionization_Penalty_Neutral>
8.82403e-08

> <r_epik_State_Penalty>
-0

> <r_epik_Charging_Adjusted_Penalty>
0

> <i_epik_Tot_Q>
0

> <i_epik_Tot_abs_Q>
0

> <r_epik_Metal_State_Penalty>
-0

> <b_epik_Metal_Only>
0

> <s_lp_Force_Field>
OPLS_2005

> <r_lp_Energy>
18.7144

> <b_lp_Chiralities_Consistent>
1

> <s_lp_Variant>
AV-unprocessed.smi:297-2

> <Gold.Version>
5.8.1

> <Gold.Id.Protein>
6NUR|6NUR_protein|mol2

> <Gold.PLP.Fitness>
38.2150

> <Gold.PLP.PLP>
-30.4839

> <Gold.PLP.part.hbond>
-4.6108

> <Gold.PLP.part.metal>
0.0000

> <Gold.PLP.part.buried>
-2.7805

> <Gold.PLP.part.nonpolar>
-23.0891

> <Gold.PLP.part.repulsive>
0.6574

> <Gold.PLP.ligand.clash>
0.0000

> <Gold.PLP.ligand.torsion>
0.8901

> <Gold.PLP.Chemscore.Hbond>
3.0530

> <Gold.PLP.Chemscore.CHOScore>
0.0000

> <Gold.PLP.Chemscore.Metal>
0.0000

> <Gold.Chemscore.Hbonds>
donor molecule, donor type, donor heavy atom, donor atom, acceptor molecule, acceptor atom, score
      L1  H    12    24       P1  7948  0.95
      L1  H    12    25       P1  7957  0.43
      P1  H  6896  6908       L1     1  0.80
      P1  H 10752 10763       L1    13  0.98

> <Gold.PLP.Chemscore.Internal.Correction>
0.3522

> <Gold.Rescore>
     Score         DG    S(hbond)    S(metal)    S(lipo)     H(rot)  DE(clash)    DE(int)     intcor
     15.93     -17.37       2.51        0.00      62.91       1.50       0.49       0.94       ----

> <Gold.Chemscore.Fitness>
15.9312

> <Gold.Chemscore.DG>
-17.3692

> <Gold.Chemscore.ZeroCoef>
-5.4800

> <Gold.Chemscore.Hbond>
2.5062

> <Gold.Chemscore.Metal>
0.0000

> <Gold.Chemscore.Lipo>
62.9060

> <Gold.Chemscore.Internal_Hbond>
0.0000

> <Gold.Chemscore.DEClash>
0.4935

> <Gold.Chemscore.DEInternal>
0.9445

> <Gold.Chemscore.Rot>
1.5006

> <Gold.Chemscore.Internal.Correction>
   9.000000E+99

> <Gold.Chemscore.Hbonds>
donor molecule, donor type, donor heavy atom, donor atom, acceptor molecule, acceptor atom, score
      L1  H    12    24       P1  7948  0.21
      L1  H    12    25       P1  7957  0.39
      P1  H  6896  6908       L1     1  0.58
      P1  H 10752 10763       L1    13  0.91

> <Gold.Chemscore.Hbond.Weighted>
-8.3708

> <Gold.Chemscore.Metal.Weighted>
-0.0000

> <Gold.Chemscore.Lipo.Weighted>
-7.3600

> <Gold.Chemscore.Internal_Hbond.Weighted>
0.0000

> <Gold.Chemscore.DEClash.Weighted>
0.4935

> <Gold.Chemscore.DEInternal.Weighted>
0.9445

> <Gold.Chemscore.Rot.Weighted>
3.8416

> <Gold.Chemscore.Internal.Correction.Weighted>
   9.000000E+99

> <Gold.Protein.RotatedTorsions>
[ 6907 6896 6895 6894 ] final  -70.57 input  -60.11 | X-H torsion
[ 7974 7965 7964 7962 ] final  110.13 input  175.53 | X-H torsion
[ 8008 7997 7996 7995 ] final -101.80 input   59.86 | X-H torsion
[ 10167 10162 10161 10158 ] final  147.04 input  -65.29 | X-H torsion
[ 10718 10713 10712 10709 ] final  -59.20 input   66.30 | X-H torsion
[ 10763 10752 10751 10750 ] final   33.60 input  -60.55 | X-H torsion
[ 11005 11000 10999 10996 ] final -169.05 input  -57.11 | X-H torsion

> <Gold.Protein.ActiveResidues>
 VAL166  LYS551  ARG553  GLY616  TRP617  ASP618  TYR619  PRO620  LYS621  CYS622 
 ASP623  PHE694  ASN695  SER759  ASP760  ASP761  ALA762  ILE779  LEU786  VAL792 
 PHE793  MET794  SER795  GLU796  ALA797  LYS798  CYS799  TRP800  GLU811  SER814 

> <Gold.Protein.RotatedAtoms>
  150.7252  134.5434  159.5758 H   0  0  0  0  0  0  0  0  0  0  0  0  # atno 6907 bound_to 6896
  152.2939  134.7686  160.0381 H   0  0  0  0  0  0  0  0  0  0  0  0  # atno 6908 bound_to 6896
  151.8290  133.3370  159.3644 H   0  0  0  0  0  0  0  0  0  0  0  0  # atno 6909 bound_to 6896
  145.2589  139.2710  143.4027 H   0  0  0  0  0  0  0  0  0  0  0  0  # atno 7974 bound_to 7965
  154.8477  140.0432  157.1583 H   0  0  0  0  0  0  0  0  0  0  0  0  # atno 8008 bound_to 7997
  154.8977  140.2995  155.5315 H   0  0  0  0  0  0  0  0  0  0  0  0  # atno 8009 bound_to 7997
  156.2995  140.2381  156.4001 H   0  0  0  0  0  0  0  0  0  0  0  0  # atno 8010 bound_to 7997
  139.4897  144.5785  151.6918 H   0  0  0  0  0  0  0  0  0  0  0  0  # atno 10167 bound_to 10162
  156.1079  130.4178  150.0682 H   0  0  0  0  0  0  0  0  0  0  0  0  # atno 10718 bound_to 10713
  153.0204  135.6383  154.1536 H   0  0  0  0  0  0  0  0  0  0  0  0  # atno 10763 bound_to 10752
  154.1271  135.2843  155.3196 H   0  0  0  0  0  0  0  0  0  0  0  0  # atno 10764 bound_to 10752
  154.6221  135.5521  153.7649 H   0  0  0  0  0  0  0  0  0  0  0  0  # atno 10765 bound_to 10752
  140.5351  134.5578  157.5085 H   0  0  0  0  0  0  0  0  0  0  0  0  # atno 11005 bound_to 11000
  146.3281  140.3001  142.8620 LP  0  0  0  0  0  0  0  0  0  0  0  0  # atno 17320 bound_to 7965
  144.9436  140.8104  143.5615 LP  0  0  0  0  0  0  0  0  0  0  0  0  # atno 17321 bound_to 7965
  140.5386  144.0616  150.6080 LP  0  0  0  0  0  0  0  0  0  0  0  0  # atno 17342 bound_to 10162
  140.3630  143.2897  152.0362 LP  0  0  0  0  0  0  0  0  0  0  0  0  # atno 17343 bound_to 10162
  156.8653  130.9506  151.3614 LP  0  0  0  0  0  0  0  0  0  0  0  0  # atno 17370 bound_to 10713
  157.6257  130.8690  149.9186 LP  0  0  0  0  0  0  0  0  0  0  0  0  # atno 17371 bound_to 10713
  139.9534  134.7578  156.0397 LP  0  0  0  0  0  0  0  0  0  0  0  0  # atno 17394 bound_to 11000
  141.1259  133.6599  156.3336 LP  0  0  0  0  0  0  0  0  0  0  0  0  # atno 17395 bound_to 11000

$$$$
