AV-unprocessed.smi:2542|AV-procd|sdf|9992|dock5
  -GOLD-   2272014 43D 1   1.00000     0.00000
 Structure written by MMmdl.
 42 43  0  0  0  0  0  0  0  0  2 V2000
  145.3404  133.2207  156.7330 C   0  0  0  0  0  0  0  0  0  0  0  0
  146.7394  133.8245  156.4886 C   0  0  0  0  0  0  0  0  0  0  0  0
  146.5589  135.3604  156.4118 C   0  0  0  0  0  0  0  0  0  0  0  0
  147.6477  133.4891  157.7030 C   0  0  0  0  0  0  0  0  0  0  0  0
  147.1024  133.9883  158.9637 N   0  0  0  0  0  0  0  0  0  0  0  0
  147.7046  134.8466  159.8032 C   0  0  0  0  0  0  0  0  0  0  0  0
  148.7900  135.3697  159.5483 O   0  0  0  0  0  0  0  0  0  0  0  0
  146.9859  135.1502  161.1360 C   0  0  0  0  0  0  0  0  0  0  0  0
  147.7040  136.1603  161.9416 C   0  0  0  0  0  0  0  0  0  0  0  0
  148.2638  136.9529  162.5734 N   0  0  0  0  0  0  0  0  0  0  0  0
  145.5351  135.6162  160.9117 C   0  0  0  0  0  0  0  0  0  0  0  0
  144.7964  135.2994  162.2168 C   0  0  0  0  0  0  0  0  0  0  0  0
  145.5799  134.1593  162.8806 C   0  0  0  0  0  0  0  0  0  0  0  0
  146.7736  133.8699  161.9619 C   0  0  0  0  0  0  0  0  0  0  0  0
  147.3379  133.2331  155.1956 C   0  0  0  0  0  0  0  0  0  0  0  0
  148.6183  133.6008  154.7061 C   0  0  0  0  0  0  0  0  0  0  0  0
  149.1187  133.0022  153.5320 C   0  0  0  0  0  0  0  0  0  0  0  0
  148.3807  132.0827  152.8763 N   0  3  0  0  0  0  0  0  0  0  0  0
  147.1576  131.6986  153.2958 C   0  0  0  0  0  0  0  0  0  0  0  0
  146.6073  132.2636  154.4636 C   0  0  0  0  0  0  0  0  0  0  0  0
  144.8810  133.6365  157.6307 H   0  0  0  0  0  0  0  0  0  0  0  0
  145.3760  132.1394  156.8660 H   0  0  0  0  0  0  0  0  0  0  0  0
  144.6696  133.4258  155.8978 H   0  0  0  0  0  0  0  0  0  0  0  0
  146.1419  135.7545  157.3394 H   0  0  0  0  0  0  0  0  0  0  0  0
  145.8767  135.6457  155.6101 H   0  0  0  0  0  0  0  0  0  0  0  0
  147.5029  135.8798  156.2460 H   0  0  0  0  0  0  0  0  0  0  0  0
  147.8454  132.4168  157.7522 H   0  0  0  0  0  0  0  0  0  0  0  0
  148.6250  133.9564  157.5799 H   0  0  0  0  0  0  0  0  0  0  0  0
  146.2062  133.6156  159.2431 H   0  0  0  0  0  0  0  0  0  0  0  0
  145.4736  136.6760  160.6608 H   0  0  0  0  0  0  0  0  0  0  0  0
  145.0595  135.0663  160.0981 H   0  0  0  0  0  0  0  0  0  0  0  0
  144.7951  136.1736  162.8690 H   0  0  0  0  0  0  0  0  0  0  0  0
  143.7564  135.0284  162.0317 H   0  0  0  0  0  0  0  0  0  0  0  0
  145.9277  134.4747  163.8651 H   0  0  0  0  0  0  0  0  0  0  0  0
  144.9646  133.2702  163.0218 H   0  0  0  0  0  0  0  0  0  0  0  0
  146.5294  133.0241  161.3164 H   0  0  0  0  0  0  0  0  0  0  0  0
  147.6615  133.5931  162.5319 H   0  0  0  0  0  0  0  0  0  0  0  0
  149.2361  134.3288  155.2088 H   0  0  0  0  0  0  0  0  0  0  0  0
  150.0835  133.2291  153.1021 H   0  0  0  0  0  0  0  0  0  0  0  0
  146.6608  130.9540  152.6912 H   0  0  0  0  0  0  0  0  0  0  0  0
  145.6303  131.9430  154.7935 H   0  0  0  0  0  0  0  0  0  0  0  0
  148.7636  131.6604  152.0299 H   0  0  0  0  0  0  0  0  0  0  0  0
  1  2  1  0  0  0  0
  1 21  1  0  0  0  0
  1 22  1  0  0  0  0
  1 23  1  0  0  0  0
  2  3  1  0  0  0  0
  2  4  1  0  0  0  0
  2 15  1  0  0  0  0
  3 24  1  0  0  0  0
  3 25  1  0  0  0  0
  3 26  1  0  0  0  0
  4  5  1  0  0  0  0
  4 27  1  0  0  0  0
  4 28  1  0  0  0  0
  5  6  1  0  0  0  0
  5 29  1  0  0  0  0
  6  7  2  0  0  0  0
  6  8  1  0  0  0  0
  8 14  1  0  0  0  0
  8  9  1  0  0  0  0
  8 11  1  0  0  0  0
  9 10  3  0  0  0  0
 11 12  1  0  0  0  0
 11 30  1  0  0  0  0
 11 31  1  0  0  0  0
 12 13  1  0  0  0  0
 12 32  1  0  0  0  0
 12 33  1  0  0  0  0
 13 14  1  0  0  0  0
 13 34  1  0  0  0  0
 13 35  1  0  0  0  0
 14 36  1  0  0  0  0
 14 37  1  0  0  0  0
 15 20  1  0  0  0  0
 15 16  2  0  0  0  0
 16 17  1  0  0  0  0
 16 38  1  0  0  0  0
 17 18  2  0  0  0  0
 17 39  1  0  0  0  0
 18 19  1  0  0  0  0
 18 42  1  0  0  0  0
 19 20  2  0  0  0  0
 19 40  1  0  0  0  0
 20 41  1  0  0  0  0
M  CHG  1  18   1
M  END
> <s_m_source_file>
AV-unprocessed.smi

> <i_m_source_file_index>
2542

> <i_lp_mmshare_version>
43012

> <i_f3d_flags>
0

> <s_epik_input>
W2NIXTFbY0hdbltjSF1bY0hdYzFDKFtDSDNdKShbQ0gzXSlbQ0gyXVtOSF1DKD1PKUMyKEMjTilbQ0gyXVtDSDJdW0NIMl1bQ0gyXTI=

> <s_epik_cmdline>
J2VwaWtfcHl0aG9uJywgJy1waCcsICc3LjAnLCAnLXRuJywgJzgnLCAnLW1hJywgJzIwMCcsICctbWV0YWxfYmluZGluZycsICctaW1hZScsICc8aW5maWxlLm1hZT4nLCAnLW9tYWUnLCAnPG91dGZpbGUubWFlPic=

> <r_epik_Ionization_Penalty>
1.51272

> <r_epik_Ionization_Penalty_Charging>
1.51272

> <r_epik_Ionization_Penalty_Neutral>
6.26824e-07

> <r_epik_State_Penalty>
1.60388

> <r_epik_Charging_Adjusted_Penalty>
3.1166

> <i_epik_Tot_Q>
1

> <i_epik_Tot_abs_Q>
1

> <r_epik_Metal_State_Penalty>
1.64935

> <b_epik_Metal_Only>
0

> <s_lp_Force_Field>
OPLS_2005

> <r_lp_Energy>
37.2322

> <b_lp_Chiralities_Consistent>
1

> <s_lp_Variant>
AV-unprocessed.smi:2542-2

> <Gold.Version>
5.8.1

> <Gold.Id.Protein>
6NUR|6NUR_protein|mol2

> <Gold.PLP.Fitness>
35.3896

> <Gold.PLP.PLP>
-26.4701

> <Gold.PLP.part.hbond>
-3.0000

> <Gold.PLP.part.metal>
0.0000

> <Gold.PLP.part.buried>
-3.9532

> <Gold.PLP.part.nonpolar>
-19.9072

> <Gold.PLP.part.repulsive>
0.0294

> <Gold.PLP.ligand.clash>
0.0000

> <Gold.PLP.ligand.torsion>
0.0642

> <Gold.PLP.Chemscore.Hbond>
2.9920

> <Gold.PLP.Chemscore.CHOScore>
0.0000

> <Gold.PLP.Chemscore.Metal>
0.0000

> <Gold.Chemscore.Hbonds>
donor molecule, donor type, donor heavy atom, donor atom, acceptor molecule, acceptor atom, score
      L1  H    18    42       P1 10747  1.00
      P1  H  6896  6909       L1     7  0.98
      P1  H  6931  6943       L1    10  1.00

> <Gold.PLP.Chemscore.Internal.Correction>
0.0718

> <Gold.Rescore>
     Score         DG    S(hbond)    S(metal)    S(lipo)     H(rot)  DE(clash)    DE(int)     intcor
     17.89     -18.01       2.97        0.00      56.57       1.56       0.02       0.10       ----

> <Gold.Chemscore.Fitness>
17.8899

> <Gold.Chemscore.DG>
-18.0112

> <Gold.Chemscore.ZeroCoef>
-5.4800

> <Gold.Chemscore.Hbond>
2.9698

> <Gold.Chemscore.Metal>
0.0000

> <Gold.Chemscore.Lipo>
56.5655

> <Gold.Chemscore.Internal_Hbond>
0.0000

> <Gold.Chemscore.DEClash>
0.0234

> <Gold.Chemscore.DEInternal>
0.0979

> <Gold.Chemscore.Rot>
1.5649

> <Gold.Chemscore.Internal.Correction>
   9.000000E+99

> <Gold.Chemscore.Hbonds>
donor molecule, donor type, donor heavy atom, donor atom, acceptor molecule, acceptor atom, score
      L1  H    18    42       P1 10747  0.94
      P1  H  6896  6909       L1     7  0.90
      P1  H  6931  6943       L1    10  0.94

> <Gold.Chemscore.Hbond.Weighted>
-9.9192

> <Gold.Chemscore.Metal.Weighted>
-0.0000

> <Gold.Chemscore.Lipo.Weighted>
-6.6182

> <Gold.Chemscore.Internal_Hbond.Weighted>
0.0000

> <Gold.Chemscore.DEClash.Weighted>
0.0234

> <Gold.Chemscore.DEInternal.Weighted>
0.0979

> <Gold.Chemscore.Rot.Weighted>
4.0061

> <Gold.Chemscore.Internal.Correction.Weighted>
   9.000000E+99

> <Gold.Protein.RotatedTorsions>
[ 6907 6896 6895 6894 ] final   45.31 input  -60.11 | X-H torsion
[ 7974 7965 7964 7962 ] final  -16.06 input  175.53 | X-H torsion
[ 8008 7997 7996 7995 ] final -143.68 input   59.86 | X-H torsion
[ 10167 10162 10161 10158 ] final -137.33 input  -65.29 | X-H torsion
[ 10718 10713 10712 10709 ] final   93.16 input   66.30 | X-H torsion
[ 10763 10752 10751 10750 ] final -161.81 input  -60.55 | X-H torsion
[ 11005 11000 10999 10996 ] final  -37.72 input  -57.11 | X-H torsion

> <Gold.Protein.ActiveResidues>
 VAL166  LYS551  ARG553  GLY616  TRP617  ASP618  TYR619  PRO620  LYS621  CYS622 
 ASP623  PHE694  ASN695  SER759  ASP760  ASP761  ALA762  ILE779  LEU786  VAL792 
 PHE793  MET794  SER795  GLU796  ALA797  LYS798  CYS799  TRP800  GLU811  SER814 

> <Gold.Protein.RotatedAtoms>
  152.2430  134.8209  160.0457 H   0  0  0  0  0  0  0  0  0  0  0  0  # atno 6907 bound_to 6896
  151.8917  133.3512  159.3808 H   0  0  0  0  0  0  0  0  0  0  0  0  # atno 6908 bound_to 6896
  150.7059  134.4843  159.5529 H   0  0  0  0  0  0  0  0  0  0  0  0  # atno 6909 bound_to 6896
  146.2004  140.3583  142.8425 H   0  0  0  0  0  0  0  0  0  0  0  0  # atno 7974 bound_to 7965
  155.5146  140.0586  157.2917 H   0  0  0  0  0  0  0  0  0  0  0  0  # atno 8008 bound_to 7997
  154.4539  140.1963  156.0384 H   0  0  0  0  0  0  0  0  0  0  0  0  # atno 8009 bound_to 7997
  156.0761  140.3253  155.7639 H   0  0  0  0  0  0  0  0  0  0  0  0  # atno 8010 bound_to 7997
  139.8588  143.7103  152.2652 H   0  0  0  0  0  0  0  0  0  0  0  0  # atno 10167 bound_to 10162
  157.6956  131.0468  150.3992 H   0  0  0  0  0  0  0  0  0  0  0  0  # atno 10718 bound_to 10713
  154.7270  135.3038  154.8954 H   0  0  0  0  0  0  0  0  0  0  0  0  # atno 10763 bound_to 10752
  153.9808  135.6730  153.4754 H   0  0  0  0  0  0  0  0  0  0  0  0  # atno 10764 bound_to 10752
  153.0884  135.4972  154.8562 H   0  0  0  0  0  0  0  0  0  0  0  0  # atno 10765 bound_to 10752
  140.9973  133.6973  156.1958 H   0  0  0  0  0  0  0  0  0  0  0  0  # atno 11005 bound_to 11000
  144.8671  140.7221  143.6070 LP  0  0  0  0  0  0  0  0  0  0  0  0  # atno 17320 bound_to 7965
  145.3502  139.1708  143.4438 LP  0  0  0  0  0  0  0  0  0  0  0  0  # atno 17321 bound_to 7965
  139.7393  144.7563  151.0677 LP  0  0  0  0  0  0  0  0  0  0  0  0  # atno 17342 bound_to 10162
  140.7778  143.4991  150.9794 LP  0  0  0  0  0  0  0  0  0  0  0  0  # atno 17343 bound_to 10162
  156.4387  130.3987  149.6711 LP  0  0  0  0  0  0  0  0  0  0  0  0  # atno 17370 bound_to 10713
  156.3903  130.7623  151.2624 LP  0  0  0  0  0  0  0  0  0  0  0  0  # atno 17371 bound_to 10713
  140.6945  134.4630  157.5588 LP  0  0  0  0  0  0  0  0  0  0  0  0  # atno 17394 bound_to 11000
  139.9021  134.8532  156.1853 LP  0  0  0  0  0  0  0  0  0  0  0  0  # atno 17395 bound_to 11000

$$$$
