AV-unprocessed.smi:770|AV-procd|sdf|3679|dock2
  -GOLD-   22720 1 93D 1   1.00000     0.00000
 Structure written by MMmdl.
 37 38  0  0  0  0  0  0  0  0  1 V2000
  148.7827  132.8297  152.9936 C   0  0  0  0  0  0  0  0  0  0  0  0
  149.4107  133.4568  153.8323 C   0  0  0  0  0  0  0  0  0  0  0  0
  150.1443  134.2242  154.8541 C   0  0  0  0  0  0  0  0  0  0  0  0
  150.4852  135.5695  154.4054 N   0  0  0  0  0  0  0  0  0  0  0  0
  151.3017  136.4126  155.0534 C   0  0  0  0  0  0  0  0  0  0  0  0
  151.9162  136.1231  156.0803 O   0  0  0  0  0  0  0  0  0  0  0  0
  151.3313  137.6212  154.4726 N   0  0  0  0  0  0  0  0  0  0  0  0
  152.0130  138.7982  155.0073 C   0  0  0  0  0  0  0  0  0  0  0  0
  151.1053  140.0455  155.0183 C   0  0  0  0  0  0  0  0  0  0  0  0
  151.4392  141.0194  156.1110 C   0  0  0  0  0  0  0  0  0  0  0  0
  151.0540  142.3357  156.1883 C   0  0  0  0  0  0  0  0  0  0  0  0
  151.5886  143.0844  157.6673 S   0  0  0  0  0  0  0  0  0  0  0  0
  152.3462  141.5617  158.1232 C   0  0  0  0  0  0  0  0  0  0  0  0
  153.0314  141.4074  159.3243 N   0  0  0  0  0  0  0  0  0  0  0  0
  153.2652  142.4457  160.3231 C   0  0  0  0  0  0  0  0  0  0  0  0
  153.7917  141.7665  161.5847 C   0  0  0  0  0  0  0  0  0  0  0  0
  154.5316  140.5704  161.0186 C   0  0  0  0  0  0  0  0  0  0  0  0
  153.6641  140.1895  159.8210 C   0  0  0  0  0  0  0  0  0  0  0  0
  152.1901  140.5978  157.2123 N   0  0  0  0  0  0  0  0  0  0  0  0
  148.2274  132.2849  152.2637 H   0  0  0  0  0  0  0  0  0  0  0  0
  149.5470  134.2523  155.7668 H   0  0  0  0  0  0  0  0  0  0  0  0
  151.0623  133.6844  155.0861 H   0  0  0  0  0  0  0  0  0  0  0  0
  150.0255  135.8999  153.5696 H   0  0  0  0  0  0  0  0  0  0  0  0
  150.7932  137.7540  153.6288 H   0  0  0  0  0  0  0  0  0  0  0  0
  152.3875  138.5997  156.0130 H   0  0  0  0  0  0  0  0  0  0  0  0
  152.8908  138.9911  154.3904 H   0  0  0  0  0  0  0  0  0  0  0  0
  151.1713  140.5411  154.0492 H   0  0  0  0  0  0  0  0  0  0  0  0
  150.0665  139.7277  155.1142 H   0  0  0  0  0  0  0  0  0  0  0  0
  150.4678  142.9002  155.4789 H   0  0  0  0  0  0  0  0  0  0  0  0
  154.0045  143.1434  159.9283 H   0  0  0  0  0  0  0  0  0  0  0  0
  152.3534  143.0077  160.5272 H   0  0  0  0  0  0  0  0  0  0  0  0
  154.4246  142.4185  162.1871 H   0  0  0  0  0  0  0  0  0  0  0  0
  152.9591  141.4301  162.2039 H   0  0  0  0  0  0  0  0  0  0  0  0
  155.5235  140.8737  160.6804 H   0  0  0  0  0  0  0  0  0  0  0  0
  154.6488  139.7579  161.7362 H   0  0  0  0  0  0  0  0  0  0  0  0
  152.8817  139.4924  160.1230 H   0  0  0  0  0  0  0  0  0  0  0  0
  154.2578  139.7082  159.0430 H   0  0  0  0  0  0  0  0  0  0  0  0
  1  2  3  0  0  0  0
  1 20  1  0  0  0  0
  2  3  1  0  0  0  0
  3  4  1  0  0  0  0
  3 21  1  0  0  0  0
  3 22  1  0  0  0  0
  4  5  1  0  0  0  0
  4 23  1  0  0  0  0
  5  6  2  0  0  0  0
  5  7  1  0  0  0  0
  7  8  1  0  0  0  0
  7 24  1  0  0  0  0
  8  9  1  0  0  0  0
  8 25  1  0  0  0  0
  8 26  1  0  0  0  0
  9 10  1  0  0  0  0
  9 27  1  0  0  0  0
  9 28  1  0  0  0  0
 10 19  1  0  0  0  0
 10 11  2  0  0  0  0
 11 12  1  0  0  0  0
 11 29  1  0  0  0  0
 12 13  1  0  0  0  0
 13 14  1  0  0  0  0
 13 19  2  0  0  0  0
 14 18  1  0  0  0  0
 14 15  1  0  0  0  0
 15 16  1  0  0  0  0
 15 30  1  0  0  0  0
 15 31  1  0  0  0  0
 16 17  1  0  0  0  0
 16 32  1  0  0  0  0
 16 33  1  0  0  0  0
 17 18  1  0  0  0  0
 17 34  1  0  0  0  0
 17 35  1  0  0  0  0
 18 36  1  0  0  0  0
 18 37  1  0  0  0  0
M  END
> <s_m_source_file>
AV-unprocessed.smi

> <i_m_source_file_index>
770

> <i_lp_mmshare_version>
43012

> <i_f3d_flags>
0

> <s_epik_input>
W0NIXSNDW0NIMl1bTkhdQyg9TylbTkhdW0NIMl1bQ0gyXWMxW2NIXXNjKG4xKU4yW0NIMl1bQ0gyXVtDSDJdW0NIMl0y

> <s_epik_cmdline>
J2VwaWtfcHl0aG9uJywgJy1waCcsICc3LjAnLCAnLXRuJywgJzgnLCAnLW1hJywgJzIwMCcsICctbWV0YWxfYmluZGluZycsICctaW1hZScsICc8aW5maWxlLm1hZT4nLCAnLW9tYWUnLCAnPG91dGZpbGUubWFlPic=

> <r_epik_Ionization_Penalty>
0.174338

> <r_epik_Ionization_Penalty_Charging>
0

> <r_epik_Ionization_Penalty_Neutral>
0.174338

> <r_epik_State_Penalty>
0.163676

> <r_epik_Charging_Adjusted_Penalty>
0.163676

> <i_epik_Tot_Q>
0

> <i_epik_Tot_abs_Q>
0

> <r_epik_Metal_State_Penalty>
0.126089

> <b_epik_Metal_Only>
0

> <s_lp_Force_Field>
OPLS_2005

> <r_lp_Energy>
12.0865

> <b_lp_Chiralities_Consistent>
1

> <s_lp_Variant>
AV-unprocessed.smi:770-1

> <Gold.Version>
5.8.1

> <Gold.Id.Protein>
6NUR|6NUR_protein|mol2

> <Gold.PLP.Fitness>
47.5814

> <Gold.PLP.PLP>
-42.6206

> <Gold.PLP.part.hbond>
-2.8684

> <Gold.PLP.part.metal>
0.0000

> <Gold.PLP.part.buried>
-0.1680

> <Gold.PLP.part.nonpolar>
-38.8730

> <Gold.PLP.part.repulsive>
0.1919

> <Gold.PLP.ligand.clash>
0.0000

> <Gold.PLP.ligand.torsion>
0.5263

> <Gold.PLP.Chemscore.Hbond>
1.0000

> <Gold.PLP.Chemscore.CHOScore>
1.0000

> <Gold.PLP.Chemscore.Metal>
0.0000

> <Gold.Chemscore.Hbonds>
donor molecule, donor type, donor heavy atom, donor atom, acceptor molecule, acceptor atom, score
      L1  H     4    23       P1  7948  0.50
      L1  C    11    29       P1  8028  1.00

> <Gold.PLP.Chemscore.Internal.Correction>
0.0135

> <Gold.Rescore>
     Score         DG    S(hbond)    S(metal)    S(lipo)     H(rot)  DE(clash)    DE(int)     intcor
     14.13     -14.74       0.85        0.00      92.61       1.73       0.06       0.56       ----

> <Gold.Chemscore.Fitness>
14.1262

> <Gold.Chemscore.DG>
-14.7380

> <Gold.Chemscore.ZeroCoef>
-5.4800

> <Gold.Chemscore.Hbond>
0.8512

> <Gold.Chemscore.Metal>
0.0000

> <Gold.Chemscore.Lipo>
92.6114

> <Gold.Chemscore.Internal_Hbond>
0.0000

> <Gold.Chemscore.DEClash>
0.0558

> <Gold.Chemscore.DEInternal>
0.5560

> <Gold.Chemscore.Rot>
1.7267

> <Gold.Chemscore.Internal.Correction>
   9.000000E+99

> <Gold.Chemscore.Hbonds>
donor molecule, donor type, donor heavy atom, donor atom, acceptor molecule, acceptor atom, score
      L1  H     4    23       P1  7948  0.02

> <Gold.Chemscore.Hbond.Weighted>
-2.8429

> <Gold.Chemscore.Metal.Weighted>
-0.0000

> <Gold.Chemscore.Lipo.Weighted>
-10.8355

> <Gold.Chemscore.Internal_Hbond.Weighted>
0.0000

> <Gold.Chemscore.DEClash.Weighted>
0.0558

> <Gold.Chemscore.DEInternal.Weighted>
0.5560

> <Gold.Chemscore.Rot.Weighted>
4.4204

> <Gold.Chemscore.Internal.Correction.Weighted>
   9.000000E+99

> <Gold.Protein.RotatedTorsions>
[ 6907 6896 6895 6894 ] final   75.51 input  -60.11 | X-H torsion
[ 7974 7965 7964 7962 ] final -132.08 input  175.53 | X-H torsion
[ 8008 7997 7996 7995 ] final  -87.91 input   59.86 | X-H torsion
[ 10167 10162 10161 10158 ] final -164.64 input  -65.29 | X-H torsion
[ 10718 10713 10712 10709 ] final -115.56 input   66.30 | X-H torsion
[ 10763 10752 10751 10750 ] final  -66.47 input  -60.55 | X-H torsion
[ 11005 11000 10999 10996 ] final -119.28 input  -57.11 | X-H torsion

> <Gold.Protein.ActiveResidues>
 VAL166  LYS551  ARG553  GLY616  TRP617  ASP618  TYR619  PRO620  LYS621  CYS622 
 ASP623  PHE694  ASN695  SER759  ASP760  ASP761  ALA762  ILE779  LEU786  VAL792 
 PHE793  MET794  SER795  GLU796  ALA797  LYS798  CYS799  TRP800  GLU811  SER814 

> <Gold.Protein.RotatedAtoms>
  152.5029  134.4109  159.9448 H   0  0  0  0  0  0  0  0  0  0  0  0  # atno 6907 bound_to 6896
  151.4077  133.3731  159.2748 H   0  0  0  0  0  0  0  0  0  0  0  0  # atno 6908 bound_to 6896
  150.9314  134.8751  159.7613 H   0  0  0  0  0  0  0  0  0  0  0  0  # atno 6909 bound_to 6896
  144.9318  140.7138  143.4901 H   0  0  0  0  0  0  0  0  0  0  0  0  # atno 7974 bound_to 7965
  154.6686  140.0560  157.0141 H   0  0  0  0  0  0  0  0  0  0  0  0  # atno 8008 bound_to 7997
  155.1122  140.3239  155.4500 H   0  0  0  0  0  0  0  0  0  0  0  0  # atno 8009 bound_to 7997
  156.2648  140.2012  156.6246 H   0  0  0  0  0  0  0  0  0  0  0  0  # atno 8010 bound_to 7997
  139.6236  144.0575  152.1955 H   0  0  0  0  0  0  0  0  0  0  0  0  # atno 10167 bound_to 10162
  156.0904  130.6088  150.8922 H   0  0  0  0  0  0  0  0  0  0  0  0  # atno 10718 bound_to 10713
  154.3602  135.6117  153.5687 H   0  0  0  0  0  0  0  0  0  0  0  0  # atno 10763 bound_to 10752
  152.9794  135.5813  154.4642 H   0  0  0  0  0  0  0  0  0  0  0  0  # atno 10764 bound_to 10752
  154.4378  135.2849  155.1846 H   0  0  0  0  0  0  0  0  0  0  0  0  # atno 10765 bound_to 10752
  141.0226  134.0101  157.3260 H   0  0  0  0  0  0  0  0  0  0  0  0  # atno 11005 bound_to 11000
  145.3129  139.1813  143.4629 LP  0  0  0  0  0  0  0  0  0  0  0  0  # atno 17320 bound_to 7965
  146.3250  140.3136  142.8628 LP  0  0  0  0  0  0  0  0  0  0  0  0  # atno 17321 bound_to 7965
  140.0223  144.6143  150.7556 LP  0  0  0  0  0  0  0  0  0  0  0  0  # atno 17342 bound_to 10162
  140.7397  143.2795  151.3641 LP  0  0  0  0  0  0  0  0  0  0  0  0  # atno 17343 bound_to 10162
  157.6051  131.0939  150.8892 LP  0  0  0  0  0  0  0  0  0  0  0  0  # atno 17370 bound_to 10713
  156.9042  130.5257  149.5282 LP  0  0  0  0  0  0  0  0  0  0  0  0  # atno 17371 bound_to 10713
  139.9156  135.0196  156.7866 LP  0  0  0  0  0  0  0  0  0  0  0  0  # atno 17394 bound_to 11000
  140.6546  133.9700  155.7773 LP  0  0  0  0  0  0  0  0  0  0  0  0  # atno 17395 bound_to 11000

$$$$
