AV-unprocessed.smi:2078|AV-procd|sdf|8463|dock3
  -GOLD-   2272011163D 1   1.00000     0.00000
 Structure written by MMmdl.
 42 43  0  0  0  0  0  0  0  0  2 V2000
  151.6156  141.2217  158.0188 C   0  0  0  0  0  0  0  0  0  0  0  0
  151.3255  140.4982  156.7487 C   0  0  0  0  0  0  0  0  0  0  0  0
  150.1758  140.0020  156.2014 C   0  0  0  0  0  0  0  0  0  0  0  0
  150.6225  139.4378  154.9771 C   0  0  0  0  0  0  0  0  0  0  0  0
  149.7124  138.8077  154.0902 N   0  0  0  0  0  0  0  0  0  0  0  0
  148.5311  139.2816  153.6593 C   0  0  0  0  0  0  0  0  0  0  0  0
  148.0419  140.3665  153.9762 O   0  0  0  0  0  0  0  0  0  0  0  0
  147.9282  138.4172  152.8298 N   0  0  0  0  0  0  0  0  0  0  0  0
  146.6348  138.6430  152.1953 C   0  0  0  0  0  0  0  0  0  0  0  0
  145.6388  137.5144  152.5253 C   0  0  0  0  0  0  0  0  0  0  0  0
  146.2591  136.1692  152.4312 N   0  3  1  0  0  0  0  0  0  0  0  0
  146.4004  135.5216  153.7607 C   0  0  0  0  0  0  0  0  0  0  0  0
  147.1680  134.1947  153.6515 C   0  0  0  0  0  0  0  0  0  0  0  0
  146.4874  133.2472  152.6557 C   0  0  0  0  0  0  0  0  0  0  0  0
  146.3169  133.9388  151.2925 C   0  0  1  0  0  0  0  0  0  0  0  0
  145.6099  133.0228  150.2834 C   0  0  0  0  0  0  0  0  0  0  0  0
  145.5688  135.2768  151.4610 C   0  0  0  0  0  0  0  0  0  0  0  0
  151.9266  139.5763  154.7937 N   0  0  0  0  0  0  0  0  0  0  0  0
  152.3838  140.2568  155.9284 O   0  0  0  0  0  0  0  0  0  0  0  0
  150.7124  141.3346  158.6186 H   0  0  0  0  0  0  0  0  0  0  0  0
  152.0127  142.2160  157.8144 H   0  0  0  0  0  0  0  0  0  0  0  0
  152.3506  140.6790  158.6134 H   0  0  0  0  0  0  0  0  0  0  0  0
  149.1779  140.0396  156.6132 H   0  0  0  0  0  0  0  0  0  0  0  0
  149.9908  137.8995  153.7498 H   0  0  0  0  0  0  0  0  0  0  0  0
  148.3986  137.5492  152.6179 H   0  0  0  0  0  0  0  0  0  0  0  0
  146.2544  139.6179  152.5016 H   0  0  0  0  0  0  0  0  0  0  0  0
  146.7901  138.6966  151.1175 H   0  0  0  0  0  0  0  0  0  0  0  0
  145.2760  137.6763  153.5415 H   0  0  0  0  0  0  0  0  0  0  0  0
  144.7613  137.5561  151.8779 H   0  0  0  0  0  0  0  0  0  0  0  0
  146.9340  136.1859  154.4415 H   0  0  0  0  0  0  0  0  0  0  0  0
  145.4121  135.3523  154.1915 H   0  0  0  0  0  0  0  0  0  0  0  0
  148.1932  134.3882  153.3327 H   0  0  0  0  0  0  0  0  0  0  0  0
  147.2334  133.7203  154.6311 H   0  0  0  0  0  0  0  0  0  0  0  0
  147.0774  132.3362  152.5479 H   0  0  0  0  0  0  0  0  0  0  0  0
  145.5142  132.9444  153.0451 H   0  0  0  0  0  0  0  0  0  0  0  0
  147.3107  134.1561  150.8975 H   0  0  0  0  0  0  0  0  0  0  0  0
  144.6037  132.7660  150.6166 H   0  0  0  0  0  0  0  0  0  0  0  0
  146.1617  132.0927  150.1440 H   0  0  0  0  0  0  0  0  0  0  0  0
  145.5249  133.5035  149.3084 H   0  0  0  0  0  0  0  0  0  0  0  0
  144.5463  135.0974  151.7981 H   0  0  0  0  0  0  0  0  0  0  0  0
  145.4959  135.7657  150.4903 H   0  0  0  0  0  0  0  0  0  0  0  0
  147.1980  136.3103  152.0872 H   0  0  0  0  0  0  0  0  0  0  0  0
  1  2  1  0  0  0  0
  1 20  1  0  0  0  0
  1 21  1  0  0  0  0
  1 22  1  0  0  0  0
  2 19  1  0  0  0  0
  2  3  2  0  0  0  0
  3  4  1  0  0  0  0
  3 23  1  0  0  0  0
  4  5  1  0  0  0  0
  4 18  2  0  0  0  0
  5  6  1  0  0  0  0
  5 24  1  0  0  0  0
  6  7  2  0  0  0  0
  6  8  1  0  0  0  0
  8  9  1  0  0  0  0
  8 25  1  0  0  0  0
  9 10  1  0  0  0  0
  9 26  1  0  0  0  0
  9 27  1  0  0  0  0
 10 11  1  0  0  0  0
 10 28  1  0  0  0  0
 10 29  1  0  0  0  0
 11 17  1  0  0  0  0
 11 12  1  0  0  0  0
 11 42  1  0  0  0  0
 12 13  1  0  0  0  0
 12 30  1  0  0  0  0
 12 31  1  0  0  0  0
 13 14  1  0  0  0  0
 13 32  1  0  0  0  0
 13 33  1  0  0  0  0
 14 15  1  0  0  0  0
 14 34  1  0  0  0  0
 14 35  1  0  0  0  0
 15 16  1  0  0  0  0
 15 17  1  0  0  0  0
 15 36  1  0  0  0  0
 16 37  1  0  0  0  0
 16 38  1  0  0  0  0
 16 39  1  0  0  0  0
 17 40  1  0  0  0  0
 17 41  1  0  0  0  0
 18 19  1  0  0  0  0
M  CHG  1  11   1
M  END
> <s_m_source_file>
AV-unprocessed.smi

> <i_m_source_file_index>
2078

> <i_lp_mmshare_version>
43012

> <i_f3d_flags>
0

> <s_epik_input>
W0NIM11jMVtjSF1jKG5vMSlbTkhdQyg9TylbTkhdW0NIMl1bQ0gyXU4yW0NIMl1bQ0gyXVtDSDJdW0NAQEhdKFtDSDNdKVtDSDJdMg==

> <s_epik_cmdline>
J2VwaWtfcHl0aG9uJywgJy1waCcsICc3LjAnLCAnLXRuJywgJzgnLCAnLW1hJywgJzIwMCcsICctbWV0YWxfYmluZGluZycsICctaW1hZScsICc8aW5maWxlLm1hZT4nLCAnLW9tYWUnLCAnPG91dGZpbGUubWFlPic=

> <r_epik_Ionization_Penalty>
0.00216453

> <r_epik_Ionization_Penalty_Charging>
0.00212879

> <r_epik_Ionization_Penalty_Neutral>
3.57418e-05

> <r_epik_State_Penalty>
0.00146033

> <r_epik_Charging_Adjusted_Penalty>
0.00358912

> <i_epik_Tot_Q>
1

> <i_epik_Tot_abs_Q>
1

> <r_epik_Metal_State_Penalty>
0.0215827

> <b_epik_Metal_Only>
0

> <s_lp_Force_Field>
OPLS_2005

> <r_lp_Energy>
12.7312

> <b_lp_Chiralities_Consistent>
1

> <s_lp_Variant>
AV-unprocessed.smi:2078-1

> <Gold.Version>
5.8.1

> <Gold.Id.Protein>
6NUR|6NUR_protein|mol2

> <Gold.PLP.Fitness>
40.8382

> <Gold.PLP.PLP>
-29.3402

> <Gold.PLP.part.hbond>
-5.3807

> <Gold.PLP.part.metal>
0.0000

> <Gold.PLP.part.buried>
-0.6050

> <Gold.PLP.part.nonpolar>
-23.7995

> <Gold.PLP.part.repulsive>
0.3190

> <Gold.PLP.ligand.clash>
0.0000

> <Gold.PLP.ligand.torsion>
1.2183

> <Gold.PLP.Chemscore.Hbond>
4.6344

> <Gold.PLP.Chemscore.CHOScore>
0.0000

> <Gold.PLP.Chemscore.Metal>
0.0000

> <Gold.Chemscore.Hbonds>
donor molecule, donor type, donor heavy atom, donor atom, acceptor molecule, acceptor atom, score
      L1  H     8    25       P1  7948  1.00
      L1  H    11    42       P1  7948  2.00
      P1  H  7989  7998       L1    18  0.58
      P1  H  7997  8008       L1    19  0.99

> <Gold.PLP.Chemscore.Internal.Correction>
0.0313

> <Gold.Rescore>
     Score         DG    S(hbond)    S(metal)    S(lipo)     H(rot)  DE(clash)    DE(int)     intcor
     16.72     -18.05       2.99        0.00      56.48       1.57       0.08       1.25       ----

> <Gold.Chemscore.Fitness>
16.7242

> <Gold.Chemscore.DG>
-18.0543

> <Gold.Chemscore.ZeroCoef>
-5.4800

> <Gold.Chemscore.Hbond>
2.9894

> <Gold.Chemscore.Metal>
0.0000

> <Gold.Chemscore.Lipo>
56.4796

> <Gold.Chemscore.Internal_Hbond>
0.0000

> <Gold.Chemscore.DEClash>
0.0825

> <Gold.Chemscore.DEInternal>
1.2476

> <Gold.Chemscore.Rot>
1.5697

> <Gold.Chemscore.Internal.Correction>
   9.000000E+99

> <Gold.Chemscore.Hbonds>
donor molecule, donor type, donor heavy atom, donor atom, acceptor molecule, acceptor atom, score
      L1  H     8    25       P1  7948  0.98
      L1  H    11    42       P1  7948  1.00
      P1  H  7989  7998       L1    18  0.02
      P1  H  7997  8008       L1    19  0.85

> <Gold.Chemscore.Hbond.Weighted>
-9.9847

> <Gold.Chemscore.Metal.Weighted>
-0.0000

> <Gold.Chemscore.Lipo.Weighted>
-6.6081

> <Gold.Chemscore.Internal_Hbond.Weighted>
0.0000

> <Gold.Chemscore.DEClash.Weighted>
0.0825

> <Gold.Chemscore.DEInternal.Weighted>
1.2476

> <Gold.Chemscore.Rot.Weighted>
4.0185

> <Gold.Chemscore.Internal.Correction.Weighted>
   9.000000E+99

> <Gold.Protein.RotatedTorsions>
[ 6907 6896 6895 6894 ] final   28.78 input  -60.11 | X-H torsion
[ 7974 7965 7964 7962 ] final   44.74 input  175.53 | X-H torsion
[ 8008 7997 7996 7995 ] final  -48.76 input   59.86 | X-H torsion
[ 10167 10162 10161 10158 ] final  137.94 input  -65.29 | X-H torsion
[ 10718 10713 10712 10709 ] final  174.33 input   66.30 | X-H torsion
[ 10763 10752 10751 10750 ] final  -11.35 input  -60.55 | X-H torsion
[ 11005 11000 10999 10996 ] final  -83.12 input  -57.11 | X-H torsion

> <Gold.Protein.ActiveResidues>
 VAL166  LYS551  ARG553  GLY616  TRP617  ASP618  TYR619  PRO620  LYS621  CYS622 
 ASP623  PHE694  ASN695  SER759  ASP760  ASP761  ALA762  ILE779  LEU786  VAL792 
 PHE793  MET794  SER795  GLU796  ALA797  LYS798  CYS799  TRP800  GLU811  SER814 

> <Gold.Protein.RotatedAtoms>
  152.0219  134.9817  160.0570 H   0  0  0  0  0  0  0  0  0  0  0  0  # atno 6907 bound_to 6896
  152.1328  133.4413  159.4737 H   0  0  0  0  0  0  0  0  0  0  0  0  # atno 6908 bound_to 6896
  150.6858  134.2318  159.4480 H   0  0  0  0  0  0  0  0  0  0  0  0  # atno 6909 bound_to 6896
  146.0542  139.5041  142.9699 H   0  0  0  0  0  0  0  0  0  0  0  0  # atno 7974 bound_to 7965
  154.4033  140.1313  156.4391 H   0  0  0  0  0  0  0  0  0  0  0  0  # atno 8008 bound_to 7997
  155.7476  140.3488  155.5115 H   0  0  0  0  0  0  0  0  0  0  0  0  # atno 8009 bound_to 7997
  155.8980  140.1014  157.1361 H   0  0  0  0  0  0  0  0  0  0  0  0  # atno 8010 bound_to 7997
  139.5127  144.6381  151.5641 H   0  0  0  0  0  0  0  0  0  0  0  0  # atno 10167 bound_to 10162
  156.9511  131.0031  151.2948 H   0  0  0  0  0  0  0  0  0  0  0  0  # atno 10718 bound_to 10713
  153.4825  135.7017  153.5930 H   0  0  0  0  0  0  0  0  0  0  0  0  # atno 10763 bound_to 10752
  153.4137  135.3842  155.2067 H   0  0  0  0  0  0  0  0  0  0  0  0  # atno 10764 bound_to 10752
  154.8721  135.3911  154.4276 H   0  0  0  0  0  0  0  0  0  0  0  0  # atno 10765 bound_to 10752
  141.1659  133.7278  156.8673 H   0  0  0  0  0  0  0  0  0  0  0  0  # atno 11005 bound_to 11000
  145.6672  141.0226  143.1677 LP  0  0  0  0  0  0  0  0  0  0  0  0  # atno 17320 bound_to 7965
  144.7139  139.8268  143.7405 LP  0  0  0  0  0  0  0  0  0  0  0  0  # atno 17321 bound_to 7965
  140.6138  143.9386  150.6473 LP  0  0  0  0  0  0  0  0  0  0  0  0  # atno 17342 bound_to 10162
  140.2638  143.3505  152.1299 LP  0  0  0  0  0  0  0  0  0  0  0  0  # atno 17343 bound_to 10162
  157.5721  130.8317  149.8405 LP  0  0  0  0  0  0  0  0  0  0  0  0  # atno 17370 bound_to 10713
  156.0362  130.3751  150.1554 LP  0  0  0  0  0  0  0  0  0  0  0  0  # atno 17371 bound_to 10713
  140.1806  134.9035  157.2944 LP  0  0  0  0  0  0  0  0  0  0  0  0  # atno 17394 bound_to 11000
  140.2399  134.3808  155.7485 LP  0  0  0  0  0  0  0  0  0  0  0  0  # atno 17395 bound_to 11000

$$$$
