AV-unprocessed.smi:183|AV-procd|sdf|1459|dock2
  -GOLD-   2262019263D 1   1.00000     0.00000
 Structure written by MMmdl.
 55 57  0  0  0  0  0  0  0  0  1 V2000
  152.4001  144.7295  158.5548 C   0  0  0  0  0  0  0  0  0  0  0  0
  152.1081  143.2336  158.5965 C   0  0  0  0  0  0  0  0  0  0  0  0
  152.7075  142.5087  159.3901 O   0  0  0  0  0  0  0  0  0  0  0  0
  151.1820  142.7858  157.7357 N   0  0  0  0  0  0  0  0  0  0  0  0
  150.7620  141.3967  157.6111 C   0  0  0  0  0  0  0  0  0  0  0  0
  151.3487  140.7466  156.3422 C   0  0  0  0  0  0  0  0  0  0  0  0
  150.8848  139.3740  156.1194 N   0  0  0  0  0  0  0  0  0  0  0  0
  150.8601  138.6663  157.2755 C   0  0  0  0  0  0  0  0  0  0  0  0
  152.0287  138.5530  157.9555 N   0  0  0  0  0  0  0  0  0  0  0  0
  152.0756  137.8589  159.0964 C   0  0  0  0  0  0  0  0  0  0  0  0
  151.0916  137.2064  159.7181 N   0  0  0  0  0  0  0  0  0  0  0  0
  149.9173  137.3096  159.0322 C   0  0  0  0  0  0  0  0  0  0  0  0
  149.7131  138.0125  157.8115 C   0  0  0  0  0  0  0  0  0  0  0  0
  148.3895  137.8808  157.4069 N   0  0  0  0  0  0  0  0  0  0  0  0
  147.8431  137.1461  158.3360 C   0  0  0  0  0  0  0  0  0  0  0  0
  148.6865  136.7658  159.3551 N   0  0  0  0  0  0  0  0  0  0  0  0
  148.3443  135.9545  160.5126 C   0  0  0  0  0  0  0  0  0  0  0  0
  147.5925  134.6519  160.1495 C   0  0  1  0  0  0  0  0  0  0  0  0
  146.2670  134.9849  159.7689 O   0  0  0  0  0  0  0  0  0  0  0  0
  148.2320  133.8627  159.0161 C   0  0  0  0  0  0  0  0  0  0  0  0
  147.7318  132.4478  159.2757 C   0  0  0  0  0  0  0  0  0  0  0  0
  147.7197  132.3280  160.6916 O   0  0  0  0  0  0  0  0  0  0  0  0
  147.5930  133.6148  161.2957 C   0  0  2  0  0  0  0  0  0  0  0  0
  146.3935  133.6500  162.2565 C   0  0  0  0  0  0  0  0  0  0  0  0
  151.2552  138.6597  154.8852 C   0  0  0  0  0  0  0  0  0  0  0  0
  150.5883  137.2734  154.8041 C   0  0  0  0  0  0  0  0  0  0  0  0
  152.7827  138.4841  154.7404 C   0  0  0  0  0  0  0  0  0  0  0  0
  151.5493  145.2917  158.9405 H   0  0  0  0  0  0  0  0  0  0  0  0
  152.5955  145.0540  157.5323 H   0  0  0  0  0  0  0  0  0  0  0  0
  153.2736  144.9712  159.1610 H   0  0  0  0  0  0  0  0  0  0  0  0
  150.7406  143.4540  157.1207 H   0  0  0  0  0  0  0  0  0  0  0  0
  151.0988  140.8670  158.5018 H   0  0  0  0  0  0  0  0  0  0  0  0
  149.6727  141.3429  157.6110 H   0  0  0  0  0  0  0  0  0  0  0  0
  151.1008  141.3585  155.4733 H   0  0  0  0  0  0  0  0  0  0  0  0
  152.4372  140.7518  156.3901 H   0  0  0  0  0  0  0  0  0  0  0  0
  153.0407  137.8190  159.5793 H   0  0  0  0  0  0  0  0  0  0  0  0
  146.8013  136.8625  158.3051 H   0  0  0  0  0  0  0  0  0  0  0  0
  149.2688  135.7224  161.0431 H   0  0  0  0  0  0  0  0  0  0  0  0
  147.7453  136.5582  161.1957 H   0  0  0  0  0  0  0  0  0  0  0  0
  146.3022  135.7120  159.1667 H   0  0  0  0  0  0  0  0  0  0  0  0
  147.9758  134.2322  158.0221 H   0  0  0  0  0  0  0  0  0  0  0  0
  149.3186  133.8808  159.1108 H   0  0  0  0  0  0  0  0  0  0  0  0
  146.7154  132.3238  158.8996 H   0  0  0  0  0  0  0  0  0  0  0  0
  148.3608  131.6866  158.8141 H   0  0  0  0  0  0  0  0  0  0  0  0
  148.5013  133.7470  161.8853 H   0  0  0  0  0  0  0  0  0  0  0  0
  146.2823  134.6358  162.7083 H   0  0  0  0  0  0  0  0  0  0  0  0
  146.5250  132.9285  163.0630 H   0  0  0  0  0  0  0  0  0  0  0  0
  145.4617  133.4038  161.7471 H   0  0  0  0  0  0  0  0  0  0  0  0
  150.9012  139.2410  154.0338 H   0  0  0  0  0  0  0  0  0  0  0  0
  150.9118  136.7349  153.9130 H   0  0  0  0  0  0  0  0  0  0  0  0
  149.5024  137.3469  154.7464 H   0  0  0  0  0  0  0  0  0  0  0  0
  150.8397  136.6603  155.6701 H   0  0  0  0  0  0  0  0  0  0  0  0
  153.0267  137.9179  153.8412 H   0  0  0  0  0  0  0  0  0  0  0  0
  153.1996  137.9450  155.5918 H   0  0  0  0  0  0  0  0  0  0  0  0
  153.3075  139.4355  154.6601 H   0  0  0  0  0  0  0  0  0  0  0  0
  1  2  1  0  0  0  0
  1 28  1  0  0  0  0
  1 29  1  0  0  0  0
  1 30  1  0  0  0  0
  2  3  2  0  0  0  0
  2  4  1  0  0  0  0
  4  5  1  0  0  0  0
  4 31  1  0  0  0  0
  5  6  1  0  0  0  0
  5 32  1  0  0  0  0
  5 33  1  0  0  0  0
  6  7  1  0  0  0  0
  6 34  1  0  0  0  0
  6 35  1  0  0  0  0
  7  8  1  0  0  0  0
  7 25  1  0  0  0  0
  8 13  1  0  0  0  0
  8  9  2  0  0  0  0
  9 10  1  0  0  0  0
 10 11  2  0  0  0  0
 10 36  1  0  0  0  0
 11 12  1  0  0  0  0
 12 16  1  0  0  0  0
 12 13  2  0  0  0  0
 13 14  1  0  0  0  0
 14 15  2  0  0  0  0
 15 16  1  0  0  0  0
 15 37  1  0  0  0  0
 16 17  1  0  0  0  0
 17 18  1  0  0  0  0
 17 38  1  0  0  0  0
 17 39  1  0  0  0  0
 18 23  1  0  0  0  0
 18 19  1  0  0  0  0
 18 20  1  0  0  0  0
 19 40  1  0  0  0  0
 20 21  1  0  0  0  0
 20 41  1  0  0  0  0
 20 42  1  0  0  0  0
 21 22  1  0  0  0  0
 21 43  1  0  0  0  0
 21 44  1  0  0  0  0
 22 23  1  0  0  0  0
 23 24  1  0  0  0  0
 23 45  1  0  0  0  0
 24 46  1  0  0  0  0
 24 47  1  0  0  0  0
 24 48  1  0  0  0  0
 25 26  1  0  0  0  0
 25 27  1  0  0  0  0
 25 49  1  0  0  0  0
 26 50  1  0  0  0  0
 26 51  1  0  0  0  0
 26 52  1  0  0  0  0
 27 53  1  0  0  0  0
 27 54  1  0  0  0  0
 27 55  1  0  0  0  0
M  END
> <s_m_source_file>
AV-unprocessed.smi

> <i_m_source_file_index>
183

> <i_lp_mmshare_version>
43012

> <i_f3d_flags>
0

> <s_epik_input>
W0NIM11DKD1PKVtOSF1bQ0gyXVtDSDJdTihbQ0hdKFtDSDNdKVtDSDNdKWMobltjSF1uMSljKGMxMiluW2NIXW4yW0NIMl1bQ0BAXTMoW09IXSlbQ0gyXVtDSDJdT1tDQEhdM1tDSDNd

> <s_epik_cmdline>
J2VwaWtfcHl0aG9uJywgJy1waCcsICc3LjAnLCAnLXRuJywgJzgnLCAnLW1hJywgJzIwMCcsICctbWV0YWxfYmluZGluZycsICctaW1hZScsICc8aW5maWxlLm1hZT4nLCAnLW9tYWUnLCAnPG91dGZpbGUubWFlPic=

> <r_lp_tautomer_probability>
1

> <r_epik_Ionization_Penalty>
0.00156158

> <r_epik_Ionization_Penalty_Charging>
0

> <r_epik_Ionization_Penalty_Neutral>
0.00156158

> <r_epik_State_Penalty>
0.000865808

> <r_epik_Charging_Adjusted_Penalty>
0.000865808

> <i_epik_Tot_Q>
0

> <i_epik_Tot_abs_Q>
0

> <r_epik_Metal_State_Penalty>
-0

> <b_epik_Metal_Only>
0

> <s_lp_Force_Field>
OPLS_2005

> <r_lp_Energy>
29.9876

> <b_lp_Chiralities_Consistent>
1

> <s_lp_Variant>
AV-unprocessed.smi:183-3

> <Gold.Version>
5.8.1

> <Gold.Id.Protein>
6NUR|6NUR_protein|mol2

> <Gold.PLP.Fitness>
45.3953

> <Gold.PLP.PLP>
-43.2892

> <Gold.PLP.part.hbond>
-0.8769

> <Gold.PLP.part.metal>
0.0000

> <Gold.PLP.part.buried>
-8.1938

> <Gold.PLP.part.nonpolar>
-35.5551

> <Gold.PLP.part.repulsive>
0.0207

> <Gold.PLP.ligand.clash>
0.0000

> <Gold.PLP.ligand.torsion>
0.9752

> <Gold.PLP.Chemscore.Hbond>
0.9263

> <Gold.PLP.Chemscore.CHOScore>
0.0000

> <Gold.PLP.Chemscore.Metal>
0.0000

> <Gold.Chemscore.Hbonds>
donor molecule, donor type, donor heavy atom, donor atom, acceptor molecule, acceptor atom, score
      P1  H  6896  6909       L1    11  0.89

> <Gold.PLP.Chemscore.Internal.Correction>
1.2778

> <Gold.Rescore>
     Score         DG    S(hbond)    S(metal)    S(lipo)     H(rot)  DE(clash)    DE(int)     intcor
      8.09      -8.89       0.82        0.00      81.05       3.45       0.00       0.80       ----

> <Gold.Chemscore.Fitness>
8.0875

> <Gold.Chemscore.DG>
-8.8920

> <Gold.Chemscore.ZeroCoef>
-5.4800

> <Gold.Chemscore.Hbond>
0.8229

> <Gold.Chemscore.Metal>
0.0000

> <Gold.Chemscore.Lipo>
81.0521

> <Gold.Chemscore.Internal_Hbond>
0.0000

> <Gold.Chemscore.DEClash>
0.0000

> <Gold.Chemscore.DEInternal>
0.8045

> <Gold.Chemscore.Rot>
3.4451

> <Gold.Chemscore.Internal.Correction>
   9.000000E+99

> <Gold.Chemscore.Hbonds>
donor molecule, donor type, donor heavy atom, donor atom, acceptor molecule, acceptor atom, score
      P1  H  6896  6909       L1    11  0.39

> <Gold.Chemscore.Hbond.Weighted>
-2.7483

> <Gold.Chemscore.Metal.Weighted>
-0.0000

> <Gold.Chemscore.Lipo.Weighted>
-9.4831

> <Gold.Chemscore.Internal_Hbond.Weighted>
0.0000

> <Gold.Chemscore.DEClash.Weighted>
0.0000

> <Gold.Chemscore.DEInternal.Weighted>
0.8045

> <Gold.Chemscore.Rot.Weighted>
8.8194

> <Gold.Chemscore.Internal.Correction.Weighted>
   9.000000E+99

> <Gold.Protein.RotatedTorsions>
[ 6907 6896 6895 6894 ] final  108.85 input  -60.11 | X-H torsion
[ 7974 7965 7964 7962 ] final  177.61 input  175.53 | X-H torsion
[ 8008 7997 7996 7995 ] final  -51.12 input   59.86 | X-H torsion
[ 10167 10162 10161 10158 ] final -104.04 input  -65.29 | X-H torsion
[ 10718 10713 10712 10709 ] final -154.89 input   66.30 | X-H torsion
[ 10763 10752 10751 10750 ] final  176.20 input  -60.55 | X-H torsion
[ 11005 11000 10999 10996 ] final  170.87 input  -57.11 | X-H torsion

> <Gold.Protein.ActiveResidues>
 VAL166  LYS551  ARG553  GLY616  TRP617  ASP618  TYR619  PRO620  LYS621  CYS622 
 ASP623  PHE694  ASN695  SER759  ASP760  ASP761  ALA762  ILE779  LEU786  VAL792 
 PHE793  MET794  SER795  GLU796  ALA797  LYS798  CYS799  TRP800  GLU811  SER814 

> <Gold.Protein.RotatedAtoms>
  152.5094  133.9028  159.7449 H   0  0  0  0  0  0  0  0  0  0  0  0  # atno 6907 bound_to 6896
  150.9440  133.6615  159.2792 H   0  0  0  0  0  0  0  0  0  0  0  0  # atno 6908 bound_to 6896
  151.3917  135.0962  159.9581 H   0  0  0  0  0  0  0  0  0  0  0  0  # atno 6909 bound_to 6896
  144.7167  140.0273  143.6439 H   0  0  0  0  0  0  0  0  0  0  0  0  # atno 7974 bound_to 7965
  154.4076  140.1255  156.4778 H   0  0  0  0  0  0  0  0  0  0  0  0  # atno 8008 bound_to 7997
  155.7115  140.3494  155.4956 H   0  0  0  0  0  0  0  0  0  0  0  0  # atno 8009 bound_to 7997
  155.9296  140.1067  157.1133 H   0  0  0  0  0  0  0  0  0  0  0  0  # atno 8010 bound_to 7997
  140.2135  143.3729  152.1030 H   0  0  0  0  0  0  0  0  0  0  0  0  # atno 10167 bound_to 10162
  156.5054  130.8410  151.2626 H   0  0  0  0  0  0  0  0  0  0  0  0  # atno 10718 bound_to 10713
  154.4779  135.2773  155.1593 H   0  0  0  0  0  0  0  0  0  0  0  0  # atno 10763 bound_to 10752
  154.3315  135.6189  153.5557 H   0  0  0  0  0  0  0  0  0  0  0  0  # atno 10764 bound_to 10752
  152.9871  135.5767  154.5173 H   0  0  0  0  0  0  0  0  0  0  0  0  # atno 10765 bound_to 10752
  140.3129  134.7501  157.4005 H   0  0  0  0  0  0  0  0  0  0  0  0  # atno 11005 bound_to 11000
  146.0131  139.3187  143.0858 LP  0  0  0  0  0  0  0  0  0  0  0  0  # atno 17320 bound_to 7965
  145.8657  140.9449  143.0676 LP  0  0  0  0  0  0  0  0  0  0  0  0  # atno 17321 bound_to 7965
  139.5171  144.6987  151.5557 LP  0  0  0  0  0  0  0  0  0  0  0  0  # atno 17342 bound_to 10162
  140.6306  143.9083  150.6602 LP  0  0  0  0  0  0  0  0  0  0  0  0  # atno 17343 bound_to 10162
  157.7457  130.9967  150.2791 LP  0  0  0  0  0  0  0  0  0  0  0  0  # atno 17370 bound_to 10713
  156.3292  130.3797  149.7506 LP  0  0  0  0  0  0  0  0  0  0  0  0  # atno 17371 bound_to 10713
  140.1008  134.5474  155.8354 LP  0  0  0  0  0  0  0  0  0  0  0  0  # atno 17394 bound_to 11000
  141.2104  133.6694  156.6507 LP  0  0  0  0  0  0  0  0  0  0  0  0  # atno 17395 bound_to 11000

$$$$
