AV-unprocessed.smi:2078|AV-procd|sdf|8470|dock1
  -GOLD-   2272011173D 1   1.00000     0.00000
 Structure written by MMmdl.
 41 42  0  0  0  0  0  0  0  0  3 V2000
  151.2677  141.3260  156.2045 C   0  0  0  0  0  0  0  0  0  0  0  0
  151.5053  139.9594  155.6588 C   0  0  0  0  0  0  0  0  0  0  0  0
  150.7749  138.8057  155.6963 C   0  0  0  0  0  0  0  0  0  0  0  0
  151.5837  137.8855  154.9756 C   0  0  0  0  0  0  0  0  0  0  0  0
  151.2954  136.5943  154.7506 N   0  5  0  0  0  0  0  0  0  0  0  0
  150.1919  136.0370  155.2994 C   0  0  0  0  0  0  0  0  0  0  0  0
  149.8623  136.0789  156.4868 O   0  0  0  0  0  0  0  0  0  0  0  0
  149.4231  135.3865  154.4160 N   0  0  0  0  0  0  0  0  0  0  0  0
  148.1863  134.6831  154.7286 C   0  0  0  0  0  0  0  0  0  0  0  0
  147.9808  133.5127  153.7548 C   0  0  0  0  0  0  0  0  0  0  0  0
  147.1661  133.8954  152.5743 N   0  3  2  0  0  0  0  0  0  0  0  0
  145.9813  134.7084  152.9519 C   0  0  0  0  0  0  0  0  0  0  0  0
  145.2342  135.2112  151.7067 C   0  0  0  0  0  0  0  0  0  0  0  0
  144.8248  134.0413  150.8035 C   0  0  0  0  0  0  0  0  0  0  0  0
  146.0541  133.1903  150.4431 C   0  0  2  0  0  0  0  0  0  0  0  0
  145.6685  131.9944  149.5609 C   0  0  0  0  0  0  0  0  0  0  0  0
  146.7850  132.7360  151.7232 C   0  0  0  0  0  0  0  0  0  0  0  0
  152.7125  138.4288  154.5505 N   0  0  0  0  0  0  0  0  0  0  0  0
  152.6661  139.7613  154.9779 O   0  0  0  0  0  0  0  0  0  0  0  0
  150.8117  141.2728  157.1930 H   0  0  0  0  0  0  0  0  0  0  0  0
  150.6000  141.8899  155.5532 H   0  0  0  0  0  0  0  0  0  0  0  0
  152.2022  141.8803  156.2938 H   0  0  0  0  0  0  0  0  0  0  0  0
  149.8148  138.6453  156.1636 H   0  0  0  0  0  0  0  0  0  0  0  0
  149.7276  135.3807  153.4533 H   0  0  0  0  0  0  0  0  0  0  0  0
  148.2154  134.3069  155.7527 H   0  0  0  0  0  0  0  0  0  0  0  0
  147.3670  135.3993  154.6701 H   0  0  0  0  0  0  0  0  0  0  0  0
  148.9381  133.1024  153.4289 H   0  0  0  0  0  0  0  0  0  0  0  0
  147.4721  132.7137  154.2965 H   0  0  0  0  0  0  0  0  0  0  0  0
  145.3143  134.1134  153.5782 H   0  0  0  0  0  0  0  0  0  0  0  0
  146.2957  135.5661  153.5478 H   0  0  0  0  0  0  0  0  0  0  0  0
  144.3516  135.7778  152.0045 H   0  0  0  0  0  0  0  0  0  0  0  0
  145.8710  135.8998  151.1496 H   0  0  0  0  0  0  0  0  0  0  0  0
  144.0819  133.4267  151.3142 H   0  0  0  0  0  0  0  0  0  0  0  0
  144.3475  134.4206  149.8993 H   0  0  0  0  0  0  0  0  0  0  0  0
  146.7403  133.8141  149.8679 H   0  0  0  0  0  0  0  0  0  0  0  0
  144.9804  131.3247  150.0779 H   0  0  0  0  0  0  0  0  0  0  0  0
  146.5476  131.4146  149.2781 H   0  0  0  0  0  0  0  0  0  0  0  0
  145.1831  132.3245  148.6418 H   0  0  0  0  0  0  0  0  0  0  0  0
  147.6737  132.1729  151.4403 H   0  0  0  0  0  0  0  0  0  0  0  0
  146.1529  132.0568  152.2978 H   0  0  0  0  0  0  0  0  0  0  0  0
  147.7506  134.4964  152.0108 H   0  0  0  0  0  0  0  0  0  0  0  0
  1  2  1  0  0  0  0
  1 20  1  0  0  0  0
  1 21  1  0  0  0  0
  1 22  1  0  0  0  0
  2 19  1  0  0  0  0
  2  3  2  0  0  0  0
  3  4  1  0  0  0  0
  3 23  1  0  0  0  0
  4  5  1  0  0  0  0
  4 18  2  0  0  0  0
  5  6  1  0  0  0  0
  6  7  2  0  0  0  0
  6  8  1  0  0  0  0
  8  9  1  0  0  0  0
  8 24  1  0  0  0  0
  9 10  1  0  0  0  0
  9 25  1  0  0  0  0
  9 26  1  0  0  0  0
 10 11  1  0  0  0  0
 10 27  1  0  0  0  0
 10 28  1  0  0  0  0
 11 17  1  0  0  0  0
 11 12  1  0  0  0  0
 11 41  1  0  0  0  0
 12 13  1  0  0  0  0
 12 29  1  0  0  0  0
 12 30  1  0  0  0  0
 13 14  1  0  0  0  0
 13 31  1  0  0  0  0
 13 32  1  0  0  0  0
 14 15  1  0  0  0  0
 14 33  1  0  0  0  0
 14 34  1  0  0  0  0
 15 16  1  0  0  0  0
 15 17  1  0  0  0  0
 15 35  1  0  0  0  0
 16 36  1  0  0  0  0
 16 37  1  0  0  0  0
 16 38  1  0  0  0  0
 17 39  1  0  0  0  0
 17 40  1  0  0  0  0
 18 19  1  0  0  0  0
M  CHG  1   5  -1
M  CHG  1  11   1
M  END
> <s_m_source_file>
AV-unprocessed.smi

> <i_m_source_file_index>
2078

> <i_lp_mmshare_version>
43012

> <i_f3d_flags>
0

> <s_epik_input>
W0NIM11jMVtjSF1jKG5vMSlbTkhdQyg9TylbTkhdW0NIMl1bQ0gyXU4yW0NIMl1bQ0gyXVtDSDJdW0NAQEhdKFtDSDNdKVtDSDJdMg==

> <s_epik_cmdline>
J2VwaWtfcHl0aG9uJywgJy1waCcsICc3LjAnLCAnLXRuJywgJzgnLCAnLW1hJywgJzIwMCcsICctbWV0YWxfYmluZGluZycsICctaW1hZScsICc8aW5maWxlLm1hZT4nLCAnLW9tYWUnLCAnPG91dGZpbGUubWFlPic=

> <r_epik_Ionization_Penalty>
6.22434

> <r_epik_Ionization_Penalty_Charging>
6.22425

> <r_epik_Ionization_Penalty_Neutral>
9.37855e-05

> <r_epik_State_Penalty>
6.22423

> <r_epik_Charging_Adjusted_Penalty>
12.4485

> <i_epik_Tot_Q>
0

> <i_epik_Tot_abs_Q>
2

> <r_epik_Metal_State_Penalty>
2.16764

> <b_epik_Metal_Only>
1

> <s_lp_Force_Field>
OPLS_2005

> <r_lp_Energy>
6.03682

> <b_lp_Chiralities_Consistent>
1

> <s_lp_Variant>
AV-unprocessed.smi:2078-8

> <Gold.Version>
5.8.1

> <Gold.Id.Protein>
6NUR|6NUR_protein|mol2

> <Gold.PLP.Fitness>
47.7923

> <Gold.PLP.PLP>
-33.5247

> <Gold.PLP.part.hbond>
-5.0000

> <Gold.PLP.part.metal>
0.0000

> <Gold.PLP.part.buried>
-4.0760

> <Gold.PLP.part.nonpolar>
-24.2719

> <Gold.PLP.part.repulsive>
0.2686

> <Gold.PLP.ligand.clash>
0.0000

> <Gold.PLP.ligand.torsion>
0.9384

> <Gold.PLP.Chemscore.Hbond>
5.3431

> <Gold.PLP.Chemscore.CHOScore>
0.0000

> <Gold.PLP.Chemscore.Metal>
0.0000

> <Gold.Chemscore.Hbonds>
donor molecule, donor type, donor heavy atom, donor atom, acceptor molecule, acceptor atom, score
      L1  H     8    24       P1  7948  0.30
      L1  H    11    41       P1  7948  1.82
      P1  H  7989  7998       L1    19  0.07
      P1  H  7997  8008       L1    19  0.94
      P1  H 10752 10765       L1     5  2.00

> <Gold.PLP.Chemscore.Internal.Correction>
0.1150

> <Gold.Rescore>
     Score         DG    S(hbond)    S(metal)    S(lipo)     H(rot)  DE(clash)    DE(int)     intcor
     14.93     -17.16       2.48        0.00      62.64       1.54       0.26       1.97       ----

> <Gold.Chemscore.Fitness>
14.9254

> <Gold.Chemscore.DG>
-17.1599

> <Gold.Chemscore.ZeroCoef>
-5.4800

> <Gold.Chemscore.Hbond>
2.4836

> <Gold.Chemscore.Metal>
0.0000

> <Gold.Chemscore.Lipo>
62.6442

> <Gold.Chemscore.Internal_Hbond>
0.0000

> <Gold.Chemscore.DEClash>
0.2608

> <Gold.Chemscore.DEInternal>
1.9737

> <Gold.Chemscore.Rot>
1.5409

> <Gold.Chemscore.Internal.Correction>
   9.000000E+99

> <Gold.Chemscore.Hbonds>
donor molecule, donor type, donor heavy atom, donor atom, acceptor molecule, acceptor atom, score
      L1  H     8    24       P1  7948  0.01
      L1  H    11    41       P1  7948  0.29
      P1  H  7997  8008       L1    19  0.57
      P1  H 10752 10765       L1     5  0.69

> <Gold.Chemscore.Hbond.Weighted>
-8.2952

> <Gold.Chemscore.Metal.Weighted>
-0.0000

> <Gold.Chemscore.Lipo.Weighted>
-7.3294

> <Gold.Chemscore.Internal_Hbond.Weighted>
0.0000

> <Gold.Chemscore.DEClash.Weighted>
0.2608

> <Gold.Chemscore.DEInternal.Weighted>
1.9737

> <Gold.Chemscore.Rot.Weighted>
3.9446

> <Gold.Chemscore.Internal.Correction.Weighted>
   9.000000E+99

> <Gold.Protein.RotatedTorsions>
[ 6907 6896 6895 6894 ] final -169.57 input  -60.11 | X-H torsion
[ 7974 7965 7964 7962 ] final  145.28 input  175.53 | X-H torsion
[ 8008 7997 7996 7995 ] final  -14.05 input   59.86 | X-H torsion
[ 10167 10162 10161 10158 ] final  -92.12 input  -65.29 | X-H torsion
[ 10718 10713 10712 10709 ] final -119.55 input   66.30 | X-H torsion
[ 10763 10752 10751 10750 ] final  176.78 input  -60.55 | X-H torsion
[ 11005 11000 10999 10996 ] final  -34.95 input  -57.11 | X-H torsion

> <Gold.Protein.ActiveResidues>
 VAL166  LYS551  ARG553  GLY616  TRP617  ASP618  TYR619  PRO620  LYS621  CYS622 
 ASP623  PHE694  ASN695  SER759  ASP760  ASP761  ALA762  ILE779  LEU786  VAL792 
 PHE793  MET794  SER795  GLU796  ALA797  LYS798  CYS799  TRP800  GLU811  SER814 

> <Gold.Protein.RotatedAtoms>
  151.4938  133.3519  159.2857 H   0  0  0  0  0  0  0  0  0  0  0  0  # atno 6907 bound_to 6896
  150.8817  134.8211  159.7241 H   0  0  0  0  0  0  0  0  0  0  0  0  # atno 6908 bound_to 6896
  152.4767  134.4836  159.9725 H   0  0  0  0  0  0  0  0  0  0  0  0  # atno 6909 bound_to 6896
  144.8766  139.5764  143.5862 H   0  0  0  0  0  0  0  0  0  0  0  0  # atno 7974 bound_to 7965
  154.5242  140.2233  155.8921 H   0  0  0  0  0  0  0  0  0  0  0  0  # atno 8008 bound_to 7997
  156.1695  140.3125  155.8912 H   0  0  0  0  0  0  0  0  0  0  0  0  # atno 8009 bound_to 7997
  155.3588  140.0460  157.3037 H   0  0  0  0  0  0  0  0  0  0  0  0  # atno 8010 bound_to 7997
  140.3380  143.2957  151.9867 H   0  0  0  0  0  0  0  0  0  0  0  0  # atno 10167 bound_to 10162
  156.1190  130.6308  150.9430 H   0  0  0  0  0  0  0  0  0  0  0  0  # atno 10718 bound_to 10713
  154.4858  135.2777  155.1536 H   0  0  0  0  0  0  0  0  0  0  0  0  # atno 10763 bound_to 10752
  154.3227  135.6206  153.5519 H   0  0  0  0  0  0  0  0  0  0  0  0  # atno 10764 bound_to 10752
  152.9881  135.5746  154.5268 H   0  0  0  0  0  0  0  0  0  0  0  0  # atno 10765 bound_to 10752
  140.9757  133.7084  156.1599 H   0  0  0  0  0  0  0  0  0  0  0  0  # atno 11005 bound_to 11000
  146.2966  139.7298  142.9122 LP  0  0  0  0  0  0  0  0  0  0  0  0  # atno 17320 bound_to 7965
  145.4032  141.0387  143.3059 LP  0  0  0  0  0  0  0  0  0  0  0  0  # atno 17321 bound_to 7965
  139.4845  144.6180  151.7309 LP  0  0  0  0  0  0  0  0  0  0  0  0  # atno 17342 bound_to 10162
  140.5335  144.0693  150.6062 LP  0  0  0  0  0  0  0  0  0  0  0  0  # atno 17343 bound_to 10162
  157.6373  131.0914  150.8322 LP  0  0  0  0  0  0  0  0  0  0  0  0  # atno 17370 bound_to 10713
  156.8421  130.5051  149.5320 LP  0  0  0  0  0  0  0  0  0  0  0  0  # atno 17371 bound_to 10713
  140.7262  134.4305  157.5570 LP  0  0  0  0  0  0  0  0  0  0  0  0  # atno 17394 bound_to 11000
  139.8930  134.8742  156.2245 LP  0  0  0  0  0  0  0  0  0  0  0  0  # atno 17395 bound_to 11000

$$$$
