AV-unprocessed.smi:568|AV-procd|sdf|2957|dock6
  -GOLD-   2262023463D 1   1.00000     0.00000
 Structure written by MMmdl.
 35 36  0  0  0  0  0  0  0  0  1 V2000
  153.7961  141.2436  161.9192 C   0  0  0  0  0  0  0  0  0  0  0  0
  153.1585  142.5513  161.5467 C   0  0  0  0  0  0  0  0  0  0  0  0
  152.9433  143.4590  162.4840 N   0  0  0  0  0  0  0  0  0  0  0  0
  152.3500  144.5462  161.8357 O   0  0  0  0  0  0  0  0  0  0  0  0
  152.2309  144.2479  160.5173 C   0  0  0  0  0  0  0  0  0  0  0  0
  151.6141  145.2935  159.6507 C   0  0  0  0  0  0  0  0  0  0  0  0
  152.7256  142.9973  160.2646 C   0  0  0  0  0  0  0  0  0  0  0  0
  152.7970  142.2574  158.9525 C   0  0  0  0  0  0  0  0  0  0  0  0
  151.4751  141.5335  158.6951 C   0  0  0  0  0  0  0  0  0  0  0  0
  151.1997  140.5080  159.3172 O   0  0  0  0  0  0  0  0  0  0  0  0
  150.6649  142.0838  157.7800 N   0  0  0  0  0  0  0  0  0  0  0  0
  149.3417  141.5870  157.4305 C   0  0  0  0  0  0  0  0  0  0  0  0
  149.1346  141.6261  155.9077 C   0  0  2  0  0  0  0  0  0  0  0  0
  147.7154  141.3427  155.4534 C   0  0  0  0  0  0  0  0  0  0  0  0
  147.9221  140.9744  153.9874 C   0  0  0  0  0  0  0  0  0  0  0  0
  149.2160  140.3817  153.9110 O   0  0  0  0  0  0  0  0  0  0  0  0
  149.9069  140.5505  155.1454 C   0  0  0  0  0  0  0  0  0  0  0  0
  153.4987  140.4490  161.2349 H   0  0  0  0  0  0  0  0  0  0  0  0
  153.5107  140.9323  162.9245 H   0  0  0  0  0  0  0  0  0  0  0  0
  154.8832  141.3183  161.8891 H   0  0  0  0  0  0  0  0  0  0  0  0
  151.0872  144.8438  158.8092 H   0  0  0  0  0  0  0  0  0  0  0  0
  152.3776  145.9621  159.2533 H   0  0  0  0  0  0  0  0  0  0  0  0
  150.8970  145.8923  160.2124 H   0  0  0  0  0  0  0  0  0  0  0  0
  152.9975  142.9345  158.1216 H   0  0  0  0  0  0  0  0  0  0  0  0
  153.6100  141.5304  158.9521 H   0  0  0  0  0  0  0  0  0  0  0  0
  150.9747  142.9255  157.3166 H   0  0  0  0  0  0  0  0  0  0  0  0
  149.2357  140.5654  157.7978 H   0  0  0  0  0  0  0  0  0  0  0  0
  148.5789  142.1885  157.9285 H   0  0  0  0  0  0  0  0  0  0  0  0
  149.4344  142.6035  155.5251 H   0  0  0  0  0  0  0  0  0  0  0  0
  147.3035  140.4924  155.9990 H   0  0  0  0  0  0  0  0  0  0  0  0
  147.0420  142.1902  155.5850 H   0  0  0  0  0  0  0  0  0  0  0  0
  147.1511  140.2994  153.6156 H   0  0  0  0  0  0  0  0  0  0  0  0
  147.9151  141.8709  153.3665 H   0  0  0  0  0  0  0  0  0  0  0  0
  150.9506  140.8212  154.9835 H   0  0  0  0  0  0  0  0  0  0  0  0
  149.8839  139.6016  155.6835 H   0  0  0  0  0  0  0  0  0  0  0  0
  1  2  1  0  0  0  0
  1 18  1  0  0  0  0
  1 19  1  0  0  0  0
  1 20  1  0  0  0  0
  2  7  1  0  0  0  0
  2  3  2  0  0  0  0
  3  4  1  0  0  0  0
  4  5  1  0  0  0  0
  5  6  1  0  0  0  0
  5  7  2  0  0  0  0
  6 21  1  0  0  0  0
  6 22  1  0  0  0  0
  6 23  1  0  0  0  0
  7  8  1  0  0  0  0
  8  9  1  0  0  0  0
  8 24  1  0  0  0  0
  8 25  1  0  0  0  0
  9 10  2  0  0  0  0
  9 11  1  0  0  0  0
 11 12  1  0  0  0  0
 11 26  1  0  0  0  0
 12 13  1  0  0  0  0
 12 27  1  0  0  0  0
 12 28  1  0  0  0  0
 13 17  1  0  0  0  0
 13 14  1  0  0  0  0
 13 29  1  0  0  0  0
 14 15  1  0  0  0  0
 14 30  1  0  0  0  0
 14 31  1  0  0  0  0
 15 16  1  0  0  0  0
 15 32  1  0  0  0  0
 15 33  1  0  0  0  0
 16 17  1  0  0  0  0
 17 34  1  0  0  0  0
 17 35  1  0  0  0  0
M  END
> <s_m_source_file>
AV-unprocessed.smi

> <i_m_source_file_index>
568

> <i_lp_mmshare_version>
43012

> <i_f3d_flags>
0

> <s_epik_input>
W0NIM11jMW5vYyhbQ0gzXSljMVtDSDJdQyg9TylbTkhdW0NIMl1bQ0BASF0yW0NIMl1bQ0gyXU9bQ0gyXTI=

> <s_epik_cmdline>
J2VwaWtfcHl0aG9uJywgJy1waCcsICc3LjAnLCAnLXRuJywgJzgnLCAnLW1hJywgJzIwMCcsICctbWV0YWxfYmluZGluZycsICctaW1hZScsICc8aW5maWxlLm1hZT4nLCAnLW9tYWUnLCAnPG91dGZpbGUubWFlPic=

> <r_lp_tautomer_probability>
1

> <r_epik_Ionization_Penalty>
2.07075e-08

> <r_epik_Ionization_Penalty_Charging>
0

> <r_epik_Ionization_Penalty_Neutral>
2.07075e-08

> <r_epik_State_Penalty>
-0

> <r_epik_Charging_Adjusted_Penalty>
0

> <i_epik_Tot_Q>
0

> <i_epik_Tot_abs_Q>
0

> <r_epik_Metal_State_Penalty>
-0

> <b_epik_Metal_Only>
0

> <s_lp_Force_Field>
OPLS_2005

> <r_lp_Energy>
12.0647

> <b_lp_Chiralities_Consistent>
1

> <s_lp_Variant>
AV-unprocessed.smi:568-1

> <Gold.Version>
5.8.1

> <Gold.Id.Protein>
6NUR|6NUR_protein|mol2

> <Gold.PLP.Fitness>
35.4801

> <Gold.PLP.PLP>
-34.2357

> <Gold.PLP.part.hbond>
-1.8298

> <Gold.PLP.part.metal>
0.0000

> <Gold.PLP.part.buried>
-2.2427

> <Gold.PLP.part.nonpolar>
-30.3527

> <Gold.PLP.part.repulsive>
1.8071

> <Gold.PLP.ligand.clash>
0.0000

> <Gold.PLP.ligand.torsion>
0.7273

> <Gold.PLP.Chemscore.Hbond>
0.8960

> <Gold.PLP.Chemscore.CHOScore>
0.0000

> <Gold.PLP.Chemscore.Metal>
0.0000

> <Gold.PLP.Chemscore.Internal.Correction>
0.0111

> <Gold.Rescore>
     Score         DG    S(hbond)    S(metal)    S(lipo)     H(rot)  DE(clash)    DE(int)     intcor
     12.67     -15.34       0.68        0.00      98.77       1.56       1.78       0.89       ----

> <Gold.Chemscore.Fitness>
12.6672

> <Gold.Chemscore.DG>
-15.3423

> <Gold.Chemscore.ZeroCoef>
-5.4800

> <Gold.Chemscore.Hbond>
0.6849

> <Gold.Chemscore.Metal>
0.0000

> <Gold.Chemscore.Lipo>
98.7672

> <Gold.Chemscore.Internal_Hbond>
0.0000

> <Gold.Chemscore.DEClash>
1.7812

> <Gold.Chemscore.DEInternal>
0.8940

> <Gold.Chemscore.Rot>
1.5551

> <Gold.Chemscore.Internal.Correction>
   9.000000E+99

> <Gold.Chemscore.Hbond.Weighted>
-2.2875

> <Gold.Chemscore.Metal.Weighted>
-0.0000

> <Gold.Chemscore.Lipo.Weighted>
-11.5558

> <Gold.Chemscore.Internal_Hbond.Weighted>
0.0000

> <Gold.Chemscore.DEClash.Weighted>
1.7812

> <Gold.Chemscore.DEInternal.Weighted>
0.8940

> <Gold.Chemscore.Rot.Weighted>
3.9809

> <Gold.Chemscore.Internal.Correction.Weighted>
   9.000000E+99

> <Gold.Protein.RotatedTorsions>
[ 6907 6896 6895 6894 ] final -169.75 input  -60.11 | X-H torsion
[ 7974 7965 7964 7962 ] final -171.63 input  175.53 | X-H torsion
[ 8008 7997 7996 7995 ] final   53.30 input   59.86 | X-H torsion
[ 10167 10162 10161 10158 ] final -100.36 input  -65.29 | X-H torsion
[ 10718 10713 10712 10709 ] final   37.03 input   66.30 | X-H torsion
[ 10763 10752 10751 10750 ] final  156.34 input  -60.55 | X-H torsion
[ 11005 11000 10999 10996 ] final  100.88 input  -57.11 | X-H torsion

> <Gold.Protein.ActiveResidues>
 VAL166  LYS551  ARG553  GLY616  TRP617  ASP618  TYR619  PRO620  LYS621  CYS622 
 ASP623  PHE694  ASN695  SER759  ASP760  ASP761  ALA762  ILE779  LEU786  VAL792 
 PHE793  MET794  SER795  GLU796  ALA797  LYS798  CYS799  TRP800  GLU811  SER814 

> <Gold.Protein.RotatedAtoms>
  151.4966  133.3513  159.2861 H   0  0  0  0  0  0  0  0  0  0  0  0  # atno 6907 bound_to 6896
  150.8800  134.8192  159.7229 H   0  0  0  0  0  0  0  0  0  0  0  0  # atno 6908 bound_to 6896
  152.4756  134.4862  159.9733 H   0  0  0  0  0  0  0  0  0  0  0  0  # atno 6909 bound_to 6896
  144.7155  140.1894  143.6350 H   0  0  0  0  0  0  0  0  0  0  0  0  # atno 7974 bound_to 7965
  155.4659  140.3463  155.4319 H   0  0  0  0  0  0  0  0  0  0  0  0  # atno 8008 bound_to 7997
  156.1131  140.1466  156.9340 H   0  0  0  0  0  0  0  0  0  0  0  0  # atno 8009 bound_to 7997
  154.4770  140.0882  156.7265 H   0  0  0  0  0  0  0  0  0  0  0  0  # atno 8010 bound_to 7997
  140.2527  143.3461  152.0700 H   0  0  0  0  0  0  0  0  0  0  0  0  # atno 10167 bound_to 10162
  157.3420  130.7553  149.6919 H   0  0  0  0  0  0  0  0  0  0  0  0  # atno 10718 bound_to 10713
  154.1828  135.2798  155.3046 H   0  0  0  0  0  0  0  0  0  0  0  0  # atno 10763 bound_to 10752
  154.5989  135.5536  153.7357 H   0  0  0  0  0  0  0  0  0  0  0  0  # atno 10764 bound_to 10752
  153.0133  135.6387  154.1967 H   0  0  0  0  0  0  0  0  0  0  0  0  # atno 10765 bound_to 10752
  139.8772  134.9159  156.4822 H   0  0  0  0  0  0  0  0  0  0  0  0  # atno 11005 bound_to 11000
  145.8782  139.2309  143.1620 LP  0  0  0  0  0  0  0  0  0  0  0  0  # atno 17320 bound_to 7965
  146.0020  140.8512  143.0014 LP  0  0  0  0  0  0  0  0  0  0  0  0  # atno 17321 bound_to 7965
  139.5041  144.6769  151.6106 LP  0  0  0  0  0  0  0  0  0  0  0  0  # atno 17342 bound_to 10162
  140.6028  143.9579  150.6398 LP  0  0  0  0  0  0  0  0  0  0  0  0  # atno 17343 bound_to 10162
  155.9709  130.4165  150.4233 LP  0  0  0  0  0  0  0  0  0  0  0  0  # atno 17370 bound_to 10713
  157.2282  131.0498  151.2507 LP  0  0  0  0  0  0  0  0  0  0  0  0  # atno 17371 bound_to 10713
  140.8719  133.7982  155.9373 LP  0  0  0  0  0  0  0  0  0  0  0  0  # atno 17394 bound_to 11000
  140.8944  134.2455  157.5077 LP  0  0  0  0  0  0  0  0  0  0  0  0  # atno 17395 bound_to 11000

$$$$
