AV-unprocessed.smi:290|AV-procd|sdf|2225|dock5
  -GOLD-   2262022 73D 1   1.00000     0.00000
 Structure written by MMmdl.
 59 62  0  0  0  0  0  0  0  0  2 V2000
  150.0707  141.7228  156.2591 C   0  0  0  0  0  0  0  0  0  0  0  0
  149.5566  140.3233  155.8835 C   0  0  2  0  0  0  0  0  0  0  0  0
  150.5270  139.3287  156.2091 O   0  0  0  0  0  0  0  0  0  0  0  0
  150.8948  138.6075  155.0423 C   0  0  0  0  0  0  0  0  0  0  0  0
  149.6615  138.6857  154.1526 C   0  0  0  0  0  0  0  0  0  0  0  0
  149.1658  140.1037  154.4025 C   0  0  2  0  0  0  0  0  0  0  0  0
  149.8869  140.9812  153.5518 O   0  0  0  0  0  0  0  0  0  0  0  0
  147.6532  140.2976  154.1407 C   0  0  0  0  0  0  0  0  0  0  0  0
  147.0182  139.1316  153.5474 N   0  0  0  0  0  0  0  0  0  0  0  0
  146.8116  138.8965  152.2060 C   0  0  0  0  0  0  0  0  0  0  0  0
  146.2061  137.7750  151.9229 N   0  0  0  0  0  0  0  0  0  0  0  0
  145.9895  137.1904  153.1638 C   0  0  0  0  0  0  0  0  0  0  0  0
  145.3885  135.9784  153.5891 C   0  0  0  0  0  0  0  0  0  0  0  0
  144.8643  135.1030  152.7032 N   0  0  0  0  0  0  0  0  0  0  0  0
  143.4215  134.9436  152.7911 C   0  0  0  0  0  0  0  0  0  0  0  0
  143.0919  133.7014  151.9556 C   0  0  0  0  0  0  0  0  0  0  0  0
  144.4206  132.9173  151.8725 C   0  0  1  0  0  0  0  0  0  0  0  0
  144.8902  132.6118  150.4847 N   0  3  2  0  0  0  0  0  0  0  0  0
  143.8185  132.3912  149.4796 C   0  0  0  0  0  0  0  0  0  0  0  0
  145.9320  131.5547  150.4262 C   0  0  0  0  0  0  0  0  0  0  0  0
  145.6767  130.4247  151.4386 C   0  0  0  0  0  0  0  0  0  0  0  0
  146.7747  129.5369  151.4577 O   0  0  0  0  0  0  0  0  0  0  0  0
  145.4128  133.7538  152.7078 C   0  0  1  0  0  0  0  0  0  0  0  0
  146.9033  133.6711  152.3211 C   0  0  0  0  0  0  0  0  0  0  0  0
  145.3558  135.7153  154.9222 N   0  0  0  0  0  0  0  0  0  0  0  0
  145.8785  136.5913  155.7864 C   0  0  0  0  0  0  0  0  0  0  0  0
  146.4667  137.7631  155.5342 N   0  0  0  0  0  0  0  0  0  0  0  0
  146.5002  138.0245  154.1959 C   0  0  0  0  0  0  0  0  0  0  0  0
  144.3001  131.9709  152.3988 H   0  0  0  0  0  0  0  0  0  0  0  0
  145.3364  133.3842  153.7320 H   0  0  0  0  0  0  0  0  0  0  0  0
  149.3439  142.4912  155.9947 H   0  0  0  0  0  0  0  0  0  0  0  0
  151.0087  141.9555  155.7543 H   0  0  0  0  0  0  0  0  0  0  0  0
  150.2518  141.7919  157.3318 H   0  0  0  0  0  0  0  0  0  0  0  0
  148.6932  140.1017  156.5122 H   0  0  0  0  0  0  0  0  0  0  0  0
  151.7447  139.1010  154.5686 H   0  0  0  0  0  0  0  0  0  0  0  0
  151.1820  137.5826  155.2777 H   0  0  0  0  0  0  0  0  0  0  0  0
  149.8744  138.4702  153.1045 H   0  0  0  0  0  0  0  0  0  0  0  0
  148.9241  137.9609  154.5008 H   0  0  0  0  0  0  0  0  0  0  0  0
  149.6470  140.7965  152.6567 H   0  0  0  0  0  0  0  0  0  0  0  0
  147.1342  140.5235  155.0731 H   0  0  0  0  0  0  0  0  0  0  0  0
  147.4896  141.1544  153.4853 H   0  0  0  0  0  0  0  0  0  0  0  0
  147.1200  139.5924  151.4392 H   0  0  0  0  0  0  0  0  0  0  0  0
  143.1159  134.7913  153.8276 H   0  0  0  0  0  0  0  0  0  0  0  0
  142.9054  135.8272  152.4145 H   0  0  0  0  0  0  0  0  0  0  0  0
  142.3095  133.1118  152.4342 H   0  0  0  0  0  0  0  0  0  0  0  0
  142.7043  133.9945  150.9820 H   0  0  0  0  0  0  0  0  0  0  0  0
  143.3915  131.3912  149.5523 H   0  0  0  0  0  0  0  0  0  0  0  0
  144.2305  132.4956  148.4754 H   0  0  0  0  0  0  0  0  0  0  0  0
  143.0086  133.1135  149.5734 H   0  0  0  0  0  0  0  0  0  0  0  0
  145.9888  131.1544  149.4130 H   0  0  0  0  0  0  0  0  0  0  0  0
  146.9129  131.9851  150.6358 H   0  0  0  0  0  0  0  0  0  0  0  0
  145.4947  130.8021  152.4443 H   0  0  0  0  0  0  0  0  0  0  0  0
  144.7886  129.8633  151.1472 H   0  0  0  0  0  0  0  0  0  0  0  0
  147.5259  129.9774  151.0894 H   0  0  0  0  0  0  0  0  0  0  0  0
  147.2395  132.6345  152.2873 H   0  0  0  0  0  0  0  0  0  0  0  0
  147.5251  134.1888  153.0520 H   0  0  0  0  0  0  0  0  0  0  0  0
  147.1064  134.1218  151.3504 H   0  0  0  0  0  0  0  0  0  0  0  0
  145.8154  136.3162  156.8291 H   0  0  0  0  0  0  0  0  0  0  0  0
  145.3623  133.4507  150.1778 H   0  0  0  0  0  0  0  0  0  0  0  0
  1  2  1  0  0  0  0
  1 31  1  0  0  0  0
  1 32  1  0  0  0  0
  1 33  1  0  0  0  0
  2  6  1  0  0  0  0
  2  3  1  0  0  0  0
  2 34  1  0  0  0  0
  3  4  1  0  0  0  0
  4  5  1  0  0  0  0
  4 35  1  0  0  0  0
  4 36  1  0  0  0  0
  5  6  1  0  0  0  0
  5 37  1  0  0  0  0
  5 38  1  0  0  0  0
  6  7  1  0  0  0  0
  6  8  1  0  0  0  0
  7 39  1  0  0  0  0
  8  9  1  0  0  0  0
  8 40  1  0  0  0  0
  8 41  1  0  0  0  0
  9 28  1  0  0  0  0
  9 10  1  0  0  0  0
 10 11  2  0  0  0  0
 10 42  1  0  0  0  0
 11 12  1  0  0  0  0
 12 28  2  0  0  0  0
 12 13  1  0  0  0  0
 13 14  1  0  0  0  0
 13 25  2  0  0  0  0
 14 23  1  0  0  0  0
 14 15  1  0  0  0  0
 15 16  1  0  0  0  0
 15 43  1  0  0  0  0
 15 44  1  0  0  0  0
 16 17  1  0  0  0  0
 16 45  1  0  0  0  0
 16 46  1  0  0  0  0
 17 29  1  0  0  0  0
 17 18  1  0  0  0  0
 17 23  1  0  0  0  0
 18 19  1  0  0  0  0
 18 20  1  0  0  0  0
 18 59  1  0  0  0  0
 19 47  1  0  0  0  0
 19 48  1  0  0  0  0
 19 49  1  0  0  0  0
 20 21  1  0  0  0  0
 20 50  1  0  0  0  0
 20 51  1  0  0  0  0
 21 22  1  0  0  0  0
 21 52  1  0  0  0  0
 21 53  1  0  0  0  0
 22 54  1  0  0  0  0
 23 30  1  0  0  0  0
 23 24  1  0  0  0  0
 24 55  1  0  0  0  0
 24 56  1  0  0  0  0
 24 57  1  0  0  0  0
 25 26  1  0  0  0  0
 26 27  2  0  0  0  0
 26 58  1  0  0  0  0
 27 28  1  0  0  0  0
M  CHG  1  18   1
M  END
> <s_m_source_file>
AV-unprocessed.smi

> <i_m_source_file_index>
290

> <i_lp_mmshare_version>
43012

> <i_f3d_flags>
0

> <s_epik_input>
W0NIMl0xW0NIMl1PW0NAQEhdKFtDSDNdKVtDQEBdMShbT0hdKVtDSDJdbihbY0hdbjIpYyhjMjMpbltjSF1uYzNONFtDSDJdW0NIMl1bQ0BIXShbQ0BIXTRbQ0gzXSlOKFtDSDNdKVtDSDJdW0NIMl1bT0hd

> <s_epik_cmdline>
J2VwaWtfcHl0aG9uJywgJy1waCcsICc3LjAnLCAnLXRuJywgJzgnLCAnLW1hJywgJzIwMCcsICctbWV0YWxfYmluZGluZycsICctaW1hZScsICc8aW5maWxlLm1hZT4nLCAnLW9tYWUnLCAnPG91dGZpbGUubWFlPic=

> <r_lp_tautomer_probability>
1

> <r_epik_Ionization_Penalty>
0.0036983

> <r_epik_Ionization_Penalty_Charging>
0.0032725

> <r_epik_Ionization_Penalty_Neutral>
0.000425798

> <r_epik_State_Penalty>
-0

> <r_epik_Charging_Adjusted_Penalty>
0.0032725

> <i_epik_Tot_Q>
1

> <i_epik_Tot_abs_Q>
1

> <r_epik_Metal_State_Penalty>
-0

> <b_epik_Metal_Only>
0

> <s_lp_Force_Field>
OPLS_2005

> <r_lp_Energy>
70.3682

> <b_lp_Chiralities_Consistent>
1

> <s_lp_Variant>
AV-unprocessed.smi:290-11

> <Gold.Version>
5.8.1

> <Gold.Id.Protein>
6NUR|6NUR_protein|mol2

> <Gold.PLP.Fitness>
45.6182

> <Gold.PLP.PLP>
-40.9080

> <Gold.PLP.part.hbond>
-3.2655

> <Gold.PLP.part.metal>
0.0000

> <Gold.PLP.part.buried>
-2.4166

> <Gold.PLP.part.nonpolar>
-34.7593

> <Gold.PLP.part.repulsive>
0.4808

> <Gold.PLP.ligand.clash>
0.0000

> <Gold.PLP.ligand.torsion>
2.2968

> <Gold.PLP.Chemscore.Hbond>
2.2720

> <Gold.PLP.Chemscore.CHOScore>
0.7565

> <Gold.PLP.Chemscore.Metal>
0.0000

> <Gold.Chemscore.Hbonds>
donor molecule, donor type, donor heavy atom, donor atom, acceptor molecule, acceptor atom, score
      L1  H     7    39       P1  7957  1.00
      L1  H    22    54       P1 10747  1.00
      P1  H  7989  7998       L1     7  0.29
      L1  C    10    42       P1  7957  0.78

> <Gold.PLP.Chemscore.Internal.Correction>
0.2182

> <Gold.Rescore>
     Score         DG    S(hbond)    S(metal)    S(lipo)     H(rot)  DE(clash)    DE(int)     intcor
     11.28     -14.78       2.04        0.00     101.41       3.67       0.33       3.18       ----

> <Gold.Chemscore.Fitness>
11.2781

> <Gold.Chemscore.DG>
-14.7814

> <Gold.Chemscore.ZeroCoef>
-5.4800

> <Gold.Chemscore.Hbond>
2.0423

> <Gold.Chemscore.Metal>
0.0000

> <Gold.Chemscore.Lipo>
101.4068

> <Gold.Chemscore.Internal_Hbond>
0.0000

> <Gold.Chemscore.DEClash>
0.3260

> <Gold.Chemscore.DEInternal>
3.1772

> <Gold.Chemscore.Rot>
3.6658

> <Gold.Chemscore.Internal.Correction>
   9.000000E+99

> <Gold.Chemscore.Hbonds>
donor molecule, donor type, donor heavy atom, donor atom, acceptor molecule, acceptor atom, score
      L1  H     7    39       P1  7957  0.99
      L1  H    22    54       P1 10747  1.00
      P1  H  7989  7998       L1     7  0.09

> <Gold.Chemscore.Hbond.Weighted>
-6.8212

> <Gold.Chemscore.Metal.Weighted>
-0.0000

> <Gold.Chemscore.Lipo.Weighted>
-11.8646

> <Gold.Chemscore.Internal_Hbond.Weighted>
0.0000

> <Gold.Chemscore.DEClash.Weighted>
0.3260

> <Gold.Chemscore.DEInternal.Weighted>
3.1772

> <Gold.Chemscore.Rot.Weighted>
9.3844

> <Gold.Chemscore.Internal.Correction.Weighted>
   9.000000E+99

> <Gold.Protein.RotatedTorsions>
[ 6907 6896 6895 6894 ] final  -32.20 input  -60.11 | X-H torsion
[ 7974 7965 7964 7962 ] final   49.51 input  175.53 | X-H torsion
[ 8008 7997 7996 7995 ] final  -90.77 input   59.86 | X-H torsion
[ 10167 10162 10161 10158 ] final   84.36 input  -65.29 | X-H torsion
[ 10718 10713 10712 10709 ] final -136.43 input   66.30 | X-H torsion
[ 10763 10752 10751 10750 ] final   22.94 input  -60.55 | X-H torsion
[ 11005 11000 10999 10996 ] final  -93.49 input  -57.11 | X-H torsion

> <Gold.Protein.ActiveResidues>
 VAL166  LYS551  ARG553  GLY616  TRP617  ASP618  TYR619  PRO620  LYS621  CYS622 
 ASP623  PHE694  ASN695  SER759  ASP760  ASP761  ALA762  ILE779  LEU786  VAL792 
 PHE793  MET794  SER795  GLU796  ALA797  LYS798  CYS799  TRP800  GLU811  SER814 

> <Gold.Protein.RotatedAtoms>
  151.0819  134.9863  159.8359 H   0  0  0  0  0  0  0  0  0  0  0  0  # atno 6907 bound_to 6896
  152.5420  134.2171  159.8783 H   0  0  0  0  0  0  0  0  0  0  0  0  # atno 6908 bound_to 6896
  151.2202  133.4463  159.2634 H   0  0  0  0  0  0  0  0  0  0  0  0  # atno 6909 bound_to 6896
  146.0101  139.4534  142.9961 H   0  0  0  0  0  0  0  0  0  0  0  0  # atno 7974 bound_to 7965
  154.7026  140.0526  157.0473 H   0  0  0  0  0  0  0  0  0  0  0  0  # atno 8008 bound_to 7997
  155.0663  140.3195  155.4625 H   0  0  0  0  0  0  0  0  0  0  0  0  # atno 8009 bound_to 7997
  156.2765  140.2090  156.5791 H   0  0  0  0  0  0  0  0  0  0  0  0  # atno 8010 bound_to 7997
  139.9089  144.6284  150.8558 H   0  0  0  0  0  0  0  0  0  0  0  0  # atno 10167 bound_to 10162
  156.2770  130.7298  151.1284 H   0  0  0  0  0  0  0  0  0  0  0  0  # atno 10718 bound_to 10713
  153.0877  135.6637  153.9917 H   0  0  0  0  0  0  0  0  0  0  0  0  # atno 10763 bound_to 10752
  153.9522  135.2982  155.3439 H   0  0  0  0  0  0  0  0  0  0  0  0  # atno 10764 bound_to 10752
  154.7287  135.5132  153.9001 H   0  0  0  0  0  0  0  0  0  0  0  0  # atno 10765 bound_to 10752
  141.1495  133.7891  157.0167 H   0  0  0  0  0  0  0  0  0  0  0  0  # atno 11005 bound_to 11000
  145.7355  141.0027  143.1329 LP  0  0  0  0  0  0  0  0  0  0  0  0  # atno 17320 bound_to 7965
  144.6950  139.9035  143.7460 LP  0  0  0  0  0  0  0  0  0  0  0  0  # atno 17321 bound_to 7965
  140.7690  143.3380  151.2267 LP  0  0  0  0  0  0  0  0  0  0  0  0  # atno 17342 bound_to 10162
  139.6960  143.9612  152.2883 LP  0  0  0  0  0  0  0  0  0  0  0  0  # atno 17343 bound_to 10162
  157.7302  131.0618  150.5736 LP  0  0  0  0  0  0  0  0  0  0  0  0  # atno 17370 bound_to 10713
  156.5838  130.4311  149.5966 LP  0  0  0  0  0  0  0  0  0  0  0  0  # atno 17371 bound_to 10713
  140.0842  134.9630  157.1673 LP  0  0  0  0  0  0  0  0  0  0  0  0  # atno 17394 bound_to 11000
  140.3534  134.2573  155.7195 LP  0  0  0  0  0  0  0  0  0  0  0  0  # atno 17395 bound_to 11000

$$$$
