AV-unprocessed.smi:144|AV-procd|sdf|1195|dock7
  -GOLD-   2262018353D 1   1.00000     0.00000
 Structure written by MMmdl.
 46 48  0  0  0  0  0  0  0  0  1 V2000
  151.0149  136.3976  156.8883 O   0  0  0  0  0  0  0  0  0  0  0  0
  150.6716  137.4892  157.3390 C   0  0  0  0  0  0  0  0  0  0  0  0
  151.3542  138.7562  156.7895 C   0  0  0  0  0  0  0  0  0  0  0  0
  151.7994  139.7247  157.8191 N   0  0  0  0  0  0  0  0  0  0  0  0
  152.8374  139.3475  158.7071 C   0  0  0  0  0  0  0  0  0  0  0  0
  153.3657  138.2373  158.6366 O   0  0  0  0  0  0  0  0  0  0  0  0
  153.2333  140.3599  159.6798 C   0  0  0  0  0  0  0  0  0  0  0  0
  154.2025  140.0846  160.5688 F   0  0  0  0  0  0  0  0  0  0  0  0
  152.6459  141.5741  159.6984 C   0  0  0  0  0  0  0  0  0  0  0  0
  151.6459  141.9350  158.8132 N   0  0  0  0  0  0  0  0  0  0  0  0
  151.0142  143.3106  158.8308 C   0  0  2  0  0  0  0  0  0  0  0  0
  152.0414  144.3808  158.4173 C   0  0  0  0  0  0  0  0  0  0  0  0
  151.9001  145.4165  159.5145 C   0  0  0  0  0  0  0  0  0  0  0  0
  151.4943  144.5587  160.7035 C   0  0  0  0  0  0  0  0  0  0  0  0
  150.5915  143.6233  160.1275 O   0  0  0  0  0  0  0  0  0  0  0  0
  151.1958  141.0046  157.8523 C   0  0  0  0  0  0  0  0  0  0  0  0
  150.3099  141.3090  157.0503 O   0  0  0  0  0  0  0  0  0  0  0  0
  149.7447  137.6521  158.3039 N   0  0  0  0  0  0  0  0  0  0  0  0
  149.0010  136.6704  159.0100 C   0  0  0  0  0  0  0  0  0  0  0  0
  148.9085  135.3944  158.4191 C   0  0  0  0  0  0  0  0  0  0  0  0
  148.1927  134.3568  159.0529 C   0  0  0  0  0  0  0  0  0  0  0  0
  148.0863  132.9813  158.4121 C   0  0  0  0  0  0  0  0  0  0  0  0
  148.5813  132.0694  159.2479 F   0  0  0  0  0  0  0  0  0  0  0  0
  146.8111  132.6864  158.1595 F   0  0  0  0  0  0  0  0  0  0  0  0
  148.7634  132.9224  157.2645 F   0  0  0  0  0  0  0  0  0  0  0  0
  147.5856  134.5985  160.3026 C   0  0  0  0  0  0  0  0  0  0  0  0
  147.6914  135.8629  160.9207 C   0  0  0  0  0  0  0  0  0  0  0  0
  147.0414  136.1233  162.2717 C   0  0  0  0  0  0  0  0  0  0  0  0
  147.9374  136.6024  163.1350 F   0  0  0  0  0  0  0  0  0  0  0  0
  146.0661  137.0187  162.1234 F   0  0  0  0  0  0  0  0  0  0  0  0
  146.5232  135.0074  162.7862 F   0  0  0  0  0  0  0  0  0  0  0  0
  148.3980  136.8966  160.2699 C   0  0  0  0  0  0  0  0  0  0  0  0
  152.1976  138.4444  156.1713 H   0  0  0  0  0  0  0  0  0  0  0  0
  150.6722  139.2238  156.0778 H   0  0  0  0  0  0  0  0  0  0  0  0
  152.9861  142.2782  160.4421 H   0  0  0  0  0  0  0  0  0  0  0  0
  150.1435  143.2488  158.1754 H   0  0  0  0  0  0  0  0  0  0  0  0
  153.0481  143.9592  158.4204 H   0  0  0  0  0  0  0  0  0  0  0  0
  151.8231  144.7713  157.4232 H   0  0  0  0  0  0  0  0  0  0  0  0
  152.8147  145.9838  159.6885 H   0  0  0  0  0  0  0  0  0  0  0  0
  151.1014  146.1180  159.2695 H   0  0  0  0  0  0  0  0  0  0  0  0
  152.3591  144.0402  161.1197 H   0  0  0  0  0  0  0  0  0  0  0  0
  151.0213  145.1349  161.4990 H   0  0  0  0  0  0  0  0  0  0  0  0
  149.6215  138.6000  158.6287 H   0  0  0  0  0  0  0  0  0  0  0  0
  149.3864  135.2163  157.4665 H   0  0  0  0  0  0  0  0  0  0  0  0
  147.0411  133.8027  160.7891 H   0  0  0  0  0  0  0  0  0  0  0  0
  148.4778  137.8537  160.7614 H   0  0  0  0  0  0  0  0  0  0  0  0
  1  2  2  0  0  0  0
  2  3  1  0  0  0  0
  2 18  1  0  0  0  0
  3  4  1  0  0  0  0
  3 33  1  0  0  0  0
  3 34  1  0  0  0  0
  4 16  1  0  0  0  0
  4  5  1  0  0  0  0
  5  6  2  0  0  0  0
  5  7  1  0  0  0  0
  7  8  1  0  0  0  0
  7  9  2  0  0  0  0
  9 10  1  0  0  0  0
  9 35  1  0  0  0  0
 10 11  1  0  0  0  0
 10 16  1  0  0  0  0
 11 15  1  0  0  0  0
 11 12  1  0  0  0  0
 11 36  1  0  0  0  0
 12 13  1  0  0  0  0
 12 37  1  0  0  0  0
 12 38  1  0  0  0  0
 13 14  1  0  0  0  0
 13 39  1  0  0  0  0
 13 40  1  0  0  0  0
 14 15  1  0  0  0  0
 14 41  1  0  0  0  0
 14 42  1  0  0  0  0
 16 17  2  0  0  0  0
 18 19  1  0  0  0  0
 18 43  1  0  0  0  0
 19 32  1  0  0  0  0
 19 20  2  0  0  0  0
 20 21  1  0  0  0  0
 20 44  1  0  0  0  0
 21 22  1  0  0  0  0
 21 26  2  0  0  0  0
 22 23  1  0  0  0  0
 22 24  1  0  0  0  0
 22 25  1  0  0  0  0
 26 27  1  0  0  0  0
 26 45  1  0  0  0  0
 27 28  1  0  0  0  0
 27 32  2  0  0  0  0
 28 29  1  0  0  0  0
 28 30  1  0  0  0  0
 28 31  1  0  0  0  0
 32 46  1  0  0  0  0
M  END
> <s_m_source_file>
AV-unprocessed.smi

> <i_m_source_file_index>
144

> <i_lp_mmshare_version>
43012

> <i_f3d_flags>
0

> <s_epik_input>
RkMoRikoRiljKFtjSF0xKVtjSF1jKEMoRikoRilGKVtjSF1jMVtOSF1DKD1PKVtDSDJdbjJjKD1PKWMoRilbY0hdbihjMj1PKVtDQEBIXTNbQ0gyXVtDSDJdW0NIMl1PMw==

> <s_epik_cmdline>
J2VwaWtfcHl0aG9uJywgJy1waCcsICc3LjAnLCAnLXRuJywgJzgnLCAnLW1hJywgJzIwMCcsICctbWV0YWxfYmluZGluZycsICctaW1hZScsICc8aW5maWxlLm1hZT4nLCAnLW9tYWUnLCAnPG91dGZpbGUubWFlPic=

> <r_lp_tautomer_probability>
1

> <r_epik_Ionization_Penalty>
3.68082e-06

> <r_epik_Ionization_Penalty_Charging>
3.88729e-08

> <r_epik_Ionization_Penalty_Neutral>
3.64194e-06

> <r_epik_State_Penalty>
-0

> <r_epik_Charging_Adjusted_Penalty>
3.88729e-08

> <i_epik_Tot_Q>
0

> <i_epik_Tot_abs_Q>
0

> <r_epik_Metal_State_Penalty>
-0

> <b_epik_Metal_Only>
0

> <s_epik_Chemistry_Notes>
This compound contains an acetal/aminal-like group ( X-CH(R)-Y where X, Y are N, S, or O) that may be acid/base labile, releasing an aldehyde.

> <s_lp_Force_Field>
OPLS_2005

> <r_lp_Energy>
34.4133

> <b_lp_Chiralities_Consistent>
1

> <s_lp_Variant>
AV-unprocessed.smi:144-1

> <Gold.Version>
5.8.1

> <Gold.Id.Protein>
6NUR|6NUR_protein|mol2

> <Gold.PLP.Fitness>
53.8998

> <Gold.PLP.PLP>
-54.7496

> <Gold.PLP.part.hbond>
-1.0000

> <Gold.PLP.part.metal>
0.0000

> <Gold.PLP.part.buried>
-5.1743

> <Gold.PLP.part.nonpolar>
-49.0627

> <Gold.PLP.part.repulsive>
0.2801

> <Gold.PLP.ligand.clash>
1.3000

> <Gold.PLP.ligand.torsion>
0.5219

> <Gold.PLP.Chemscore.Hbond>
0.0000

> <Gold.PLP.Chemscore.CHOScore>
0.0000

> <Gold.PLP.Chemscore.Metal>
0.0000

> <Gold.PLP.Chemscore.Internal.Correction>
1.4939

> <Gold.Rescore>
     Score         DG    S(hbond)    S(metal)    S(lipo)     H(rot)  DE(clash)    DE(int)     intcor
     10.55     -12.41       0.00        0.00      99.29       1.83       0.06       1.80       ----

> <Gold.Chemscore.Fitness>
10.5489

> <Gold.Chemscore.DG>
-12.4053

> <Gold.Chemscore.ZeroCoef>
-5.4800

> <Gold.Chemscore.Hbond>
0.0000

> <Gold.Chemscore.Metal>
0.0000

> <Gold.Chemscore.Lipo>
99.2858

> <Gold.Chemscore.Internal_Hbond>
0.0000

> <Gold.Chemscore.DEClash>
0.0562

> <Gold.Chemscore.DEInternal>
1.8002

> <Gold.Chemscore.Rot>
1.8325

> <Gold.Chemscore.Internal.Correction>
   9.000000E+99

> <Gold.Chemscore.Hbond.Weighted>
-0.0000

> <Gold.Chemscore.Metal.Weighted>
-0.0000

> <Gold.Chemscore.Lipo.Weighted>
-11.6164

> <Gold.Chemscore.Internal_Hbond.Weighted>
0.0000

> <Gold.Chemscore.DEClash.Weighted>
0.0562

> <Gold.Chemscore.DEInternal.Weighted>
1.8002

> <Gold.Chemscore.Rot.Weighted>
4.6911

> <Gold.Chemscore.Internal.Correction.Weighted>
   9.000000E+99

> <Gold.Protein.RotatedTorsions>
[ 6907 6896 6895 6894 ] final -136.91 input  -60.11 | X-H torsion
[ 7974 7965 7964 7962 ] final  139.63 input  175.53 | X-H torsion
[ 8008 7997 7996 7995 ] final -138.17 input   59.86 | X-H torsion
[ 10167 10162 10161 10158 ] final  -36.18 input  -65.29 | X-H torsion
[ 10718 10713 10712 10709 ] final   19.90 input   66.30 | X-H torsion
[ 10763 10752 10751 10750 ] final -147.63 input  -60.55 | X-H torsion
[ 11005 11000 10999 10996 ] final   -0.97 input  -57.11 | X-H torsion

> <Gold.Protein.ActiveResidues>
 VAL166  LYS551  ARG553  GLY616  TRP617  ASP618  TYR619  PRO620  LYS621  CYS622 
 ASP623  PHE694  ASN695  SER759  ASP760  ASP761  ALA762  ILE779  LEU786  VAL792 
 PHE793  MET794  SER795  GLU796  ALA797  LYS798  CYS799  TRP800  GLU811  SER814 

> <Gold.Protein.RotatedAtoms>
  151.0159  133.5922  159.2676 H   0  0  0  0  0  0  0  0  0  0  0  0  # atno 6907 bound_to 6896
  151.3056  135.0779  159.9264 H   0  0  0  0  0  0  0  0  0  0  0  0  # atno 6908 bound_to 6896
  152.5311  133.9833  159.7871 H   0  0  0  0  0  0  0  0  0  0  0  0  # atno 6909 bound_to 6896
  144.9261  139.5106  143.5640 H   0  0  0  0  0  0  0  0  0  0  0  0  # atno 7974 bound_to 7965
  155.4239  140.0520  157.3023 H   0  0  0  0  0  0  0  0  0  0  0  0  # atno 8008 bound_to 7997
  154.4890  140.2112  155.9549 H   0  0  0  0  0  0  0  0  0  0  0  0  # atno 8009 bound_to 7997
  156.1316  140.3171  155.8362 H   0  0  0  0  0  0  0  0  0  0  0  0  # atno 8010 bound_to 7997
  140.7148  143.3426  151.2324 H   0  0  0  0  0  0  0  0  0  0  0  0  # atno 10167 bound_to 10162
  157.1170  130.6533  149.5913 H   0  0  0  0  0  0  0  0  0  0  0  0  # atno 10718 bound_to 10713
  154.8276  135.3355  154.6848 H   0  0  0  0  0  0  0  0  0  0  0  0  # atno 10763 bound_to 10752
  153.7472  135.6942  153.4958 H   0  0  0  0  0  0  0  0  0  0  0  0  # atno 10764 bound_to 10752
  153.2202  135.4451  155.0431 H   0  0  0  0  0  0  0  0  0  0  0  0  # atno 10765 bound_to 10752
  140.6421  133.9480  155.8332 H   0  0  0  0  0  0  0  0  0  0  0  0  # atno 11005 bound_to 11000
  146.3226  139.8176  142.8933 LP  0  0  0  0  0  0  0  0  0  0  0  0  # atno 17320 bound_to 7965
  145.3218  141.0245  143.3496 LP  0  0  0  0  0  0  0  0  0  0  0  0  # atno 17321 bound_to 7965
  139.6938  143.9647  152.2872 LP  0  0  0  0  0  0  0  0  0  0  0  0  # atno 17342 bound_to 10162
  139.9318  144.6737  150.8355 LP  0  0  0  0  0  0  0  0  0  0  0  0  # atno 17343 bound_to 10162
  155.9837  130.4858  150.6946 LP  0  0  0  0  0  0  0  0  0  0  0  0  # atno 17370 bound_to 10713
  157.4509  131.0872  151.0846 LP  0  0  0  0  0  0  0  0  0  0  0  0  # atno 17371 bound_to 10713
  141.0599  134.0362  157.3673 LP  0  0  0  0  0  0  0  0  0  0  0  0  # atno 17394 bound_to 11000
  139.9076  135.0183  156.7554 LP  0  0  0  0  0  0  0  0  0  0  0  0  # atno 17395 bound_to 11000

$$$$
