AV-unprocessed.smi:3222|AV-procd|sdf|12303|dock4
  -GOLD-   2272018143D 1   1.00000     0.00000
 Structure written by MMmdl.
 41 42  0  0  0  0  0  0  0  0  2 V2000
  145.0417  134.7035  153.3239 C   0  0  0  0  0  0  0  0  0  0  0  0
  146.4358  134.9508  152.7154 C   0  0  2  0  0  0  0  0  0  0  0  0
  146.9727  136.2471  153.1944 N   0  3  0  0  0  0  0  0  0  0  0  0
  147.1405  136.3646  154.6573 C   0  0  0  0  0  0  0  0  0  0  0  0
  148.6298  136.4224  155.0307 C   0  0  0  0  0  0  0  0  0  0  0  0
  149.1987  137.7432  154.7772 N   0  0  0  0  0  0  0  0  0  0  0  0
  148.4533  138.7434  154.0317 C   0  0  0  0  0  0  0  0  0  0  0  0
  149.4354  139.9069  153.8318 C   0  0  0  0  0  0  0  0  0  0  0  0
  150.6107  139.6308  154.7762 C   0  0  0  0  0  0  0  0  0  0  0  0
  150.3779  138.1964  155.2186 C   0  0  0  0  0  0  0  0  0  0  0  0
  151.1885  137.5648  155.8948 O   0  0  0  0  0  0  0  0  0  0  0  0
  146.4189  134.9317  151.1639 C   0  0  2  0  0  0  0  0  0  0  0  0
  145.7472  136.1689  150.5382 C   0  0  0  0  0  0  0  0  0  0  0  0
  145.7774  133.7183  150.6678 N   0  0  0  0  0  0  0  0  0  0  0  0
  146.1931  132.4063  150.7856 C   0  0  0  0  0  0  0  0  0  0  0  0
  145.2834  131.6284  150.1288 C   0  0  0  0  0  0  0  0  0  0  0  0
  144.3386  132.5651  149.6255 C   0  0  0  0  0  0  0  0  0  0  0  0
  144.6427  133.8138  149.9401 N   0  0  0  0  0  0  0  0  0  0  0  0
  144.6587  133.7171  153.0639 H   0  0  0  0  0  0  0  0  0  0  0  0
  144.3205  135.4438  152.9762 H   0  0  0  0  0  0  0  0  0  0  0  0
  145.0610  134.7478  154.4125 H   0  0  0  0  0  0  0  0  0  0  0  0
  147.1068  134.1590  153.0529 H   0  0  0  0  0  0  0  0  0  0  0  0
  147.8871  136.3633  152.7801 H   0  0  0  0  0  0  0  0  0  0  0  0
  146.6291  137.2586  155.0135 H   0  0  0  0  0  0  0  0  0  0  0  0
  146.6719  135.5082  155.1443 H   0  0  0  0  0  0  0  0  0  0  0  0
  148.7594  136.1698  156.0842 H   0  0  0  0  0  0  0  0  0  0  0  0
  149.1904  135.6769  154.4640 H   0  0  0  0  0  0  0  0  0  0  0  0
  148.0990  138.3464  153.0795 H   0  0  0  0  0  0  0  0  0  0  0  0
  147.5872  139.0582  154.6152 H   0  0  0  0  0  0  0  0  0  0  0  0
  149.7864  139.9283  152.7992 H   0  0  0  0  0  0  0  0  0  0  0  0
  148.9658  140.8696  154.0373 H   0  0  0  0  0  0  0  0  0  0  0  0
  151.5742  139.7429  154.2779 H   0  0  0  0  0  0  0  0  0  0  0  0
  150.5868  140.2885  155.6457 H   0  0  0  0  0  0  0  0  0  0  0  0
  147.4532  134.9211  150.8140 H   0  0  0  0  0  0  0  0  0  0  0  0
  146.3137  137.0785  150.7362 H   0  0  0  0  0  0  0  0  0  0  0  0
  144.7368  136.3152  150.9210 H   0  0  0  0  0  0  0  0  0  0  0  0
  145.6805  136.0693  149.4540 H   0  0  0  0  0  0  0  0  0  0  0  0
  147.0913  132.1361  151.3214 H   0  0  0  0  0  0  0  0  0  0  0  0
  145.2919  130.5538  150.0227 H   0  0  0  0  0  0  0  0  0  0  0  0
  143.4502  132.3767  149.0409 H   0  0  0  0  0  0  0  0  0  0  0  0
  146.3781  136.9928  152.8618 H   0  0  0  0  0  0  0  0  0  0  0  0
  1  2  1  0  0  0  0
  1 19  1  0  0  0  0
  1 20  1  0  0  0  0
  1 21  1  0  0  0  0
  2  3  1  0  0  0  0
  2 12  1  0  0  0  0
  2 22  1  0  0  0  0
  3  4  1  0  0  0  0
  3 23  1  0  0  0  0
  3 41  1  0  0  0  0
  4  5  1  0  0  0  0
  4 24  1  0  0  0  0
  4 25  1  0  0  0  0
  5  6  1  0  0  0  0
  5 26  1  0  0  0  0
  5 27  1  0  0  0  0
  6 10  1  0  0  0  0
  6  7  1  0  0  0  0
  7  8  1  0  0  0  0
  7 28  1  0  0  0  0
  7 29  1  0  0  0  0
  8  9  1  0  0  0  0
  8 30  1  0  0  0  0
  8 31  1  0  0  0  0
  9 10  1  0  0  0  0
  9 32  1  0  0  0  0
  9 33  1  0  0  0  0
 10 11  2  0  0  0  0
 12 13  1  0  0  0  0
 12 14  1  0  0  0  0
 12 34  1  0  0  0  0
 13 35  1  0  0  0  0
 13 36  1  0  0  0  0
 13 37  1  0  0  0  0
 14 18  1  0  0  0  0
 14 15  1  0  0  0  0
 15 16  2  0  0  0  0
 15 38  1  0  0  0  0
 16 17  1  0  0  0  0
 16 39  1  0  0  0  0
 17 18  2  0  0  0  0
 17 40  1  0  0  0  0
M  CHG  1   3   1
M  END
> <s_m_source_file>
AV-unprocessed.smi

> <i_m_source_file_index>
3222

> <i_lp_mmshare_version>
43012

> <i_f3d_flags>
0

> <s_epik_input>
bjFbY0hdW2NIXVtjSF1uMVtDQEBIXShbQ0gzXSlbQ0BIXShbQ0gzXSlbTkhdW0NIMl1bQ0gyXU4yW0NIMl1bQ0gyXVtDSDJdQzI9Tw==

> <s_epik_cmdline>
J2VwaWtfcHl0aG9uJywgJy1waCcsICc3LjAnLCAnLXRuJywgJzgnLCAnLW1hJywgJzIwMCcsICctbWV0YWxfYmluZGluZycsICctaW1hZScsICc8aW5maWxlLm1hZT4nLCAnLW9tYWUnLCAnPG91dGZpbGUubWFlPic=

> <r_lp_tautomer_probability>
1

> <r_epik_Ionization_Penalty>
0.0064019

> <r_epik_Ionization_Penalty_Charging>
0.00639164

> <r_epik_Ionization_Penalty_Neutral>
1.02567e-05

> <r_epik_State_Penalty>
0.00472531

> <r_epik_Charging_Adjusted_Penalty>
0.011117

> <i_epik_Tot_Q>
1

> <i_epik_Tot_abs_Q>
1

> <r_epik_Metal_State_Penalty>
-0

> <b_epik_Metal_Only>
0

> <s_lp_Force_Field>
OPLS_2005

> <r_lp_Energy>
24.5342

> <b_lp_Chiralities_Consistent>
1

> <s_lp_Variant>
AV-unprocessed.smi:3222-1

> <Gold.Version>
5.8.1

> <Gold.Id.Protein>
6NUR|6NUR_protein|mol2

> <Gold.PLP.Fitness>
43.4815

> <Gold.PLP.PLP>
-29.8441

> <Gold.PLP.part.hbond>
-1.7417

> <Gold.PLP.part.metal>
0.0000

> <Gold.PLP.part.buried>
-2.4054

> <Gold.PLP.part.nonpolar>
-26.1008

> <Gold.PLP.part.repulsive>
0.2236

> <Gold.PLP.ligand.clash>
0.0000

> <Gold.PLP.ligand.torsion>
0.7738

> <Gold.PLP.Chemscore.Hbond>
3.0000

> <Gold.PLP.Chemscore.CHOScore>
1.9980

> <Gold.PLP.Chemscore.Metal>
0.0000

> <Gold.Chemscore.Hbonds>
donor molecule, donor type, donor heavy atom, donor atom, acceptor molecule, acceptor atom, score
      L1  H     3    23       P1  7948  1.40
      L1  C    15    38       P1 10747  0.86

> <Gold.PLP.Chemscore.Internal.Correction>
0.1912

> <Gold.Rescore>
     Score         DG    S(hbond)    S(metal)    S(lipo)     H(rot)  DE(clash)    DE(int)     intcor
     14.08     -14.86       1.97        0.00      67.38       1.99       0.10       0.68       ----

> <Gold.Chemscore.Fitness>
14.0769

> <Gold.Chemscore.DG>
-14.8596

> <Gold.Chemscore.ZeroCoef>
-5.4800

> <Gold.Chemscore.Hbond>
1.9749

> <Gold.Chemscore.Metal>
0.0000

> <Gold.Chemscore.Lipo>
67.3817

> <Gold.Chemscore.Internal_Hbond>
0.0000

> <Gold.Chemscore.DEClash>
0.0994

> <Gold.Chemscore.DEInternal>
0.6833

> <Gold.Chemscore.Rot>
1.9922

> <Gold.Chemscore.Internal.Correction>
   9.000000E+99

> <Gold.Chemscore.Hbonds>
donor molecule, donor type, donor heavy atom, donor atom, acceptor molecule, acceptor atom, score
      L1  H     3    23       P1  7948  0.70

> <Gold.Chemscore.Hbond.Weighted>
-6.5961

> <Gold.Chemscore.Metal.Weighted>
-0.0000

> <Gold.Chemscore.Lipo.Weighted>
-7.8837

> <Gold.Chemscore.Internal_Hbond.Weighted>
0.0000

> <Gold.Chemscore.DEClash.Weighted>
0.0994

> <Gold.Chemscore.DEInternal.Weighted>
0.6833

> <Gold.Chemscore.Rot.Weighted>
5.1002

> <Gold.Chemscore.Internal.Correction.Weighted>
   9.000000E+99

> <Gold.Protein.RotatedTorsions>
[ 6907 6896 6895 6894 ] final   48.37 input  -60.11 | X-H torsion
[ 7974 7965 7964 7962 ] final -166.59 input  175.53 | X-H torsion
[ 8008 7997 7996 7995 ] final -113.52 input   59.86 | X-H torsion
[ 10167 10162 10161 10158 ] final -118.95 input  -65.29 | X-H torsion
[ 10718 10713 10712 10709 ] final -105.57 input   66.30 | X-H torsion
[ 10763 10752 10751 10750 ] final -161.01 input  -60.55 | X-H torsion
[ 11005 11000 10999 10996 ] final  168.59 input  -57.11 | X-H torsion

> <Gold.Protein.ActiveResidues>
 VAL166  LYS551  ARG553  GLY616  TRP617  ASP618  TYR619  PRO620  LYS621  CYS622 
 ASP623  PHE694  ASN695  SER759  ASP760  ASP761  ALA762  ILE779  LEU786  VAL792 
 PHE793  MET794  SER795  GLU796  ALA797  LYS798  CYS799  TRP800  GLU811  SER814 

> <Gold.Protein.RotatedAtoms>
  152.2788  134.7852  160.0400 H   0  0  0  0  0  0  0  0  0  0  0  0  # atno 6907 bound_to 6896
  151.8439  133.3423  159.3660 H   0  0  0  0  0  0  0  0  0  0  0  0  # atno 6908 bound_to 6896
  150.7181  134.5293  159.5736 H   0  0  0  0  0  0  0  0  0  0  0  0  # atno 6909 bound_to 6896
  144.7242  140.2643  143.6260 H   0  0  0  0  0  0  0  0  0  0  0  0  # atno 7974 bound_to 7965
  155.0220  140.0393  157.2441 H   0  0  0  0  0  0  0  0  0  0  0  0  # atno 8008 bound_to 7997
  154.7370  140.2741  155.6383 H   0  0  0  0  0  0  0  0  0  0  0  0  # atno 8009 bound_to 7997
  156.2855  140.2673  156.2086 H   0  0  0  0  0  0  0  0  0  0  0  0  # atno 8010 bound_to 7997
  140.0519  143.5052  152.2077 H   0  0  0  0  0  0  0  0  0  0  0  0  # atno 10167 bound_to 10162
  156.0352  130.5570  150.7558 H   0  0  0  0  0  0  0  0  0  0  0  0  # atno 10718 bound_to 10713
  154.7340  135.3053  154.8842 H   0  0  0  0  0  0  0  0  0  0  0  0  # atno 10763 bound_to 10752
  153.9676  135.6745  153.4750 H   0  0  0  0  0  0  0  0  0  0  0  0  # atno 10764 bound_to 10752
  153.0945  135.4942  154.8675 H   0  0  0  0  0  0  0  0  0  0  0  0  # atno 10765 bound_to 10752
  140.2889  134.7690  157.3821 H   0  0  0  0  0  0  0  0  0  0  0  0  # atno 11005 bound_to 11000
  145.8105  139.2001  143.1996 LP  0  0  0  0  0  0  0  0  0  0  0  0  # atno 17320 bound_to 7965
  146.0600  140.7981  142.9739 LP  0  0  0  0  0  0  0  0  0  0  0  0  # atno 17321 bound_to 7965
  139.5948  144.7563  151.3314 LP  0  0  0  0  0  0  0  0  0  0  0  0  # atno 17342 bound_to 10162
  140.7213  143.7129  150.7755 LP  0  0  0  0  0  0  0  0  0  0  0  0  # atno 17343 bound_to 10162
  157.5090  131.0924  151.0221 LP  0  0  0  0  0  0  0  0  0  0  0  0  # atno 17370 bound_to 10713
  157.0582  130.5814  149.5381 LP  0  0  0  0  0  0  0  0  0  0  0  0  # atno 17371 bound_to 10713
  140.1214  134.5215  155.8181 LP  0  0  0  0  0  0  0  0  0  0  0  0  # atno 17394 bound_to 11000
  141.2150  133.6757  156.6872 LP  0  0  0  0  0  0  0  0  0  0  0  0  # atno 17395 bound_to 11000

$$$$
