AV-unprocessed.smi:251|AV-procd|sdf|1935|dock7
  -GOLD-   2262021 53D 1   1.00000     0.00000
 Structure written by MMmdl.
 50 54  0  0  0  0  0  0  0  0  1 V2000
  150.2096  139.4066  153.5550 O   0  0  0  0  0  0  0  0  0  0  0  0
  149.2386  139.3799  154.5821 C   0  0  0  0  0  0  0  0  0  0  0  0
  148.6657  140.7892  154.8871 C   0  0  0  0  0  0  0  0  0  0  0  0
  149.8203  141.8040  155.1679 C   0  0  0  0  0  0  0  0  0  0  0  0
  150.7452  141.4118  156.2234 N   0  0  0  0  0  0  0  0  0  0  0  0
  151.6397  140.3668  156.1833 C   0  0  0  0  0  0  0  0  0  0  0  0
  152.3663  140.2146  157.2548 N   0  0  0  0  0  0  0  0  0  0  0  0
  151.9676  141.2485  158.0949 C   0  0  0  0  0  0  0  0  0  0  0  0
  152.3444  141.6786  159.4029 C   0  0  0  0  0  0  0  0  0  0  0  0
  153.2843  141.0716  160.1745 N   0  0  0  0  0  0  0  0  0  0  0  0
  153.7247  141.6541  161.4413 C   0  0  0  0  0  0  0  0  0  0  0  0
  154.9104  140.8255  161.8715 C   0  0  1  0  0  0  0  0  0  0  0  0
  154.8181  139.3214  162.0334 C   0  0  0  0  0  0  0  0  0  0  0  0
  155.2859  139.9328  160.7294 C   0  0  2  0  0  0  0  0  0  0  0  0
  156.7190  139.7396  160.2517 C   0  0  0  0  0  0  0  0  0  0  0  0
  157.0805  140.7731  159.4923 F   0  0  0  0  0  0  0  0  0  0  0  0
  157.5463  139.6555  161.2938 F   0  0  0  0  0  0  0  0  0  0  0  0
  156.8369  138.6230  159.5326 F   0  0  0  0  0  0  0  0  0  0  0  0
  154.2983  140.1866  159.6089 C   0  0  0  0  0  0  0  0  0  0  0  0
  151.7010  142.7654  159.9065 N   0  0  0  0  0  0  0  0  0  0  0  0
  150.7696  143.3982  159.1887 C   0  0  0  0  0  0  0  0  0  0  0  0
  150.3255  143.1133  157.9646 N   0  0  0  0  0  0  0  0  0  0  0  0
  150.9521  142.0162  157.4528 C   0  0  0  0  0  0  0  0  0  0  0  0
  147.7938  141.2132  153.6776 C   0  0  0  0  0  0  0  0  0  0  0  0
  146.9459  142.4637  153.9692 C   0  0  0  0  0  0  0  0  0  0  0  0
  146.1111  142.2233  155.0943 O   0  0  0  0  0  0  0  0  0  0  0  0
  146.8471  141.9653  156.2833 C   0  0  0  0  0  0  0  0  0  0  0  0
  147.7167  140.7054  156.1093 C   0  0  0  0  0  0  0  0  0  0  0  0
  149.7658  139.4680  152.7230 H   0  0  0  0  0  0  0  0  0  0  0  0
  148.4459  138.6870  154.2997 H   0  0  0  0  0  0  0  0  0  0  0  0
  149.7100  138.9559  155.4694 H   0  0  0  0  0  0  0  0  0  0  0  0
  150.4148  141.9758  154.2718 H   0  0  0  0  0  0  0  0  0  0  0  0
  149.4090  142.7806  155.4254 H   0  0  0  0  0  0  0  0  0  0  0  0
  151.7323  139.7087  155.3320 H   0  0  0  0  0  0  0  0  0  0  0  0
  154.0322  142.6912  161.3023 H   0  0  0  0  0  0  0  0  0  0  0  0
  152.9393  141.6120  162.1965 H   0  0  0  0  0  0  0  0  0  0  0  0
  155.6952  141.3393  162.4228 H   0  0  0  0  0  0  0  0  0  0  0  0
  155.5565  138.8412  162.6718 H   0  0  0  0  0  0  0  0  0  0  0  0
  153.8273  138.8715  162.0555 H   0  0  0  0  0  0  0  0  0  0  0  0
  153.8634  139.2426  159.2801 H   0  0  0  0  0  0  0  0  0  0  0  0
  154.7905  140.6665  158.7626 H   0  0  0  0  0  0  0  0  0  0  0  0
  150.3133  144.2537  159.6642 H   0  0  0  0  0  0  0  0  0  0  0  0
  148.3997  141.3657  152.7852 H   0  0  0  0  0  0  0  0  0  0  0  0
  147.1092  140.4027  153.4240 H   0  0  0  0  0  0  0  0  0  0  0  0
  147.5675  143.3426  154.1413 H   0  0  0  0  0  0  0  0  0  0  0  0
  146.3142  142.6912  153.1105 H   0  0  0  0  0  0  0  0  0  0  0  0
  147.4474  142.8353  156.5500 H   0  0  0  0  0  0  0  0  0  0  0  0
  146.1411  141.8160  157.1002 H   0  0  0  0  0  0  0  0  0  0  0  0
  147.0509  139.8490  155.9940 H   0  0  0  0  0  0  0  0  0  0  0  0
  148.2835  140.5246  157.0233 H   0  0  0  0  0  0  0  0  0  0  0  0
  1  2  1  0  0  0  0
  1 29  1  0  0  0  0
  2  3  1  0  0  0  0
  2 30  1  0  0  0  0
  2 31  1  0  0  0  0
  3 28  1  0  0  0  0
  3  4  1  0  0  0  0
  3 24  1  0  0  0  0
  4  5  1  0  0  0  0
  4 32  1  0  0  0  0
  4 33  1  0  0  0  0
  5 23  1  0  0  0  0
  5  6  1  0  0  0  0
  6  7  2  0  0  0  0
  6 34  1  0  0  0  0
  7  8  1  0  0  0  0
  8 23  2  0  0  0  0
  8  9  1  0  0  0  0
  9 10  1  0  0  0  0
  9 20  2  0  0  0  0
 10 19  1  0  0  0  0
 10 11  1  0  0  0  0
 11 12  1  0  0  0  0
 11 35  1  0  0  0  0
 11 36  1  0  0  0  0
 12 14  1  0  0  0  0
 12 13  1  0  0  0  0
 12 37  1  0  0  0  0
 13 14  1  0  0  0  0
 13 38  1  0  0  0  0
 13 39  1  0  0  0  0
 14 15  1  0  0  0  0
 14 19  1  0  0  0  0
 15 16  1  0  0  0  0
 15 17  1  0  0  0  0
 15 18  1  0  0  0  0
 19 40  1  0  0  0  0
 19 41  1  0  0  0  0
 20 21  1  0  0  0  0
 21 22  2  0  0  0  0
 21 42  1  0  0  0  0
 22 23  1  0  0  0  0
 24 25  1  0  0  0  0
 24 43  1  0  0  0  0
 24 44  1  0  0  0  0
 25 26  1  0  0  0  0
 25 45  1  0  0  0  0
 25 46  1  0  0  0  0
 26 27  1  0  0  0  0
 27 28  1  0  0  0  0
 27 47  1  0  0  0  0
 27 48  1  0  0  0  0
 28 49  1  0  0  0  0
 28 50  1  0  0  0  0
M  END
> <s_m_source_file>
AV-unprocessed.smi

> <i_m_source_file_index>
251

> <i_lp_mmshare_version>
43012

> <i_f3d_flags>
0

> <s_epik_input>
W0NIMl0xW0NIMl1PW0NIMl1bQ0gyXUMxKFtDSDJdW09IXSlbQ0gyXW4oW2NIXW4yKWMoYzIzKW5bY0hdbmMzTihbQ0gyXTQpW0NIMl1bQ0BIXShbQ0gyXTUpW0NAQF00NUMoRikoRilG

> <s_epik_cmdline>
J2VwaWtfcHl0aG9uJywgJy1waCcsICc3LjAnLCAnLXRuJywgJzgnLCAnLW1hJywgJzIwMCcsICctbWV0YWxfYmluZGluZycsICctaW1hZScsICc8aW5maWxlLm1hZT4nLCAnLW9tYWUnLCAnPG91dGZpbGUubWFlPic=

> <r_lp_tautomer_probability>
1

> <r_epik_Ionization_Penalty>
0.00226625

> <r_epik_Ionization_Penalty_Charging>
0

> <r_epik_Ionization_Penalty_Neutral>
0.00226625

> <r_epik_State_Penalty>
0.00138204

> <r_epik_Charging_Adjusted_Penalty>
0.00138204

> <i_epik_Tot_Q>
0

> <i_epik_Tot_abs_Q>
0

> <r_epik_Metal_State_Penalty>
-0

> <b_epik_Metal_Only>
0

> <s_lp_Force_Field>
OPLS_2005

> <r_lp_Energy>
66.9276

> <b_lp_Chiralities_Consistent>
1

> <s_lp_Variant>
AV-unprocessed.smi:251-2

> <Gold.Version>
5.8.1

> <Gold.Id.Protein>
6NUR|6NUR_protein|mol2

> <Gold.PLP.Fitness>
55.3287

> <Gold.PLP.PLP>
-47.5979

> <Gold.PLP.part.hbond>
-2.9914

> <Gold.PLP.part.metal>
0.0000

> <Gold.PLP.part.buried>
-2.3045

> <Gold.PLP.part.nonpolar>
-42.6325

> <Gold.PLP.part.repulsive>
0.3338

> <Gold.PLP.ligand.clash>
0.0000

> <Gold.PLP.ligand.torsion>
1.0080

> <Gold.PLP.Chemscore.Hbond>
2.6605

> <Gold.PLP.Chemscore.CHOScore>
0.0000

> <Gold.PLP.Chemscore.Metal>
0.0000

> <Gold.Chemscore.Hbonds>
donor molecule, donor type, donor heavy atom, donor atom, acceptor molecule, acceptor atom, score
      L1  H     1    29       P1  7957  1.00
      P1  H  7989  7998       L1     1  0.85
      P1  H  7997  8009       L1     7  0.83

> <Gold.PLP.Chemscore.Internal.Correction>
1.7653

> <Gold.Rescore>
     Score         DG    S(hbond)    S(metal)    S(lipo)     H(rot)  DE(clash)    DE(int)     intcor
     13.63     -17.37       1.97        0.00      94.34       2.23       1.10       2.64       ----

> <Gold.Chemscore.Fitness>
13.6327

> <Gold.Chemscore.DG>
-17.3722

> <Gold.Chemscore.ZeroCoef>
-5.4800

> <Gold.Chemscore.Hbond>
1.9684

> <Gold.Chemscore.Metal>
0.0000

> <Gold.Chemscore.Lipo>
94.3400

> <Gold.Chemscore.Internal_Hbond>
0.0000

> <Gold.Chemscore.DEClash>
1.1036

> <Gold.Chemscore.DEInternal>
2.6358

> <Gold.Chemscore.Rot>
2.2344

> <Gold.Chemscore.Internal.Correction>
   9.000000E+99

> <Gold.Chemscore.Hbonds>
donor molecule, donor type, donor heavy atom, donor atom, acceptor molecule, acceptor atom, score
      L1  H     1    29       P1  7957  0.96
      P1  H  7989  7998       L1     1  0.35
      P1  H  7997  8009       L1     7  0.43

> <Gold.Chemscore.Hbond.Weighted>
-6.5745

> <Gold.Chemscore.Metal.Weighted>
-0.0000

> <Gold.Chemscore.Lipo.Weighted>
-11.0378

> <Gold.Chemscore.Internal_Hbond.Weighted>
0.0000

> <Gold.Chemscore.DEClash.Weighted>
1.1036

> <Gold.Chemscore.DEInternal.Weighted>
2.6358

> <Gold.Chemscore.Rot.Weighted>
5.7200

> <Gold.Chemscore.Internal.Correction.Weighted>
   9.000000E+99

> <Gold.Protein.RotatedTorsions>
[ 6907 6896 6895 6894 ] final  127.73 input  -60.11 | X-H torsion
[ 7974 7965 7964 7962 ] final   71.72 input  175.53 | X-H torsion
[ 8008 7997 7996 7995 ] final -177.52 input   59.86 | X-H torsion
[ 10167 10162 10161 10158 ] final   56.05 input  -65.29 | X-H torsion
[ 10718 10713 10712 10709 ] final   -2.54 input   66.30 | X-H torsion
[ 10763 10752 10751 10750 ] final  -96.70 input  -60.55 | X-H torsion
[ 11005 11000 10999 10996 ] final -167.20 input  -57.11 | X-H torsion

> <Gold.Protein.ActiveResidues>
 VAL166  LYS551  ARG553  GLY616  TRP617  ASP618  TYR619  PRO620  LYS621  CYS622 
 ASP623  PHE694  ASN695  SER759  ASP760  ASP761  ALA762  ILE779  LEU786  VAL792 
 PHE793  MET794  SER795  GLU796  ALA797  LYS798  CYS799  TRP800  GLU811  SER814 

> <Gold.Protein.RotatedAtoms>
  152.3786  133.6514  159.6142 H   0  0  0  0  0  0  0  0  0  0  0  0  # atno 6907 bound_to 6896
  150.7723  133.9152  159.3390 H   0  0  0  0  0  0  0  0  0  0  0  0  # atno 6908 bound_to 6896
  151.6962  135.0939  160.0294 H   0  0  0  0  0  0  0  0  0  0  0  0  # atno 6909 bound_to 6896
  145.7623  139.2806  143.1369 H   0  0  0  0  0  0  0  0  0  0  0  0  # atno 7974 bound_to 7965
  156.0079  140.1234  157.0483 H   0  0  0  0  0  0  0  0  0  0  0  0  # atno 8008 bound_to 7997
  154.4265  140.1093  156.5858 H   0  0  0  0  0  0  0  0  0  0  0  0  # atno 8009 bound_to 7997
  155.6121  140.3471  155.4627 H   0  0  0  0  0  0  0  0  0  0  0  0  # atno 8010 bound_to 7997
  140.2129  144.3870  150.6481 H   0  0  0  0  0  0  0  0  0  0  0  0  # atno 10167 bound_to 10162
  156.7893  130.5356  149.5738 H   0  0  0  0  0  0  0  0  0  0  0  0  # atno 10718 bound_to 10713
  154.7262  135.5074  153.8891 H   0  0  0  0  0  0  0  0  0  0  0  0  # atno 10763 bound_to 10752
  153.0907  135.6658  153.9868 H   0  0  0  0  0  0  0  0  0  0  0  0  # atno 10764 bound_to 10752
  153.9679  135.3041  155.3408 H   0  0  0  0  0  0  0  0  0  0  0  0  # atno 10765 bound_to 10752
  140.5559  134.5381  157.5133 H   0  0  0  0  0  0  0  0  0  0  0  0  # atno 11005 bound_to 11000
  146.0252  140.8311  142.9903 LP  0  0  0  0  0  0  0  0  0  0  0  0  # atno 17320 bound_to 7965
  144.6828  140.2687  143.7309 LP  0  0  0  0  0  0  0  0  0  0  0  0  # atno 17321 bound_to 7965
  140.6310  143.2187  151.6495 LP  0  0  0  0  0  0  0  0  0  0  0  0  # atno 17342 bound_to 10162
  139.5173  144.3320  152.0818 LP  0  0  0  0  0  0  0  0  0  0  0  0  # atno 17343 bound_to 10162
  156.1169  130.6081  151.0134 LP  0  0  0  0  0  0  0  0  0  0  0  0  # atno 17370 bound_to 10713
  157.6608  131.0881  150.7842 LP  0  0  0  0  0  0  0  0  0  0  0  0  # atno 17371 bound_to 10713
  139.9431  134.7750  156.0628 LP  0  0  0  0  0  0  0  0  0  0  0  0  # atno 17394 bound_to 11000
  141.1143  133.6633  156.3056 LP  0  0  0  0  0  0  0  0  0  0  0  0  # atno 17395 bound_to 11000

$$$$
