AV-unprocessed.smi:148|AV-procd|sdf|1218|dock7
  -GOLD-   2262018403D 1   1.00000     0.00000
 Structure written by MMmdl.
 63 67  0  0  0  0  0  0  0  0  1 V2000
  153.7537  139.6897  158.7005 O   0  0  0  0  0  0  0  0  0  0  0  0
  152.5728  139.9843  159.4167 C   0  0  0  0  0  0  0  0  0  0  0  0
  151.9225  141.2942  158.9104 C   0  0  2  0  0  0  0  0  0  0  0  0
  151.6074  141.2385  157.3918 C   0  0  0  0  0  0  0  0  0  0  0  0
  150.2214  141.5562  157.0962 N   0  0  0  0  0  0  0  0  0  0  0  0
  149.3076  142.1198  157.9572 C   0  0  0  0  0  0  0  0  0  0  0  0
  148.1145  142.3010  157.4604 N   0  0  0  0  0  0  0  0  0  0  0  0
  148.2145  141.8267  156.1577 C   0  0  0  0  0  0  0  0  0  0  0  0
  147.3060  141.7074  155.0680 C   0  0  0  0  0  0  0  0  0  0  0  0
  146.0042  142.0726  155.1031 N   0  0  0  0  0  0  0  0  0  0  0  0
  145.8966  143.5312  155.0861 C   0  0  0  0  0  0  0  0  0  0  0  0
  144.4468  143.9830  154.8716 C   0  0  0  0  0  0  0  0  0  0  0  0
  143.5346  143.3573  155.9308 C   0  0  0  0  0  0  0  0  0  0  0  0
  143.6715  141.8290  155.9038 C   0  0  0  0  0  0  0  0  0  0  0  0
  145.1456  141.3783  156.0810 C   0  0  1  0  0  0  0  0  0  0  0  0
  145.3261  139.8272  156.0557 C   0  0  2  0  0  0  0  0  0  0  0  0
  146.6133  139.2802  156.7032 C   0  0  0  0  0  0  0  0  0  0  0  0
  146.9508  137.9754  155.9628 C   0  0  0  0  0  0  0  0  0  0  0  0
  145.8319  137.7599  154.9390 C   0  0  0  0  0  0  0  0  0  0  0  0
  145.2868  139.1621  154.6720 C   0  0  1  0  0  0  0  0  0  0  0  0
  143.9791  139.1151  154.1395 O   0  0  0  0  0  0  0  0  0  0  0  0
  147.7728  141.1960  153.9025 N   0  0  0  0  0  0  0  0  0  0  0  0
  149.0465  140.8023  153.8090 C   0  0  0  0  0  0  0  0  0  0  0  0
  150.0020  140.8362  154.7407 N   0  0  0  0  0  0  0  0  0  0  0  0
  149.5370  141.3646  155.9091 C   0  0  0  0  0  0  0  0  0  0  0  0
  152.7415  142.5500  159.3233 C   0  0  1  0  0  0  0  0  0  0  0  0
  152.2190  143.8834  158.7817 C   0  0  0  0  0  0  0  0  0  0  0  0
  152.2739  144.8155  159.9882 C   0  0  0  0  0  0  0  0  0  0  0  0
  152.0489  143.9403  161.0797 O   0  0  0  0  0  0  0  0  0  0  0  0
  152.8343  142.7830  160.8406 C   0  0  0  0  0  0  0  0  0  0  0  0
  154.0009  138.7960  158.8839 H   0  0  0  0  0  0  0  0  0  0  0  0
  151.8807  139.1461  159.3350 H   0  0  0  0  0  0  0  0  0  0  0  0
  152.8509  140.0621  160.4673 H   0  0  0  0  0  0  0  0  0  0  0  0
  150.9602  141.3788  159.4185 H   0  0  0  0  0  0  0  0  0  0  0  0
  152.2271  141.9412  156.8357 H   0  0  0  0  0  0  0  0  0  0  0  0
  151.8247  140.2533  156.9813 H   0  0  0  0  0  0  0  0  0  0  0  0
  149.5547  142.3874  158.9742 H   0  0  0  0  0  0  0  0  0  0  0  0
  146.2715  143.9312  156.0294 H   0  0  0  0  0  0  0  0  0  0  0  0
  146.5250  143.9433  154.2948 H   0  0  0  0  0  0  0  0  0  0  0  0
  144.3837  145.0706  154.9156 H   0  0  0  0  0  0  0  0  0  0  0  0
  144.1125  143.6894  153.8757 H   0  0  0  0  0  0  0  0  0  0  0  0
  143.8009  143.7354  156.9187 H   0  0  0  0  0  0  0  0  0  0  0  0
  142.4984  143.6461  155.7532 H   0  0  0  0  0  0  0  0  0  0  0  0
  143.0422  141.4191  156.6918 H   0  0  0  0  0  0  0  0  0  0  0  0
  143.2677  141.4605  154.9616 H   0  0  0  0  0  0  0  0  0  0  0  0
  145.4532  141.7195  157.0695 H   0  0  0  0  0  0  0  0  0  0  0  0
  144.4993  139.3775  156.6074 H   0  0  0  0  0  0  0  0  0  0  0  0
  147.4466  139.9752  156.6112 H   0  0  0  0  0  0  0  0  0  0  0  0
  146.4655  139.1040  157.7690 H   0  0  0  0  0  0  0  0  0  0  0  0
  147.9072  138.0839  155.4499 H   0  0  0  0  0  0  0  0  0  0  0  0
  147.0401  137.1281  156.6434 H   0  0  0  0  0  0  0  0  0  0  0  0
  146.1813  137.2646  154.0324 H   0  0  0  0  0  0  0  0  0  0  0  0
  145.0550  137.1333  155.3806 H   0  0  0  0  0  0  0  0  0  0  0  0
  145.9486  139.6619  153.9663 H   0  0  0  0  0  0  0  0  0  0  0  0
  143.8930  139.8007  153.4948 H   0  0  0  0  0  0  0  0  0  0  0  0
  149.3416  140.4006  152.8510 H   0  0  0  0  0  0  0  0  0  0  0  0
  153.7646  142.4168  158.9691 H   0  0  0  0  0  0  0  0  0  0  0  0
  152.8149  144.2568  157.9482 H   0  0  0  0  0  0  0  0  0  0  0  0
  151.1911  143.8045  158.4325 H   0  0  0  0  0  0  0  0  0  0  0  0
  153.2593  145.2749  160.0835 H   0  0  0  0  0  0  0  0  0  0  0  0
  151.5263  145.6079  159.9441 H   0  0  0  0  0  0  0  0  0  0  0  0
  152.4970  141.9370  161.4392 H   0  0  0  0  0  0  0  0  0  0  0  0
  153.8653  142.9937  161.1291 H   0  0  0  0  0  0  0  0  0  0  0  0
  1  2  1  0  0  0  0
  1 31  1  0  0  0  0
  2  3  1  0  0  0  0
  2 32  1  0  0  0  0
  2 33  1  0  0  0  0
  3  4  1  0  0  0  0
  3 26  1  0  0  0  0
  3 34  1  0  0  0  0
  4  5  1  0  0  0  0
  4 35  1  0  0  0  0
  4 36  1  0  0  0  0
  5 25  1  0  0  0  0
  5  6  1  0  0  0  0
  6  7  2  0  0  0  0
  6 37  1  0  0  0  0
  7  8  1  0  0  0  0
  8 25  2  0  0  0  0
  8  9  1  0  0  0  0
  9 10  1  0  0  0  0
  9 22  2  0  0  0  0
 10 15  1  0  0  0  0
 10 11  1  0  0  0  0
 11 12  1  0  0  0  0
 11 38  1  0  0  0  0
 11 39  1  0  0  0  0
 12 13  1  0  0  0  0
 12 40  1  0  0  0  0
 12 41  1  0  0  0  0
 13 14  1  0  0  0  0
 13 42  1  0  0  0  0
 13 43  1  0  0  0  0
 14 15  1  0  0  0  0
 14 44  1  0  0  0  0
 14 45  1  0  0  0  0
 15 16  1  0  0  0  0
 15 46  1  0  0  0  0
 16 20  1  0  0  0  0
 16 17  1  0  0  0  0
 16 47  1  0  0  0  0
 17 18  1  0  0  0  0
 17 48  1  0  0  0  0
 17 49  1  0  0  0  0
 18 19  1  0  0  0  0
 18 50  1  0  0  0  0
 18 51  1  0  0  0  0
 19 20  1  0  0  0  0
 19 52  1  0  0  0  0
 19 53  1  0  0  0  0
 20 21  1  0  0  0  0
 20 54  1  0  0  0  0
 21 55  1  0  0  0  0
 22 23  1  0  0  0  0
 23 24  2  0  0  0  0
 23 56  1  0  0  0  0
 24 25  1  0  0  0  0
 26 30  1  0  0  0  0
 26 27  1  0  0  0  0
 26 57  1  0  0  0  0
 27 28  1  0  0  0  0
 27 58  1  0  0  0  0
 27 59  1  0  0  0  0
 28 29  1  0  0  0  0
 28 60  1  0  0  0  0
 28 61  1  0  0  0  0
 29 30  1  0  0  0  0
 30 62  1  0  0  0  0
 30 63  1  0  0  0  0
M  END
> <s_m_source_file>
AV-unprocessed.smi

> <i_m_source_file_index>
148

> <i_lp_mmshare_version>
43012

> <i_f3d_flags>
0

> <s_epik_input>
W0NIMl0xT1tDSDJdW0NIMl1bQ0BIXTFbQ0BIXShbQ0gyXVtPSF0pW0NIMl1uKFtjSF1uMiljKGMyMyluW2NIXW5jM040W0NIMl1bQ0gyXVtDSDJdW0NIMl1bQ0BIXTRbQ0BASF01W0NIMl1bQ0gyXVtDSDJdW0NASF01W09IXQ==

> <s_epik_cmdline>
J2VwaWtfcHl0aG9uJywgJy1waCcsICc3LjAnLCAnLXRuJywgJzgnLCAnLW1hJywgJzIwMCcsICctbWV0YWxfYmluZGluZycsICctaW1hZScsICc8aW5maWxlLm1hZT4nLCAnLW9tYWUnLCAnPG91dGZpbGUubWFlPic=

> <r_lp_tautomer_probability>
1

> <r_epik_Ionization_Penalty>
0.00556303

> <r_epik_Ionization_Penalty_Charging>
0

> <r_epik_Ionization_Penalty_Neutral>
0.00556303

> <r_epik_State_Penalty>
0.00401767

> <r_epik_Charging_Adjusted_Penalty>
0.00401767

> <i_epik_Tot_Q>
0

> <i_epik_Tot_abs_Q>
0

> <r_epik_Metal_State_Penalty>
-0

> <b_epik_Metal_Only>
0

> <s_lp_Force_Field>
OPLS_2005

> <r_lp_Energy>
68.3578

> <b_lp_Chiralities_Consistent>
1

> <s_lp_Variant>
AV-unprocessed.smi:148-17

> <Gold.Version>
5.8.1

> <Gold.Id.Protein>
6NUR|6NUR_protein|mol2

> <Gold.PLP.Fitness>
48.7096

> <Gold.PLP.PLP>
-41.4208

> <Gold.PLP.part.hbond>
-3.0000

> <Gold.PLP.part.metal>
0.0000

> <Gold.PLP.part.buried>
-5.1838

> <Gold.PLP.part.nonpolar>
-34.6208

> <Gold.PLP.part.repulsive>
0.7915

> <Gold.PLP.ligand.clash>
0.0000

> <Gold.PLP.ligand.torsion>
1.3713

> <Gold.PLP.Chemscore.Hbond>
2.6778

> <Gold.PLP.Chemscore.CHOScore>
0.5191

> <Gold.PLP.Chemscore.Metal>
0.0000

> <Gold.Chemscore.Hbonds>
donor molecule, donor type, donor heavy atom, donor atom, acceptor molecule, acceptor atom, score
      L1  H    21    55       P1 10175  0.23
      P1  H  7989  7998       L1    24  0.65
      P1  H  7997  8008       L1     1  1.00
      L1  C    23    56       P1  7957  0.29

> <Gold.PLP.Chemscore.Internal.Correction>
0.4408

> <Gold.Rescore>
     Score         DG    S(hbond)    S(metal)    S(lipo)     H(rot)  DE(clash)    DE(int)     intcor
     11.65     -14.87       2.27        0.00      88.18       3.32       1.53       1.68       ----

> <Gold.Chemscore.Fitness>
11.6524

> <Gold.Chemscore.DG>
-14.8658

> <Gold.Chemscore.ZeroCoef>
-5.4800

> <Gold.Chemscore.Hbond>
2.2660

> <Gold.Chemscore.Metal>
0.0000

> <Gold.Chemscore.Lipo>
88.1816

> <Gold.Chemscore.Internal_Hbond>
0.0000

> <Gold.Chemscore.DEClash>
1.5320

> <Gold.Chemscore.DEInternal>
1.6813

> <Gold.Chemscore.Rot>
3.3203

> <Gold.Chemscore.Internal.Correction>
   9.000000E+99

> <Gold.Chemscore.Hbonds>
donor molecule, donor type, donor heavy atom, donor atom, acceptor molecule, acceptor atom, score
      L1  H    21    55       P1 10175  0.23
      P1  H  7989  7998       L1    24  0.12
      P1  H  7997  8008       L1     1  0.25

> <Gold.Chemscore.Hbond.Weighted>
-7.5685

> <Gold.Chemscore.Metal.Weighted>
-0.0000

> <Gold.Chemscore.Lipo.Weighted>
-10.3172

> <Gold.Chemscore.Internal_Hbond.Weighted>
0.0000

> <Gold.Chemscore.DEClash.Weighted>
1.5320

> <Gold.Chemscore.DEInternal.Weighted>
1.6813

> <Gold.Chemscore.Rot.Weighted>
8.5000

> <Gold.Chemscore.Internal.Correction.Weighted>
   9.000000E+99

> <Gold.Protein.RotatedTorsions>
[ 6907 6896 6895 6894 ] final   -2.67 input  -60.11 | X-H torsion
[ 7974 7965 7964 7962 ] final  -74.11 input  175.53 | X-H torsion
[ 8008 7997 7996 7995 ] final -105.34 input   59.86 | X-H torsion
[ 10167 10162 10161 10158 ] final   94.51 input  -65.29 | X-H torsion
[ 10718 10713 10712 10709 ] final -152.76 input   66.30 | X-H torsion
[ 10763 10752 10751 10750 ] final  -53.31 input  -60.55 | X-H torsion
[ 11005 11000 10999 10996 ] final   98.24 input  -57.11 | X-H torsion

> <Gold.Protein.ActiveResidues>
 VAL166  LYS551  ARG553  GLY616  TRP617  ASP618  TYR619  PRO620  LYS621  CYS622 
 ASP623  PHE694  ASN695  SER759  ASP760  ASP761  ALA762  ILE779  LEU786  VAL792 
 PHE793  MET794  SER795  GLU796  ALA797  LYS798  CYS799  TRP800  GLU811  SER814 

> <Gold.Protein.RotatedAtoms>
  151.5262  135.1068  159.9890 H   0  0  0  0  0  0  0  0  0  0  0  0  # atno 6907 bound_to 6896
  152.4599  133.7795  159.6854 H   0  0  0  0  0  0  0  0  0  0  0  0  # atno 6908 bound_to 6896
  150.8556  133.7655  159.3035 H   0  0  0  0  0  0  0  0  0  0  0  0  # atno 6909 bound_to 6896
  145.6434  140.9304  143.1023 H   0  0  0  0  0  0  0  0  0  0  0  0  # atno 7974 bound_to 7965
  154.8984  140.0413  157.1879 H   0  0  0  0  0  0  0  0  0  0  0  0  # atno 8008 bound_to 7997
  154.8469  140.2923  155.5602 H   0  0  0  0  0  0  0  0  0  0  0  0  # atno 8009 bound_to 7997
  156.2994  140.2472  156.3421 H   0  0  0  0  0  0  0  0  0  0  0  0  # atno 8010 bound_to 7997
  139.8077  144.6787  150.9682 H   0  0  0  0  0  0  0  0  0  0  0  0  # atno 10167 bound_to 10162
  156.4768  130.8284  151.2512 H   0  0  0  0  0  0  0  0  0  0  0  0  # atno 10718 bound_to 10713
  154.1567  135.6481  153.4976 H   0  0  0  0  0  0  0  0  0  0  0  0  # atno 10763 bound_to 10752
  153.0122  135.5351  154.6752 H   0  0  0  0  0  0  0  0  0  0  0  0  # atno 10764 bound_to 10752
  154.6055  135.2948  155.0461 H   0  0  0  0  0  0  0  0  0  0  0  0  # atno 10765 bound_to 10752
  139.8773  134.9039  156.4427 H   0  0  0  0  0  0  0  0  0  0  0  0  # atno 11005 bound_to 11000
  144.7149  139.8234  143.7402 LP  0  0  0  0  0  0  0  0  0  0  0  0  # atno 17320 bound_to 7965
  146.1262  139.4289  143.0197 LP  0  0  0  0  0  0  0  0  0  0  0  0  # atno 17321 bound_to 7965
  140.7819  143.4217  151.0831 LP  0  0  0  0  0  0  0  0  0  0  0  0  # atno 17342 bound_to 10162
  139.7885  143.8252  152.3148 LP  0  0  0  0  0  0  0  0  0  0  0  0  # atno 17343 bound_to 10162
  157.7487  131.0058  150.3127 LP  0  0  0  0  0  0  0  0  0  0  0  0  # atno 17370 bound_to 10713
  156.3562  130.3839  149.7288 LP  0  0  0  0  0  0  0  0  0  0  0  0  # atno 17371 bound_to 10713
  140.8988  133.7794  155.9656 LP  0  0  0  0  0  0  0  0  0  0  0  0  # atno 17394 bound_to 11000
  140.8673  134.2768  157.5207 LP  0  0  0  0  0  0  0  0  0  0  0  0  # atno 17395 bound_to 11000

$$$$
