AV-unprocessed.smi:753|AV-procd|sdf|3601|dock9
  -GOLD-   22720 0593D 1   1.00000     0.00000
 Structure written by MMmdl.
 43 45  0  0  0  0  0  0  0  0  1 V2000
  145.9163  151.9992  157.8235 C   0  0  0  0  0  0  0  0  0  0  0  0
  145.7123  150.5785  158.3064 C   0  0  0  0  0  0  0  0  0  0  0  0
  145.4739  150.3069  159.6700 C   0  0  0  0  0  0  0  0  0  0  0  0
  145.2935  148.9677  160.0652 C   0  0  0  0  0  0  0  0  0  0  0  0
  145.3584  147.9549  159.0860 C   0  0  0  0  0  0  0  0  0  0  0  0
  145.1971  146.4921  159.4606 C   0  0  0  0  0  0  0  0  0  0  0  0
  146.2233  146.0050  160.5009 C   0  0  0  0  0  0  0  0  0  0  0  0
  147.5257  145.7227  159.9031 N   0  0  0  0  0  0  0  0  0  0  0  0
  148.3475  144.7183  160.2541 C   0  0  0  0  0  0  0  0  0  0  0  0
  148.0940  143.9111  161.1462 O   0  0  0  0  0  0  0  0  0  0  0  0
  149.4842  144.6501  159.5400 N   0  0  0  0  0  0  0  0  0  0  0  0
  150.5744  143.6807  159.6761 C   0  0  2  0  0  0  0  0  0  0  0  0
  151.8365  144.3432  160.2717 C   0  0  0  0  0  0  0  0  0  0  0  0
  152.9070  144.0879  159.1948 C   0  0  2  0  0  0  0  0  0  0  0  0
  152.6191  144.9648  157.9608 C   0  0  0  0  0  0  0  0  0  0  0  0
  151.3965  144.2732  157.3289 C   0  0  0  0  0  0  0  0  0  0  0  0
  151.1037  143.1306  158.3253 C   0  0  1  0  0  0  0  0  0  0  0  0
  152.5192  142.7023  158.6972 C   0  0  0  0  0  0  0  0  0  0  0  0
  145.5976  148.3343  157.7484 C   0  0  0  0  0  0  0  0  0  0  0  0
  145.7704  149.6159  157.3597 N   0  0  0  0  0  0  0  0  0  0  0  0
  146.1576  152.6644  158.6531 H   0  0  0  0  0  0  0  0  0  0  0  0
  145.0104  152.3670  157.3415 H   0  0  0  0  0  0  0  0  0  0  0  0
  146.7338  152.0487  157.1035 H   0  0  0  0  0  0  0  0  0  0  0  0
  145.4325  151.1032  160.3985 H   0  0  0  0  0  0  0  0  0  0  0  0
  145.1178  148.7244  161.1027 H   0  0  0  0  0  0  0  0  0  0  0  0
  144.1868  146.3290  159.8385 H   0  0  0  0  0  0  0  0  0  0  0  0
  145.2816  145.8903  158.5551 H   0  0  0  0  0  0  0  0  0  0  0  0
  146.3607  146.7719  161.2633 H   0  0  0  0  0  0  0  0  0  0  0  0
  145.8406  145.1262  161.0227 H   0  0  0  0  0  0  0  0  0  0  0  0
  147.8231  146.3331  159.1561 H   0  0  0  0  0  0  0  0  0  0  0  0
  149.5984  145.3386  158.8103 H   0  0  0  0  0  0  0  0  0  0  0  0
  150.2643  142.8594  160.3255 H   0  0  0  0  0  0  0  0  0  0  0  0
  151.7122  145.4075  160.4781 H   0  0  0  0  0  0  0  0  0  0  0  0
  152.1120  143.8585  161.2093 H   0  0  0  0  0  0  0  0  0  0  0  0
  153.9283  144.1765  159.5658 H   0  0  0  0  0  0  0  0  0  0  0  0
  152.4157  146.0015  158.2317 H   0  0  0  0  0  0  0  0  0  0  0  0
  153.4628  144.9584  157.2694 H   0  0  0  0  0  0  0  0  0  0  0  0
  150.5572  144.9528  157.1817 H   0  0  0  0  0  0  0  0  0  0  0  0
  151.6567  143.8663  156.3508 H   0  0  0  0  0  0  0  0  0  0  0  0
  150.4864  142.3364  157.9043 H   0  0  0  0  0  0  0  0  0  0  0  0
  153.1105  142.3672  157.8431 H   0  0  0  0  0  0  0  0  0  0  0  0
  152.5502  141.9378  159.4756 H   0  0  0  0  0  0  0  0  0  0  0  0
  145.6605  147.5885  156.9696 H   0  0  0  0  0  0  0  0  0  0  0  0
  1  2  1  0  0  0  0
  1 21  1  0  0  0  0
  1 22  1  0  0  0  0
  1 23  1  0  0  0  0
  2 20  1  0  0  0  0
  2  3  2  0  0  0  0
  3  4  1  0  0  0  0
  3 24  1  0  0  0  0
  4  5  2  0  0  0  0
  4 25  1  0  0  0  0
  5  6  1  0  0  0  0
  5 19  1  0  0  0  0
  6  7  1  0  0  0  0
  6 26  1  0  0  0  0
  6 27  1  0  0  0  0
  7  8  1  0  0  0  0
  7 28  1  0  0  0  0
  7 29  1  0  0  0  0
  8  9  1  0  0  0  0
  8 30  1  0  0  0  0
  9 10  2  0  0  0  0
  9 11  1  0  0  0  0
 11 12  1  0  0  0  0
 11 31  1  0  0  0  0
 12 17  1  0  0  0  0
 12 13  1  0  0  0  0
 12 32  1  0  0  0  0
 13 14  1  0  0  0  0
 13 33  1  0  0  0  0
 13 34  1  0  0  0  0
 14 18  1  0  0  0  0
 14 15  1  0  0  0  0
 14 35  1  0  0  0  0
 15 16  1  0  0  0  0
 15 36  1  0  0  0  0
 15 37  1  0  0  0  0
 16 17  1  0  0  0  0
 16 38  1  0  0  0  0
 16 39  1  0  0  0  0
 17 18  1  0  0  0  0
 17 40  1  0  0  0  0
 18 41  1  0  0  0  0
 18 42  1  0  0  0  0
 19 20  2  0  0  0  0
 19 43  1  0  0  0  0
M  END
> <s_m_source_file>
AV-unprocessed.smi

> <i_m_source_file_index>
753

> <i_lp_mmshare_version>
43012

> <i_f3d_flags>
0

> <s_epik_input>
W0NIM11jMVtjSF1bY0hdYyhbY0hdbjEpW0NIMl1bQ0gyXVtOSF1DKD1PKVtOSF1bQ0BIXShbQ0gyXVtDQEBIXTIzKVtDQEBIXShbQ0gyXTMpW0NIMl1bQ0gyXTI=

> <s_epik_cmdline>
J2VwaWtfcHl0aG9uJywgJy1waCcsICc3LjAnLCAnLXRuJywgJzgnLCAnLW1hJywgJzIwMCcsICctbWV0YWxfYmluZGluZycsICctaW1hZScsICc8aW5maWxlLm1hZT4nLCAnLW9tYWUnLCAnPG91dGZpbGUubWFlPic=

> <r_epik_Ionization_Penalty>
0.0569047

> <r_epik_Ionization_Penalty_Charging>
0

> <r_epik_Ionization_Penalty_Neutral>
0.0569047

> <r_epik_State_Penalty>
0.0490541

> <r_epik_Charging_Adjusted_Penalty>
0.0490541

> <i_epik_Tot_Q>
0

> <i_epik_Tot_abs_Q>
0

> <r_epik_Metal_State_Penalty>
0.0447357

> <b_epik_Metal_Only>
0

> <s_lp_Force_Field>
OPLS_2005

> <r_lp_Energy>
52.9013

> <b_lp_Chiralities_Consistent>
1

> <s_lp_Variant>
AV-unprocessed.smi:753-3

> <Gold.Version>
5.8.1

> <Gold.Id.Protein>
6NUR|6NUR_protein|mol2

> <Gold.PLP.Fitness>
52.1648

> <Gold.PLP.PLP>
-46.9125

> <Gold.PLP.part.hbond>
-3.4328

> <Gold.PLP.part.metal>
0.0000

> <Gold.PLP.part.buried>
-3.0713

> <Gold.PLP.part.nonpolar>
-42.1284

> <Gold.PLP.part.repulsive>
0.6721

> <Gold.PLP.ligand.clash>
0.0000

> <Gold.PLP.ligand.torsion>
0.4062

> <Gold.PLP.Chemscore.Hbond>
1.6164

> <Gold.PLP.Chemscore.CHOScore>
0.3987

> <Gold.PLP.Chemscore.Metal>
0.0000

> <Gold.Chemscore.Hbonds>
donor molecule, donor type, donor heavy atom, donor atom, acceptor molecule, acceptor atom, score
      L1  H     8    30       P1  8029  0.58
      L1  H    11    31       P1  8029  0.08
      P1  H  6933  6944       L1    10  1.00
      L1  C    19    43       P1  8029  0.42

> <Gold.PLP.Chemscore.Internal.Correction>
0.0193

> <Gold.Rescore>
     Score         DG    S(hbond)    S(metal)    S(lipo)     H(rot)  DE(clash)    DE(int)     intcor
     24.13     -25.28       1.84        0.00     147.99       1.43       0.67       0.48       ----

> <Gold.Chemscore.Fitness>
24.1334

> <Gold.Chemscore.DG>
-25.2834

> <Gold.Chemscore.ZeroCoef>
-5.4800

> <Gold.Chemscore.Hbond>
1.8403

> <Gold.Chemscore.Metal>
0.0000

> <Gold.Chemscore.Lipo>
147.9929

> <Gold.Chemscore.Internal_Hbond>
0.0000

> <Gold.Chemscore.DEClash>
0.6703

> <Gold.Chemscore.DEInternal>
0.4797

> <Gold.Chemscore.Rot>
1.4291

> <Gold.Chemscore.Internal.Correction>
   9.000000E+99

> <Gold.Chemscore.Hbonds>
donor molecule, donor type, donor heavy atom, donor atom, acceptor molecule, acceptor atom, score
      L1  H     8    30       P1  8029  0.58
      L1  H    11    31       P1  8029  0.09
      P1  H  6933  6944       L1    10  0.99

> <Gold.Chemscore.Hbond.Weighted>
-6.1467

> <Gold.Chemscore.Metal.Weighted>
-0.0000

> <Gold.Chemscore.Lipo.Weighted>
-17.3152

> <Gold.Chemscore.Internal_Hbond.Weighted>
0.0000

> <Gold.Chemscore.DEClash.Weighted>
0.6703

> <Gold.Chemscore.DEInternal.Weighted>
0.4797

> <Gold.Chemscore.Rot.Weighted>
3.6585

> <Gold.Chemscore.Internal.Correction.Weighted>
   9.000000E+99

> <Gold.Protein.RotatedTorsions>
[ 6907 6896 6895 6894 ] final  123.80 input  -60.11 | X-H torsion
[ 7974 7965 7964 7962 ] final  165.19 input  175.53 | X-H torsion
[ 8008 7997 7996 7995 ] final  -78.87 input   59.86 | X-H torsion
[ 10167 10162 10161 10158 ] final   95.39 input  -65.29 | X-H torsion
[ 10718 10713 10712 10709 ] final   51.65 input   66.30 | X-H torsion
[ 10763 10752 10751 10750 ] final   32.99 input  -60.55 | X-H torsion
[ 11005 11000 10999 10996 ] final  166.86 input  -57.11 | X-H torsion

> <Gold.Protein.ActiveResidues>
 VAL166  LYS551  ARG553  GLY616  TRP617  ASP618  TYR619  PRO620  LYS621  CYS622 
 ASP623  PHE694  ASN695  SER759  ASP760  ASP761  ALA762  ILE779  LEU786  VAL792 
 PHE793  MET794  SER795  GLU796  ALA797  LYS798  CYS799  TRP800  GLU811  SER814 

> <Gold.Protein.RotatedAtoms>
  152.4132  133.6996  159.6415 H   0  0  0  0  0  0  0  0  0  0  0  0  # atno 6907 bound_to 6896
  150.8010  133.8587  159.3234 H   0  0  0  0  0  0  0  0  0  0  0  0  # atno 6908 bound_to 6896
  151.6324  135.1023  160.0176 H   0  0  0  0  0  0  0  0  0  0  0  0  # atno 6909 bound_to 6896
  144.7513  139.8434  143.6365 H   0  0  0  0  0  0  0  0  0  0  0  0  # atno 7974 bound_to 7965
  154.5730  140.0687  156.8993 H   0  0  0  0  0  0  0  0  0  0  0  0  # atno 8008 bound_to 7997
  155.2599  140.3358  155.4256 H   0  0  0  0  0  0  0  0  0  0  0  0  # atno 8009 bound_to 7997
  156.2133  140.1768  156.7632 H   0  0  0  0  0  0  0  0  0  0  0  0  # atno 8010 bound_to 7997
  139.7993  144.6820  150.9786 H   0  0  0  0  0  0  0  0  0  0  0  0  # atno 10167 bound_to 10162
  157.5001  130.8432  149.8306 H   0  0  0  0  0  0  0  0  0  0  0  0  # atno 10718 bound_to 10713
  153.0234  135.6399  154.1441 H   0  0  0  0  0  0  0  0  0  0  0  0  # atno 10763 bound_to 10752
  154.1173  135.2849  155.3218 H   0  0  0  0  0  0  0  0  0  0  0  0  # atno 10764 bound_to 10752
  154.6289  135.5499  153.7720 H   0  0  0  0  0  0  0  0  0  0  0  0  # atno 10765 bound_to 10752
  140.2708  134.7828  157.3674 H   0  0  0  0  0  0  0  0  0  0  0  0  # atno 11005 bound_to 11000
  146.1467  139.4538  143.0075 LP  0  0  0  0  0  0  0  0  0  0  0  0  # atno 17320 bound_to 7965
  145.6934  141.0157  143.1543 LP  0  0  0  0  0  0  0  0  0  0  0  0  # atno 17321 bound_to 7965
  140.7820  143.4298  151.0712 LP  0  0  0  0  0  0  0  0  0  0  0  0  # atno 17342 bound_to 10162
  139.7971  143.8137  152.3159 LP  0  0  0  0  0  0  0  0  0  0  0  0  # atno 17343 bound_to 10162
  156.0224  130.3791  150.1923 LP  0  0  0  0  0  0  0  0  0  0  0  0  # atno 17370 bound_to 10713
  157.0113  130.9952  151.3365 LP  0  0  0  0  0  0  0  0  0  0  0  0  # atno 17371 bound_to 10713
  140.1375  134.5015  155.8057 LP  0  0  0  0  0  0  0  0  0  0  0  0  # atno 17394 bound_to 11000
  141.2177  133.6812  156.7150 LP  0  0  0  0  0  0  0  0  0  0  0  0  # atno 17395 bound_to 11000

$$$$
