AV-unprocessed.smi:2062|AV-procd|sdf|8398|dock8
  -GOLD-   2272011 83D 1   1.00000     0.00000
 Structure written by MMmdl.
 43 44  0  0  0  0  0  0  0  0  2 V2000
  149.5933  131.1148  153.9811 C   0  0  0  0  0  0  0  0  0  0  0  0
  149.0165  132.0795  152.9314 C   0  0  0  0  0  0  0  0  0  0  0  0
  149.2899  133.5362  153.3351 C   0  0  0  0  0  0  0  0  0  0  0  0
  147.5049  131.8545  152.7065 C   0  0  0  0  0  0  0  0  0  0  0  0
  147.0561  132.1983  151.3290 N   0  3  1  0  0  0  0  0  0  0  0  0
  145.8633  131.4352  150.8884 C   0  0  0  0  0  0  0  0  0  0  0  0
  144.5770  132.0101  151.5070 C   0  0  0  0  0  0  0  0  0  0  0  0
  144.4673  133.3863  151.1690 O   0  0  0  0  0  0  0  0  0  0  0  0
  145.5410  134.1689  151.6827 C   0  0  2  0  0  0  0  0  0  0  0  0
  145.2937  135.6449  151.3235 C   0  0  0  0  0  0  0  0  0  0  0  0
  146.3603  136.5098  151.8169 N   0  0  0  0  0  0  0  0  0  0  0  0
  146.1795  137.6277  152.5345 C   0  0  0  0  0  0  0  0  0  0  0  0
  145.0711  138.0515  152.8627 O   0  0  0  0  0  0  0  0  0  0  0  0
  147.3550  138.2046  152.8394 N   0  0  0  0  0  0  0  0  0  0  0  0
  147.5835  139.3934  153.5809 C   0  0  0  0  0  0  0  0  0  0  0  0
  146.6195  140.2296  153.9834 N   0  0  0  0  0  0  0  0  0  0  0  0
  147.1326  141.3175  154.6944 C   0  0  0  0  0  0  0  0  0  0  0  0
  148.4989  141.2928  154.8247 C   0  0  0  0  0  0  0  0  0  0  0  0
  149.1997  139.8939  154.0562 S   0  0  0  0  0  0  0  0  0  0  0  0
  146.8625  133.6494  151.0735 C   0  0  0  0  0  0  0  0  0  0  0  0
  149.1033  131.2383  154.9474 H   0  0  0  0  0  0  0  0  0  0  0  0
  150.6602  131.2878  154.1268 H   0  0  0  0  0  0  0  0  0  0  0  0
  149.4743  130.0748  153.6770 H   0  0  0  0  0  0  0  0  0  0  0  0
  149.5485  131.9122  151.9959 H   0  0  0  0  0  0  0  0  0  0  0  0
  148.7994  133.7874  154.2760 H   0  0  0  0  0  0  0  0  0  0  0  0
  148.9279  134.2298  152.5756 H   0  0  0  0  0  0  0  0  0  0  0  0
  150.3582  133.7165  153.4592 H   0  0  0  0  0  0  0  0  0  0  0  0
  147.2887  130.8029  152.9007 H   0  0  0  0  0  0  0  0  0  0  0  0
  146.9261  132.4168  153.4390 H   0  0  0  0  0  0  0  0  0  0  0  0
  145.7975  131.4986  149.8013 H   0  0  0  0  0  0  0  0  0  0  0  0
  145.9707  130.3764  151.1258 H   0  0  0  0  0  0  0  0  0  0  0  0
  143.7061  131.4835  151.1164 H   0  0  0  0  0  0  0  0  0  0  0  0
  144.5636  131.8831  152.5904 H   0  0  0  0  0  0  0  0  0  0  0  0
  145.5703  134.0779  152.7694 H   0  0  0  0  0  0  0  0  0  0  0  0
  145.2648  135.7577  150.2395 H   0  0  0  0  0  0  0  0  0  0  0  0
  144.3211  135.9756  151.6922 H   0  0  0  0  0  0  0  0  0  0  0  0
  147.3061  136.2394  151.5899 H   0  0  0  0  0  0  0  0  0  0  0  0
  148.1847  137.7421  152.4981 H   0  0  0  0  0  0  0  0  0  0  0  0
  146.4519  142.0653  155.0740 H   0  0  0  0  0  0  0  0  0  0  0  0
  149.1329  142.0098  155.3246 H   0  0  0  0  0  0  0  0  0  0  0  0
  147.7086  134.2297  151.4385 H   0  0  0  0  0  0  0  0  0  0  0  0
  146.8424  133.7987  149.9930 H   0  0  0  0  0  0  0  0  0  0  0  0
  147.8105  131.8977  150.7280 H   0  0  0  0  0  0  0  0  0  0  0  0
  1  2  1  0  0  0  0
  1 21  1  0  0  0  0
  1 22  1  0  0  0  0
  1 23  1  0  0  0  0
  2  3  1  0  0  0  0
  2  4  1  0  0  0  0
  2 24  1  0  0  0  0
  3 25  1  0  0  0  0
  3 26  1  0  0  0  0
  3 27  1  0  0  0  0
  4  5  1  0  0  0  0
  4 28  1  0  0  0  0
  4 29  1  0  0  0  0
  5 20  1  0  0  0  0
  5  6  1  0  0  0  0
  5 43  1  0  0  0  0
  6  7  1  0  0  0  0
  6 30  1  0  0  0  0
  6 31  1  0  0  0  0
  7  8  1  0  0  0  0
  7 32  1  0  0  0  0
  7 33  1  0  0  0  0
  8  9  1  0  0  0  0
  9 10  1  0  0  0  0
  9 20  1  0  0  0  0
  9 34  1  0  0  0  0
 10 11  1  0  0  0  0
 10 35  1  0  0  0  0
 10 36  1  0  0  0  0
 11 12  1  0  0  0  0
 11 37  1  0  0  0  0
 12 13  2  0  0  0  0
 12 14  1  0  0  0  0
 14 15  1  0  0  0  0
 14 38  1  0  0  0  0
 15 19  1  0  0  0  0
 15 16  2  0  0  0  0
 16 17  1  0  0  0  0
 17 18  2  0  0  0  0
 17 39  1  0  0  0  0
 18 19  1  0  0  0  0
 18 40  1  0  0  0  0
 20 41  1  0  0  0  0
 20 42  1  0  0  0  0
M  CHG  1   5   1
M  END
> <s_m_source_file>
AV-unprocessed.smi

> <i_m_source_file_index>
2062

> <i_lp_mmshare_version>
43012

> <i_f3d_flags>
0

> <s_epik_input>
W0NIM11bQ0hdKFtDSDNdKVtDSDJdTjFbQ0gyXVtDSDJdT1tDQEhdKFtDSDJdMSlbQ0gyXVtOSF1DKD1PKVtOSF1jMm5bY0hdW2NIXXMy

> <s_epik_cmdline>
J2VwaWtfcHl0aG9uJywgJy1waCcsICc3LjAnLCAnLXRuJywgJzgnLCAnLW1hJywgJzIwMCcsICctbWV0YWxfYmluZGluZycsICctaW1hZScsICc8aW5maWxlLm1hZT4nLCAnLW9tYWUnLCAnPG91dGZpbGUubWFlPic=

> <r_lp_tautomer_probability>
0.999

> <r_epik_Ionization_Penalty>
0.0985527

> <r_epik_Ionization_Penalty_Charging>
0.098413

> <r_epik_Ionization_Penalty_Neutral>
0.000139681

> <r_epik_State_Penalty>
0.0884988

> <r_epik_Charging_Adjusted_Penalty>
0.186912

> <i_epik_Tot_Q>
1

> <i_epik_Tot_abs_Q>
1

> <r_epik_Metal_State_Penalty>
0.141792

> <b_epik_Metal_Only>
0

> <s_lp_Force_Field>
OPLS_2005

> <r_lp_Energy>
18.2091

> <b_lp_Chiralities_Consistent>
1

> <s_lp_Variant>
AV-unprocessed.smi:2062-3

> <Gold.Version>
5.8.1

> <Gold.Id.Protein>
6NUR|6NUR_protein|mol2

> <Gold.PLP.Fitness>
43.9075

> <Gold.PLP.PLP>
-33.4139

> <Gold.PLP.part.hbond>
-3.0237

> <Gold.PLP.part.metal>
0.0000

> <Gold.PLP.part.buried>
-3.8203

> <Gold.PLP.part.nonpolar>
-30.5481

> <Gold.PLP.part.repulsive>
4.3596

> <Gold.PLP.ligand.clash>
0.0000

> <Gold.PLP.ligand.torsion>
0.6363

> <Gold.PLP.Chemscore.Hbond>
2.9760

> <Gold.PLP.Chemscore.CHOScore>
0.9253

> <Gold.PLP.Chemscore.Metal>
0.0000

> <Gold.Chemscore.Hbonds>
donor molecule, donor type, donor heavy atom, donor atom, acceptor molecule, acceptor atom, score
      L1  H     5    43       P1 10747  1.00
      L1  H    11    37       P1  7948  1.00
      L1  H    14    38       P1  7948  0.99
      L1  C    18    40       P1  8028  0.49

> <Gold.PLP.Chemscore.Internal.Correction>
0.0622

> <Gold.Rescore>
     Score         DG    S(hbond)    S(metal)    S(lipo)     H(rot)  DE(clash)    DE(int)     intcor
     17.09     -19.32       2.93        0.00      73.07       1.76       0.67       1.57       ----

> <Gold.Chemscore.Fitness>
17.0868

> <Gold.Chemscore.DG>
-19.3247

> <Gold.Chemscore.ZeroCoef>
-5.4800

> <Gold.Chemscore.Hbond>
2.9344

> <Gold.Chemscore.Metal>
0.0000

> <Gold.Chemscore.Lipo>
73.0719

> <Gold.Chemscore.Internal_Hbond>
0.0000

> <Gold.Chemscore.DEClash>
0.6687

> <Gold.Chemscore.DEInternal>
1.5693

> <Gold.Chemscore.Rot>
1.7599

> <Gold.Chemscore.Internal.Correction>
   9.000000E+99

> <Gold.Chemscore.Hbonds>
donor molecule, donor type, donor heavy atom, donor atom, acceptor molecule, acceptor atom, score
      L1  H     5    43       P1 10747  0.97
      L1  H    11    37       P1  7948  0.98
      L1  H    14    38       P1  7948  0.93

> <Gold.Chemscore.Hbond.Weighted>
-9.8007

> <Gold.Chemscore.Metal.Weighted>
-0.0000

> <Gold.Chemscore.Lipo.Weighted>
-8.5494

> <Gold.Chemscore.Internal_Hbond.Weighted>
0.0000

> <Gold.Chemscore.DEClash.Weighted>
0.6687

> <Gold.Chemscore.DEInternal.Weighted>
1.5693

> <Gold.Chemscore.Rot.Weighted>
4.5054

> <Gold.Chemscore.Internal.Correction.Weighted>
   9.000000E+99

> <Gold.Protein.RotatedTorsions>
[ 6907 6896 6895 6894 ] final  -38.15 input  -60.11 | X-H torsion
[ 7974 7965 7964 7962 ] final  107.84 input  175.53 | X-H torsion
[ 8008 7997 7996 7995 ] final   65.28 input   59.86 | X-H torsion
[ 10167 10162 10161 10158 ] final -121.25 input  -65.29 | X-H torsion
[ 10718 10713 10712 10709 ] final -140.32 input   66.30 | X-H torsion
[ 10763 10752 10751 10750 ] final  140.02 input  -60.55 | X-H torsion
[ 11005 11000 10999 10996 ] final  -20.13 input  -57.11 | X-H torsion

> <Gold.Protein.ActiveResidues>
 VAL166  LYS551  ARG553  GLY616  TRP617  ASP618  TYR619  PRO620  LYS621  CYS622 
 ASP623  PHE694  ASN695  SER759  ASP760  ASP761  ALA762  ILE779  LEU786  VAL792 
 PHE793  MET794  SER795  GLU796  ALA797  LYS798  CYS799  TRP800  GLU811  SER814 

> <Gold.Protein.RotatedAtoms>
  151.0059  134.9359  159.7979 H   0  0  0  0  0  0  0  0  0  0  0  0  # atno 6907 bound_to 6896
  152.5290  134.3092  159.9117 H   0  0  0  0  0  0  0  0  0  0  0  0  # atno 6908 bound_to 6896
  151.3098  133.4044  159.2680 H   0  0  0  0  0  0  0  0  0  0  0  0  # atno 6909 bound_to 6896
  145.2884  139.2608  143.3878 H   0  0  0  0  0  0  0  0  0  0  0  0  # atno 7974 bound_to 7965
  155.6593  140.3497  155.4777 H   0  0  0  0  0  0  0  0  0  0  0  0  # atno 8008 bound_to 7997
  155.9782  140.1169  157.0774 H   0  0  0  0  0  0  0  0  0  0  0  0  # atno 8009 bound_to 7997
  154.4184  140.1143  156.5385 H   0  0  0  0  0  0  0  0  0  0  0  0  # atno 8010 bound_to 7997
  140.0271  143.5285  152.2194 H   0  0  0  0  0  0  0  0  0  0  0  0  # atno 10167 bound_to 10162
  156.3209  130.7534  151.1631 H   0  0  0  0  0  0  0  0  0  0  0  0  # atno 10718 bound_to 10713
  153.9157  135.3006  155.3448 H   0  0  0  0  0  0  0  0  0  0  0  0  # atno 10763 bound_to 10752
  154.7601  135.4938  153.9451 H   0  0  0  0  0  0  0  0  0  0  0  0  # atno 10764 bound_to 10752
  153.1168  135.6773  153.9506 H   0  0  0  0  0  0  0  0  0  0  0  0  # atno 10765 bound_to 10752
  140.8435  133.7909  155.9886 H   0  0  0  0  0  0  0  0  0  0  0  0  # atno 11005 bound_to 11000
  146.3193  140.3369  142.8645 LP  0  0  0  0  0  0  0  0  0  0  0  0  # atno 17320 bound_to 7965
  144.9194  140.7850  143.5758 LP  0  0  0  0  0  0  0  0  0  0  0  0  # atno 17321 bound_to 7965
  139.6101  144.7606  151.2972 LP  0  0  0  0  0  0  0  0  0  0  0  0  # atno 17342 bound_to 10162
  140.7318  143.6842  150.7976 LP  0  0  0  0  0  0  0  0  0  0  0  0  # atno 17343 bound_to 10162
  157.7411  131.0507  150.5116 LP  0  0  0  0  0  0  0  0  0  0  0  0  # atno 17370 bound_to 10713
  156.5269  130.4175  149.6222 LP  0  0  0  0  0  0  0  0  0  0  0  0  # atno 17371 bound_to 10713
  140.8869  134.2543  157.5115 LP  0  0  0  0  0  0  0  0  0  0  0  0  # atno 17394 bound_to 11000
  139.8703  134.9642  156.4489 LP  0  0  0  0  0  0  0  0  0  0  0  0  # atno 17395 bound_to 11000

$$$$
