AV-unprocessed.smi:1809|AV-procd|sdf|7313|dock8
  -GOLD-   22720 8573D 1   1.00000     0.00000
 Structure written by MMmdl.
 40 42  0  0  0  0  0  0  0  0  2 V2000
  137.0892  141.3318  153.1974 C   0  0  0  0  0  0  0  0  0  0  0  0
  137.5091  139.9600  153.6012 C   0  0  0  0  0  0  0  0  0  0  0  0
  136.6551  139.0626  154.1085 N   0  0  0  0  0  0  0  0  0  0  0  0
  137.2744  137.8570  154.4070 N   0  0  0  0  0  0  0  0  0  0  0  0
  138.5819  137.8807  154.1142 C   0  0  0  0  0  0  0  0  0  0  0  0
  139.4549  136.7785  154.3137 N   0  0  0  0  0  0  0  0  0  0  0  0
  140.7512  136.6717  153.9735 C   0  0  0  0  0  0  0  0  0  0  0  0
  141.4078  137.5335  153.3885 O   0  0  0  0  0  0  0  0  0  0  0  0
  141.2603  135.4924  154.3583 N   0  0  0  0  0  0  0  0  0  0  0  0
  142.6310  135.0479  154.1212 C   0  0  0  0  0  0  0  0  0  0  0  0
  142.9997  135.0306  152.6252 C   0  0  2  0  0  0  0  0  0  0  0  0
  143.0225  133.6181  152.0095 C   0  0  0  0  0  0  0  0  0  0  0  0
  143.4694  133.6398  150.5939 N   0  3  2  0  0  0  0  0  0  0  0  0
  143.7931  132.2870  150.0899 C   0  0  0  0  0  0  0  0  0  0  0  0
  145.3170  132.1185  150.2307 C   0  0  0  0  0  0  0  0  0  0  0  0
  145.8449  133.4815  150.6947 C   0  0  0  0  0  0  0  0  0  0  0  0
  144.6950  134.4396  150.3829 C   0  0  2  0  0  0  0  0  0  0  0  0
  144.6927  135.7707  151.1595 C   0  0  0  0  0  0  0  0  0  0  0  0
  144.3090  135.5733  152.5122 O   0  0  0  0  0  0  0  0  0  0  0  0
  139.1665  139.3917  153.4385 S   0  0  0  0  0  0  0  0  0  0  0  0
  136.2769  141.6838  153.8339 H   0  0  0  0  0  0  0  0  0  0  0  0
  136.7479  141.3264  152.1623 H   0  0  0  0  0  0  0  0  0  0  0  0
  137.9264  142.0243  153.2872 H   0  0  0  0  0  0  0  0  0  0  0  0
  139.0435  135.9798  154.7738 H   0  0  0  0  0  0  0  0  0  0  0  0
  140.6493  134.8434  154.8327 H   0  0  0  0  0  0  0  0  0  0  0  0
  143.2895  135.7413  154.6453 H   0  0  0  0  0  0  0  0  0  0  0  0
  142.8077  134.0688  154.5701 H   0  0  0  0  0  0  0  0  0  0  0  0
  142.2948  135.6641  152.0831 H   0  0  0  0  0  0  0  0  0  0  0  0
  143.6842  132.9798  152.5979 H   0  0  0  0  0  0  0  0  0  0  0  0
  142.0319  133.1648  152.0446 H   0  0  0  0  0  0  0  0  0  0  0  0
  143.2348  131.5028  150.6039 H   0  0  0  0  0  0  0  0  0  0  0  0
  143.5167  132.2408  149.0358 H   0  0  0  0  0  0  0  0  0  0  0  0
  145.5697  131.3393  150.9507 H   0  0  0  0  0  0  0  0  0  0  0  0
  145.7555  131.8356  149.2729 H   0  0  0  0  0  0  0  0  0  0  0  0
  146.0363  133.4577  151.7687 H   0  0  0  0  0  0  0  0  0  0  0  0
  146.7735  133.7654  150.1982 H   0  0  0  0  0  0  0  0  0  0  0  0
  144.7455  134.6706  149.3172 H   0  0  0  0  0  0  0  0  0  0  0  0
  145.6825  136.2269  151.1304 H   0  0  0  0  0  0  0  0  0  0  0  0
  144.0095  136.4810  150.6910 H   0  0  0  0  0  0  0  0  0  0  0  0
  142.7200  134.0365  150.0450 H   0  0  0  0  0  0  0  0  0  0  0  0
  1  2  1  0  0  0  0
  1 21  1  0  0  0  0
  1 22  1  0  0  0  0
  1 23  1  0  0  0  0
  2 20  1  0  0  0  0
  2  3  2  0  0  0  0
  3  4  1  0  0  0  0
  4  5  2  0  0  0  0
  5  6  1  0  0  0  0
  5 20  1  0  0  0  0
  6  7  1  0  0  0  0
  6 24  1  0  0  0  0
  7  8  2  0  0  0  0
  7  9  1  0  0  0  0
  9 10  1  0  0  0  0
  9 25  1  0  0  0  0
 10 11  1  0  0  0  0
 10 26  1  0  0  0  0
 10 27  1  0  0  0  0
 11 19  1  0  0  0  0
 11 12  1  0  0  0  0
 11 28  1  0  0  0  0
 12 13  1  0  0  0  0
 12 29  1  0  0  0  0
 12 30  1  0  0  0  0
 13 17  1  0  0  0  0
 13 14  1  0  0  0  0
 13 40  1  0  0  0  0
 14 15  1  0  0  0  0
 14 31  1  0  0  0  0
 14 32  1  0  0  0  0
 15 16  1  0  0  0  0
 15 33  1  0  0  0  0
 15 34  1  0  0  0  0
 16 17  1  0  0  0  0
 16 35  1  0  0  0  0
 16 36  1  0  0  0  0
 17 18  1  0  0  0  0
 17 37  1  0  0  0  0
 18 19  1  0  0  0  0
 18 38  1  0  0  0  0
 18 39  1  0  0  0  0
M  CHG  1  13   1
M  END
> <s_m_source_file>
AV-unprocessed.smi

> <i_m_source_file_index>
1809

> <i_lp_mmshare_version>
43012

> <i_f3d_flags>
0

> <s_epik_input>
W0NIM11jMW5uYyhzMSlbTkhdQyg9TylbTkhdW0NIMl1bQ0BIXShbQ0gyXTIpT1tDSDJdW0NAQEhdKE4yMylbQ0gyXVtDSDJdW0NIMl0z

> <s_epik_cmdline>
J2VwaWtfcHl0aG9uJywgJy1waCcsICc3LjAnLCAnLXRuJywgJzgnLCAnLW1hJywgJzIwMCcsICctbWV0YWxfYmluZGluZycsICctaW1hZScsICc8aW5maWxlLm1hZT4nLCAnLW9tYWUnLCAnPG91dGZpbGUubWFlPic=

> <r_lp_tautomer_probability>
1

> <r_epik_Ionization_Penalty>
0.112474

> <r_epik_Ionization_Penalty_Charging>
0.108916

> <r_epik_Ionization_Penalty_Neutral>
0.00355844

> <r_epik_State_Penalty>
0.0565397

> <r_epik_Charging_Adjusted_Penalty>
0.165456

> <i_epik_Tot_Q>
1

> <i_epik_Tot_abs_Q>
1

> <r_epik_Metal_State_Penalty>
0.422831

> <b_epik_Metal_Only>
0

> <s_lp_Force_Field>
OPLS_2005

> <r_lp_Energy>
35.4297

> <b_lp_Chiralities_Consistent>
1

> <s_lp_Variant>
AV-unprocessed.smi:1809-5

> <Gold.Version>
5.8.1

> <Gold.Id.Protein>
6NUR|6NUR_protein|mol2

> <Gold.PLP.Fitness>
42.5760

> <Gold.PLP.PLP>
-35.4186

> <Gold.PLP.part.hbond>
-2.0000

> <Gold.PLP.part.metal>
0.0000

> <Gold.PLP.part.buried>
-4.6660

> <Gold.PLP.part.nonpolar>
-29.3645

> <Gold.PLP.part.repulsive>
0.4687

> <Gold.PLP.ligand.clash>
0.0000

> <Gold.PLP.ligand.torsion>
0.6216

> <Gold.PLP.Chemscore.Hbond>
2.8000

> <Gold.PLP.Chemscore.CHOScore>
0.0000

> <Gold.PLP.Chemscore.Metal>
0.0000

> <Gold.Chemscore.Hbonds>
donor molecule, donor type, donor heavy atom, donor atom, acceptor molecule, acceptor atom, score
      L1  H     9    25       P1 11000  0.80
      L1  H    13    40       P1 10186  2.00

> <Gold.PLP.Chemscore.Internal.Correction>
0.0006

> <Gold.Rescore>
     Score         DG    S(hbond)    S(metal)    S(lipo)     H(rot)  DE(clash)    DE(int)     intcor
     15.45     -17.38       1.82        0.00      78.92       1.34       0.10       1.83       ----

> <Gold.Chemscore.Fitness>
15.4516

> <Gold.Chemscore.DG>
-17.3761

> <Gold.Chemscore.ZeroCoef>
-5.4800

> <Gold.Chemscore.Hbond>
1.8235

> <Gold.Chemscore.Metal>
0.0000

> <Gold.Chemscore.Lipo>
78.9200

> <Gold.Chemscore.Internal_Hbond>
0.0000

> <Gold.Chemscore.DEClash>
0.0975

> <Gold.Chemscore.DEInternal>
1.8270

> <Gold.Chemscore.Rot>
1.3391

> <Gold.Chemscore.Internal.Correction>
   9.000000E+99

> <Gold.Chemscore.Hbonds>
donor molecule, donor type, donor heavy atom, donor atom, acceptor molecule, acceptor atom, score
      L1  H     9    25       P1 11000  0.64
      L1  H    13    40       P1 10186  0.98

> <Gold.Chemscore.Hbond.Weighted>
-6.0906

> <Gold.Chemscore.Metal.Weighted>
-0.0000

> <Gold.Chemscore.Lipo.Weighted>
-9.2336

> <Gold.Chemscore.Internal_Hbond.Weighted>
0.0000

> <Gold.Chemscore.DEClash.Weighted>
0.0975

> <Gold.Chemscore.DEInternal.Weighted>
1.8270

> <Gold.Chemscore.Rot.Weighted>
3.4281

> <Gold.Chemscore.Internal.Correction.Weighted>
   9.000000E+99

> <Gold.Protein.RotatedTorsions>
[ 6907 6896 6895 6894 ] final   91.82 input  -60.11 | X-H torsion
[ 7974 7965 7964 7962 ] final  -10.47 input  175.53 | X-H torsion
[ 8008 7997 7996 7995 ] final  144.69 input   59.86 | X-H torsion
[ 10167 10162 10161 10158 ] final  141.80 input  -65.29 | X-H torsion
[ 10718 10713 10712 10709 ] final   41.23 input   66.30 | X-H torsion
[ 10763 10752 10751 10750 ] final   67.37 input  -60.55 | X-H torsion
[ 11005 11000 10999 10996 ] final -103.42 input  -57.11 | X-H torsion

> <Gold.Protein.ActiveResidues>
 VAL166  LYS551  ARG553  GLY616  TRP617  ASP618  TYR619  PRO620  LYS621  CYS622 
 ASP623  PHE694  ASN695  SER759  ASP760  ASP761  ALA762  ILE779  LEU786  VAL792 
 PHE793  MET794  SER795  GLU796  ALA797  LYS798  CYS799  TRP800  GLU811  SER814 

> <Gold.Protein.RotatedAtoms>
  152.5451  134.1598  159.8552 H   0  0  0  0  0  0  0  0  0  0  0  0  # atno 6907 bound_to 6896
  151.1618  133.4833  159.2601 H   0  0  0  0  0  0  0  0  0  0  0  0  # atno 6908 bound_to 6896
  151.1365  135.0169  159.8661 H   0  0  0  0  0  0  0  0  0  0  0  0  # atno 6909 bound_to 6896
  146.2219  140.2768  142.8360 H   0  0  0  0  0  0  0  0  0  0  0  0  # atno 7974 bound_to 7965
  156.2902  140.2229  156.5094 H   0  0  0  0  0  0  0  0  0  0  0  0  # atno 8008 bound_to 7997
  154.7621  140.0472  157.1004 H   0  0  0  0  0  0  0  0  0  0  0  0  # atno 8009 bound_to 7997
  154.9977  140.3098  155.4883 H   0  0  0  0  0  0  0  0  0  0  0  0  # atno 8010 bound_to 7997
  139.5011  144.6148  151.6188 H   0  0  0  0  0  0  0  0  0  0  0  0  # atno 10167 bound_to 10162
  157.3912  130.7807  149.7271 H   0  0  0  0  0  0  0  0  0  0  0  0  # atno 10718 bound_to 10713
  153.0183  135.5286  154.6970 H   0  0  0  0  0  0  0  0  0  0  0  0  # atno 10763 bound_to 10752
  154.6089  135.2876  155.0456 H   0  0  0  0  0  0  0  0  0  0  0  0  # atno 10764 bound_to 10752
  154.1485  135.6566  153.5010 H   0  0  0  0  0  0  0  0  0  0  0  0  # atno 10765 bound_to 10752
  141.1146  133.8639  157.1484 H   0  0  0  0  0  0  0  0  0  0  0  0  # atno 11005 bound_to 11000
  144.9226  140.7885  143.5738 LP  0  0  0  0  0  0  0  0  0  0  0  0  # atno 17320 bound_to 7965
  145.2706  139.1956  143.4843 LP  0  0  0  0  0  0  0  0  0  0  0  0  # atno 17321 bound_to 7965
  140.5833  143.9907  150.6281 LP  0  0  0  0  0  0  0  0  0  0  0  0  # atno 17342 bound_to 10162
  140.3064  143.3227  152.0922 LP  0  0  0  0  0  0  0  0  0  0  0  0  # atno 17343 bound_to 10162
  155.9799  130.4035  150.3561 LP  0  0  0  0  0  0  0  0  0  0  0  0  # atno 17370 bound_to 10713
  157.1677  131.0361  151.2810 LP  0  0  0  0  0  0  0  0  0  0  0  0  # atno 17371 bound_to 10713
  140.0060  135.0008  157.0294 LP  0  0  0  0  0  0  0  0  0  0  0  0  # atno 17394 bound_to 11000
  140.4681  134.1415  155.7199 LP  0  0  0  0  0  0  0  0  0  0  0  0  # atno 17395 bound_to 11000

$$$$
