AV-unprocessed.smi:1826|AV-procd|sdf|7418|dock4
  -GOLD-   22720 9103D 1   1.00000     0.00000
 Structure written by MMmdl.
 40 42  0  0  0  0  0  0  0  0  2 V2000
  149.5381  141.0090  153.5373 O   0  0  0  0  0  0  0  0  0  0  0  0
  149.0398  140.6315  154.8041 C   0  0  0  0  0  0  0  0  0  0  0  0
  149.8981  141.0924  155.9387 C   0  0  0  0  0  0  0  0  0  0  0  0
  150.1120  142.3840  156.3208 N   0  3  0  0  0  0  0  0  0  0  0  0
  150.9851  142.4186  157.4082 C   0  0  0  0  0  0  0  0  0  0  0  0
  151.4973  143.4910  158.1318 C   0  0  0  0  0  0  0  0  0  0  0  0
  152.3764  143.1784  159.1895 C   0  0  0  0  0  0  0  0  0  0  0  0
  152.7137  141.8434  159.4936 C   0  0  0  0  0  0  0  0  0  0  0  0
  152.1862  140.7646  158.7539 C   0  0  0  0  0  0  0  0  0  0  0  0
  151.3186  141.0821  157.7091 C   0  0  0  0  0  0  0  0  0  0  0  0
  150.6229  140.3000  156.7799 N   0  0  0  0  0  0  0  0  0  0  0  0
  150.7651  138.8341  156.8166 C   0  0  0  0  0  0  0  0  0  0  0  0
  149.4486  138.0446  156.5855 C   0  0  1  0  0  0  0  0  0  0  0  0
  149.5868  137.0090  155.6280 O   0  0  0  0  0  0  0  0  0  0  0  0
  148.8532  137.5496  157.8961 C   0  0  0  0  0  0  0  0  0  0  0  0
  149.6875  136.9546  158.8657 C   0  0  0  0  0  0  0  0  0  0  0  0
  149.1470  136.4849  160.0786 C   0  0  0  0  0  0  0  0  0  0  0  0
  147.7648  136.6046  160.3383 C   0  0  0  0  0  0  0  0  0  0  0  0
  147.1816  136.0876  161.6452 C   0  0  0  0  0  0  0  0  0  0  0  0
  145.8739  136.3382  161.7186 F   0  0  0  0  0  0  0  0  0  0  0  0
  147.3703  134.7707  161.7187 F   0  0  0  0  0  0  0  0  0  0  0  0
  147.7758  136.6659  162.6893 F   0  0  0  0  0  0  0  0  0  0  0  0
  146.9287  137.1898  159.3632 C   0  0  0  0  0  0  0  0  0  0  0  0
  147.4689  137.6608  158.1512 C   0  0  0  0  0  0  0  0  0  0  0  0
  149.3923  140.2972  152.9326 H   0  0  0  0  0  0  0  0  0  0  0  0
  148.0364  141.0401  154.9259 H   0  0  0  0  0  0  0  0  0  0  0  0
  148.9556  139.5452  154.8401 H   0  0  0  0  0  0  0  0  0  0  0  0
  151.2408  144.5142  157.8991 H   0  0  0  0  0  0  0  0  0  0  0  0
  152.8009  143.9784  159.7784 H   0  0  0  0  0  0  0  0  0  0  0  0
  153.3915  141.6419  160.3105 H   0  0  0  0  0  0  0  0  0  0  0  0
  152.4524  139.7466  158.9959 H   0  0  0  0  0  0  0  0  0  0  0  0
  151.5379  138.5420  156.1049 H   0  0  0  0  0  0  0  0  0  0  0  0
  151.1738  138.5769  157.7942 H   0  0  0  0  0  0  0  0  0  0  0  0
  148.7261  138.7348  156.1478 H   0  0  0  0  0  0  0  0  0  0  0  0
  148.9411  137.1409  154.9503 H   0  0  0  0  0  0  0  0  0  0  0  0
  150.7472  136.8535  158.6819 H   0  0  0  0  0  0  0  0  0  0  0  0
  149.7992  136.0288  160.8090 H   0  0  0  0  0  0  0  0  0  0  0  0
  145.8668  137.2791  159.5389 H   0  0  0  0  0  0  0  0  0  0  0  0
  146.8121  138.1037  157.4168 H   0  0  0  0  0  0  0  0  0  0  0  0
  149.6910  143.1806  155.8601 H   0  0  0  0  0  0  0  0  0  0  0  0
  1  2  1  0  0  0  0
  1 25  1  0  0  0  0
  2  3  1  0  0  0  0
  2 26  1  0  0  0  0
  2 27  1  0  0  0  0
  3 11  1  0  0  0  0
  3  4  2  0  0  0  0
  4  5  1  0  0  0  0
  4 40  1  0  0  0  0
  5 10  2  0  0  0  0
  5  6  1  0  0  0  0
  6  7  2  0  0  0  0
  6 28  1  0  0  0  0
  7  8  1  0  0  0  0
  7 29  1  0  0  0  0
  8  9  2  0  0  0  0
  8 30  1  0  0  0  0
  9 10  1  0  0  0  0
  9 31  1  0  0  0  0
 10 11  1  0  0  0  0
 11 12  1  0  0  0  0
 12 13  1  0  0  0  0
 12 32  1  0  0  0  0
 12 33  1  0  0  0  0
 13 14  1  0  0  0  0
 13 15  1  0  0  0  0
 13 34  1  0  0  0  0
 14 35  1  0  0  0  0
 15 24  1  0  0  0  0
 15 16  2  0  0  0  0
 16 17  1  0  0  0  0
 16 36  1  0  0  0  0
 17 18  2  0  0  0  0
 17 37  1  0  0  0  0
 18 19  1  0  0  0  0
 18 23  1  0  0  0  0
 19 20  1  0  0  0  0
 19 21  1  0  0  0  0
 19 22  1  0  0  0  0
 23 24  2  0  0  0  0
 23 38  1  0  0  0  0
 24 39  1  0  0  0  0
M  CHG  1   4   1
M  END
> <s_m_source_file>
AV-unprocessed.smi

> <i_m_source_file_index>
1826

> <i_lp_mmshare_version>
43012

> <i_f3d_flags>
0

> <s_epik_input>
W2NIXTFbY0hdW2NIXVtjSF1jKGMxMiluKGMobjIpW0NIMl1bT0hdKVtDSDJdW0NASF0oW09IXSljM1tjSF1bY0hdYyhDKEYpKEYpRilbY0hdW2NIXTM=

> <s_epik_cmdline>
J2VwaWtfcHl0aG9uJywgJy1waCcsICc3LjAnLCAnLXRuJywgJzgnLCAnLW1hJywgJzIwMCcsICctbWV0YWxfYmluZGluZycsICctaW1hZScsICc8aW5maWxlLm1hZT4nLCAnLW9tYWUnLCAnPG91dGZpbGUubWFlPic=

> <r_epik_Ionization_Penalty>
1.35643

> <r_epik_Ionization_Penalty_Charging>
1.35557

> <r_epik_Ionization_Penalty_Neutral>
0.000856405

> <r_epik_State_Penalty>
1.43401

> <r_epik_Charging_Adjusted_Penalty>
2.78958

> <i_epik_Tot_Q>
1

> <i_epik_Tot_abs_Q>
1

> <r_epik_Metal_State_Penalty>
5.47166

> <b_epik_Metal_Only>
0

> <s_lp_Force_Field>
OPLS_2005

> <r_lp_Energy>
22.2169

> <b_lp_Chiralities_Consistent>
1

> <s_lp_Variant>
AV-unprocessed.smi:1826-4

> <Gold.Version>
5.8.1

> <Gold.Id.Protein>
6NUR|6NUR_protein|mol2

> <Gold.PLP.Fitness>
53.7090

> <Gold.PLP.PLP>
-44.7969

> <Gold.PLP.part.hbond>
-4.0000

> <Gold.PLP.part.metal>
0.0000

> <Gold.PLP.part.buried>
-4.6932

> <Gold.PLP.part.nonpolar>
-36.7365

> <Gold.PLP.part.repulsive>
0.0862

> <Gold.PLP.ligand.clash>
1.1711

> <Gold.PLP.ligand.torsion>
1.4983

> <Gold.PLP.Chemscore.Hbond>
3.9023

> <Gold.PLP.Chemscore.CHOScore>
0.0000

> <Gold.PLP.Chemscore.Metal>
0.0000

> <Gold.Chemscore.Hbonds>
donor molecule, donor type, donor heavy atom, donor atom, acceptor molecule, acceptor atom, score
      L1  H     1    25       P1  7957  0.70
      L1  H     4    40       P1  8028  2.00
      P1  H  7989  7998       L1     1  0.19
      P1  H  8011  8017       L1     1  1.00

> <Gold.PLP.Chemscore.Internal.Correction>
1.3727

> <Gold.Rescore>
     Score         DG    S(hbond)    S(metal)    S(lipo)     H(rot)  DE(clash)    DE(int)     intcor
     15.25     -16.61       2.30        0.00      94.79       2.98       0.01       1.35       ----

> <Gold.Chemscore.Fitness>
15.2475

> <Gold.Chemscore.DG>
-16.6094

> <Gold.Chemscore.ZeroCoef>
-5.4800

> <Gold.Chemscore.Hbond>
2.2973

> <Gold.Chemscore.Metal>
0.0000

> <Gold.Chemscore.Lipo>
94.7932

> <Gold.Chemscore.Internal_Hbond>
0.0000

> <Gold.Chemscore.DEClash>
0.0139

> <Gold.Chemscore.DEInternal>
1.3481

> <Gold.Chemscore.Rot>
2.9822

> <Gold.Chemscore.Internal.Correction>
   9.000000E+99

> <Gold.Chemscore.Hbonds>
donor molecule, donor type, donor heavy atom, donor atom, acceptor molecule, acceptor atom, score
      L1  H     1    25       P1  7957  0.70
      L1  H     4    40       P1  8028  1.00
      P1  H  7989  7998       L1     1  0.02
      P1  H  8011  8017       L1     1  0.25

> <Gold.Chemscore.Hbond.Weighted>
-7.6730

> <Gold.Chemscore.Metal.Weighted>
-0.0000

> <Gold.Chemscore.Lipo.Weighted>
-11.0908

> <Gold.Chemscore.Internal_Hbond.Weighted>
0.0000

> <Gold.Chemscore.DEClash.Weighted>
0.0139

> <Gold.Chemscore.DEInternal.Weighted>
1.3481

> <Gold.Chemscore.Rot.Weighted>
7.6343

> <Gold.Chemscore.Internal.Correction.Weighted>
   9.000000E+99

> <Gold.Protein.RotatedTorsions>
[ 6907 6896 6895 6894 ] final  148.80 input  -60.11 | X-H torsion
[ 7974 7965 7964 7962 ] final  116.02 input  175.53 | X-H torsion
[ 8008 7997 7996 7995 ] final -178.09 input   59.86 | X-H torsion
[ 10167 10162 10161 10158 ] final  166.52 input  -65.29 | X-H torsion
[ 10718 10713 10712 10709 ] final  170.93 input   66.30 | X-H torsion
[ 10763 10752 10751 10750 ] final  133.01 input  -60.55 | X-H torsion
[ 11005 11000 10999 10996 ] final -111.79 input  -57.11 | X-H torsion

> <Gold.Protein.ActiveResidues>
 VAL166  LYS551  ARG553  GLY616  TRP617  ASP618  TYR619  PRO620  LYS621  CYS622 
 ASP623  PHE694  ASN695  SER759  ASP760  ASP761  ALA762  ILE779  LEU786  VAL792 
 PHE793  MET794  SER795  GLU796  ALA797  LYS798  CYS799  TRP800  GLU811  SER814 

> <Gold.Protein.RotatedAtoms>
  152.1366  133.4439  159.4746 H   0  0  0  0  0  0  0  0  0  0  0  0  # atno 6907 bound_to 6896
  150.6882  134.2356  159.4461 H   0  0  0  0  0  0  0  0  0  0  0  0  # atno 6908 bound_to 6896
  152.0244  134.9804  160.0622 H   0  0  0  0  0  0  0  0  0  0  0  0  # atno 6909 bound_to 6896
  145.1847  139.3031  143.4399 H   0  0  0  0  0  0  0  0  0  0  0  0  # atno 7974 bound_to 7965
  156.0147  140.1248  157.0418 H   0  0  0  0  0  0  0  0  0  0  0  0  # atno 8008 bound_to 7997
  154.4289  140.1080  156.5949 H   0  0  0  0  0  0  0  0  0  0  0  0  # atno 8009 bound_to 7997
  155.6030  140.3470  155.4601 H   0  0  0  0  0  0  0  0  0  0  0  0  # atno 8010 bound_to 7997
  139.4926  144.4019  151.9399 H   0  0  0  0  0  0  0  0  0  0  0  0  # atno 10167 bound_to 10162
  157.0009  131.0176  151.2831 H   0  0  0  0  0  0  0  0  0  0  0  0  # atno 10718 bound_to 10713
  153.8001  135.3143  155.3389 H   0  0  0  0  0  0  0  0  0  0  0  0  # atno 10763 bound_to 10752
  154.8092  135.4678  154.0475 H   0  0  0  0  0  0  0  0  0  0  0  0  # atno 10764 bound_to 10752
  153.1820  135.6895  153.8552 H   0  0  0  0  0  0  0  0  0  0  0  0  # atno 10765 bound_to 10752
  141.0713  133.9374  157.2478 H   0  0  0  0  0  0  0  0  0  0  0  0  # atno 11005 bound_to 11000
  146.3447  140.2039  142.8589 LP  0  0  0  0  0  0  0  0  0  0  0  0  # atno 17320 bound_to 7965
  145.0101  140.8706  143.5229 LP  0  0  0  0  0  0  0  0  0  0  0  0  # atno 17321 bound_to 7965
  140.3458  144.3148  150.5958 LP  0  0  0  0  0  0  0  0  0  0  0  0  # atno 17342 bound_to 10162
  140.5527  143.2204  151.7900 LP  0  0  0  0  0  0  0  0  0  0  0  0  # atno 17343 bound_to 10162
  157.5391  130.8108  149.8007 LP  0  0  0  0  0  0  0  0  0  0  0  0  # atno 17370 bound_to 10713
  156.0171  130.3809  150.2076 LP  0  0  0  0  0  0  0  0  0  0  0  0  # atno 17371 bound_to 10713
  139.9527  135.0172  156.9039 LP  0  0  0  0  0  0  0  0  0  0  0  0  # atno 17394 bound_to 11000
  140.5667  134.0483  155.7416 LP  0  0  0  0  0  0  0  0  0  0  0  0  # atno 17395 bound_to 11000

$$$$
