AV-unprocessed.smi:764|AV-procd|sdf|3642|dock3
  -GOLD-   22720 1 43D 1   1.00000     0.00000
 Structure written by MMmdl.
 37 37  0  0  0  0  0  0  0  0  2 V2000
  146.2533  142.8670  153.7362 C   0  0  0  0  0  0  0  0  0  0  0  0
  146.8920  141.6500  154.4197 C   0  0  0  0  0  0  0  0  0  0  0  0
  148.4228  141.6736  154.3154 C   0  0  0  0  0  0  0  0  0  0  0  0
  146.3811  140.4223  153.8148 N   0  0  0  0  0  0  0  0  0  0  0  0
  146.8376  139.1802  154.0407 C   0  0  0  0  0  0  0  0  0  0  0  0
  147.7668  138.9246  154.8065 O   0  0  0  0  0  0  0  0  0  0  0  0
  146.1265  138.0525  153.2871 C   0  0  0  0  0  0  0  0  0  0  0  0
  146.1637  138.2387  151.7607 C   0  0  0  0  0  0  0  0  0  0  0  0
  146.4260  136.9550  151.0812 N   0  3  0  0  0  0  0  0  0  0  0  0
  145.6058  135.8320  151.5745 C   0  0  0  0  0  0  0  0  0  0  0  0
  144.8025  135.1970  150.4308 C   0  0  0  0  0  0  0  0  0  0  0  0
  144.8083  133.7496  150.5093 N   0  0  0  0  0  0  0  0  0  0  0  0
  143.7429  132.8953  150.7017 C   0  0  0  0  0  0  0  0  0  0  0  0
  144.2394  131.6233  150.7081 C   0  0  0  0  0  0  0  0  0  0  0  0
  145.6368  131.8044  150.5095 C   0  0  0  0  0  0  0  0  0  0  0  0
  145.9737  133.0787  150.3890 N   0  0  0  0  0  0  0  0  0  0  0  0
  146.6172  143.7974  154.1730 H   0  0  0  0  0  0  0  0  0  0  0  0
  145.1683  142.8548  153.8456 H   0  0  0  0  0  0  0  0  0  0  0  0
  146.4808  142.8895  152.6698 H   0  0  0  0  0  0  0  0  0  0  0  0
  146.6335  141.6862  155.4792 H   0  0  0  0  0  0  0  0  0  0  0  0
  148.8322  142.5761  154.7701 H   0  0  0  0  0  0  0  0  0  0  0  0
  148.7524  141.6463  153.2762 H   0  0  0  0  0  0  0  0  0  0  0  0
  148.8645  140.8186  154.8282 H   0  0  0  0  0  0  0  0  0  0  0  0
  145.6090  140.5293  153.1728 H   0  0  0  0  0  0  0  0  0  0  0  0
  146.5958  137.1066  153.5599 H   0  0  0  0  0  0  0  0  0  0  0  0
  145.0896  137.9971  153.6230 H   0  0  0  0  0  0  0  0  0  0  0  0
  145.2127  138.6400  151.4065 H   0  0  0  0  0  0  0  0  0  0  0  0
  146.9405  138.9530  151.4832 H   0  0  0  0  0  0  0  0  0  0  0  0
  146.2468  137.0722  150.0939 H   0  0  0  0  0  0  0  0  0  0  0  0
  146.2555  135.0855  152.0334 H   0  0  0  0  0  0  0  0  0  0  0  0
  144.9324  136.1964  152.3516 H   0  0  0  0  0  0  0  0  0  0  0  0
  143.7673  135.5414  150.4524 H   0  0  0  0  0  0  0  0  0  0  0  0
  145.2148  135.4930  149.4652 H   0  0  0  0  0  0  0  0  0  0  0  0
  142.7322  133.2582  150.8177 H   0  0  0  0  0  0  0  0  0  0  0  0
  143.6887  130.7031  150.8366 H   0  0  0  0  0  0  0  0  0  0  0  0
  146.4109  131.0536  150.4504 H   0  0  0  0  0  0  0  0  0  0  0  0
  147.3999  136.7197  151.2083 H   0  0  0  0  0  0  0  0  0  0  0  0
  1  2  1  0  0  0  0
  1 17  1  0  0  0  0
  1 18  1  0  0  0  0
  1 19  1  0  0  0  0
  2  3  1  0  0  0  0
  2  4  1  0  0  0  0
  2 20  1  0  0  0  0
  3 21  1  0  0  0  0
  3 22  1  0  0  0  0
  3 23  1  0  0  0  0
  4  5  1  0  0  0  0
  4 24  1  0  0  0  0
  5  6  2  0  0  0  0
  5  7  1  0  0  0  0
  7  8  1  0  0  0  0
  7 25  1  0  0  0  0
  7 26  1  0  0  0  0
  8  9  1  0  0  0  0
  8 27  1  0  0  0  0
  8 28  1  0  0  0  0
  9 10  1  0  0  0  0
  9 29  1  0  0  0  0
  9 37  1  0  0  0  0
 10 11  1  0  0  0  0
 10 30  1  0  0  0  0
 10 31  1  0  0  0  0
 11 12  1  0  0  0  0
 11 32  1  0  0  0  0
 11 33  1  0  0  0  0
 12 16  1  0  0  0  0
 12 13  1  0  0  0  0
 13 14  2  0  0  0  0
 13 34  1  0  0  0  0
 14 15  1  0  0  0  0
 14 35  1  0  0  0  0
 15 16  2  0  0  0  0
 15 36  1  0  0  0  0
M  CHG  1   9   1
M  END
> <s_m_source_file>
AV-unprocessed.smi

> <i_m_source_file_index>
764

> <i_lp_mmshare_version>
43012

> <i_f3d_flags>
0

> <s_epik_input>
W0NIM11bQ0hdKFtDSDNdKVtOSF1DKD1PKVtDSDJdW0NIMl1bTkhdW0NIMl1bQ0gyXW4xW2NIXVtjSF1bY0hdbjE=

> <s_epik_cmdline>
J2VwaWtfcHl0aG9uJywgJy1waCcsICc3LjAnLCAnLXRuJywgJzgnLCAnLW1hJywgJzIwMCcsICctbWV0YWxfYmluZGluZycsICctaW1hZScsICc8aW5maWxlLm1hZT4nLCAnLW9tYWUnLCAnPG91dGZpbGUubWFlPic=

> <r_lp_tautomer_probability>
1

> <r_epik_Ionization_Penalty>
0.00578048

> <r_epik_Ionization_Penalty_Charging>
0.00577767

> <r_epik_Ionization_Penalty_Neutral>
2.80872e-06

> <r_epik_State_Penalty>
-0

> <r_epik_Charging_Adjusted_Penalty>
0.00577767

> <i_epik_Tot_Q>
1

> <i_epik_Tot_abs_Q>
1

> <r_epik_Metal_State_Penalty>
-0

> <b_epik_Metal_Only>
0

> <s_lp_Force_Field>
OPLS_2005

> <r_lp_Energy>
3.7627

> <b_lp_Chiralities_Consistent>
1

> <s_lp_Variant>
AV-unprocessed.smi:764-1

> <Gold.Version>
5.8.1

> <Gold.Id.Protein>
6NUR|6NUR_protein|mol2

> <Gold.PLP.Fitness>
46.9962

> <Gold.PLP.PLP>
-34.0166

> <Gold.PLP.part.hbond>
-2.2729

> <Gold.PLP.part.metal>
0.0000

> <Gold.PLP.part.buried>
-3.9978

> <Gold.PLP.part.nonpolar>
-29.1577

> <Gold.PLP.part.repulsive>
0.3866

> <Gold.PLP.ligand.clash>
0.0000

> <Gold.PLP.ligand.torsion>
1.1261

> <Gold.PLP.Chemscore.Hbond>
3.0000

> <Gold.PLP.Chemscore.CHOScore>
2.0000

> <Gold.PLP.Chemscore.Metal>
0.0000

> <Gold.Chemscore.Hbonds>
donor molecule, donor type, donor heavy atom, donor atom, acceptor molecule, acceptor atom, score
      L1  H     4    24       P1 10175  0.96
      L1  H     9    37       P1  7948  2.00
      L1  C    13    34       P1 10186  1.00
      L1  C    15    36       P1 10747  0.90

> <Gold.PLP.Chemscore.Internal.Correction>
0.2317

> <Gold.Rescore>
     Score         DG    S(hbond)    S(metal)    S(lipo)     H(rot)  DE(clash)    DE(int)     intcor
     13.30     -14.76       1.98        0.00      74.64       2.37       0.44       1.02       ----

> <Gold.Chemscore.Fitness>
13.3002

> <Gold.Chemscore.DG>
-14.7603

> <Gold.Chemscore.ZeroCoef>
-5.4800

> <Gold.Chemscore.Hbond>
1.9832

> <Gold.Chemscore.Metal>
0.0000

> <Gold.Chemscore.Lipo>
74.6440

> <Gold.Chemscore.Internal_Hbond>
0.0000

> <Gold.Chemscore.DEClash>
0.4432

> <Gold.Chemscore.DEInternal>
1.0169

> <Gold.Chemscore.Rot>
2.3738

> <Gold.Chemscore.Internal.Correction>
   9.000000E+99

> <Gold.Chemscore.Hbonds>
donor molecule, donor type, donor heavy atom, donor atom, acceptor molecule, acceptor atom, score
      L1  H     4    24       P1 10175  0.82
      L1  H     9    37       P1  7948  1.00

> <Gold.Chemscore.Hbond.Weighted>
-6.6238

> <Gold.Chemscore.Metal.Weighted>
-0.0000

> <Gold.Chemscore.Lipo.Weighted>
-8.7333

> <Gold.Chemscore.Internal_Hbond.Weighted>
0.0000

> <Gold.Chemscore.DEClash.Weighted>
0.4432

> <Gold.Chemscore.DEInternal.Weighted>
1.0169

> <Gold.Chemscore.Rot.Weighted>
6.0769

> <Gold.Chemscore.Internal.Correction.Weighted>
   9.000000E+99

> <Gold.Protein.RotatedTorsions>
[ 6907 6896 6895 6894 ] final -100.69 input  -60.11 | X-H torsion
[ 7974 7965 7964 7962 ] final   44.02 input  175.53 | X-H torsion
[ 8008 7997 7996 7995 ] final  173.43 input   59.86 | X-H torsion
[ 10167 10162 10161 10158 ] final  122.64 input  -65.29 | X-H torsion
[ 10718 10713 10712 10709 ] final  163.06 input   66.30 | X-H torsion
[ 10763 10752 10751 10750 ] final  165.11 input  -60.55 | X-H torsion
[ 11005 11000 10999 10996 ] final    3.08 input  -57.11 | X-H torsion

> <Gold.Protein.ActiveResidues>
 VAL166  LYS551  ARG553  GLY616  TRP617  ASP618  TYR619  PRO620  LYS621  CYS622 
 ASP623  PHE694  ASN695  SER759  ASP760  ASP761  ALA762  ILE779  LEU786  VAL792 
 PHE793  MET794  SER795  GLU796  ALA797  LYS798  CYS799  TRP800  GLU811  SER814 

> <Gold.Protein.RotatedAtoms>
  150.7125  134.0849  159.3910 H   0  0  0  0  0  0  0  0  0  0  0  0  # atno 6907 bound_to 6896
  151.8833  135.0443  160.0500 H   0  0  0  0  0  0  0  0  0  0  0  0  # atno 6908 bound_to 6896
  152.2550  133.5212  159.5384 H   0  0  0  0  0  0  0  0  0  0  0  0  # atno 6909 bound_to 6896
  146.0605  139.5121  142.9661 H   0  0  0  0  0  0  0  0  0  0  0  0  # atno 7974 bound_to 7965
  156.1076  140.1460  156.9383 H   0  0  0  0  0  0  0  0  0  0  0  0  # atno 8008 bound_to 7997
  154.4744  140.0899  156.7270 H   0  0  0  0  0  0  0  0  0  0  0  0  # atno 8009 bound_to 7997
  155.4653  140.3440  155.4320 H   0  0  0  0  0  0  0  0  0  0  0  0  # atno 8010 bound_to 7997
  139.5846  144.7001  151.3441 H   0  0  0  0  0  0  0  0  0  0  0  0  # atno 10167 bound_to 10162
  157.1138  131.0475  151.2445 H   0  0  0  0  0  0  0  0  0  0  0  0  # atno 10718 bound_to 10713
  154.3191  135.2756  155.2528 H   0  0  0  0  0  0  0  0  0  0  0  0  # atno 10763 bound_to 10752
  154.4890  135.5838  153.6448 H   0  0  0  0  0  0  0  0  0  0  0  0  # atno 10764 bound_to 10752
  152.9879  135.6130  154.3374 H   0  0  0  0  0  0  0  0  0  0  0  0  # atno 10765 bound_to 10752
  140.5971  133.9870  155.8115 H   0  0  0  0  0  0  0  0  0  0  0  0  # atno 11005 bound_to 11000
  145.6568  141.0250  143.1730 LP  0  0  0  0  0  0  0  0  0  0  0  0  # atno 17320 bound_to 7965
  144.7172  139.8155  143.7394 LP  0  0  0  0  0  0  0  0  0  0  0  0  # atno 17321 bound_to 7965
  140.7120  143.7366  150.7584 LP  0  0  0  0  0  0  0  0  0  0  0  0  # atno 17342 bound_to 10162
  140.0907  143.4880  152.2480 LP  0  0  0  0  0  0  0  0  0  0  0  0  # atno 17343 bound_to 10162
  157.4536  130.7612  149.7173 LP  0  0  0  0  0  0  0  0  0  0  0  0  # atno 17370 bound_to 10713
  155.9844  130.3992  150.3313 LP  0  0  0  0  0  0  0  0  0  0  0  0  # atno 17371 bound_to 10713
  141.0897  133.9936  157.3257 LP  0  0  0  0  0  0  0  0  0  0  0  0  # atno 17394 bound_to 11000
  139.9248  135.0201  156.8197 LP  0  0  0  0  0  0  0  0  0  0  0  0  # atno 17395 bound_to 11000

$$$$
