AV-unprocessed.smi:2448|AV-procd|sdf|9662|dock3
  -GOLD-   2272013303D 1   1.00000     0.00000
 Structure written by MMmdl.
 38 39  0  0  0  0  0  0  0  0  2 V2000
  149.3894  132.0264  156.0894 O   0  0  0  0  0  0  0  0  0  0  0  0
  150.0204  132.1269  154.8254 C   0  0  2  0  0  0  0  0  0  0  0  0
  148.9352  132.0355  153.7339 C   0  0  0  0  0  0  0  0  0  0  0  0
  148.1418  130.8082  153.8451 N   0  0  0  0  0  0  0  0  0  0  0  0
  146.8429  130.8211  153.1583 C   0  0  1  0  0  0  0  0  0  0  0  0
  146.9222  131.5054  151.7691 C   0  0  0  0  0  0  0  0  0  0  0  0
  145.6100  132.0624  151.2455 C   0  0  0  0  0  0  0  0  0  0  0  0
  145.1748  131.7580  149.9365 C   0  0  0  0  0  0  0  0  0  0  0  0
  143.9490  132.2833  149.4790 C   0  0  0  0  0  0  0  0  0  0  0  0
  143.2090  133.0698  150.2909 N   0  3  0  0  0  0  0  0  0  0  0  0
  143.5902  133.3891  151.5472 C   0  0  0  0  0  0  0  0  0  0  0  0
  144.8068  132.8936  152.0589 C   0  0  0  0  0  0  0  0  0  0  0  0
  146.3155  129.3766  153.0271 C   0  0  0  0  0  0  0  0  0  0  0  0
  146.2401  128.8119  154.2328 F   0  0  0  0  0  0  0  0  0  0  0  0
  145.0940  129.3785  152.4935 F   0  0  0  0  0  0  0  0  0  0  0  0
  147.1230  128.6448  152.2586 F   0  0  0  0  0  0  0  0  0  0  0  0
  151.1186  131.0554  154.7010 C   0  0  0  0  0  0  0  0  0  0  0  0
  152.2897  131.4765  155.5933 C   0  0  0  0  0  0  0  0  0  0  0  0
  152.3745  133.2839  155.5681 S   0  0  0  0  0  0  0  0  0  0  0  0
  150.7552  133.4783  154.7758 C   0  0  0  0  0  0  0  0  0  0  0  0
  148.7240  131.3572  156.0417 H   0  0  0  0  0  0  0  0  0  0  0  0
  148.2828  132.9079  153.7895 H   0  0  0  0  0  0  0  0  0  0  0  0
  149.4236  132.0858  152.7647 H   0  0  0  0  0  0  0  0  0  0  0  0
  147.9955  130.5966  154.8275 H   0  0  0  0  0  0  0  0  0  0  0  0
  146.1179  131.3568  153.7727 H   0  0  0  0  0  0  0  0  0  0  0  0
  147.6727  132.2970  151.7888 H   0  0  0  0  0  0  0  0  0  0  0  0
  147.2732  130.7875  151.0275 H   0  0  0  0  0  0  0  0  0  0  0  0
  145.7701  131.1279  149.2917 H   0  0  0  0  0  0  0  0  0  0  0  0
  143.5416  132.0993  148.4956 H   0  0  0  0  0  0  0  0  0  0  0  0
  142.9151  134.0255  152.1009 H   0  0  0  0  0  0  0  0  0  0  0  0
  145.1122  133.1426  153.0651 H   0  0  0  0  0  0  0  0  0  0  0  0
  150.7604  130.0580  154.9591 H   0  0  0  0  0  0  0  0  0  0  0  0
  151.4614  131.0115  153.6662 H   0  0  0  0  0  0  0  0  0  0  0  0
  152.1100  131.1596  156.6211 H   0  0  0  0  0  0  0  0  0  0  0  0
  153.2324  131.0348  155.2701 H   0  0  0  0  0  0  0  0  0  0  0  0
  150.9428  133.7668  153.7409 H   0  0  0  0  0  0  0  0  0  0  0  0
  150.1861  134.2864  155.2367 H   0  0  0  0  0  0  0  0  0  0  0  0
  142.3250  133.4399  149.9400 H   0  0  0  0  0  0  0  0  0  0  0  0
  1  2  1  0  0  0  0
  1 21  1  0  0  0  0
  2 20  1  0  0  0  0
  2  3  1  0  0  0  0
  2 17  1  0  0  0  0
  3  4  1  0  0  0  0
  3 22  1  0  0  0  0
  3 23  1  0  0  0  0
  4  5  1  0  0  0  0
  4 24  1  0  0  0  0
  5  6  1  0  0  0  0
  5 13  1  0  0  0  0
  5 25  1  0  0  0  0
  6  7  1  0  0  0  0
  6 26  1  0  0  0  0
  6 27  1  0  0  0  0
  7 12  1  0  0  0  0
  7  8  2  0  0  0  0
  8  9  1  0  0  0  0
  8 28  1  0  0  0  0
  9 10  2  0  0  0  0
  9 29  1  0  0  0  0
 10 11  1  0  0  0  0
 10 38  1  0  0  0  0
 11 12  2  0  0  0  0
 11 30  1  0  0  0  0
 12 31  1  0  0  0  0
 13 14  1  0  0  0  0
 13 15  1  0  0  0  0
 13 16  1  0  0  0  0
 17 18  1  0  0  0  0
 17 32  1  0  0  0  0
 17 33  1  0  0  0  0
 18 19  1  0  0  0  0
 18 34  1  0  0  0  0
 18 35  1  0  0  0  0
 19 20  1  0  0  0  0
 20 36  1  0  0  0  0
 20 37  1  0  0  0  0
M  CHG  1  10   1
M  END
> <s_m_source_file>
AV-unprocessed.smi

> <i_m_source_file_index>
2448

> <i_lp_mmshare_version>
43012

> <i_f3d_flags>
0

> <s_epik_input>
W0NIMl0xU1tDSDJdW0NIMl1bQ0BAXTEoW09IXSlbQ0gyXVtOSF1bQ0BASF0oQyhGKShGKUYpW0NIMl1jMltjSF1bY0hdbltjSF1bY0hdMg==

> <s_epik_cmdline>
J2VwaWtfcHl0aG9uJywgJy1waCcsICc3LjAnLCAnLXRuJywgJzgnLCAnLW1hJywgJzIwMCcsICctbWV0YWxfYmluZGluZycsICctaW1hZScsICc8aW5maWxlLm1hZT4nLCAnLW9tYWUnLCAnPG91dGZpbGUubWFlPic=

> <r_epik_Ionization_Penalty>
1.11129

> <r_epik_Ionization_Penalty_Charging>
1.08366

> <r_epik_Ionization_Penalty_Neutral>
0.0276276

> <r_epik_State_Penalty>
1.93785

> <r_epik_Charging_Adjusted_Penalty>
3.02151

> <i_epik_Tot_Q>
1

> <i_epik_Tot_abs_Q>
1

> <r_epik_Metal_State_Penalty>
5.97911

> <b_epik_Metal_Only>
0

> <s_lp_Force_Field>
OPLS_2005

> <r_lp_Energy>
38.9461

> <b_lp_Chiralities_Consistent>
1

> <s_lp_Variant>
AV-unprocessed.smi:2448-12

> <Gold.Version>
5.8.1

> <Gold.Id.Protein>
6NUR|6NUR_protein|mol2

> <Gold.PLP.Fitness>
43.4326

> <Gold.PLP.PLP>
-37.9981

> <Gold.PLP.part.hbond>
-1.0000

> <Gold.PLP.part.metal>
0.0000

> <Gold.PLP.part.buried>
-0.8456

> <Gold.PLP.part.nonpolar>
-36.2052

> <Gold.PLP.part.repulsive>
0.0552

> <Gold.PLP.ligand.clash>
0.0000

> <Gold.PLP.ligand.torsion>
0.5879

> <Gold.PLP.Chemscore.Hbond>
2.0000

> <Gold.PLP.Chemscore.CHOScore>
0.0000

> <Gold.PLP.Chemscore.Metal>
0.0000

> <Gold.Chemscore.Hbonds>
donor molecule, donor type, donor heavy atom, donor atom, acceptor molecule, acceptor atom, score
      L1  H    10    38       P1 10186  2.00

> <Gold.PLP.Chemscore.Internal.Correction>
0.6102

> <Gold.Rescore>
     Score         DG    S(hbond)    S(metal)    S(lipo)     H(rot)  DE(clash)    DE(int)     intcor
     11.87     -14.05       1.00        0.00      97.88       2.42       1.52       0.67       ----

> <Gold.Chemscore.Fitness>
11.8653

> <Gold.Chemscore.DG>
-14.0497

> <Gold.Chemscore.ZeroCoef>
-5.4800

> <Gold.Chemscore.Hbond>
0.9954

> <Gold.Chemscore.Metal>
0.0000

> <Gold.Chemscore.Lipo>
97.8838

> <Gold.Chemscore.Internal_Hbond>
0.0000

> <Gold.Chemscore.DEClash>
1.5178

> <Gold.Chemscore.DEInternal>
0.6666

> <Gold.Chemscore.Rot>
2.4247

> <Gold.Chemscore.Internal.Correction>
   9.000000E+99

> <Gold.Chemscore.Hbonds>
donor molecule, donor type, donor heavy atom, donor atom, acceptor molecule, acceptor atom, score
      L1  H    10    38       P1 10186  1.00

> <Gold.Chemscore.Hbond.Weighted>
-3.3245

> <Gold.Chemscore.Metal.Weighted>
-0.0000

> <Gold.Chemscore.Lipo.Weighted>
-11.4524

> <Gold.Chemscore.Internal_Hbond.Weighted>
0.0000

> <Gold.Chemscore.DEClash.Weighted>
1.5178

> <Gold.Chemscore.DEInternal.Weighted>
0.6666

> <Gold.Chemscore.Rot.Weighted>
6.2072

> <Gold.Chemscore.Internal.Correction.Weighted>
   9.000000E+99

> <Gold.Protein.RotatedTorsions>
[ 6907 6896 6895 6894 ] final  147.09 input  -60.11 | X-H torsion
[ 7974 7965 7964 7962 ] final  112.35 input  175.53 | X-H torsion
[ 8008 7997 7996 7995 ] final  -26.47 input   59.86 | X-H torsion
[ 10167 10162 10161 10158 ] final  135.04 input  -65.29 | X-H torsion
[ 10718 10713 10712 10709 ] final  106.25 input   66.30 | X-H torsion
[ 10763 10752 10751 10750 ] final   16.30 input  -60.55 | X-H torsion
[ 11005 11000 10999 10996 ] final  135.78 input  -57.11 | X-H torsion

> <Gold.Protein.ActiveResidues>
 VAL166  LYS551  ARG553  GLY616  TRP617  ASP618  TYR619  PRO620  LYS621  CYS622 
 ASP623  PHE694  ASN695  SER759  ASP760  ASP761  ALA762  ILE779  LEU786  VAL792 
 PHE793  MET794  SER795  GLU796  ALA797  LYS798  CYS799  TRP800  GLU811  SER814 

> <Gold.Protein.RotatedAtoms>
  152.1594  133.4572  159.4852 H   0  0  0  0  0  0  0  0  0  0  0  0  # atno 6907 bound_to 6896
  150.6905  134.2091  159.4361 H   0  0  0  0  0  0  0  0  0  0  0  0  # atno 6908 bound_to 6896
  151.9992  134.9937  160.0615 H   0  0  0  0  0  0  0  0  0  0  0  0  # atno 6909 bound_to 6896
  145.2307  139.2821  143.4170 H   0  0  0  0  0  0  0  0  0  0  0  0  # atno 7974 bound_to 7965
  154.4424  140.1898  156.0780 H   0  0  0  0  0  0  0  0  0  0  0  0  # atno 8008 bound_to 7997
  156.0461  140.3314  155.7271 H   0  0  0  0  0  0  0  0  0  0  0  0  # atno 8009 bound_to 7997
  155.5628  140.0605  157.2816 H   0  0  0  0  0  0  0  0  0  0  0  0  # atno 8010 bound_to 7997
  139.5232  144.6537  151.5226 H   0  0  0  0  0  0  0  0  0  0  0  0  # atno 10167 bound_to 10162
  157.6675  131.0846  150.5979 H   0  0  0  0  0  0  0  0  0  0  0  0  # atno 10718 bound_to 10713
  153.1444  135.6766  153.8977 H   0  0  0  0  0  0  0  0  0  0  0  0  # atno 10763 bound_to 10752
  153.8424  135.3103  155.3428 H   0  0  0  0  0  0  0  0  0  0  0  0  # atno 10764 bound_to 10752
  154.7813  135.4887  153.9935 H   0  0  0  0  0  0  0  0  0  0  0  0  # atno 10765 bound_to 10752
  140.0002  134.9481  157.0055 H   0  0  0  0  0  0  0  0  0  0  0  0  # atno 11005 bound_to 11000
  146.3353  140.2641  142.8603 LP  0  0  0  0  0  0  0  0  0  0  0  0  # atno 17320 bound_to 7965
  144.9679  140.8340  143.5473 LP  0  0  0  0  0  0  0  0  0  0  0  0  # atno 17321 bound_to 7965
  140.6353  143.8996  150.6642 LP  0  0  0  0  0  0  0  0  0  0  0  0  # atno 17342 bound_to 10162
  140.2313  143.3733  152.1563 LP  0  0  0  0  0  0  0  0  0  0  0  0  # atno 17343 bound_to 10162
  156.6280  130.4424  149.5797 LP  0  0  0  0  0  0  0  0  0  0  0  0  # atno 17370 bound_to 10713
  156.2304  130.6791  151.1458 LP  0  0  0  0  0  0  0  0  0  0  0  0  # atno 17371 bound_to 10713
  140.4742  134.1355  155.7207 LP  0  0  0  0  0  0  0  0  0  0  0  0  # atno 17394 bound_to 11000
  141.1636  133.8746  157.1779 LP  0  0  0  0  0  0  0  0  0  0  0  0  # atno 17395 bound_to 11000

$$$$
