AV-unprocessed.smi:3181|AV-procd|sdf|12140|dock6
  -GOLD-   2272017583D 1   1.00000     0.00000
 Structure written by MMmdl.
 42 43  0  0  0  0  0  0  0  0  2 V2000
  147.8829  140.9850  157.5099 C   0  0  0  0  0  0  0  0  0  0  0  0
  149.3577  141.1587  157.1112 C   0  0  1  0  0  0  0  0  0  0  0  0
  149.6256  140.7855  155.6374 C   0  0  0  0  0  0  0  0  0  0  0  0
  148.4495  140.9275  154.7997 N   0  0  0  0  0  0  0  0  0  0  0  0
  147.7741  142.0177  154.4322 C   0  0  0  0  0  0  0  0  0  0  0  0
  146.7358  141.7646  153.6484 N   0  0  0  0  0  0  0  0  0  0  0  0
  146.8330  140.4039  153.5720 C   0  0  0  0  0  0  0  0  0  0  0  0
  147.8433  139.8521  154.2450 N   0  0  0  0  0  0  0  0  0  0  0  0
  149.7741  142.5572  157.3636 N   0  3  0  0  0  0  0  0  0  0  0  0
  151.2222  142.8471  157.2245 C   0  0  2  0  0  0  0  0  0  0  0  0
  152.0582  141.7540  157.9106 C   0  0  0  0  0  0  0  0  0  0  0  0
  151.9552  141.8257  159.4426 C   0  0  0  0  0  0  0  0  0  0  0  0
  152.3426  143.2145  159.9906 C   0  0  2  0  0  0  0  0  0  0  0  0
  152.2246  143.2216  161.5251 C   0  0  0  0  0  0  0  0  0  0  0  0
  151.4973  144.3258  159.3145 C   0  0  1  0  0  0  0  0  0  0  0  0
  151.8830  145.7408  159.7810 C   0  0  0  0  0  0  0  0  0  0  0  0
  151.6090  144.2347  157.7770 C   0  0  0  0  0  0  0  0  0  0  0  0
  147.5607  139.9479  157.4140 H   0  0  0  0  0  0  0  0  0  0  0  0
  147.2280  141.5955  156.8875 H   0  0  0  0  0  0  0  0  0  0  0  0
  147.7216  141.2756  158.5486 H   0  0  0  0  0  0  0  0  0  0  0  0
  149.9413  140.4918  157.7479 H   0  0  0  0  0  0  0  0  0  0  0  0
  150.4256  141.4057  155.2295 H   0  0  0  0  0  0  0  0  0  0  0  0
  149.9662  139.7532  155.5559 H   0  0  0  0  0  0  0  0  0  0  0  0
  148.0491  143.0157  154.7411 H   0  0  0  0  0  0  0  0  0  0  0  0
  146.1393  139.8022  153.0035 H   0  0  0  0  0  0  0  0  0  0  0  0
  149.2529  143.1719  156.7546 H   0  0  0  0  0  0  0  0  0  0  0  0
  151.4541  142.8172  156.1588 H   0  0  0  0  0  0  0  0  0  0  0  0
  151.7535  140.7670  157.5602 H   0  0  0  0  0  0  0  0  0  0  0  0
  153.1037  141.8675  157.6203 H   0  0  0  0  0  0  0  0  0  0  0  0
  150.9393  141.5776  159.7533 H   0  0  0  0  0  0  0  0  0  0  0  0
  152.6000  141.0623  159.8800 H   0  0  0  0  0  0  0  0  0  0  0  0
  153.3911  143.3872  159.7423 H   0  0  0  0  0  0  0  0  0  0  0  0
  151.1862  143.1264  161.8443 H   0  0  0  0  0  0  0  0  0  0  0  0
  152.6271  144.1368  161.9583 H   0  0  0  0  0  0  0  0  0  0  0  0
  152.7824  142.3938  161.9639 H   0  0  0  0  0  0  0  0  0  0  0  0
  150.4526  144.1696  159.5867 H   0  0  0  0  0  0  0  0  0  0  0  0
  152.9426  145.9387  159.6164 H   0  0  0  0  0  0  0  0  0  0  0  0
  151.6743  145.8889  160.8401 H   0  0  0  0  0  0  0  0  0  0  0  0
  151.3170  146.4992  159.2392 H   0  0  0  0  0  0  0  0  0  0  0  0
  152.6392  144.4476  157.4878 H   0  0  0  0  0  0  0  0  0  0  0  0
  151.0111  145.0146  157.3055 H   0  0  0  0  0  0  0  0  0  0  0  0
  149.5209  142.7730  158.3172 H   0  0  0  0  0  0  0  0  0  0  0  0
  1  2  1  0  0  0  0
  1 18  1  0  0  0  0
  1 19  1  0  0  0  0
  1 20  1  0  0  0  0
  2  3  1  0  0  0  0
  2  9  1  0  0  0  0
  2 21  1  0  0  0  0
  3  4  1  0  0  0  0
  3 22  1  0  0  0  0
  3 23  1  0  0  0  0
  4  8  1  0  0  0  0
  4  5  1  0  0  0  0
  5  6  2  0  0  0  0
  5 24  1  0  0  0  0
  6  7  1  0  0  0  0
  7  8  2  0  0  0  0
  7 25  1  0  0  0  0
  9 10  1  0  0  0  0
  9 26  1  0  0  0  0
  9 42  1  0  0  0  0
 10 17  1  0  0  0  0
 10 11  1  0  0  0  0
 10 27  1  0  0  0  0
 11 12  1  0  0  0  0
 11 28  1  0  0  0  0
 11 29  1  0  0  0  0
 12 13  1  0  0  0  0
 12 30  1  0  0  0  0
 12 31  1  0  0  0  0
 13 14  1  0  0  0  0
 13 15  1  0  0  0  0
 13 32  1  0  0  0  0
 14 33  1  0  0  0  0
 14 34  1  0  0  0  0
 14 35  1  0  0  0  0
 15 16  1  0  0  0  0
 15 17  1  0  0  0  0
 15 36  1  0  0  0  0
 16 37  1  0  0  0  0
 16 38  1  0  0  0  0
 16 39  1  0  0  0  0
 17 40  1  0  0  0  0
 17 41  1  0  0  0  0
M  CHG  1   9   1
M  END
> <s_m_source_file>
AV-unprocessed.smi

> <i_m_source_file_index>
3181

> <i_lp_mmshare_version>
43012

> <i_f3d_flags>
0

> <s_epik_input>
bjFbY0hdbltjSF1uMVtDSDJdW0NAQEhdKFtDSDNdKVtOSF1bQ0BASF0yW0NIMl1bQ0gyXVtDQEBIXShbQ0gzXSlbQ0BASF0oW0NIM10pW0NIMl0y

> <s_epik_cmdline>
J2VwaWtfcHl0aG9uJywgJy1waCcsICc3LjAnLCAnLXRuJywgJzgnLCAnLW1hJywgJzIwMCcsICctbWV0YWxfYmluZGluZycsICctaW1hZScsICc8aW5maWxlLm1hZT4nLCAnLW9tYWUnLCAnPG91dGZpbGUubWFlPic=

> <r_lp_tautomer_probability>
1

> <r_epik_Ionization_Penalty>
0.000617007

> <r_epik_Ionization_Penalty_Charging>
0.000616215

> <r_epik_Ionization_Penalty_Neutral>
7.92544e-07

> <r_epik_State_Penalty>
0.000388807

> <r_epik_Charging_Adjusted_Penalty>
0.00100502

> <i_epik_Tot_Q>
1

> <i_epik_Tot_abs_Q>
1

> <r_epik_Metal_State_Penalty>
-0

> <b_epik_Metal_Only>
0

> <s_lp_Force_Field>
OPLS_2005

> <r_lp_Energy>
23.1218

> <b_lp_Chiralities_Consistent>
1

> <s_lp_Variant>
AV-unprocessed.smi:3181-6

> <Gold.Version>
5.8.1

> <Gold.Id.Protein>
6NUR|6NUR_protein|mol2

> <Gold.PLP.Fitness>
47.7344

> <Gold.PLP.PLP>
-37.2929

> <Gold.PLP.part.hbond>
-1.0000

> <Gold.PLP.part.metal>
0.0000

> <Gold.PLP.part.buried>
-3.6507

> <Gold.PLP.part.nonpolar>
-33.5076

> <Gold.PLP.part.repulsive>
0.3448

> <Gold.PLP.ligand.clash>
0.0000

> <Gold.PLP.ligand.torsion>
0.6480

> <Gold.PLP.Chemscore.Hbond>
2.0000

> <Gold.PLP.Chemscore.CHOScore>
1.9054

> <Gold.PLP.Chemscore.Metal>
0.0000

> <Gold.Chemscore.Hbonds>
donor molecule, donor type, donor heavy atom, donor atom, acceptor molecule, acceptor atom, score
      L1  H     9    26       P1  8028  2.00
      L1  C     5    24       P1  8028  1.00
      L1  C     7    25       P1 10175  0.74

> <Gold.PLP.Chemscore.Internal.Correction>
0.0214

> <Gold.Rescore>
     Score         DG    S(hbond)    S(metal)    S(lipo)     H(rot)  DE(clash)    DE(int)     intcor
     14.17     -14.86       0.98        0.00      98.22       2.11       0.06       0.63       ----

> <Gold.Chemscore.Fitness>
14.1701

> <Gold.Chemscore.DG>
-14.8557

> <Gold.Chemscore.ZeroCoef>
-5.4800

> <Gold.Chemscore.Hbond>
0.9832

> <Gold.Chemscore.Metal>
0.0000

> <Gold.Chemscore.Lipo>
98.2244

> <Gold.Chemscore.Internal_Hbond>
0.0000

> <Gold.Chemscore.DEClash>
0.0565

> <Gold.Chemscore.DEInternal>
0.6291

> <Gold.Chemscore.Rot>
2.1095

> <Gold.Chemscore.Internal.Correction>
   9.000000E+99

> <Gold.Chemscore.Hbonds>
donor molecule, donor type, donor heavy atom, donor atom, acceptor molecule, acceptor atom, score
      L1  H     9    26       P1  8028  0.97

> <Gold.Chemscore.Hbond.Weighted>
-3.2838

> <Gold.Chemscore.Metal.Weighted>
-0.0000

> <Gold.Chemscore.Lipo.Weighted>
-11.4923

> <Gold.Chemscore.Internal_Hbond.Weighted>
0.0000

> <Gold.Chemscore.DEClash.Weighted>
0.0565

> <Gold.Chemscore.DEInternal.Weighted>
0.6291

> <Gold.Chemscore.Rot.Weighted>
5.4003

> <Gold.Chemscore.Internal.Correction.Weighted>
   9.000000E+99

> <Gold.Protein.RotatedTorsions>
[ 6907 6896 6895 6894 ] final  136.57 input  -60.11 | X-H torsion
[ 7974 7965 7964 7962 ] final  142.25 input  175.53 | X-H torsion
[ 8008 7997 7996 7995 ] final -114.39 input   59.86 | X-H torsion
[ 10167 10162 10161 10158 ] final  -24.29 input  -65.29 | X-H torsion
[ 10718 10713 10712 10709 ] final   82.22 input   66.30 | X-H torsion
[ 10763 10752 10751 10750 ] final -152.86 input  -60.55 | X-H torsion
[ 11005 11000 10999 10996 ] final  -43.52 input  -57.11 | X-H torsion

> <Gold.Protein.ActiveResidues>
 VAL166  LYS551  ARG553  GLY616  TRP617  ASP618  TYR619  PRO620  LYS621  CYS622 
 ASP623  PHE694  ASN695  SER759  ASP760  ASP761  ALA762  ILE779  LEU786  VAL792 
 PHE793  MET794  SER795  GLU796  ALA797  LYS798  CYS799  TRP800  GLU811  SER814 

> <Gold.Protein.RotatedAtoms>
  152.2879  133.5532  159.5538 H   0  0  0  0  0  0  0  0  0  0  0  0  # atno 6907 bound_to 6896
  150.7223  134.0471  159.3794 H   0  0  0  0  0  0  0  0  0  0  0  0  # atno 6908 bound_to 6896
  151.8379  135.0600  160.0495 H   0  0  0  0  0  0  0  0  0  0  0  0  # atno 6909 bound_to 6896
  144.9024  139.5405  143.5747 H   0  0  0  0  0  0  0  0  0  0  0  0  # atno 7974 bound_to 7965
  155.0356  140.0392  157.2490 H   0  0  0  0  0  0  0  0  0  0  0  0  # atno 8008 bound_to 7997
  154.7260  140.2721  155.6475 H   0  0  0  0  0  0  0  0  0  0  0  0  # atno 8009 bound_to 7997
  156.2829  140.2693  156.1946 H   0  0  0  0  0  0  0  0  0  0  0  0  # atno 8010 bound_to 7997
  140.7288  143.4367  151.0719 H   0  0  0  0  0  0  0  0  0  0  0  0  # atno 10167 bound_to 10162
  157.6852  131.0038  150.2343 H   0  0  0  0  0  0  0  0  0  0  0  0  # atno 10718 bound_to 10713
  154.7966  135.3226  154.7651 H   0  0  0  0  0  0  0  0  0  0  0  0  # atno 10763 bound_to 10752
  153.8328  135.6878  153.4817 H   0  0  0  0  0  0  0  0  0  0  0  0  # atno 10764 bound_to 10752
  153.1661  135.4641  154.9781 H   0  0  0  0  0  0  0  0  0  0  0  0  # atno 10765 bound_to 10752
  141.0389  133.6788  156.2745 H   0  0  0  0  0  0  0  0  0  0  0  0  # atno 11005 bound_to 11000
  146.3115  139.7765  142.9016 LP  0  0  0  0  0  0  0  0  0  0  0  0  # atno 17320 bound_to 7965
  145.3594  141.0323  143.3293 LP  0  0  0  0  0  0  0  0  0  0  0  0  # atno 17321 bound_to 7965
  139.8029  143.8058  152.3164 LP  0  0  0  0  0  0  0  0  0  0  0  0  # atno 17342 bound_to 10162
  139.8081  144.7347  150.9734 LP  0  0  0  0  0  0  0  0  0  0  0  0  # atno 17343 bound_to 10162
  156.2969  130.3753  149.7787 LP  0  0  0  0  0  0  0  0  0  0  0  0  # atno 17370 bound_to 10713
  156.5429  130.8308  151.3275 LP  0  0  0  0  0  0  0  0  0  0  0  0  # atno 17371 bound_to 10713
  140.6270  134.5303  157.5555 LP  0  0  0  0  0  0  0  0  0  0  0  0  # atno 17394 bound_to 11000
  139.9261  134.8053  156.1064 LP  0  0  0  0  0  0  0  0  0  0  0  0  # atno 17395 bound_to 11000

$$$$
