AV-unprocessed.smi:1547|AV-procd|sdf|6220|dock8
  -GOLD-   22720 6393D 1   1.00000     0.00000
 Structure written by MMmdl.
 40 41  0  0  0  0  0  0  0  0  2 V2000
  150.9813  142.2619  156.4025 C   0  0  0  0  0  0  0  0  0  0  0  0
  150.6634  141.0190  155.6248 C   0  0  0  0  0  0  0  0  0  0  0  0
  149.4010  140.6069  155.1074 C   0  0  0  0  0  0  0  0  0  0  0  0
  149.6987  139.4186  154.4980 C   0  0  0  0  0  0  0  0  0  0  0  0
  148.8738  138.5721  153.8256 N   0  0  0  0  0  0  0  0  0  0  0  0
  147.5340  138.4796  153.8890 C   0  0  0  0  0  0  0  0  0  0  0  0
  146.8032  139.1545  154.6148 O   0  0  0  0  0  0  0  0  0  0  0  0
  147.0698  137.5435  153.0485 N   0  0  0  0  0  0  0  0  0  0  0  0
  145.6621  137.1992  152.8854 C   0  0  0  0  0  0  0  0  0  0  0  0
  145.4851  135.9038  152.0709 C   0  0  0  0  0  0  0  0  0  0  0  0
  146.5072  134.8883  152.4144 N   0  3  0  0  0  0  0  0  0  0  0  0
  146.5130  134.4555  153.8338 C   0  0  0  0  0  0  0  0  0  0  0  0
  146.6457  132.9269  153.8349 C   0  0  0  0  0  0  0  0  0  0  0  0
  147.1053  132.5818  152.4224 C   0  0  0  0  0  0  0  0  0  0  0  0
  146.4496  133.6707  151.5801 C   0  0  0  0  0  0  0  0  0  0  0  0
  151.0434  139.1644  154.6520 N   0  0  0  0  0  0  0  0  0  0  0  0
  151.8276  138.0371  154.1864 C   0  0  0  0  0  0  0  0  0  0  0  0
  151.6357  140.1564  155.3516 N   0  0  0  0  0  0  0  0  0  0  0  0
  150.0980  142.8899  156.5201 H   0  0  0  0  0  0  0  0  0  0  0  0
  151.7453  142.8555  155.9000 H   0  0  0  0  0  0  0  0  0  0  0  0
  151.3491  142.0174  157.3993 H   0  0  0  0  0  0  0  0  0  0  0  0
  148.4512  141.1146  155.1817 H   0  0  0  0  0  0  0  0  0  0  0  0
  149.3357  137.9356  153.1929 H   0  0  0  0  0  0  0  0  0  0  0  0
  147.7356  137.0303  152.4888 H   0  0  0  0  0  0  0  0  0  0  0  0
  145.2252  137.0772  153.8769 H   0  0  0  0  0  0  0  0  0  0  0  0
  145.1383  138.0340  152.4170 H   0  0  0  0  0  0  0  0  0  0  0  0
  144.4911  135.4786  152.2181 H   0  0  0  0  0  0  0  0  0  0  0  0
  145.5699  136.1394  151.0090 H   0  0  0  0  0  0  0  0  0  0  0  0
  147.3603  134.9225  154.3368 H   0  0  0  0  0  0  0  0  0  0  0  0
  145.6080  134.7585  154.3630 H   0  0  0  0  0  0  0  0  0  0  0  0
  147.3310  132.5635  154.6014 H   0  0  0  0  0  0  0  0  0  0  0  0
  145.6703  132.4755  154.0212 H   0  0  0  0  0  0  0  0  0  0  0  0
  148.1912  132.6598  152.3538 H   0  0  0  0  0  0  0  0  0  0  0  0
  146.8176  131.5757  152.1154 H   0  0  0  0  0  0  0  0  0  0  0  0
  145.4089  133.4044  151.3857 H   0  0  0  0  0  0  0  0  0  0  0  0
  146.9460  133.8160  150.6201 H   0  0  0  0  0  0  0  0  0  0  0  0
  151.6599  137.8884  153.1195 H   0  0  0  0  0  0  0  0  0  0  0  0
  151.5281  137.1372  154.7238 H   0  0  0  0  0  0  0  0  0  0  0  0
  152.8910  138.2131  154.3540 H   0  0  0  0  0  0  0  0  0  0  0  0
  147.4123  135.3007  152.2397 H   0  0  0  0  0  0  0  0  0  0  0  0
  1  2  1  0  0  0  0
  1 19  1  0  0  0  0
  1 20  1  0  0  0  0
  1 21  1  0  0  0  0
  2 18  2  0  0  0  0
  2  3  1  0  0  0  0
  3  4  2  0  0  0  0
  3 22  1  0  0  0  0
  4  5  1  0  0  0  0
  4 16  1  0  0  0  0
  5  6  1  0  0  0  0
  5 23  1  0  0  0  0
  6  7  2  0  0  0  0
  6  8  1  0  0  0  0
  8  9  1  0  0  0  0
  8 24  1  0  0  0  0
  9 10  1  0  0  0  0
  9 25  1  0  0  0  0
  9 26  1  0  0  0  0
 10 11  1  0  0  0  0
 10 27  1  0  0  0  0
 10 28  1  0  0  0  0
 11 15  1  0  0  0  0
 11 12  1  0  0  0  0
 11 40  1  0  0  0  0
 12 13  1  0  0  0  0
 12 29  1  0  0  0  0
 12 30  1  0  0  0  0
 13 14  1  0  0  0  0
 13 31  1  0  0  0  0
 13 32  1  0  0  0  0
 14 15  1  0  0  0  0
 14 33  1  0  0  0  0
 14 34  1  0  0  0  0
 15 35  1  0  0  0  0
 15 36  1  0  0  0  0
 16 17  1  0  0  0  0
 16 18  1  0  0  0  0
 17 37  1  0  0  0  0
 17 38  1  0  0  0  0
 17 39  1  0  0  0  0
M  CHG  1  11   1
M  END
> <s_m_source_file>
AV-unprocessed.smi

> <i_m_source_file_index>
1547

> <i_lp_mmshare_version>
43012

> <i_f3d_flags>
0

> <s_epik_input>
W0NIM11jMVtjSF1jKG4objEpW0NIM10pW05IXUMoPU8pW05IXVtDSDJdW0NIMl1OMltDSDJdW0NIMl1bQ0gyXVtDSDJdMg==

> <s_epik_cmdline>
J2VwaWtfcHl0aG9uJywgJy1waCcsICc3LjAnLCAnLXRuJywgJzgnLCAnLW1hJywgJzIwMCcsICctbWV0YWxfYmluZGluZycsICctaW1hZScsICc8aW5maWxlLm1hZT4nLCAnLW9tYWUnLCAnPG91dGZpbGUubWFlPic=

> <r_lp_tautomer_probability>
1

> <r_epik_Ionization_Penalty>
0.00226577

> <r_epik_Ionization_Penalty_Charging>
0.00218899

> <r_epik_Ionization_Penalty_Neutral>
7.67743e-05

> <r_epik_State_Penalty>
0.00150446

> <r_epik_Charging_Adjusted_Penalty>
0.00369345

> <i_epik_Tot_Q>
1

> <i_epik_Tot_abs_Q>
1

> <r_epik_Metal_State_Penalty>
-0

> <b_epik_Metal_Only>
0

> <s_lp_Force_Field>
OPLS_2005

> <r_lp_Energy>
27.1917

> <b_lp_Chiralities_Consistent>
1

> <s_lp_Variant>
AV-unprocessed.smi:1547-1

> <Gold.Version>
5.8.1

> <Gold.Id.Protein>
6NUR|6NUR_protein|mol2

> <Gold.PLP.Fitness>
45.2920

> <Gold.PLP.PLP>
-34.6815

> <Gold.PLP.part.hbond>
-4.9009

> <Gold.PLP.part.metal>
0.0000

> <Gold.PLP.part.buried>
-3.3962

> <Gold.PLP.part.nonpolar>
-27.3513

> <Gold.PLP.part.repulsive>
0.3205

> <Gold.PLP.ligand.clash>
0.0000

> <Gold.PLP.ligand.torsion>
0.2548

> <Gold.PLP.Chemscore.Hbond>
3.7030

> <Gold.PLP.Chemscore.CHOScore>
0.0000

> <Gold.PLP.Chemscore.Metal>
0.0000

> <Gold.Chemscore.Hbonds>
donor molecule, donor type, donor heavy atom, donor atom, acceptor molecule, acceptor atom, score
      L1  H     5    23       P1  7948  0.58
      L1  H     8    24       P1  7948  1.00
      L1  H    11    40       P1  7948  2.00

> <Gold.PLP.Chemscore.Internal.Correction>
0.0110

> <Gold.Rescore>
     Score         DG    S(hbond)    S(metal)    S(lipo)     H(rot)  DE(clash)    DE(int)     intcor
     16.82     -18.22       2.80        0.00      62.21       1.52       0.28       1.11       ----

> <Gold.Chemscore.Fitness>
16.8246

> <Gold.Chemscore.DG>
-18.2224

> <Gold.Chemscore.ZeroCoef>
-5.4800

> <Gold.Chemscore.Hbond>
2.7977

> <Gold.Chemscore.Metal>
0.0000

> <Gold.Chemscore.Lipo>
62.2131

> <Gold.Chemscore.Internal_Hbond>
0.0000

> <Gold.Chemscore.DEClash>
0.2831

> <Gold.Chemscore.DEInternal>
1.1148

> <Gold.Chemscore.Rot>
1.5160

> <Gold.Chemscore.Internal.Correction>
   9.000000E+99

> <Gold.Chemscore.Hbonds>
donor molecule, donor type, donor heavy atom, donor atom, acceptor molecule, acceptor atom, score
      L1  H     5    23       P1  7948  0.56
      L1  H     8    24       P1  7948  0.97
      L1  H    11    40       P1  7948  1.00

> <Gold.Chemscore.Hbond.Weighted>
-9.3444

> <Gold.Chemscore.Metal.Weighted>
-0.0000

> <Gold.Chemscore.Lipo.Weighted>
-7.2789

> <Gold.Chemscore.Internal_Hbond.Weighted>
0.0000

> <Gold.Chemscore.DEClash.Weighted>
0.2831

> <Gold.Chemscore.DEInternal.Weighted>
1.1148

> <Gold.Chemscore.Rot.Weighted>
3.8809

> <Gold.Chemscore.Internal.Correction.Weighted>
   9.000000E+99

> <Gold.Protein.RotatedTorsions>
[ 6907 6896 6895 6894 ] final  -52.26 input  -60.11 | X-H torsion
[ 7974 7965 7964 7962 ] final -174.70 input  175.53 | X-H torsion
[ 8008 7997 7996 7995 ] final  -82.17 input   59.86 | X-H torsion
[ 10167 10162 10161 10158 ] final  -14.26 input  -65.29 | X-H torsion
[ 10718 10713 10712 10709 ] final   16.12 input   66.30 | X-H torsion
[ 10763 10752 10751 10750 ] final  -22.36 input  -60.55 | X-H torsion
[ 11005 11000 10999 10996 ] final -139.79 input  -57.11 | X-H torsion

> <Gold.Protein.ActiveResidues>
 VAL166  LYS551  ARG553  GLY616  TRP617  ASP618  TYR619  PRO620  LYS621  CYS622 
 ASP623  PHE694  ASN695  SER759  ASP760  ASP761  ALA762  ILE779  LEU786  VAL792 
 PHE793  MET794  SER795  GLU796  ALA797  LYS798  CYS799  TRP800  GLU811  SER814 

> <Gold.Protein.RotatedAtoms>
  150.8534  134.7865  159.7026 H   0  0  0  0  0  0  0  0  0  0  0  0  # atno 6907 bound_to 6896
  152.4592  134.5219  159.9795 H   0  0  0  0  0  0  0  0  0  0  0  0  # atno 6908 bound_to 6896
  151.5336  133.3407  159.2958 H   0  0  0  0  0  0  0  0  0  0  0  0  # atno 6909 bound_to 6896
  144.7131  140.1432  143.6390 H   0  0  0  0  0  0  0  0  0  0  0  0  # atno 7974 bound_to 7965
  154.6058  140.0637  156.9429 H   0  0  0  0  0  0  0  0  0  0  0  0  # atno 8008 bound_to 7997
  155.2055  140.3318  155.4318 H   0  0  0  0  0  0  0  0  0  0  0  0  # atno 8009 bound_to 7997
  156.2347  140.1857  156.7135 H   0  0  0  0  0  0  0  0  0  0  0  0  # atno 8010 bound_to 7997
  140.7198  143.5340  150.9486 H   0  0  0  0  0  0  0  0  0  0  0  0  # atno 10167 bound_to 10162
  157.0634  130.6318  149.5790 H   0  0  0  0  0  0  0  0  0  0  0  0  # atno 10718 bound_to 10713
  153.6507  135.6981  153.5210 H   0  0  0  0  0  0  0  0  0  0  0  0  # atno 10763 bound_to 10752
  153.2709  135.4215  155.0986 H   0  0  0  0  0  0  0  0  0  0  0  0  # atno 10764 bound_to 10752
  154.8477  135.3578  154.6051 H   0  0  0  0  0  0  0  0  0  0  0  0  # atno 10765 bound_to 10752
  140.8485  134.2314  157.4773 H   0  0  0  0  0  0  0  0  0  0  0  0  # atno 11005 bound_to 11000
  145.9183  139.2530  143.1396 LP  0  0  0  0  0  0  0  0  0  0  0  0  # atno 17320 bound_to 7965
  145.9646  140.8809  143.0193 LP  0  0  0  0  0  0  0  0  0  0  0  0  # atno 17321 bound_to 7965
  139.9061  143.6776  152.3123 LP  0  0  0  0  0  0  0  0  0  0  0  0  # atno 17342 bound_to 10162
  139.7143  144.7614  151.1060 LP  0  0  0  0  0  0  0  0  0  0  0  0  # atno 17343 bound_to 10162
  155.9972  130.5043  150.7524 LP  0  0  0  0  0  0  0  0  0  0  0  0  # atno 17370 bound_to 10713
  157.4936  131.0913  151.0397 LP  0  0  0  0  0  0  0  0  0  0  0  0  # atno 17371 bound_to 10713
  139.8704  134.9671  156.4587 LP  0  0  0  0  0  0  0  0  0  0  0  0  # atno 17394 bound_to 11000
  140.8816  133.7913  155.9473 LP  0  0  0  0  0  0  0  0  0  0  0  0  # atno 17395 bound_to 11000

$$$$
