AV-unprocessed.smi:731|AV-procd|sdf|3526|dock7
  -GOLD-   22720 0523D 1   1.00000     0.00000
 Structure written by MMmdl.
 34 35  0  0  0  0  0  0  0  0  1 V2000
  151.5723  141.1994  158.2470 O   0  0  0  0  0  0  0  0  0  0  0  0
  151.2992  142.3483  157.8971 C   0  0  0  0  0  0  0  0  0  0  0  0
  150.2438  142.6521  157.1243 N   0  0  0  0  0  0  0  0  0  0  0  0
  149.2950  141.6905  156.5670 C   0  0  0  0  0  0  0  0  0  0  0  0
  148.3238  141.1338  157.6264 C   0  0  0  0  0  0  0  0  0  0  0  0
  147.2805  142.1076  158.0712 C   0  0  0  0  0  0  0  0  0  0  0  0
  147.0561  142.4086  159.3525 N   0  0  0  0  0  0  0  0  0  0  0  0
  145.9899  143.2987  159.5215 C   0  0  0  0  0  0  0  0  0  0  0  0
  145.5964  143.7362  160.9028 C   0  0  0  0  0  0  0  0  0  0  0  0
  146.5897  144.3813  161.5152 F   0  0  0  0  0  0  0  0  0  0  0  0
  144.5474  144.5575  160.8658 F   0  0  0  0  0  0  0  0  0  0  0  0
  145.2683  142.6914  161.6625 F   0  0  0  0  0  0  0  0  0  0  0  0
  145.4093  143.6732  158.3340 C   0  0  0  0  0  0  0  0  0  0  0  0
  146.1772  142.9190  156.9649 S   0  0  0  0  0  0  0  0  0  0  0  0
  152.1931  143.5236  158.3240 C   0  0  0  0  0  0  0  0  0  0  0  0
  152.6128  143.4151  159.8091 C   0  0  0  0  0  0  0  0  0  0  0  0
  152.0899  144.6724  160.5147 C   0  0  0  0  0  0  0  0  0  0  0  0
  150.9746  145.2012  159.6179 C   0  0  0  0  0  0  0  0  0  0  0  0
  151.4579  144.8731  158.2062 C   0  0  0  0  0  0  0  0  0  0  0  0
  150.0977  143.6228  156.8879 H   0  0  0  0  0  0  0  0  0  0  0  0
  148.7319  142.1381  155.7462 H   0  0  0  0  0  0  0  0  0  0  0  0
  149.8637  140.8699  156.1293 H   0  0  0  0  0  0  0  0  0  0  0  0
  147.8259  140.2450  157.2370 H   0  0  0  0  0  0  0  0  0  0  0  0
  148.8852  140.8096  158.5034 H   0  0  0  0  0  0  0  0  0  0  0  0
  144.5758  144.3430  158.1830 H   0  0  0  0  0  0  0  0  0  0  0  0
  153.0798  143.5433  157.6883 H   0  0  0  0  0  0  0  0  0  0  0  0
  152.1922  142.5282  160.2864 H   0  0  0  0  0  0  0  0  0  0  0  0
  153.6957  143.3373  159.9104 H   0  0  0  0  0  0  0  0  0  0  0  0
  151.7486  144.4708  161.5304 H   0  0  0  0  0  0  0  0  0  0  0  0
  152.8877  145.4141  160.5761 H   0  0  0  0  0  0  0  0  0  0  0  0
  150.0462  144.6677  159.8270 H   0  0  0  0  0  0  0  0  0  0  0  0
  150.7885  146.2659  159.7616 H   0  0  0  0  0  0  0  0  0  0  0  0
  152.1594  145.6393  157.8733 H   0  0  0  0  0  0  0  0  0  0  0  0
  150.6356  144.8615  157.4889 H   0  0  0  0  0  0  0  0  0  0  0  0
  1  2  2  0  0  0  0
  2  3  1  0  0  0  0
  2 15  1  0  0  0  0
  3  4  1  0  0  0  0
  3 20  1  0  0  0  0
  4  5  1  0  0  0  0
  4 21  1  0  0  0  0
  4 22  1  0  0  0  0
  5  6  1  0  0  0  0
  5 23  1  0  0  0  0
  5 24  1  0  0  0  0
  6 14  1  0  0  0  0
  6  7  2  0  0  0  0
  7  8  1  0  0  0  0
  8  9  1  0  0  0  0
  8 13  2  0  0  0  0
  9 10  1  0  0  0  0
  9 11  1  0  0  0  0
  9 12  1  0  0  0  0
 13 14  1  0  0  0  0
 13 25  1  0  0  0  0
 15 19  1  0  0  0  0
 15 16  1  0  0  0  0
 15 26  1  0  0  0  0
 16 17  1  0  0  0  0
 16 27  1  0  0  0  0
 16 28  1  0  0  0  0
 17 18  1  0  0  0  0
 17 29  1  0  0  0  0
 17 30  1  0  0  0  0
 18 19  1  0  0  0  0
 18 31  1  0  0  0  0
 18 32  1  0  0  0  0
 19 33  1  0  0  0  0
 19 34  1  0  0  0  0
M  END
> <s_m_source_file>
AV-unprocessed.smi

> <i_m_source_file_index>
731

> <i_lp_mmshare_version>
43012

> <i_f3d_flags>
0

> <s_epik_input>
W0NIMl0xW0NIMl1bQ0gyXVtDSDJdW0NIXTFDKD1PKVtOSF1bQ0gyXVtDSDJdYzJuYyhDKEYpKEYpRilbY0hdczI=

> <s_epik_cmdline>
J2VwaWtfcHl0aG9uJywgJy1waCcsICc3LjAnLCAnLXRuJywgJzgnLCAnLW1hJywgJzIwMCcsICctbWV0YWxfYmluZGluZycsICctaW1hZScsICc8aW5maWxlLm1hZT4nLCAnLW9tYWUnLCAnPG91dGZpbGUubWFlPic=

> <r_lp_tautomer_probability>
1

> <r_epik_Ionization_Penalty>
2.28973e-08

> <r_epik_Ionization_Penalty_Charging>
0

> <r_epik_Ionization_Penalty_Neutral>
2.28973e-08

> <r_epik_State_Penalty>
-0

> <r_epik_Charging_Adjusted_Penalty>
0

> <i_epik_Tot_Q>
0

> <i_epik_Tot_abs_Q>
0

> <r_epik_Metal_State_Penalty>
-0

> <b_epik_Metal_Only>
0

> <s_lp_Force_Field>
OPLS_2005

> <r_lp_Energy>
15.4873

> <b_lp_Chiralities_Consistent>
1

> <s_lp_Variant>
AV-unprocessed.smi:731-1

> <Gold.Version>
5.8.1

> <Gold.Id.Protein>
6NUR|6NUR_protein|mol2

> <Gold.PLP.Fitness>
42.7420

> <Gold.PLP.PLP>
-39.4184

> <Gold.PLP.part.hbond>
-2.4437

> <Gold.PLP.part.metal>
0.0000

> <Gold.PLP.part.buried>
-6.3544

> <Gold.PLP.part.nonpolar>
-31.2772

> <Gold.PLP.part.repulsive>
0.0660

> <Gold.PLP.ligand.clash>
0.0000

> <Gold.PLP.ligand.torsion>
0.6706

> <Gold.PLP.Chemscore.Hbond>
1.5451

> <Gold.PLP.Chemscore.CHOScore>
0.0000

> <Gold.PLP.Chemscore.Metal>
0.0000

> <Gold.Chemscore.Hbonds>
donor molecule, donor type, donor heavy atom, donor atom, acceptor molecule, acceptor atom, score
      L1  H     3    20       P1  8028  0.78
      P1  H  6934  6946       L1     7  0.73

> <Gold.PLP.Chemscore.Internal.Correction>
0.0295

> <Gold.Rescore>
     Score         DG    S(hbond)    S(metal)    S(lipo)     H(rot)  DE(clash)    DE(int)     intcor
     13.65     -14.37       1.43        0.00      72.93       1.73       0.00       0.72       ----

> <Gold.Chemscore.Fitness>
13.6506

> <Gold.Chemscore.DG>
-14.3683

> <Gold.Chemscore.ZeroCoef>
-5.4800

> <Gold.Chemscore.Hbond>
1.4296

> <Gold.Chemscore.Metal>
0.0000

> <Gold.Chemscore.Lipo>
72.9308

> <Gold.Chemscore.Internal_Hbond>
0.0000

> <Gold.Chemscore.DEClash>
0.0000

> <Gold.Chemscore.DEInternal>
0.7177

> <Gold.Chemscore.Rot>
1.7264

> <Gold.Chemscore.Internal.Correction>
   9.000000E+99

> <Gold.Chemscore.Hbonds>
donor molecule, donor type, donor heavy atom, donor atom, acceptor molecule, acceptor atom, score
      L1  H     3    20       P1  8028  0.72
      P1  H  6934  6946       L1     7  0.52

> <Gold.Chemscore.Hbond.Weighted>
-4.7749

> <Gold.Chemscore.Metal.Weighted>
-0.0000

> <Gold.Chemscore.Lipo.Weighted>
-8.5329

> <Gold.Chemscore.Internal_Hbond.Weighted>
0.0000

> <Gold.Chemscore.DEClash.Weighted>
0.0000

> <Gold.Chemscore.DEInternal.Weighted>
0.7177

> <Gold.Chemscore.Rot.Weighted>
4.4196

> <Gold.Chemscore.Internal.Correction.Weighted>
   9.000000E+99

> <Gold.Protein.RotatedTorsions>
[ 6907 6896 6895 6894 ] final   38.21 input  -60.11 | X-H torsion
[ 7974 7965 7964 7962 ] final   92.52 input  175.53 | X-H torsion
[ 8008 7997 7996 7995 ] final  -55.20 input   59.86 | X-H torsion
[ 10167 10162 10161 10158 ] final -109.25 input  -65.29 | X-H torsion
[ 10718 10713 10712 10709 ] final  -57.42 input   66.30 | X-H torsion
[ 10763 10752 10751 10750 ] final -139.69 input  -60.55 | X-H torsion
[ 11005 11000 10999 10996 ] final -158.32 input  -57.11 | X-H torsion

> <Gold.Protein.ActiveResidues>
 VAL166  LYS551  ARG553  GLY616  TRP617  ASP618  TYR619  PRO620  LYS621  CYS622 
 ASP623  PHE694  ASN695  SER759  ASP760  ASP761  ALA762  ILE779  LEU786  VAL792 
 PHE793  MET794  SER795  GLU796  ALA797  LYS798  CYS799  TRP800  GLU811  SER814 

> <Gold.Protein.RotatedAtoms>
  152.1535  134.8970  160.0546 H   0  0  0  0  0  0  0  0  0  0  0  0  # atno 6907 bound_to 6896
  151.9992  133.3814  159.4183 H   0  0  0  0  0  0  0  0  0  0  0  0  # atno 6908 bound_to 6896
  150.6878  134.3774  159.5063 H   0  0  0  0  0  0  0  0  0  0  0  0  # atno 6909 bound_to 6896
  145.4911  139.2276  143.2829 H   0  0  0  0  0  0  0  0  0  0  0  0  # atno 7974 bound_to 7965
  154.4187  140.1158  156.5439 H   0  0  0  0  0  0  0  0  0  0  0  0  # atno 8008 bound_to 7997
  155.6480  140.3496  155.4719 H   0  0  0  0  0  0  0  0  0  0  0  0  # atno 8009 bound_to 7997
  155.9816  140.1161  157.0711 H   0  0  0  0  0  0  0  0  0  0  0  0  # atno 8010 bound_to 7997
  140.1574  143.4149  152.1451 H   0  0  0  0  0  0  0  0  0  0  0  0  # atno 10167 bound_to 10162
  156.1212  130.4166  150.0439 H   0  0  0  0  0  0  0  0  0  0  0  0  # atno 10718 bound_to 10713
  154.8601  135.3575  154.5587 H   0  0  0  0  0  0  0  0  0  0  0  0  # atno 10763 bound_to 10752
  153.6203  135.7006  153.5318 H   0  0  0  0  0  0  0  0  0  0  0  0  # atno 10764 bound_to 10752
  153.3134  135.4172  155.1316 H   0  0  0  0  0  0  0  0  0  0  0  0  # atno 10765 bound_to 10752
  140.6549  134.4411  157.5235 H   0  0  0  0  0  0  0  0  0  0  0  0  # atno 11005 bound_to 11000
  146.2283  140.5706  142.8986 LP  0  0  0  0  0  0  0  0  0  0  0  0  # atno 17320 bound_to 7965
  144.7833  140.5885  143.6591 LP  0  0  0  0  0  0  0  0  0  0  0  0  # atno 17321 bound_to 7965
  139.5397  144.7244  151.4774 LP  0  0  0  0  0  0  0  0  0  0  0  0  # atno 17342 bound_to 10162
  140.6665  143.8387  150.6947 LP  0  0  0  0  0  0  0  0  0  0  0  0  # atno 17343 bound_to 10162
  156.8377  130.9414  151.3634 LP  0  0  0  0  0  0  0  0  0  0  0  0  # atno 17370 bound_to 10713
  157.6395  130.8794  149.9421 LP  0  0  0  0  0  0  0  0  0  0  0  0  # atno 17371 bound_to 10713
  139.9033  134.8506  156.1807 LP  0  0  0  0  0  0  0  0  0  0  0  0  # atno 17394 bound_to 11000
  141.0509  133.6889  156.1770 LP  0  0  0  0  0  0  0  0  0  0  0  0  # atno 17395 bound_to 11000

$$$$
