AV-unprocessed.smi:2695|AV-procd|sdf|10408|dock9
  -GOLD-   2272014443D 1   1.00000     0.00000
 Structure written by MMmdl.
 41 42  0  0  0  0  0  0  0  0  2 V2000
  150.1927  140.2532  158.3946 C   0  0  0  0  0  0  0  0  0  0  0  0
  151.1008  139.3394  157.5802 C   0  0  0  0  0  0  0  0  0  0  0  0
  151.7422  139.8092  156.4876 C   0  0  0  0  0  0  0  0  0  0  0  0
  152.5976  139.0091  155.7416 C   0  0  0  0  0  0  0  0  0  0  0  0
  153.1908  139.4379  154.7273 O   0  5  0  0  0  0  0  0  0  0  0  0
  152.7575  137.7059  156.1936 C   0  0  0  0  0  0  0  0  0  0  0  0
  152.0998  137.1445  157.3671 C   0  0  0  0  0  0  0  0  0  0  0  0
  152.2885  135.9819  157.7302 O   0  0  0  0  0  0  0  0  0  0  0  0
  151.2619  137.9983  158.0202 N   0  0  0  0  0  0  0  0  0  0  0  0
  150.5108  137.4902  159.1908 C   0  0  0  0  0  0  0  0  0  0  0  0
  149.4552  136.4369  158.8235 C   0  0  0  0  0  0  0  0  0  0  0  0
  149.7571  135.4451  158.1588 O   0  0  0  0  0  0  0  0  0  0  0  0
  148.2172  136.6633  159.2876 N   0  0  0  0  0  0  0  0  0  0  0  0
  147.0531  135.7996  159.0863 C   0  0  1  0  0  0  0  0  0  0  0  0
  146.6684  135.1597  160.4447 C   0  0  0  0  0  0  0  0  0  0  0  0
  146.8902  136.0796  161.6534 C   0  0  0  0  0  0  0  0  0  0  0  0
  146.9109  135.1525  162.8719 C   0  0  0  0  0  0  0  0  0  0  0  0
  147.2952  133.7629  162.3455 C   0  0  0  0  0  0  0  0  0  0  0  0
  147.4664  133.9078  160.8293 C   0  0  0  0  0  0  0  0  0  0  0  0
  145.9105  136.6127  158.4300 C   0  0  0  0  0  0  0  0  0  0  0  0
  144.8193  135.8580  158.2975 F   0  0  0  0  0  0  0  0  0  0  0  0
  145.5817  137.6621  159.1821 F   0  0  0  0  0  0  0  0  0  0  0  0
  146.2781  137.0456  157.2234 F   0  0  0  0  0  0  0  0  0  0  0  0
  150.3357  141.2951  158.1067 H   0  0  0  0  0  0  0  0  0  0  0  0
  150.4040  140.1911  159.4619 H   0  0  0  0  0  0  0  0  0  0  0  0
  149.1451  140.0057  158.2219 H   0  0  0  0  0  0  0  0  0  0  0  0
  151.5870  140.8365  156.1897 H   0  0  0  0  0  0  0  0  0  0  0  0
  153.4165  137.0489  155.6437 H   0  0  0  0  0  0  0  0  0  0  0  0
  151.1625  137.0781  159.9589 H   0  0  0  0  0  0  0  0  0  0  0  0
  150.0180  138.3191  159.7029 H   0  0  0  0  0  0  0  0  0  0  0  0
  148.0643  137.5072  159.8204 H   0  0  0  0  0  0  0  0  0  0  0  0
  147.3262  134.9906  158.4059 H   0  0  0  0  0  0  0  0  0  0  0  0
  145.6109  134.8904  160.4222 H   0  0  0  0  0  0  0  0  0  0  0  0
  147.8553  136.5810  161.5639 H   0  0  0  0  0  0  0  0  0  0  0  0
  146.1260  136.8529  161.7403 H   0  0  0  0  0  0  0  0  0  0  0  0
  147.6067  135.5092  163.6320 H   0  0  0  0  0  0  0  0  0  0  0  0
  145.9214  135.1123  163.3290 H   0  0  0  0  0  0  0  0  0  0  0  0
  148.2059  133.3874  162.8129 H   0  0  0  0  0  0  0  0  0  0  0  0
  146.4982  133.0520  162.5679 H   0  0  0  0  0  0  0  0  0  0  0  0
  147.1302  133.0162  160.2998 H   0  0  0  0  0  0  0  0  0  0  0  0
  148.5221  134.0536  160.5959 H   0  0  0  0  0  0  0  0  0  0  0  0
  1  2  1  0  0  0  0
  1 24  1  0  0  0  0
  1 25  1  0  0  0  0
  1 26  1  0  0  0  0
  2  9  1  0  0  0  0
  2  3  2  0  0  0  0
  3  4  1  0  0  0  0
  3 27  1  0  0  0  0
  4  5  1  0  0  0  0
  4  6  2  0  0  0  0
  6  7  1  0  0  0  0
  6 28  1  0  0  0  0
  7  8  2  0  0  0  0
  7  9  1  0  0  0  0
  9 10  1  0  0  0  0
 10 11  1  0  0  0  0
 10 29  1  0  0  0  0
 10 30  1  0  0  0  0
 11 12  2  0  0  0  0
 11 13  1  0  0  0  0
 13 14  1  0  0  0  0
 13 31  1  0  0  0  0
 14 15  1  0  0  0  0
 14 20  1  0  0  0  0
 14 32  1  0  0  0  0
 15 19  1  0  0  0  0
 15 16  1  0  0  0  0
 15 33  1  0  0  0  0
 16 17  1  0  0  0  0
 16 34  1  0  0  0  0
 16 35  1  0  0  0  0
 17 18  1  0  0  0  0
 17 36  1  0  0  0  0
 17 37  1  0  0  0  0
 18 19  1  0  0  0  0
 18 38  1  0  0  0  0
 18 39  1  0  0  0  0
 19 40  1  0  0  0  0
 19 41  1  0  0  0  0
 20 21  1  0  0  0  0
 20 22  1  0  0  0  0
 20 23  1  0  0  0  0
M  CHG  1   5  -1
M  END
> <s_m_source_file>
AV-unprocessed.smi

> <i_m_source_file_index>
2695

> <i_lp_mmshare_version>
43012

> <i_f3d_flags>
0

> <s_epik_input>
W0NIM11jMVtjSF1jKFtPSF0pW2NIXWMoPU8pbjFbQ0gyXUMoPU8pW05IXVtDQEBIXShDKEYpKEYpRilbQ0hdMltDSDJdW0NIMl1bQ0gyXVtDSDJdMg==

> <s_epik_cmdline>
J2VwaWtfcHl0aG9uJywgJy1waCcsICc3LjAnLCAnLXRuJywgJzgnLCAnLW1hJywgJzIwMCcsICctbWV0YWxfYmluZGluZycsICctaW1hZScsICc8aW5maWxlLm1hZT4nLCAnLW9tYWUnLCAnPG91dGZpbGUubWFlPic=

> <r_lp_tautomer_probability>
1

> <r_epik_Ionization_Penalty>
0.176977

> <r_epik_Ionization_Penalty_Charging>
0.176977

> <r_epik_Ionization_Penalty_Neutral>
1.44272e-07

> <r_epik_State_Penalty>
0.160849

> <r_epik_Charging_Adjusted_Penalty>
0.337826

> <i_epik_Tot_Q>
-1

> <i_epik_Tot_abs_Q>
1

> <r_epik_Metal_State_Penalty>
0.16085

> <b_epik_Metal_Only>
0

> <s_lp_Force_Field>
OPLS_2005

> <r_lp_Energy>
41.7446

> <b_lp_Chiralities_Consistent>
1

> <s_lp_Variant>
AV-unprocessed.smi:2695-2

> <Gold.Version>
5.8.1

> <Gold.Id.Protein>
6NUR|6NUR_protein|mol2

> <Gold.PLP.Fitness>
38.3135

> <Gold.PLP.PLP>
-30.6149

> <Gold.PLP.part.hbond>
-3.8692

> <Gold.PLP.part.metal>
0.0000

> <Gold.PLP.part.buried>
-3.2591

> <Gold.PLP.part.nonpolar>
-24.8147

> <Gold.PLP.part.repulsive>
0.1981

> <Gold.PLP.ligand.clash>
0.0000

> <Gold.PLP.ligand.torsion>
0.7486

> <Gold.PLP.Chemscore.Hbond>
2.9660

> <Gold.PLP.Chemscore.CHOScore>
0.0000

> <Gold.PLP.Chemscore.Metal>
0.0000

> <Gold.Chemscore.Hbonds>
donor molecule, donor type, donor heavy atom, donor atom, acceptor molecule, acceptor atom, score
      P1  H  6896  6908       L1    12  0.80
      P1  H  7989  7998       L1     5  0.02
      P1  H  7997  8009       L1     5  1.86

> <Gold.PLP.Chemscore.Internal.Correction>
0.2979

> <Gold.Rescore>
     Score         DG    S(hbond)    S(metal)    S(lipo)     H(rot)  DE(clash)    DE(int)     intcor
     13.92     -14.95       1.88        0.00      65.72       1.75       0.27       0.76       ----

> <Gold.Chemscore.Fitness>
13.9165

> <Gold.Chemscore.DG>
-14.9537

> <Gold.Chemscore.ZeroCoef>
-5.4800

> <Gold.Chemscore.Hbond>
1.8785

> <Gold.Chemscore.Metal>
0.0000

> <Gold.Chemscore.Lipo>
65.7207

> <Gold.Chemscore.Internal_Hbond>
0.0000

> <Gold.Chemscore.DEClash>
0.2745

> <Gold.Chemscore.DEInternal>
0.7627

> <Gold.Chemscore.Rot>
1.7539

> <Gold.Chemscore.Internal.Correction>
   9.000000E+99

> <Gold.Chemscore.Hbonds>
donor molecule, donor type, donor heavy atom, donor atom, acceptor molecule, acceptor atom, score
      P1  H  6896  6908       L1    12  0.11
      P1  H  7989  7998       L1     5  0.03
      P1  H  7997  8009       L1     5  0.27

> <Gold.Chemscore.Hbond.Weighted>
-6.2742

> <Gold.Chemscore.Metal.Weighted>
-0.0000

> <Gold.Chemscore.Lipo.Weighted>
-7.6893

> <Gold.Chemscore.Internal_Hbond.Weighted>
0.0000

> <Gold.Chemscore.DEClash.Weighted>
0.2745

> <Gold.Chemscore.DEInternal.Weighted>
0.7627

> <Gold.Chemscore.Rot.Weighted>
4.4899

> <Gold.Chemscore.Internal.Correction.Weighted>
   9.000000E+99

> <Gold.Protein.RotatedTorsions>
[ 6907 6896 6895 6894 ] final  168.26 input  -60.11 | X-H torsion
[ 7974 7965 7964 7962 ] final   75.27 input  175.53 | X-H torsion
[ 8008 7997 7996 7995 ] final -105.66 input   59.86 | X-H torsion
[ 10167 10162 10161 10158 ] final -104.11 input  -65.29 | X-H torsion
[ 10718 10713 10712 10709 ] final   74.57 input   66.30 | X-H torsion
[ 10763 10752 10751 10750 ] final   69.47 input  -60.55 | X-H torsion
[ 11005 11000 10999 10996 ] final    3.51 input  -57.11 | X-H torsion

> <Gold.Protein.ActiveResidues>
 VAL166  LYS551  ARG553  GLY616  TRP617  ASP618  TYR619  PRO620  LYS621  CYS622 
 ASP623  PHE694  ASN695  SER759  ASP760  ASP761  ALA762  ILE779  LEU786  VAL792 
 PHE793  MET794  SER795  GLU796  ALA797  LYS798  CYS799  TRP800  GLU811  SER814 

> <Gold.Protein.RotatedAtoms>
  151.8504  133.3439  159.3671 H   0  0  0  0  0  0  0  0  0  0  0  0  # atno 6907 bound_to 6896
  150.7208  134.5304  159.5707 H   0  0  0  0  0  0  0  0  0  0  0  0  # atno 6908 bound_to 6896
  152.2797  134.7843  160.0450 H   0  0  0  0  0  0  0  0  0  0  0  0  # atno 6909 bound_to 6896
  145.7178  139.2637  143.1614 H   0  0  0  0  0  0  0  0  0  0  0  0  # atno 7974 bound_to 7965
  154.9031  140.0412  157.1904 H   0  0  0  0  0  0  0  0  0  0  0  0  # atno 8008 bound_to 7997
  154.8423  140.2916  155.5630 H   0  0  0  0  0  0  0  0  0  0  0  0  # atno 8009 bound_to 7997
  156.2992  140.2480  156.3368 H   0  0  0  0  0  0  0  0  0  0  0  0  # atno 8010 bound_to 7997
  140.2128  143.3733  152.1036 H   0  0  0  0  0  0  0  0  0  0  0  0  # atno 10167 bound_to 10162
  157.6598  130.9684  150.1230 H   0  0  0  0  0  0  0  0  0  0  0  0  # atno 10718 bound_to 10713
  153.0289  135.5209  154.7293 H   0  0  0  0  0  0  0  0  0  0  0  0  # atno 10763 bound_to 10752
  154.6325  135.2902  155.0201 H   0  0  0  0  0  0  0  0  0  0  0  0  # atno 10764 bound_to 10752
  154.1148  135.6616  153.4944 H   0  0  0  0  0  0  0  0  0  0  0  0  # atno 10765 bound_to 10752
  140.5923  133.9912  155.8094 H   0  0  0  0  0  0  0  0  0  0  0  0  # atno 11005 bound_to 11000
  146.0654  140.7926  142.9714 LP  0  0  0  0  0  0  0  0  0  0  0  0  # atno 17320 bound_to 7965
  144.6925  140.3260  143.7224 LP  0  0  0  0  0  0  0  0  0  0  0  0  # atno 17321 bound_to 7965
  139.5173  144.6990  151.5548 LP  0  0  0  0  0  0  0  0  0  0  0  0  # atno 17342 bound_to 10162
  140.6311  143.9074  150.6606 LP  0  0  0  0  0  0  0  0  0  0  0  0  # atno 17343 bound_to 10162
  156.2096  130.3666  149.8686 LP  0  0  0  0  0  0  0  0  0  0  0  0  # atno 17370 bound_to 10713
  156.6569  130.8766  151.3541 LP  0  0  0  0  0  0  0  0  0  0  0  0  # atno 17371 bound_to 10713
  141.0926  133.9892  157.3212 LP  0  0  0  0  0  0  0  0  0  0  0  0  # atno 17394 bound_to 11000
  139.9268  135.0201  156.8264 LP  0  0  0  0  0  0  0  0  0  0  0  0  # atno 17395 bound_to 11000

$$$$
