AV-unprocessed.smi:2750|AV-procd|sdf|10589|dock7
  -GOLD-   2272015 43D 1   1.00000     0.00000
 Structure written by MMmdl.
 25 26  0  0  0  0  0  0  0  0  2 V2000
  152.0983  136.7086  158.7750 O   0  0  0  0  0  0  0  0  0  0  0  0
  152.3448  136.8498  157.5574 C   0  0  0  0  0  0  0  0  0  0  0  0
  152.1454  135.9894  156.6712 O   0  5  0  0  0  0  0  0  0  0  0  0
  152.9280  138.1939  157.1156 C   0  0  0  0  0  0  0  0  0  0  0  0
  151.9399  139.0363  156.4666 N   0  0  0  0  0  0  0  0  0  0  0  0
  150.7829  139.5683  156.9970 C   0  0  0  0  0  0  0  0  0  0  0  0
  150.2324  140.2415  155.9444 C   0  0  0  0  0  0  0  0  0  0  0  0
  148.9370  140.9931  155.8782 C   0  0  0  0  0  0  0  0  0  0  0  0
  148.5073  141.3151  154.4323 C   0  0  2  0  0  0  0  0  0  0  0  0
  147.8454  142.6026  154.3023 N   0  0  0  0  0  0  0  0  0  0  0  0
  146.6037  142.4922  153.8117 C   0  0  0  0  0  0  0  0  0  0  0  0
  145.8257  143.4191  153.5990 O   0  0  0  0  0  0  0  0  0  0  0  0
  146.3595  141.1950  153.5961 N   0  0  0  0  0  0  0  0  0  0  0  0
  147.3892  140.4200  153.9321 C   0  0  0  0  0  0  0  0  0  0  0  0
  147.4478  139.1939  153.8615 O   0  0  0  0  0  0  0  0  0  0  0  0
  151.0683  140.1017  154.8366 N   0  0  0  0  0  0  0  0  0  0  0  0
  152.0907  139.3754  155.1635 N   0  0  0  0  0  0  0  0  0  0  0  0
  153.3157  138.7191  157.9889 H   0  0  0  0  0  0  0  0  0  0  0  0
  153.7692  138.0392  156.4377 H   0  0  0  0  0  0  0  0  0  0  0  0
  150.4638  139.4090  158.0163 H   0  0  0  0  0  0  0  0  0  0  0  0
  148.1529  140.4108  156.3638 H   0  0  0  0  0  0  0  0  0  0  0  0
  149.0186  141.9154  156.4559 H   0  0  0  0  0  0  0  0  0  0  0  0
  149.3578  141.2723  153.7503 H   0  0  0  0  0  0  0  0  0  0  0  0
  148.2859  143.4738  154.5616 H   0  0  0  0  0  0  0  0  0  0  0  0
  145.4873  140.8422  153.2305 H   0  0  0  0  0  0  0  0  0  0  0  0
  1  2  2  0  0  0  0
  2  3  1  0  0  0  0
  2  4  1  0  0  0  0
  4  5  1  0  0  0  0
  4 18  1  0  0  0  0
  4 19  1  0  0  0  0
  5 17  1  0  0  0  0
  5  6  1  0  0  0  0
  6  7  2  0  0  0  0
  6 20  1  0  0  0  0
  7  8  1  0  0  0  0
  7 16  1  0  0  0  0
  8  9  1  0  0  0  0
  8 21  1  0  0  0  0
  8 22  1  0  0  0  0
  9 14  1  0  0  0  0
  9 10  1  0  0  0  0
  9 23  1  0  0  0  0
 10 11  1  0  0  0  0
 10 24  1  0  0  0  0
 11 12  2  0  0  0  0
 11 13  1  0  0  0  0
 13 14  1  0  0  0  0
 13 25  1  0  0  0  0
 14 15  2  0  0  0  0
 16 17  2  0  0  0  0
M  CHG  1   3  -1
M  END
> <s_m_source_file>
AV-unprocessed.smi

> <i_m_source_file_index>
2750

> <i_lp_mmshare_version>
43012

> <i_f3d_flags>
0

> <s_epik_input>
Tz1DKFtPSF0pW0NIMl1uMVtjSF1jKG5uMSlbQ0gyXVtDQEBIXTJbTkhdQyg9TylbTkhdQzI9Tw==

> <s_epik_cmdline>
J2VwaWtfcHl0aG9uJywgJy1waCcsICc3LjAnLCAnLXRuJywgJzgnLCAnLW1hJywgJzIwMCcsICctbWV0YWxfYmluZGluZycsICctaW1hZScsICc8aW5maWxlLm1hZT4nLCAnLW9tYWUnLCAnPG91dGZpbGUubWFlPic=

> <r_lp_tautomer_probability>
1

> <r_epik_Ionization_Penalty>
0.019671

> <r_epik_Ionization_Penalty_Charging>
2.66176e-05

> <r_epik_Ionization_Penalty_Neutral>
0.0196444

> <r_epik_State_Penalty>
0.0155882

> <r_epik_Charging_Adjusted_Penalty>
0.0156148

> <i_epik_Tot_Q>
-1

> <i_epik_Tot_abs_Q>
1

> <r_epik_Metal_State_Penalty>
0.396229

> <b_epik_Metal_Only>
0

> <s_lp_Force_Field>
OPLS_2005

> <r_lp_Energy>
13.3356

> <b_lp_Chiralities_Consistent>
1

> <s_lp_Variant>
AV-unprocessed.smi:2750-1

> <Gold.Version>
5.8.1

> <Gold.Id.Protein>
6NUR|6NUR_protein|mol2

> <Gold.PLP.Fitness>
41.0851

> <Gold.PLP.PLP>
-23.0155

> <Gold.PLP.part.hbond>
-5.5805

> <Gold.PLP.part.metal>
0.0000

> <Gold.PLP.part.buried>
-7.2210

> <Gold.PLP.part.nonpolar>
-12.3470

> <Gold.PLP.part.repulsive>
0.7093

> <Gold.PLP.ligand.clash>
0.0000

> <Gold.PLP.ligand.torsion>
0.9285

> <Gold.PLP.Chemscore.Hbond>
6.6320

> <Gold.PLP.Chemscore.CHOScore>
0.0000

> <Gold.PLP.Chemscore.Metal>
0.0000

> <Gold.Chemscore.Hbonds>
donor molecule, donor type, donor heavy atom, donor atom, acceptor molecule, acceptor atom, score
      L1  H    10    24       P1  8028  1.00
      L1  H    13    25       P1 10175  1.00
      P1  H  6896  6909       L1     1  1.57
      P1  H  7989  7998       L1    16  1.00
      P1  H 10752 10763       L1     3  2.00

> <Gold.PLP.Chemscore.Internal.Correction>
0.0305

> <Gold.Rescore>
     Score         DG    S(hbond)    S(metal)    S(lipo)     H(rot)  DE(clash)    DE(int)     intcor
     14.51     -15.54       4.24        0.00      26.97       2.84       0.03       1.00       ----

> <Gold.Chemscore.Fitness>
14.5072

> <Gold.Chemscore.DG>
-15.5431

> <Gold.Chemscore.ZeroCoef>
-5.4800

> <Gold.Chemscore.Hbond>
4.2412

> <Gold.Chemscore.Metal>
0.0000

> <Gold.Chemscore.Lipo>
26.9742

> <Gold.Chemscore.Internal_Hbond>
0.0000

> <Gold.Chemscore.DEClash>
0.0312

> <Gold.Chemscore.DEInternal>
1.0047

> <Gold.Chemscore.Rot>
2.8354

> <Gold.Chemscore.Internal.Correction>
   9.000000E+99

> <Gold.Chemscore.Hbonds>
donor molecule, donor type, donor heavy atom, donor atom, acceptor molecule, acceptor atom, score
      L1  H    10    24       P1  8028  0.96
      L1  H    13    25       P1 10175  0.64
      P1  H  6896  6909       L1     1  0.74
      P1  H  7989  7998       L1    16  0.30
      P1  H 10752 10763       L1     3  0.91

> <Gold.Chemscore.Hbond.Weighted>
-14.1657

> <Gold.Chemscore.Metal.Weighted>
-0.0000

> <Gold.Chemscore.Lipo.Weighted>
-3.1560

> <Gold.Chemscore.Internal_Hbond.Weighted>
0.0000

> <Gold.Chemscore.DEClash.Weighted>
0.0312

> <Gold.Chemscore.DEInternal.Weighted>
1.0047

> <Gold.Chemscore.Rot.Weighted>
7.2586

> <Gold.Chemscore.Internal.Correction.Weighted>
   9.000000E+99

> <Gold.Protein.RotatedTorsions>
[ 6907 6896 6895 6894 ] final  126.99 input  -60.11 | X-H torsion
[ 7974 7965 7964 7962 ] final  -79.97 input  175.53 | X-H torsion
[ 8008 7997 7996 7995 ] final -170.64 input   59.86 | X-H torsion
[ 10167 10162 10161 10158 ] final  135.95 input  -65.29 | X-H torsion
[ 10718 10713 10712 10709 ] final  -13.74 input   66.30 | X-H torsion
[ 10763 10752 10751 10750 ] final  118.80 input  -60.55 | X-H torsion
[ 11005 11000 10999 10996 ] final -170.43 input  -57.11 | X-H torsion

> <Gold.Protein.ActiveResidues>
 VAL166  LYS551  ARG553  GLY616  TRP617  ASP618  TYR619  PRO620  LYS621  CYS622 
 ASP623  PHE694  ASN695  SER759  ASP760  ASP761  ALA762  ILE779  LEU786  VAL792 
 PHE793  MET794  SER795  GLU796  ALA797  LYS798  CYS799  TRP800  GLU811  SER814 

> <Gold.Protein.RotatedAtoms>
  152.3853  133.6603  159.6193 H   0  0  0  0  0  0  0  0  0  0  0  0  # atno 6907 bound_to 6896
  150.7774  133.9045  159.3360 H   0  0  0  0  0  0  0  0  0  0  0  0  # atno 6908 bound_to 6896
  151.6843  135.0958  160.0273 H   0  0  0  0  0  0  0  0  0  0  0  0  # atno 6909 bound_to 6896
  145.5662  140.9474  143.1420 H   0  0  0  0  0  0  0  0  0  0  0  0  # atno 7974 bound_to 7965
  155.9210  140.1074  157.1206 H   0  0  0  0  0  0  0  0  0  0  0  0  # atno 8008 bound_to 7997
  154.4054  140.1256  156.4745 H   0  0  0  0  0  0  0  0  0  0  0  0  # atno 8009 bound_to 7997
  155.7195  140.3470  155.5012 H   0  0  0  0  0  0  0  0  0  0  0  0  # atno 8010 bound_to 7997
  139.5198  144.6490  151.5357 H   0  0  0  0  0  0  0  0  0  0  0  0  # atno 10167 bound_to 10162
  156.6259  130.4888  149.6147 H   0  0  0  0  0  0  0  0  0  0  0  0  # atno 10718 bound_to 10713
  153.5732  135.3498  155.2846 H   0  0  0  0  0  0  0  0  0  0  0  0  # atno 10763 bound_to 10752
  154.8679  135.4164  154.2702 H   0  0  0  0  0  0  0  0  0  0  0  0  # atno 10764 bound_to 10752
  153.3473  135.7053  153.6888 H   0  0  0  0  0  0  0  0  0  0  0  0  # atno 10765 bound_to 10752
  140.5196  134.5722  157.5044 H   0  0  0  0  0  0  0  0  0  0  0  0  # atno 11005 bound_to 11000
  144.7459  139.7321  143.7292 LP  0  0  0  0  0  0  0  0  0  0  0  0  # atno 17320 bound_to 7965
  146.1816  139.5012  142.9862 LP  0  0  0  0  0  0  0  0  0  0  0  0  # atno 17321 bound_to 7965
  140.6287  143.9118  150.6586 LP  0  0  0  0  0  0  0  0  0  0  0  0  # atno 17342 bound_to 10162
  140.2415  143.3660  152.1482 LP  0  0  0  0  0  0  0  0  0  0  0  0  # atno 17343 bound_to 10162
  156.2274  130.6774  151.1429 LP  0  0  0  0  0  0  0  0  0  0  0  0  # atno 17370 bound_to 10713
  157.7214  131.0679  150.6119 LP  0  0  0  0  0  0  0  0  0  0  0  0  # atno 17371 bound_to 10713
  139.9613  134.7447  156.0230 LP  0  0  0  0  0  0  0  0  0  0  0  0  # atno 17394 bound_to 11000
  141.1341  133.6579  156.3546 LP  0  0  0  0  0  0  0  0  0  0  0  0  # atno 17395 bound_to 11000

$$$$
