AV-unprocessed.smi:955|AV-procd|sdf|4262|dock8
  -GOLD-   22720 2173D 1   1.00000     0.00000
 Structure written by MMmdl.
 29 29  0  0  0  0  0  0  0  0  1 V2000
  149.0178  140.3381  157.2781 C   0  0  0  0  0  0  0  0  0  0  0  0
  149.2432  141.4905  156.2854 C   0  0  1  0  0  0  0  0  0  0  0  0
  150.1466  142.4540  156.9119 N   0  0  0  0  0  0  0  0  0  0  0  0
  151.2691  142.1441  157.5815 C   0  0  0  0  0  0  0  0  0  0  0  0
  151.6632  140.9866  157.7309 O   0  0  0  0  0  0  0  0  0  0  0  0
  152.0581  143.3250  158.1685 C   0  0  1  0  0  0  0  0  0  0  0  0
  151.2556  144.6424  158.1517 C   0  0  0  0  0  0  0  0  0  0  0  0
  152.5489  142.9928  159.5014 N   0  0  0  0  0  0  0  0  0  0  0  0
  153.3966  141.9642  159.8607 C   0  0  0  0  0  0  0  0  0  0  0  0
  153.5517  142.0129  161.2164 C   0  0  0  0  0  0  0  0  0  0  0  0
  152.7388  143.1120  161.6097 C   0  0  0  0  0  0  0  0  0  0  0  0
  152.1335  143.6896  160.5852 N   0  0  0  0  0  0  0  0  0  0  0  0
  149.8743  140.9042  155.0116 C   0  0  0  0  0  0  0  0  0  0  0  0
  149.1508  140.9795  153.8919 N   0  0  0  0  0  0  0  0  0  0  0  0
  150.9862  140.3776  155.0371 O   0  0  0  0  0  0  0  0  0  0  0  0
  148.3469  139.5839  156.8645 H   0  0  0  0  0  0  0  0  0  0  0  0
  148.5638  140.7035  158.1998 H   0  0  0  0  0  0  0  0  0  0  0  0
  149.9522  139.8419  157.5455 H   0  0  0  0  0  0  0  0  0  0  0  0
  148.2885  141.9664  156.0521 H   0  0  0  0  0  0  0  0  0  0  0  0
  149.8894  143.4277  156.8432 H   0  0  0  0  0  0  0  0  0  0  0  0
  152.9335  143.4775  157.5346 H   0  0  0  0  0  0  0  0  0  0  0  0
  150.9604  144.9081  157.1361 H   0  0  0  0  0  0  0  0  0  0  0  0
  151.8530  145.4661  158.5434 H   0  0  0  0  0  0  0  0  0  0  0  0
  150.3477  144.5792  158.7529 H   0  0  0  0  0  0  0  0  0  0  0  0
  153.8157  141.2897  159.1286 H   0  0  0  0  0  0  0  0  0  0  0  0
  154.1505  141.3598  161.8338 H   0  0  0  0  0  0  0  0  0  0  0  0
  152.5680  143.5019  162.6023 H   0  0  0  0  0  0  0  0  0  0  0  0
  149.5155  140.6021  153.0294 H   0  0  0  0  0  0  0  0  0  0  0  0
  148.2364  141.4073  153.9143 H   0  0  0  0  0  0  0  0  0  0  0  0
  1  2  1  0  0  0  0
  1 16  1  0  0  0  0
  1 17  1  0  0  0  0
  1 18  1  0  0  0  0
  2  3  1  0  0  0  0
  2 13  1  0  0  0  0
  2 19  1  0  0  0  0
  3  4  1  0  0  0  0
  3 20  1  0  0  0  0
  4  5  2  0  0  0  0
  4  6  1  0  0  0  0
  6  7  1  0  0  0  0
  6  8  1  0  0  0  0
  6 21  1  0  0  0  0
  7 22  1  0  0  0  0
  7 23  1  0  0  0  0
  7 24  1  0  0  0  0
  8 12  1  0  0  0  0
  8  9  1  0  0  0  0
  9 10  2  0  0  0  0
  9 25  1  0  0  0  0
 10 11  1  0  0  0  0
 10 26  1  0  0  0  0
 11 12  2  0  0  0  0
 11 27  1  0  0  0  0
 13 14  1  0  0  0  0
 13 15  2  0  0  0  0
 14 28  1  0  0  0  0
 14 29  1  0  0  0  0
M  END
> <s_m_source_file>
AV-unprocessed.smi

> <i_m_source_file_index>
955

> <i_lp_mmshare_version>
43012

> <i_f3d_flags>
0

> <s_epik_input>
W05IMl1DKD1PKVtDQEhdKFtDSDNdKVtOSF1DKD1PKVtDQEhdKFtDSDNdKW4xW2NIXVtjSF1bY0hdbjE=

> <s_epik_cmdline>
J2VwaWtfcHl0aG9uJywgJy1waCcsICc3LjAnLCAnLXRuJywgJzgnLCAnLW1hJywgJzIwMCcsICctbWV0YWxfYmluZGluZycsICctaW1hZScsICc8aW5maWxlLm1hZT4nLCAnLW9tYWUnLCAnPG91dGZpbGUubWFlPic=

> <r_lp_tautomer_probability>
1

> <r_epik_Ionization_Penalty>
2.8146e-05

> <r_epik_Ionization_Penalty_Charging>
0

> <r_epik_Ionization_Penalty_Neutral>
2.8146e-05

> <r_epik_State_Penalty>
-0

> <r_epik_Charging_Adjusted_Penalty>
0

> <i_epik_Tot_Q>
0

> <i_epik_Tot_abs_Q>
0

> <r_epik_Metal_State_Penalty>
-0

> <b_epik_Metal_Only>
0

> <s_lp_Force_Field>
OPLS_2005

> <r_lp_Energy>
4.82195

> <b_lp_Chiralities_Consistent>
1

> <s_lp_Variant>
AV-unprocessed.smi:955-4

> <Gold.Version>
5.8.1

> <Gold.Id.Protein>
6NUR|6NUR_protein|mol2

> <Gold.PLP.Fitness>
42.2826

> <Gold.PLP.PLP>
-35.0156

> <Gold.PLP.part.hbond>
-3.0000

> <Gold.PLP.part.metal>
0.0000

> <Gold.PLP.part.buried>
-4.9907

> <Gold.PLP.part.nonpolar>
-27.2274

> <Gold.PLP.part.repulsive>
0.9535

> <Gold.PLP.ligand.clash>
0.0404

> <Gold.PLP.ligand.torsion>
0.6978

> <Gold.PLP.Chemscore.Hbond>
2.8640

> <Gold.PLP.Chemscore.CHOScore>
0.0000

> <Gold.PLP.Chemscore.Metal>
0.0000

> <Gold.Chemscore.Hbonds>
donor molecule, donor type, donor heavy atom, donor atom, acceptor molecule, acceptor atom, score
      L1  H     3    20       P1  8028  0.85
      L1  H    14    28       P1  7957  1.00
      P1  H  7989  7998       L1    15  1.00

> <Gold.PLP.Chemscore.Internal.Correction>
0.1111

> <Gold.Rescore>
     Score         DG    S(hbond)    S(metal)    S(lipo)     H(rot)  DE(clash)    DE(int)     intcor
     12.90     -16.65       2.89        0.00      63.19       2.30       0.11       3.64       ----

> <Gold.Chemscore.Fitness>
12.8971

> <Gold.Chemscore.DG>
-16.6537

> <Gold.Chemscore.ZeroCoef>
-5.4800

> <Gold.Chemscore.Hbond>
2.8925

> <Gold.Chemscore.Metal>
0.0000

> <Gold.Chemscore.Lipo>
63.1943

> <Gold.Chemscore.Internal_Hbond>
0.0000

> <Gold.Chemscore.DEClash>
0.1118

> <Gold.Chemscore.DEInternal>
3.6448

> <Gold.Chemscore.Rot>
2.2972

> <Gold.Chemscore.Internal.Correction>
   9.000000E+99

> <Gold.Chemscore.Hbonds>
donor molecule, donor type, donor heavy atom, donor atom, acceptor molecule, acceptor atom, score
      L1  H     3    20       P1  8028  0.81
      L1  H    14    28       P1  7957  0.98
      P1  H  7989  7998       L1    15  0.29

> <Gold.Chemscore.Hbond.Weighted>
-9.6609

> <Gold.Chemscore.Metal.Weighted>
-0.0000

> <Gold.Chemscore.Lipo.Weighted>
-7.3937

> <Gold.Chemscore.Internal_Hbond.Weighted>
0.0000

> <Gold.Chemscore.DEClash.Weighted>
0.1118

> <Gold.Chemscore.DEInternal.Weighted>
3.6448

> <Gold.Chemscore.Rot.Weighted>
5.8809

> <Gold.Chemscore.Internal.Correction.Weighted>
   9.000000E+99

> <Gold.Protein.RotatedTorsions>
[ 6907 6896 6895 6894 ] final   28.62 input  -60.11 | X-H torsion
[ 7974 7965 7964 7962 ] final  165.14 input  175.53 | X-H torsion
[ 8008 7997 7996 7995 ] final -109.47 input   59.86 | X-H torsion
[ 10167 10162 10161 10158 ] final   31.30 input  -65.29 | X-H torsion
[ 10718 10713 10712 10709 ] final   -1.22 input   66.30 | X-H torsion
[ 10763 10752 10751 10750 ] final  -98.68 input  -60.55 | X-H torsion
[ 11005 11000 10999 10996 ] final  -32.45 input  -57.11 | X-H torsion

> <Gold.Protein.ActiveResidues>
 VAL166  LYS551  ARG553  GLY616  TRP617  ASP618  TYR619  PRO620  LYS621  CYS622 
 ASP623  PHE694  ASN695  SER759  ASP760  ASP761  ALA762  ILE779  LEU786  VAL792 
 PHE793  MET794  SER795  GLU796  ALA797  LYS798  CYS799  TRP800  GLU811  SER814 

> <Gold.Protein.RotatedAtoms>
  152.0197  134.9830  160.0570 H   0  0  0  0  0  0  0  0  0  0  0  0  # atno 6907 bound_to 6896
  152.1349  133.4425  159.4747 H   0  0  0  0  0  0  0  0  0  0  0  0  # atno 6908 bound_to 6896
  150.6859  134.2294  159.4471 H   0  0  0  0  0  0  0  0  0  0  0  0  # atno 6909 bound_to 6896
  144.7515  139.8427  143.6364 H   0  0  0  0  0  0  0  0  0  0  0  0  # atno 7974 bound_to 7965
  154.9599  140.0399  157.2185 H   0  0  0  0  0  0  0  0  0  0  0  0  # atno 8008 bound_to 7997
  154.7899  140.2833  155.5977 H   0  0  0  0  0  0  0  0  0  0  0  0  # atno 8009 bound_to 7997
  156.2948  140.2575  156.2744 H   0  0  0  0  0  0  0  0  0  0  0  0  # atno 8010 bound_to 7997
  140.4601  144.0920  150.6211 H   0  0  0  0  0  0  0  0  0  0  0  0  # atno 10167 bound_to 10162
  156.8088  130.5417  149.5711 H   0  0  0  0  0  0  0  0  0  0  0  0  # atno 10718 bound_to 10713
  154.7435  135.5000  153.9163 H   0  0  0  0  0  0  0  0  0  0  0  0  # atno 10763 bound_to 10752
  153.1067  135.6699  153.9581 H   0  0  0  0  0  0  0  0  0  0  0  0  # atno 10764 bound_to 10752
  153.9352  135.3073  155.3423 H   0  0  0  0  0  0  0  0  0  0  0  0  # atno 10765 bound_to 10752
  140.9553  133.7196  156.1284 H   0  0  0  0  0  0  0  0  0  0  0  0  # atno 11005 bound_to 11000
  146.1471  139.4544  143.0072 LP  0  0  0  0  0  0  0  0  0  0  0  0  # atno 17320 bound_to 7965
  145.6928  141.0159  143.1546 LP  0  0  0  0  0  0  0  0  0  0  0  0  # atno 17321 bound_to 7965
  140.4104  143.2659  151.9840 LP  0  0  0  0  0  0  0  0  0  0  0  0  # atno 17342 bound_to 10162
  139.4805  144.5920  151.7755 LP  0  0  0  0  0  0  0  0  0  0  0  0  # atno 17343 bound_to 10162
  156.1057  130.6002  150.9966 LP  0  0  0  0  0  0  0  0  0  0  0  0  # atno 17370 bound_to 10713
  157.6516  131.0896  150.8038 LP  0  0  0  0  0  0  0  0  0  0  0  0  # atno 17371 bound_to 10713
  140.7544  134.4009  157.5536 LP  0  0  0  0  0  0  0  0  0  0  0  0  # atno 17394 bound_to 11000
  139.8860  134.8921  156.2608 LP  0  0  0  0  0  0  0  0  0  0  0  0  # atno 17395 bound_to 11000

$$$$
