AV-unprocessed.smi:1368|AV-procd|sdf|5575|dock9
  -GOLD-   22720 5173D 1   1.00000     0.00000
 Structure written by MMmdl.
 46 48  0  0  0  0  0  0  0  0  1 V2000
  144.2395  133.5553  150.4124 C   0  0  0  0  0  0  0  0  0  0  0  0
  144.9401  134.4228  151.4538 C   0  0  0  0  0  0  0  0  0  0  0  0
  145.2507  133.9287  152.5366 O   0  0  0  0  0  0  0  0  0  0  0  0
  145.1455  135.7058  151.1016 N   0  0  0  0  0  0  0  0  0  0  0  0
  145.7746  136.7473  151.8380 C   0  0  0  0  0  0  0  0  0  0  0  0
  146.1306  137.9122  151.1291 C   0  0  0  0  0  0  0  0  0  0  0  0
  146.7718  138.9806  151.7841 C   0  0  0  0  0  0  0  0  0  0  0  0
  147.0792  138.9062  153.1570 C   0  0  0  0  0  0  0  0  0  0  0  0
  147.7057  139.9978  153.7193 O   0  0  0  0  0  0  0  0  0  0  0  0
  148.1807  139.8863  155.0545 C   0  0  0  0  0  0  0  0  0  0  0  0
  148.5886  141.2792  155.5599 C   0  0  2  0  0  0  0  0  0  0  0  0
  147.7611  142.2407  154.9347 O   0  0  0  0  0  0  0  0  0  0  0  0
  150.0640  141.5925  155.2374 C   0  0  0  0  0  0  0  0  0  0  0  0
  150.9844  141.1202  156.2636 N   0  0  0  0  0  0  0  0  0  0  0  0
  151.7020  139.9700  156.2754 C   0  0  0  0  0  0  0  0  0  0  0  0
  151.6280  138.9812  155.1555 C   0  0  0  0  0  0  0  0  0  0  0  0
  152.4791  139.7794  157.3416 N   0  0  0  0  0  0  0  0  0  0  0  0
  152.2453  140.9149  158.0932 C   0  0  0  0  0  0  0  0  0  0  0  0
  152.7746  141.3156  159.3410 C   0  0  0  0  0  0  0  0  0  0  0  0
  152.3819  142.5385  159.9236 C   0  0  0  0  0  0  0  0  0  0  0  0
  151.4560  143.3763  159.2689 C   0  0  0  0  0  0  0  0  0  0  0  0
  150.9178  142.9970  158.0243 C   0  0  0  0  0  0  0  0  0  0  0  0
  151.3134  141.7758  157.4464 C   0  0  0  0  0  0  0  0  0  0  0  0
  146.7359  137.7289  153.8672 C   0  0  0  0  0  0  0  0  0  0  0  0
  146.0942  136.6589  153.2138 C   0  0  0  0  0  0  0  0  0  0  0  0
  144.4462  133.9073  149.4012 H   0  0  0  0  0  0  0  0  0  0  0  0
  143.1609  133.5743  150.5706 H   0  0  0  0  0  0  0  0  0  0  0  0
  144.5784  132.5214  150.4862 H   0  0  0  0  0  0  0  0  0  0  0  0
  144.7566  135.9827  150.2121 H   0  0  0  0  0  0  0  0  0  0  0  0
  145.9082  137.9952  150.0750 H   0  0  0  0  0  0  0  0  0  0  0  0
  147.0313  139.8682  151.2254 H   0  0  0  0  0  0  0  0  0  0  0  0
  147.3687  139.5027  155.6746 H   0  0  0  0  0  0  0  0  0  0  0  0
  149.0162  139.1875  155.1295 H   0  0  0  0  0  0  0  0  0  0  0  0
  148.4381  141.3343  156.6384 H   0  0  0  0  0  0  0  0  0  0  0  0
  147.9108  143.0778  155.3473 H   0  0  0  0  0  0  0  0  0  0  0  0
  150.3455  141.1457  154.2837 H   0  0  0  0  0  0  0  0  0  0  0  0
  150.2025  142.6677  155.1165 H   0  0  0  0  0  0  0  0  0  0  0  0
  152.2571  138.1160  155.3680 H   0  0  0  0  0  0  0  0  0  0  0  0
  151.9737  139.4354  154.2269 H   0  0  0  0  0  0  0  0  0  0  0  0
  150.6038  138.6339  155.0212 H   0  0  0  0  0  0  0  0  0  0  0  0
  153.4840  140.6805  159.8510 H   0  0  0  0  0  0  0  0  0  0  0  0
  152.7925  142.8348  160.8777 H   0  0  0  0  0  0  0  0  0  0  0  0
  151.1585  144.3103  159.7229 H   0  0  0  0  0  0  0  0  0  0  0  0
  150.2064  143.6347  157.5210 H   0  0  0  0  0  0  0  0  0  0  0  0
  146.9580  137.6173  154.9175 H   0  0  0  0  0  0  0  0  0  0  0  0
  145.8706  135.7750  153.7903 H   0  0  0  0  0  0  0  0  0  0  0  0
  1  2  1  0  0  0  0
  1 26  1  0  0  0  0
  1 27  1  0  0  0  0
  1 28  1  0  0  0  0
  2  3  2  0  0  0  0
  2  4  1  0  0  0  0
  4  5  1  0  0  0  0
  4 29  1  0  0  0  0
  5 25  1  0  0  0  0
  5  6  2  0  0  0  0
  6  7  1  0  0  0  0
  6 30  1  0  0  0  0
  7  8  2  0  0  0  0
  7 31  1  0  0  0  0
  8  9  1  0  0  0  0
  8 24  1  0  0  0  0
  9 10  1  0  0  0  0
 10 11  1  0  0  0  0
 10 32  1  0  0  0  0
 10 33  1  0  0  0  0
 11 12  1  0  0  0  0
 11 13  1  0  0  0  0
 11 34  1  0  0  0  0
 12 35  1  0  0  0  0
 13 14  1  0  0  0  0
 13 36  1  0  0  0  0
 13 37  1  0  0  0  0
 14 23  1  0  0  0  0
 14 15  1  0  0  0  0
 15 16  1  0  0  0  0
 15 17  2  0  0  0  0
 16 38  1  0  0  0  0
 16 39  1  0  0  0  0
 16 40  1  0  0  0  0
 17 18  1  0  0  0  0
 18 23  2  0  0  0  0
 18 19  1  0  0  0  0
 19 20  2  0  0  0  0
 19 41  1  0  0  0  0
 20 21  1  0  0  0  0
 20 42  1  0  0  0  0
 21 22  2  0  0  0  0
 21 43  1  0  0  0  0
 22 23  1  0  0  0  0
 22 44  1  0  0  0  0
 24 25  2  0  0  0  0
 24 45  1  0  0  0  0
 25 46  1  0  0  0  0
M  END
> <s_m_source_file>
AV-unprocessed.smi

> <i_m_source_file_index>
1368

> <i_lp_mmshare_version>
43012

> <i_f3d_flags>
0

> <s_epik_input>
W0NIM11DKD1PKVtOSF1jMVtjSF1bY0hdYyhbY0hdW2NIXTEpT1tDSDJdW0NASF0oW09IXSlbQ0gyXW4oYyhuMilbQ0gzXSljKGMyMylbY0hdW2NIXVtjSF1bY0hdMw==

> <s_epik_cmdline>
J2VwaWtfcHl0aG9uJywgJy1waCcsICc3LjAnLCAnLXRuJywgJzgnLCAnLW1hJywgJzIwMCcsICctbWV0YWxfYmluZGluZycsICctaW1hZScsICc8aW5maWxlLm1hZT4nLCAnLW9tYWUnLCAnPG91dGZpbGUubWFlPic=

> <r_lp_tautomer_probability>
1

> <r_epik_Ionization_Penalty>
0.119634

> <r_epik_Ionization_Penalty_Charging>
0

> <r_epik_Ionization_Penalty_Neutral>
0.119634

> <r_epik_State_Penalty>
0.10919

> <r_epik_Charging_Adjusted_Penalty>
0.10919

> <i_epik_Tot_Q>
0

> <i_epik_Tot_abs_Q>
0

> <r_epik_Metal_State_Penalty>
0.0906856

> <b_epik_Metal_Only>
0

> <s_lp_Force_Field>
OPLS_2005

> <r_lp_Energy>
21.7849

> <b_lp_Chiralities_Consistent>
1

> <s_lp_Variant>
AV-unprocessed.smi:1368-1

> <Gold.Version>
5.8.1

> <Gold.Id.Protein>
6NUR|6NUR_protein|mol2

> <Gold.PLP.Fitness>
48.4472

> <Gold.PLP.PLP>
-44.6606

> <Gold.PLP.part.hbond>
-2.0000

> <Gold.PLP.part.metal>
0.0000

> <Gold.PLP.part.buried>
0.6435

> <Gold.PLP.part.nonpolar>
-43.3983

> <Gold.PLP.part.repulsive>
0.3183

> <Gold.PLP.ligand.clash>
0.0000

> <Gold.PLP.ligand.torsion>
1.1292

> <Gold.PLP.Chemscore.Hbond>
2.0000

> <Gold.PLP.Chemscore.CHOScore>
0.0000

> <Gold.PLP.Chemscore.Metal>
0.0000

> <Gold.Chemscore.Hbonds>
donor molecule, donor type, donor heavy atom, donor atom, acceptor molecule, acceptor atom, score
      L1  H    12    35       P1  8028  1.00
      P1  H  7997  8009       L1    17  0.98

> <Gold.PLP.Chemscore.Internal.Correction>
0.0450

> <Gold.Rescore>
     Score         DG    S(hbond)    S(metal)    S(lipo)     H(rot)  DE(clash)    DE(int)     intcor
     13.14     -16.97       1.02        0.00     121.38       2.39       1.61       2.21       ----

> <Gold.Chemscore.Fitness>
13.1449

> <Gold.Chemscore.DG>
-16.9651

> <Gold.Chemscore.ZeroCoef>
-5.4800

> <Gold.Chemscore.Hbond>
1.0195

> <Gold.Chemscore.Metal>
0.0000

> <Gold.Chemscore.Lipo>
121.3848

> <Gold.Chemscore.Internal_Hbond>
0.0000

> <Gold.Chemscore.DEClash>
1.6098

> <Gold.Chemscore.DEInternal>
2.2104

> <Gold.Chemscore.Rot>
2.3914

> <Gold.Chemscore.Internal.Correction>
   9.000000E+99

> <Gold.Chemscore.Hbonds>
donor molecule, donor type, donor heavy atom, donor atom, acceptor molecule, acceptor atom, score
      L1  H    12    35       P1  8028  0.73
      P1  H  7997  8009       L1    17  0.16

> <Gold.Chemscore.Hbond.Weighted>
-3.4050

> <Gold.Chemscore.Metal.Weighted>
-0.0000

> <Gold.Chemscore.Lipo.Weighted>
-14.2020

> <Gold.Chemscore.Internal_Hbond.Weighted>
0.0000

> <Gold.Chemscore.DEClash.Weighted>
1.6098

> <Gold.Chemscore.DEInternal.Weighted>
2.2104

> <Gold.Chemscore.Rot.Weighted>
6.1220

> <Gold.Chemscore.Internal.Correction.Weighted>
   9.000000E+99

> <Gold.Protein.RotatedTorsions>
[ 6907 6896 6895 6894 ] final  -28.39 input  -60.11 | X-H torsion
[ 7974 7965 7964 7962 ] final -129.45 input  175.53 | X-H torsion
[ 8008 7997 7996 7995 ] final -178.82 input   59.86 | X-H torsion
[ 10167 10162 10161 10158 ] final   93.83 input  -65.29 | X-H torsion
[ 10718 10713 10712 10709 ] final  -46.65 input   66.30 | X-H torsion
[ 10763 10752 10751 10750 ] final  -29.15 input  -60.55 | X-H torsion
[ 11005 11000 10999 10996 ] final  165.65 input  -57.11 | X-H torsion

> <Gold.Protein.ActiveResidues>
 VAL166  LYS551  ARG553  GLY616  TRP617  ASP618  TYR619  PRO620  LYS621  CYS622 
 ASP623  PHE694  ASN695  SER759  ASP760  ASP761  ALA762  ILE779  LEU786  VAL792 
 PHE793  MET794  SER795  GLU796  ALA797  LYS798  CYS799  TRP800  GLU811  SER814 

> <Gold.Protein.RotatedAtoms>
  151.1337  135.0143  159.8593 H   0  0  0  0  0  0  0  0  0  0  0  0  # atno 6907 bound_to 6896
  152.5451  134.1581  159.8556 H   0  0  0  0  0  0  0  0  0  0  0  0  # atno 6908 bound_to 6896
  151.1650  133.4775  159.2627 H   0  0  0  0  0  0  0  0  0  0  0  0  # atno 6909 bound_to 6896
  144.9570  140.7407  143.4752 H   0  0  0  0  0  0  0  0  0  0  0  0  # atno 7974 bound_to 7965
  156.0232  140.1266  157.0335 H   0  0  0  0  0  0  0  0  0  0  0  0  # atno 8008 bound_to 7997
  154.4320  140.1064  156.6064 H   0  0  0  0  0  0  0  0  0  0  0  0  # atno 8009 bound_to 7997
  155.5914  140.3469  155.4570 H   0  0  0  0  0  0  0  0  0  0  0  0  # atno 8010 bound_to 7997
  139.8142  144.6760  150.9602 H   0  0  0  0  0  0  0  0  0  0  0  0  # atno 10167 bound_to 10162
  156.2162  130.4163  149.9051 H   0  0  0  0  0  0  0  0  0  0  0  0  # atno 10718 bound_to 10713
  153.7600  135.6920  153.4927 H   0  0  0  0  0  0  0  0  0  0  0  0  # atno 10763 bound_to 10752
  153.1945  135.4459  155.0189 H   0  0  0  0  0  0  0  0  0  0  0  0  # atno 10764 bound_to 10752
  154.8156  135.3397  154.7116 H   0  0  0  0  0  0  0  0  0  0  0  0  # atno 10765 bound_to 10752
  140.2583  134.7922  157.3566 H   0  0  0  0  0  0  0  0  0  0  0  0  # atno 11005 bound_to 11000
  145.2756  139.1937  143.4818 LP  0  0  0  0  0  0  0  0  0  0  0  0  # atno 17320 bound_to 7965
  146.3340  140.2710  142.8606 LP  0  0  0  0  0  0  0  0  0  0  0  0  # atno 17321 bound_to 7965
  140.7816  143.4155  151.0924 LP  0  0  0  0  0  0  0  0  0  0  0  0  # atno 17342 bound_to 10162
  139.7820  143.8342  152.3139 LP  0  0  0  0  0  0  0  0  0  0  0  0  # atno 17343 bound_to 10162
  156.6713  130.8821  151.3562 LP  0  0  0  0  0  0  0  0  0  0  0  0  # atno 17370 bound_to 10713
  157.7064  130.9390  150.0945 LP  0  0  0  0  0  0  0  0  0  0  0  0  # atno 17371 bound_to 10713
  140.1490  134.4874  155.7975 LP  0  0  0  0  0  0  0  0  0  0  0  0  # atno 17394 bound_to 11000
  141.2193  133.6855  156.7345 LP  0  0  0  0  0  0  0  0  0  0  0  0  # atno 17395 bound_to 11000

$$$$
