AV-unprocessed.smi:1413|AV-procd|sdf|5751|dock5
  -GOLD-   22720 5383D 1   1.00000     0.00000
 Structure written by MMmdl.
 53 55  0  0  0  0  0  0  0  0  1 V2000
  151.8362  144.9757  158.5472 C   0  0  0  0  0  0  0  0  0  0  0  0
  152.3669  143.5526  158.3455 C   0  0  2  0  0  0  0  0  0  0  0  0
  151.3349  142.6452  157.6491 C   0  0  0  0  0  0  0  0  0  0  0  0
  151.8233  141.2708  157.5858 N   0  0  0  0  0  0  0  0  0  0  0  0
  151.0983  140.4080  156.7360 C   0  0  0  0  0  0  0  0  0  0  0  0
  151.7113  139.8699  155.5801 C   0  0  0  0  0  0  0  0  0  0  0  0
  150.9732  139.0089  154.7452 C   0  0  0  0  0  0  0  0  0  0  0  0
  149.6377  138.6995  155.0911 C   0  0  0  0  0  0  0  0  0  0  0  0
  148.7881  137.8621  154.3200 N   0  0  0  0  0  0  0  0  0  0  0  0
  147.5043  137.5411  154.5533 C   0  0  0  0  0  0  0  0  0  0  0  0
  146.8330  137.9470  155.5016 O   0  0  0  0  0  0  0  0  0  0  0  0
  147.0311  136.7252  153.6002 N   0  0  0  0  0  0  0  0  0  0  0  0
  145.6647  136.2104  153.5053 C   0  0  1  0  0  0  0  0  0  0  0  0
  144.6852  137.3896  153.4169 C   0  0  0  0  0  0  0  0  0  0  0  0
  145.5133  135.2489  152.3079 C   0  0  2  0  0  0  0  0  0  0  0  0
  145.4394  135.9118  150.9241 C   0  0  0  0  0  0  0  0  0  0  0  0
  144.4338  135.0658  150.1544 C   0  0  0  0  0  0  0  0  0  0  0  0
  144.0831  133.9332  151.1165 C   0  0  0  0  0  0  0  0  0  0  0  0
  144.3097  134.4983  152.3965 O   0  0  0  0  0  0  0  0  0  0  0  0
  149.1093  139.2940  156.2539 C   0  0  0  0  0  0  0  0  0  0  0  0
  149.8146  140.1156  157.0590 N   0  0  0  0  0  0  0  0  0  0  0  0
  152.2553  140.7513  158.8814 C   0  0  0  0  0  0  0  0  0  0  0  0
  153.2662  141.7118  159.5353 C   0  0  2  0  0  0  0  0  0  0  0  0
  153.6595  141.2617  160.9460 C   0  0  0  0  0  0  0  0  0  0  0  0
  152.6850  143.0097  159.6244 O   0  0  0  0  0  0  0  0  0  0  0  0
  151.5868  145.4401  157.5929 H   0  0  0  0  0  0  0  0  0  0  0  0
  152.5802  145.6034  159.0382 H   0  0  0  0  0  0  0  0  0  0  0  0
  150.9383  144.9774  159.1658 H   0  0  0  0  0  0  0  0  0  0  0  0
  153.2756  143.6040  157.7430 H   0  0  0  0  0  0  0  0  0  0  0  0
  150.3932  142.6557  158.1996 H   0  0  0  0  0  0  0  0  0  0  0  0
  151.1246  143.0408  156.6562 H   0  0  0  0  0  0  0  0  0  0  0  0
  152.7372  140.0976  155.3314 H   0  0  0  0  0  0  0  0  0  0  0  0
  151.4393  138.6141  153.8558 H   0  0  0  0  0  0  0  0  0  0  0  0
  149.1803  137.5258  153.4527 H   0  0  0  0  0  0  0  0  0  0  0  0
  147.6651  136.4415  152.8677 H   0  0  0  0  0  0  0  0  0  0  0  0
  145.4112  135.6545  154.4094 H   0  0  0  0  0  0  0  0  0  0  0  0
  143.6534  137.0396  153.3772 H   0  0  0  0  0  0  0  0  0  0  0  0
  144.8662  137.9925  152.5263 H   0  0  0  0  0  0  0  0  0  0  0  0
  144.7769  138.0430  154.2851 H   0  0  0  0  0  0  0  0  0  0  0  0
  146.3455  134.5420  152.3051 H   0  0  0  0  0  0  0  0  0  0  0  0
  145.0887  136.9422  150.9748 H   0  0  0  0  0  0  0  0  0  0  0  0
  146.4181  135.9250  150.4437 H   0  0  0  0  0  0  0  0  0  0  0  0
  143.5452  135.6589  149.9345 H   0  0  0  0  0  0  0  0  0  0  0  0
  144.8311  134.6932  149.2098 H   0  0  0  0  0  0  0  0  0  0  0  0
  143.0551  133.5880  151.0048 H   0  0  0  0  0  0  0  0  0  0  0  0
  144.7490  133.0809  150.9724 H   0  0  0  0  0  0  0  0  0  0  0  0
  148.0901  139.0997  156.5546 H   0  0  0  0  0  0  0  0  0  0  0  0
  151.3851  140.6236  159.5268 H   0  0  0  0  0  0  0  0  0  0  0  0
  152.7159  139.7705  158.7560 H   0  0  0  0  0  0  0  0  0  0  0  0
  154.1698  141.7655  158.9251 H   0  0  0  0  0  0  0  0  0  0  0  0
  154.1194  140.2733  160.9278 H   0  0  0  0  0  0  0  0  0  0  0  0
  152.7902  141.2147  161.6025 H   0  0  0  0  0  0  0  0  0  0  0  0
  154.3757  141.9534  161.3901 H   0  0  0  0  0  0  0  0  0  0  0  0
  1  2  1  0  0  0  0
  1 26  1  0  0  0  0
  1 27  1  0  0  0  0
  1 28  1  0  0  0  0
  2 25  1  0  0  0  0
  2  3  1  0  0  0  0
  2 29  1  0  0  0  0
  3  4  1  0  0  0  0
  3 30  1  0  0  0  0
  3 31  1  0  0  0  0
  4  5  1  0  0  0  0
  4 22  1  0  0  0  0
  5 21  1  0  0  0  0
  5  6  2  0  0  0  0
  6  7  1  0  0  0  0
  6 32  1  0  0  0  0
  7  8  2  0  0  0  0
  7 33  1  0  0  0  0
  8  9  1  0  0  0  0
  8 20  1  0  0  0  0
  9 10  1  0  0  0  0
  9 34  1  0  0  0  0
 10 11  2  0  0  0  0
 10 12  1  0  0  0  0
 12 13  1  0  0  0  0
 12 35  1  0  0  0  0
 13 14  1  0  0  0  0
 13 15  1  0  0  0  0
 13 36  1  0  0  0  0
 14 37  1  0  0  0  0
 14 38  1  0  0  0  0
 14 39  1  0  0  0  0
 15 19  1  0  0  0  0
 15 16  1  0  0  0  0
 15 40  1  0  0  0  0
 16 17  1  0  0  0  0
 16 41  1  0  0  0  0
 16 42  1  0  0  0  0
 17 18  1  0  0  0  0
 17 43  1  0  0  0  0
 17 44  1  0  0  0  0
 18 19  1  0  0  0  0
 18 45  1  0  0  0  0
 18 46  1  0  0  0  0
 20 21  2  0  0  0  0
 20 47  1  0  0  0  0
 22 23  1  0  0  0  0
 22 48  1  0  0  0  0
 22 49  1  0  0  0  0
 23 24  1  0  0  0  0
 23 25  1  0  0  0  0
 23 50  1  0  0  0  0
 24 51  1  0  0  0  0
 24 52  1  0  0  0  0
 24 53  1  0  0  0  0
M  END
> <s_m_source_file>
AV-unprocessed.smi

> <i_m_source_file_index>
1413

> <i_lp_mmshare_version>
43012

> <i_f3d_flags>
0

> <s_epik_input>
W0NIM11bQ0BASF0xW0NIMl1OKFtDSDJdW0NASF0oTzEpW0NIM10pYzJbY0hdW2NIXWMoW2NIXW4yKVtOSF1DKD1PKVtOSF1bQ0BIXShbQ0gzXSlbQ0BASF0zW0NIMl1bQ0gyXVtDSDJdTzM=

> <s_epik_cmdline>
J2VwaWtfcHl0aG9uJywgJy1waCcsICc3LjAnLCAnLXRuJywgJzgnLCAnLW1hJywgJzIwMCcsICctbWV0YWxfYmluZGluZycsICctaW1hZScsICc8aW5maWxlLm1hZT4nLCAnLW9tYWUnLCAnPG91dGZpbGUubWFlPic=

> <r_lp_tautomer_probability>
1

> <r_epik_Ionization_Penalty>
0.00271172

> <r_epik_Ionization_Penalty_Charging>
0

> <r_epik_Ionization_Penalty_Neutral>
0.00271172

> <r_epik_State_Penalty>
0.00186503

> <r_epik_Charging_Adjusted_Penalty>
0.00186503

> <i_epik_Tot_Q>
0

> <i_epik_Tot_abs_Q>
0

> <r_epik_Metal_State_Penalty>
-0

> <b_epik_Metal_Only>
0

> <s_lp_Force_Field>
OPLS_2005

> <r_lp_Energy>
35.2684

> <b_lp_Chiralities_Consistent>
1

> <s_lp_Variant>
AV-unprocessed.smi:1413-4

> <Gold.Version>
5.8.1

> <Gold.Id.Protein>
6NUR|6NUR_protein|mol2

> <Gold.PLP.Fitness>
48.6151

> <Gold.PLP.PLP>
-43.2568

> <Gold.PLP.part.hbond>
-2.0000

> <Gold.PLP.part.metal>
0.0000

> <Gold.PLP.part.buried>
-4.8331

> <Gold.PLP.part.nonpolar>
-36.5619

> <Gold.PLP.part.repulsive>
0.1098

> <Gold.PLP.ligand.clash>
0.0046

> <Gold.PLP.ligand.torsion>
0.3743

> <Gold.PLP.Chemscore.Hbond>
1.9204

> <Gold.PLP.Chemscore.CHOScore>
0.0000

> <Gold.PLP.Chemscore.Metal>
0.0000

> <Gold.Chemscore.Hbonds>
donor molecule, donor type, donor heavy atom, donor atom, acceptor molecule, acceptor atom, score
      L1  H     9    34       P1  7948  0.92
      L1  H    12    35       P1  7948  1.00

> <Gold.PLP.Chemscore.Internal.Correction>
0.3503

> <Gold.Rescore>
     Score         DG    S(hbond)    S(metal)    S(lipo)     H(rot)  DE(clash)    DE(int)     intcor
     19.76     -21.74       1.92        0.00     113.64       1.35       0.15       1.83       ----

> <Gold.Chemscore.Fitness>
19.7562

> <Gold.Chemscore.DG>
-21.7354

> <Gold.Chemscore.ZeroCoef>
-5.4800

> <Gold.Chemscore.Hbond>
1.9187

> <Gold.Chemscore.Metal>
0.0000

> <Gold.Chemscore.Lipo>
113.6371

> <Gold.Chemscore.Internal_Hbond>
0.0000

> <Gold.Chemscore.DEClash>
0.1479

> <Gold.Chemscore.DEInternal>
1.8313

> <Gold.Chemscore.Rot>
1.3471

> <Gold.Chemscore.Internal.Correction>
   9.000000E+99

> <Gold.Chemscore.Hbonds>
donor molecule, donor type, donor heavy atom, donor atom, acceptor molecule, acceptor atom, score
      L1  H     9    34       P1  7948  0.83
      L1  H    12    35       P1  7948  1.00

> <Gold.Chemscore.Hbond.Weighted>
-6.4084

> <Gold.Chemscore.Metal.Weighted>
-0.0000

> <Gold.Chemscore.Lipo.Weighted>
-13.2955

> <Gold.Chemscore.Internal_Hbond.Weighted>
0.0000

> <Gold.Chemscore.DEClash.Weighted>
0.1479

> <Gold.Chemscore.DEInternal.Weighted>
1.8313

> <Gold.Chemscore.Rot.Weighted>
3.4485

> <Gold.Chemscore.Internal.Correction.Weighted>
   9.000000E+99

> <Gold.Protein.RotatedTorsions>
[ 6907 6896 6895 6894 ] final -126.14 input  -60.11 | X-H torsion
[ 7974 7965 7964 7962 ] final   40.12 input  175.53 | X-H torsion
[ 8008 7997 7996 7995 ] final   52.46 input   59.86 | X-H torsion
[ 10167 10162 10161 10158 ] final  -81.81 input  -65.29 | X-H torsion
[ 10718 10713 10712 10709 ] final    5.19 input   66.30 | X-H torsion
[ 10763 10752 10751 10750 ] final  -80.54 input  -60.55 | X-H torsion
[ 11005 11000 10999 10996 ] final   98.69 input  -57.11 | X-H torsion

> <Gold.Protein.ActiveResidues>
 VAL166  LYS551  ARG553  GLY616  TRP617  ASP618  TYR619  PRO620  LYS621  CYS622 
 ASP623  PHE694  ASN695  SER759  ASP760  ASP761  ALA762  ILE779  LEU786  VAL792 
 PHE793  MET794  SER795  GLU796  ALA797  LYS798  CYS799  TRP800  GLU811  SER814 

> <Gold.Protein.RotatedAtoms>
  150.8939  133.7207  159.2896 H   0  0  0  0  0  0  0  0  0  0  0  0  # atno 6907 bound_to 6896
  151.4748  135.1047  159.9771 H   0  0  0  0  0  0  0  0  0  0  0  0  # atno 6908 bound_to 6896
  152.4837  133.8270  159.7139 H   0  0  0  0  0  0  0  0  0  0  0  0  # atno 6909 bound_to 6896
  146.0930  139.5571  142.9463 H   0  0  0  0  0  0  0  0  0  0  0  0  # atno 7974 bound_to 7965
  155.4522  140.3458  155.4302 H   0  0  0  0  0  0  0  0  0  0  0  0  # atno 8008 bound_to 7997
  156.1213  140.1488  156.9230 H   0  0  0  0  0  0  0  0  0  0  0  0  # atno 8009 bound_to 7997
  154.4825  140.0865  156.7391 H   0  0  0  0  0  0  0  0  0  0  0  0  # atno 8010 bound_to 7997
  140.4377  143.2525  151.8669 H   0  0  0  0  0  0  0  0  0  0  0  0  # atno 10167 bound_to 10162
  156.9038  130.5731  149.5647 H   0  0  0  0  0  0  0  0  0  0  0  0  # atno 10718 bound_to 10713
  154.5525  135.5657  153.6934 H   0  0  0  0  0  0  0  0  0  0  0  0  # atno 10763 bound_to 10752
  152.9994  135.6254  154.2355 H   0  0  0  0  0  0  0  0  0  0  0  0  # atno 10764 bound_to 10752
  154.2290  135.2866  155.2876 H   0  0  0  0  0  0  0  0  0  0  0  0  # atno 10765 bound_to 10752
  139.8772  134.9061  156.4495 H   0  0  0  0  0  0  0  0  0  0  0  0  # atno 11005 bound_to 11000
  145.6002  141.0356  143.2022 LP  0  0  0  0  0  0  0  0  0  0  0  0  # atno 17320 bound_to 7965
  144.7374  139.7545  143.7324 LP  0  0  0  0  0  0  0  0  0  0  0  0  # atno 17321 bound_to 7965
  139.4788  144.5264  151.8729 LP  0  0  0  0  0  0  0  0  0  0  0  0  # atno 17342 bound_to 10162
  140.4354  144.2059  150.5889 LP  0  0  0  0  0  0  0  0  0  0  0  0  # atno 17343 bound_to 10162
  156.0569  130.5629  150.9110 LP  0  0  0  0  0  0  0  0  0  0  0  0  # atno 17370 bound_to 10713
  157.6010  131.0941  150.8961 LP  0  0  0  0  0  0  0  0  0  0  0  0  # atno 17371 bound_to 10713
  140.8942  133.7826  155.9606 LP  0  0  0  0  0  0  0  0  0  0  0  0  # atno 17394 bound_to 11000
  140.8721  134.2714  157.5186 LP  0  0  0  0  0  0  0  0  0  0  0  0  # atno 17395 bound_to 11000

$$$$
