AV-unprocessed.smi:117|AV-procd|sdf|1129|dock1
  -GOLD-   2262018253D 1   1.00000     0.00000
 Structure written by MMmdl.
 53 55  0  0  0  0  0  0  0  0  1 V2000
  151.3325  143.8109  159.7536 C   0  0  0  0  0  0  0  0  0  0  0  0
  151.7597  142.4044  159.3681 C   0  0  0  0  0  0  0  0  0  0  0  0
  152.7686  141.7789  160.1286 C   0  0  0  0  0  0  0  0  0  0  0  0
  153.2145  140.4897  159.7957 C   0  0  0  0  0  0  0  0  0  0  0  0
  152.6526  139.8133  158.7001 C   0  0  0  0  0  0  0  0  0  0  0  0
  151.6231  140.4134  157.9354 C   0  0  0  0  0  0  0  0  0  0  0  0
  151.0551  139.7696  156.7977 N   0  0  0  0  0  0  0  0  0  0  0  0
  151.6627  139.0483  155.8371 C   0  0  0  0  0  0  0  0  0  0  0  0
  152.8717  138.8170  155.7947 O   0  0  0  0  0  0  0  0  0  0  0  0
  150.7222  138.4923  154.7585 C   0  0  0  0  0  0  0  0  0  0  0  0
  149.9583  137.3219  155.1858 N   0  0  0  0  0  0  0  0  0  0  0  0
  150.4824  136.1404  155.5479 C   0  0  0  0  0  0  0  0  0  0  0  0
  151.6937  135.9189  155.5686 O   0  0  0  0  0  0  0  0  0  0  0  0
  149.4733  135.0589  155.9625 C   0  0  0  0  0  0  0  0  0  0  0  0
  149.2106  134.0624  154.9010 N   0  0  0  0  0  0  0  0  0  0  0  0
  150.0201  132.9003  154.8544 C   0  0  0  0  0  0  0  0  0  0  0  0
  150.9299  132.7228  155.6658 O   0  0  0  0  0  0  0  0  0  0  0  0
  149.6934  131.9472  153.8000 C   0  0  0  0  0  0  0  0  0  0  0  0
  150.4018  130.8109  153.6858 F   0  0  0  0  0  0  0  0  0  0  0  0
  148.6866  132.1869  152.9354 C   0  0  0  0  0  0  0  0  0  0  0  0
  147.9167  133.3324  152.9790 N   0  0  0  0  0  0  0  0  0  0  0  0
  146.7741  133.4905  152.0025 C   0  0  2  0  0  0  0  0  0  0  0  0
  145.3891  133.5439  152.6750 C   0  0  0  0  0  0  0  0  0  0  0  0
  144.6543  132.3785  152.0331 C   0  0  0  0  0  0  0  0  0  0  0  0
  145.4393  132.1494  150.7462 C   0  0  0  0  0  0  0  0  0  0  0  0
  146.7813  132.4025  151.1308 O   0  0  0  0  0  0  0  0  0  0  0  0
  148.1472  134.2899  153.9942 C   0  0  0  0  0  0  0  0  0  0  0  0
  147.4382  135.2925  154.0938 O   0  0  0  0  0  0  0  0  0  0  0  0
  151.1763  141.7210  158.2677 C   0  0  0  0  0  0  0  0  0  0  0  0
  150.0818  142.3823  157.4329 C   0  0  0  0  0  0  0  0  0  0  0  0
  151.9652  144.2173  160.5433 H   0  0  0  0  0  0  0  0  0  0  0  0
  150.3050  143.8117  160.1179 H   0  0  0  0  0  0  0  0  0  0  0  0
  151.4025  144.4823  158.8972 H   0  0  0  0  0  0  0  0  0  0  0  0
  153.2152  142.2909  160.9686 H   0  0  0  0  0  0  0  0  0  0  0  0
  153.9975  140.0223  160.3744 H   0  0  0  0  0  0  0  0  0  0  0  0
  153.0424  138.8376  158.4551 H   0  0  0  0  0  0  0  0  0  0  0  0
  150.0470  139.7979  156.7491 H   0  0  0  0  0  0  0  0  0  0  0  0
  150.0455  139.2809  154.4245 H   0  0  0  0  0  0  0  0  0  0  0  0
  151.3188  138.2064  153.8920 H   0  0  0  0  0  0  0  0  0  0  0  0
  148.9533  137.4147  155.1936 H   0  0  0  0  0  0  0  0  0  0  0  0
  149.8418  134.5837  156.8725 H   0  0  0  0  0  0  0  0  0  0  0  0
  148.5434  135.5377  156.2742 H   0  0  0  0  0  0  0  0  0  0  0  0
  148.4824  131.4460  152.1763 H   0  0  0  0  0  0  0  0  0  0  0  0
  146.9830  134.4014  151.4394 H   0  0  0  0  0  0  0  0  0  0  0  0
  145.4465  133.4662  153.7611 H   0  0  0  0  0  0  0  0  0  0  0  0
  144.9165  134.4932  152.4210 H   0  0  0  0  0  0  0  0  0  0  0  0
  144.7193  131.4960  152.6699 H   0  0  0  0  0  0  0  0  0  0  0  0
  143.5994  132.5870  151.8544 H   0  0  0  0  0  0  0  0  0  0  0  0
  145.3174  131.1405  150.3518 H   0  0  0  0  0  0  0  0  0  0  0  0
  145.1403  132.8615  149.9753 H   0  0  0  0  0  0  0  0  0  0  0  0
  149.3015  141.6681  157.1691 H   0  0  0  0  0  0  0  0  0  0  0  0
  150.5063  142.7800  156.5108 H   0  0  0  0  0  0  0  0  0  0  0  0
  149.5829  143.1976  157.9539 H   0  0  0  0  0  0  0  0  0  0  0  0
  1  2  1  0  0  0  0
  1 31  1  0  0  0  0
  1 32  1  0  0  0  0
  1 33  1  0  0  0  0
  2 29  1  0  0  0  0
  2  3  2  0  0  0  0
  3  4  1  0  0  0  0
  3 34  1  0  0  0  0
  4  5  2  0  0  0  0
  4 35  1  0  0  0  0
  5  6  1  0  0  0  0
  5 36  1  0  0  0  0
  6  7  1  0  0  0  0
  6 29  2  0  0  0  0
  7  8  1  0  0  0  0
  7 37  1  0  0  0  0
  8  9  2  0  0  0  0
  8 10  1  0  0  0  0
 10 11  1  0  0  0  0
 10 38  1  0  0  0  0
 10 39  1  0  0  0  0
 11 12  1  0  0  0  0
 11 40  1  0  0  0  0
 12 13  2  0  0  0  0
 12 14  1  0  0  0  0
 14 15  1  0  0  0  0
 14 41  1  0  0  0  0
 14 42  1  0  0  0  0
 15 27  1  0  0  0  0
 15 16  1  0  0  0  0
 16 17  2  0  0  0  0
 16 18  1  0  0  0  0
 18 19  1  0  0  0  0
 18 20  2  0  0  0  0
 20 21  1  0  0  0  0
 20 43  1  0  0  0  0
 21 22  1  0  0  0  0
 21 27  1  0  0  0  0
 22 26  1  0  0  0  0
 22 23  1  0  0  0  0
 22 44  1  0  0  0  0
 23 24  1  0  0  0  0
 23 45  1  0  0  0  0
 23 46  1  0  0  0  0
 24 25  1  0  0  0  0
 24 47  1  0  0  0  0
 24 48  1  0  0  0  0
 25 26  1  0  0  0  0
 25 49  1  0  0  0  0
 25 50  1  0  0  0  0
 27 28  2  0  0  0  0
 29 30  1  0  0  0  0
 30 51  1  0  0  0  0
 30 52  1  0  0  0  0
 30 53  1  0  0  0  0
M  END
> <s_m_source_file>
AV-unprocessed.smi

> <i_m_source_file_index>
117

> <i_lp_mmshare_version>
43012

> <i_f3d_flags>
0

> <s_epik_input>
W0NIM11jMVtjSF1bY0hdW2NIXWMoYzFbQ0gzXSlbTkhdQyg9TylbQ0gyXVtOSF1DKD1PKVtDSDJdbjJjKD1PKWMoRilbY0hdbihjMj1PKVtDQEBIXTNbQ0gyXVtDSDJdW0NIMl1PMw==

> <s_epik_cmdline>
J2VwaWtfcHl0aG9uJywgJy1waCcsICc3LjAnLCAnLXRuJywgJzgnLCAnLW1hJywgJzIwMCcsICctbWV0YWxfYmluZGluZycsICctaW1hZScsICc8aW5maWxlLm1hZT4nLCAnLW9tYWUnLCAnPG91dGZpbGUubWFlPic=

> <r_lp_tautomer_probability>
1

> <r_epik_Ionization_Penalty>
1.58439e-06

> <r_epik_Ionization_Penalty_Charging>
4.14583e-09

> <r_epik_Ionization_Penalty_Neutral>
1.58025e-06

> <r_epik_State_Penalty>
-0

> <r_epik_Charging_Adjusted_Penalty>
4.14583e-09

> <i_epik_Tot_Q>
0

> <i_epik_Tot_abs_Q>
0

> <r_epik_Metal_State_Penalty>
-0

> <b_epik_Metal_Only>
0

> <s_epik_Chemistry_Notes>
This compound contains an acetal/aminal-like group ( X-CH(R)-Y where X, Y are N, S, or O) that may be acid/base labile, releasing an aldehyde.

> <s_lp_Force_Field>
OPLS_2005

> <r_lp_Energy>
28.8349

> <b_lp_Chiralities_Consistent>
1

> <s_lp_Variant>
AV-unprocessed.smi:117-1

> <Gold.Version>
5.8.1

> <Gold.Id.Protein>
6NUR|6NUR_protein|mol2

> <Gold.PLP.Fitness>
56.1144

> <Gold.PLP.PLP>
-49.3876

> <Gold.PLP.part.hbond>
-2.0000

> <Gold.PLP.part.metal>
0.0000

> <Gold.PLP.part.buried>
-4.0215

> <Gold.PLP.part.nonpolar>
-46.0204

> <Gold.PLP.part.repulsive>
3.0968

> <Gold.PLP.ligand.clash>
0.0000

> <Gold.PLP.ligand.torsion>
1.2279

> <Gold.PLP.Chemscore.Hbond>
1.9920

> <Gold.PLP.Chemscore.CHOScore>
1.0000

> <Gold.PLP.Chemscore.Metal>
0.0000

> <Gold.Chemscore.Hbonds>
donor molecule, donor type, donor heavy atom, donor atom, acceptor molecule, acceptor atom, score
      P1  H  7997  8010       L1     9  1.00
      P1  H 10752 10765       L1    13  1.00
      L1  C    20    43       P1 10747  1.00

> <Gold.PLP.Chemscore.Internal.Correction>
0.2067

> <Gold.Rescore>
     Score         DG    S(hbond)    S(metal)    S(lipo)     H(rot)  DE(clash)    DE(int)     intcor
     15.20     -17.99       1.92        0.00     102.85       2.32       0.22       2.57       ----

> <Gold.Chemscore.Fitness>
15.1987

> <Gold.Chemscore.DG>
-17.9857

> <Gold.Chemscore.ZeroCoef>
-5.4800

> <Gold.Chemscore.Hbond>
1.9169

> <Gold.Chemscore.Metal>
0.0000

> <Gold.Chemscore.Lipo>
102.8536

> <Gold.Chemscore.Internal_Hbond>
0.0000

> <Gold.Chemscore.DEClash>
0.2156

> <Gold.Chemscore.DEInternal>
2.5714

> <Gold.Chemscore.Rot>
2.3166

> <Gold.Chemscore.Internal.Correction>
   9.000000E+99

> <Gold.Chemscore.Hbonds>
donor molecule, donor type, donor heavy atom, donor atom, acceptor molecule, acceptor atom, score
      P1  H  7997  8010       L1     9  0.93
      P1  H 10752 10765       L1    13  0.96

> <Gold.Chemscore.Hbond.Weighted>
-6.4024

> <Gold.Chemscore.Metal.Weighted>
-0.0000

> <Gold.Chemscore.Lipo.Weighted>
-12.0339

> <Gold.Chemscore.Internal_Hbond.Weighted>
0.0000

> <Gold.Chemscore.DEClash.Weighted>
0.2156

> <Gold.Chemscore.DEInternal.Weighted>
2.5714

> <Gold.Chemscore.Rot.Weighted>
5.9306

> <Gold.Chemscore.Internal.Correction.Weighted>
   9.000000E+99

> <Gold.Protein.RotatedTorsions>
[ 6907 6896 6895 6894 ] final   20.72 input  -60.11 | X-H torsion
[ 7974 7965 7964 7962 ] final   -4.58 input  175.53 | X-H torsion
[ 8008 7997 7996 7995 ] final   78.71 input   59.86 | X-H torsion
[ 10167 10162 10161 10158 ] final  113.36 input  -65.29 | X-H torsion
[ 10718 10713 10712 10709 ] final   43.38 input   66.30 | X-H torsion
[ 10763 10752 10751 10750 ] final -170.20 input  -60.55 | X-H torsion
[ 11005 11000 10999 10996 ] final -151.02 input  -57.11 | X-H torsion

> <Gold.Protein.ActiveResidues>
 VAL166  LYS551  ARG553  GLY616  TRP617  ASP618  TYR619  PRO620  LYS621  CYS622 
 ASP623  PHE694  ASN695  SER759  ASP760  ASP761  ALA762  ILE779  LEU786  VAL792 
 PHE793  MET794  SER795  GLU796  ALA797  LYS798  CYS799  TRP800  GLU811  SER814 

> <Gold.Protein.RotatedAtoms>
  151.9008  135.0379  160.0505 H   0  0  0  0  0  0  0  0  0  0  0  0  # atno 6907 bound_to 6896
  152.2360  133.5092  159.5251 H   0  0  0  0  0  0  0  0  0  0  0  0  # atno 6908 bound_to 6896
  150.7039  134.1070  159.4029 H   0  0  0  0  0  0  0  0  0  0  0  0  # atno 6909 bound_to 6896
  146.2369  140.1892  142.8332 H   0  0  0  0  0  0  0  0  0  0  0  0  # atno 7974 bound_to 7965
  155.8596  140.3454  155.5747 H   0  0  0  0  0  0  0  0  0  0  0  0  # atno 8008 bound_to 7997
  155.7948  140.0877  157.2009 H   0  0  0  0  0  0  0  0  0  0  0  0  # atno 8009 bound_to 7997
  154.4011  140.1476  156.3192 H   0  0  0  0  0  0  0  0  0  0  0  0  # atno 8010 bound_to 7997
  139.6467  144.7127  151.2128 H   0  0  0  0  0  0  0  0  0  0  0  0  # atno 10167 bound_to 10162
  157.4153  130.7937  149.7466 H   0  0  0  0  0  0  0  0  0  0  0  0  # atno 10718 bound_to 10713
  154.6441  135.2902  155.0068 H   0  0  0  0  0  0  0  0  0  0  0  0  # atno 10763 bound_to 10752
  154.1184  135.6552  153.4902 H   0  0  0  0  0  0  0  0  0  0  0  0  # atno 10764 bound_to 10752
  153.0341  135.5282  154.7320 H   0  0  0  0  0  0  0  0  0  0  0  0  # atno 10765 bound_to 10752
  140.7340  134.3589  157.5161 H   0  0  0  0  0  0  0  0  0  0  0  0  # atno 11005 bound_to 11000
  144.9872  140.8513  143.5361 LP  0  0  0  0  0  0  0  0  0  0  0  0  # atno 17320 bound_to 7965
  145.1893  139.2310  143.5251 LP  0  0  0  0  0  0  0  0  0  0  0  0  # atno 17321 bound_to 7965
  140.7518  143.6219  150.8505 LP  0  0  0  0  0  0  0  0  0  0  0  0  # atno 17342 bound_to 10162
  139.9862  143.5897  152.2926 LP  0  0  0  0  0  0  0  0  0  0  0  0  # atno 17343 bound_to 10162
  155.9863  130.3976  150.3219 LP  0  0  0  0  0  0  0  0  0  0  0  0  # atno 17370 bound_to 10713
  157.1361  131.0284  151.2948 LP  0  0  0  0  0  0  0  0  0  0  0  0  # atno 17371 bound_to 10713
  139.8820  134.9037  156.2861 LP  0  0  0  0  0  0  0  0  0  0  0  0  # atno 17394 bound_to 11000
  140.9896  133.7217  156.0793 LP  0  0  0  0  0  0  0  0  0  0  0  0  # atno 17395 bound_to 11000

$$$$
