AV-unprocessed.smi:2017|AV-procd|sdf|8168|dock1
  -GOLD-   2272010413D 1   1.00000     0.00000
 Structure written by MMmdl.
 44 45  0  0  0  0  0  0  0  0  2 V2000
  147.6721  139.1841  155.3795 O   0  0  0  0  0  0  0  0  0  0  0  0
  148.1993  139.3696  154.2816 C   0  0  0  0  0  0  0  0  0  0  0  0
  149.4618  140.2330  154.1534 C   0  0  0  0  0  0  0  0  0  0  0  0
  150.6660  139.5721  154.6821 N   0  0  0  0  0  0  0  0  0  0  0  0
  151.0009  138.3091  154.1630 C   0  0  0  0  0  0  0  0  0  0  0  0
  152.0866  137.6328  154.5842 C   0  0  0  0  0  0  0  0  0  0  0  0
  152.9258  138.2436  155.6076 C   0  0  0  0  0  0  0  0  0  0  0  0
  153.9180  137.6383  156.0084 O   0  0  0  0  0  0  0  0  0  0  0  0
  152.5620  139.4731  156.0762 N   0  5  0  0  0  0  0  0  0  0  0  0
  151.4562  140.1503  155.6363 C   0  0  0  0  0  0  0  0  0  0  0  0
  151.1478  141.2608  156.0706 O   0  0  0  0  0  0  0  0  0  0  0  0
  147.7076  138.8700  153.1377 N   0  0  0  0  0  0  0  0  0  0  0  0
  146.5172  138.0347  153.0317 C   0  0  0  0  0  0  0  0  0  0  0  0
  146.0827  137.8510  151.5677 C   0  0  0  0  0  0  0  0  0  0  0  0
  145.2248  136.5980  151.3568 C   0  0  0  0  0  0  0  0  0  0  0  0
  146.0634  135.4511  151.3646 O   0  0  0  0  0  0  0  0  0  0  0  0
  145.5093  134.3095  150.7234 C   0  0  0  0  0  0  0  0  0  0  0  0
  144.2755  133.7885  151.4907 C   0  0  0  0  0  0  0  0  0  0  0  0
  143.7510  132.4768  150.8832 C   0  0  0  0  0  0  0  0  0  0  0  0
  144.8531  131.4076  150.8229 C   0  0  0  0  0  0  0  0  0  0  0  0
  146.0851  131.9229  150.0627 C   0  0  0  0  0  0  0  0  0  0  0  0
  146.6074  133.2324  150.6755 C   0  0  0  0  0  0  0  0  0  0  0  0
  149.6155  140.5116  153.1089 H   0  0  0  0  0  0  0  0  0  0  0  0
  149.2831  141.1731  154.6768 H   0  0  0  0  0  0  0  0  0  0  0  0
  150.3315  137.9315  153.4042 H   0  0  0  0  0  0  0  0  0  0  0  0
  152.3319  136.6647  154.1731 H   0  0  0  0  0  0  0  0  0  0  0  0
  148.2012  139.0741  152.2808 H   0  0  0  0  0  0  0  0  0  0  0  0
  146.7461  137.0664  153.4776 H   0  0  0  0  0  0  0  0  0  0  0  0
  145.7053  138.4628  153.6222 H   0  0  0  0  0  0  0  0  0  0  0  0
  145.5109  138.7226  151.2468 H   0  0  0  0  0  0  0  0  0  0  0  0
  146.9601  137.8044  150.9213 H   0  0  0  0  0  0  0  0  0  0  0  0
  144.4627  136.5367  152.1338 H   0  0  0  0  0  0  0  0  0  0  0  0
  144.7087  136.6677  150.3981 H   0  0  0  0  0  0  0  0  0  0  0  0
  145.2297  134.5582  149.6978 H   0  0  0  0  0  0  0  0  0  0  0  0
  144.5377  133.6255  152.5368 H   0  0  0  0  0  0  0  0  0  0  0  0
  143.4759  134.5285  151.4852 H   0  0  0  0  0  0  0  0  0  0  0  0
  142.9074  132.1080  151.4673 H   0  0  0  0  0  0  0  0  0  0  0  0
  143.3713  132.6664  149.8785 H   0  0  0  0  0  0  0  0  0  0  0  0
  145.1414  131.1224  151.8356 H   0  0  0  0  0  0  0  0  0  0  0  0
  144.4709  130.5057  150.3441 H   0  0  0  0  0  0  0  0  0  0  0  0
  146.8714  131.1677  150.0726 H   0  0  0  0  0  0  0  0  0  0  0  0
  145.8268  132.0870  149.0158 H   0  0  0  0  0  0  0  0  0  0  0  0
  147.4587  133.5955  150.0990 H   0  0  0  0  0  0  0  0  0  0  0  0
  146.9770  133.0394  151.6836 H   0  0  0  0  0  0  0  0  0  0  0  0
  1  2  2  0  0  0  0
  2  3  1  0  0  0  0
  2 12  1  0  0  0  0
  3  4  1  0  0  0  0
  3 23  1  0  0  0  0
  3 24  1  0  0  0  0
  4 10  1  0  0  0  0
  4  5  1  0  0  0  0
  5  6  2  0  0  0  0
  5 25  1  0  0  0  0
  6  7  1  0  0  0  0
  6 26  1  0  0  0  0
  7  8  2  0  0  0  0
  7  9  1  0  0  0  0
  9 10  1  0  0  0  0
 10 11  2  0  0  0  0
 12 13  1  0  0  0  0
 12 27  1  0  0  0  0
 13 14  1  0  0  0  0
 13 28  1  0  0  0  0
 13 29  1  0  0  0  0
 14 15  1  0  0  0  0
 14 30  1  0  0  0  0
 14 31  1  0  0  0  0
 15 16  1  0  0  0  0
 15 32  1  0  0  0  0
 15 33  1  0  0  0  0
 16 17  1  0  0  0  0
 17 22  1  0  0  0  0
 17 18  1  0  0  0  0
 17 34  1  0  0  0  0
 18 19  1  0  0  0  0
 18 35  1  0  0  0  0
 18 36  1  0  0  0  0
 19 20  1  0  0  0  0
 19 37  1  0  0  0  0
 19 38  1  0  0  0  0
 20 21  1  0  0  0  0
 20 39  1  0  0  0  0
 20 40  1  0  0  0  0
 21 22  1  0  0  0  0
 21 41  1  0  0  0  0
 21 42  1  0  0  0  0
 22 43  1  0  0  0  0
 22 44  1  0  0  0  0
M  CHG  1   9  -1
M  END
> <s_m_source_file>
AV-unprocessed.smi

> <i_m_source_file_index>
2017

> <i_lp_mmshare_version>
43012

> <i_f3d_flags>
0

> <s_epik_input>
Tz1jMVtuSF1jKD1PKVtjSF1bY0hdbjFbQ0gyXUMoPU8pW05IXVtDSDJdW0NIMl1bQ0gyXU9bQ0hdMltDSDJdW0NIMl1bQ0gyXVtDSDJdW0NIMl0y

> <s_epik_cmdline>
J2VwaWtfcHl0aG9uJywgJy1waCcsICc3LjAnLCAnLXRuJywgJzgnLCAnLW1hJywgJzIwMCcsICctbWV0YWxfYmluZGluZycsICctaW1hZScsICc8aW5maWxlLm1hZT4nLCAnLW9tYWUnLCAnPG91dGZpbGUubWFlPic=

> <r_lp_tautomer_probability>
0.999537

> <r_epik_Ionization_Penalty>
3.07707

> <r_epik_Ionization_Penalty_Charging>
2.73667e-08

> <r_epik_Ionization_Penalty_Neutral>
3.07707

> <r_epik_State_Penalty>
3.07611

> <r_epik_Charging_Adjusted_Penalty>
3.07611

> <i_epik_Tot_Q>
-1

> <i_epik_Tot_abs_Q>
1

> <r_epik_Metal_State_Penalty>
0.459703

> <b_epik_Metal_Only>
1

> <s_lp_Force_Field>
OPLS_2005

> <r_lp_Energy>
18.9634

> <b_lp_Chiralities_Consistent>
1

> <s_lp_Variant>
AV-unprocessed.smi:2017-2

> <Gold.Version>
5.8.1

> <Gold.Id.Protein>
6NUR|6NUR_protein|mol2

> <Gold.PLP.Fitness>
50.7473

> <Gold.PLP.PLP>
-38.8182

> <Gold.PLP.part.hbond>
-3.5775

> <Gold.PLP.part.metal>
0.0000

> <Gold.PLP.part.buried>
6.2377

> <Gold.PLP.part.nonpolar>
-42.1287

> <Gold.PLP.part.repulsive>
0.3166

> <Gold.PLP.ligand.clash>
0.0000

> <Gold.PLP.ligand.torsion>
0.5090

> <Gold.PLP.Chemscore.Hbond>
3.1732

> <Gold.PLP.Chemscore.CHOScore>
1.0731

> <Gold.PLP.Chemscore.Metal>
0.0000

> <Gold.Chemscore.Hbonds>
donor molecule, donor type, donor heavy atom, donor atom, acceptor molecule, acceptor atom, score
      L1  H    12    27       P1  7957  1.00
      P1  H  7997  8008       L1     9  1.50
      P1  H 10752 10765       L1     8  0.05
      L1  C     5    25       P1  7948  0.72
      L1  C     5    25       P1  7949  0.08

> <Gold.PLP.Chemscore.Internal.Correction>
0.2084

> <Gold.Rescore>
     Score         DG    S(hbond)    S(metal)    S(lipo)     H(rot)  DE(clash)    DE(int)     intcor
     11.21     -13.44       1.53        0.00      82.46       2.66       1.74       0.49       ----

> <Gold.Chemscore.Fitness>
11.2064

> <Gold.Chemscore.DG>
-13.4411

> <Gold.Chemscore.ZeroCoef>
-5.4800

> <Gold.Chemscore.Hbond>
1.5317

> <Gold.Chemscore.Metal>
0.0000

> <Gold.Chemscore.Lipo>
82.4583

> <Gold.Chemscore.Internal_Hbond>
0.0000

> <Gold.Chemscore.DEClash>
1.7418

> <Gold.Chemscore.DEInternal>
0.4930

> <Gold.Chemscore.Rot>
2.6572

> <Gold.Chemscore.Internal.Correction>
   9.000000E+99

> <Gold.Chemscore.Hbonds>
donor molecule, donor type, donor heavy atom, donor atom, acceptor molecule, acceptor atom, score
      L1  H    12    27       P1  7957  0.93
      P1  H  7997  8008       L1     9  0.09
      P1  H 10752 10765       L1     8  0.05

> <Gold.Chemscore.Hbond.Weighted>
-5.1159

> <Gold.Chemscore.Metal.Weighted>
-0.0000

> <Gold.Chemscore.Lipo.Weighted>
-9.6476

> <Gold.Chemscore.Internal_Hbond.Weighted>
0.0000

> <Gold.Chemscore.DEClash.Weighted>
1.7418

> <Gold.Chemscore.DEInternal.Weighted>
0.4930

> <Gold.Chemscore.Rot.Weighted>
6.8024

> <Gold.Chemscore.Internal.Correction.Weighted>
   9.000000E+99

> <Gold.Protein.RotatedTorsions>
[ 6907 6896 6895 6894 ] final  -29.95 input  -60.11 | X-H torsion
[ 7974 7965 7964 7962 ] final -129.61 input  175.53 | X-H torsion
[ 8008 7997 7996 7995 ] final  -32.62 input   59.86 | X-H torsion
[ 10167 10162 10161 10158 ] final   87.54 input  -65.29 | X-H torsion
[ 10718 10713 10712 10709 ] final  114.76 input   66.30 | X-H torsion
[ 10763 10752 10751 10750 ] final  -95.91 input  -60.55 | X-H torsion
[ 11005 11000 10999 10996 ] final    4.26 input  -57.11 | X-H torsion

> <Gold.Protein.ActiveResidues>
 VAL166  LYS551  ARG553  GLY616  TRP617  ASP618  TYR619  PRO620  LYS621  CYS622 
 ASP623  PHE694  ASN695  SER759  ASP760  ASP761  ALA762  ILE779  LEU786  VAL792 
 PHE793  MET794  SER795  GLU796  ALA797  LYS798  CYS799  TRP800  GLU811  SER814 

> <Gold.Protein.RotatedAtoms>
  151.1122  135.0033  159.8499 H   0  0  0  0  0  0  0  0  0  0  0  0  # atno 6907 bound_to 6896
  152.5444  134.1822  159.8650 H   0  0  0  0  0  0  0  0  0  0  0  0  # atno 6908 bound_to 6896
  151.1873  133.4644  159.2627 H   0  0  0  0  0  0  0  0  0  0  0  0  # atno 6909 bound_to 6896
  144.9555  140.7391  143.4761 H   0  0  0  0  0  0  0  0  0  0  0  0  # atno 7974 bound_to 7965
  154.4174  140.1732  156.1756 H   0  0  0  0  0  0  0  0  0  0  0  0  # atno 8008 bound_to 7997
  155.9724  140.3384  155.6564 H   0  0  0  0  0  0  0  0  0  0  0  0  # atno 8009 bound_to 7997
  155.6608  140.0700  157.2545 H   0  0  0  0  0  0  0  0  0  0  0  0  # atno 8010 bound_to 7997
  139.8763  144.6465  150.8892 H   0  0  0  0  0  0  0  0  0  0  0  0  # atno 10167 bound_to 10162
  157.6262  131.1003  150.7232 H   0  0  0  0  0  0  0  0  0  0  0  0  # atno 10718 bound_to 10713
  154.7191  135.5103  153.8784 H   0  0  0  0  0  0  0  0  0  0  0  0  # atno 10763 bound_to 10752
  153.0847  135.6641  153.9983 H   0  0  0  0  0  0  0  0  0  0  0  0  # atno 10764 bound_to 10752
  153.9809  135.3029  155.3399 H   0  0  0  0  0  0  0  0  0  0  0  0  # atno 10765 bound_to 10752
  140.5839  133.9987  155.8059 H   0  0  0  0  0  0  0  0  0  0  0  0  # atno 11005 bound_to 11000
  145.2779  139.1929  143.4807 LP  0  0  0  0  0  0  0  0  0  0  0  0  # atno 17320 bound_to 7965
  146.3336  140.2736  142.8607 LP  0  0  0  0  0  0  0  0  0  0  0  0  # atno 17321 bound_to 7965
  140.7752  143.3622  151.1807 LP  0  0  0  0  0  0  0  0  0  0  0  0  # atno 17342 bound_to 10162
  139.7237  143.9183  152.2995 LP  0  0  0  0  0  0  0  0  0  0  0  0  # atno 17343 bound_to 10162
  156.7580  130.4789  149.5443 LP  0  0  0  0  0  0  0  0  0  0  0  0  # atno 17370 bound_to 10713
  156.1436  130.6261  151.0500 LP  0  0  0  0  0  0  0  0  0  0  0  0  # atno 17371 bound_to 10713
  141.0978  133.9815  157.3130 LP  0  0  0  0  0  0  0  0  0  0  0  0  # atno 17394 bound_to 11000
  139.9305  135.0200  156.8382 LP  0  0  0  0  0  0  0  0  0  0  0  0  # atno 17395 bound_to 11000

$$$$
