AV-unprocessed.smi:2408|AV-procd|sdf|9520|dock1
  -GOLD-   2272013153D 1   1.00000     0.00000
 Structure written by MMmdl.
 47 49  0  0  0  0  0  0  0  0  1 V2000
  145.2790  135.4580  150.9518 C   0  0  0  0  0  0  0  0  0  0  0  0
  145.2231  133.9406  150.9895 C   0  0  0  0  0  0  0  0  0  0  0  0
  144.1741  133.3825  150.3448 N   0  0  0  0  0  0  0  0  0  0  0  0
  144.0687  132.0372  150.3410 C   0  0  0  0  0  0  0  0  0  0  0  0
  144.9929  131.1898  150.9801 C   0  0  0  0  0  0  0  0  0  0  0  0
  146.0850  131.7722  151.6504 C   0  0  0  0  0  0  0  0  0  0  0  0
  146.2194  133.1817  151.6511 C   0  0  0  0  0  0  0  0  0  0  0  0
  147.2777  133.8545  152.3213 N   0  0  0  0  0  0  0  0  0  0  0  0
  147.8896  133.4933  153.4612 C   0  0  0  0  0  0  0  0  0  0  0  0
  147.6106  132.4976  154.1290 O   0  0  0  0  0  0  0  0  0  0  0  0
  148.8860  134.3437  153.7658 N   0  0  0  0  0  0  0  0  0  0  0  0
  149.8272  134.2704  154.8992 C   0  0  0  0  0  0  0  0  0  0  0  0
  150.7697  135.5057  154.9880 C   0  0  0  0  0  0  0  0  0  0  0  0
  151.7183  135.5000  155.7741 O   0  0  0  0  0  0  0  0  0  0  0  0
  150.5031  136.5645  154.2058 N   0  0  0  0  0  0  0  0  0  0  0  0
  151.2839  137.7902  154.1583 C   0  0  0  0  0  0  0  0  0  0  0  0
  151.5703  138.3800  155.5233 C   0  0  0  0  0  0  0  0  0  0  0  0
  150.5414  139.2363  156.2234 C   0  0  0  0  0  0  0  0  0  0  0  0
  151.8107  139.8615  155.6959 C   0  0  0  0  0  0  0  0  0  0  0  0
  149.0019  134.1858  156.2066 C   0  0  0  0  0  0  0  0  0  0  0  0
  149.7562  133.2349  157.1335 C   0  0  0  0  0  0  0  0  0  0  0  0
  150.3256  132.1853  156.1895 C   0  0  0  0  0  0  0  0  0  0  0  0
  150.6297  132.9307  154.8841 C   0  0  0  0  0  0  0  0  0  0  0  0
  146.2153  135.7923  150.5042 H   0  0  0  0  0  0  0  0  0  0  0  0
  145.2139  135.8650  151.9611 H   0  0  0  0  0  0  0  0  0  0  0  0
  144.4595  135.8758  150.3655 H   0  0  0  0  0  0  0  0  0  0  0  0
  143.2190  131.6241  149.8180 H   0  0  0  0  0  0  0  0  0  0  0  0
  144.8645  130.1177  150.9609 H   0  0  0  0  0  0  0  0  0  0  0  0
  146.7894  131.1339  152.1619 H   0  0  0  0  0  0  0  0  0  0  0  0
  147.6788  134.6380  151.8270 H   0  0  0  0  0  0  0  0  0  0  0  0
  149.0241  135.1236  153.1402 H   0  0  0  0  0  0  0  0  0  0  0  0
  149.7095  136.5045  153.5844 H   0  0  0  0  0  0  0  0  0  0  0  0
  152.2246  137.5980  153.6398 H   0  0  0  0  0  0  0  0  0  0  0  0
  150.7440  138.5356  153.5724 H   0  0  0  0  0  0  0  0  0  0  0  0
  152.1462  137.7209  156.1708 H   0  0  0  0  0  0  0  0  0  0  0  0
  149.6166  139.4547  155.6929 H   0  0  0  0  0  0  0  0  0  0  0  0
  150.4461  139.1262  157.3018 H   0  0  0  0  0  0  0  0  0  0  0  0
  152.5625  140.1654  156.4212 H   0  0  0  0  0  0  0  0  0  0  0  0
  151.7287  140.4961  154.8155 H   0  0  0  0  0  0  0  0  0  0  0  0
  148.8344  135.1557  156.6784 H   0  0  0  0  0  0  0  0  0  0  0  0
  148.0145  133.7649  156.0079 H   0  0  0  0  0  0  0  0  0  0  0  0
  150.5678  133.7654  157.6332 H   0  0  0  0  0  0  0  0  0  0  0  0
  149.1166  132.8031  157.9039 H   0  0  0  0  0  0  0  0  0  0  0  0
  151.2038  131.6866  156.6012 H   0  0  0  0  0  0  0  0  0  0  0  0
  149.5708  131.4203  156.0028 H   0  0  0  0  0  0  0  0  0  0  0  0
  150.3718  132.2894  154.0408 H   0  0  0  0  0  0  0  0  0  0  0  0
  151.7041  133.1027  154.8032 H   0  0  0  0  0  0  0  0  0  0  0  0
  1  2  1  0  0  0  0
  1 24  1  0  0  0  0
  1 25  1  0  0  0  0
  1 26  1  0  0  0  0
  2  7  1  0  0  0  0
  2  3  2  0  0  0  0
  3  4  1  0  0  0  0
  4  5  2  0  0  0  0
  4 27  1  0  0  0  0
  5  6  1  0  0  0  0
  5 28  1  0  0  0  0
  6  7  2  0  0  0  0
  6 29  1  0  0  0  0
  7  8  1  0  0  0  0
  8  9  1  0  0  0  0
  8 30  1  0  0  0  0
  9 10  2  0  0  0  0
  9 11  1  0  0  0  0
 11 12  1  0  0  0  0
 11 31  1  0  0  0  0
 12 23  1  0  0  0  0
 12 13  1  0  0  0  0
 12 20  1  0  0  0  0
 13 14  2  0  0  0  0
 13 15  1  0  0  0  0
 15 16  1  0  0  0  0
 15 32  1  0  0  0  0
 16 17  1  0  0  0  0
 16 33  1  0  0  0  0
 16 34  1  0  0  0  0
 17 19  1  0  0  0  0
 17 18  1  0  0  0  0
 17 35  1  0  0  0  0
 18 19  1  0  0  0  0
 18 36  1  0  0  0  0
 18 37  1  0  0  0  0
 19 38  1  0  0  0  0
 19 39  1  0  0  0  0
 20 21  1  0  0  0  0
 20 40  1  0  0  0  0
 20 41  1  0  0  0  0
 21 22  1  0  0  0  0
 21 42  1  0  0  0  0
 21 43  1  0  0  0  0
 22 23  1  0  0  0  0
 22 44  1  0  0  0  0
 22 45  1  0  0  0  0
 23 46  1  0  0  0  0
 23 47  1  0  0  0  0
M  END
> <s_m_source_file>
AV-unprocessed.smi

> <i_m_source_file_index>
2408

> <i_lp_mmshare_version>
43012

> <i_f3d_flags>
0

> <s_epik_input>
W0NIM11jMW5bY0hdW2NIXVtjSF1jMVtOSF1DKD1PKVtOSF1DMihbQ0gyXVtDSDJdW0NIMl1bQ0gyXTIpQyg9TylbTkhdW0NIMl1bQ0hdM1tDSDJdW0NIMl0z

> <s_epik_cmdline>
J2VwaWtfcHl0aG9uJywgJy1waCcsICc3LjAnLCAnLXRuJywgJzgnLCAnLW1hJywgJzIwMCcsICctbWV0YWxfYmluZGluZycsICctaW1hZScsICc8aW5maWxlLm1hZT4nLCAnLW9tYWUnLCAnPG91dGZpbGUubWFlPic=

> <r_epik_Ionization_Penalty>
0.0173464

> <r_epik_Ionization_Penalty_Charging>
0

> <r_epik_Ionization_Penalty_Neutral>
0.0173464

> <r_epik_State_Penalty>
0.0137159

> <r_epik_Charging_Adjusted_Penalty>
0.0137159

> <i_epik_Tot_Q>
0

> <i_epik_Tot_abs_Q>
0

> <r_epik_Metal_State_Penalty>
0.0133255

> <b_epik_Metal_Only>
0

> <s_lp_Force_Field>
OPLS_2005

> <r_lp_Energy>
32.4155

> <b_lp_Chiralities_Consistent>
1

> <s_lp_Variant>
AV-unprocessed.smi:2408-1

> <Gold.Version>
5.8.1

> <Gold.Id.Protein>
6NUR|6NUR_protein|mol2

> <Gold.PLP.Fitness>
51.7298

> <Gold.PLP.PLP>
-39.3208

> <Gold.PLP.part.hbond>
-5.0000

> <Gold.PLP.part.metal>
0.0000

> <Gold.PLP.part.buried>
-4.2670

> <Gold.PLP.part.nonpolar>
-30.7135

> <Gold.PLP.part.repulsive>
0.3423

> <Gold.PLP.ligand.clash>
0.0000

> <Gold.PLP.ligand.torsion>
0.9813

> <Gold.PLP.Chemscore.Hbond>
3.9920

> <Gold.PLP.Chemscore.CHOScore>
0.5842

> <Gold.PLP.Chemscore.Metal>
0.0000

> <Gold.Chemscore.Hbonds>
donor molecule, donor type, donor heavy atom, donor atom, acceptor molecule, acceptor atom, score
      L1  H     8    30       P1  7948  0.98
      L1  H    11    31       P1  7948  0.95
      L1  H    15    32       P1  7948  0.99
      P1  H 10752 10763       L1    14  1.00
      L1  C     4    27       P1 10952  0.50

> <Gold.PLP.Chemscore.Internal.Correction>
0.6429

> <Gold.Rescore>
     Score         DG    S(hbond)    S(metal)    S(lipo)     H(rot)  DE(clash)    DE(int)     intcor
     18.02     -22.30       3.04        0.00      91.83       1.59       0.10       4.18       ----

> <Gold.Chemscore.Fitness>
18.0169

> <Gold.Chemscore.DG>
-22.2980

> <Gold.Chemscore.ZeroCoef>
-5.4800

> <Gold.Chemscore.Hbond>
3.0402

> <Gold.Chemscore.Metal>
0.0000

> <Gold.Chemscore.Lipo>
91.8344

> <Gold.Chemscore.Internal_Hbond>
0.0000

> <Gold.Chemscore.DEClash>
0.0977

> <Gold.Chemscore.DEInternal>
4.1834

> <Gold.Chemscore.Rot>
1.5941

> <Gold.Chemscore.Internal.Correction>
   9.000000E+99

> <Gold.Chemscore.Hbonds>
donor molecule, donor type, donor heavy atom, donor atom, acceptor molecule, acceptor atom, score
      L1  H     8    30       P1  7948  0.36
      L1  H    11    31       P1  7948  0.21
      L1  H    15    32       P1  7948  0.42
      P1  H 10752 10763       L1    14  0.72

> <Gold.Chemscore.Hbond.Weighted>
-10.1543

> <Gold.Chemscore.Metal.Weighted>
-0.0000

> <Gold.Chemscore.Lipo.Weighted>
-10.7446

> <Gold.Chemscore.Internal_Hbond.Weighted>
0.0000

> <Gold.Chemscore.DEClash.Weighted>
0.0977

> <Gold.Chemscore.DEInternal.Weighted>
4.1834

> <Gold.Chemscore.Rot.Weighted>
4.0809

> <Gold.Chemscore.Internal.Correction.Weighted>
   9.000000E+99

> <Gold.Protein.RotatedTorsions>
[ 6907 6896 6895 6894 ] final    3.29 input  -60.11 | X-H torsion
[ 7974 7965 7964 7962 ] final -139.97 input  175.53 | X-H torsion
[ 8008 7997 7996 7995 ] final   54.19 input   59.86 | X-H torsion
[ 10167 10162 10161 10158 ] final  105.15 input  -65.29 | X-H torsion
[ 10718 10713 10712 10709 ] final  -57.40 input   66.30 | X-H torsion
[ 10763 10752 10751 10750 ] final   84.67 input  -60.55 | X-H torsion
[ 11005 11000 10999 10996 ] final  -75.96 input  -57.11 | X-H torsion

> <Gold.Protein.ActiveResidues>
 VAL166  LYS551  ARG553  GLY616  TRP617  ASP618  TYR619  PRO620  LYS621  CYS622 
 ASP623  PHE694  ASN695  SER759  ASP760  ASP761  ALA762  ILE779  LEU786  VAL792 
 PHE793  MET794  SER795  GLU796  ALA797  LYS798  CYS799  TRP800  GLU811  SER814 

> <Gold.Protein.RotatedAtoms>
  151.6227  135.1030  160.0104 H   0  0  0  0  0  0  0  0  0  0  0  0  # atno 6907 bound_to 6896
  152.4149  133.7018  159.6439 H   0  0  0  0  0  0  0  0  0  0  0  0  # atno 6908 bound_to 6896
  150.8037  133.8475  159.3237 H   0  0  0  0  0  0  0  0  0  0  0  0  # atno 6909 bound_to 6896
  144.8634  140.6255  143.5313 H   0  0  0  0  0  0  0  0  0  0  0  0  # atno 7974 bound_to 7965
  155.4806  140.3468  155.4339 H   0  0  0  0  0  0  0  0  0  0  0  0  # atno 8008 bound_to 7997
  156.1041  140.1443  156.9456 H   0  0  0  0  0  0  0  0  0  0  0  0  # atno 8009 bound_to 7997
  154.4713  140.0900  156.7129 H   0  0  0  0  0  0  0  0  0  0  0  0  # atno 8010 bound_to 7997
  139.7117  144.7076  151.1016 H   0  0  0  0  0  0  0  0  0  0  0  0  # atno 10167 bound_to 10162
  156.1214  130.4166  150.0435 H   0  0  0  0  0  0  0  0  0  0  0  0  # atno 10718 bound_to 10713
  153.1403  135.4645  154.9486 H   0  0  0  0  0  0  0  0  0  0  0  0  # atno 10763 bound_to 10752
  154.7741  135.3168  154.8130 H   0  0  0  0  0  0  0  0  0  0  0  0  # atno 10764 bound_to 10752
  153.8654  135.6908  153.4833 H   0  0  0  0  0  0  0  0  0  0  0  0  # atno 10765 bound_to 10752
  141.1650  133.6966  156.7596 H   0  0  0  0  0  0  0  0  0  0  0  0  # atno 11005 bound_to 11000
  145.4268  139.1555  143.4044 LP  0  0  0  0  0  0  0  0  0  0  0  0  # atno 17320 bound_to 7965
  146.2877  140.4382  142.8751 LP  0  0  0  0  0  0  0  0  0  0  0  0  # atno 17321 bound_to 7965
  140.7735  143.5284  150.9453 LP  0  0  0  0  0  0  0  0  0  0  0  0  # atno 17342 bound_to 10162
  139.8969  143.6884  152.3137 LP  0  0  0  0  0  0  0  0  0  0  0  0  # atno 17343 bound_to 10162
  156.8372  130.9413  151.3634 LP  0  0  0  0  0  0  0  0  0  0  0  0  # atno 17370 bound_to 10713
  157.6397  130.8795  149.9425 LP  0  0  0  0  0  0  0  0  0  0  0  0  # atno 17371 bound_to 10713
  140.2544  134.8516  157.3698 LP  0  0  0  0  0  0  0  0  0  0  0  0  # atno 17394 bound_to 11000
  140.1672  134.4654  155.7855 LP  0  0  0  0  0  0  0  0  0  0  0  0  # atno 17395 bound_to 11000

$$$$
