AV-unprocessed.smi:3250|AV-procd|sdf|12433|dock5
  -GOLD-   2272018323D 1   1.00000     0.00000
 Structure written by MMmdl.
 40 41  0  0  0  0  0  0  0  0  3 V2000
  148.2712  136.7710  155.1271 C   0  0  0  0  0  0  0  0  0  0  0  0
  147.5910  137.9650  154.4429 C   0  0  0  0  0  0  0  0  0  0  0  0
  148.5113  138.7080  153.5409 N   0  3  1  0  0  0  0  0  0  0  0  0
  147.8450  139.7974  152.7863 C   0  0  0  0  0  0  0  0  0  0  0  0
  147.6282  141.0361  153.6738 C   0  0  0  0  0  0  0  0  0  0  0  0
  148.8765  141.4602  154.2082 O   0  0  0  0  0  0  0  0  0  0  0  0
  149.4839  140.4732  155.0368 C   0  0  2  0  0  0  0  0  0  0  0  0
  150.7850  141.0624  155.6004 C   0  0  0  0  0  0  0  0  0  0  0  0
  150.5726  142.3823  156.1755 N   0  0  0  0  0  0  0  0  0  0  0  0
  151.0968  142.7881  157.3886 C   0  0  0  0  0  0  0  0  0  0  0  0
  150.8196  144.0348  157.7981 N   0  3  0  0  0  0  0  0  0  0  0  0
  151.3089  144.4796  158.9817 C   0  0  0  0  0  0  0  0  0  0  0  0
  152.1060  143.6408  159.7811 C   0  0  0  0  0  0  0  0  0  0  0  0
  152.3603  142.3488  159.2921 C   0  0  0  0  0  0  0  0  0  0  0  0
  153.1418  141.4844  160.0306 O   0  0  0  0  0  0  0  0  0  0  0  0
  153.6637  141.9403  161.2740 C   0  0  0  0  0  0  0  0  0  0  0  0
  151.8504  141.9415  158.1051 N   0  0  0  0  0  0  0  0  0  0  0  0
  149.7518  139.2115  154.1861 C   0  0  0  0  0  0  0  0  0  0  0  0
  147.5421  136.1890  155.6913 H   0  0  0  0  0  0  0  0  0  0  0  0
  149.0435  137.0842  155.8292 H   0  0  0  0  0  0  0  0  0  0  0  0
  148.7289  136.1045  154.3952 H   0  0  0  0  0  0  0  0  0  0  0  0
  146.7604  137.5751  153.8533 H   0  0  0  0  0  0  0  0  0  0  0  0
  147.1499  138.6281  155.1871 H   0  0  0  0  0  0  0  0  0  0  0  0
  148.4795  140.0675  151.9412 H   0  0  0  0  0  0  0  0  0  0  0  0
  146.9012  139.4533  152.3616 H   0  0  0  0  0  0  0  0  0  0  0  0
  147.2058  141.8490  153.0831 H   0  0  0  0  0  0  0  0  0  0  0  0
  146.9216  140.8303  154.4789 H   0  0  0  0  0  0  0  0  0  0  0  0
  148.8196  140.2283  155.8670 H   0  0  0  0  0  0  0  0  0  0  0  0
  151.1754  140.4104  156.3827 H   0  0  0  0  0  0  0  0  0  0  0  0
  151.5451  141.1178  154.8200 H   0  0  0  0  0  0  0  0  0  0  0  0
  149.9978  143.0404  155.6695 H   0  0  0  0  0  0  0  0  0  0  0  0
  151.0466  145.4926  159.2498 H   0  0  0  0  0  0  0  0  0  0  0  0
  152.5064  143.9757  160.7270 H   0  0  0  0  0  0  0  0  0  0  0  0
  154.2431  141.1414  161.7369 H   0  0  0  0  0  0  0  0  0  0  0  0
  152.8649  142.2118  161.9658 H   0  0  0  0  0  0  0  0  0  0  0  0
  154.3275  142.7955  161.1396 H   0  0  0  0  0  0  0  0  0  0  0  0
  150.2241  138.4340  154.7850 H   0  0  0  0  0  0  0  0  0  0  0  0
  150.4642  139.4546  153.3964 H   0  0  0  0  0  0  0  0  0  0  0  0
  148.8001  138.0315  152.8481 H   0  0  0  0  0  0  0  0  0  0  0  0
  150.2436  144.6574  157.2310 H   0  0  0  0  0  0  0  0  0  0  0  0
  1  2  1  0  0  0  0
  1 19  1  0  0  0  0
  1 20  1  0  0  0  0
  1 21  1  0  0  0  0
  2  3  1  0  0  0  0
  2 22  1  0  0  0  0
  2 23  1  0  0  0  0
  3 18  1  0  0  0  0
  3  4  1  0  0  0  0
  3 39  1  0  0  0  0
  4  5  1  0  0  0  0
  4 24  1  0  0  0  0
  4 25  1  0  0  0  0
  5  6  1  0  0  0  0
  5 26  1  0  0  0  0
  5 27  1  0  0  0  0
  6  7  1  0  0  0  0
  7  8  1  0  0  0  0
  7 18  1  0  0  0  0
  7 28  1  0  0  0  0
  8  9  1  0  0  0  0
  8 29  1  0  0  0  0
  8 30  1  0  0  0  0
  9 10  1  0  0  0  0
  9 31  1  0  0  0  0
 10 17  1  0  0  0  0
 10 11  2  0  0  0  0
 11 12  1  0  0  0  0
 11 40  1  0  0  0  0
 12 13  2  0  0  0  0
 12 32  1  0  0  0  0
 13 14  1  0  0  0  0
 13 33  1  0  0  0  0
 14 15  1  0  0  0  0
 14 17  2  0  0  0  0
 15 16  1  0  0  0  0
 16 34  1  0  0  0  0
 16 35  1  0  0  0  0
 16 36  1  0  0  0  0
 18 37  1  0  0  0  0
 18 38  1  0  0  0  0
M  CHG  1   3   1
M  CHG  1  11   1
M  END
> <s_m_source_file>
AV-unprocessed.smi

> <i_m_source_file_index>
3250

> <i_lp_mmshare_version>
43012

> <i_f3d_flags>
0

> <s_epik_input>
W0NIM11bQ0gyXU4xW0NIMl1bQ0gyXU9bQ0BIXShbQ0gyXTEpW0NIMl1bTkhdYzJuW2NIXVtjSF1jKG4yKU9bQ0gzXQ==

> <s_epik_cmdline>
J2VwaWtfcHl0aG9uJywgJy1waCcsICc3LjAnLCAnLXRuJywgJzgnLCAnLW1hJywgJzIwMCcsICctbWV0YWxfYmluZGluZycsICctaW1hZScsICc8aW5maWxlLm1hZT4nLCAnLW9tYWUnLCAnPG91dGZpbGUubWFlPic=

> <r_lp_tautomer_probability>
0.999985

> <r_epik_Ionization_Penalty>
2.24691

> <r_epik_Ionization_Penalty_Charging>
2.24686

> <r_epik_Ionization_Penalty_Neutral>
4.52111e-05

> <r_epik_State_Penalty>
2.24709

> <r_epik_Charging_Adjusted_Penalty>
4.49395

> <i_epik_Tot_Q>
2

> <i_epik_Tot_abs_Q>
2

> <r_epik_Metal_State_Penalty>
2.26327

> <b_epik_Metal_Only>
0

> <s_lp_Force_Field>
OPLS_2005

> <r_lp_Energy>
20.5595

> <b_lp_Chiralities_Consistent>
1

> <s_lp_Variant>
AV-unprocessed.smi:3250-9

> <Gold.Version>
5.8.1

> <Gold.Id.Protein>
6NUR|6NUR_protein|mol2

> <Gold.PLP.Fitness>
51.3754

> <Gold.PLP.PLP>
-33.6648

> <Gold.PLP.part.hbond>
-4.8894

> <Gold.PLP.part.metal>
0.0000

> <Gold.PLP.part.buried>
0.7449

> <Gold.PLP.part.nonpolar>
-29.7607

> <Gold.PLP.part.repulsive>
0.3539

> <Gold.PLP.ligand.clash>
0.1022

> <Gold.PLP.ligand.torsion>
0.1670

> <Gold.PLP.Chemscore.Hbond>
6.0425

> <Gold.PLP.Chemscore.CHOScore>
0.0000

> <Gold.PLP.Chemscore.Metal>
0.0000

> <Gold.Chemscore.Hbonds>
donor molecule, donor type, donor heavy atom, donor atom, acceptor molecule, acceptor atom, score
      L1  H     3    39       P1  7948  1.98
      L1  H     9    31       P1  8028  1.98
      L1  H    11    40       P1  8028  1.78
      P1  H  8011  8017       L1     6  0.22

> <Gold.PLP.Chemscore.Internal.Correction>
0.0192

> <Gold.Rescore>
     Score         DG    S(hbond)    S(metal)    S(lipo)     H(rot)  DE(clash)    DE(int)     intcor
     16.08     -17.31       2.37        0.00      71.69       1.75       1.07       0.16       ----

> <Gold.Chemscore.Fitness>
16.0789

> <Gold.Chemscore.DG>
-17.3109

> <Gold.Chemscore.ZeroCoef>
-5.4800

> <Gold.Chemscore.Hbond>
2.3746

> <Gold.Chemscore.Metal>
0.0000

> <Gold.Chemscore.Lipo>
71.6876

> <Gold.Chemscore.Internal_Hbond>
0.0000

> <Gold.Chemscore.DEClash>
1.0715

> <Gold.Chemscore.DEInternal>
0.1605

> <Gold.Chemscore.Rot>
1.7530

> <Gold.Chemscore.Internal.Correction>
   9.000000E+99

> <Gold.Chemscore.Hbonds>
donor molecule, donor type, donor heavy atom, donor atom, acceptor molecule, acceptor atom, score
      L1  H     3    39       P1  7948  0.92
      L1  H     9    31       P1  8028  0.90
      L1  H    11    40       P1  8028  0.33
      P1  H  8011  8017       L1     6  0.06

> <Gold.Chemscore.Hbond.Weighted>
-7.9311

> <Gold.Chemscore.Metal.Weighted>
-0.0000

> <Gold.Chemscore.Lipo.Weighted>
-8.3875

> <Gold.Chemscore.Internal_Hbond.Weighted>
0.0000

> <Gold.Chemscore.DEClash.Weighted>
1.0715

> <Gold.Chemscore.DEInternal.Weighted>
0.1605

> <Gold.Chemscore.Rot.Weighted>
4.4876

> <Gold.Chemscore.Internal.Correction.Weighted>
   9.000000E+99

> <Gold.Protein.RotatedTorsions>
[ 6907 6896 6895 6894 ] final  108.67 input  -60.11 | X-H torsion
[ 7974 7965 7964 7962 ] final -107.58 input  175.53 | X-H torsion
[ 8008 7997 7996 7995 ] final  -45.44 input   59.86 | X-H torsion
[ 10167 10162 10161 10158 ] final   79.34 input  -65.29 | X-H torsion
[ 10718 10713 10712 10709 ] final  130.37 input   66.30 | X-H torsion
[ 10763 10752 10751 10750 ] final  -16.41 input  -60.55 | X-H torsion
[ 11005 11000 10999 10996 ] final  160.96 input  -57.11 | X-H torsion

> <Gold.Protein.ActiveResidues>
 VAL166  LYS551  ARG553  GLY616  TRP617  ASP618  TYR619  PRO620  LYS621  CYS622 
 ASP623  PHE694  ASN695  SER759  ASP760  ASP761  ALA762  ILE779  LEU786  VAL792 
 PHE793  MET794  SER795  GLU796  ALA797  LYS798  CYS799  TRP800  GLU811  SER814 

> <Gold.Protein.RotatedAtoms>
  152.5102  133.9055  159.7461 H   0  0  0  0  0  0  0  0  0  0  0  0  # atno 6907 bound_to 6896
  150.9460  133.6593  159.2788 H   0  0  0  0  0  0  0  0  0  0  0  0  # atno 6908 bound_to 6896
  151.3888  135.0957  159.9572 H   0  0  0  0  0  0  0  0  0  0  0  0  # atno 6909 bound_to 6896
  145.2035  140.9066  143.3355 H   0  0  0  0  0  0  0  0  0  0  0  0  # atno 7974 bound_to 7965
  154.4001  140.1396  156.3848 H   0  0  0  0  0  0  0  0  0  0  0  0  # atno 8008 bound_to 7997
  155.7969  140.3477  155.5360 H   0  0  0  0  0  0  0  0  0  0  0  0  # atno 8009 bound_to 7997
  155.8522  140.0943  157.1657 H   0  0  0  0  0  0  0  0  0  0  0  0  # atno 8010 bound_to 7997
  139.9614  144.5958  150.8069 H   0  0  0  0  0  0  0  0  0  0  0  0  # atno 10167 bound_to 10162
  157.5068  131.1096  150.9350 H   0  0  0  0  0  0  0  0  0  0  0  0  # atno 10718 bound_to 10713
  153.5581  135.7010  153.5560 H   0  0  0  0  0  0  0  0  0  0  0  0  # atno 10763 bound_to 10752
  153.3454  135.4009  155.1604 H   0  0  0  0  0  0  0  0  0  0  0  0  # atno 10764 bound_to 10752
  154.8652  135.3752  154.5096 H   0  0  0  0  0  0  0  0  0  0  0  0  # atno 10765 bound_to 10752
  140.2111  134.8267  157.3121 H   0  0  0  0  0  0  0  0  0  0  0  0  # atno 11005 bound_to 11000
  144.9924  139.3676  143.6208 LP  0  0  0  0  0  0  0  0  0  0  0  0  # atno 17320 bound_to 7965
  146.3412  139.9113  142.8780 LP  0  0  0  0  0  0  0  0  0  0  0  0  # atno 17321 bound_to 7965
  140.7552  143.3041  151.3006 LP  0  0  0  0  0  0  0  0  0  0  0  0  # atno 17342 bound_to 10162
  139.6551  144.0291  152.2654 LP  0  0  0  0  0  0  0  0  0  0  0  0  # atno 17343 bound_to 10162
  157.0003  130.5597  149.5311 LP  0  0  0  0  0  0  0  0  0  0  0  0  # atno 17370 bound_to 10713
  156.0263  130.5357  150.8416 LP  0  0  0  0  0  0  0  0  0  0  0  0  # atno 17371 bound_to 10713
  140.1950  134.4324  155.7694 LP  0  0  0  0  0  0  0  0  0  0  0  0  # atno 17394 bound_to 11000
  141.2226  133.7045  156.8090 LP  0  0  0  0  0  0  0  0  0  0  0  0  # atno 17395 bound_to 11000

$$$$
