AV-unprocessed.smi:2775|AV-procd|sdf|10700|dock4
  -GOLD-   2272015133D 1   1.00000     0.00000
 Structure written by MMmdl.
 43 46  0  0  0  0  0  0  0  0  2 V2000
  150.7210  142.7615  152.4411 C   0  0  0  0  0  0  0  0  0  0  0  0
  150.3363  141.6905  153.4438 C   0  0  0  0  0  0  0  0  0  0  0  0
  149.9126  142.0930  154.6626 N   0  3  0  0  0  0  0  0  0  0  0  0
  149.5499  141.2327  155.6370 C   0  0  0  0  0  0  0  0  0  0  0  0
  149.5995  139.8446  155.4029 C   0  0  0  0  0  0  0  0  0  0  0  0
  150.0213  139.3686  154.1362 C   0  0  0  0  0  0  0  0  0  0  0  0
  150.1173  137.9864  153.8223 N   0  0  0  0  0  0  0  0  0  0  0  0
  150.3035  136.9473  154.6586 C   0  0  0  0  0  0  0  0  0  0  0  0
  150.4951  137.0480  155.8685 O   0  0  0  0  0  0  0  0  0  0  0  0
  150.2105  135.7476  154.0594 N   0  0  0  0  0  0  0  0  0  0  0  0
  150.3607  134.4284  154.6837 C   0  0  2  0  0  0  0  0  0  0  0  0
  151.7386  134.1973  155.3597 C   0  0  2  0  0  0  0  0  0  0  0  0
  152.7530  135.2929  155.5918 C   0  0  0  0  0  0  0  0  0  0  0  0
  153.7282  135.1086  154.4263 C   0  0  0  0  0  0  0  0  0  0  0  0
  152.9858  134.3944  153.4414 O   0  0  0  0  0  0  0  0  0  0  0  0
  152.1800  133.4340  154.1167 C   0  0  2  0  0  0  0  0  0  0  0  0
  150.7217  133.3513  153.6469 C   0  0  0  0  0  0  0  0  0  0  0  0
  150.3571  133.4468  152.1556 C   0  0  0  0  0  0  0  0  0  0  0  0
  150.2078  131.9231  152.1469 C   0  0  0  0  0  0  0  0  0  0  0  0
  150.0114  131.9891  153.6642 C   0  0  0  0  0  0  0  0  0  0  0  0
  150.4073  140.3085  153.1492 C   0  0  0  0  0  0  0  0  0  0  0  0
  150.9503  139.7756  151.5928 Cl  0  0  0  0  0  0  0  0  0  0  0  0
  150.1237  142.6650  151.5339 H   0  0  0  0  0  0  0  0  0  0  0  0
  151.7737  142.6684  152.1723 H   0  0  0  0  0  0  0  0  0  0  0  0
  150.5620  143.7620  152.8453 H   0  0  0  0  0  0  0  0  0  0  0  0
  149.2389  141.6775  156.5712 H   0  0  0  0  0  0  0  0  0  0  0  0
  149.3250  139.1703  156.1999 H   0  0  0  0  0  0  0  0  0  0  0  0
  149.8884  137.7430  152.8693 H   0  0  0  0  0  0  0  0  0  0  0  0
  149.9422  135.7440  153.0855 H   0  0  0  0  0  0  0  0  0  0  0  0
  149.5179  134.1303  155.3098 H   0  0  0  0  0  0  0  0  0  0  0  0
  151.6337  133.5194  156.2081 H   0  0  0  0  0  0  0  0  0  0  0  0
  152.3087  136.2862  155.5745 H   0  0  0  0  0  0  0  0  0  0  0  0
  153.2624  135.1858  156.5498 H   0  0  0  0  0  0  0  0  0  0  0  0
  154.1019  136.0557  154.0368 H   0  0  0  0  0  0  0  0  0  0  0  0
  154.5824  134.5036  154.7339 H   0  0  0  0  0  0  0  0  0  0  0  0
  152.6836  132.4887  154.3238 H   0  0  0  0  0  0  0  0  0  0  0  0
  149.4096  133.9588  151.9809 H   0  0  0  0  0  0  0  0  0  0  0  0
  151.1474  133.8306  151.5099 H   0  0  0  0  0  0  0  0  0  0  0  0
  149.3476  131.5515  151.5895 H   0  0  0  0  0  0  0  0  0  0  0  0
  151.1283  131.4107  151.8626 H   0  0  0  0  0  0  0  0  0  0  0  0
  150.5239  131.2070  154.2250 H   0  0  0  0  0  0  0  0  0  0  0  0
  148.9603  132.0640  153.9471 H   0  0  0  0  0  0  0  0  0  0  0  0
  149.8698  143.0939  154.8567 H   0  0  0  0  0  0  0  0  0  0  0  0
  1  2  1  0  0  0  0
  1 23  1  0  0  0  0
  1 24  1  0  0  0  0
  1 25  1  0  0  0  0
  2 21  1  0  0  0  0
  2  3  2  0  0  0  0
  3  4  1  0  0  0  0
  3 43  1  0  0  0  0
  4  5  2  0  0  0  0
  4 26  1  0  0  0  0
  5  6  1  0  0  0  0
  5 27  1  0  0  0  0
  6  7  1  0  0  0  0
  6 21  2  0  0  0  0
  7  8  1  0  0  0  0
  7 28  1  0  0  0  0
  8  9  2  0  0  0  0
  8 10  1  0  0  0  0
 10 11  1  0  0  0  0
 10 29  1  0  0  0  0
 11 17  1  0  0  0  0
 11 12  1  0  0  0  0
 11 30  1  0  0  0  0
 12 16  1  0  0  0  0
 12 13  1  0  0  0  0
 12 31  1  0  0  0  0
 13 14  1  0  0  0  0
 13 32  1  0  0  0  0
 13 33  1  0  0  0  0
 14 15  1  0  0  0  0
 14 34  1  0  0  0  0
 14 35  1  0  0  0  0
 15 16  1  0  0  0  0
 16 17  1  0  0  0  0
 16 36  1  0  0  0  0
 17 20  1  0  0  0  0
 17 18  1  0  0  0  0
 18 19  1  0  0  0  0
 18 37  1  0  0  0  0
 18 38  1  0  0  0  0
 19 20  1  0  0  0  0
 19 39  1  0  0  0  0
 19 40  1  0  0  0  0
 20 41  1  0  0  0  0
 20 42  1  0  0  0  0
 21 22  1  0  0  0  0
M  CHG  1   3   1
M  END
> <s_m_source_file>
AV-unprocessed.smi

> <i_m_source_file_index>
2775

> <i_lp_mmshare_version>
43012

> <i_f3d_flags>
0

> <s_epik_input>
W0NIM11jMW5bY0hdW2NIXWMoYzFDbClbTkhdQyg9TylbTkhdW0NAQEhdMltDQEhdKFtDSDJdW0NIMl1PMylbQ0BASF0zQzI0W0NIMl1bQ0gyXVtDSDJdNA==

> <s_epik_cmdline>
J2VwaWtfcHl0aG9uJywgJy1waCcsICc3LjAnLCAnLXRuJywgJzgnLCAnLW1hJywgJzIwMCcsICctbWV0YWxfYmluZGluZycsICctaW1hZScsICc8aW5maWxlLm1hZT4nLCAnLW9tYWUnLCAnPG91dGZpbGUubWFlPic=

> <r_epik_Ionization_Penalty>
2.4104

> <r_epik_Ionization_Penalty_Charging>
2.41038

> <r_epik_Ionization_Penalty_Neutral>
1.9872e-05

> <r_epik_State_Penalty>
2.56896

> <r_epik_Charging_Adjusted_Penalty>
4.97934

> <i_epik_Tot_Q>
1

> <i_epik_Tot_abs_Q>
1

> <r_epik_Metal_State_Penalty>
2.57906

> <b_epik_Metal_Only>
0

> <s_lp_Force_Field>
OPLS_2005

> <r_lp_Energy>
62.9708

> <b_lp_Chiralities_Consistent>
1

> <s_lp_Variant>
AV-unprocessed.smi:2775-13

> <Gold.Version>
5.8.1

> <Gold.Id.Protein>
6NUR|6NUR_protein|mol2

> <Gold.PLP.Fitness>
45.1979

> <Gold.PLP.PLP>
-33.5967

> <Gold.PLP.part.hbond>
-3.0349

> <Gold.PLP.part.metal>
0.0000

> <Gold.PLP.part.buried>
-3.6917

> <Gold.PLP.part.nonpolar>
-30.6063

> <Gold.PLP.part.repulsive>
4.4420

> <Gold.PLP.ligand.clash>
0.0000

> <Gold.PLP.ligand.torsion>
0.3029

> <Gold.PLP.Chemscore.Hbond>
4.0000

> <Gold.PLP.Chemscore.CHOScore>
0.0000

> <Gold.PLP.Chemscore.Metal>
0.0000

> <Gold.Chemscore.Hbonds>
donor molecule, donor type, donor heavy atom, donor atom, acceptor molecule, acceptor atom, score
      L1  H     3    43       P1  8028  1.92
      L1  H     7    28       P1  7948  0.80
      L1  H    10    29       P1  7948  0.10

> <Gold.PLP.Chemscore.Internal.Correction>
0.2069

> <Gold.Rescore>
     Score         DG    S(hbond)    S(metal)    S(lipo)     H(rot)  DE(clash)    DE(int)     intcor
     19.17     -23.16       2.96        0.00      88.40       1.00       1.54       2.46       ----

> <Gold.Chemscore.Fitness>
19.1691

> <Gold.Chemscore.DG>
-23.1642

> <Gold.Chemscore.ZeroCoef>
-5.4800

> <Gold.Chemscore.Hbond>
2.9646

> <Gold.Chemscore.Metal>
0.0000

> <Gold.Chemscore.Lipo>
88.3966

> <Gold.Chemscore.Internal_Hbond>
0.0000

> <Gold.Chemscore.DEClash>
1.5397

> <Gold.Chemscore.DEInternal>
2.4554

> <Gold.Chemscore.Rot>
1.0000

> <Gold.Chemscore.Internal.Correction>
   9.000000E+99

> <Gold.Chemscore.Hbonds>
donor molecule, donor type, donor heavy atom, donor atom, acceptor molecule, acceptor atom, score
      L1  H     3    43       P1  8028  0.86
      L1  H     7    28       P1  7948  0.27

> <Gold.Chemscore.Hbond.Weighted>
-9.9018

> <Gold.Chemscore.Metal.Weighted>
-0.0000

> <Gold.Chemscore.Lipo.Weighted>
-10.3424

> <Gold.Chemscore.Internal_Hbond.Weighted>
0.0000

> <Gold.Chemscore.DEClash.Weighted>
1.5397

> <Gold.Chemscore.DEInternal.Weighted>
2.4554

> <Gold.Chemscore.Rot.Weighted>
2.5600

> <Gold.Chemscore.Internal.Correction.Weighted>
   9.000000E+99

> <Gold.Protein.RotatedTorsions>
[ 6907 6896 6895 6894 ] final -177.05 input  -60.11 | X-H torsion
[ 7974 7965 7964 7962 ] final   59.61 input  175.53 | X-H torsion
[ 8008 7997 7996 7995 ] final  -99.55 input   59.86 | X-H torsion
[ 10167 10162 10161 10158 ] final   70.88 input  -65.29 | X-H torsion
[ 10718 10713 10712 10709 ] final  -13.70 input   66.30 | X-H torsion
[ 10763 10752 10751 10750 ] final  -32.53 input  -60.55 | X-H torsion
[ 11005 11000 10999 10996 ] final -125.94 input  -57.11 | X-H torsion

> <Gold.Protein.ActiveResidues>
 VAL166  LYS551  ARG553  GLY616  TRP617  ASP618  TYR619  PRO620  LYS621  CYS622 
 ASP623  PHE694  ASN695  SER759  ASP760  ASP761  ALA762  ILE779  LEU786  VAL792 
 PHE793  MET794  SER795  GLU796  ALA797  LYS798  CYS799  TRP800  GLU811  SER814 

> <Gold.Protein.RotatedAtoms>
  151.6147  133.3344  159.3074 H   0  0  0  0  0  0  0  0  0  0  0  0  # atno 6907 bound_to 6896
  150.8138  134.7311  159.6723 H   0  0  0  0  0  0  0  0  0  0  0  0  # atno 6908 bound_to 6896
  152.4234  134.5918  160.0028 H   0  0  0  0  0  0  0  0  0  0  0  0  # atno 6909 bound_to 6896
  145.9053  139.3612  143.0568 H   0  0  0  0  0  0  0  0  0  0  0  0  # atno 7974 bound_to 7965
  154.8164  140.0447  157.1379 H   0  0  0  0  0  0  0  0  0  0  0  0  # atno 8008 bound_to 7997
  154.9309  140.3039  155.5148 H   0  0  0  0  0  0  0  0  0  0  0  0  # atno 8009 bound_to 7997
  156.2976  140.2323  156.4369 H   0  0  0  0  0  0  0  0  0  0  0  0  # atno 8010 bound_to 7997
  140.0521  144.5303  150.7356 H   0  0  0  0  0  0  0  0  0  0  0  0  # atno 10167 bound_to 10162
  156.6265  130.4889  149.6145 H   0  0  0  0  0  0  0  0  0  0  0  0  # atno 10718 bound_to 10713
  153.8153  135.6879  153.4835 H   0  0  0  0  0  0  0  0  0  0  0  0  # atno 10763 bound_to 10752
  153.1603  135.4583  154.9760 H   0  0  0  0  0  0  0  0  0  0  0  0  # atno 10764 bound_to 10752
  154.7950  135.3316  154.7630 H   0  0  0  0  0  0  0  0  0  0  0  0  # atno 10765 bound_to 10752
  140.9722  134.0790  157.3857 H   0  0  0  0  0  0  0  0  0  0  0  0  # atno 11005 bound_to 11000
  145.8740  140.9403  143.0636 LP  0  0  0  0  0  0  0  0  0  0  0  0  # atno 17320 bound_to 7965
  144.6739  140.0692  143.7473 LP  0  0  0  0  0  0  0  0  0  0  0  0  # atno 17321 bound_to 7965
  140.7212  143.2590  151.4273 LP  0  0  0  0  0  0  0  0  0  0  0  0  # atno 17342 bound_to 10162
  139.5946  144.1424  152.2129 LP  0  0  0  0  0  0  0  0  0  0  0  0  # atno 17343 bound_to 10162
  156.2269  130.6771  151.1425 LP  0  0  0  0  0  0  0  0  0  0  0  0  # atno 17370 bound_to 10713
  157.7212  131.0680  150.6125 LP  0  0  0  0  0  0  0  0  0  0  0  0  # atno 17371 bound_to 10713
  139.8916  135.0120  156.6803 LP  0  0  0  0  0  0  0  0  0  0  0  0  # atno 17394 bound_to 11000
  140.7312  133.9057  155.8213 LP  0  0  0  0  0  0  0  0  0  0  0  0  # atno 17395 bound_to 11000

$$$$
