AV-unprocessed.smi:1175|AV-procd|sdf|4950|dock1
  -GOLD-   22720 3533D 1   1.00000     0.00000
 Structure written by MMmdl.
 36 37  0  0  0  0  0  0  0  0  1 V2000
  150.1833  141.4460  158.1064 O   0  0  0  0  0  0  0  0  0  0  0  0
  150.6589  142.3215  157.3816 C   0  0  0  0  0  0  0  0  0  0  0  0
  151.3617  143.5492  157.9793 C   0  0  0  0  0  0  0  0  0  0  0  0
  151.9513  143.2997  159.3056 N   0  0  0  0  0  0  0  0  0  0  0  0
  152.7804  142.1680  159.4343 C   0  0  0  0  0  0  0  0  0  0  0  0
  153.3745  141.8221  160.5925 C   0  0  0  0  0  0  0  0  0  0  0  0
  154.3149  140.6303  160.6851 C   0  0  0  0  0  0  0  0  0  0  0  0
  155.3948  140.8110  159.9244 F   0  0  0  0  0  0  0  0  0  0  0  0
  154.7170  140.4682  161.9450 F   0  0  0  0  0  0  0  0  0  0  0  0
  153.7103  139.5073  160.2948 F   0  0  0  0  0  0  0  0  0  0  0  0
  153.1453  142.7013  161.7222 C   0  0  0  0  0  0  0  0  0  0  0  0
  152.3673  143.7959  161.6125 C   0  0  0  0  0  0  0  0  0  0  0  0
  151.7155  144.1499  160.3494 C   0  0  0  0  0  0  0  0  0  0  0  0
  151.0038  145.1482  160.2359 O   0  0  0  0  0  0  0  0  0  0  0  0
  150.5920  142.2804  156.0426 N   0  0  0  0  0  0  0  0  0  0  0  0
  149.9730  141.2104  155.2677 C   0  0  0  0  0  0  0  0  0  0  0  0
  148.7468  141.7057  154.4782 C   0  0  2  0  0  0  0  0  0  0  0  0
  147.5429  142.0600  155.3290 C   0  0  0  0  0  0  0  0  0  0  0  0
  146.4154  142.0250  154.3025 C   0  0  0  0  0  0  0  0  0  0  0  0
  146.7861  141.0291  153.3537 O   0  0  0  0  0  0  0  0  0  0  0  0
  148.1491  140.6575  153.5398 C   0  0  0  0  0  0  0  0  0  0  0  0
  152.1283  143.8959  157.2838 H   0  0  0  0  0  0  0  0  0  0  0  0
  150.6383  144.3640  158.0333 H   0  0  0  0  0  0  0  0  0  0  0  0
  152.9123  141.6030  158.5228 H   0  0  0  0  0  0  0  0  0  0  0  0
  153.6026  142.4771  162.6747 H   0  0  0  0  0  0  0  0  0  0  0  0
  152.2183  144.4277  162.4758 H   0  0  0  0  0  0  0  0  0  0  0  0
  151.0050  143.0408  155.5218 H   0  0  0  0  0  0  0  0  0  0  0  0
  150.7057  140.7694  154.5895 H   0  0  0  0  0  0  0  0  0  0  0  0
  149.6806  140.4194  155.9589 H   0  0  0  0  0  0  0  0  0  0  0  0
  149.0214  142.5797  153.8848 H   0  0  0  0  0  0  0  0  0  0  0  0
  147.3772  141.2994  156.0932 H   0  0  0  0  0  0  0  0  0  0  0  0
  147.6347  143.0277  155.8234 H   0  0  0  0  0  0  0  0  0  0  0  0
  145.4470  141.8070  154.7534 H   0  0  0  0  0  0  0  0  0  0  0  0
  146.3414  142.9834  153.7870 H   0  0  0  0  0  0  0  0  0  0  0  0
  148.6792  140.6003  152.5889 H   0  0  0  0  0  0  0  0  0  0  0  0
  148.1724  139.6679  153.9982 H   0  0  0  0  0  0  0  0  0  0  0  0
  1  2  2  0  0  0  0
  2  3  1  0  0  0  0
  2 15  1  0  0  0  0
  3  4  1  0  0  0  0
  3 22  1  0  0  0  0
  3 23  1  0  0  0  0
  4 13  1  0  0  0  0
  4  5  1  0  0  0  0
  5  6  2  0  0  0  0
  5 24  1  0  0  0  0
  6  7  1  0  0  0  0
  6 11  1  0  0  0  0
  7  8  1  0  0  0  0
  7  9  1  0  0  0  0
  7 10  1  0  0  0  0
 11 12  2  0  0  0  0
 11 25  1  0  0  0  0
 12 13  1  0  0  0  0
 12 26  1  0  0  0  0
 13 14  2  0  0  0  0
 15 16  1  0  0  0  0
 15 27  1  0  0  0  0
 16 17  1  0  0  0  0
 16 28  1  0  0  0  0
 16 29  1  0  0  0  0
 17 21  1  0  0  0  0
 17 18  1  0  0  0  0
 17 30  1  0  0  0  0
 18 19  1  0  0  0  0
 18 31  1  0  0  0  0
 18 32  1  0  0  0  0
 19 20  1  0  0  0  0
 19 33  1  0  0  0  0
 19 34  1  0  0  0  0
 20 21  1  0  0  0  0
 21 35  1  0  0  0  0
 21 36  1  0  0  0  0
M  END
> <s_m_source_file>
AV-unprocessed.smi

> <i_m_source_file_index>
1175

> <i_lp_mmshare_version>
43012

> <i_f3d_flags>
0

> <s_epik_input>
W0NIMl0xT1tDSDJdW0NIMl1bQ0BIXTFbQ0gyXVtOSF1DKD1PKVtDSDJdbjJbY0hdYyhDKEYpKEYpRilbY0hdW2NIXWMyPU8=

> <s_epik_cmdline>
J2VwaWtfcHl0aG9uJywgJy1waCcsICc3LjAnLCAnLXRuJywgJzgnLCAnLW1hJywgJzIwMCcsICctbWV0YWxfYmluZGluZycsICctaW1hZScsICc8aW5maWxlLm1hZT4nLCAnLW9tYWUnLCAnPG91dGZpbGUubWFlPic=

> <r_lp_tautomer_probability>
1

> <r_epik_Ionization_Penalty>
3.67963e-08

> <r_epik_Ionization_Penalty_Charging>
1.809e-08

> <r_epik_Ionization_Penalty_Neutral>
1.87063e-08

> <r_epik_State_Penalty>
-0

> <r_epik_Charging_Adjusted_Penalty>
1.809e-08

> <i_epik_Tot_Q>
0

> <i_epik_Tot_abs_Q>
0

> <r_epik_Metal_State_Penalty>
-0

> <b_epik_Metal_Only>
0

> <s_lp_Force_Field>
OPLS_2005

> <r_lp_Energy>
30.0254

> <b_lp_Chiralities_Consistent>
1

> <s_lp_Variant>
AV-unprocessed.smi:1175-1

> <Gold.Version>
5.8.1

> <Gold.Id.Protein>
6NUR|6NUR_protein|mol2

> <Gold.PLP.Fitness>
47.9125

> <Gold.PLP.PLP>
-49.2893

> <Gold.PLP.part.hbond>
-1.0000

> <Gold.PLP.part.metal>
0.0000

> <Gold.PLP.part.buried>
-0.1532

> <Gold.PLP.part.nonpolar>
-48.2784

> <Gold.PLP.part.repulsive>
0.5422

> <Gold.PLP.ligand.clash>
0.3687

> <Gold.PLP.ligand.torsion>
0.5902

> <Gold.PLP.Chemscore.Hbond>
0.0000

> <Gold.PLP.Chemscore.CHOScore>
0.0000

> <Gold.PLP.Chemscore.Metal>
0.0000

> <Gold.PLP.Chemscore.Internal.Correction>
0.1724

> <Gold.Rescore>
     Score         DG    S(hbond)    S(metal)    S(lipo)     H(rot)  DE(clash)    DE(int)     intcor
     10.35     -12.07       0.00        0.00      97.12       1.87       0.18       1.54       ----

> <Gold.Chemscore.Fitness>
10.3490

> <Gold.Chemscore.DG>
-12.0683

> <Gold.Chemscore.ZeroCoef>
-5.4800

> <Gold.Chemscore.Hbond>
0.0024

> <Gold.Chemscore.Metal>
0.0000

> <Gold.Chemscore.Lipo>
97.1167

> <Gold.Chemscore.Internal_Hbond>
0.0000

> <Gold.Chemscore.DEClash>
0.1815

> <Gold.Chemscore.DEInternal>
1.5378

> <Gold.Chemscore.Rot>
1.8681

> <Gold.Chemscore.Internal.Correction>
   9.000000E+99

> <Gold.Chemscore.Hbond.Weighted>
-0.0079

> <Gold.Chemscore.Metal.Weighted>
-0.0000

> <Gold.Chemscore.Lipo.Weighted>
-11.3627

> <Gold.Chemscore.Internal_Hbond.Weighted>
0.0000

> <Gold.Chemscore.DEClash.Weighted>
0.1815

> <Gold.Chemscore.DEInternal.Weighted>
1.5378

> <Gold.Chemscore.Rot.Weighted>
4.7822

> <Gold.Chemscore.Internal.Correction.Weighted>
   9.000000E+99

> <Gold.Protein.RotatedTorsions>
[ 6907 6896 6895 6894 ] final -116.15 input  -60.11 | X-H torsion
[ 7974 7965 7964 7962 ] final  -67.38 input  175.53 | X-H torsion
[ 8008 7997 7996 7995 ] final  -11.46 input   59.86 | X-H torsion
[ 10167 10162 10161 10158 ] final -148.70 input  -65.29 | X-H torsion
[ 10718 10713 10712 10709 ] final   24.45 input   66.30 | X-H torsion
[ 10763 10752 10751 10750 ] final -121.61 input  -60.55 | X-H torsion
[ 11005 11000 10999 10996 ] final   83.69 input  -57.11 | X-H torsion

> <Gold.Protein.ActiveResidues>
 VAL166  LYS551  ARG553  GLY616  TRP617  ASP618  TYR619  PRO620  LYS621  CYS622 
 ASP623  PHE694  ASN695  SER759  ASP760  ASP761  ALA762  ILE779  LEU786  VAL792 
 PHE793  MET794  SER795  GLU796  ALA797  LYS798  CYS799  TRP800  GLU811  SER814 

> <Gold.Protein.RotatedAtoms>
  150.8034  133.8557  159.3217 H   0  0  0  0  0  0  0  0  0  0  0  0  # atno 6907 bound_to 6896
  151.6363  135.1016  160.0141 H   0  0  0  0  0  0  0  0  0  0  0  0  # atno 6908 bound_to 6896
  152.4123  133.6942  159.6443 H   0  0  0  0  0  0  0  0  0  0  0  0  # atno 6909 bound_to 6896
  145.7299  140.9001  143.0586 H   0  0  0  0  0  0  0  0  0  0  0  0  # atno 7974 bound_to 7965
  154.5463  140.2302  155.8558 H   0  0  0  0  0  0  0  0  0  0  0  0  # atno 8008 bound_to 7997
  156.1906  140.3078  155.9286 H   0  0  0  0  0  0  0  0  0  0  0  0  # atno 8009 bound_to 7997
  155.3158  140.0438  157.3027 H   0  0  0  0  0  0  0  0  0  0  0  0  # atno 8010 bound_to 7997
  139.7508  143.8521  152.2586 H   0  0  0  0  0  0  0  0  0  0  0  0  # atno 10167 bound_to 10162
  157.1799  130.6798  149.6109 H   0  0  0  0  0  0  0  0  0  0  0  0  # atno 10718 bound_to 10713
  154.8672  135.4162  154.2648 H   0  0  0  0  0  0  0  0  0  0  0  0  # atno 10763 bound_to 10752
  153.3569  135.7001  153.6749 H   0  0  0  0  0  0  0  0  0  0  0  0  # atno 10764 bound_to 10752
  153.5665  135.3599  155.2793 H   0  0  0  0  0  0  0  0  0  0  0  0  # atno 10765 bound_to 10752
  139.9023  134.8163  156.2344 H   0  0  0  0  0  0  0  0  0  0  0  0  # atno 11005 bound_to 11000
  144.6895  139.9316  143.7472 LP  0  0  0  0  0  0  0  0  0  0  0  0  # atno 17320 bound_to 7965
  146.0547  139.3545  143.0618 LP  0  0  0  0  0  0  0  0  0  0  0  0  # atno 17321 bound_to 7965
  139.8498  144.7170  150.9227 LP  0  0  0  0  0  0  0  0  0  0  0  0  # atno 17342 bound_to 10162
  140.7797  143.3909  151.1312 LP  0  0  0  0  0  0  0  0  0  0  0  0  # atno 17343 bound_to 10162
  155.9726  130.4650  150.6238 LP  0  0  0  0  0  0  0  0  0  0  0  0  # atno 17370 bound_to 10713
  157.3962  131.0803  151.1349 LP  0  0  0  0  0  0  0  0  0  0  0  0  # atno 17371 bound_to 10713
  141.0325  133.6981  156.1454 LP  0  0  0  0  0  0  0  0  0  0  0  0  # atno 17394 bound_to 11000
  140.7076  134.4497  157.5583 LP  0  0  0  0  0  0  0  0  0  0  0  0  # atno 17395 bound_to 11000

$$$$
