AV-unprocessed.smi:1586|AV-procd|sdf|6374|dock3
  -GOLD-   22720 7 03D 1   1.00000     0.00000
 Structure written by MMmdl.
 47 48  0  0  0  0  0  0  0  0  2 V2000
  149.5047  134.6620  155.0437 C   0  0  0  0  0  0  0  0  0  0  0  0
  148.4881  135.8032  155.1892 C   0  0  0  0  0  0  0  0  0  0  0  0
  148.9286  137.0490  154.5139 N   0  3  0  0  0  0  0  0  0  0  0  0
  150.1404  137.6307  155.1400 C   0  0  0  0  0  0  0  0  0  0  0  0
  150.5943  138.8901  154.3727 C   0  0  0  0  0  0  0  0  0  0  0  0
  149.5485  139.9218  154.3478 N   0  0  0  0  0  0  0  0  0  0  0  0
  149.2551  140.5573  155.6515 C   0  0  1  0  0  0  0  0  0  0  0  0
  150.4982  141.2728  156.2241 C   0  0  0  0  0  0  0  0  0  0  0  0
  148.0779  141.5589  155.5595 C   0  0  0  0  0  0  0  0  0  0  0  0
  148.0537  142.4730  156.6960 N   0  0  0  0  0  0  0  0  0  0  0  0
  147.1617  142.4231  157.6932 C   0  0  0  0  0  0  0  0  0  0  0  0
  146.2526  141.5949  157.7460 O   0  0  0  0  0  0  0  0  0  0  0  0
  147.3950  143.3861  158.6005 N   0  0  0  0  0  0  0  0  0  0  0  0
  146.6987  143.6477  159.8082 C   0  0  0  0  0  0  0  0  0  0  0  0
  145.2899  143.5609  160.0061 C   0  0  0  0  0  0  0  0  0  0  0  0
  145.1445  143.8991  161.3219 C   0  0  0  0  0  0  0  0  0  0  0  0
  143.9563  144.0191  162.2133 C   0  0  0  0  0  0  0  0  0  0  0  0
  146.3561  144.1652  161.8798 O   0  0  0  0  0  0  0  0  0  0  0  0
  147.3457  143.9997  160.9039 N   0  0  0  0  0  0  0  0  0  0  0  0
  148.3896  139.3279  153.6664 C   0  0  0  0  0  0  0  0  0  0  0  0
  147.8622  138.0763  154.4011 C   0  0  0  0  0  0  0  0  0  0  0  0
  149.1937  133.7968  155.6295 H   0  0  0  0  0  0  0  0  0  0  0  0
  150.4903  134.9632  155.4003 H   0  0  0  0  0  0  0  0  0  0  0  0
  149.6050  134.3319  154.0100 H   0  0  0  0  0  0  0  0  0  0  0  0
  147.5102  135.4977  154.8135 H   0  0  0  0  0  0  0  0  0  0  0  0
  148.3610  136.0028  156.2543 H   0  0  0  0  0  0  0  0  0  0  0  0
  149.9533  137.8530  156.1914 H   0  0  0  0  0  0  0  0  0  0  0  0
  150.9439  136.8937  155.1167 H   0  0  0  0  0  0  0  0  0  0  0  0
  151.5231  139.2791  154.7867 H   0  0  0  0  0  0  0  0  0  0  0  0
  150.8367  138.6165  153.3447 H   0  0  0  0  0  0  0  0  0  0  0  0
  148.9668  139.7908  156.3695 H   0  0  0  0  0  0  0  0  0  0  0  0
  150.2389  141.8567  157.1076 H   0  0  0  0  0  0  0  0  0  0  0  0
  150.9410  141.9569  155.4991 H   0  0  0  0  0  0  0  0  0  0  0  0
  151.2671  140.5690  156.5413 H   0  0  0  0  0  0  0  0  0  0  0  0
  148.1036  142.1274  154.6300 H   0  0  0  0  0  0  0  0  0  0  0  0
  147.1381  141.0048  155.5300 H   0  0  0  0  0  0  0  0  0  0  0  0
  148.7675  143.1865  156.7227 H   0  0  0  0  0  0  0  0  0  0  0  0
  148.1659  144.0079  158.4060 H   0  0  0  0  0  0  0  0  0  0  0  0
  144.5055  143.2957  159.3137 H   0  0  0  0  0  0  0  0  0  0  0  0
  143.0320  144.0024  161.6356 H   0  0  0  0  0  0  0  0  0  0  0  0
  143.9860  144.9527  162.7756 H   0  0  0  0  0  0  0  0  0  0  0  0
  143.9244  143.1950  162.9260 H   0  0  0  0  0  0  0  0  0  0  0  0
  147.5931  140.0577  153.5328 H   0  0  0  0  0  0  0  0  0  0  0  0
  148.6893  139.0492  152.6550 H   0  0  0  0  0  0  0  0  0  0  0  0
  147.0223  137.6728  153.8370 H   0  0  0  0  0  0  0  0  0  0  0  0
  147.4763  138.3325  155.3883 H   0  0  0  0  0  0  0  0  0  0  0  0
  149.1936  136.7947  153.5730 H   0  0  0  0  0  0  0  0  0  0  0  0
  1  2  1  0  0  0  0
  1 22  1  0  0  0  0
  1 23  1  0  0  0  0
  1 24  1  0  0  0  0
  2  3  1  0  0  0  0
  2 25  1  0  0  0  0
  2 26  1  0  0  0  0
  3 21  1  0  0  0  0
  3  4  1  0  0  0  0
  3 47  1  0  0  0  0
  4  5  1  0  0  0  0
  4 27  1  0  0  0  0
  4 28  1  0  0  0  0
  5  6  1  0  0  0  0
  5 29  1  0  0  0  0
  5 30  1  0  0  0  0
  6  7  1  0  0  0  0
  6 20  1  0  0  0  0
  7  8  1  0  0  0  0
  7  9  1  0  0  0  0
  7 31  1  0  0  0  0
  8 32  1  0  0  0  0
  8 33  1  0  0  0  0
  8 34  1  0  0  0  0
  9 10  1  0  0  0  0
  9 35  1  0  0  0  0
  9 36  1  0  0  0  0
 10 11  1  0  0  0  0
 10 37  1  0  0  0  0
 11 12  2  0  0  0  0
 11 13  1  0  0  0  0
 13 14  1  0  0  0  0
 13 38  1  0  0  0  0
 14 19  2  0  0  0  0
 14 15  1  0  0  0  0
 15 16  2  0  0  0  0
 15 39  1  0  0  0  0
 16 17  1  0  0  0  0
 16 18  1  0  0  0  0
 17 40  1  0  0  0  0
 17 41  1  0  0  0  0
 17 42  1  0  0  0  0
 18 19  1  0  0  0  0
 20 21  1  0  0  0  0
 20 43  1  0  0  0  0
 20 44  1  0  0  0  0
 21 45  1  0  0  0  0
 21 46  1  0  0  0  0
M  CHG  1   3   1
M  END
> <s_m_source_file>
AV-unprocessed.smi

> <i_m_source_file_index>
1586

> <i_lp_mmshare_version>
43012

> <i_f3d_flags>
0

> <s_epik_input>
W0NIM11bQ0gyXU4xW0NIMl1bQ0gyXU4oW0NIMl1bQ0gyXTEpW0NASF0oW0NIM10pW0NIMl1bTkhdQyg9TylbTkhdYzJbY0hdYyhbQ0gzXSlvbjI=

> <s_epik_cmdline>
J2VwaWtfcHl0aG9uJywgJy1waCcsICc3LjAnLCAnLXRuJywgJzgnLCAnLW1hJywgJzIwMCcsICctbWV0YWxfYmluZGluZycsICctaW1hZScsICc8aW5maWxlLm1hZT4nLCAnLW9tYWUnLCAnPG91dGZpbGUubWFlPic=

> <r_epik_Ionization_Penalty>
0.0459786

> <r_epik_Ionization_Penalty_Charging>
0.0453654

> <r_epik_Ionization_Penalty_Neutral>
0.000613264

> <r_epik_State_Penalty>
0.163057

> <r_epik_Charging_Adjusted_Penalty>
0.208422

> <i_epik_Tot_Q>
1

> <i_epik_Tot_abs_Q>
1

> <r_epik_Metal_State_Penalty>
0.17399

> <b_epik_Metal_Only>
0

> <s_lp_Force_Field>
OPLS_2005

> <r_lp_Energy>
25.6668

> <b_lp_Chiralities_Consistent>
1

> <s_lp_Variant>
AV-unprocessed.smi:1586-2

> <Gold.Version>
5.8.1

> <Gold.Id.Protein>
6NUR|6NUR_protein|mol2

> <Gold.PLP.Fitness>
41.1963

> <Gold.PLP.PLP>
-29.8879

> <Gold.PLP.part.hbond>
-4.3699

> <Gold.PLP.part.metal>
0.0000

> <Gold.PLP.part.buried>
-3.5020

> <Gold.PLP.part.nonpolar>
-23.2048

> <Gold.PLP.part.repulsive>
0.4625

> <Gold.PLP.ligand.clash>
0.0000

> <Gold.PLP.ligand.torsion>
0.6320

> <Gold.PLP.Chemscore.Hbond>
4.1545

> <Gold.PLP.Chemscore.CHOScore>
0.0000

> <Gold.PLP.Chemscore.Metal>
0.0000

> <Gold.Chemscore.Hbonds>
donor molecule, donor type, donor heavy atom, donor atom, acceptor molecule, acceptor atom, score
      L1  H     3    47       P1  7948  2.00
      L1  H    10    37       P1  8028  0.54
      L1  H    13    38       P1  8029  0.19
      P1  H  6933  6944       L1    19  0.89

> <Gold.PLP.Chemscore.Internal.Correction>
0.1090

> <Gold.Rescore>
     Score         DG    S(hbond)    S(metal)    S(lipo)     H(rot)  DE(clash)    DE(int)     intcor
     15.45     -16.12       2.29        0.00      64.29       1.76       0.03       0.64       ----

> <Gold.Chemscore.Fitness>
15.4498

> <Gold.Chemscore.DG>
-16.1245

> <Gold.Chemscore.ZeroCoef>
-5.4800

> <Gold.Chemscore.Hbond>
2.2868

> <Gold.Chemscore.Metal>
0.0000

> <Gold.Chemscore.Lipo>
64.2865

> <Gold.Chemscore.Internal_Hbond>
0.0000

> <Gold.Chemscore.DEClash>
0.0318

> <Gold.Chemscore.DEInternal>
0.6430

> <Gold.Chemscore.Rot>
1.7637

> <Gold.Chemscore.Internal.Correction>
   9.000000E+99

> <Gold.Chemscore.Hbonds>
donor molecule, donor type, donor heavy atom, donor atom, acceptor molecule, acceptor atom, score
      L1  H     3    47       P1  7948  0.98
      L1  H    10    37       P1  8028  0.44
      L1  H    13    38       P1  8029  0.09
      P1  H  6933  6944       L1    19  0.29

> <Gold.Chemscore.Hbond.Weighted>
-7.6380

> <Gold.Chemscore.Metal.Weighted>
-0.0000

> <Gold.Chemscore.Lipo.Weighted>
-7.5215

> <Gold.Chemscore.Internal_Hbond.Weighted>
0.0000

> <Gold.Chemscore.DEClash.Weighted>
0.0318

> <Gold.Chemscore.DEInternal.Weighted>
0.6430

> <Gold.Chemscore.Rot.Weighted>
4.5150

> <Gold.Chemscore.Internal.Correction.Weighted>
   9.000000E+99

> <Gold.Protein.RotatedTorsions>
[ 6907 6896 6895 6894 ] final  125.31 input  -60.11 | X-H torsion
[ 7974 7965 7964 7962 ] final  108.16 input  175.53 | X-H torsion
[ 8008 7997 7996 7995 ] final   35.13 input   59.86 | X-H torsion
[ 10167 10162 10161 10158 ] final   60.53 input  -65.29 | X-H torsion
[ 10718 10713 10712 10709 ] final   87.10 input   66.30 | X-H torsion
[ 10763 10752 10751 10750 ] final  133.22 input  -60.55 | X-H torsion
[ 11005 11000 10999 10996 ] final  119.05 input  -57.11 | X-H torsion

> <Gold.Protein.ActiveResidues>
 VAL166  LYS551  ARG553  GLY616  TRP617  ASP618  TYR619  PRO620  LYS621  CYS622 
 ASP623  PHE694  ASN695  SER759  ASP760  ASP761  ALA762  ILE779  LEU786  VAL792 
 PHE793  MET794  SER795  GLU796  ALA797  LYS798  CYS799  TRP800  GLU811  SER814 

> <Gold.Protein.RotatedAtoms>
  152.4003  133.6808  159.6310 H   0  0  0  0  0  0  0  0  0  0  0  0  # atno 6907 bound_to 6896
  150.7895  133.8802  159.3292 H   0  0  0  0  0  0  0  0  0  0  0  0  # atno 6908 bound_to 6896
  151.6569  135.0996  160.0223 H   0  0  0  0  0  0  0  0  0  0  0  0  # atno 6909 bound_to 6896
  145.2843  139.2622  143.3899 H   0  0  0  0  0  0  0  0  0  0  0  0  # atno 7974 bound_to 7965
  155.1660  140.3287  155.4402 H   0  0  0  0  0  0  0  0  0  0  0  0  # atno 8008 bound_to 7997
  156.2526  140.1952  156.6716 H   0  0  0  0  0  0  0  0  0  0  0  0  # atno 8009 bound_to 7997
  154.6371  140.0575  156.9788 H   0  0  0  0  0  0  0  0  0  0  0  0  # atno 8010 bound_to 7997
  140.1646  144.4336  150.6692 H   0  0  0  0  0  0  0  0  0  0  0  0  # atno 10167 bound_to 10162
  157.6936  131.0242  150.3072 H   0  0  0  0  0  0  0  0  0  0  0  0  # atno 10718 bound_to 10713
  153.8035  135.3138  155.3393 H   0  0  0  0  0  0  0  0  0  0  0  0  # atno 10763 bound_to 10752
  154.8079  135.4686  154.0444 H   0  0  0  0  0  0  0  0  0  0  0  0  # atno 10764 bound_to 10752
  153.1799  135.6892  153.8580 H   0  0  0  0  0  0  0  0  0  0  0  0  # atno 10765 bound_to 10752
  139.9132  134.9625  156.7596 H   0  0  0  0  0  0  0  0  0  0  0  0  # atno 11005 bound_to 11000
  146.3206  140.3318  142.8641 LP  0  0  0  0  0  0  0  0  0  0  0  0  # atno 17320 bound_to 7965
  144.9227  140.7886  143.5738 LP  0  0  0  0  0  0  0  0  0  0  0  0  # atno 17321 bound_to 7965
  140.6621  143.2255  151.5831 LP  0  0  0  0  0  0  0  0  0  0  0  0  # atno 17342 bound_to 10162
  139.5365  144.2766  152.1262 LP  0  0  0  0  0  0  0  0  0  0  0  0  # atno 17343 bound_to 10162
  156.3579  130.3842  149.7275 LP  0  0  0  0  0  0  0  0  0  0  0  0  # atno 17370 bound_to 10713
  156.4731  130.8006  151.3023 LP  0  0  0  0  0  0  0  0  0  0  0  0  # atno 17371 bound_to 10713
  140.6708  133.9561  155.7855 LP  0  0  0  0  0  0  0  0  0  0  0  0  # atno 17394 bound_to 11000
  141.0579  134.0390  157.3698 LP  0  0  0  0  0  0  0  0  0  0  0  0  # atno 17395 bound_to 11000

$$$$
