AV-unprocessed.smi:2024|AV-procd|sdf|8195|dock8
  -GOLD-   2272010453D 1   1.00000     0.00000
 Structure written by MMmdl.
 43 44  0  0  0  0  0  0  0  0  3 V2000
  147.8836  132.8102  155.8136 C   0  0  0  0  0  0  0  0  0  0  0  0
  148.0316  133.3660  154.4729 N   0  0  0  0  0  0  0  0  0  0  0  0
  147.2637  134.5943  154.2704 C   0  0  0  0  0  0  0  0  0  0  0  0
  147.8632  135.7937  155.0343 C   0  0  0  0  0  0  0  0  0  0  0  0
  149.2797  136.0230  154.6287 N   0  3  0  0  0  0  0  0  0  0  0  0
  149.9108  137.2946  155.1353 C   0  0  0  0  0  0  0  0  0  0  0  0
  151.2145  137.5854  154.3497 C   0  0  0  0  0  0  0  0  0  0  0  0
  148.9645  138.4872  154.8457 C   0  0  0  0  0  0  0  0  0  0  0  0
  150.2267  137.1999  156.6586 C   0  0  0  0  0  0  0  0  0  0  0  0
  149.0321  137.0635  157.4905 N   0  0  0  0  0  0  0  0  0  0  0  0
  149.0001  136.7587  158.7958 C   0  0  0  0  0  0  0  0  0  0  0  0
  150.0517  136.5707  159.4117 O   0  0  0  0  0  0  0  0  0  0  0  0
  147.7493  136.6803  159.3016 N   0  5  0  0  0  0  0  0  0  0  0  0
  147.5610  136.2635  160.5642 C   0  0  0  0  0  0  0  0  0  0  0  0
  147.4768  137.1004  161.6044 N   0  0  0  0  0  0  0  0  0  0  0  0
  147.2773  136.4511  162.8241 C   0  0  0  0  0  0  0  0  0  0  0  0
  147.1982  135.0887  162.7083 C   0  0  0  0  0  0  0  0  0  0  0  0
  147.3713  134.5773  161.0538 S   0  0  0  0  0  0  0  0  0  0  0  0
  150.0594  134.7728  154.8548 C   0  0  0  0  0  0  0  0  0  0  0  0
  149.4258  133.5899  154.0927 C   0  0  0  0  0  0  0  0  0  0  0  0
  146.8335  132.6027  156.0215 H   0  0  0  0  0  0  0  0  0  0  0  0
  148.2542  133.4793  156.5892 H   0  0  0  0  0  0  0  0  0  0  0  0
  148.4273  131.8684  155.8932 H   0  0  0  0  0  0  0  0  0  0  0  0
  147.2414  134.8176  153.2029 H   0  0  0  0  0  0  0  0  0  0  0  0
  146.2284  134.4310  154.5720 H   0  0  0  0  0  0  0  0  0  0  0  0
  147.2440  136.6586  154.8067 H   0  0  0  0  0  0  0  0  0  0  0  0
  147.7885  135.6344  156.1096 H   0  0  0  0  0  0  0  0  0  0  0  0
  151.5873  138.5917  154.5454 H   0  0  0  0  0  0  0  0  0  0  0  0
  151.0567  137.5075  153.2734 H   0  0  0  0  0  0  0  0  0  0  0  0
  152.0237  136.9086  154.6228 H   0  0  0  0  0  0  0  0  0  0  0  0
  149.4632  139.4453  154.9951 H   0  0  0  0  0  0  0  0  0  0  0  0
  148.0943  138.4958  155.5016 H   0  0  0  0  0  0  0  0  0  0  0  0
  148.6097  138.4729  153.8144 H   0  0  0  0  0  0  0  0  0  0  0  0
  150.9154  136.3817  156.8692 H   0  0  0  0  0  0  0  0  0  0  0  0
  150.7300  138.1040  156.9993 H   0  0  0  0  0  0  0  0  0  0  0  0
  148.1431  137.2110  157.0354 H   0  0  0  0  0  0  0  0  0  0  0  0
  147.2026  137.0383  163.7273 H   0  0  0  0  0  0  0  0  0  0  0  0
  147.0481  134.3590  163.4894 H   0  0  0  0  0  0  0  0  0  0  0  0
  151.0794  134.8740  154.4907 H   0  0  0  0  0  0  0  0  0  0  0  0
  150.1302  134.5486  155.9188 H   0  0  0  0  0  0  0  0  0  0  0  0
  150.0008  132.6786  154.2604 H   0  0  0  0  0  0  0  0  0  0  0  0
  149.4652  133.7854  153.0202 H   0  0  0  0  0  0  0  0  0  0  0  0
  149.2506  136.1370  153.6259 H   0  0  0  0  0  0  0  0  0  0  0  0
  1  2  1  0  0  0  0
  1 21  1  0  0  0  0
  1 22  1  0  0  0  0
  1 23  1  0  0  0  0
  2 20  1  0  0  0  0
  2  3  1  0  0  0  0
  3  4  1  0  0  0  0
  3 24  1  0  0  0  0
  3 25  1  0  0  0  0
  4  5  1  0  0  0  0
  4 26  1  0  0  0  0
  4 27  1  0  0  0  0
  5  6  1  0  0  0  0
  5 19  1  0  0  0  0
  5 43  1  0  0  0  0
  6  7  1  0  0  0  0
  6  8  1  0  0  0  0
  6  9  1  0  0  0  0
  7 28  1  0  0  0  0
  7 29  1  0  0  0  0
  7 30  1  0  0  0  0
  8 31  1  0  0  0  0
  8 32  1  0  0  0  0
  8 33  1  0  0  0  0
  9 10  1  0  0  0  0
  9 34  1  0  0  0  0
  9 35  1  0  0  0  0
 10 11  1  0  0  0  0
 10 36  1  0  0  0  0
 11 12  2  0  0  0  0
 11 13  1  0  0  0  0
 13 14  1  0  0  0  0
 14 18  1  0  0  0  0
 14 15  2  0  0  0  0
 15 16  1  0  0  0  0
 16 17  2  0  0  0  0
 16 37  1  0  0  0  0
 17 18  1  0  0  0  0
 17 38  1  0  0  0  0
 19 20  1  0  0  0  0
 19 39  1  0  0  0  0
 19 40  1  0  0  0  0
 20 41  1  0  0  0  0
 20 42  1  0  0  0  0
M  CHG  1   5   1
M  CHG  1  13  -1
M  END
> <s_m_source_file>
AV-unprocessed.smi

> <i_m_source_file_index>
2024

> <i_lp_mmshare_version>
43012

> <i_f3d_flags>
0

> <s_epik_input>
W0NIM11OMVtDSDJdW0NIMl1OKFtDSDJdW0NIMl0xKUMoW0NIM10pKFtDSDNdKVtDSDJdW05IXUMoPU8pW05IXWMybltjSF1bY0hdczI=

> <s_epik_cmdline>
J2VwaWtfcHl0aG9uJywgJy1waCcsICc3LjAnLCAnLXRuJywgJzgnLCAnLW1hJywgJzIwMCcsICctbWV0YWxfYmluZGluZycsICctaW1hZScsICc8aW5maWxlLm1hZT4nLCAnLW9tYWUnLCAnPG91dGZpbGUubWFlPic=

> <r_epik_Ionization_Penalty>
6.29536

> <r_epik_Ionization_Penalty_Charging>
5.46232

> <r_epik_Ionization_Penalty_Neutral>
0.833035

> <r_epik_State_Penalty>
6.42136

> <r_epik_Charging_Adjusted_Penalty>
11.8837

> <i_epik_Tot_Q>
0

> <i_epik_Tot_abs_Q>
2

> <r_epik_Metal_State_Penalty>
2.42657

> <b_epik_Metal_Only>
1

> <s_lp_Force_Field>
OPLS_2005

> <r_lp_Energy>
16.4996

> <b_lp_Chiralities_Consistent>
1

> <s_lp_Variant>
AV-unprocessed.smi:2024-5

> <Gold.Version>
5.8.1

> <Gold.Id.Protein>
6NUR|6NUR_protein|mol2

> <Gold.PLP.Fitness>
44.9104

> <Gold.PLP.PLP>
-32.5183

> <Gold.PLP.part.hbond>
-4.0000

> <Gold.PLP.part.metal>
0.0000

> <Gold.PLP.part.buried>
-4.8427

> <Gold.PLP.part.nonpolar>
-24.1087

> <Gold.PLP.part.repulsive>
0.1097

> <Gold.PLP.ligand.clash>
0.0000

> <Gold.PLP.ligand.torsion>
0.9656

> <Gold.PLP.Chemscore.Hbond>
4.7360

> <Gold.PLP.Chemscore.CHOScore>
0.0000

> <Gold.PLP.Chemscore.Metal>
0.0000

> <Gold.Chemscore.Hbonds>
donor molecule, donor type, donor heavy atom, donor atom, acceptor molecule, acceptor atom, score
      L1  H     5    43       P1  7948  2.00
      P1  H  6896  6907       L1    12  1.00
      P1  H  6931  6943       L1    15  0.98
      P1  H  6934  6947       L1    15  0.80

> <Gold.PLP.Chemscore.Internal.Correction>
0.1154

> <Gold.Rescore>
     Score         DG    S(hbond)    S(metal)    S(lipo)     H(rot)  DE(clash)    DE(int)     intcor
     16.72     -18.69       2.86        0.00      65.46       1.57       0.00       1.97       ----

> <Gold.Chemscore.Fitness>
16.7154

> <Gold.Chemscore.DG>
-18.6868

> <Gold.Chemscore.ZeroCoef>
-5.4800

> <Gold.Chemscore.Hbond>
2.8627

> <Gold.Chemscore.Metal>
0.0000

> <Gold.Chemscore.Lipo>
65.4617

> <Gold.Chemscore.Internal_Hbond>
0.0000

> <Gold.Chemscore.DEClash>
0.0015

> <Gold.Chemscore.DEInternal>
1.9699

> <Gold.Chemscore.Rot>
1.5678

> <Gold.Chemscore.Internal.Correction>
   9.000000E+99

> <Gold.Chemscore.Hbonds>
donor molecule, donor type, donor heavy atom, donor atom, acceptor molecule, acceptor atom, score
      L1  H     5    43       P1  7948  0.85
      P1  H  6896  6907       L1    12  0.99
      P1  H  6931  6943       L1    15  0.38
      P1  H  6934  6947       L1    15  0.56

> <Gold.Chemscore.Hbond.Weighted>
-9.5614

> <Gold.Chemscore.Metal.Weighted>
-0.0000

> <Gold.Chemscore.Lipo.Weighted>
-7.6590

> <Gold.Chemscore.Internal_Hbond.Weighted>
0.0000

> <Gold.Chemscore.DEClash.Weighted>
0.0015

> <Gold.Chemscore.DEInternal.Weighted>
1.9699

> <Gold.Chemscore.Rot.Weighted>
4.0136

> <Gold.Chemscore.Internal.Correction.Weighted>
   9.000000E+99

> <Gold.Protein.RotatedTorsions>
[ 6907 6896 6895 6894 ] final  -22.67 input  -60.11 | X-H torsion
[ 7974 7965 7964 7962 ] final -160.41 input  175.53 | X-H torsion
[ 8008 7997 7996 7995 ] final   69.36 input   59.86 | X-H torsion
[ 10167 10162 10161 10158 ] final   29.21 input  -65.29 | X-H torsion
[ 10718 10713 10712 10709 ] final   54.19 input   66.30 | X-H torsion
[ 10763 10752 10751 10750 ] final   65.30 input  -60.55 | X-H torsion
[ 11005 11000 10999 10996 ] final -165.84 input  -57.11 | X-H torsion

> <Gold.Protein.ActiveResidues>
 VAL166  LYS551  ARG553  GLY616  TRP617  ASP618  TYR619  PRO620  LYS621  CYS622 
 ASP623  PHE694  ASN695  SER759  ASP760  ASP761  ALA762  ILE779  LEU786  VAL792 
 PHE793  MET794  SER795  GLU796  ALA797  LYS798  CYS799  TRP800  GLU811  SER814 

> <Gold.Protein.RotatedAtoms>
  151.2152  135.0497  159.8927 H   0  0  0  0  0  0  0  0  0  0  0  0  # atno 6907 bound_to 6896
  152.5421  134.0701  159.8200 H   0  0  0  0  0  0  0  0  0  0  0  0  # atno 6908 bound_to 6896
  151.0860  133.5305  159.2649 H   0  0  0  0  0  0  0  0  0  0  0  0  # atno 6909 bound_to 6896
  144.7428  140.3546  143.6109 H   0  0  0  0  0  0  0  0  0  0  0  0  # atno 7974 bound_to 7965
  155.7224  140.3493  155.5022 H   0  0  0  0  0  0  0  0  0  0  0  0  # atno 8008 bound_to 7997
  155.9258  140.1075  157.1193 H   0  0  0  0  0  0  0  0  0  0  0  0  # atno 8009 bound_to 7997
  154.4077  140.1241  156.4725 H   0  0  0  0  0  0  0  0  0  0  0  0  # atno 8010 bound_to 7997
  140.4785  144.0653  150.6258 H   0  0  0  0  0  0  0  0  0  0  0  0  # atno 10167 bound_to 10162
  157.5235  130.8581  149.8590 H   0  0  0  0  0  0  0  0  0  0  0  0  # atno 10718 bound_to 10713
  153.0091  135.5362  154.6645 H   0  0  0  0  0  0  0  0  0  0  0  0  # atno 10763 bound_to 10752
  154.5846  135.2853  155.0700 H   0  0  0  0  0  0  0  0  0  0  0  0  # atno 10764 bound_to 10752
  154.1817  135.6515  153.5088 H   0  0  0  0  0  0  0  0  0  0  0  0  # atno 10765 bound_to 10752
  140.5711  134.5236  157.5162 H   0  0  0  0  0  0  0  0  0  0  0  0  # atno 11005 bound_to 11000
  145.7241  139.1718  143.2468 LP  0  0  0  0  0  0  0  0  0  0  0  0  # atno 17320 bound_to 7965
  146.1255  140.7253  142.9437 LP  0  0  0  0  0  0  0  0  0  0  0  0  # atno 17321 bound_to 7965
  140.3888  143.2763  152.0085 LP  0  0  0  0  0  0  0  0  0  0  0  0  # atno 17342 bound_to 10162
  139.4829  144.6095  151.7460 LP  0  0  0  0  0  0  0  0  0  0  0  0  # atno 17343 bound_to 10162
  156.0370  130.3748  150.1534 LP  0  0  0  0  0  0  0  0  0  0  0  0  # atno 17370 bound_to 10713
  156.9721  130.9838  151.3456 LP  0  0  0  0  0  0  0  0  0  0  0  0  # atno 17371 bound_to 10713
  139.9361  134.7873  156.0799 LP  0  0  0  0  0  0  0  0  0  0  0  0  # atno 17394 bound_to 11000
  141.1055  133.6661  156.2854 LP  0  0  0  0  0  0  0  0  0  0  0  0  # atno 17395 bound_to 11000

$$$$
