AV-unprocessed.smi:3092|AV-procd|sdf|11784|dock6
  -GOLD-   2272017163D 1   1.00000     0.00000
 Structure written by MMmdl.
 26 27  0  0  0  0  0  0  0  0  3 V2000
  153.1387  141.8967  159.5366 C   0  0  0  0  0  0  0  0  0  0  0  0
  152.3651  142.9945  158.9528 N   0  0  0  0  0  0  0  0  0  0  0  0
  152.5307  144.3301  159.2168 C   0  0  0  0  0  0  0  0  0  0  0  0
  151.6070  144.9988  158.4582 C   0  0  0  0  0  0  0  0  0  0  0  0
  150.9153  144.0448  157.7632 N   0  3  0  0  0  0  0  0  0  0  0  0
  151.3718  142.8212  158.0624 C   0  0  0  0  0  0  0  0  0  0  0  0
  150.8532  141.5323  157.4865 C   0  0  2  0  0  0  0  0  0  0  0  0
  150.9068  141.4244  155.9644 C   0  0  0  0  0  0  0  0  0  0  0  0
  149.9182  140.2901  155.6571 C   0  0  0  0  0  0  0  0  0  0  0  0
  149.0070  140.1936  156.8187 N   0  3  0  0  0  0  0  0  0  0  0  0
  149.3801  141.2482  157.7787 C   0  0  0  0  0  0  0  0  0  0  0  0
  153.8854  142.2994  160.2218 H   0  0  0  0  0  0  0  0  0  0  0  0
  153.6415  141.3449  158.7416 H   0  0  0  0  0  0  0  0  0  0  0  0
  152.4685  141.2338  160.0849 H   0  0  0  0  0  0  0  0  0  0  0  0
  153.2760  144.6984  159.9074 H   0  0  0  0  0  0  0  0  0  0  0  0
  151.3962  146.0543  158.3629 H   0  0  0  0  0  0  0  0  0  0  0  0
  151.4479  140.7221  157.9087 H   0  0  0  0  0  0  0  0  0  0  0  0
  150.5458  142.3469  155.5071 H   0  0  0  0  0  0  0  0  0  0  0  0
  151.9112  141.2347  155.5845 H   0  0  0  0  0  0  0  0  0  0  0  0
  149.3631  140.4760  154.7370 H   0  0  0  0  0  0  0  0  0  0  0  0
  150.4413  139.3396  155.5472 H   0  0  0  0  0  0  0  0  0  0  0  0
  148.0426  140.2942  156.5343 H   0  0  0  0  0  0  0  0  0  0  0  0
  149.2002  140.9448  158.8104 H   0  0  0  0  0  0  0  0  0  0  0  0
  148.7676  142.1271  157.5713 H   0  0  0  0  0  0  0  0  0  0  0  0
  149.1388  139.2908  157.2527 H   0  0  0  0  0  0  0  0  0  0  0  0
  150.1652  144.2379  157.1115 H   0  0  0  0  0  0  0  0  0  0  0  0
  1  2  1  0  0  0  0
  1 12  1  0  0  0  0
  1 13  1  0  0  0  0
  1 14  1  0  0  0  0
  2  6  1  0  0  0  0
  2  3  1  0  0  0  0
  3  4  2  0  0  0  0
  3 15  1  0  0  0  0
  4  5  1  0  0  0  0
  4 16  1  0  0  0  0
  5  6  2  0  0  0  0
  5 26  1  0  0  0  0
  6  7  1  0  0  0  0
  7 11  1  0  0  0  0
  7  8  1  0  0  0  0
  7 17  1  0  0  0  0
  8  9  1  0  0  0  0
  8 18  1  0  0  0  0
  8 19  1  0  0  0  0
  9 10  1  0  0  0  0
  9 20  1  0  0  0  0
  9 21  1  0  0  0  0
 10 11  1  0  0  0  0
 10 22  1  0  0  0  0
 10 25  1  0  0  0  0
 11 23  1  0  0  0  0
 11 24  1  0  0  0  0
M  CHG  1   5   1
M  CHG  1  10   1
M  END
> <s_m_source_file>
AV-unprocessed.smi

> <i_m_source_file_index>
3092

> <i_lp_mmshare_version>
43012

> <i_f3d_flags>
0

> <s_epik_input>
W0NIM11uMVtjSF1bY0hdbmMxW0NAQEhdMltDSDJdW0NIMl1bTkhdW0NIMl0y

> <s_epik_cmdline>
J2VwaWtfcHl0aG9uJywgJy1waCcsICc3LjAnLCAnLXRuJywgJzgnLCAnLW1hJywgJzIwMCcsICctbWV0YWxfYmluZGluZycsICctaW1hZScsICc8aW5maWxlLm1hZT4nLCAnLW9tYWUnLCAnPG91dGZpbGUubWFlPic=

> <r_lp_tautomer_probability>
1

> <r_epik_Ionization_Penalty>
0.803493

> <r_epik_Ionization_Penalty_Charging>
0.000689375

> <r_epik_Ionization_Penalty_Neutral>
0.802804

> <r_epik_State_Penalty>
0.834355

> <r_epik_Charging_Adjusted_Penalty>
0.835044

> <i_epik_Tot_Q>
2

> <i_epik_Tot_abs_Q>
2

> <r_epik_Metal_State_Penalty>
4.76097

> <b_epik_Metal_Only>
0

> <s_lp_Force_Field>
OPLS_2005

> <r_lp_Energy>
35.9538

> <b_lp_Chiralities_Consistent>
1

> <s_lp_Variant>
AV-unprocessed.smi:3092-3

> <Gold.Version>
5.8.1

> <Gold.Id.Protein>
6NUR|6NUR_protein|mol2

> <Gold.PLP.Fitness>
33.0472

> <Gold.PLP.PLP>
-27.0569

> <Gold.PLP.part.hbond>
-1.0000

> <Gold.PLP.part.metal>
0.0000

> <Gold.PLP.part.buried>
-3.8366

> <Gold.PLP.part.nonpolar>
-21.8235

> <Gold.PLP.part.repulsive>
0.0462

> <Gold.PLP.ligand.clash>
0.0000

> <Gold.PLP.ligand.torsion>
0.0061

> <Gold.PLP.Chemscore.Hbond>
2.0000

> <Gold.PLP.Chemscore.CHOScore>
0.0000

> <Gold.PLP.Chemscore.Metal>
0.0000

> <Gold.Chemscore.Hbonds>
donor molecule, donor type, donor heavy atom, donor atom, acceptor molecule, acceptor atom, score
      L1  H     5    26       P1  8028  2.00

> <Gold.PLP.Chemscore.Internal.Correction>
0.0025

> <Gold.Rescore>
     Score         DG    S(hbond)    S(metal)    S(lipo)     H(rot)  DE(clash)    DE(int)     intcor
     13.01     -13.02       0.98        0.00      58.26       1.00       0.01       0.00       ----

> <Gold.Chemscore.Fitness>
13.0074

> <Gold.Chemscore.DG>
-13.0150

> <Gold.Chemscore.ZeroCoef>
-5.4800

> <Gold.Chemscore.Hbond>
0.9815

> <Gold.Chemscore.Metal>
0.0000

> <Gold.Chemscore.Lipo>
58.2624

> <Gold.Chemscore.Internal_Hbond>
0.0000

> <Gold.Chemscore.DEClash>
0.0060

> <Gold.Chemscore.DEInternal>
0.0016

> <Gold.Chemscore.Rot>
1.0000

> <Gold.Chemscore.Internal.Correction>
   9.000000E+99

> <Gold.Chemscore.Hbonds>
donor molecule, donor type, donor heavy atom, donor atom, acceptor molecule, acceptor atom, score
      L1  H     5    26       P1  8028  0.81

> <Gold.Chemscore.Hbond.Weighted>
-3.2783

> <Gold.Chemscore.Metal.Weighted>
-0.0000

> <Gold.Chemscore.Lipo.Weighted>
-6.8167

> <Gold.Chemscore.Internal_Hbond.Weighted>
0.0000

> <Gold.Chemscore.DEClash.Weighted>
0.0060

> <Gold.Chemscore.DEInternal.Weighted>
0.0016

> <Gold.Chemscore.Rot.Weighted>
2.5600

> <Gold.Chemscore.Internal.Correction.Weighted>
   9.000000E+99

> <Gold.Protein.RotatedTorsions>
[ 6907 6896 6895 6894 ] final   70.68 input  -60.11 | X-H torsion
[ 7974 7965 7964 7962 ] final  113.58 input  175.53 | X-H torsion
[ 8008 7997 7996 7995 ] final  165.66 input   59.86 | X-H torsion
[ 10167 10162 10161 10158 ] final   76.47 input  -65.29 | X-H torsion
[ 10718 10713 10712 10709 ] final   23.04 input   66.30 | X-H torsion
[ 10763 10752 10751 10750 ] final  124.30 input  -60.55 | X-H torsion
[ 11005 11000 10999 10996 ] final    6.43 input  -57.11 | X-H torsion

> <Gold.Protein.ActiveResidues>
 VAL166  LYS551  ARG553  GLY616  TRP617  ASP618  TYR619  PRO620  LYS621  CYS622 
 ASP623  PHE694  ASN695  SER759  ASP760  ASP761  ALA762  ILE779  LEU786  VAL792 
 PHE793  MET794  SER795  GLU796  ALA797  LYS798  CYS799  TRP800  GLU811  SER814 

> <Gold.Protein.RotatedAtoms>
  152.4764  134.4832  159.9671 H   0  0  0  0  0  0  0  0  0  0  0  0  # atno 6907 bound_to 6896
  151.4847  133.3532  159.2851 H   0  0  0  0  0  0  0  0  0  0  0  0  # atno 6908 bound_to 6896
  150.8806  134.8223  159.7283 H   0  0  0  0  0  0  0  0  0  0  0  0  # atno 6909 bound_to 6896
  145.2151  139.2888  143.4247 H   0  0  0  0  0  0  0  0  0  0  0  0  # atno 7974 bound_to 7965
  156.1783  140.1664  156.8322 H   0  0  0  0  0  0  0  0  0  0  0  0  # atno 8008 bound_to 7997
  154.5331  140.0752  156.8413 H   0  0  0  0  0  0  0  0  0  0  0  0  # atno 8009 bound_to 7997
  155.3366  140.3382  155.4241 H   0  0  0  0  0  0  0  0  0  0  0  0  # atno 8010 bound_to 7997
  139.9919  144.5751  150.7811 H   0  0  0  0  0  0  0  0  0  0  0  0  # atno 10167 bound_to 10162
  157.1607  130.6715  149.6043 H   0  0  0  0  0  0  0  0  0  0  0  0  # atno 10718 bound_to 10713
  153.6593  135.3349  155.3122 H   0  0  0  0  0  0  0  0  0  0  0  0  # atno 10763 bound_to 10752
  154.8519  135.4359  154.1822 H   0  0  0  0  0  0  0  0  0  0  0  0  # atno 10764 bound_to 10752
  153.2784  135.7007  153.7485 H   0  0  0  0  0  0  0  0  0  0  0  0  # atno 10765 bound_to 10752
  140.5595  134.0206  155.7966 H   0  0  0  0  0  0  0  0  0  0  0  0  # atno 11005 bound_to 11000
  146.3389  140.2440  142.8596 LP  0  0  0  0  0  0  0  0  0  0  0  0  # atno 17320 bound_to 7965
  144.9818  140.8466  143.5392 LP  0  0  0  0  0  0  0  0  0  0  0  0  # atno 17321 bound_to 7965
  140.7451  143.2871  151.3433 LP  0  0  0  0  0  0  0  0  0  0  0  0  # atno 17342 bound_to 10162
  139.6334  144.0677  152.2495 LP  0  0  0  0  0  0  0  0  0  0  0  0  # atno 17343 bound_to 10162
  155.9754  130.4713  150.6459 LP  0  0  0  0  0  0  0  0  0  0  0  0  # atno 17370 bound_to 10713
  157.4135  131.0827  151.1198 LP  0  0  0  0  0  0  0  0  0  0  0  0  # atno 17371 bound_to 10713
  141.1123  133.9597  157.2887 LP  0  0  0  0  0  0  0  0  0  0  0  0  # atno 17394 bound_to 11000
  139.9415  135.0190  156.8721 LP  0  0  0  0  0  0  0  0  0  0  0  0  # atno 17395 bound_to 11000

$$$$
