AV-unprocessed.smi:136|AV-procd|sdf|1173|dock6
  -GOLD-   2262018323D 1   1.00000     0.00000
 Structure written by MMmdl.
 54 58  0  0  0  0  0  0  0  0  1 V2000
  151.6099  138.2575  158.8903 O   0  0  0  0  0  0  0  0  0  0  0  0
  152.3841  139.1966  159.0849 C   0  0  0  0  0  0  0  0  0  0  0  0
  152.3062  140.4537  158.1929 C   0  0  0  0  0  0  0  0  0  0  0  0
  151.5596  140.2379  156.9341 N   0  0  0  0  0  0  0  0  0  0  0  0
  151.9825  139.2061  156.0600 C   0  0  0  0  0  0  0  0  0  0  0  0
  152.9446  138.4882  156.3367 O   0  0  0  0  0  0  0  0  0  0  0  0
  151.2131  139.0696  154.8288 C   0  0  0  0  0  0  0  0  0  0  0  0
  151.5427  138.1159  153.9412 F   0  0  0  0  0  0  0  0  0  0  0  0
  150.1741  139.8878  154.5631 C   0  0  0  0  0  0  0  0  0  0  0  0
  149.7727  140.8928  155.4253 N   0  0  0  0  0  0  0  0  0  0  0  0
  148.6155  141.8153  155.1034 C   0  0  2  0  0  0  0  0  0  0  0  0
  147.5043  141.6832  156.1625 C   0  0  0  0  0  0  0  0  0  0  0  0
  146.2671  141.4364  155.3223 C   0  0  0  0  0  0  0  0  0  0  0  0
  146.8487  140.7370  154.1032 C   0  0  0  0  0  0  0  0  0  0  0  0
  148.0506  141.4597  153.8733 O   0  0  0  0  0  0  0  0  0  0  0  0
  150.4741  141.0949  156.6339 C   0  0  0  0  0  0  0  0  0  0  0  0
  150.1480  142.0007  157.4046 O   0  0  0  0  0  0  0  0  0  0  0  0
  153.3089  139.1669  160.0702 N   0  0  0  0  0  0  0  0  0  0  0  0
  153.5613  138.0621  160.8165 N   0  0  0  0  0  0  0  0  0  0  0  0
  154.5898  138.2628  161.5545 C   0  0  0  0  0  0  0  0  0  0  0  0
  155.1539  137.2684  162.4944 C   0  0  0  0  0  0  0  0  0  0  0  0
  154.3050  136.2935  163.0666 C   0  0  0  0  0  0  0  0  0  0  0  0
  154.8406  135.3481  163.9629 C   0  0  0  0  0  0  0  0  0  0  0  0
  156.2125  135.3753  164.2849 C   0  0  0  0  0  0  0  0  0  0  0  0
  156.8623  134.2156  165.3846 Cl  0  0  0  0  0  0  0  0  0  0  0  0
  157.0547  136.3483  163.7102 C   0  0  0  0  0  0  0  0  0  0  0  0
  156.5307  137.2989  162.8123 C   0  0  0  0  0  0  0  0  0  0  0  0
  155.1932  139.6171  161.3907 C   0  0  0  0  0  0  0  0  0  0  0  0
  154.2465  140.2564  160.3719 C   0  0  2  0  0  0  0  0  0  0  0  0
  153.5880  141.5023  160.8929 C   0  0  0  0  0  0  0  0  0  0  0  0
  152.8324  142.4947  160.3272 C   0  0  0  0  0  0  0  0  0  0  0  0
  152.5003  143.3973  161.3744 C   0  0  0  0  0  0  0  0  0  0  0  0
  153.0718  142.8873  162.5045 C   0  0  0  0  0  0  0  0  0  0  0  0
  153.7352  141.7318  162.2287 O   0  0  0  0  0  0  0  0  0  0  0  0
  151.8671  141.2668  158.7730 H   0  0  0  0  0  0  0  0  0  0  0  0
  153.3198  140.7967  157.9784 H   0  0  0  0  0  0  0  0  0  0  0  0
  149.6509  139.7353  153.6317 H   0  0  0  0  0  0  0  0  0  0  0  0
  149.0472  142.8151  155.0287 H   0  0  0  0  0  0  0  0  0  0  0  0
  147.6991  140.8275  156.8113 H   0  0  0  0  0  0  0  0  0  0  0  0
  147.4365  142.5835  156.7736 H   0  0  0  0  0  0  0  0  0  0  0  0
  145.5124  140.8415  155.8374 H   0  0  0  0  0  0  0  0  0  0  0  0
  145.8162  142.3851  155.0289 H   0  0  0  0  0  0  0  0  0  0  0  0
  147.0722  139.6925  154.3245 H   0  0  0  0  0  0  0  0  0  0  0  0
  146.1866  140.7729  153.2379 H   0  0  0  0  0  0  0  0  0  0  0  0
  153.2507  136.2561  162.8331 H   0  0  0  0  0  0  0  0  0  0  0  0
  154.1966  134.6015  164.4042 H   0  0  0  0  0  0  0  0  0  0  0  0
  158.1058  136.3666  163.9583 H   0  0  0  0  0  0  0  0  0  0  0  0
  157.1976  138.0329  162.3854 H   0  0  0  0  0  0  0  0  0  0  0  0
  155.2075  140.1575  162.3385 H   0  0  0  0  0  0  0  0  0  0  0  0
  156.2121  139.5534  161.0072 H   0  0  0  0  0  0  0  0  0  0  0  0
  154.8029  140.4966  159.4641 H   0  0  0  0  0  0  0  0  0  0  0  0
  152.5545  142.5636  159.2858 H   0  0  0  0  0  0  0  0  0  0  0  0
  151.9165  144.3034  161.3092 H   0  0  0  0  0  0  0  0  0  0  0  0
  153.1037  143.2027  163.5369 H   0  0  0  0  0  0  0  0  0  0  0  0
  1  2  2  0  0  0  0
  2  3  1  0  0  0  0
  2 18  1  0  0  0  0
  3  4  1  0  0  0  0
  3 35  1  0  0  0  0
  3 36  1  0  0  0  0
  4 16  1  0  0  0  0
  4  5  1  0  0  0  0
  5  6  2  0  0  0  0
  5  7  1  0  0  0  0
  7  8  1  0  0  0  0
  7  9  2  0  0  0  0
  9 10  1  0  0  0  0
  9 37  1  0  0  0  0
 10 11  1  0  0  0  0
 10 16  1  0  0  0  0
 11 15  1  0  0  0  0
 11 12  1  0  0  0  0
 11 38  1  0  0  0  0
 12 13  1  0  0  0  0
 12 39  1  0  0  0  0
 12 40  1  0  0  0  0
 13 14  1  0  0  0  0
 13 41  1  0  0  0  0
 13 42  1  0  0  0  0
 14 15  1  0  0  0  0
 14 43  1  0  0  0  0
 14 44  1  0  0  0  0
 16 17  2  0  0  0  0
 18 29  1  0  0  0  0
 18 19  1  0  0  0  0
 19 20  2  0  0  0  0
 20 21  1  0  0  0  0
 20 28  1  0  0  0  0
 21 27  1  0  0  0  0
 21 22  2  0  0  0  0
 22 23  1  0  0  0  0
 22 45  1  0  0  0  0
 23 24  2  0  0  0  0
 23 46  1  0  0  0  0
 24 25  1  0  0  0  0
 24 26  1  0  0  0  0
 26 27  2  0  0  0  0
 26 47  1  0  0  0  0
 27 48  1  0  0  0  0
 28 29  1  0  0  0  0
 28 49  1  0  0  0  0
 28 50  1  0  0  0  0
 29 30  1  0  0  0  0
 29 51  1  0  0  0  0
 30 34  1  0  0  0  0
 30 31  2  0  0  0  0
 31 32  1  0  0  0  0
 31 52  1  0  0  0  0
 32 33  2  0  0  0  0
 32 53  1  0  0  0  0
 33 34  1  0  0  0  0
 33 54  1  0  0  0  0
M  END
> <s_m_source_file>
AV-unprocessed.smi

> <i_m_source_file_index>
136

> <i_lp_mmshare_version>
43012

> <i_f3d_flags>
0

> <s_epik_input>
bzFbY0hdW2NIXVtjSF1jMVtDQEBIXTJbQ0gyXUMoYzNbY0hdW2NIXWMoQ2wpW2NIXVtjSF0zKT1OTjJDKD1PKVtDSDJdbjRjKD1PKWMoRilbY0hdbihjND1PKVtDQEBIXTVbQ0gyXVtDSDJdW0NIMl1PNQ==

> <s_epik_cmdline>
J2VwaWtfcHl0aG9uJywgJy1waCcsICc3LjAnLCAnLXRuJywgJzgnLCAnLW1hJywgJzIwMCcsICctbWV0YWxfYmluZGluZycsICctaW1hZScsICc8aW5maWxlLm1hZT4nLCAnLW9tYWUnLCAnPG91dGZpbGUubWFlPic=

> <r_lp_tautomer_probability>
1

> <r_epik_Ionization_Penalty>
2.55467e-08

> <r_epik_Ionization_Penalty_Charging>
4.85705e-09

> <r_epik_Ionization_Penalty_Neutral>
2.06897e-08

> <r_epik_State_Penalty>
-0

> <r_epik_Charging_Adjusted_Penalty>
4.85705e-09

> <i_epik_Tot_Q>
0

> <i_epik_Tot_abs_Q>
0

> <r_epik_Metal_State_Penalty>
-0

> <b_epik_Metal_Only>
0

> <s_epik_Chemistry_Notes>
This compound has an imine and may undergo hydrolysis. This compound contains an acetal/aminal-like group ( X-CH(R)-Y where X, Y are N, S, or O) that may be acid/base labile, releasing an aldehyde.

> <s_lp_Force_Field>
OPLS_2005

> <r_lp_Energy>
40.0267

> <b_lp_Chiralities_Consistent>
1

> <s_lp_Variant>
AV-unprocessed.smi:136-3

> <Gold.Version>
5.8.1

> <Gold.Id.Protein>
6NUR|6NUR_protein|mol2

> <Gold.PLP.Fitness>
63.4612

> <Gold.PLP.PLP>
-58.6152

> <Gold.PLP.part.hbond>
-2.0000

> <Gold.PLP.part.metal>
0.0000

> <Gold.PLP.part.buried>
-0.1103

> <Gold.PLP.part.nonpolar>
-55.7372

> <Gold.PLP.part.repulsive>
1.2325

> <Gold.PLP.ligand.clash>
0.0122

> <Gold.PLP.ligand.torsion>
0.8685

> <Gold.PLP.Chemscore.Hbond>
1.1682

> <Gold.PLP.Chemscore.CHOScore>
1.0000

> <Gold.PLP.Chemscore.Metal>
0.0000

> <Gold.Chemscore.Hbonds>
donor molecule, donor type, donor heavy atom, donor atom, acceptor molecule, acceptor atom, score
      P1  H  7997  8010       L1     6  0.60
      L1  C     9    37       P1  7957  1.00

> <Gold.PLP.Chemscore.Internal.Correction>
0.0907

> <Gold.Rescore>
     Score         DG    S(hbond)    S(metal)    S(lipo)     H(rot)  DE(clash)    DE(int)     intcor
     15.31     -18.83       0.92        0.00     127.27       1.81       0.68       2.84       ----

> <Gold.Chemscore.Fitness>
15.3069

> <Gold.Chemscore.DG>
-18.8257

> <Gold.Chemscore.ZeroCoef>
-5.4800

> <Gold.Chemscore.Hbond>
0.9215

> <Gold.Chemscore.Metal>
0.0000

> <Gold.Chemscore.Lipo>
127.2660

> <Gold.Chemscore.Internal_Hbond>
0.0000

> <Gold.Chemscore.DEClash>
0.6810

> <Gold.Chemscore.DEInternal>
2.8378

> <Gold.Chemscore.Rot>
1.8056

> <Gold.Chemscore.Internal.Correction>
   9.000000E+99

> <Gold.Chemscore.Hbonds>
donor molecule, donor type, donor heavy atom, donor atom, acceptor molecule, acceptor atom, score
      P1  H  7997  8010       L1     6  0.09

> <Gold.Chemscore.Hbond.Weighted>
-3.0779

> <Gold.Chemscore.Metal.Weighted>
-0.0000

> <Gold.Chemscore.Lipo.Weighted>
-14.8901

> <Gold.Chemscore.Internal_Hbond.Weighted>
0.0000

> <Gold.Chemscore.DEClash.Weighted>
0.6810

> <Gold.Chemscore.DEInternal.Weighted>
2.8378

> <Gold.Chemscore.Rot.Weighted>
4.6223

> <Gold.Chemscore.Internal.Correction.Weighted>
   9.000000E+99

> <Gold.Protein.RotatedTorsions>
[ 6907 6896 6895 6894 ] final  134.83 input  -60.11 | X-H torsion
[ 7974 7965 7964 7962 ] final  -21.79 input  175.53 | X-H torsion
[ 8008 7997 7996 7995 ] final   69.15 input   59.86 | X-H torsion
[ 10167 10162 10161 10158 ] final   59.66 input  -65.29 | X-H torsion
[ 10718 10713 10712 10709 ] final   -1.09 input   66.30 | X-H torsion
[ 10763 10752 10751 10750 ] final  101.07 input  -60.55 | X-H torsion
[ 11005 11000 10999 10996 ] final  -51.00 input  -57.11 | X-H torsion

> <Gold.Protein.ActiveResidues>
 VAL166  LYS551  ARG553  GLY616  TRP617  ASP618  TYR619  PRO620  LYS621  CYS622 
 ASP623  PHE694  ASN695  SER759  ASP760  ASP761  ALA762  ILE779  LEU786  VAL792 
 PHE793  MET794  SER795  GLU796  ALA797  LYS798  CYS799  TRP800  GLU811  SER814 

> <Gold.Protein.RotatedAtoms>
  152.3070  133.5714  159.5655 H   0  0  0  0  0  0  0  0  0  0  0  0  # atno 6907 bound_to 6896
  150.7304  134.0208  159.3709 H   0  0  0  0  0  0  0  0  0  0  0  0  # atno 6908 bound_to 6896
  151.8103  135.0683  160.0463 H   0  0  0  0  0  0  0  0  0  0  0  0  # atno 6909 bound_to 6896
  146.1713  140.4390  142.8531 H   0  0  0  0  0  0  0  0  0  0  0  0  # atno 7974 bound_to 7965
  155.7192  140.3493  155.5008 H   0  0  0  0  0  0  0  0  0  0  0  0  # atno 8008 bound_to 7997
  155.9285  140.1080  157.1173 H   0  0  0  0  0  0  0  0  0  0  0  0  # atno 8009 bound_to 7997
  154.4081  140.1236  156.4759 H   0  0  0  0  0  0  0  0  0  0  0  0  # atno 8010 bound_to 7997
  140.1740  144.4248  150.6647 H   0  0  0  0  0  0  0  0  0  0  0  0  # atno 10167 bound_to 10162
  156.8108  130.5424  149.5709 H   0  0  0  0  0  0  0  0  0  0  0  0  # atno 10718 bound_to 10713
  153.3220  135.4057  155.1424 H   0  0  0  0  0  0  0  0  0  0  0  0  # atno 10763 bound_to 10752
  154.8602  135.3590  154.5584 H   0  0  0  0  0  0  0  0  0  0  0  0  # atno 10764 bound_to 10752
  153.6018  135.7071  153.5440 H   0  0  0  0  0  0  0  0  0  0  0  0  # atno 10765 bound_to 10752
  141.0847  133.6645  156.3813 H   0  0  0  0  0  0  0  0  0  0  0  0  # atno 11005 bound_to 11000
  144.8167  140.6480  143.6380 LP  0  0  0  0  0  0  0  0  0  0  0  0  # atno 17320 bound_to 7965
  145.4333  139.1546  143.4010 LP  0  0  0  0  0  0  0  0  0  0  0  0  # atno 17321 bound_to 7965
  140.6563  143.2239  151.5960 LP  0  0  0  0  0  0  0  0  0  0  0  0  # atno 17342 bound_to 10162
  139.5325  144.2874  152.1180 LP  0  0  0  0  0  0  0  0  0  0  0  0  # atno 17343 bound_to 10162
  156.1045  130.5994  150.9949 LP  0  0  0  0  0  0  0  0  0  0  0  0  # atno 17370 bound_to 10713
  157.6507  131.0897  150.8058 LP  0  0  0  0  0  0  0  0  0  0  0  0  # atno 17371 bound_to 10713
  140.5390  134.6139  157.5374 LP  0  0  0  0  0  0  0  0  0  0  0  0  # atno 17394 bound_to 11000
  139.9664  134.7366  156.0130 LP  0  0  0  0  0  0  0  0  0  0  0  0  # atno 17395 bound_to 11000

$$$$
