AV-unprocessed.smi:441|AV-procd|sdf|2582|dock5
  -GOLD-   2262022573D 1   1.00000     0.00000
 Structure written by MMmdl.
 34 35  0  0  0  0  0  0  0  0  1 V2000
  152.4922  140.2049  157.1429 O   0  0  0  0  0  0  0  0  0  0  0  0
  151.5223  140.8387  156.7242 C   0  0  0  0  0  0  0  0  0  0  0  0
  150.5652  140.2229  155.6930 C   0  0  0  0  0  0  0  0  0  0  0  0
  149.1912  140.7379  155.7913 N   0  0  0  0  0  0  0  0  0  0  0  0
  148.5730  140.4694  157.0002 N   0  0  0  0  0  0  0  0  0  0  0  0
  147.3723  140.8890  157.2056 C   0  0  0  0  0  0  0  0  0  0  0  0
  146.6354  141.6341  156.2089 C   0  0  0  0  0  0  0  0  0  0  0  0
  145.0267  142.1710  156.5419 Cl  0  0  0  0  0  0  0  0  0  0  0  0
  147.2482  141.8865  155.0251 C   0  0  0  0  0  0  0  0  0  0  0  0
  146.4300  142.7702  153.7826 Cl  0  0  0  0  0  0  0  0  0  0  0  0
  148.6168  141.4240  154.7556 C   0  0  0  0  0  0  0  0  0  0  0  0
  149.2066  141.6310  153.6942 O   0  0  0  0  0  0  0  0  0  0  0  0
  151.2429  142.0935  157.1086 N   0  0  0  0  0  0  0  0  0  0  0  0
  152.0147  142.8735  158.0716 C   0  0  0  0  0  0  0  0  0  0  0  0
  152.0220  142.1515  159.4324 C   0  0  0  0  0  0  0  0  0  0  0  0
  152.7738  142.9656  160.4980 C   0  0  0  0  0  0  0  0  0  0  0  0
  152.1912  144.3812  160.6319 C   0  0  0  0  0  0  0  0  0  0  0  0
  152.1858  145.1083  159.2783 C   0  0  0  0  0  0  0  0  0  0  0  0
  151.4345  144.2965  158.2107 C   0  0  0  0  0  0  0  0  0  0  0  0
  150.9545  140.3902  154.6869 H   0  0  0  0  0  0  0  0  0  0  0  0
  150.5729  139.1404  155.8319 H   0  0  0  0  0  0  0  0  0  0  0  0
  146.8469  140.7041  158.1427 H   0  0  0  0  0  0  0  0  0  0  0  0
  150.4299  142.5403  156.7100 H   0  0  0  0  0  0  0  0  0  0  0  0
  153.0469  142.9460  157.7232 H   0  0  0  0  0  0  0  0  0  0  0  0
  150.9973  141.9807  159.7661 H   0  0  0  0  0  0  0  0  0  0  0  0
  152.4824  141.1679  159.3313 H   0  0  0  0  0  0  0  0  0  0  0  0
  152.7284  142.4524  161.4589 H   0  0  0  0  0  0  0  0  0  0  0  0
  153.8294  143.0287  160.2311 H   0  0  0  0  0  0  0  0  0  0  0  0
  151.1734  144.3222  161.0197 H   0  0  0  0  0  0  0  0  0  0  0  0
  152.7672  144.9533  161.3596 H   0  0  0  0  0  0  0  0  0  0  0  0
  151.7289  146.0922  159.3865 H   0  0  0  0  0  0  0  0  0  0  0  0
  153.2123  145.2788  158.9511 H   0  0  0  0  0  0  0  0  0  0  0  0
  151.4841  144.8198  157.2552 H   0  0  0  0  0  0  0  0  0  0  0  0
  150.3782  144.2406  158.4771 H   0  0  0  0  0  0  0  0  0  0  0  0
  1  2  2  0  0  0  0
  2  3  1  0  0  0  0
  2 13  1  0  0  0  0
  3  4  1  0  0  0  0
  3 20  1  0  0  0  0
  3 21  1  0  0  0  0
  4 11  1  0  0  0  0
  4  5  1  0  0  0  0
  5  6  2  0  0  0  0
  6  7  1  0  0  0  0
  6 22  1  0  0  0  0
  7  8  1  0  0  0  0
  7  9  2  0  0  0  0
  9 10  1  0  0  0  0
  9 11  1  0  0  0  0
 11 12  2  0  0  0  0
 13 14  1  0  0  0  0
 13 23  1  0  0  0  0
 14 19  1  0  0  0  0
 14 15  1  0  0  0  0
 14 24  1  0  0  0  0
 15 16  1  0  0  0  0
 15 25  1  0  0  0  0
 15 26  1  0  0  0  0
 16 17  1  0  0  0  0
 16 27  1  0  0  0  0
 16 28  1  0  0  0  0
 17 18  1  0  0  0  0
 17 29  1  0  0  0  0
 17 30  1  0  0  0  0
 18 19  1  0  0  0  0
 18 31  1  0  0  0  0
 18 32  1  0  0  0  0
 19 33  1  0  0  0  0
 19 34  1  0  0  0  0
M  END
> <s_m_source_file>
AV-unprocessed.smi

> <i_m_source_file_index>
441

> <i_lp_mmshare_version>
43012

> <i_f3d_flags>
0

> <s_epik_input>
W0NIMl0xW0NIMl1bQ0gyXVtDSDJdW0NIMl1bQ0hdMVtOSF1DKD1PKVtDSDJdbjJuW2NIXWMoQ2wpYyhDbCljMj1P

> <s_epik_cmdline>
J2VwaWtfcHl0aG9uJywgJy1waCcsICc3LjAnLCAnLXRuJywgJzgnLCAnLW1hJywgJzIwMCcsICctbWV0YWxfYmluZGluZycsICctaW1hZScsICc8aW5maWxlLm1hZT4nLCAnLW9tYWUnLCAnPG91dGZpbGUubWFlPic=

> <r_lp_tautomer_probability>
1

> <r_epik_Ionization_Penalty>
1.90776e-08

> <r_epik_Ionization_Penalty_Charging>
3.07389e-11

> <r_epik_Ionization_Penalty_Neutral>
1.90469e-08

> <r_epik_State_Penalty>
-0

> <r_epik_Charging_Adjusted_Penalty>
3.07389e-11

> <i_epik_Tot_Q>
0

> <i_epik_Tot_abs_Q>
0

> <r_epik_Metal_State_Penalty>
-0

> <b_epik_Metal_Only>
0

> <s_lp_Force_Field>
OPLS_2005

> <r_lp_Energy>
22.7857

> <b_lp_Chiralities_Consistent>
1

> <s_lp_Variant>
AV-unprocessed.smi:441-1

> <Gold.Version>
5.8.1

> <Gold.Id.Protein>
6NUR|6NUR_protein|mol2

> <Gold.PLP.Fitness>
44.3188

> <Gold.PLP.PLP>
-39.9705

> <Gold.PLP.part.hbond>
-2.8741

> <Gold.PLP.part.metal>
0.0000

> <Gold.PLP.part.buried>
-3.7721

> <Gold.PLP.part.nonpolar>
-31.4521

> <Gold.PLP.part.repulsive>
0.9965

> <Gold.PLP.ligand.clash>
0.0000

> <Gold.PLP.ligand.torsion>
0.3842

> <Gold.PLP.Chemscore.Hbond>
1.7040

> <Gold.PLP.Chemscore.CHOScore>
0.0000

> <Gold.PLP.Chemscore.Metal>
0.0000

> <Gold.Chemscore.Hbonds>
donor molecule, donor type, donor heavy atom, donor atom, acceptor molecule, acceptor atom, score
      P1  H  7997  8009       L1     1  1.00
      P1  H  8011  8017       L1    12  0.70

> <Gold.PLP.Chemscore.Internal.Correction>
0.0047

> <Gold.Rescore>
     Score         DG    S(hbond)    S(metal)    S(lipo)     H(rot)  DE(clash)    DE(int)     intcor
     17.32     -18.08       1.74        0.00      91.11       1.51       0.34       0.42       ----

> <Gold.Chemscore.Fitness>
17.3220

> <Gold.Chemscore.DG>
-18.0790

> <Gold.Chemscore.ZeroCoef>
-5.4800

> <Gold.Chemscore.Hbond>
1.7395

> <Gold.Chemscore.Metal>
0.0000

> <Gold.Chemscore.Lipo>
91.1055

> <Gold.Chemscore.Internal_Hbond>
0.0000

> <Gold.Chemscore.DEClash>
0.3393

> <Gold.Chemscore.DEInternal>
0.4178

> <Gold.Chemscore.Rot>
1.5118

> <Gold.Chemscore.Internal.Correction>
   9.000000E+99

> <Gold.Chemscore.Hbonds>
donor molecule, donor type, donor heavy atom, donor atom, acceptor molecule, acceptor atom, score
      P1  H  7997  8009       L1     1  0.95
      P1  H  8011  8017       L1    12  0.70

> <Gold.Chemscore.Hbond.Weighted>
-5.8099

> <Gold.Chemscore.Metal.Weighted>
-0.0000

> <Gold.Chemscore.Lipo.Weighted>
-10.6593

> <Gold.Chemscore.Internal_Hbond.Weighted>
0.0000

> <Gold.Chemscore.DEClash.Weighted>
0.3393

> <Gold.Chemscore.DEInternal.Weighted>
0.4178

> <Gold.Chemscore.Rot.Weighted>
3.8702

> <Gold.Chemscore.Internal.Correction.Weighted>
   9.000000E+99

> <Gold.Protein.RotatedTorsions>
[ 6907 6896 6895 6894 ] final  133.38 input  -60.11 | X-H torsion
[ 7974 7965 7964 7962 ] final   45.24 input  175.53 | X-H torsion
[ 8008 7997 7996 7995 ] final -179.06 input   59.86 | X-H torsion
[ 10167 10162 10161 10158 ] final  -96.22 input  -65.29 | X-H torsion
[ 10718 10713 10712 10709 ] final   84.37 input   66.30 | X-H torsion
[ 10763 10752 10751 10750 ] final   62.95 input  -60.55 | X-H torsion
[ 11005 11000 10999 10996 ] final -164.04 input  -57.11 | X-H torsion

> <Gold.Protein.ActiveResidues>
 VAL166  LYS551  ARG553  GLY616  TRP617  ASP618  TYR619  PRO620  LYS621  CYS622 
 ASP623  PHE694  ASN695  SER759  ASP760  ASP761  ALA762  ILE779  LEU786  VAL792 
 PHE793  MET794  SER795  GLU796  ALA797  LYS798  CYS799  TRP800  GLU811  SER814 

> <Gold.Protein.RotatedAtoms>
  152.3225  133.5869  159.5754 H   0  0  0  0  0  0  0  0  0  0  0  0  # atno 6907 bound_to 6896
  150.7379  133.9989  159.3640 H   0  0  0  0  0  0  0  0  0  0  0  0  # atno 6908 bound_to 6896
  151.7872  135.0746  160.0433 H   0  0  0  0  0  0  0  0  0  0  0  0  # atno 6909 bound_to 6896
  146.0498  139.4986  142.9726 H   0  0  0  0  0  0  0  0  0  0  0  0  # atno 7974 bound_to 7965
  156.0261  140.1272  157.0307 H   0  0  0  0  0  0  0  0  0  0  0  0  # atno 8008 bound_to 7997
  154.4331  140.1059  156.6103 H   0  0  0  0  0  0  0  0  0  0  0  0  # atno 8009 bound_to 7997
  155.5874  140.3469  155.4559 H   0  0  0  0  0  0  0  0  0  0  0  0  # atno 8010 bound_to 7997
  140.2961  143.3191  152.0296 H   0  0  0  0  0  0  0  0  0  0  0  0  # atno 10167 bound_to 10162
  157.6897  131.0130  150.2663 H   0  0  0  0  0  0  0  0  0  0  0  0  # atno 10718 bound_to 10713
  153.0000  135.5447  154.6274 H   0  0  0  0  0  0  0  0  0  0  0  0  # atno 10763 bound_to 10752
  154.5559  135.2830  155.0967 H   0  0  0  0  0  0  0  0  0  0  0  0  # atno 10764 bound_to 10752
  154.2188  135.6454  153.5191 H   0  0  0  0  0  0  0  0  0  0  0  0  # atno 10765 bound_to 10752
  140.5914  134.5041  157.5193 H   0  0  0  0  0  0  0  0  0  0  0  0  # atno 11005 bound_to 11000
  145.6744  141.0208  143.1640 LP  0  0  0  0  0  0  0  0  0  0  0  0  # atno 17320 bound_to 7965
  144.7116  139.8349  143.7412 LP  0  0  0  0  0  0  0  0  0  0  0  0  # atno 17321 bound_to 7965
  139.4926  144.6490  151.6717 LP  0  0  0  0  0  0  0  0  0  0  0  0  # atno 17342 bound_to 10162
  140.5691  144.0139  150.6207 LP  0  0  0  0  0  0  0  0  0  0  0  0  # atno 17343 bound_to 10162
  156.3233  130.3789  149.7555 LP  0  0  0  0  0  0  0  0  0  0  0  0  # atno 17370 bound_to 10713
  156.5118  130.8175  151.3172 LP  0  0  0  0  0  0  0  0  0  0  0  0  # atno 17371 bound_to 10713
  139.9272  134.8032  156.1033 LP  0  0  0  0  0  0  0  0  0  0  0  0  # atno 17394 bound_to 11000
  141.0932  133.6706  156.2587 LP  0  0  0  0  0  0  0  0  0  0  0  0  # atno 17395 bound_to 11000

$$$$
