AV-unprocessed.smi:77|AV-procd|sdf|773|dock8
  -GOLD-   2262017123D 1   1.00000     0.00000
 Structure written by MMmdl.
 57 61  0  0  0  0  0  0  0  0  1 V2000
  150.6215  140.3470  158.2616 O   0  0  0  0  0  0  0  0  0  0  0  0
  151.4229  140.9276  157.5275 C   0  0  0  0  0  0  0  0  0  0  0  0
  152.0246  142.2816  157.9265 C   0  0  0  0  0  0  0  0  0  0  0  0
  151.8636  142.5873  159.3540 N   0  0  0  0  0  0  0  0  0  0  0  0
  152.7871  142.0804  160.2203 C   0  0  0  0  0  0  0  0  0  0  0  0
  153.2411  142.8658  161.2352 N   0  0  0  0  0  0  0  0  0  0  0  0
  154.1471  142.4087  162.1031 C   0  0  0  0  0  0  0  0  0  0  0  0
  154.7293  141.2106  162.1451 N   0  0  0  0  0  0  0  0  0  0  0  0
  154.2808  140.4104  161.1369 C   0  0  0  0  0  0  0  0  0  0  0  0
  153.3219  140.7586  160.1415 C   0  0  0  0  0  0  0  0  0  0  0  0
  153.1181  139.6718  159.2972 N   0  0  0  0  0  0  0  0  0  0  0  0
  153.9077  138.7432  159.7613 C   0  0  0  0  0  0  0  0  0  0  0  0
  154.6402  139.1011  160.8683 N   0  0  0  0  0  0  0  0  0  0  0  0
  155.5905  138.2676  161.5845 C   0  0  0  0  0  0  0  0  0  0  0  0
  154.9629  136.9765  162.1691 C   0  0  2  0  0  0  0  0  0  0  0  0
  154.6841  137.1251  163.6875 C   0  0  0  0  0  0  0  0  0  0  0  0
  155.8779  137.1604  164.4410 O   0  0  0  0  0  0  0  0  0  0  0  0
  155.8683  135.7543  161.8505 C   0  0  1  0  0  0  0  0  0  0  0  0
  155.4666  134.4411  162.5007 C   0  0  0  0  0  0  0  0  0  0  0  0
  156.2200  133.4192  161.6584 C   0  0  0  0  0  0  0  0  0  0  0  0
  156.2348  133.9545  160.3414 O   0  0  0  0  0  0  0  0  0  0  0  0
  155.8797  135.3335  160.3745 C   0  0  0  0  0  0  0  0  0  0  0  0
  151.2260  143.8607  159.6891 C   0  0  0  0  0  0  0  0  0  0  0  0
  151.2481  144.9865  158.6781 C   0  0  0  0  0  0  0  0  0  0  0  0
  152.0917  145.0773  159.9268 C   0  0  0  0  0  0  0  0  0  0  0  0
  151.8317  140.4354  156.3493 N   0  0  0  0  0  0  0  0  0  0  0  0
  151.4151  139.1952  155.7795 C   0  0  0  0  0  0  0  0  0  0  0  0
  152.0744  138.7600  154.4889 C   0  0  0  0  0  0  0  0  0  0  0  0
  150.6499  139.2413  154.4749 C   0  0  0  0  0  0  0  0  0  0  0  0
  153.0732  142.3135  157.6268 H   0  0  0  0  0  0  0  0  0  0  0  0
  151.5306  143.0583  157.3403 H   0  0  0  0  0  0  0  0  0  0  0  0
  154.4468  143.1027  162.8744 H   0  0  0  0  0  0  0  0  0  0  0  0
  153.9748  137.7645  159.3088 H   0  0  0  0  0  0  0  0  0  0  0  0
  156.3917  138.0268  160.8860 H   0  0  0  0  0  0  0  0  0  0  0  0
  156.0456  138.8579  162.3808 H   0  0  0  0  0  0  0  0  0  0  0  0
  154.0046  136.8320  161.6672 H   0  0  0  0  0  0  0  0  0  0  0  0
  154.0953  138.0205  163.8885 H   0  0  0  0  0  0  0  0  0  0  0  0
  154.1140  136.2829  164.0761 H   0  0  0  0  0  0  0  0  0  0  0  0
  156.3780  137.9169  164.1752 H   0  0  0  0  0  0  0  0  0  0  0  0
  156.8932  135.9809  162.1497 H   0  0  0  0  0  0  0  0  0  0  0  0
  155.7356  134.3805  163.5555 H   0  0  0  0  0  0  0  0  0  0  0  0
  154.3911  134.2818  162.4093 H   0  0  0  0  0  0  0  0  0  0  0  0
  157.2492  133.3247  162.0072 H   0  0  0  0  0  0  0  0  0  0  0  0
  155.7596  132.4313  161.6857 H   0  0  0  0  0  0  0  0  0  0  0  0
  154.8873  135.4381  159.9340 H   0  0  0  0  0  0  0  0  0  0  0  0
  156.5757  135.9250  159.7792 H   0  0  0  0  0  0  0  0  0  0  0  0
  150.3307  143.7891  160.3043 H   0  0  0  0  0  0  0  0  0  0  0  0
  151.7654  144.8140  157.7362 H   0  0  0  0  0  0  0  0  0  0  0  0
  150.3669  145.6215  158.6168 H   0  0  0  0  0  0  0  0  0  0  0  0
  151.7736  145.7739  160.6996 H   0  0  0  0  0  0  0  0  0  0  0  0
  153.1681  144.9765  159.8069 H   0  0  0  0  0  0  0  0  0  0  0  0
  152.4925  140.9808  155.8149 H   0  0  0  0  0  0  0  0  0  0  0  0
  151.1433  138.3950  156.4669 H   0  0  0  0  0  0  0  0  0  0  0  0
  152.8295  139.4139  154.0565 H   0  0  0  0  0  0  0  0  0  0  0  0
  152.2458  137.6947  154.3480 H   0  0  0  0  0  0  0  0  0  0  0  0
  149.8693  138.4979  154.3258 H   0  0  0  0  0  0  0  0  0  0  0  0
  150.4532  140.2169  154.0339 H   0  0  0  0  0  0  0  0  0  0  0  0
  1  2  2  0  0  0  0
  2  3  1  0  0  0  0
  2 26  1  0  0  0  0
  3  4  1  0  0  0  0
  3 30  1  0  0  0  0
  3 31  1  0  0  0  0
  4  5  1  0  0  0  0
  4 23  1  0  0  0  0
  5 10  1  0  0  0  0
  5  6  2  0  0  0  0
  6  7  1  0  0  0  0
  7  8  2  0  0  0  0
  7 32  1  0  0  0  0
  8  9  1  0  0  0  0
  9 13  1  0  0  0  0
  9 10  2  0  0  0  0
 10 11  1  0  0  0  0
 11 12  2  0  0  0  0
 12 13  1  0  0  0  0
 12 33  1  0  0  0  0
 13 14  1  0  0  0  0
 14 15  1  0  0  0  0
 14 34  1  0  0  0  0
 14 35  1  0  0  0  0
 15 16  1  0  0  0  0
 15 18  1  0  0  0  0
 15 36  1  0  0  0  0
 16 17  1  0  0  0  0
 16 37  1  0  0  0  0
 16 38  1  0  0  0  0
 17 39  1  0  0  0  0
 18 22  1  0  0  0  0
 18 19  1  0  0  0  0
 18 40  1  0  0  0  0
 19 20  1  0  0  0  0
 19 41  1  0  0  0  0
 19 42  1  0  0  0  0
 20 21  1  0  0  0  0
 20 43  1  0  0  0  0
 20 44  1  0  0  0  0
 21 22  1  0  0  0  0
 22 45  1  0  0  0  0
 22 46  1  0  0  0  0
 23 25  1  0  0  0  0
 23 24  1  0  0  0  0
 23 47  1  0  0  0  0
 24 25  1  0  0  0  0
 24 48  1  0  0  0  0
 24 49  1  0  0  0  0
 25 50  1  0  0  0  0
 25 51  1  0  0  0  0
 26 27  1  0  0  0  0
 26 52  1  0  0  0  0
 27 29  1  0  0  0  0
 27 28  1  0  0  0  0
 27 53  1  0  0  0  0
 28 29  1  0  0  0  0
 28 54  1  0  0  0  0
 28 55  1  0  0  0  0
 29 56  1  0  0  0  0
 29 57  1  0  0  0  0
M  END
> <s_m_source_file>
AV-unprocessed.smi

> <i_m_source_file_index>
77

> <i_lp_mmshare_version>
43012

> <i_f3d_flags>
0

> <s_epik_input>
W0NIMl0xW0NIMl1bQ0hdMVtOSF1DKD1PKVtDSDJdTihbQ0hdMltDSDJdW0NIMl0yKWMobltjSF1uMyljKGMzNCluW2NIXW40W0NIMl1bQ0BIXShbQ0gyXVtPSF0pW0NAQEhdNVtDSDJdW0NIMl1PW0NIMl01

> <s_epik_cmdline>
J2VwaWtfcHl0aG9uJywgJy1waCcsICc3LjAnLCAnLXRuJywgJzgnLCAnLW1hJywgJzIwMCcsICctbWV0YWxfYmluZGluZycsICctaW1hZScsICc8aW5maWxlLm1hZT4nLCAnLW9tYWUnLCAnPG91dGZpbGUubWFlPic=

> <r_lp_tautomer_probability>
1

> <r_epik_Ionization_Penalty>
0.000703847

> <r_epik_Ionization_Penalty_Charging>
0

> <r_epik_Ionization_Penalty_Neutral>
0.000703847

> <r_epik_State_Penalty>
0.00034025

> <r_epik_Charging_Adjusted_Penalty>
0.00034025

> <i_epik_Tot_Q>
0

> <i_epik_Tot_abs_Q>
0

> <r_epik_Metal_State_Penalty>
-0

> <b_epik_Metal_Only>
0

> <s_lp_Force_Field>
OPLS_2005

> <r_lp_Energy>
53.8068

> <b_lp_Chiralities_Consistent>
1

> <s_lp_Variant>
AV-unprocessed.smi:77-3

> <Gold.Version>
5.8.1

> <Gold.Id.Protein>
6NUR|6NUR_protein|mol2

> <Gold.PLP.Fitness>
50.2446

> <Gold.PLP.PLP>
-52.5862

> <Gold.PLP.part.hbond>
-1.2719

> <Gold.PLP.part.metal>
0.0000

> <Gold.PLP.part.buried>
-6.1921

> <Gold.PLP.part.nonpolar>
-43.6767

> <Gold.PLP.part.repulsive>
0.1900

> <Gold.PLP.ligand.clash>
0.0000

> <Gold.PLP.ligand.torsion>
1.9389

> <Gold.PLP.Chemscore.Hbond>
0.0000

> <Gold.PLP.Chemscore.CHOScore>
0.0000

> <Gold.PLP.Chemscore.Metal>
0.0000

> <Gold.PLP.Chemscore.Internal.Correction>
1.5362

> <Gold.Rescore>
     Score         DG    S(hbond)    S(metal)    S(lipo)     H(rot)  DE(clash)    DE(int)     intcor
      7.14     -10.07       0.00        0.00     115.13       3.47       0.15       2.78       ----

> <Gold.Chemscore.Fitness>
7.1369

> <Gold.Chemscore.DG>
-10.0678

> <Gold.Chemscore.ZeroCoef>
-5.4800

> <Gold.Chemscore.Hbond>
0.0000

> <Gold.Chemscore.Metal>
0.0000

> <Gold.Chemscore.Lipo>
115.1258

> <Gold.Chemscore.Internal_Hbond>
0.0000

> <Gold.Chemscore.DEClash>
0.1517

> <Gold.Chemscore.DEInternal>
2.7792

> <Gold.Chemscore.Rot>
3.4695

> <Gold.Chemscore.Internal.Correction>
   9.000000E+99

> <Gold.Chemscore.Hbond.Weighted>
-0.0000

> <Gold.Chemscore.Metal.Weighted>
-0.0000

> <Gold.Chemscore.Lipo.Weighted>
-13.4697

> <Gold.Chemscore.Internal_Hbond.Weighted>
0.0000

> <Gold.Chemscore.DEClash.Weighted>
0.1517

> <Gold.Chemscore.DEInternal.Weighted>
2.7792

> <Gold.Chemscore.Rot.Weighted>
8.8820

> <Gold.Chemscore.Internal.Correction.Weighted>
   9.000000E+99

> <Gold.Protein.RotatedTorsions>
[ 6907 6896 6895 6894 ] final  -52.33 input  -60.11 | X-H torsion
[ 7974 7965 7964 7962 ] final    4.85 input  175.53 | X-H torsion
[ 8008 7997 7996 7995 ] final   36.99 input   59.86 | X-H torsion
[ 10167 10162 10161 10158 ] final -172.25 input  -65.29 | X-H torsion
[ 10718 10713 10712 10709 ] final -167.05 input   66.30 | X-H torsion
[ 10763 10752 10751 10750 ] final   -1.67 input  -60.55 | X-H torsion
[ 11005 11000 10999 10996 ] final -100.87 input  -57.11 | X-H torsion

> <Gold.Protein.ActiveResidues>
 VAL166  LYS551  ARG553  GLY616  TRP617  ASP618  TYR619  PRO620  LYS621  CYS622 
 ASP623  PHE694  ASN695  SER759  ASP760  ASP761  ALA762  ILE779  LEU786  VAL792 
 PHE793  MET794  SER795  GLU796  ALA797  LYS798  CYS799  TRP800  GLU811  SER814 

> <Gold.Protein.RotatedAtoms>
  150.8528  134.7858  159.7021 H   0  0  0  0  0  0  0  0  0  0  0  0  # atno 6907 bound_to 6896
  152.4588  134.5228  159.9797 H   0  0  0  0  0  0  0  0  0  0  0  0  # atno 6908 bound_to 6896
  151.5346  133.3405  159.2960 H   0  0  0  0  0  0  0  0  0  0  0  0  # atno 6909 bound_to 6896
  146.2443  140.0473  142.8377 H   0  0  0  0  0  0  0  0  0  0  0  0  # atno 7974 bound_to 7965
  155.1964  140.3312  155.4350 H   0  0  0  0  0  0  0  0  0  0  0  0  # atno 8008 bound_to 7997
  156.2423  140.1901  156.7003 H   0  0  0  0  0  0  0  0  0  0  0  0  # atno 8009 bound_to 7997
  154.6171  140.0600  156.9554 H   0  0  0  0  0  0  0  0  0  0  0  0  # atno 8010 bound_to 7997
  139.5755  144.1542  152.1444 H   0  0  0  0  0  0  0  0  0  0  0  0  # atno 10167 bound_to 10162
  156.6768  130.9106  151.3051 H   0  0  0  0  0  0  0  0  0  0  0  0  # atno 10718 bound_to 10713
  153.3479  135.6984  153.6812 H   0  0  0  0  0  0  0  0  0  0  0  0  # atno 10763 bound_to 10752
  153.5551  135.3546  155.2776 H   0  0  0  0  0  0  0  0  0  0  0  0  # atno 10764 bound_to 10752
  154.8648  135.4236  154.2708 H   0  0  0  0  0  0  0  0  0  0  0  0  # atno 10765 bound_to 10752
  141.1254  133.8433  157.1158 H   0  0  0  0  0  0  0  0  0  0  0  0  # atno 11005 bound_to 11000
  145.1016  140.9349  143.4709 LP  0  0  0  0  0  0  0  0  0  0  0  0  # atno 17320 bound_to 7965
  145.0667  139.3063  143.5853 LP  0  0  0  0  0  0  0  0  0  0  0  0  # atno 17321 bound_to 7965
  140.1084  144.5478  150.6941 LP  0  0  0  0  0  0  0  0  0  0  0  0  # atno 17342 bound_to 10162
  140.7038  143.2453  151.4787 LP  0  0  0  0  0  0  0  0  0  0  0  0  # atno 17343 bound_to 10162
  157.7058  130.9383  150.0926 LP  0  0  0  0  0  0  0  0  0  0  0  0  # atno 17370 bound_to 10713
  156.1897  130.3654  149.8926 LP  0  0  0  0  0  0  0  0  0  0  0  0  # atno 17371 bound_to 10713
  140.0247  134.9929  157.0662 LP  0  0  0  0  0  0  0  0  0  0  0  0  # atno 17394 bound_to 11000
  140.4382  134.1709  155.7172 LP  0  0  0  0  0  0  0  0  0  0  0  0  # atno 17395 bound_to 11000

$$$$
