AV-unprocessed.smi:3056|AV-procd|sdf|11646|dock5
  -GOLD-   2272017 43D 1   1.00000     0.00000
 Structure written by MMmdl.
 48 49  0  0  0  0  0  0  0  0  2 V2000
  145.5726  131.7745  149.9228 C   0  0  0  0  0  0  0  0  0  0  0  0
  145.6942  132.5009  151.2307 C   0  0  0  0  0  0  0  0  0  0  0  0
  144.6922  132.6869  152.2243 C   0  0  0  0  0  0  0  0  0  0  0  0
  145.1187  133.3946  153.2573 N   0  0  0  0  0  0  0  0  0  0  0  0
  146.4091  133.6734  152.9716 N   0  0  0  0  0  0  0  0  0  0  0  0
  147.1883  134.4961  153.8907 C   0  0  1  0  0  0  0  0  0  0  0  0
  146.3240  134.8857  155.1056 C   0  0  0  0  0  0  0  0  0  0  0  0
  148.5141  133.7857  154.2728 C   0  0  2  0  0  0  0  0  0  0  0  0
  148.4134  133.0279  155.6108 C   0  0  0  0  0  0  0  0  0  0  0  0
  149.6161  134.7783  154.3431 N   0  3  0  0  0  0  0  0  0  0  0  0
  149.7805  135.4771  155.6397 C   0  0  0  0  0  0  0  0  0  0  0  0
  151.0826  136.2913  155.7369 C   0  0  0  0  0  0  0  0  0  0  0  0
  151.9960  135.8683  156.4466 O   0  0  0  0  0  0  0  0  0  0  0  0
  151.1905  137.4457  155.0369 N   0  0  0  0  0  0  0  0  0  0  0  0
  152.3220  138.3780  155.0758 C   0  0  0  0  0  0  0  0  0  0  0  0
  151.8246  139.7246  155.6301 C   0  0  0  0  0  0  0  0  0  0  0  0
  150.7564  140.2122  154.8223 O   0  0  0  0  0  0  0  0  0  0  0  0
  149.6456  139.3200  154.7573 C   0  0  1  0  0  0  0  0  0  0  0  0
  148.5598  139.9677  153.8913 C   0  0  0  0  0  0  0  0  0  0  0  0
  150.1189  137.9692  154.1842 C   0  0  0  0  0  0  0  0  0  0  0  0
  146.7786  133.1507  151.7479 C   0  0  0  0  0  0  0  0  0  0  0  0
  144.7585  131.0496  149.9365 H   0  0  0  0  0  0  0  0  0  0  0  0
  146.4838  131.2291  149.6771 H   0  0  0  0  0  0  0  0  0  0  0  0
  145.3769  132.4624  149.0999 H   0  0  0  0  0  0  0  0  0  0  0  0
  143.6700  132.3379  152.2204 H   0  0  0  0  0  0  0  0  0  0  0  0
  147.4364  135.4226  153.3688 H   0  0  0  0  0  0  0  0  0  0  0  0
  146.8049  135.6527  155.7122 H   0  0  0  0  0  0  0  0  0  0  0  0
  146.1241  134.0285  155.7492 H   0  0  0  0  0  0  0  0  0  0  0  0
  145.3638  135.2930  154.7867 H   0  0  0  0  0  0  0  0  0  0  0  0
  148.7456  133.0653  153.4866 H   0  0  0  0  0  0  0  0  0  0  0  0
  147.6849  132.2192  155.5612 H   0  0  0  0  0  0  0  0  0  0  0  0
  148.1175  133.6944  156.4216 H   0  0  0  0  0  0  0  0  0  0  0  0
  149.3622  132.5711  155.8906 H   0  0  0  0  0  0  0  0  0  0  0  0
  150.4840  134.2968  154.1511 H   0  0  0  0  0  0  0  0  0  0  0  0
  148.9440  136.1682  155.7464 H   0  0  0  0  0  0  0  0  0  0  0  0
  149.7168  134.7615  156.4589 H   0  0  0  0  0  0  0  0  0  0  0  0
  153.1608  138.0328  155.6772 H   0  0  0  0  0  0  0  0  0  0  0  0
  152.7117  138.5104  154.0654 H   0  0  0  0  0  0  0  0  0  0  0  0
  151.4927  139.6214  156.6645 H   0  0  0  0  0  0  0  0  0  0  0  0
  152.6322  140.4567  155.6251 H   0  0  0  0  0  0  0  0  0  0  0  0
  149.2483  139.1736  155.7634 H   0  0  0  0  0  0  0  0  0  0  0  0
  147.6785  139.3293  153.8247 H   0  0  0  0  0  0  0  0  0  0  0  0
  148.9192  140.1505  152.8782 H   0  0  0  0  0  0  0  0  0  0  0  0
  148.2456  140.9237  154.3108 H   0  0  0  0  0  0  0  0  0  0  0  0
  150.5003  138.0994  153.1702 H   0  0  0  0  0  0  0  0  0  0  0  0
  149.2718  137.2869  154.1016 H   0  0  0  0  0  0  0  0  0  0  0  0
  147.7698  133.2904  151.3423 H   0  0  0  0  0  0  0  0  0  0  0  0
  149.4656  135.4626  153.6159 H   0  0  0  0  0  0  0  0  0  0  0  0
  1  2  1  0  0  0  0
  1 22  1  0  0  0  0
  1 23  1  0  0  0  0
  1 24  1  0  0  0  0
  2 21  2  0  0  0  0
  2  3  1  0  0  0  0
  3  4  2  0  0  0  0
  3 25  1  0  0  0  0
  4  5  1  0  0  0  0
  5  6  1  0  0  0  0
  5 21  1  0  0  0  0
  6  7  1  0  0  0  0
  6  8  1  0  0  0  0
  6 26  1  0  0  0  0
  7 27  1  0  0  0  0
  7 28  1  0  0  0  0
  7 29  1  0  0  0  0
  8  9  1  0  0  0  0
  8 10  1  0  0  0  0
  8 30  1  0  0  0  0
  9 31  1  0  0  0  0
  9 32  1  0  0  0  0
  9 33  1  0  0  0  0
 10 11  1  0  0  0  0
 10 34  1  0  0  0  0
 10 48  1  0  0  0  0
 11 12  1  0  0  0  0
 11 35  1  0  0  0  0
 11 36  1  0  0  0  0
 12 13  2  0  0  0  0
 12 14  1  0  0  0  0
 14 20  1  0  0  0  0
 14 15  1  0  0  0  0
 15 16  1  0  0  0  0
 15 37  1  0  0  0  0
 15 38  1  0  0  0  0
 16 17  1  0  0  0  0
 16 39  1  0  0  0  0
 16 40  1  0  0  0  0
 17 18  1  0  0  0  0
 18 19  1  0  0  0  0
 18 20  1  0  0  0  0
 18 41  1  0  0  0  0
 19 42  1  0  0  0  0
 19 43  1  0  0  0  0
 19 44  1  0  0  0  0
 20 45  1  0  0  0  0
 20 46  1  0  0  0  0
 21 47  1  0  0  0  0
M  CHG  1  10   1
M  END
> <s_m_source_file>
AV-unprocessed.smi

> <i_m_source_file_index>
3056

> <i_lp_mmshare_version>
43012

> <i_f3d_flags>
0

> <s_epik_input>
W0NIM11jMVtjSF1ubihbY0hdMSlbQ0BIXShbQ0gzXSlbQ0BIXShbQ0gzXSlbTkhdW0NIMl1DKD1PKU4yW0NIMl1bQ0gyXU9bQ0BASF0oW0NIM10pW0NIMl0y

> <s_epik_cmdline>
J2VwaWtfcHl0aG9uJywgJy1waCcsICc3LjAnLCAnLXRuJywgJzgnLCAnLW1hJywgJzIwMCcsICctbWV0YWxfYmluZGluZycsICctaW1hZScsICc8aW5maWxlLm1hZT4nLCAnLW9tYWUnLCAnPG91dGZpbGUubWFlPic=

> <r_lp_tautomer_probability>
1

> <r_epik_Ionization_Penalty>
0.233715

> <r_epik_Ionization_Penalty_Charging>
0.233698

> <r_epik_Ionization_Penalty_Neutral>
1.68157e-05

> <r_epik_State_Penalty>
0.225221

> <r_epik_Charging_Adjusted_Penalty>
0.458919

> <i_epik_Tot_Q>
1

> <i_epik_Tot_abs_Q>
1

> <r_epik_Metal_State_Penalty>
0.225535

> <b_epik_Metal_Only>
0

> <s_lp_Force_Field>
OPLS_2005

> <r_lp_Energy>
27.0437

> <b_lp_Chiralities_Consistent>
1

> <s_lp_Variant>
AV-unprocessed.smi:3056-2

> <Gold.Version>
5.8.1

> <Gold.Id.Protein>
6NUR|6NUR_protein|mol2

> <Gold.PLP.Fitness>
42.9206

> <Gold.PLP.PLP>
-33.9646

> <Gold.PLP.part.hbond>
-3.0151

> <Gold.PLP.part.metal>
0.0000

> <Gold.PLP.part.buried>
-1.4955

> <Gold.PLP.part.nonpolar>
-29.8959

> <Gold.PLP.part.repulsive>
0.1917

> <Gold.PLP.ligand.clash>
0.0000

> <Gold.PLP.ligand.torsion>
1.4546

> <Gold.PLP.Chemscore.Hbond>
3.9000

> <Gold.PLP.Chemscore.CHOScore>
0.0023

> <Gold.PLP.Chemscore.Metal>
0.0000

> <Gold.Chemscore.Hbonds>
donor molecule, donor type, donor heavy atom, donor atom, acceptor molecule, acceptor atom, score
      L1  H    10    48       P1  7948  1.90
      P1  H  7989  7998       L1    17  1.00
      P1  H 10752 10765       L1    13  1.00
      L1  C     3    25       P1 10957  0.07
      L1  C    21    47       P1 10747  0.04

> <Gold.PLP.Chemscore.Internal.Correction>
0.1584

> <Gold.Rescore>
     Score         DG    S(hbond)    S(metal)    S(lipo)     H(rot)  DE(clash)    DE(int)     intcor
     12.61     -14.31       1.08        0.00      82.53       1.74       0.58       1.12       ----

> <Gold.Chemscore.Fitness>
12.6066

> <Gold.Chemscore.DG>
-14.3099

> <Gold.Chemscore.ZeroCoef>
-5.4800

> <Gold.Chemscore.Hbond>
1.0827

> <Gold.Chemscore.Metal>
0.0000

> <Gold.Chemscore.Lipo>
82.5338

> <Gold.Chemscore.Internal_Hbond>
0.0000

> <Gold.Chemscore.DEClash>
0.5820

> <Gold.Chemscore.DEInternal>
1.1213

> <Gold.Chemscore.Rot>
1.7354

> <Gold.Chemscore.Internal.Correction>
   9.000000E+99

> <Gold.Chemscore.Hbonds>
donor molecule, donor type, donor heavy atom, donor atom, acceptor molecule, acceptor atom, score
      L1  H    10    48       P1  7948  0.21
      P1  H  7989  7998       L1    17  0.30
      P1  H 10752 10765       L1    13  0.45

> <Gold.Chemscore.Hbond.Weighted>
-3.6161

> <Gold.Chemscore.Metal.Weighted>
-0.0000

> <Gold.Chemscore.Lipo.Weighted>
-9.6565

> <Gold.Chemscore.Internal_Hbond.Weighted>
0.0000

> <Gold.Chemscore.DEClash.Weighted>
0.5820

> <Gold.Chemscore.DEInternal.Weighted>
1.1213

> <Gold.Chemscore.Rot.Weighted>
4.4426

> <Gold.Chemscore.Internal.Correction.Weighted>
   9.000000E+99

> <Gold.Protein.RotatedTorsions>
[ 6907 6896 6895 6894 ] final  110.28 input  -60.11 | X-H torsion
[ 7974 7965 7964 7962 ] final  119.22 input  175.53 | X-H torsion
[ 8008 7997 7996 7995 ] final   60.96 input   59.86 | X-H torsion
[ 10167 10162 10161 10158 ] final  -13.84 input  -65.29 | X-H torsion
[ 10718 10713 10712 10709 ] final  -97.71 input   66.30 | X-H torsion
[ 10763 10752 10751 10750 ] final -134.15 input  -60.55 | X-H torsion
[ 11005 11000 10999 10996 ] final  171.47 input  -57.11 | X-H torsion

> <Gold.Protein.ActiveResidues>
 VAL166  LYS551  ARG553  GLY616  TRP617  ASP618  TYR619  PRO620  LYS621  CYS622 
 ASP623  PHE694  ASN695  SER759  ASP760  ASP761  ALA762  ILE779  LEU786  VAL792 
 PHE793  MET794  SER795  GLU796  ALA797  LYS798  CYS799  TRP800  GLU811  SER814 

> <Gold.Protein.RotatedAtoms>
  152.5027  133.8823  159.7352 H   0  0  0  0  0  0  0  0  0  0  0  0  # atno 6907 bound_to 6896
  150.9282  133.6789  159.2823 H   0  0  0  0  0  0  0  0  0  0  0  0  # atno 6908 bound_to 6896
  151.4143  135.0994  159.9647 H   0  0  0  0  0  0  0  0  0  0  0  0  # atno 6909 bound_to 6896
  145.1458  139.3240  143.4592 H   0  0  0  0  0  0  0  0  0  0  0  0  # atno 7974 bound_to 7965
  155.5908  140.3493  155.4566 H   0  0  0  0  0  0  0  0  0  0  0  0  # atno 8008 bound_to 7997
  156.0303  140.1273  157.0290 H   0  0  0  0  0  0  0  0  0  0  0  0  # atno 8009 bound_to 7997
  154.4349  140.1044  156.6076 H   0  0  0  0  0  0  0  0  0  0  0  0  # atno 8010 bound_to 7997
  140.7190  143.5384  150.9438 H   0  0  0  0  0  0  0  0  0  0  0  0  # atno 10167 bound_to 10162
  156.0090  130.5206  150.6414 H   0  0  0  0  0  0  0  0  0  0  0  0  # atno 10718 bound_to 10713
  154.8723  135.3743  154.4689 H   0  0  0  0  0  0  0  0  0  0  0  0  # atno 10763 bound_to 10752
  153.5351  135.7027  153.5669 H   0  0  0  0  0  0  0  0  0  0  0  0  # atno 10764 bound_to 10752
  153.3856  135.3985  155.1852 H   0  0  0  0  0  0  0  0  0  0  0  0  # atno 10765 bound_to 10752
  140.3193  134.7451  157.4052 H   0  0  0  0  0  0  0  0  0  0  0  0  # atno 11005 bound_to 11000
  146.3500  140.1512  142.8592 LP  0  0  0  0  0  0  0  0  0  0  0  0  # atno 17320 bound_to 7965
  145.0484  140.8999  143.5010 LP  0  0  0  0  0  0  0  0  0  0  0  0  # atno 17321 bound_to 7965
  139.9106  143.6725  152.3116 LP  0  0  0  0  0  0  0  0  0  0  0  0  # atno 17342 bound_to 10162
  139.7107  144.7620  151.1117 LP  0  0  0  0  0  0  0  0  0  0  0  0  # atno 17343 bound_to 10162
  157.4194  131.0834  151.1146 LP  0  0  0  0  0  0  0  0  0  0  0  0  # atno 17370 bound_to 10713
  157.1753  130.6285  149.5654 LP  0  0  0  0  0  0  0  0  0  0  0  0  # atno 17371 bound_to 10713
  140.0956  134.5542  155.8402 LP  0  0  0  0  0  0  0  0  0  0  0  0  # atno 17394 bound_to 11000
  141.2090  133.6679  156.6410 LP  0  0  0  0  0  0  0  0  0  0  0  0  # atno 17395 bound_to 11000

$$$$
