AV-unprocessed.smi:2352|AV-procd|sdf|9378|dock3
  -GOLD-   2272013 03D 1   1.00000     0.00000
 Structure written by MMmdl.
 37 38  0  0  0  0  0  0  0  0  1 V2000
  156.2273  142.4909  168.4058 C   0  0  0  0  0  0  0  0  0  0  0  0
  156.2338  141.9896  166.9724 C   0  0  0  0  0  0  0  0  0  0  0  0
  155.4683  142.7333  166.0696 N   0  0  0  0  0  0  0  0  0  0  0  0
  155.4116  142.3790  164.8275 C   0  0  0  0  0  0  0  0  0  0  0  0
  156.1030  141.2541  164.3487 N   0  0  0  0  0  0  0  0  0  0  0  0
  155.9536  140.9581  162.9136 C   0  0  0  0  0  0  0  0  0  0  0  0
  154.5386  140.4457  162.5644 C   0  0  2  0  0  0  0  0  0  0  0  0
  154.6613  139.2780  161.7760 O   0  0  0  0  0  0  0  0  0  0  0  0
  153.7333  141.5177  161.8450 C   0  0  0  0  0  0  0  0  0  0  0  0
  153.2882  142.6694  162.5299 C   0  0  0  0  0  0  0  0  0  0  0  0
  152.5383  143.6526  161.8557 C   0  0  0  0  0  0  0  0  0  0  0  0
  152.2243  143.4978  160.4880 C   0  0  0  0  0  0  0  0  0  0  0  0
  151.4072  144.5533  159.7570 C   0  0  0  0  0  0  0  0  0  0  0  0
  150.1093  144.4164  160.0306 F   0  0  0  0  0  0  0  0  0  0  0  0
  151.8034  145.7636  160.1491 F   0  0  0  0  0  0  0  0  0  0  0  0
  151.5666  144.4569  158.4366 F   0  0  0  0  0  0  0  0  0  0  0  0
  152.6589  142.3398  159.8080 C   0  0  0  0  0  0  0  0  0  0  0  0
  153.4088  141.3564  160.4817 C   0  0  0  0  0  0  0  0  0  0  0  0
  156.8804  140.4793  165.1597 C   0  0  0  0  0  0  0  0  0  0  0  0
  157.4951  139.5030  164.7257 O   0  0  0  0  0  0  0  0  0  0  0  0
  156.9317  140.8920  166.5716 C   0  0  0  0  0  0  0  0  0  0  0  0
  157.7819  140.0439  167.5091 C   0  0  0  0  0  0  0  0  0  0  0  0
  155.8355  141.7259  169.0766 H   0  0  0  0  0  0  0  0  0  0  0  0
  155.6043  143.3799  168.5131 H   0  0  0  0  0  0  0  0  0  0  0  0
  157.2370  142.7510  168.7244 H   0  0  0  0  0  0  0  0  0  0  0  0
  154.8331  142.9277  164.0822 H   0  0  0  0  0  0  0  0  0  0  0  0
  156.1468  141.8796  162.3607 H   0  0  0  0  0  0  0  0  0  0  0  0
  156.7138  140.2632  162.5499 H   0  0  0  0  0  0  0  0  0  0  0  0
  154.0011  140.1722  163.4734 H   0  0  0  0  0  0  0  0  0  0  0  0
  154.3082  138.5496  162.2638 H   0  0  0  0  0  0  0  0  0  0  0  0
  153.5174  142.8020  163.5772 H   0  0  0  0  0  0  0  0  0  0  0  0
  152.2032  144.5252  162.3967 H   0  0  0  0  0  0  0  0  0  0  0  0
  152.4159  142.1996  158.7650 H   0  0  0  0  0  0  0  0  0  0  0  0
  153.7315  140.4751  159.9467 H   0  0  0  0  0  0  0  0  0  0  0  0
  158.8212  140.0456  167.1790 H   0  0  0  0  0  0  0  0  0  0  0  0
  157.4281  139.0122  167.5081 H   0  0  0  0  0  0  0  0  0  0  0  0
  157.7645  140.3945  168.5397 H   0  0  0  0  0  0  0  0  0  0  0  0
  1  2  1  0  0  0  0
  1 23  1  0  0  0  0
  1 24  1  0  0  0  0
  1 25  1  0  0  0  0
  2 21  2  0  0  0  0
  2  3  1  0  0  0  0
  3  4  2  0  0  0  0
  4  5  1  0  0  0  0
  4 26  1  0  0  0  0
  5  6  1  0  0  0  0
  5 19  1  0  0  0  0
  6  7  1  0  0  0  0
  6 27  1  0  0  0  0
  6 28  1  0  0  0  0
  7  8  1  0  0  0  0
  7  9  1  0  0  0  0
  7 29  1  0  0  0  0
  8 30  1  0  0  0  0
  9 18  1  0  0  0  0
  9 10  2  0  0  0  0
 10 11  1  0  0  0  0
 10 31  1  0  0  0  0
 11 12  2  0  0  0  0
 11 32  1  0  0  0  0
 12 13  1  0  0  0  0
 12 17  1  0  0  0  0
 13 14  1  0  0  0  0
 13 15  1  0  0  0  0
 13 16  1  0  0  0  0
 17 18  2  0  0  0  0
 17 33  1  0  0  0  0
 18 34  1  0  0  0  0
 19 20  2  0  0  0  0
 19 21  1  0  0  0  0
 21 22  1  0  0  0  0
 22 35  1  0  0  0  0
 22 36  1  0  0  0  0
 22 37  1  0  0  0  0
M  END
> <s_m_source_file>
AV-unprocessed.smi

> <i_m_source_file_index>
2352

> <i_lp_mmshare_version>
43012

> <i_f3d_flags>
0

> <s_epik_input>
W0NIM11jMW5bY0hdbihjKD1PKWMxW0NIM10pW0NIMl1bQ0BIXShbT0hdKWMyW2NIXVtjSF1jKEMoRikoRilGKVtjSF1bY0hdMg==

> <s_epik_cmdline>
J2VwaWtfcHl0aG9uJywgJy1waCcsICc3LjAnLCAnLXRuJywgJzgnLCAnLW1hJywgJzIwMCcsICctbWV0YWxfYmluZGluZycsICctaW1hZScsICc8aW5maWxlLm1hZT4nLCAnLW9tYWUnLCAnPG91dGZpbGUubWFlPic=

> <r_lp_tautomer_probability>
1

> <r_epik_Ionization_Penalty>
5.07001e-05

> <r_epik_Ionization_Penalty_Charging>
7.56727e-08

> <r_epik_Ionization_Penalty_Neutral>
5.06244e-05

> <r_epik_State_Penalty>
-0

> <r_epik_Charging_Adjusted_Penalty>
7.56727e-08

> <i_epik_Tot_Q>
0

> <i_epik_Tot_abs_Q>
0

> <r_epik_Metal_State_Penalty>
-0

> <b_epik_Metal_Only>
0

> <s_lp_Force_Field>
OPLS_2005

> <r_lp_Energy>
21.4473

> <b_lp_Chiralities_Consistent>
1

> <s_lp_Variant>
AV-unprocessed.smi:2352-1

> <Gold.Version>
5.8.1

> <Gold.Id.Protein>
6NUR|6NUR_protein|mol2

> <Gold.PLP.Fitness>
51.1217

> <Gold.PLP.PLP>
-53.7313

> <Gold.PLP.part.hbond>
-0.8815

> <Gold.PLP.part.metal>
0.0000

> <Gold.PLP.part.buried>
-0.8699

> <Gold.PLP.part.nonpolar>
-51.1347

> <Gold.PLP.part.repulsive>
0.0177

> <Gold.PLP.ligand.clash>
0.0444

> <Gold.PLP.ligand.torsion>
1.7998

> <Gold.PLP.Chemscore.Hbond>
0.0000

> <Gold.PLP.Chemscore.CHOScore>
0.0000

> <Gold.PLP.Chemscore.Metal>
0.0000

> <Gold.PLP.Chemscore.Internal.Correction>
1.0343

> <Gold.Rescore>
     Score         DG    S(hbond)    S(metal)    S(lipo)     H(rot)  DE(clash)    DE(int)     intcor
     10.86     -13.58       0.00        0.00     115.96       2.13       1.76       0.96       ----

> <Gold.Chemscore.Fitness>
10.8629

> <Gold.Chemscore.DG>
-13.5822

> <Gold.Chemscore.ZeroCoef>
-5.4800

> <Gold.Chemscore.Hbond>
0.0000

> <Gold.Chemscore.Metal>
0.0000

> <Gold.Chemscore.Lipo>
115.9581

> <Gold.Chemscore.Internal_Hbond>
0.0000

> <Gold.Chemscore.DEClash>
1.7566

> <Gold.Chemscore.DEInternal>
0.9627

> <Gold.Chemscore.Rot>
2.1347

> <Gold.Chemscore.Internal.Correction>
   9.000000E+99

> <Gold.Chemscore.Hbond.Weighted>
-0.0000

> <Gold.Chemscore.Metal.Weighted>
-0.0000

> <Gold.Chemscore.Lipo.Weighted>
-13.5671

> <Gold.Chemscore.Internal_Hbond.Weighted>
0.0000

> <Gold.Chemscore.DEClash.Weighted>
1.7566

> <Gold.Chemscore.DEInternal.Weighted>
0.9627

> <Gold.Chemscore.Rot.Weighted>
5.4649

> <Gold.Chemscore.Internal.Correction.Weighted>
   9.000000E+99

> <Gold.Protein.RotatedTorsions>
[ 6907 6896 6895 6894 ] final  120.43 input  -60.11 | X-H torsion
[ 7974 7965 7964 7962 ] final -134.60 input  175.53 | X-H torsion
[ 8008 7997 7996 7995 ] final   68.79 input   59.86 | X-H torsion
[ 10167 10162 10161 10158 ] final   33.96 input  -65.29 | X-H torsion
[ 10718 10713 10712 10709 ] final -129.95 input   66.30 | X-H torsion
[ 10763 10752 10751 10750 ] final  -13.92 input  -60.55 | X-H torsion
[ 11005 11000 10999 10996 ] final  147.81 input  -57.11 | X-H torsion

> <Gold.Protein.ActiveResidues>
 VAL166  LYS551  ARG553  GLY616  TRP617  ASP618  TYR619  PRO620  LYS621  CYS622 
 ASP623  PHE694  ASN695  SER759  ASP760  ASP761  ALA762  ILE779  LEU786  VAL792 
 PHE793  MET794  SER795  GLU796  ALA797  LYS798  CYS799  TRP800  GLU811  SER814 

> <Gold.Protein.RotatedAtoms>
  152.4398  133.7428  159.6650 H   0  0  0  0  0  0  0  0  0  0  0  0  # atno 6907 bound_to 6896
  150.8287  133.8116  159.3113 H   0  0  0  0  0  0  0  0  0  0  0  0  # atno 6908 bound_to 6896
  151.5777  135.1062  160.0061 H   0  0  0  0  0  0  0  0  0  0  0  0  # atno 6909 bound_to 6896
  144.9089  140.6869  143.5038 H   0  0  0  0  0  0  0  0  0  0  0  0  # atno 7974 bound_to 7965
  155.7138  140.3494  155.4985 H   0  0  0  0  0  0  0  0  0  0  0  0  # atno 8008 bound_to 7997
  155.9332  140.1088  157.1137 H   0  0  0  0  0  0  0  0  0  0  0  0  # atno 8009 bound_to 7997
  154.4089  140.1227  156.4816 H   0  0  0  0  0  0  0  0  0  0  0  0  # atno 8010 bound_to 7997
  140.4359  144.1257  150.6166 H   0  0  0  0  0  0  0  0  0  0  0  0  # atno 10167 bound_to 10162
  156.2097  130.6910  151.0635 H   0  0  0  0  0  0  0  0  0  0  0  0  # atno 10718 bound_to 10713
  153.5205  135.7016  153.5734 H   0  0  0  0  0  0  0  0  0  0  0  0  # atno 10763 bound_to 10752
  153.3784  135.3926  155.1839 H   0  0  0  0  0  0  0  0  0  0  0  0  # atno 10764 bound_to 10752
  154.8695  135.3829  154.4694 H   0  0  0  0  0  0  0  0  0  0  0  0  # atno 10765 bound_to 10752
  140.0907  134.9043  157.1646 H   0  0  0  0  0  0  0  0  0  0  0  0  # atno 11005 bound_to 11000
  145.3489  139.1711  143.4445 LP  0  0  0  0  0  0  0  0  0  0  0  0  # atno 17320 bound_to 7965
  146.3148  140.3538  142.8658 LP  0  0  0  0  0  0  0  0  0  0  0  0  # atno 17321 bound_to 7965
  140.4374  143.2541  151.9518 LP  0  0  0  0  0  0  0  0  0  0  0  0  # atno 17342 bound_to 10162
  139.4787  144.5687  151.8123 LP  0  0  0  0  0  0  0  0  0  0  0  0  # atno 17343 bound_to 10162
  157.7031  131.0767  150.6754 LP  0  0  0  0  0  0  0  0  0  0  0  0  # atno 17370 bound_to 10713
  156.6814  130.4568  149.5627 LP  0  0  0  0  0  0  0  0  0  0  0  0  # atno 17371 bound_to 10713
  140.3356  134.2760  155.7220 LP  0  0  0  0  0  0  0  0  0  0  0  0  # atno 17394 bound_to 11000
  141.2077  133.7799  157.0104 LP  0  0  0  0  0  0  0  0  0  0  0  0  # atno 17395 bound_to 11000

$$$$
