AV-unprocessed.smi:2087|AV-procd|sdf|8522|dock10
  -GOLD-   2272011243D 1   1.00000     0.00000
 Structure written by MMmdl.
 51 52  0  0  0  0  0  0  0  0  2 V2000
  145.4953  128.2081  153.0945 C   0  0  0  0  0  0  0  0  0  0  0  0
  146.1365  129.0579  151.9844 C   0  0  0  0  0  0  0  0  0  0  0  0
  147.4188  128.3861  151.4698 C   0  0  0  0  0  0  0  0  0  0  0  0
  146.4337  130.4976  152.4576 C   0  0  0  0  0  0  0  0  0  0  0  0
  146.5024  131.4809  151.3416 N   0  3  1  0  0  0  0  0  0  0  0  0
  145.2881  131.4942  150.4897 C   0  0  0  0  0  0  0  0  0  0  0  0
  144.1428  132.2699  151.1651 C   0  0  0  0  0  0  0  0  0  0  0  0
  144.5812  133.5898  151.4602 O   0  0  0  0  0  0  0  0  0  0  0  0
  145.6721  133.6091  152.3761 C   0  0  2  0  0  0  0  0  0  0  0  0
  146.0106  135.0768  152.6945 C   0  0  0  0  0  0  0  0  0  0  0  0
  147.2791  135.1908  153.4050 N   0  0  0  0  0  0  0  0  0  0  0  0
  147.4056  135.4899  154.7060 C   0  0  0  0  0  0  0  0  0  0  0  0
  146.4429  135.6420  155.4593 O   0  0  0  0  0  0  0  0  0  0  0  0
  148.8386  135.6353  155.2330 C   0  0  0  0  0  0  0  0  0  0  0  0
  149.3535  137.0037  155.0948 N   0  0  0  0  0  0  0  0  0  0  0  0
  148.4835  138.0392  154.8059 C   0  0  0  0  0  0  0  0  0  0  0  0
  148.8771  139.3230  154.6583 C   0  0  0  0  0  0  0  0  0  0  0  0
  150.2794  139.6980  154.7962 C   0  0  0  0  0  0  0  0  0  0  0  0
  150.6765  140.8582  154.6848 O   0  0  0  0  0  0  0  0  0  0  0  0
  151.1496  138.6175  155.0791 N   0  0  0  0  0  0  0  0  0  0  0  0
  152.5638  138.8828  155.2448 C   0  0  0  0  0  0  0  0  0  0  0  0
  150.7300  137.2794  155.2463 C   0  0  0  0  0  0  0  0  0  0  0  0
  151.5266  136.3761  155.5155 O   0  0  0  0  0  0  0  0  0  0  0  0
  146.8676  132.8644  151.7432 C   0  0  0  0  0  0  0  0  0  0  0  0
  146.1473  128.1362  153.9657 H   0  0  0  0  0  0  0  0  0  0  0  0
  145.2966  127.1944  152.7453 H   0  0  0  0  0  0  0  0  0  0  0  0
  144.5447  128.6289  153.4227 H   0  0  0  0  0  0  0  0  0  0  0  0
  145.4433  129.0901  151.1444 H   0  0  0  0  0  0  0  0  0  0  0  0
  148.1692  128.3060  152.2573 H   0  0  0  0  0  0  0  0  0  0  0  0
  147.8580  128.9525  150.6479 H   0  0  0  0  0  0  0  0  0  0  0  0
  147.2154  127.3802  151.1010 H   0  0  0  0  0  0  0  0  0  0  0  0
  145.6423  130.7943  153.1476 H   0  0  0  0  0  0  0  0  0  0  0  0
  147.3569  130.5230  153.0364 H   0  0  0  0  0  0  0  0  0  0  0  0
  145.5386  131.9765  149.5440 H   0  0  0  0  0  0  0  0  0  0  0  0
  144.9774  130.4788  150.2410 H   0  0  0  0  0  0  0  0  0  0  0  0
  143.2843  132.3268  150.4961 H   0  0  0  0  0  0  0  0  0  0  0  0
  143.8035  131.7702  152.0737 H   0  0  0  0  0  0  0  0  0  0  0  0
  145.3755  133.1085  153.2986 H   0  0  0  0  0  0  0  0  0  0  0  0
  146.0519  135.6660  151.7769 H   0  0  0  0  0  0  0  0  0  0  0  0
  145.2280  135.5188  153.3121 H   0  0  0  0  0  0  0  0  0  0  0  0
  148.1212  135.0728  152.8600 H   0  0  0  0  0  0  0  0  0  0  0  0
  148.8481  135.3322  156.2807 H   0  0  0  0  0  0  0  0  0  0  0  0
  149.5022  134.9389  154.7168 H   0  0  0  0  0  0  0  0  0  0  0  0
  147.4331  137.8142  154.6913 H   0  0  0  0  0  0  0  0  0  0  0  0
  148.1436  140.0840  154.4354 H   0  0  0  0  0  0  0  0  0  0  0  0
  153.1177  138.1333  154.6765 H   0  0  0  0  0  0  0  0  0  0  0  0
  152.7766  138.8127  156.3125 H   0  0  0  0  0  0  0  0  0  0  0  0
  152.8235  139.8692  154.8611 H   0  0  0  0  0  0  0  0  0  0  0  0
  147.7219  132.8660  152.4186 H   0  0  0  0  0  0  0  0  0  0  0  0
  147.1911  133.3978  150.8485 H   0  0  0  0  0  0  0  0  0  0  0  0
  147.2488  131.1469  150.7486 H   0  0  0  0  0  0  0  0  0  0  0  0
  1  2  1  0  0  0  0
  1 25  1  0  0  0  0
  1 26  1  0  0  0  0
  1 27  1  0  0  0  0
  2  3  1  0  0  0  0
  2  4  1  0  0  0  0
  2 28  1  0  0  0  0
  3 29  1  0  0  0  0
  3 30  1  0  0  0  0
  3 31  1  0  0  0  0
  4  5  1  0  0  0  0
  4 32  1  0  0  0  0
  4 33  1  0  0  0  0
  5 24  1  0  0  0  0
  5  6  1  0  0  0  0
  5 51  1  0  0  0  0
  6  7  1  0  0  0  0
  6 34  1  0  0  0  0
  6 35  1  0  0  0  0
  7  8  1  0  0  0  0
  7 36  1  0  0  0  0
  7 37  1  0  0  0  0
  8  9  1  0  0  0  0
  9 10  1  0  0  0  0
  9 24  1  0  0  0  0
  9 38  1  0  0  0  0
 10 11  1  0  0  0  0
 10 39  1  0  0  0  0
 10 40  1  0  0  0  0
 11 12  1  0  0  0  0
 11 41  1  0  0  0  0
 12 13  2  0  0  0  0
 12 14  1  0  0  0  0
 14 15  1  0  0  0  0
 14 42  1  0  0  0  0
 14 43  1  0  0  0  0
 15 22  1  0  0  0  0
 15 16  1  0  0  0  0
 16 17  2  0  0  0  0
 16 44  1  0  0  0  0
 17 18  1  0  0  0  0
 17 45  1  0  0  0  0
 18 19  2  0  0  0  0
 18 20  1  0  0  0  0
 20 21  1  0  0  0  0
 20 22  1  0  0  0  0
 21 46  1  0  0  0  0
 21 47  1  0  0  0  0
 21 48  1  0  0  0  0
 22 23  2  0  0  0  0
 24 49  1  0  0  0  0
 24 50  1  0  0  0  0
M  CHG  1   5   1
M  END
> <s_m_source_file>
AV-unprocessed.smi

> <i_m_source_file_index>
2087

> <i_lp_mmshare_version>
43012

> <i_f3d_flags>
0

> <s_epik_input>
W0NIM11bQ0hdKFtDSDNdKVtDSDJdTjFbQ0gyXVtDSDJdT1tDQEhdKFtDSDJdMSlbQ0gyXVtOSF1DKD1PKVtDSDJdbjJbY0hdW2NIXWMoPU8pbihbQ0gzXSljMj1P

> <s_epik_cmdline>
J2VwaWtfcHl0aG9uJywgJy1waCcsICc3LjAnLCAnLXRuJywgJzgnLCAnLW1hJywgJzIwMCcsICctbWV0YWxfYmluZGluZycsICctaW1hZScsICc8aW5maWxlLm1hZT4nLCAnLW9tYWUnLCAnPG91dGZpbGUubWFlPic=

> <r_lp_tautomer_probability>
1

> <r_epik_Ionization_Penalty>
0.097593

> <r_epik_Ionization_Penalty_Charging>
0.097593

> <r_epik_Ionization_Penalty_Neutral>
6.27044e-08

> <r_epik_State_Penalty>
0.0877056

> <r_epik_Charging_Adjusted_Penalty>
0.185299

> <i_epik_Tot_Q>
1

> <i_epik_Tot_abs_Q>
1

> <r_epik_Metal_State_Penalty>
0.0877109

> <b_epik_Metal_Only>
0

> <s_lp_Force_Field>
OPLS_2005

> <r_lp_Energy>
27.8921

> <b_lp_Chiralities_Consistent>
1

> <s_lp_Variant>
AV-unprocessed.smi:2087-3

> <Gold.Version>
5.8.1

> <Gold.Id.Protein>
6NUR|6NUR_protein|mol2

> <Gold.PLP.Fitness>
46.9804

> <Gold.PLP.PLP>
-38.2123

> <Gold.PLP.part.hbond>
-3.5470

> <Gold.PLP.part.metal>
0.0000

> <Gold.PLP.part.buried>
-1.8632

> <Gold.PLP.part.nonpolar>
-33.2520

> <Gold.PLP.part.repulsive>
0.3634

> <Gold.PLP.ligand.clash>
0.0000

> <Gold.PLP.ligand.torsion>
0.9165

> <Gold.PLP.Chemscore.Hbond>
3.5120

> <Gold.PLP.Chemscore.CHOScore>
0.0000

> <Gold.PLP.Chemscore.Metal>
0.0000

> <Gold.Chemscore.Hbonds>
donor molecule, donor type, donor heavy atom, donor atom, acceptor molecule, acceptor atom, score
      L1  H     5    51       P1 10747  1.00
      L1  H    11    41       P1  7948  0.61
      P1  H  7989  7998       L1    19  0.77
      P1  H 10752 10763       L1    23  1.00

> <Gold.PLP.Chemscore.Internal.Correction>
0.0652

> <Gold.Rescore>
     Score         DG    S(hbond)    S(metal)    S(lipo)     H(rot)  DE(clash)    DE(int)     intcor
     19.84     -21.15       3.37        0.00      86.47       2.22       0.22       1.09       ----

> <Gold.Chemscore.Fitness>
19.8370

> <Gold.Chemscore.DG>
-21.1468

> <Gold.Chemscore.ZeroCoef>
-5.4800

> <Gold.Chemscore.Hbond>
3.3670

> <Gold.Chemscore.Metal>
0.0000

> <Gold.Chemscore.Lipo>
86.4665

> <Gold.Chemscore.Internal_Hbond>
0.0000

> <Gold.Chemscore.DEClash>
0.2206

> <Gold.Chemscore.DEInternal>
1.0892

> <Gold.Chemscore.Rot>
2.2249

> <Gold.Chemscore.Internal.Correction>
   9.000000E+99

> <Gold.Chemscore.Hbonds>
donor molecule, donor type, donor heavy atom, donor atom, acceptor molecule, acceptor atom, score
      L1  H     5    51       P1 10747  0.99
      L1  H    11    41       P1  7948  0.59
      P1  H  7989  7998       L1    19  0.44
      P1  H 10752 10763       L1    23  1.00

> <Gold.Chemscore.Hbond.Weighted>
-11.2459

> <Gold.Chemscore.Metal.Weighted>
-0.0000

> <Gold.Chemscore.Lipo.Weighted>
-10.1166

> <Gold.Chemscore.Internal_Hbond.Weighted>
0.0000

> <Gold.Chemscore.DEClash.Weighted>
0.2206

> <Gold.Chemscore.DEInternal.Weighted>
1.0892

> <Gold.Chemscore.Rot.Weighted>
5.6957

> <Gold.Chemscore.Internal.Correction.Weighted>
   9.000000E+99

> <Gold.Protein.RotatedTorsions>
[ 6907 6896 6895 6894 ] final   -0.05 input  -60.11 | X-H torsion
[ 7974 7965 7964 7962 ] final  145.05 input  175.53 | X-H torsion
[ 8008 7997 7996 7995 ] final   58.53 input   59.86 | X-H torsion
[ 10167 10162 10161 10158 ] final  -19.67 input  -65.29 | X-H torsion
[ 10718 10713 10712 10709 ] final -176.08 input   66.30 | X-H torsion
[ 10763 10752 10751 10750 ] final   59.62 input  -60.55 | X-H torsion
[ 11005 11000 10999 10996 ] final  142.84 input  -57.11 | X-H torsion

> <Gold.Protein.ActiveResidues>
 VAL166  LYS551  ARG553  GLY616  TRP617  ASP618  TYR619  PRO620  LYS621  CYS622 
 ASP623  PHE694  ASN695  SER759  ASP760  ASP761  ALA762  ILE779  LEU786  VAL792 
 PHE793  MET794  SER795  GLU796  ALA797  LYS798  CYS799  TRP800  GLU811  SER814 

> <Gold.Protein.RotatedAtoms>
  151.5685  135.1063  159.9989 H   0  0  0  0  0  0  0  0  0  0  0  0  # atno 6907 bound_to 6896
  152.4412  133.7448  159.6672 H   0  0  0  0  0  0  0  0  0  0  0  0  # atno 6908 bound_to 6896
  150.8318  133.8009  159.3119 H   0  0  0  0  0  0  0  0  0  0  0  0  # atno 6909 bound_to 6896
  144.8784  139.5736  143.5854 H   0  0  0  0  0  0  0  0  0  0  0  0  # atno 7974 bound_to 7965
  155.5515  140.3486  155.4470 H   0  0  0  0  0  0  0  0  0  0  0  0  # atno 8008 bound_to 7997
  156.0579  140.1333  157.0001 H   0  0  0  0  0  0  0  0  0  0  0  0  # atno 8009 bound_to 7997
  154.4465  140.0991  156.6458 H   0  0  0  0  0  0  0  0  0  0  0  0  # atno 8010 bound_to 7997
  140.7270  143.4796  151.0135 H   0  0  0  0  0  0  0  0  0  0  0  0  # atno 10167 bound_to 10162
  156.8094  130.9581  151.3116 H   0  0  0  0  0  0  0  0  0  0  0  0  # atno 10718 bound_to 10713
  152.9899  135.5565  154.5742 H   0  0  0  0  0  0  0  0  0  0  0  0  # atno 10763 bound_to 10752
  154.5136  135.2803  155.1324 H   0  0  0  0  0  0  0  0  0  0  0  0  # atno 10764 bound_to 10752
  154.2705  135.6364  153.5361 H   0  0  0  0  0  0  0  0  0  0  0  0  # atno 10765 bound_to 10752
  140.0508  134.9257  157.1013 H   0  0  0  0  0  0  0  0  0  0  0  0  # atno 11005 bound_to 11000
  146.2978  139.7332  142.9113 LP  0  0  0  0  0  0  0  0  0  0  0  0  # atno 17320 bound_to 7965
  145.3999  141.0384  143.3076 LP  0  0  0  0  0  0  0  0  0  0  0  0  # atno 17321 bound_to 7965
  139.8494  143.7458  152.3178 LP  0  0  0  0  0  0  0  0  0  0  0  0  # atno 17342 bound_to 10162
  139.7635  144.7499  151.0329 LP  0  0  0  0  0  0  0  0  0  0  0  0  # atno 17343 bound_to 10162
  157.6513  130.8887  149.9639 LP  0  0  0  0  0  0  0  0  0  0  0  0  # atno 17370 bound_to 10713
  156.1053  130.3653  150.0144 LP  0  0  0  0  0  0  0  0  0  0  0  0  # atno 17371 bound_to 10713
  140.3921  134.2173  155.7166 LP  0  0  0  0  0  0  0  0  0  0  0  0  # atno 17394 bound_to 11000
  141.1929  133.8162  157.0820 LP  0  0  0  0  0  0  0  0  0  0  0  0  # atno 17395 bound_to 11000

$$$$
