AV-unprocessed.smi:2831|AV-procd|sdf|10910|dock1
  -GOLD-   2272015353D 1   1.00000     0.00000
 Structure written by MMmdl.
 29 30  0  0  0  0  0  0  0  0  2 V2000
  146.9458  134.1386  162.4386 C   0  0  0  0  0  0  0  0  0  0  0  0
  147.4864  135.2496  161.6052 C   0  0  0  0  0  0  0  0  0  0  0  0
  147.9015  136.4073  162.1249 N   0  0  0  0  0  0  0  0  0  0  0  0
  148.3587  137.2834  161.1508 N   0  0  0  0  0  0  0  0  0  0  0  0
  148.2724  136.7818  159.9105 C   0  0  0  0  0  0  0  0  0  0  0  0
  148.6644  137.4698  158.8252 N   0  5  0  0  0  0  0  0  0  0  0  0
  149.9795  137.5654  158.5241 C   0  0  0  0  0  0  0  0  0  0  0  0
  150.8765  136.8357  158.9509 O   0  0  0  0  0  0  0  0  0  0  0  0
  150.2621  138.5723  157.6796 N   0  0  0  0  0  0  0  0  0  0  0  0
  151.5576  138.9907  157.1250 C   0  0  1  0  0  0  0  0  0  0  0  0
  152.4938  139.2814  158.3129 C   0  0  0  0  0  0  0  0  0  0  0  0
  152.1868  137.9406  156.1920 C   0  0  0  0  0  0  0  0  0  0  0  0
  152.2635  138.6390  154.8354 C   0  0  0  0  0  0  0  0  0  0  0  0
  152.3628  140.0108  155.1760 O   0  0  0  0  0  0  0  0  0  0  0  0
  151.4325  140.2374  156.2234 C   0  0  0  0  0  0  0  0  0  0  0  0
  147.6257  135.1422  159.8589 S   0  0  0  0  0  0  0  0  0  0  0  0
  145.9037  134.3355  162.6907 H   0  0  0  0  0  0  0  0  0  0  0  0
  147.5196  134.0435  163.3608 H   0  0  0  0  0  0  0  0  0  0  0  0
  147.0034  133.1957  161.8948 H   0  0  0  0  0  0  0  0  0  0  0  0
  149.4691  139.1200  157.3796 H   0  0  0  0  0  0  0  0  0  0  0  0
  153.4712  139.6271  157.9744 H   0  0  0  0  0  0  0  0  0  0  0  0
  152.6506  138.3891  158.9204 H   0  0  0  0  0  0  0  0  0  0  0  0
  152.0809  140.0537  158.9631 H   0  0  0  0  0  0  0  0  0  0  0  0
  153.1957  137.6868  156.5202 H   0  0  0  0  0  0  0  0  0  0  0  0
  151.6324  137.0032  156.1357 H   0  0  0  0  0  0  0  0  0  0  0  0
  153.1149  138.3094  154.2400 H   0  0  0  0  0  0  0  0  0  0  0  0
  151.3551  138.4720  154.2547 H   0  0  0  0  0  0  0  0  0  0  0  0
  150.4398  140.3412  155.7836 H   0  0  0  0  0  0  0  0  0  0  0  0
  151.6518  141.1682  156.7474 H   0  0  0  0  0  0  0  0  0  0  0  0
  1  2  1  0  0  0  0
  1 17  1  0  0  0  0
  1 18  1  0  0  0  0
  1 19  1  0  0  0  0
  2 16  1  0  0  0  0
  2  3  2  0  0  0  0
  3  4  1  0  0  0  0
  4  5  2  0  0  0  0
  5  6  1  0  0  0  0
  5 16  1  0  0  0  0
  6  7  1  0  0  0  0
  7  8  2  0  0  0  0
  7  9  1  0  0  0  0
  9 10  1  0  0  0  0
  9 20  1  0  0  0  0
 10 15  1  0  0  0  0
 10 11  1  0  0  0  0
 10 12  1  0  0  0  0
 11 21  1  0  0  0  0
 11 22  1  0  0  0  0
 11 23  1  0  0  0  0
 12 13  1  0  0  0  0
 12 24  1  0  0  0  0
 12 25  1  0  0  0  0
 13 14  1  0  0  0  0
 13 26  1  0  0  0  0
 13 27  1  0  0  0  0
 14 15  1  0  0  0  0
 15 28  1  0  0  0  0
 15 29  1  0  0  0  0
M  CHG  1   6  -1
M  END
> <s_m_source_file>
AV-unprocessed.smi

> <i_m_source_file_index>
2831

> <i_lp_mmshare_version>
43012

> <i_f3d_flags>
0

> <s_epik_input>
W0NIM11jMW5uYyhzMSlbTkhdQyg9TylbTkhdW0NAQF0yKFtDSDNdKVtDSDJdW0NIMl1PW0NIMl0y

> <s_epik_cmdline>
J2VwaWtfcHl0aG9uJywgJy1waCcsICc3LjAnLCAnLXRuJywgJzgnLCAnLW1hJywgJzIwMCcsICctbWV0YWxfYmluZGluZycsICctaW1hZScsICc8aW5maWxlLm1hZT4nLCAnLW9tYWUnLCAnPG91dGZpbGUubWFlPic=

> <r_lp_tautomer_probability>
1

> <r_epik_Ionization_Penalty>
3.33648

> <r_epik_Ionization_Penalty_Charging>
3.18522

> <r_epik_Ionization_Penalty_Neutral>
0.151254

> <r_epik_State_Penalty>
3.18248

> <r_epik_Charging_Adjusted_Penalty>
6.3677

> <i_epik_Tot_Q>
-1

> <i_epik_Tot_abs_Q>
1

> <r_epik_Metal_State_Penalty>
0.469716

> <b_epik_Metal_Only>
1

> <s_lp_Force_Field>
OPLS_2005

> <r_lp_Energy>
14.581

> <b_lp_Chiralities_Consistent>
1

> <s_lp_Variant>
AV-unprocessed.smi:2831-3

> <Gold.Version>
5.8.1

> <Gold.Id.Protein>
6NUR|6NUR_protein|mol2

> <Gold.PLP.Fitness>
36.6799

> <Gold.PLP.PLP>
-27.0498

> <Gold.PLP.part.hbond>
-4.7019

> <Gold.PLP.part.metal>
0.0000

> <Gold.PLP.part.buried>
-3.6800

> <Gold.PLP.part.nonpolar>
-18.7973

> <Gold.PLP.part.repulsive>
0.0538

> <Gold.PLP.ligand.clash>
0.0000

> <Gold.PLP.ligand.torsion>
0.8171

> <Gold.PLP.Chemscore.Hbond>
3.7499

> <Gold.PLP.Chemscore.CHOScore>
0.0000

> <Gold.PLP.Chemscore.Metal>
0.0000

> <Gold.Chemscore.Hbonds>
donor molecule, donor type, donor heavy atom, donor atom, acceptor molecule, acceptor atom, score
      P1  H  6896  6907       L1     8  1.00
      P1  H  6931  6943       L1     4  0.67
      P1  H  6934  6947       L1     4  0.44
      P1  H  7989  7998       L1    14  0.66
      P1  H  7997  8010       L1    14  0.57

> <Gold.PLP.Chemscore.Internal.Correction>
0.0147

> <Gold.Rescore>
     Score         DG    S(hbond)    S(metal)    S(lipo)     H(rot)  DE(clash)    DE(int)     intcor
     16.78     -18.65       3.02        0.00      48.11       1.00       0.00       1.87       ----

> <Gold.Chemscore.Fitness>
16.7764

> <Gold.Chemscore.DG>
-18.6454

> <Gold.Chemscore.ZeroCoef>
-5.4800

> <Gold.Chemscore.Hbond>
3.0228

> <Gold.Chemscore.Metal>
0.0000

> <Gold.Chemscore.Lipo>
48.1136

> <Gold.Chemscore.Internal_Hbond>
0.0000

> <Gold.Chemscore.DEClash>
0.0000

> <Gold.Chemscore.DEInternal>
1.8691

> <Gold.Chemscore.Rot>
1.0000

> <Gold.Chemscore.Internal.Correction>
   9.000000E+99

> <Gold.Chemscore.Hbonds>
donor molecule, donor type, donor heavy atom, donor atom, acceptor molecule, acceptor atom, score
      P1  H  6896  6907       L1     8  0.96
      P1  H  6931  6943       L1     4  0.25
      P1  H  6934  6947       L1     4  0.12
      P1  H  7989  7998       L1    14  0.13
      P1  H  7997  8010       L1    14  0.17

> <Gold.Chemscore.Hbond.Weighted>
-10.0961

> <Gold.Chemscore.Metal.Weighted>
-0.0000

> <Gold.Chemscore.Lipo.Weighted>
-5.6293

> <Gold.Chemscore.Internal_Hbond.Weighted>
0.0000

> <Gold.Chemscore.DEClash.Weighted>
0.0000

> <Gold.Chemscore.DEInternal.Weighted>
1.8691

> <Gold.Chemscore.Rot.Weighted>
2.5600

> <Gold.Chemscore.Internal.Correction.Weighted>
   9.000000E+99

> <Gold.Protein.RotatedTorsions>
[ 6907 6896 6895 6894 ] final  -23.28 input  -60.11 | X-H torsion
[ 7974 7965 7964 7962 ] final    8.73 input  175.53 | X-H torsion
[ 8008 7997 7996 7995 ] final  100.75 input   59.86 | X-H torsion
[ 10167 10162 10161 10158 ] final   95.51 input  -65.29 | X-H torsion
[ 10718 10713 10712 10709 ] final -174.96 input   66.30 | X-H torsion
[ 10763 10752 10751 10750 ] final  125.63 input  -60.55 | X-H torsion
[ 11005 11000 10999 10996 ] final  -62.32 input  -57.11 | X-H torsion

> <Gold.Protein.ActiveResidues>
 VAL166  LYS551  ARG553  GLY616  TRP617  ASP618  TYR619  PRO620  LYS621  CYS622 
 ASP623  PHE694  ASN695  SER759  ASP760  ASP761  ALA762  ILE779  LEU786  VAL792 
 PHE793  MET794  SER795  GLU796  ALA797  LYS798  CYS799  TRP800  GLU811  SER814 

> <Gold.Protein.RotatedAtoms>
  151.2064  135.0463  159.8892 H   0  0  0  0  0  0  0  0  0  0  0  0  # atno 6907 bound_to 6896
  152.5428  134.0793  159.8239 H   0  0  0  0  0  0  0  0  0  0  0  0  # atno 6908 bound_to 6896
  151.0941  133.5246  159.2645 H   0  0  0  0  0  0  0  0  0  0  0  0  # atno 6909 bound_to 6896
  146.2413  139.9890  142.8428 H   0  0  0  0  0  0  0  0  0  0  0  0  # atno 7974 bound_to 7965
  156.1233  140.3208  155.8240 H   0  0  0  0  0  0  0  0  0  0  0  0  # atno 8008 bound_to 7997
  155.4465  140.0529  157.3022 H   0  0  0  0  0  0  0  0  0  0  0  0  # atno 8009 bound_to 7997
  154.4843  140.2066  155.9704 H   0  0  0  0  0  0  0  0  0  0  0  0  # atno 8010 bound_to 7997
  139.7982  144.6825  150.9801 H   0  0  0  0  0  0  0  0  0  0  0  0  # atno 10167 bound_to 10162
  156.7929  130.9524  151.3120 H   0  0  0  0  0  0  0  0  0  0  0  0  # atno 10718 bound_to 10713
  153.6804  135.3315  155.3177 H   0  0  0  0  0  0  0  0  0  0  0  0  # atno 10763 bound_to 10752
  154.8467  135.4407  154.1612 H   0  0  0  0  0  0  0  0  0  0  0  0  # atno 10764 bound_to 10752
  153.2627  135.6992  153.7638 H   0  0  0  0  0  0  0  0  0  0  0  0  # atno 10765 bound_to 10752
  141.1356  133.6639  156.5510 H   0  0  0  0  0  0  0  0  0  0  0  0  # atno 11005 bound_to 11000
  145.1521  140.9628  143.4427 LP  0  0  0  0  0  0  0  0  0  0  0  0  # atno 17320 bound_to 7965
  145.0196  139.3436  143.6079 LP  0  0  0  0  0  0  0  0  0  0  0  0  # atno 17321 bound_to 7965
  140.7820  143.4309  151.0695 LP  0  0  0  0  0  0  0  0  0  0  0  0  # atno 17342 bound_to 10162
  139.7983  143.8120  152.3160 LP  0  0  0  0  0  0  0  0  0  0  0  0  # atno 17343 bound_to 10162
  157.6592  130.8951  149.9793 LP  0  0  0  0  0  0  0  0  0  0  0  0  # atno 17370 bound_to 10713
  156.1148  130.3648  149.9987 LP  0  0  0  0  0  0  0  0  0  0  0  0  # atno 17371 bound_to 10713
  140.4063  134.7311  157.4810 LP  0  0  0  0  0  0  0  0  0  0  0  0  # atno 17394 bound_to 11000
  140.0459  134.6200  155.8922 LP  0  0  0  0  0  0  0  0  0  0  0  0  # atno 17395 bound_to 11000

$$$$
