AV-unprocessed.smi:1618|AV-procd|sdf|6486|dock2
  -GOLD-   22720 7143D 1   1.00000     0.00000
 Structure written by MMmdl.
 28 29  0  0  0  0  0  0  0  0  1 V2000
  152.1174  144.1405  161.2490 C   0  0  0  0  0  0  0  0  0  0  0  0
  152.3524  142.9494  160.4110 N   0  0  0  0  0  0  0  0  0  0  0  0
  151.8021  142.9207  159.1563 C   0  0  0  0  0  0  0  0  0  0  0  0
  151.1332  143.8281  158.6605 O   0  0  0  0  0  0  0  0  0  0  0  0
  152.0814  141.6881  158.4121 C   0  0  0  0  0  0  0  0  0  0  0  0
  152.8378  140.6815  158.9160 C   0  0  0  0  0  0  0  0  0  0  0  0
  152.9682  139.6379  158.0078 N   0  0  0  0  0  0  0  0  0  0  0  0
  152.2561  140.0906  156.9769 C   0  0  0  0  0  0  0  0  0  0  0  0
  152.0482  139.2444  155.4910 Cl  0  0  0  0  0  0  0  0  0  0  0  0
  151.6785  141.3043  157.1316 N   0  0  0  0  0  0  0  0  0  0  0  0
  150.8474  142.0331  156.1815 C   0  0  0  0  0  0  0  0  0  0  0  0
  149.7316  141.1470  155.6120 C   0  0  0  0  0  0  0  0  0  0  0  0
  149.1293  141.7893  154.5098 O   0  0  0  0  0  0  0  0  0  0  0  0
  153.3696  140.8168  160.2223 N   0  0  0  0  0  0  0  0  0  0  0  0
  154.1769  139.7052  160.7340 C   0  0  0  0  0  0  0  0  0  0  0  0
  153.1252  141.9444  160.9681 C   0  0  0  0  0  0  0  0  0  0  0  0
  153.5858  142.0579  162.1073 O   0  0  0  0  0  0  0  0  0  0  0  0
  151.4818  144.9028  160.7974 H   0  0  0  0  0  0  0  0  0  0  0  0
  153.0637  144.6271  161.4904 H   0  0  0  0  0  0  0  0  0  0  0  0
  151.6372  143.8578  162.1873 H   0  0  0  0  0  0  0  0  0  0  0  0
  150.4229  142.9091  156.6719 H   0  0  0  0  0  0  0  0  0  0  0  0
  151.4776  142.4246  155.3834 H   0  0  0  0  0  0  0  0  0  0  0  0
  150.1277  140.1838  155.2891 H   0  0  0  0  0  0  0  0  0  0  0  0
  148.9709  140.9513  156.3685 H   0  0  0  0  0  0  0  0  0  0  0  0
  149.0189  142.7044  154.7182 H   0  0  0  0  0  0  0  0  0  0  0  0
  154.5684  139.8564  161.7401 H   0  0  0  0  0  0  0  0  0  0  0  0
  155.0306  139.5330  160.0775 H   0  0  0  0  0  0  0  0  0  0  0  0
  153.5802  138.7926  160.7526 H   0  0  0  0  0  0  0  0  0  0  0  0
  1  2  1  0  0  0  0
  1 18  1  0  0  0  0
  1 19  1  0  0  0  0
  1 20  1  0  0  0  0
  2 16  1  0  0  0  0
  2  3  1  0  0  0  0
  3  4  2  0  0  0  0
  3  5  1  0  0  0  0
  5 10  1  0  0  0  0
  5  6  2  0  0  0  0
  6  7  1  0  0  0  0
  6 14  1  0  0  0  0
  7  8  2  0  0  0  0
  8  9  1  0  0  0  0
  8 10  1  0  0  0  0
 10 11  1  0  0  0  0
 11 12  1  0  0  0  0
 11 21  1  0  0  0  0
 11 22  1  0  0  0  0
 12 13  1  0  0  0  0
 12 23  1  0  0  0  0
 12 24  1  0  0  0  0
 13 25  1  0  0  0  0
 14 15  1  0  0  0  0
 14 16  1  0  0  0  0
 15 26  1  0  0  0  0
 15 27  1  0  0  0  0
 15 28  1  0  0  0  0
 16 17  2  0  0  0  0
M  END
> <s_m_source_file>
AV-unprocessed.smi

> <i_m_source_file_index>
1618

> <i_lp_mmshare_version>
43012

> <i_f3d_flags>
0

> <s_epik_input>
Tz1jMW4oW0NIM10pYyg9TyluKFtDSDNdKWMoYzEyKW5jKENsKW4yW0NIMl1bQ0gyXVtPSF0=

> <s_epik_cmdline>
J2VwaWtfcHl0aG9uJywgJy1waCcsICc3LjAnLCAnLXRuJywgJzgnLCAnLW1hJywgJzIwMCcsICctbWV0YWxfYmluZGluZycsICctaW1hZScsICc8aW5maWxlLm1hZT4nLCAnLW9tYWUnLCAnPG91dGZpbGUubWFlPic=

> <r_lp_tautomer_probability>
1

> <r_epik_Ionization_Penalty>
1.64879e-07

> <r_epik_Ionization_Penalty_Charging>
1.19961e-09

> <r_epik_Ionization_Penalty_Neutral>
1.63679e-07

> <r_epik_State_Penalty>
-0

> <r_epik_Charging_Adjusted_Penalty>
1.19961e-09

> <i_epik_Tot_Q>
0

> <i_epik_Tot_abs_Q>
0

> <r_epik_Metal_State_Penalty>
-0

> <b_epik_Metal_Only>
0

> <s_lp_Force_Field>
OPLS_2005

> <r_lp_Energy>
32.2378

> <b_lp_Chiralities_Consistent>
1

> <s_lp_Variant>
AV-unprocessed.smi:1618-1

> <Gold.Version>
5.8.1

> <Gold.Id.Protein>
6NUR|6NUR_protein|mol2

> <Gold.PLP.Fitness>
42.4339

> <Gold.PLP.PLP>
-36.5411

> <Gold.PLP.part.hbond>
-3.0000

> <Gold.PLP.part.metal>
0.0000

> <Gold.PLP.part.buried>
-3.5766

> <Gold.PLP.part.nonpolar>
-28.7802

> <Gold.PLP.part.repulsive>
0.1355

> <Gold.PLP.ligand.clash>
0.0000

> <Gold.PLP.ligand.torsion>
0.1470

> <Gold.PLP.Chemscore.Hbond>
2.0622

> <Gold.PLP.Chemscore.CHOScore>
0.0000

> <Gold.PLP.Chemscore.Metal>
0.0000

> <Gold.Chemscore.Hbonds>
donor molecule, donor type, donor heavy atom, donor atom, acceptor molecule, acceptor atom, score
      L1  H    13    25       P1  8028  0.55
      P1  H  7997  8010       L1     7  0.35
      P1  H  8011  8017       L1    13  0.03

> <Gold.PLP.Chemscore.Internal.Correction>
0.0003

> <Gold.Rescore>
     Score         DG    S(hbond)    S(metal)    S(lipo)     H(rot)  DE(clash)    DE(int)     intcor
      9.58      -9.62       1.03        0.00      49.48       1.99       0.03       0.02       ----

> <Gold.Chemscore.Fitness>
9.5793

> <Gold.Chemscore.DG>
-9.6196

> <Gold.Chemscore.ZeroCoef>
-5.4800

> <Gold.Chemscore.Hbond>
1.0313

> <Gold.Chemscore.Metal>
0.0000

> <Gold.Chemscore.Lipo>
49.4770

> <Gold.Chemscore.Internal_Hbond>
0.0000

> <Gold.Chemscore.DEClash>
0.0251

> <Gold.Chemscore.DEInternal>
0.0153

> <Gold.Chemscore.Rot>
1.9898

> <Gold.Chemscore.Internal.Correction>
   9.000000E+99

> <Gold.Chemscore.Hbonds>
donor molecule, donor type, donor heavy atom, donor atom, acceptor molecule, acceptor atom, score
      L1  H    13    25       P1  8028  0.54

> <Gold.Chemscore.Hbond.Weighted>
-3.4447

> <Gold.Chemscore.Metal.Weighted>
-0.0000

> <Gold.Chemscore.Lipo.Weighted>
-5.7888

> <Gold.Chemscore.Internal_Hbond.Weighted>
0.0000

> <Gold.Chemscore.DEClash.Weighted>
0.0251

> <Gold.Chemscore.DEInternal.Weighted>
0.0153

> <Gold.Chemscore.Rot.Weighted>
5.0939

> <Gold.Chemscore.Internal.Correction.Weighted>
   9.000000E+99

> <Gold.Protein.RotatedTorsions>
[ 6907 6896 6895 6894 ] final  -83.17 input  -60.11 | X-H torsion
[ 7974 7965 7964 7962 ] final  156.71 input  175.53 | X-H torsion
[ 8008 7997 7996 7995 ] final   38.73 input   59.86 | X-H torsion
[ 10167 10162 10161 10158 ] final  138.82 input  -65.29 | X-H torsion
[ 10718 10713 10712 10709 ] final -166.48 input   66.30 | X-H torsion
[ 10763 10752 10751 10750 ] final  101.01 input  -60.55 | X-H torsion
[ 11005 11000 10999 10996 ] final  -52.30 input  -57.11 | X-H torsion

> <Gold.Protein.ActiveResidues>
 VAL166  LYS551  ARG553  GLY616  TRP617  ASP618  TYR619  PRO620  LYS621  CYS622 
 ASP623  PHE694  ASN695  SER759  ASP760  ASP761  ALA762  ILE779  LEU786  VAL792 
 PHE793  MET794  SER795  GLU796  ALA797  LYS798  CYS799  TRP800  GLU811  SER814 

> <Gold.Protein.RotatedAtoms>
  150.6888  134.3553  159.4926 H   0  0  0  0  0  0  0  0  0  0  0  0  # atno 6907 bound_to 6896
  152.1389  134.9075  160.0564 H   0  0  0  0  0  0  0  0  0  0  0  0  # atno 6908 bound_to 6896
  152.0217  133.3866  159.4297 H   0  0  0  0  0  0  0  0  0  0  0  0  # atno 6909 bound_to 6896
  144.7947  139.7241  143.6207 H   0  0  0  0  0  0  0  0  0  0  0  0  # atno 7974 bound_to 7965
  155.2250  140.3334  155.4310 H   0  0  0  0  0  0  0  0  0  0  0  0  # atno 8008 bound_to 7997
  156.2318  140.1854  156.7269 H   0  0  0  0  0  0  0  0  0  0  0  0  # atno 8009 bound_to 7997
  154.5991  140.0626  156.9329 H   0  0  0  0  0  0  0  0  0  0  0  0  # atno 8010 bound_to 7997
  139.5098  144.6331  151.5766 H   0  0  0  0  0  0  0  0  0  0  0  0  # atno 10167 bound_to 10162
  156.6685  130.9074  151.3040 H   0  0  0  0  0  0  0  0  0  0  0  0  # atno 10718 bound_to 10713
  153.3212  135.4059  155.1418 H   0  0  0  0  0  0  0  0  0  0  0  0  # atno 10763 bound_to 10752
  154.8601  135.3588  154.5594 H   0  0  0  0  0  0  0  0  0  0  0  0  # atno 10764 bound_to 10752
  153.6028  135.7070  153.5437 H   0  0  0  0  0  0  0  0  0  0  0  0  # atno 10765 bound_to 10752
  141.0917  133.6631  156.4004 H   0  0  0  0  0  0  0  0  0  0  0  0  # atno 11005 bound_to 11000
  146.2211  139.5637  142.9618 LP  0  0  0  0  0  0  0  0  0  0  0  0  # atno 17320 bound_to 7965
  145.5705  141.0394  143.2177 LP  0  0  0  0  0  0  0  0  0  0  0  0  # atno 17321 bound_to 7965
  140.6071  143.9505  150.6426 LP  0  0  0  0  0  0  0  0  0  0  0  0  # atno 17342 bound_to 10162
  140.2735  143.3439  152.1216 LP  0  0  0  0  0  0  0  0  0  0  0  0  # atno 17343 bound_to 10162
  157.7085  130.9413  150.1011 LP  0  0  0  0  0  0  0  0  0  0  0  0  # atno 17370 bound_to 10713
  156.1957  130.3657  149.8853 LP  0  0  0  0  0  0  0  0  0  0  0  0  # atno 17371 bound_to 10713
  140.5236  134.6280  157.5326 LP  0  0  0  0  0  0  0  0  0  0  0  0  # atno 17394 bound_to 11000
  139.9744  134.7239  155.9978 LP  0  0  0  0  0  0  0  0  0  0  0  0  # atno 17395 bound_to 11000

$$$$
