AV-unprocessed.smi:1891|AV-procd|sdf|7665|dock6
  -GOLD-   22720 9403D 1   1.00000     0.00000
 Structure written by MMmdl.
 36 38  0  0  0  0  0  0  0  0  1 V2000
  152.3537  137.2469  155.9267 O   0  0  0  0  0  0  0  0  0  0  0  0
  152.5873  138.5994  156.2533 C   0  0  0  0  0  0  0  0  0  0  0  0
  151.3755  139.4646  156.0792 C   0  0  0  0  0  0  0  0  0  0  0  0
  150.7688  139.5862  154.8977 N   0  0  0  0  0  0  0  0  0  0  0  0
  149.7118  140.4280  155.1820 C   0  0  0  0  0  0  0  0  0  0  0  0
  148.6912  140.9350  154.3463 C   0  0  0  0  0  0  0  0  0  0  0  0
  147.6961  141.7858  154.8707 C   0  0  0  0  0  0  0  0  0  0  0  0
  147.7064  142.1397  156.2355 C   0  0  0  0  0  0  0  0  0  0  0  0
  148.7153  141.6467  157.0850 C   0  0  0  0  0  0  0  0  0  0  0  0
  149.7085  140.8004  156.5557 C   0  0  0  0  0  0  0  0  0  0  0  0
  150.8173  140.1616  157.1029 N   0  0  0  0  0  0  0  0  0  0  0  0
  151.2419  140.2375  158.4959 C   0  0  0  0  0  0  0  0  0  0  0  0
  152.6829  140.7645  158.6558 C   0  0  2  0  0  0  0  0  0  0  0  0
  153.5696  139.6897  158.8995 O   0  0  0  0  0  0  0  0  0  0  0  0
  152.7566  141.8359  159.7352 C   0  0  0  0  0  0  0  0  0  0  0  0
  153.4880  141.6050  160.9221 C   0  0  0  0  0  0  0  0  0  0  0  0
  153.5467  142.5913  161.9256 C   0  0  0  0  0  0  0  0  0  0  0  0
  152.8710  143.8139  161.7517 C   0  0  0  0  0  0  0  0  0  0  0  0
  152.9252  144.7613  162.7176 F   0  0  0  0  0  0  0  0  0  0  0  0
  152.1360  144.0490  160.5742 C   0  0  0  0  0  0  0  0  0  0  0  0
  152.0753  143.0635  159.5693 C   0  0  0  0  0  0  0  0  0  0  0  0
  151.3550  143.3027  158.4469 F   0  0  0  0  0  0  0  0  0  0  0  0
  151.8354  137.2141  155.1375 H   0  0  0  0  0  0  0  0  0  0  0  0
  152.9186  138.6491  157.2912 H   0  0  0  0  0  0  0  0  0  0  0  0
  153.4073  138.9877  155.6494 H   0  0  0  0  0  0  0  0  0  0  0  0
  148.6728  140.6675  153.3001 H   0  0  0  0  0  0  0  0  0  0  0  0
  146.9201  142.1670  154.2233 H   0  0  0  0  0  0  0  0  0  0  0  0
  146.9395  142.7901  156.6297 H   0  0  0  0  0  0  0  0  0  0  0  0
  148.7246  141.9164  158.1306 H   0  0  0  0  0  0  0  0  0  0  0  0
  150.5475  140.8974  159.0176 H   0  0  0  0  0  0  0  0  0  0  0  0
  151.1442  139.2614  158.9693 H   0  0  0  0  0  0  0  0  0  0  0  0
  153.0068  141.2063  157.7137 H   0  0  0  0  0  0  0  0  0  0  0  0
  153.2694  139.2199  159.6624 H   0  0  0  0  0  0  0  0  0  0  0  0
  154.0048  140.6679  161.0695 H   0  0  0  0  0  0  0  0  0  0  0  0
  154.1085  142.4086  162.8299 H   0  0  0  0  0  0  0  0  0  0  0  0
  151.6154  144.9860  160.4420 H   0  0  0  0  0  0  0  0  0  0  0  0
  1  2  1  0  0  0  0
  1 23  1  0  0  0  0
  2  3  1  0  0  0  0
  2 24  1  0  0  0  0
  2 25  1  0  0  0  0
  3 11  1  0  0  0  0
  3  4  2  0  0  0  0
  4  5  1  0  0  0  0
  5 10  2  0  0  0  0
  5  6  1  0  0  0  0
  6  7  2  0  0  0  0
  6 26  1  0  0  0  0
  7  8  1  0  0  0  0
  7 27  1  0  0  0  0
  8  9  2  0  0  0  0
  8 28  1  0  0  0  0
  9 10  1  0  0  0  0
  9 29  1  0  0  0  0
 10 11  1  0  0  0  0
 11 12  1  0  0  0  0
 12 13  1  0  0  0  0
 12 30  1  0  0  0  0
 12 31  1  0  0  0  0
 13 14  1  0  0  0  0
 13 15  1  0  0  0  0
 13 32  1  0  0  0  0
 14 33  1  0  0  0  0
 15 21  1  0  0  0  0
 15 16  2  0  0  0  0
 16 17  1  0  0  0  0
 16 34  1  0  0  0  0
 17 18  2  0  0  0  0
 17 35  1  0  0  0  0
 18 19  1  0  0  0  0
 18 20  1  0  0  0  0
 20 21  2  0  0  0  0
 20 36  1  0  0  0  0
 21 22  1  0  0  0  0
M  END
> <s_m_source_file>
AV-unprocessed.smi

> <i_m_source_file_index>
1891

> <i_lp_mmshare_version>
43012

> <i_f3d_flags>
0

> <s_epik_input>
W2NIXTFbY0hdW2NIXVtjSF1jKGMxMiluKGMobjIpW0NIMl1bT0hdKVtDSDJdW0NASF0oW09IXSljM1tjSF1bY0hdYyhGKVtjSF1jM0Y=

> <s_epik_cmdline>
J2VwaWtfcHl0aG9uJywgJy1waCcsICc3LjAnLCAnLXRuJywgJzgnLCAnLW1hJywgJzIwMCcsICctbWV0YWxfYmluZGluZycsICctaW1hZScsICc8aW5maWxlLm1hZT4nLCAnLW9tYWUnLCAnPG91dGZpbGUubWFlPic=

> <r_epik_Ionization_Penalty>
0.0634724

> <r_epik_Ionization_Penalty_Charging>
0

> <r_epik_Ionization_Penalty_Neutral>
0.0634724

> <r_epik_State_Penalty>
0.0551572

> <r_epik_Charging_Adjusted_Penalty>
0.0551572

> <i_epik_Tot_Q>
0

> <i_epik_Tot_abs_Q>
0

> <r_epik_Metal_State_Penalty>
5.78034e-05

> <b_epik_Metal_Only>
0

> <s_lp_Force_Field>
OPLS_2005

> <r_lp_Energy>
12.6206

> <b_lp_Chiralities_Consistent>
1

> <s_lp_Variant>
AV-unprocessed.smi:1891-1

> <Gold.Version>
5.8.1

> <Gold.Id.Protein>
6NUR|6NUR_protein|mol2

> <Gold.PLP.Fitness>
55.5914

> <Gold.PLP.PLP>
-49.1755

> <Gold.PLP.part.hbond>
-3.0000

> <Gold.PLP.part.metal>
0.0000

> <Gold.PLP.part.buried>
-2.5681

> <Gold.PLP.part.nonpolar>
-42.9578

> <Gold.PLP.part.repulsive>
0.4252

> <Gold.PLP.ligand.clash>
0.0000

> <Gold.PLP.ligand.torsion>
0.7342

> <Gold.PLP.Chemscore.Hbond>
2.6160

> <Gold.PLP.Chemscore.CHOScore>
0.0000

> <Gold.PLP.Chemscore.Metal>
0.0000

> <Gold.Chemscore.Hbonds>
donor molecule, donor type, donor heavy atom, donor atom, acceptor molecule, acceptor atom, score
      P1  H  7989  7998       L1     4  0.65
      P1  H  7997  8009       L1    14  0.37

> <Gold.PLP.Chemscore.Internal.Correction>
0.0364

> <Gold.Rescore>
     Score         DG    S(hbond)    S(metal)    S(lipo)     H(rot)  DE(clash)    DE(int)     intcor
     14.56     -15.77       1.56        0.00     106.34       2.88       0.28       0.94       ----

> <Gold.Chemscore.Fitness>
14.5555

> <Gold.Chemscore.DG>
-15.7749

> <Gold.Chemscore.ZeroCoef>
-5.4800

> <Gold.Chemscore.Hbond>
1.5620

> <Gold.Chemscore.Metal>
0.0000

> <Gold.Chemscore.Lipo>
106.3436

> <Gold.Chemscore.Internal_Hbond>
0.0000

> <Gold.Chemscore.DEClash>
0.2762

> <Gold.Chemscore.DEInternal>
0.9431

> <Gold.Chemscore.Rot>
2.8767

> <Gold.Chemscore.Internal.Correction>
   9.000000E+99

> <Gold.Chemscore.Hbonds>
donor molecule, donor type, donor heavy atom, donor atom, acceptor molecule, acceptor atom, score
      P1  H  7989  7998       L1     4  0.08
      P1  H  7997  8009       L1    14  0.02

> <Gold.Chemscore.Hbond.Weighted>
-5.2171

> <Gold.Chemscore.Metal.Weighted>
-0.0000

> <Gold.Chemscore.Lipo.Weighted>
-12.4422

> <Gold.Chemscore.Internal_Hbond.Weighted>
0.0000

> <Gold.Chemscore.DEClash.Weighted>
0.2762

> <Gold.Chemscore.DEInternal.Weighted>
0.9431

> <Gold.Chemscore.Rot.Weighted>
7.3644

> <Gold.Chemscore.Internal.Correction.Weighted>
   9.000000E+99

> <Gold.Protein.RotatedTorsions>
[ 6907 6896 6895 6894 ] final   99.95 input  -60.11 | X-H torsion
[ 7974 7965 7964 7962 ] final -125.89 input  175.53 | X-H torsion
[ 8008 7997 7996 7995 ] final  156.74 input   59.86 | X-H torsion
[ 10167 10162 10161 10158 ] final -159.89 input  -65.29 | X-H torsion
[ 10718 10713 10712 10709 ] final   52.80 input   66.30 | X-H torsion
[ 10763 10752 10751 10750 ] final  171.75 input  -60.55 | X-H torsion
[ 11005 11000 10999 10996 ] final -168.95 input  -57.11 | X-H torsion

> <Gold.Protein.ActiveResidues>
 VAL166  LYS551  ARG553  GLY616  TRP617  ASP618  TYR619  PRO620  LYS621  CYS622 
 ASP623  PHE694  ASN695  SER759  ASP760  ASP761  ALA762  ILE779  LEU786  VAL792 
 PHE793  MET794  SER795  GLU796  ALA797  LYS798  CYS799  TRP800  GLU811  SER814 

> <Gold.Protein.RotatedAtoms>
  152.5382  134.0351  159.8041 H   0  0  0  0  0  0  0  0  0  0  0  0  # atno 6907 bound_to 6896
  151.0516  133.5612  159.2649 H   0  0  0  0  0  0  0  0  0  0  0  0  # atno 6908 bound_to 6896
  151.2544  135.0641  159.9128 H   0  0  0  0  0  0  0  0  0  0  0  0  # atno 6909 bound_to 6896
  144.9929  140.7749  143.4543 H   0  0  0  0  0  0  0  0  0  0  0  0  # atno 7974 bound_to 7965
  156.2405  140.1904  156.7002 H   0  0  0  0  0  0  0  0  0  0  0  0  # atno 8008 bound_to 7997
  154.6187  140.0611  156.9614 H   0  0  0  0  0  0  0  0  0  0  0  0  # atno 8009 bound_to 7997
  155.1897  140.3283  155.4363 H   0  0  0  0  0  0  0  0  0  0  0  0  # atno 8010 bound_to 7997
  139.6580  143.9963  152.2207 H   0  0  0  0  0  0  0  0  0  0  0  0  # atno 10167 bound_to 10162
  157.5108  130.8499  149.8433 H   0  0  0  0  0  0  0  0  0  0  0  0  # atno 10718 bound_to 10713
  154.4164  135.2757  155.2004 H   0  0  0  0  0  0  0  0  0  0  0  0  # atno 10763 bound_to 10752
  154.3968  135.6053  153.5878 H   0  0  0  0  0  0  0  0  0  0  0  0  # atno 10764 bound_to 10752
  152.9832  135.5916  154.4453 H   0  0  0  0  0  0  0  0  0  0  0  0  # atno 10765 bound_to 10752
  140.5362  134.5567  157.5088 H   0  0  0  0  0  0  0  0  0  0  0  0  # atno 11005 bound_to 11000
  145.2260  139.2137  143.5068 LP  0  0  0  0  0  0  0  0  0  0  0  0  # atno 17320 bound_to 7965
  146.3435  140.2127  142.8590 LP  0  0  0  0  0  0  0  0  0  0  0  0  # atno 17321 bound_to 7965
  139.9694  144.6504  150.8003 LP  0  0  0  0  0  0  0  0  0  0  0  0  # atno 17342 bound_to 10162
  140.7568  143.3073  151.2931 LP  0  0  0  0  0  0  0  0  0  0  0  0  # atno 17343 bound_to 10162
  156.0288  130.3771  150.1747 LP  0  0  0  0  0  0  0  0  0  0  0  0  # atno 17370 bound_to 10713
  156.9936  130.9901  151.3408 LP  0  0  0  0  0  0  0  0  0  0  0  0  # atno 17371 bound_to 10713
  139.9528  134.7587  156.0410 LP  0  0  0  0  0  0  0  0  0  0  0  0  # atno 17394 bound_to 11000
  141.1253  133.6601  156.3321 LP  0  0  0  0  0  0  0  0  0  0  0  0  # atno 17395 bound_to 11000

$$$$
