AV-unprocessed.smi:113|AV-procd|sdf|1096|dock8
  -GOLD-   2262018203D 1   1.00000     0.00000
 Structure written by MMmdl.
 52 55  0  0  0  0  0  0  0  0  1 V2000
  151.4515  139.5961  156.2144 C   0  0  0  0  0  0  0  0  0  0  0  0
  152.2391  139.7768  157.4954 C   0  0  0  0  0  0  0  0  0  0  0  0
  153.1622  138.8023  157.9141 C   0  0  0  0  0  0  0  0  0  0  0  0
  153.8769  139.0062  159.1167 C   0  0  0  0  0  0  0  0  0  0  0  0
  154.8951  137.9759  159.6173 C   0  0  0  0  0  0  0  0  0  0  0  0
  155.3119  136.9514  158.6703 N   0  0  0  0  0  0  0  0  0  0  0  0
  154.8588  135.6271  158.8883 C   0  0  0  0  0  0  0  0  0  0  0  0
  154.1282  135.3434  159.8400 O   0  0  0  0  0  0  0  0  0  0  0  0
  155.3103  134.6443  157.9003 C   0  0  0  0  0  0  0  0  0  0  0  0
  154.9007  133.1928  158.0937 C   0  0  0  0  0  0  0  0  0  0  0  0
  156.0715  135.0442  156.8537 C   0  0  0  0  0  0  0  0  0  0  0  0
  156.4628  136.3551  156.6409 N   0  0  0  0  0  0  0  0  0  0  0  0
  157.2983  136.7346  155.4396 C   0  0  1  0  0  0  0  0  0  0  0  0
  158.6153  135.9567  155.4269 C   0  0  0  0  0  0  0  0  0  0  0  0
  158.7864  135.6760  153.9489 C   0  0  1  0  0  0  0  0  0  0  0  0
  159.5922  134.5335  153.7447 O   0  0  0  0  0  0  0  0  0  0  0  0
  157.3373  135.4665  153.4994 C   0  0  2  0  0  0  0  0  0  0  0  0
  157.0808  135.7187  152.0055 C   0  0  0  0  0  0  0  0  0  0  0  0
  157.5111  137.0128  151.6412 O   0  0  0  0  0  0  0  0  0  0  0  0
  156.5991  136.4108  154.2726 O   0  0  0  0  0  0  0  0  0  0  0  0
  156.1009  137.3532  157.5687 C   0  0  0  0  0  0  0  0  0  0  0  0
  156.4546  138.5246  157.4141 O   0  0  0  0  0  0  0  0  0  0  0  0
  153.6227  140.1980  159.8480 C   0  0  0  0  0  0  0  0  0  0  0  0
  154.2981  140.4805  161.0601 C   0  0  0  0  0  0  0  0  0  0  0  0
  154.0301  141.6645  161.7700 C   0  0  0  0  0  0  0  0  0  0  0  0
  153.0845  142.5782  161.2766 C   0  0  0  0  0  0  0  0  0  0  0  0
  152.4100  142.3055  160.0728 C   0  0  0  0  0  0  0  0  0  0  0  0
  152.6636  141.1246  159.3426 C   0  0  0  0  0  0  0  0  0  0  0  0
  151.9936  140.9049  158.1898 N   0  0  0  0  0  0  0  0  0  0  0  0
  151.9404  138.8808  155.5521 H   0  0  0  0  0  0  0  0  0  0  0  0
  151.3583  140.5416  155.6788 H   0  0  0  0  0  0  0  0  0  0  0  0
  150.4505  139.2269  156.4381 H   0  0  0  0  0  0  0  0  0  0  0  0
  153.3077  137.9181  157.3119 H   0  0  0  0  0  0  0  0  0  0  0  0
  155.7959  138.4793  159.9717 H   0  0  0  0  0  0  0  0  0  0  0  0
  154.5095  137.4628  160.4994 H   0  0  0  0  0  0  0  0  0  0  0  0
  155.3258  132.5448  157.3268 H   0  0  0  0  0  0  0  0  0  0  0  0
  153.8154  133.0950  158.0501 H   0  0  0  0  0  0  0  0  0  0  0  0
  155.2391  132.8260  159.0635 H   0  0  0  0  0  0  0  0  0  0  0  0
  156.3910  134.2911  156.1494 H   0  0  0  0  0  0  0  0  0  0  0  0
  157.4305  137.8172  155.4539 H   0  0  0  0  0  0  0  0  0  0  0  0
  159.4252  136.5402  155.8656 H   0  0  0  0  0  0  0  0  0  0  0  0
  158.4984  135.0280  155.9888 H   0  0  0  0  0  0  0  0  0  0  0  0
  159.2259  136.5425  153.4523 H   0  0  0  0  0  0  0  0  0  0  0  0
  159.0764  133.7636  153.9310 H   0  0  0  0  0  0  0  0  0  0  0  0
  156.9948  134.4691  153.7806 H   0  0  0  0  0  0  0  0  0  0  0  0
  157.6349  134.9969  151.4051 H   0  0  0  0  0  0  0  0  0  0  0  0
  156.0250  135.5979  151.7614 H   0  0  0  0  0  0  0  0  0  0  0  0
  157.3392  137.1385  150.7201 H   0  0  0  0  0  0  0  0  0  0  0  0
  155.0303  139.8001  161.4670 H   0  0  0  0  0  0  0  0  0  0  0  0
  154.5510  141.8706  162.6935 H   0  0  0  0  0  0  0  0  0  0  0  0
  152.8760  143.4880  161.8200 H   0  0  0  0  0  0  0  0  0  0  0  0
  151.6853  143.0163  159.7032 H   0  0  0  0  0  0  0  0  0  0  0  0
  1  2  1  0  0  0  0
  1 30  1  0  0  0  0
  1 31  1  0  0  0  0
  1 32  1  0  0  0  0
  2 29  1  0  0  0  0
  2  3  2  0  0  0  0
  3  4  1  0  0  0  0
  3 33  1  0  0  0  0
  4  5  1  0  0  0  0
  4 23  2  0  0  0  0
  5  6  1  0  0  0  0
  5 34  1  0  0  0  0
  5 35  1  0  0  0  0
  6 21  1  0  0  0  0
  6  7  1  0  0  0  0
  7  8  2  0  0  0  0
  7  9  1  0  0  0  0
  9 10  1  0  0  0  0
  9 11  2  0  0  0  0
 10 36  1  0  0  0  0
 10 37  1  0  0  0  0
 10 38  1  0  0  0  0
 11 12  1  0  0  0  0
 11 39  1  0  0  0  0
 12 13  1  0  0  0  0
 12 21  1  0  0  0  0
 13 20  1  0  0  0  0
 13 14  1  0  0  0  0
 13 40  1  0  0  0  0
 14 15  1  0  0  0  0
 14 41  1  0  0  0  0
 14 42  1  0  0  0  0
 15 16  1  0  0  0  0
 15 17  1  0  0  0  0
 15 43  1  0  0  0  0
 16 44  1  0  0  0  0
 17 18  1  0  0  0  0
 17 20  1  0  0  0  0
 17 45  1  0  0  0  0
 18 19  1  0  0  0  0
 18 46  1  0  0  0  0
 18 47  1  0  0  0  0
 19 48  1  0  0  0  0
 21 22  2  0  0  0  0
 23 28  1  0  0  0  0
 23 24  1  0  0  0  0
 24 25  2  0  0  0  0
 24 49  1  0  0  0  0
 25 26  1  0  0  0  0
 25 50  1  0  0  0  0
 26 27  2  0  0  0  0
 26 51  1  0  0  0  0
 27 28  1  0  0  0  0
 27 52  1  0  0  0  0
 28 29  2  0  0  0  0
M  END
> <s_m_source_file>
AV-unprocessed.smi

> <i_m_source_file_index>
113

> <i_lp_mmshare_version>
43012

> <i_f3d_flags>
0

> <s_epik_input>
W2NIXTFbY0hdW2NIXVtjSF1jKGMxMiluYyhbQ0gzXSlbY0hdYzJbQ0gyXW4zYyg9TyljKFtDSDNdKVtjSF1uKGMzPU8pW0NAQEhdNFtDSDJdW0NAQEhdKFtPSF0pW0NASF0oTzQpW0NIMl1bT0hd

> <s_epik_cmdline>
J2VwaWtfcHl0aG9uJywgJy1waCcsICc3LjAnLCAnLXRuJywgJzgnLCAnLW1hJywgJzIwMCcsICctbWV0YWxfYmluZGluZycsICctaW1hZScsICc8aW5maWxlLm1hZT4nLCAnLW9tYWUnLCAnPG91dGZpbGUubWFlPic=

> <r_lp_tautomer_probability>
1

> <r_epik_Ionization_Penalty>
0.214728

> <r_epik_Ionization_Penalty_Charging>
3.04883e-08

> <r_epik_Ionization_Penalty_Neutral>
0.214728

> <r_epik_State_Penalty>
0.204913

> <r_epik_Charging_Adjusted_Penalty>
0.204913

> <i_epik_Tot_Q>
0

> <i_epik_Tot_abs_Q>
0

> <r_epik_Metal_State_Penalty>
0.000244761

> <b_epik_Metal_Only>
0

> <s_epik_Chemistry_Notes>
This compound contains an acetal/aminal-like group ( X-CH(R)-Y where X, Y are N, S, or O) that may be acid/base labile, releasing an aldehyde.

> <s_lp_Force_Field>
OPLS_2005

> <r_lp_Energy>
37.2315

> <b_lp_Chiralities_Consistent>
1

> <s_lp_Variant>
AV-unprocessed.smi:113-6

> <Gold.Version>
5.8.1

> <Gold.Id.Protein>
6NUR|6NUR_protein|mol2

> <Gold.PLP.Fitness>
50.5710

> <Gold.PLP.PLP>
-40.1606

> <Gold.PLP.part.hbond>
-3.6729

> <Gold.PLP.part.metal>
0.0000

> <Gold.PLP.part.buried>
-5.1223

> <Gold.PLP.part.nonpolar>
-31.1468

> <Gold.PLP.part.repulsive>
0.0702

> <Gold.PLP.ligand.clash>
0.0000

> <Gold.PLP.ligand.torsion>
0.2637

> <Gold.PLP.Chemscore.Hbond>
3.6400

> <Gold.PLP.Chemscore.CHOScore>
0.0000

> <Gold.PLP.Chemscore.Metal>
0.0000

> <Gold.Chemscore.Hbonds>
donor molecule, donor type, donor heavy atom, donor atom, acceptor molecule, acceptor atom, score
      L1  H    19    48       P1 10674  1.00
      P1  H  6896  6908       L1     8  1.00
      P1  H  7997  8010       L1    22  0.64
      P1  H 10752 10763       L1    20  0.90

> <Gold.PLP.Chemscore.Internal.Correction>
0.0177

> <Gold.Rescore>
     Score         DG    S(hbond)    S(metal)    S(lipo)     H(rot)  DE(clash)    DE(int)     intcor
     22.15     -22.54       3.36        0.00     114.25       2.95       0.10       0.29       ----

> <Gold.Chemscore.Fitness>
22.1452

> <Gold.Chemscore.DG>
-22.5369

> <Gold.Chemscore.ZeroCoef>
-5.4800

> <Gold.Chemscore.Hbond>
3.3633

> <Gold.Chemscore.Metal>
0.0000

> <Gold.Chemscore.Lipo>
114.2518

> <Gold.Chemscore.Internal_Hbond>
0.0000

> <Gold.Chemscore.DEClash>
0.0998

> <Gold.Chemscore.DEInternal>
0.2919

> <Gold.Chemscore.Rot>
2.9469

> <Gold.Chemscore.Internal.Correction>
   9.000000E+99

> <Gold.Chemscore.Hbonds>
donor molecule, donor type, donor heavy atom, donor atom, acceptor molecule, acceptor atom, score
      L1  H    19    48       P1 10674  1.00
      P1  H  6896  6908       L1     8  1.00
      P1  H  7997  8010       L1    22  0.64
      P1  H 10752 10763       L1    20  0.17

> <Gold.Chemscore.Hbond.Weighted>
-11.2334

> <Gold.Chemscore.Metal.Weighted>
-0.0000

> <Gold.Chemscore.Lipo.Weighted>
-13.3675

> <Gold.Chemscore.Internal_Hbond.Weighted>
0.0000

> <Gold.Chemscore.DEClash.Weighted>
0.0998

> <Gold.Chemscore.DEInternal.Weighted>
0.2919

> <Gold.Chemscore.Rot.Weighted>
7.5439

> <Gold.Chemscore.Internal.Correction.Weighted>
   9.000000E+99

> <Gold.Protein.RotatedTorsions>
[ 6907 6896 6895 6894 ] final  -56.47 input  -60.11 | X-H torsion
[ 7974 7965 7964 7962 ] final -154.54 input  175.53 | X-H torsion
[ 8008 7997 7996 7995 ] final  -63.06 input   59.86 | X-H torsion
[ 10167 10162 10161 10158 ] final  -10.90 input  -65.29 | X-H torsion
[ 10718 10713 10712 10709 ] final   46.56 input   66.30 | X-H torsion
[ 10763 10752 10751 10750 ] final -131.19 input  -60.55 | X-H torsion
[ 11005 11000 10999 10996 ] final -141.10 input  -57.11 | X-H torsion

> <Gold.Protein.ActiveResidues>
 VAL166  LYS551  ARG553  GLY616  TRP617  ASP618  TYR619  PRO620  LYS621  CYS622 
 ASP623  PHE694  ASN695  SER759  ASP760  ASP761  ALA762  ILE779  LEU786  VAL792 
 PHE793  MET794  SER795  GLU796  ALA797  LYS798  CYS799  TRP800  GLU811  SER814 

> <Gold.Protein.RotatedAtoms>
  150.8165  134.7350  159.6734 H   0  0  0  0  0  0  0  0  0  0  0  0  # atno 6907 bound_to 6896
  152.4284  134.5822  159.9961 H   0  0  0  0  0  0  0  0  0  0  0  0  # atno 6908 bound_to 6896
  151.6017  133.3318  159.3085 H   0  0  0  0  0  0  0  0  0  0  0  0  # atno 6909 bound_to 6896
  144.7684  140.4373  143.5925 H   0  0  0  0  0  0  0  0  0  0  0  0  # atno 7974 bound_to 7965
  154.4534  140.0983  156.6684 H   0  0  0  0  0  0  0  0  0  0  0  0  # atno 8008 bound_to 7997
  155.5215  140.3479  155.4389 H   0  0  0  0  0  0  0  0  0  0  0  0  # atno 8009 bound_to 7997
  156.0727  140.1353  156.9798 H   0  0  0  0  0  0  0  0  0  0  0  0  # atno 8010 bound_to 7997
  140.7125  143.5697  150.9105 H   0  0  0  0  0  0  0  0  0  0  0  0  # atno 10167 bound_to 10162
  157.4494  130.8129  149.7773 H   0  0  0  0  0  0  0  0  0  0  0  0  # atno 10718 bound_to 10713
  154.8752  135.3838  154.4206 H   0  0  0  0  0  0  0  0  0  0  0  0  # atno 10763 bound_to 10752
  153.4910  135.7030  153.5889 H   0  0  0  0  0  0  0  0  0  0  0  0  # atno 10764 bound_to 10752
  153.4263  135.3889  155.2110 H   0  0  0  0  0  0  0  0  0  0  0  0  # atno 10765 bound_to 10752
  140.8358  134.2462  157.4835 H   0  0  0  0  0  0  0  0  0  0  0  0  # atno 11005 bound_to 11000
  145.6399  139.1548  143.2921 LP  0  0  0  0  0  0  0  0  0  0  0  0  # atno 17320 bound_to 7965
  146.1811  140.6496  142.9189 LP  0  0  0  0  0  0  0  0  0  0  0  0  # atno 17321 bound_to 7965
  139.9423  143.6367  152.3050 LP  0  0  0  0  0  0  0  0  0  0  0  0  # atno 17342 bound_to 10162
  139.6856  144.7652  151.1529 LP  0  0  0  0  0  0  0  0  0  0  0  0  # atno 17343 bound_to 10162
  155.9981  130.3896  150.2716 LP  0  0  0  0  0  0  0  0  0  0  0  0  # atno 17370 bound_to 10713
  157.0887  131.0163  151.3130 LP  0  0  0  0  0  0  0  0  0  0  0  0  # atno 17371 bound_to 10713
  139.8704  134.9610  156.4381 LP  0  0  0  0  0  0  0  0  0  0  0  0  # atno 17394 bound_to 11000
  140.8949  133.7821  155.9614 LP  0  0  0  0  0  0  0  0  0  0  0  0  # atno 17395 bound_to 11000

$$$$
