AV-unprocessed.smi:1517|AV-procd|sdf|6121|dock7
  -GOLD-   22720 6253D 1   1.00000     0.00000
 Structure written by MMmdl.
 42 44  0  0  0  0  0  0  0  0  2 V2000
  145.9926  140.1429  153.7579 O   0  0  0  0  0  0  0  0  0  0  0  0
  147.1648  139.6717  153.1281 C   0  0  0  0  0  0  0  0  0  0  0  0
  146.7968  138.7222  151.9807 C   0  0  0  0  0  0  0  0  0  0  0  0
  146.4660  137.3934  152.4698 N   0  0  0  0  0  0  0  0  0  0  0  0
  145.1289  137.0799  152.7341 C   0  0  0  0  0  0  0  0  0  0  0  0
  144.0938  137.9612  152.7745 N   0  3  0  0  0  0  0  0  0  0  0  0
  142.9240  137.2528  153.0651 C   0  0  0  0  0  0  0  0  0  0  0  0
  141.6106  137.6886  153.2117 C   0  0  0  0  0  0  0  0  0  0  0  0
  140.6455  136.7036  153.5079 C   0  0  0  0  0  0  0  0  0  0  0  0
  140.9987  135.3452  153.6456 C   0  0  0  0  0  0  0  0  0  0  0  0
  142.3323  134.9117  153.4949 C   0  0  0  0  0  0  0  0  0  0  0  0
  143.2823  135.8903  153.2047 C   0  0  0  0  0  0  0  0  0  0  0  0
  144.6650  135.8299  152.9934 N   0  0  0  0  0  0  0  0  0  0  0  0
  145.3574  134.5348  153.0652 C   0  0  0  0  0  0  0  0  0  0  0  0
  145.3181  133.7627  151.7322 C   0  0  1  0  0  0  0  0  0  0  0  0
  146.2544  134.3215  150.8295 O   0  0  0  0  0  0  0  0  0  0  0  0
  145.5330  132.2719  151.9557 C   0  0  0  0  0  0  0  0  0  0  0  0
  146.5962  131.8111  152.7650 C   0  0  0  0  0  0  0  0  0  0  0  0
  146.7853  130.4315  152.9744 C   0  0  0  0  0  0  0  0  0  0  0  0
  145.9100  129.5025  152.3813 C   0  0  0  0  0  0  0  0  0  0  0  0
  146.0913  128.1758  152.5830 F   0  0  0  0  0  0  0  0  0  0  0  0
  144.8431  129.9542  151.5816 C   0  0  0  0  0  0  0  0  0  0  0  0
  144.6523  131.3338  151.3704 C   0  0  0  0  0  0  0  0  0  0  0  0
  143.6143  131.7525  150.6064 F   0  0  0  0  0  0  0  0  0  0  0  0
  145.3394  140.3062  153.0944 H   0  0  0  0  0  0  0  0  0  0  0  0
  147.7781  140.5058  152.7847 H   0  0  0  0  0  0  0  0  0  0  0  0
  147.7456  139.1332  153.8774 H   0  0  0  0  0  0  0  0  0  0  0  0
  145.9177  139.1125  151.4663 H   0  0  0  0  0  0  0  0  0  0  0  0
  147.6009  138.6729  151.2449 H   0  0  0  0  0  0  0  0  0  0  0  0
  147.1489  136.6539  152.3838 H   0  0  0  0  0  0  0  0  0  0  0  0
  141.3356  138.7279  153.1054 H   0  0  0  0  0  0  0  0  0  0  0  0
  139.6126  136.9956  153.6310 H   0  0  0  0  0  0  0  0  0  0  0  0
  140.2304  134.6200  153.8714 H   0  0  0  0  0  0  0  0  0  0  0  0
  142.5919  133.8683  153.6006 H   0  0  0  0  0  0  0  0  0  0  0  0
  146.3889  134.7236  153.3659 H   0  0  0  0  0  0  0  0  0  0  0  0
  144.9072  133.9500  153.8683 H   0  0  0  0  0  0  0  0  0  0  0  0
  144.3394  133.9009  151.2715 H   0  0  0  0  0  0  0  0  0  0  0  0
  146.9360  133.6856  150.6724 H   0  0  0  0  0  0  0  0  0  0  0  0
  147.2711  132.5132  153.2326 H   0  0  0  0  0  0  0  0  0  0  0  0
  147.6013  130.0865  153.5922 H   0  0  0  0  0  0  0  0  0  0  0  0
  144.1684  129.2413  151.1307 H   0  0  0  0  0  0  0  0  0  0  0  0
  144.1806  138.9563  152.6144 H   0  0  0  0  0  0  0  0  0  0  0  0
  1  2  1  0  0  0  0
  1 25  1  0  0  0  0
  2  3  1  0  0  0  0
  2 26  1  0  0  0  0
  2 27  1  0  0  0  0
  3  4  1  0  0  0  0
  3 28  1  0  0  0  0
  3 29  1  0  0  0  0
  4  5  1  0  0  0  0
  4 30  1  0  0  0  0
  5 13  1  0  0  0  0
  5  6  2  0  0  0  0
  6  7  1  0  0  0  0
  6 42  1  0  0  0  0
  7 12  2  0  0  0  0
  7  8  1  0  0  0  0
  8  9  2  0  0  0  0
  8 31  1  0  0  0  0
  9 10  1  0  0  0  0
  9 32  1  0  0  0  0
 10 11  2  0  0  0  0
 10 33  1  0  0  0  0
 11 12  1  0  0  0  0
 11 34  1  0  0  0  0
 12 13  1  0  0  0  0
 13 14  1  0  0  0  0
 14 15  1  0  0  0  0
 14 35  1  0  0  0  0
 14 36  1  0  0  0  0
 15 16  1  0  0  0  0
 15 17  1  0  0  0  0
 15 37  1  0  0  0  0
 16 38  1  0  0  0  0
 17 23  1  0  0  0  0
 17 18  2  0  0  0  0
 18 19  1  0  0  0  0
 18 39  1  0  0  0  0
 19 20  2  0  0  0  0
 19 40  1  0  0  0  0
 20 21  1  0  0  0  0
 20 22  1  0  0  0  0
 22 23  2  0  0  0  0
 22 41  1  0  0  0  0
 23 24  1  0  0  0  0
M  CHG  1   6   1
M  END
> <s_m_source_file>
AV-unprocessed.smi

> <i_m_source_file_index>
1517

> <i_lp_mmshare_version>
43012

> <i_f3d_flags>
0

> <s_epik_input>
W09IXVtDSDJdW0NIMl1bTkhdYyhuMSluKGMoYzEyKVtjSF1bY0hdW2NIXVtjSF0yKVtDSDJdW0NASF0oW09IXSljM1tjSF1bY0hdYyhGKVtjSF1jM0Y=

> <s_epik_cmdline>
J2VwaWtfcHl0aG9uJywgJy1waCcsICc3LjAnLCAnLXRuJywgJzgnLCAnLW1hJywgJzIwMCcsICctbWV0YWxfYmluZGluZycsICctaW1hZScsICc8aW5maWxlLm1hZT4nLCAnLW9tYWUnLCAnPG91dGZpbGUubWFlPic=

> <r_epik_Ionization_Penalty>
0.0688096

> <r_epik_Ionization_Penalty_Charging>
0.0688055

> <r_epik_Ionization_Penalty_Neutral>
4.12262e-06

> <r_epik_State_Penalty>
0.0602293

> <r_epik_Charging_Adjusted_Penalty>
0.129035

> <i_epik_Tot_Q>
1

> <i_epik_Tot_abs_Q>
1

> <r_epik_Metal_State_Penalty>
2.77411

> <b_epik_Metal_Only>
0

> <s_lp_Force_Field>
OPLS_2005

> <r_lp_Energy>
23.6459

> <b_lp_Chiralities_Consistent>
1

> <s_lp_Variant>
AV-unprocessed.smi:1517-2

> <Gold.Version>
5.8.1

> <Gold.Id.Protein>
6NUR|6NUR_protein|mol2

> <Gold.PLP.Fitness>
59.7578

> <Gold.PLP.PLP>
-46.8885

> <Gold.PLP.part.hbond>
-5.0233

> <Gold.PLP.part.metal>
0.0000

> <Gold.PLP.part.buried>
-3.8282

> <Gold.PLP.part.nonpolar>
-38.8681

> <Gold.PLP.part.repulsive>
0.0635

> <Gold.PLP.ligand.clash>
0.0000

> <Gold.PLP.ligand.torsion>
1.1025

> <Gold.PLP.Chemscore.Hbond>
5.0000

> <Gold.PLP.Chemscore.CHOScore>
0.0000

> <Gold.PLP.Chemscore.Metal>
0.0000

> <Gold.Chemscore.Hbonds>
donor molecule, donor type, donor heavy atom, donor atom, acceptor molecule, acceptor atom, score
      L1  H     1    25       P1 10175  1.00
      L1  H     4    30       P1  7948  1.79
      L1  H     6    42       P1 10175  2.00

> <Gold.PLP.Chemscore.Internal.Correction>
0.0742

> <Gold.Rescore>
     Score         DG    S(hbond)    S(metal)    S(lipo)     H(rot)  DE(clash)    DE(int)     intcor
     16.90     -18.63       2.96        0.00      99.82       3.29       0.81       0.92       ----

> <Gold.Chemscore.Fitness>
16.9033

> <Gold.Chemscore.DG>
-18.6323

> <Gold.Chemscore.ZeroCoef>
-5.4800

> <Gold.Chemscore.Hbond>
2.9608

> <Gold.Chemscore.Metal>
0.0000

> <Gold.Chemscore.Lipo>
99.8199

> <Gold.Chemscore.Internal_Hbond>
0.0000

> <Gold.Chemscore.DEClash>
0.8117

> <Gold.Chemscore.DEInternal>
0.9172

> <Gold.Chemscore.Rot>
3.2874

> <Gold.Chemscore.Internal.Correction>
   9.000000E+99

> <Gold.Chemscore.Hbonds>
donor molecule, donor type, donor heavy atom, donor atom, acceptor molecule, acceptor atom, score
      L1  H     1    25       P1 10175  0.97
      L1  H     4    30       P1  7948  0.88
      L1  H     6    42       P1 10175  0.96

> <Gold.Chemscore.Hbond.Weighted>
-9.8891

> <Gold.Chemscore.Metal.Weighted>
-0.0000

> <Gold.Chemscore.Lipo.Weighted>
-11.6789

> <Gold.Chemscore.Internal_Hbond.Weighted>
0.0000

> <Gold.Chemscore.DEClash.Weighted>
0.8117

> <Gold.Chemscore.DEInternal.Weighted>
0.9172

> <Gold.Chemscore.Rot.Weighted>
8.4158

> <Gold.Chemscore.Internal.Correction.Weighted>
   9.000000E+99

> <Gold.Protein.RotatedTorsions>
[ 6907 6896 6895 6894 ] final -127.15 input  -60.11 | X-H torsion
[ 7974 7965 7964 7962 ] final  -40.86 input  175.53 | X-H torsion
[ 8008 7997 7996 7995 ] final  171.57 input   59.86 | X-H torsion
[ 10167 10162 10161 10158 ] final  -48.62 input  -65.29 | X-H torsion
[ 10718 10713 10712 10709 ] final  -50.91 input   66.30 | X-H torsion
[ 10763 10752 10751 10750 ] final  -73.48 input  -60.55 | X-H torsion
[ 11005 11000 10999 10996 ] final  -46.08 input  -57.11 | X-H torsion

> <Gold.Protein.ActiveResidues>
 VAL166  LYS551  ARG553  GLY616  TRP617  ASP618  TYR619  PRO620  LYS621  CYS622 
 ASP623  PHE694  ASN695  SER759  ASP760  ASP761  ALA762  ILE779  LEU786  VAL792 
 PHE793  MET794  SER795  GLU796  ALA797  LYS798  CYS799  TRP800  GLU811  SER814 

> <Gold.Protein.RotatedAtoms>
  150.9043  133.7078  159.2870 H   0  0  0  0  0  0  0  0  0  0  0  0  # atno 6907 bound_to 6896
  151.4587  135.1035  159.9728 H   0  0  0  0  0  0  0  0  0  0  0  0  # atno 6908 bound_to 6896
  152.4894  133.8411  159.7208 H   0  0  0  0  0  0  0  0  0  0  0  0  # atno 6909 bound_to 6896
  146.0265  140.6786  142.9153 H   0  0  0  0  0  0  0  0  0  0  0  0  # atno 7974 bound_to 7965
  156.1258  140.1508  156.9138 H   0  0  0  0  0  0  0  0  0  0  0  0  # atno 8008 bound_to 7997
  154.4871  140.0862  156.7551 H   0  0  0  0  0  0  0  0  0  0  0  0  # atno 8009 bound_to 7997
  155.4345  140.3428  155.4286 H   0  0  0  0  0  0  0  0  0  0  0  0  # atno 8010 bound_to 7997
  140.6722  143.2732  151.4097 H   0  0  0  0  0  0  0  0  0  0  0  0  # atno 10167 bound_to 10162
  156.1758  130.4150  149.9580 H   0  0  0  0  0  0  0  0  0  0  0  0  # atno 10718 bound_to 10713
  154.4600  135.5896  153.6249 H   0  0  0  0  0  0  0  0  0  0  0  0  # atno 10763 bound_to 10752
  152.9822  135.6041  154.3498 H   0  0  0  0  0  0  0  0  0  0  0  0  # atno 10764 bound_to 10752
  154.3368  135.2842  155.2422 H   0  0  0  0  0  0  0  0  0  0  0  0  # atno 10765 bound_to 10752
  141.0557  133.6727  156.3105 H   0  0  0  0  0  0  0  0  0  0  0  0  # atno 11005 bound_to 11000
  144.7011  140.3658  143.7155 LP  0  0  0  0  0  0  0  0  0  0  0  0  # atno 17320 bound_to 7965
  145.7110  139.1685  143.2538 LP  0  0  0  0  0  0  0  0  0  0  0  0  # atno 17321 bound_to 7965
  139.5997  144.1322  152.2184 LP  0  0  0  0  0  0  0  0  0  0  0  0  # atno 17342 bound_to 10162
  140.0703  144.5785  150.7197 LP  0  0  0  0  0  0  0  0  0  0  0  0  # atno 17343 bound_to 10162
  156.7366  130.9063  151.3629 LP  0  0  0  0  0  0  0  0  0  0  0  0  # atno 17370 bound_to 10713
  157.6834  130.9162  150.0325 LP  0  0  0  0  0  0  0  0  0  0  0  0  # atno 17371 bound_to 10713
  140.5969  134.5594  157.5510 LP  0  0  0  0  0  0  0  0  0  0  0  0  # atno 17394 bound_to 11000
  139.9388  134.7826  156.0733 LP  0  0  0  0  0  0  0  0  0  0  0  0  # atno 17395 bound_to 11000

$$$$
