AV-unprocessed.smi:1313|AV-procd|sdf|5451|dock8
  -GOLD-   22720 5 23D 1   1.00000     0.00000
 Structure written by MMmdl.
 37 38  0  0  0  0  0  0  0  0  1 V2000
  146.7827  138.7993  152.6258 C   0  0  0  0  0  0  0  0  0  0  0  0
  147.9763  139.2807  153.4217 C   0  0  0  0  0  0  0  0  0  0  0  0
  149.0112  138.3625  153.4812 N   0  0  0  0  0  0  0  0  0  0  0  0
  150.1464  138.7111  154.1916 C   0  0  0  0  0  0  0  0  0  0  0  0
  151.2298  137.6466  154.2087 C   0  0  0  0  0  0  0  0  0  0  0  0
  150.2467  139.9165  154.8081 C   0  0  0  0  0  0  0  0  0  0  0  0
  151.4823  140.3388  155.6006 C   0  0  0  0  0  0  0  0  0  0  0  0
  151.1971  140.9409  156.9776 C   0  0  0  0  0  0  0  0  0  0  0  0
  150.9091  140.2065  157.9223 O   0  0  0  0  0  0  0  0  0  0  0  0
  151.2708  142.2770  157.0757 N   0  0  0  0  0  0  0  0  0  0  0  0
  151.0020  143.0480  158.2864 C   0  0  0  0  0  0  0  0  0  0  0  0
  151.1969  144.5549  158.0291 C   0  0  0  0  0  0  0  0  0  0  0  0
  152.0727  145.0709  159.1723 C   0  0  0  0  0  0  0  0  0  0  0  0
  152.9231  143.8686  159.5690 C   0  0  0  0  0  0  0  0  0  0  0  0
  151.9764  142.6774  159.4224 C   0  0  0  0  0  0  0  0  0  0  0  0
  149.1091  140.8608  154.7016 C   0  0  0  0  0  0  0  0  0  0  0  0
  149.1437  141.9736  155.2251 O   0  0  0  0  0  0  0  0  0  0  0  0
  147.9775  140.4548  153.9756 N   0  0  0  0  0  0  0  0  0  0  0  0
  148.9786  137.4566  153.0363 H   0  0  0  0  0  0  0  0  0  0  0  0
  145.9899  139.5483  152.6199 H   0  0  0  0  0  0  0  0  0  0  0  0
  146.3816  137.8823  153.0584 H   0  0  0  0  0  0  0  0  0  0  0  0
  147.0704  138.5996  151.5932 H   0  0  0  0  0  0  0  0  0  0  0  0
  151.4456  137.3370  155.2313 H   0  0  0  0  0  0  0  0  0  0  0  0
  152.1475  138.0286  153.7614 H   0  0  0  0  0  0  0  0  0  0  0  0
  150.9307  136.7603  153.6479 H   0  0  0  0  0  0  0  0  0  0  0  0
  152.0458  141.0568  155.0036 H   0  0  0  0  0  0  0  0  0  0  0  0
  152.1644  139.4982  155.7312 H   0  0  0  0  0  0  0  0  0  0  0  0
  151.5173  142.8001  156.2479 H   0  0  0  0  0  0  0  0  0  0  0  0
  149.9764  142.8670  158.6139 H   0  0  0  0  0  0  0  0  0  0  0  0
  151.7151  144.7212  157.0833 H   0  0  0  0  0  0  0  0  0  0  0  0
  150.2476  145.0883  157.9723 H   0  0  0  0  0  0  0  0  0  0  0  0
  152.6730  145.9346  158.8848 H   0  0  0  0  0  0  0  0  0  0  0  0
  151.4437  145.3675  160.0126 H   0  0  0  0  0  0  0  0  0  0  0  0
  153.7572  143.7634  158.8741 H   0  0  0  0  0  0  0  0  0  0  0  0
  153.3349  143.9567  160.5748 H   0  0  0  0  0  0  0  0  0  0  0  0
  151.4137  142.5504  160.3483 H   0  0  0  0  0  0  0  0  0  0  0  0
  152.5164  141.7457  159.2482 H   0  0  0  0  0  0  0  0  0  0  0  0
  1 20  1  0  0  0  0
  1 21  1  0  0  0  0
  1 22  1  0  0  0  0
  1  2  1  0  0  0  0
  2  3  1  0  0  0  0
  2 18  2  0  0  0  0
  3  4  1  0  0  0  0
  3 19  1  0  0  0  0
  4  6  2  0  0  0  0
  4  5  1  0  0  0  0
  5 23  1  0  0  0  0
  5 24  1  0  0  0  0
  5 25  1  0  0  0  0
  6 16  1  0  0  0  0
  6  7  1  0  0  0  0
  7  8  1  0  0  0  0
  7 26  1  0  0  0  0
  7 27  1  0  0  0  0
  8  9  2  0  0  0  0
  8 10  1  0  0  0  0
 10 11  1  0  0  0  0
 10 28  1  0  0  0  0
 11 15  1  0  0  0  0
 11 12  1  0  0  0  0
 11 29  1  0  0  0  0
 12 13  1  0  0  0  0
 12 30  1  0  0  0  0
 12 31  1  0  0  0  0
 13 14  1  0  0  0  0
 13 32  1  0  0  0  0
 13 33  1  0  0  0  0
 14 15  1  0  0  0  0
 14 34  1  0  0  0  0
 14 35  1  0  0  0  0
 15 36  1  0  0  0  0
 15 37  1  0  0  0  0
 16 17  2  0  0  0  0
 16 18  1  0  0  0  0
M  END
> <s_m_source_file>
AV-unprocessed.smi

> <i_m_source_file_index>
1313

> <i_lp_mmshare_version>
43012

> <i_f3d_flags>
0

> <s_epik_input>
W0NIM11jMW5jKFtDSDNdKWMoYyg9TylbbkhdMSlbQ0gyXUMoPU8pW05IXVtDSF0yW0NIMl1bQ0gyXVtDSDJdW0NIMl0y

> <s_epik_cmdline>
J2VwaWtfcHl0aG9uJywgJy1waCcsICc3LjAnLCAnLXRuJywgJzgnLCAnLW1hJywgJzIwMCcsICctbWV0YWxfYmluZGluZycsICctaW1hZScsICc8aW5maWxlLm1hZT4nLCAnLW9tYWUnLCAnPG91dGZpbGUubWFlPic=

> <r_lp_tautomer_probability>
0.156392

> <r_epik_Ionization_Penalty>
0.0140409

> <r_epik_Ionization_Penalty_Charging>
0.0139177

> <r_epik_Ionization_Penalty_Neutral>
0.000123229

> <r_epik_State_Penalty>
1.53066

> <r_epik_Charging_Adjusted_Penalty>
1.54458

> <i_epik_Tot_Q>
0

> <i_epik_Tot_abs_Q>
0

> <r_epik_Metal_State_Penalty>
1.70649

> <b_epik_Metal_Only>
0

> <s_lp_Force_Field>
OPLS_2005

> <r_lp_Energy>
23.2441

> <b_lp_Chiralities_Consistent>
1

> <s_lp_Variant>
AV-unprocessed.smi:1313-2

> <Gold.Version>
5.8.1

> <Gold.Id.Protein>
6NUR|6NUR_protein|mol2

> <Gold.PLP.Fitness>
40.5220

> <Gold.PLP.PLP>
-38.2757

> <Gold.PLP.part.hbond>
-2.0000

> <Gold.PLP.part.metal>
0.0000

> <Gold.PLP.part.buried>
-2.0586

> <Gold.PLP.part.nonpolar>
-36.4906

> <Gold.PLP.part.repulsive>
2.2888

> <Gold.PLP.ligand.clash>
0.0000

> <Gold.PLP.ligand.torsion>
0.3782

> <Gold.PLP.Chemscore.Hbond>
1.0000

> <Gold.PLP.Chemscore.CHOScore>
0.0000

> <Gold.PLP.Chemscore.Metal>
0.0000

> <Gold.Chemscore.Hbonds>
donor molecule, donor type, donor heavy atom, donor atom, acceptor molecule, acceptor atom, score
      L1  H     3    19       P1  7948  1.00

> <Gold.PLP.Chemscore.Internal.Correction>
0.0027

> <Gold.Rescore>
     Score         DG    S(hbond)    S(metal)    S(lipo)     H(rot)  DE(clash)    DE(int)     intcor
     11.79     -16.03       0.99        0.00      94.86       1.51       1.07       3.17       ----

> <Gold.Chemscore.Fitness>
11.7924

> <Gold.Chemscore.DG>
-16.0253

> <Gold.Chemscore.ZeroCoef>
-5.4800

> <Gold.Chemscore.Hbond>
0.9937

> <Gold.Chemscore.Metal>
0.0000

> <Gold.Chemscore.Lipo>
94.8625

> <Gold.Chemscore.Internal_Hbond>
0.0000

> <Gold.Chemscore.DEClash>
1.0653

> <Gold.Chemscore.DEInternal>
3.1675

> <Gold.Chemscore.Rot>
1.5128

> <Gold.Chemscore.Internal.Correction>
   9.000000E+99

> <Gold.Chemscore.Hbonds>
donor molecule, donor type, donor heavy atom, donor atom, acceptor molecule, acceptor atom, score
      L1  H     3    19       P1  7948  1.00

> <Gold.Chemscore.Hbond.Weighted>
-3.3190

> <Gold.Chemscore.Metal.Weighted>
-0.0000

> <Gold.Chemscore.Lipo.Weighted>
-11.0989

> <Gold.Chemscore.Internal_Hbond.Weighted>
0.0000

> <Gold.Chemscore.DEClash.Weighted>
1.0653

> <Gold.Chemscore.DEInternal.Weighted>
3.1675

> <Gold.Chemscore.Rot.Weighted>
3.8727

> <Gold.Chemscore.Internal.Correction.Weighted>
   9.000000E+99

> <Gold.Protein.RotatedTorsions>
[ 6907 6896 6895 6894 ] final  -58.09 input  -60.11 | X-H torsion
[ 7974 7965 7964 7962 ] final  -35.77 input  175.53 | X-H torsion
[ 8008 7997 7996 7995 ] final -152.80 input   59.86 | X-H torsion
[ 10167 10162 10161 10158 ] final  154.05 input  -65.29 | X-H torsion
[ 10718 10713 10712 10709 ] final  -80.70 input   66.30 | X-H torsion
[ 10763 10752 10751 10750 ] final -135.97 input  -60.55 | X-H torsion
[ 11005 11000 10999 10996 ] final  -32.83 input  -57.11 | X-H torsion

> <Gold.Protein.ActiveResidues>
 VAL166  LYS551  ARG553  GLY616  TRP617  ASP618  TYR619  PRO620  LYS621  CYS622 
 ASP623  PHE694  ASN695  SER759  ASP760  ASP761  ALA762  ILE779  LEU786  VAL792 
 PHE793  MET794  SER795  GLU796  ALA797  LYS798  CYS799  TRP800  GLU811  SER814 

> <Gold.Protein.RotatedAtoms>
  150.8034  134.7143  159.6621 H   0  0  0  0  0  0  0  0  0  0  0  0  # atno 6907 bound_to 6896
  152.4152  134.6050  160.0020 H   0  0  0  0  0  0  0  0  0  0  0  0  # atno 6908 bound_to 6896
  151.6282  133.3297  159.3139 H   0  0  0  0  0  0  0  0  0  0  0  0  # atno 6909 bound_to 6896
  146.0719  140.6198  142.8949 H   0  0  0  0  0  0  0  0  0  0  0  0  # atno 7974 bound_to 7965
  155.6609  140.0722  157.2554 H   0  0  0  0  0  0  0  0  0  0  0  0  # atno 8008 bound_to 7997
  154.4142  140.1716  156.1826 H   0  0  0  0  0  0  0  0  0  0  0  0  # atno 8009 bound_to 7997
  155.9698  140.3363  155.6568 H   0  0  0  0  0  0  0  0  0  0  0  0  # atno 8010 bound_to 7997
  139.4824  144.5220  151.7860 H   0  0  0  0  0  0  0  0  0  0  0  0  # atno 10167 bound_to 10162
  156.0065  130.4582  150.3840 H   0  0  0  0  0  0  0  0  0  0  0  0  # atno 10718 bound_to 10713
  154.8693  135.3687  154.4985 H   0  0  0  0  0  0  0  0  0  0  0  0  # atno 10763 bound_to 10752
  153.5627  135.7022  153.5545 H   0  0  0  0  0  0  0  0  0  0  0  0  # atno 10764 bound_to 10752
  153.3613  135.4046  155.1684 H   0  0  0  0  0  0  0  0  0  0  0  0  # atno 10765 bound_to 10752
  140.9585  133.7178  156.1331 H   0  0  0  0  0  0  0  0  0  0  0  0  # atno 11005 bound_to 11000
  144.7237  140.4455  143.6989 LP  0  0  0  0  0  0  0  0  0  0  0  0  # atno 17320 bound_to 7965
  145.6376  139.1545  143.2933 LP  0  0  0  0  0  0  0  0  0  0  0  0  # atno 17321 bound_to 7965
  140.4736  144.1552  150.5921 LP  0  0  0  0  0  0  0  0  0  0  0  0  # atno 17342 bound_to 10162
  140.4355  143.2549  151.9540 LP  0  0  0  0  0  0  0  0  0  0  0  0  # atno 17343 bound_to 10162
  157.1918  131.0417  151.2696 LP  0  0  0  0  0  0  0  0  0  0  0  0  # atno 17370 bound_to 10713
  157.4054  130.7356  149.6798 LP  0  0  0  0  0  0  0  0  0  0  0  0  # atno 17371 bound_to 10713
  140.7501  134.4054  157.5542 LP  0  0  0  0  0  0  0  0  0  0  0  0  # atno 17394 bound_to 11000
  139.8870  134.8894  156.2553 LP  0  0  0  0  0  0  0  0  0  0  0  0  # atno 17395 bound_to 11000

$$$$
