AV-unprocessed.smi:234|AV-procd|sdf|1791|dock1
  -GOLD-   2262020353D 1   1.00000     0.00000
 Structure written by MMmdl.
 59 62  0  0  0  0  0  0  0  0  1 V2000
  146.6067  129.8833  152.2872 C   0  0  0  0  0  0  0  0  0  0  0  0
  147.4463  130.4508  153.4393 C   0  0  0  0  0  0  0  0  0  0  0  0
  147.8255  131.8015  153.2163 O   0  0  0  0  0  0  0  0  0  0  0  0
  147.9157  132.5973  154.3908 C   0  0  2  0  0  0  0  0  0  0  0  0
  148.6306  133.9219  154.1247 C   0  0  0  0  0  0  0  0  0  0  0  0
  149.2510  133.7397  155.5151 C   0  0  2  0  0  0  0  0  0  0  0  0
  150.6374  134.1999  155.6256 N   0  0  0  0  0  0  0  0  0  0  0  0
  151.5149  133.4429  156.5095 C   0  0  0  0  0  0  0  0  0  0  0  0
  150.8229  135.5312  155.7829 C   0  0  0  0  0  0  0  0  0  0  0  0
  151.3268  136.2115  154.7229 N   0  0  0  0  0  0  0  0  0  0  0  0
  151.5393  137.5277  154.8107 C   0  0  0  0  0  0  0  0  0  0  0  0
  151.3282  138.3404  155.8480 N   0  0  0  0  0  0  0  0  0  0  0  0
  150.8357  137.6573  156.9210 C   0  0  0  0  0  0  0  0  0  0  0  0
  150.5540  136.2628  156.9759 C   0  0  0  0  0  0  0  0  0  0  0  0
  150.0714  135.9294  158.2365 N   0  0  0  0  0  0  0  0  0  0  0  0
  150.0593  137.0616  158.8846 C   0  0  0  0  0  0  0  0  0  0  0  0
  150.5116  138.1494  158.1732 N   0  0  0  0  0  0  0  0  0  0  0  0
  150.6173  139.5196  158.6496 C   0  0  0  0  0  0  0  0  0  0  0  0
  152.0657  140.0636  158.6405 C   0  0  2  0  0  0  0  0  0  0  0  0
  152.4859  140.2130  157.2939 O   0  0  0  0  0  0  0  0  0  0  0  0
  153.0681  139.1728  159.3598 C   0  0  0  0  0  0  0  0  0  0  0  0
  154.1737  140.1527  159.7321 C   0  0  0  0  0  0  0  0  0  0  0  0
  153.4950  141.3611  160.0476 O   0  0  0  0  0  0  0  0  0  0  0  0
  152.2173  141.3932  159.4128 C   0  0  1  0  0  0  0  0  0  0  0  0
  152.0424  142.6854  158.5989 C   0  0  0  0  0  0  0  0  0  0  0  0
  149.0816  132.2055  155.3376 C   0  0  0  0  0  0  0  0  0  0  0  0
  148.6848  131.4316  156.5954 C   0  0  0  0  0  0  0  0  0  0  0  0
  150.2383  131.4350  154.6761 C   0  0  0  0  0  0  0  0  0  0  0  0
  146.2301  128.8916  152.5376 H   0  0  0  0  0  0  0  0  0  0  0  0
  147.1927  129.7865  151.3742 H   0  0  0  0  0  0  0  0  0  0  0  0
  145.7494  130.5224  152.0749 H   0  0  0  0  0  0  0  0  0  0  0  0
  146.8551  130.4246  154.3548 H   0  0  0  0  0  0  0  0  0  0  0  0
  148.3267  129.8332  153.6219 H   0  0  0  0  0  0  0  0  0  0  0  0
  146.9673  132.7582  154.9099 H   0  0  0  0  0  0  0  0  0  0  0  0
  149.3495  133.8701  153.3049 H   0  0  0  0  0  0  0  0  0  0  0  0
  147.9700  134.7837  154.0286 H   0  0  0  0  0  0  0  0  0  0  0  0
  148.5985  134.1217  156.3024 H   0  0  0  0  0  0  0  0  0  0  0  0
  152.5437  133.7998  156.4490 H   0  0  0  0  0  0  0  0  0  0  0  0
  151.5199  132.3871  156.2445 H   0  0  0  0  0  0  0  0  0  0  0  0
  151.1825  133.5308  157.5443 H   0  0  0  0  0  0  0  0  0  0  0  0
  151.9368  137.9970  153.9229 H   0  0  0  0  0  0  0  0  0  0  0  0
  149.7256  137.1331  159.9095 H   0  0  0  0  0  0  0  0  0  0  0  0
  149.9728  140.1511  158.0365 H   0  0  0  0  0  0  0  0  0  0  0  0
  150.2062  139.5552  159.6594 H   0  0  0  0  0  0  0  0  0  0  0  0
  151.9268  140.8494  156.8752 H   0  0  0  0  0  0  0  0  0  0  0  0
  152.6262  138.7686  160.2714 H   0  0  0  0  0  0  0  0  0  0  0  0
  153.4232  138.3343  158.7592 H   0  0  0  0  0  0  0  0  0  0  0  0
  154.7809  139.8047  160.5677 H   0  0  0  0  0  0  0  0  0  0  0  0
  154.8336  140.3286  158.8817 H   0  0  0  0  0  0  0  0  0  0  0  0
  151.4919  141.4061  160.2275 H   0  0  0  0  0  0  0  0  0  0  0  0
  151.0730  142.7063  158.1009 H   0  0  0  0  0  0  0  0  0  0  0  0
  152.8162  142.7909  157.8381 H   0  0  0  0  0  0  0  0  0  0  0  0
  152.1013  143.5599  159.2468 H   0  0  0  0  0  0  0  0  0  0  0  0
  149.4883  131.4212  157.3313 H   0  0  0  0  0  0  0  0  0  0  0  0
  148.4400  130.3939  156.3699 H   0  0  0  0  0  0  0  0  0  0  0  0
  147.8127  131.8734  157.0780 H   0  0  0  0  0  0  0  0  0  0  0  0
  151.0756  131.2945  155.3593 H   0  0  0  0  0  0  0  0  0  0  0  0
  150.6257  131.9487  153.7961 H   0  0  0  0  0  0  0  0  0  0  0  0
  149.9194  130.4442  154.3513 H   0  0  0  0  0  0  0  0  0  0  0  0
  1  2  1  0  0  0  0
  1 29  1  0  0  0  0
  1 30  1  0  0  0  0
  1 31  1  0  0  0  0
  2  3  1  0  0  0  0
  2 32  1  0  0  0  0
  2 33  1  0  0  0  0
  3  4  1  0  0  0  0
  4 26  1  0  0  0  0
  4  5  1  0  0  0  0
  4 34  1  0  0  0  0
  5  6  1  0  0  0  0
  5 35  1  0  0  0  0
  5 36  1  0  0  0  0
  6  7  1  0  0  0  0
  6 26  1  0  0  0  0
  6 37  1  0  0  0  0
  7  8  1  0  0  0  0
  7  9  1  0  0  0  0
  8 38  1  0  0  0  0
  8 39  1  0  0  0  0
  8 40  1  0  0  0  0
  9 14  1  0  0  0  0
  9 10  2  0  0  0  0
 10 11  1  0  0  0  0
 11 12  2  0  0  0  0
 11 41  1  0  0  0  0
 12 13  1  0  0  0  0
 13 17  1  0  0  0  0
 13 14  2  0  0  0  0
 14 15  1  0  0  0  0
 15 16  2  0  0  0  0
 16 17  1  0  0  0  0
 16 42  1  0  0  0  0
 17 18  1  0  0  0  0
 18 19  1  0  0  0  0
 18 43  1  0  0  0  0
 18 44  1  0  0  0  0
 19 24  1  0  0  0  0
 19 20  1  0  0  0  0
 19 21  1  0  0  0  0
 20 45  1  0  0  0  0
 21 22  1  0  0  0  0
 21 46  1  0  0  0  0
 21 47  1  0  0  0  0
 22 23  1  0  0  0  0
 22 48  1  0  0  0  0
 22 49  1  0  0  0  0
 23 24  1  0  0  0  0
 24 25  1  0  0  0  0
 24 50  1  0  0  0  0
 25 51  1  0  0  0  0
 25 52  1  0  0  0  0
 25 53  1  0  0  0  0
 26 27  1  0  0  0  0
 26 28  1  0  0  0  0
 27 54  1  0  0  0  0
 27 55  1  0  0  0  0
 27 56  1  0  0  0  0
 28 57  1  0  0  0  0
 28 58  1  0  0  0  0
 28 59  1  0  0  0  0
M  END
> <s_m_source_file>
AV-unprocessed.smi

> <i_m_source_file_index>
234

> <i_lp_mmshare_version>
43012

> <i_f3d_flags>
0

> <s_epik_input>
W0NIM11bQ0gyXU9bQ0BASF0oQzEoW0NIM10pW0NIM10pW0NIMl1bQ0BIXTFOKFtDSDNdKWMobltjSF1uMiljKGMyMyluW2NIXW4zW0NIMl1bQ0BAXTQoW09IXSlbQ0gyXVtDSDJdT1tDQEhdNFtDSDNd

> <s_epik_cmdline>
J2VwaWtfcHl0aG9uJywgJy1waCcsICc3LjAnLCAnLXRuJywgJzgnLCAnLW1hJywgJzIwMCcsICctbWV0YWxfYmluZGluZycsICctaW1hZScsICc8aW5maWxlLm1hZT4nLCAnLW9tYWUnLCAnPG91dGZpbGUubWFlPic=

> <r_lp_tautomer_probability>
1

> <r_epik_Ionization_Penalty>
0.00349132

> <r_epik_Ionization_Penalty_Charging>
0

> <r_epik_Ionization_Penalty_Neutral>
0.00349132

> <r_epik_State_Penalty>
0.00242418

> <r_epik_Charging_Adjusted_Penalty>
0.00242418

> <i_epik_Tot_Q>
0

> <i_epik_Tot_abs_Q>
0

> <r_epik_Metal_State_Penalty>
-0

> <b_epik_Metal_Only>
0

> <s_lp_Force_Field>
OPLS_2005

> <r_lp_Energy>
50.4374

> <b_lp_Chiralities_Consistent>
1

> <s_lp_Variant>
AV-unprocessed.smi:234-7

> <Gold.Version>
5.8.1

> <Gold.Id.Protein>
6NUR|6NUR_protein|mol2

> <Gold.PLP.Fitness>
44.0984

> <Gold.PLP.PLP>
-35.8469

> <Gold.PLP.part.hbond>
-3.0000

> <Gold.PLP.part.metal>
0.0000

> <Gold.PLP.part.buried>
-5.2466

> <Gold.PLP.part.nonpolar>
-27.4477

> <Gold.PLP.part.repulsive>
0.3206

> <Gold.PLP.ligand.clash>
0.0000

> <Gold.PLP.ligand.torsion>
0.8916

> <Gold.PLP.Chemscore.Hbond>
2.9920

> <Gold.PLP.Chemscore.CHOScore>
0.0000

> <Gold.PLP.Chemscore.Metal>
0.0000

> <Gold.Chemscore.Hbonds>
donor molecule, donor type, donor heavy atom, donor atom, acceptor molecule, acceptor atom, score
      P1  H  6896  6907       L1    15  0.96
      P1  H  7997  8010       L1    20  1.00
      P1  H 10752 10764       L1    10  1.00

> <Gold.PLP.Chemscore.Internal.Correction>
1.0587

> <Gold.Rescore>
     Score         DG    S(hbond)    S(metal)    S(lipo)     H(rot)  DE(clash)    DE(int)     intcor
     14.69     -16.22       2.10        0.00      89.19       2.62       0.09       1.44       ----

> <Gold.Chemscore.Fitness>
14.6935

> <Gold.Chemscore.DG>
-16.2234

> <Gold.Chemscore.ZeroCoef>
-5.4800

> <Gold.Chemscore.Hbond>
2.1018

> <Gold.Chemscore.Metal>
0.0000

> <Gold.Chemscore.Lipo>
89.1931

> <Gold.Chemscore.Internal_Hbond>
0.0000

> <Gold.Chemscore.DEClash>
0.0935

> <Gold.Chemscore.DEInternal>
1.4363

> <Gold.Chemscore.Rot>
2.6219

> <Gold.Chemscore.Internal.Correction>
   9.000000E+99

> <Gold.Chemscore.Hbonds>
donor molecule, donor type, donor heavy atom, donor atom, acceptor molecule, acceptor atom, score
      P1  H  6896  6907       L1    15  0.32
      P1  H  7997  8010       L1    20  0.82
      P1  H 10752 10764       L1    10  0.23

> <Gold.Chemscore.Hbond.Weighted>
-7.0199

> <Gold.Chemscore.Metal.Weighted>
-0.0000

> <Gold.Chemscore.Lipo.Weighted>
-10.4356

> <Gold.Chemscore.Internal_Hbond.Weighted>
0.0000

> <Gold.Chemscore.DEClash.Weighted>
0.0935

> <Gold.Chemscore.DEInternal.Weighted>
1.4363

> <Gold.Chemscore.Rot.Weighted>
6.7121

> <Gold.Chemscore.Internal.Correction.Weighted>
   9.000000E+99

> <Gold.Protein.RotatedTorsions>
[ 6907 6896 6895 6894 ] final  -62.33 input  -60.11 | X-H torsion
[ 7974 7965 7964 7962 ] final   -0.74 input  175.53 | X-H torsion
[ 8008 7997 7996 7995 ] final   64.48 input   59.86 | X-H torsion
[ 10167 10162 10161 10158 ] final   -9.52 input  -65.29 | X-H torsion
[ 10718 10713 10712 10709 ] final   26.20 input   66.30 | X-H torsion
[ 10763 10752 10751 10750 ] final  -70.32 input  -60.55 | X-H torsion
[ 11005 11000 10999 10996 ] final  131.63 input  -57.11 | X-H torsion

> <Gold.Protein.ActiveResidues>
 VAL166  LYS551  ARG553  GLY616  TRP617  ASP618  TYR619  PRO620  LYS621  CYS622 
 ASP623  PHE694  ASN695  SER759  ASP760  ASP761  ALA762  ILE779  LEU786  VAL792 
 PHE793  MET794  SER795  GLU796  ALA797  LYS798  CYS799  TRP800  GLU811  SER814 

> <Gold.Protein.RotatedAtoms>
  150.7723  134.6585  159.6326 H   0  0  0  0  0  0  0  0  0  0  0  0  # atno 6907 bound_to 6896
  152.3780  134.6630  160.0162 H   0  0  0  0  0  0  0  0  0  0  0  0  # atno 6908 bound_to 6896
  151.6969  133.3274  159.3293 H   0  0  0  0  0  0  0  0  0  0  0  0  # atno 6909 bound_to 6896
  146.2424  140.1316  142.8337 H   0  0  0  0  0  0  0  0  0  0  0  0  # atno 7974 bound_to 7965
  155.6467  140.3497  155.4733 H   0  0  0  0  0  0  0  0  0  0  0  0  # atno 8008 bound_to 7997
  155.9882  140.1188  157.0687 H   0  0  0  0  0  0  0  0  0  0  0  0  # atno 8009 bound_to 7997
  154.4211  140.1125  156.5514 H   0  0  0  0  0  0  0  0  0  0  0  0  # atno 8010 bound_to 7997
  140.7089  143.5849  150.8953 H   0  0  0  0  0  0  0  0  0  0  0  0  # atno 10167 bound_to 10162
  157.2037  130.6902  149.6199 H   0  0  0  0  0  0  0  0  0  0  0  0  # atno 10718 bound_to 10713
  154.4160  135.5998  153.5981 H   0  0  0  0  0  0  0  0  0  0  0  0  # atno 10763 bound_to 10752
  152.9792  135.5941  154.4013 H   0  0  0  0  0  0  0  0  0  0  0  0  # atno 10764 bound_to 10752
  154.3832  135.2841  155.2177 H   0  0  0  0  0  0  0  0  0  0  0  0  # atno 10765 bound_to 10752
  139.9742  134.9568  156.9467 H   0  0  0  0  0  0  0  0  0  0  0  0  # atno 11005 bound_to 11000
  145.0322  140.8879  143.5103 LP  0  0  0  0  0  0  0  0  0  0  0  0  # atno 17320 bound_to 7965
  145.1382  139.2589  143.5504 LP  0  0  0  0  0  0  0  0  0  0  0  0  # atno 17321 bound_to 7965
  139.9575  143.6202  152.3012 LP  0  0  0  0  0  0  0  0  0  0  0  0  # atno 17342 bound_to 10162
  139.6742  144.7659  151.1726 LP  0  0  0  0  0  0  0  0  0  0  0  0  # atno 17343 bound_to 10162
  155.9698  130.4574  150.5961 LP  0  0  0  0  0  0  0  0  0  0  0  0  # atno 17370 bound_to 10713
  157.3742  131.0770  151.1532 LP  0  0  0  0  0  0  0  0  0  0  0  0  # atno 17371 bound_to 10713
  140.5230  134.0889  155.7296 LP  0  0  0  0  0  0  0  0  0  0  0  0  # atno 17394 bound_to 11000
  141.1420  133.9121  157.2304 LP  0  0  0  0  0  0  0  0  0  0  0  0  # atno 17395 bound_to 11000

$$$$
