AV-unprocessed.smi:492|AV-procd|sdf|2708|dock7
  -GOLD-   2262023153D 1   1.00000     0.00000
 Structure written by MMmdl.
 46 48  0  0  0  0  0  0  0  0  1 V2000
  143.6548  132.7282  150.5090 C   0  0  0  0  0  0  0  0  0  0  0  0
  143.2408  133.7126  151.4452 O   0  0  0  0  0  0  0  0  0  0  0  0
  143.9772  134.8746  151.5332 C   0  0  0  0  0  0  0  0  0  0  0  0
  144.9765  135.2578  150.6034 C   0  0  0  0  0  0  0  0  0  0  0  0
  145.6822  136.4654  150.7707 C   0  0  0  0  0  0  0  0  0  0  0  0
  145.3986  137.3112  151.8618 C   0  0  0  0  0  0  0  0  0  0  0  0
  146.1737  138.6018  152.0478 C   0  0  0  0  0  0  0  0  0  0  0  0
  147.0212  138.5493  153.1830 O   0  0  0  0  0  0  0  0  0  0  0  0
  147.4413  139.8296  153.6262 C   0  0  0  0  0  0  0  0  0  0  0  0
  148.4187  139.6756  154.8024 C   0  0  2  0  0  0  0  0  0  0  0  0
  147.7066  139.2050  155.9295 O   0  0  0  0  0  0  0  0  0  0  0  0
  149.2113  140.9622  155.1170 C   0  0  0  0  0  0  0  0  0  0  0  0
  150.3449  140.7251  155.9991 N   0  0  0  0  0  0  0  0  0  0  0  0
  151.3688  139.8529  155.8310 C   0  0  0  0  0  0  0  0  0  0  0  0
  151.4655  138.9712  154.6265 C   0  0  0  0  0  0  0  0  0  0  0  0
  152.2821  139.8338  156.8019 N   0  0  0  0  0  0  0  0  0  0  0  0
  151.8067  140.7863  157.6831 C   0  0  0  0  0  0  0  0  0  0  0  0
  152.3275  141.2379  158.9170 C   0  0  0  0  0  0  0  0  0  0  0  0
  151.6576  142.2387  159.6511 C   0  0  0  0  0  0  0  0  0  0  0  0
  150.4595  142.8004  159.1647 C   0  0  0  0  0  0  0  0  0  0  0  0
  149.9227  142.3640  157.9385 C   0  0  0  0  0  0  0  0  0  0  0  0
  150.5957  141.3654  157.2088 C   0  0  0  0  0  0  0  0  0  0  0  0
  144.4126  136.9300  152.7947 C   0  0  0  0  0  0  0  0  0  0  0  0
  143.7078  135.7228  152.6268 C   0  0  0  0  0  0  0  0  0  0  0  0
  142.9773  131.8759  150.5605 H   0  0  0  0  0  0  0  0  0  0  0  0
  144.6591  132.3642  150.7300 H   0  0  0  0  0  0  0  0  0  0  0  0
  143.6252  133.1113  149.4881 H   0  0  0  0  0  0  0  0  0  0  0  0
  145.2223  134.6411  149.7526 H   0  0  0  0  0  0  0  0  0  0  0  0
  146.4431  136.7401  150.0548 H   0  0  0  0  0  0  0  0  0  0  0  0
  146.7652  138.7798  151.1485 H   0  0  0  0  0  0  0  0  0  0  0  0
  145.4760  139.4344  152.1508 H   0  0  0  0  0  0  0  0  0  0  0  0
  147.9030  140.3912  152.8122 H   0  0  0  0  0  0  0  0  0  0  0  0
  146.5677  140.3953  153.9539 H   0  0  0  0  0  0  0  0  0  0  0  0
  149.1242  138.8854  154.5460 H   0  0  0  0  0  0  0  0  0  0  0  0
  148.2396  138.5622  156.3719 H   0  0  0  0  0  0  0  0  0  0  0  0
  149.5677  141.4221  154.1951 H   0  0  0  0  0  0  0  0  0  0  0  0
  148.5662  141.7025  155.5910 H   0  0  0  0  0  0  0  0  0  0  0  0
  152.3545  138.3424  154.6844 H   0  0  0  0  0  0  0  0  0  0  0  0
  151.5316  139.5739  153.7206 H   0  0  0  0  0  0  0  0  0  0  0  0
  150.5927  138.3223  154.5586 H   0  0  0  0  0  0  0  0  0  0  0  0
  153.2441  140.8137  159.2989 H   0  0  0  0  0  0  0  0  0  0  0  0
  152.0647  142.5765  160.5928 H   0  0  0  0  0  0  0  0  0  0  0  0
  149.9523  143.5657  159.7337 H   0  0  0  0  0  0  0  0  0  0  0  0
  149.0040  142.7910  157.5644 H   0  0  0  0  0  0  0  0  0  0  0  0
  144.1918  137.5609  153.6433 H   0  0  0  0  0  0  0  0  0  0  0  0
  142.9525  135.4439  153.3470 H   0  0  0  0  0  0  0  0  0  0  0  0
  1  2  1  0  0  0  0
  1 25  1  0  0  0  0
  1 26  1  0  0  0  0
  1 27  1  0  0  0  0
  2  3  1  0  0  0  0
  3 24  1  0  0  0  0
  3  4  2  0  0  0  0
  4  5  1  0  0  0  0
  4 28  1  0  0  0  0
  5  6  2  0  0  0  0
  5 29  1  0  0  0  0
  6  7  1  0  0  0  0
  6 23  1  0  0  0  0
  7  8  1  0  0  0  0
  7 30  1  0  0  0  0
  7 31  1  0  0  0  0
  8  9  1  0  0  0  0
  9 10  1  0  0  0  0
  9 32  1  0  0  0  0
  9 33  1  0  0  0  0
 10 11  1  0  0  0  0
 10 12  1  0  0  0  0
 10 34  1  0  0  0  0
 11 35  1  0  0  0  0
 12 13  1  0  0  0  0
 12 36  1  0  0  0  0
 12 37  1  0  0  0  0
 13 22  1  0  0  0  0
 13 14  1  0  0  0  0
 14 15  1  0  0  0  0
 14 16  2  0  0  0  0
 15 38  1  0  0  0  0
 15 39  1  0  0  0  0
 15 40  1  0  0  0  0
 16 17  1  0  0  0  0
 17 22  2  0  0  0  0
 17 18  1  0  0  0  0
 18 19  2  0  0  0  0
 18 41  1  0  0  0  0
 19 20  1  0  0  0  0
 19 42  1  0  0  0  0
 20 21  2  0  0  0  0
 20 43  1  0  0  0  0
 21 22  1  0  0  0  0
 21 44  1  0  0  0  0
 23 24  2  0  0  0  0
 23 45  1  0  0  0  0
 24 46  1  0  0  0  0
M  END
> <s_m_source_file>
AV-unprocessed.smi

> <i_m_source_file_index>
492

> <i_lp_mmshare_version>
43012

> <i_f3d_flags>
0

> <s_epik_input>
W0NIM11PYzFbY0hdW2NIXWMoW2NIXVtjSF0xKVtDSDJdT1tDSDJdW0NASF0oW09IXSlbQ0gyXW4oYyhuMilbQ0gzXSljKGMyMylbY0hdW2NIXVtjSF1bY0hdMw==

> <s_epik_cmdline>
J2VwaWtfcHl0aG9uJywgJy1waCcsICc3LjAnLCAnLXRuJywgJzgnLCAnLW1hJywgJzIwMCcsICctbWV0YWxfYmluZGluZycsICctaW1hZScsICc8aW5maWxlLm1hZT4nLCAnLW9tYWUnLCAnPG91dGZpbGUubWFlPic=

> <r_lp_tautomer_probability>
1

> <r_epik_Ionization_Penalty>
0.132603

> <r_epik_Ionization_Penalty_Charging>
0

> <r_epik_Ionization_Penalty_Neutral>
0.132603

> <r_epik_State_Penalty>
0.121982

> <r_epik_Charging_Adjusted_Penalty>
0.121982

> <i_epik_Tot_Q>
0

> <i_epik_Tot_abs_Q>
0

> <r_epik_Metal_State_Penalty>
0.000135431

> <b_epik_Metal_Only>
0

> <s_lp_Force_Field>
OPLS_2005

> <r_lp_Energy>
19.0412

> <b_lp_Chiralities_Consistent>
1

> <s_lp_Variant>
AV-unprocessed.smi:492-1

> <Gold.Version>
5.8.1

> <Gold.Id.Protein>
6NUR|6NUR_protein|mol2

> <Gold.PLP.Fitness>
47.9647

> <Gold.PLP.PLP>
-45.7440

> <Gold.PLP.part.hbond>
-1.0000

> <Gold.PLP.part.metal>
0.0000

> <Gold.PLP.part.buried>
-0.5566

> <Gold.PLP.part.nonpolar>
-45.0489

> <Gold.PLP.part.repulsive>
0.4396

> <Gold.PLP.ligand.clash>
0.0000

> <Gold.PLP.ligand.torsion>
0.4396

> <Gold.PLP.Chemscore.Hbond>
1.0000

> <Gold.PLP.Chemscore.CHOScore>
0.0000

> <Gold.PLP.Chemscore.Metal>
0.0000

> <Gold.Chemscore.Hbonds>
donor molecule, donor type, donor heavy atom, donor atom, acceptor molecule, acceptor atom, score
      P1  H  7997  8009       L1    16  0.76

> <Gold.PLP.Chemscore.Internal.Correction>
0.1000

> <Gold.Rescore>
     Score         DG    S(hbond)    S(metal)    S(lipo)     H(rot)  DE(clash)    DE(int)     intcor
     16.18     -16.86       0.90        0.00     124.12       2.40       0.45       0.23       ----

> <Gold.Chemscore.Fitness>
16.1788

> <Gold.Chemscore.DG>
-16.8621

> <Gold.Chemscore.ZeroCoef>
-5.4800

> <Gold.Chemscore.Hbond>
0.8989

> <Gold.Chemscore.Metal>
0.0000

> <Gold.Chemscore.Lipo>
124.1164

> <Gold.Chemscore.Internal_Hbond>
0.0000

> <Gold.Chemscore.DEClash>
0.4494

> <Gold.Chemscore.DEInternal>
0.2339

> <Gold.Chemscore.Rot>
2.3991

> <Gold.Chemscore.Internal.Correction>
   9.000000E+99

> <Gold.Chemscore.Hbonds>
donor molecule, donor type, donor heavy atom, donor atom, acceptor molecule, acceptor atom, score
      P1  H  7997  8009       L1    16  0.46

> <Gold.Chemscore.Hbond.Weighted>
-3.0022

> <Gold.Chemscore.Metal.Weighted>
-0.0000

> <Gold.Chemscore.Lipo.Weighted>
-14.5216

> <Gold.Chemscore.Internal_Hbond.Weighted>
0.0000

> <Gold.Chemscore.DEClash.Weighted>
0.4494

> <Gold.Chemscore.DEInternal.Weighted>
0.2339

> <Gold.Chemscore.Rot.Weighted>
6.1417

> <Gold.Chemscore.Internal.Correction.Weighted>
   9.000000E+99

> <Gold.Protein.RotatedTorsions>
[ 6907 6896 6895 6894 ] final  -23.95 input  -60.11 | X-H torsion
[ 7974 7965 7964 7962 ] final -163.07 input  175.53 | X-H torsion
[ 8008 7997 7996 7995 ] final  176.54 input   59.86 | X-H torsion
[ 10167 10162 10161 10158 ] final   69.08 input  -65.29 | X-H torsion
[ 10718 10713 10712 10709 ] final  135.92 input   66.30 | X-H torsion
[ 10763 10752 10751 10750 ] final -112.45 input  -60.55 | X-H torsion
[ 11005 11000 10999 10996 ] final  -61.69 input  -57.11 | X-H torsion

> <Gold.Protein.ActiveResidues>
 VAL166  LYS551  ARG553  GLY616  TRP617  ASP618  TYR619  PRO620  LYS621  CYS622 
 ASP623  PHE694  ASN695  SER759  ASP760  ASP761  ALA762  ILE779  LEU786  VAL792 
 PHE793  MET794  SER795  GLU796  ALA797  LYS798  CYS799  TRP800  GLU811  SER814 

> <Gold.Protein.RotatedAtoms>
  151.1966  135.0425  159.8854 H   0  0  0  0  0  0  0  0  0  0  0  0  # atno 6907 bound_to 6896
  152.5436  134.0897  159.8281 H   0  0  0  0  0  0  0  0  0  0  0  0  # atno 6908 bound_to 6896
  151.1032  133.5180  159.2641 H   0  0  0  0  0  0  0  0  0  0  0  0  # atno 6909 bound_to 6896
  144.7337  140.3160  143.6179 H   0  0  0  0  0  0  0  0  0  0  0  0  # atno 7974 bound_to 7965
  156.0753  140.1381  156.9779 H   0  0  0  0  0  0  0  0  0  0  0  0  # atno 8008 bound_to 7997
  154.4554  140.0963  156.6793 H   0  0  0  0  0  0  0  0  0  0  0  0  # atno 8009 bound_to 7997
  155.5162  140.3455  155.4400 H   0  0  0  0  0  0  0  0  0  0  0  0  # atno 8010 bound_to 7997
  140.0717  144.5147  150.7223 H   0  0  0  0  0  0  0  0  0  0  0  0  # atno 10167 bound_to 10162
  157.4521  131.1067  151.0021 H   0  0  0  0  0  0  0  0  0  0  0  0  # atno 10718 bound_to 10713
  154.8350  135.4490  154.1196 H   0  0  0  0  0  0  0  0  0  0  0  0  # atno 10763 bound_to 10752
  153.2435  135.6919  153.7763 H   0  0  0  0  0  0  0  0  0  0  0  0  # atno 10764 bound_to 10752
  153.7101  135.3358  155.3220 H   0  0  0  0  0  0  0  0  0  0  0  0  # atno 10765 bound_to 10752
  141.1333  133.6632  156.5413 H   0  0  0  0  0  0  0  0  0  0  0  0  # atno 11005 bound_to 11000
  145.7616  139.1827  143.2263 LP  0  0  0  0  0  0  0  0  0  0  0  0  # atno 17320 bound_to 7965
  146.0982  140.7576  142.9562 LP  0  0  0  0  0  0  0  0  0  0  0  0  # atno 17321 bound_to 7965
  140.7122  143.2514  151.4545 LP  0  0  0  0  0  0  0  0  0  0  0  0  # atno 17342 bound_to 10162
  139.5832  144.1662  152.1995 LP  0  0  0  0  0  0  0  0  0  0  0  0  # atno 17343 bound_to 10162
  157.0848  130.5918  149.5427 LP  0  0  0  0  0  0  0  0  0  0  0  0  # atno 17370 bound_to 10713
  155.9991  130.5067  150.7596 LP  0  0  0  0  0  0  0  0  0  0  0  0  # atno 17371 bound_to 10713
  140.4137  134.7249  157.4851 LP  0  0  0  0  0  0  0  0  0  0  0  0  # atno 17394 bound_to 11000
  140.0409  134.6269  155.8982 LP  0  0  0  0  0  0  0  0  0  0  0  0  # atno 17395 bound_to 11000

$$$$
