AV-unprocessed.smi:821|AV-procd|sdf|3838|dock4
  -GOLD-   22720 1283D 1   1.00000     0.00000
 Structure written by MMmdl.
 44 45  0  0  0  0  0  0  0  0  1 V2000
  149.4329  140.6947  154.7379 C   0  0  0  0  0  0  0  0  0  0  0  0
  149.7144  140.9363  156.2309 C   0  0  2  0  0  0  0  0  0  0  0  0
  151.0203  141.7362  156.4317 C   0  0  0  0  0  0  0  0  0  0  0  0
  151.2291  142.2692  157.7783 N   0  0  0  0  0  0  0  0  0  0  0  0
  152.0495  141.3937  158.6124 C   0  0  0  0  0  0  0  0  0  0  0  0
  152.2856  141.9876  160.0122 C   0  0  0  0  0  0  0  0  0  0  0  0
  152.8759  143.2776  159.8929 O   0  0  0  0  0  0  0  0  0  0  0  0
  152.0787  144.1758  159.1286 C   0  0  0  0  0  0  0  0  0  0  0  0
  151.8473  143.5901  157.7252 C   0  0  0  0  0  0  0  0  0  0  0  0
  149.8170  139.6493  156.9149 N   0  0  0  0  0  0  0  0  0  0  0  0
  148.8870  139.1209  157.7247 C   0  0  0  0  0  0  0  0  0  0  0  0
  147.8296  139.6879  158.0019 O   0  0  0  0  0  0  0  0  0  0  0  0
  149.2148  137.7482  158.3267 C   0  0  0  0  0  0  0  0  0  0  0  0
  148.0136  137.0202  158.7696 N   0  0  0  0  0  0  0  0  0  0  0  0
  147.0511  136.7168  157.7901 C   0  0  0  0  0  0  0  0  0  0  0  0
  145.9251  136.0552  158.0890 C   0  0  0  0  0  0  0  0  0  0  0  0
  145.7133  135.6522  159.4580 C   0  0  0  0  0  0  0  0  0  0  0  0
  146.6220  135.9278  160.4220 C   0  0  0  0  0  0  0  0  0  0  0  0
  146.4157  135.5056  161.8750 C   0  0  0  0  0  0  0  0  0  0  0  0
  147.0608  136.3316  162.6996 F   0  0  0  0  0  0  0  0  0  0  0  0
  145.1201  135.5302  162.1901 F   0  0  0  0  0  0  0  0  0  0  0  0
  146.8667  134.2706  162.1006 F   0  0  0  0  0  0  0  0  0  0  0  0
  147.8605  136.6570  160.0812 C   0  0  0  0  0  0  0  0  0  0  0  0
  148.7176  136.9304  160.9235 O   0  0  0  0  0  0  0  0  0  0  0  0
  149.3377  141.6381  154.1996 H   0  0  0  0  0  0  0  0  0  0  0  0
  148.5031  140.1437  154.5922 H   0  0  0  0  0  0  0  0  0  0  0  0
  150.2351  140.1233  154.2698 H   0  0  0  0  0  0  0  0  0  0  0  0
  148.8799  141.5096  156.6400 H   0  0  0  0  0  0  0  0  0  0  0  0
  151.8820  141.1430  156.1203 H   0  0  0  0  0  0  0  0  0  0  0  0
  150.9951  142.5839  155.7453 H   0  0  0  0  0  0  0  0  0  0  0  0
  151.5689  140.4221  158.7249 H   0  0  0  0  0  0  0  0  0  0  0  0
  153.0109  141.2147  158.1287 H   0  0  0  0  0  0  0  0  0  0  0  0
  151.3471  142.0591  160.5643 H   0  0  0  0  0  0  0  0  0  0  0  0
  152.9485  141.3440  160.5905 H   0  0  0  0  0  0  0  0  0  0  0  0
  151.1292  144.3528  159.6359 H   0  0  0  0  0  0  0  0  0  0  0  0
  152.5895  145.1364  159.0591 H   0  0  0  0  0  0  0  0  0  0  0  0
  152.8017  143.5309  157.1995 H   0  0  0  0  0  0  0  0  0  0  0  0
  151.2177  144.2712  157.1517 H   0  0  0  0  0  0  0  0  0  0  0  0
  150.6582  139.1156  156.7508 H   0  0  0  0  0  0  0  0  0  0  0  0
  149.7708  137.1470  157.6043 H   0  0  0  0  0  0  0  0  0  0  0  0
  149.9034  137.9009  159.1587 H   0  0  0  0  0  0  0  0  0  0  0  0
  147.2888  137.0470  156.7893 H   0  0  0  0  0  0  0  0  0  0  0  0
  145.1971  135.8261  157.3250 H   0  0  0  0  0  0  0  0  0  0  0  0
  144.8064  135.1191  159.7010 H   0  0  0  0  0  0  0  0  0  0  0  0
  1  2  1  0  0  0  0
  1 25  1  0  0  0  0
  1 26  1  0  0  0  0
  1 27  1  0  0  0  0
  2  3  1  0  0  0  0
  2 10  1  0  0  0  0
  2 28  1  0  0  0  0
  3  4  1  0  0  0  0
  3 29  1  0  0  0  0
  3 30  1  0  0  0  0
  4  9  1  0  0  0  0
  4  5  1  0  0  0  0
  5  6  1  0  0  0  0
  5 31  1  0  0  0  0
  5 32  1  0  0  0  0
  6  7  1  0  0  0  0
  6 33  1  0  0  0  0
  6 34  1  0  0  0  0
  7  8  1  0  0  0  0
  8  9  1  0  0  0  0
  8 35  1  0  0  0  0
  8 36  1  0  0  0  0
  9 37  1  0  0  0  0
  9 38  1  0  0  0  0
 10 11  1  0  0  0  0
 10 39  1  0  0  0  0
 11 12  2  0  0  0  0
 11 13  1  0  0  0  0
 13 14  1  0  0  0  0
 13 40  1  0  0  0  0
 13 41  1  0  0  0  0
 14 23  1  0  0  0  0
 14 15  1  0  0  0  0
 15 16  2  0  0  0  0
 15 42  1  0  0  0  0
 16 17  1  0  0  0  0
 16 43  1  0  0  0  0
 17 18  2  0  0  0  0
 17 44  1  0  0  0  0
 18 19  1  0  0  0  0
 18 23  1  0  0  0  0
 19 20  1  0  0  0  0
 19 21  1  0  0  0  0
 19 22  1  0  0  0  0
 23 24  2  0  0  0  0
M  END
> <s_m_source_file>
AV-unprocessed.smi

> <i_m_source_file_index>
821

> <i_lp_mmshare_version>
43012

> <i_f3d_flags>
0

> <s_epik_input>
W0NIMl0xW0NIMl1PW0NIMl1bQ0gyXU4xW0NIMl1bQ0BASF0oW0NIM10pW05IXUMoPU8pW0NIMl1uMltjSF1bY0hdW2NIXWMoQyhGKShGKUYpYzI9Tw==

> <s_epik_cmdline>
J2VwaWtfcHl0aG9uJywgJy1waCcsICc3LjAnLCAnLXRuJywgJzgnLCAnLW1hJywgJzIwMCcsICctbWV0YWxfYmluZGluZycsICctaW1hZScsICc8aW5maWxlLm1hZT4nLCAnLW9tYWUnLCAnPG91dGZpbGUubWFlPic=

> <r_lp_tautomer_probability>
1

> <r_epik_Ionization_Penalty>
0.237382

> <r_epik_Ionization_Penalty_Charging>
1.90699e-09

> <r_epik_Ionization_Penalty_Neutral>
0.237382

> <r_epik_State_Penalty>
0.228245

> <r_epik_Charging_Adjusted_Penalty>
0.228245

> <i_epik_Tot_Q>
0

> <i_epik_Tot_abs_Q>
0

> <r_epik_Metal_State_Penalty>
0.228219

> <b_epik_Metal_Only>
0

> <s_lp_Force_Field>
OPLS_2005

> <r_lp_Energy>
36.3962

> <b_lp_Chiralities_Consistent>
1

> <s_lp_Variant>
AV-unprocessed.smi:821-1

> <Gold.Version>
5.8.1

> <Gold.Id.Protein>
6NUR|6NUR_protein|mol2

> <Gold.PLP.Fitness>
42.5501

> <Gold.PLP.PLP>
-43.9068

> <Gold.PLP.part.hbond>
-1.8765

> <Gold.PLP.part.metal>
0.0000

> <Gold.PLP.part.buried>
-5.8444

> <Gold.PLP.part.nonpolar>
-36.5721

> <Gold.PLP.part.repulsive>
0.0789

> <Gold.PLP.ligand.clash>
0.0000

> <Gold.PLP.ligand.torsion>
2.1361

> <Gold.PLP.Chemscore.Hbond>
0.8480

> <Gold.PLP.Chemscore.CHOScore>
0.0000

> <Gold.PLP.Chemscore.Metal>
0.0000

> <Gold.Chemscore.Hbonds>
donor molecule, donor type, donor heavy atom, donor atom, acceptor molecule, acceptor atom, score
      P1  H  6931  6943       L1    24  0.99

> <Gold.PLP.Chemscore.Internal.Correction>
0.3715

> <Gold.Rescore>
     Score         DG    S(hbond)    S(metal)    S(lipo)     H(rot)  DE(clash)    DE(int)     intcor
     10.00     -12.90       0.91        0.00      83.30       2.09       0.12       2.78       ----

> <Gold.Chemscore.Fitness>
9.9995

> <Gold.Chemscore.DG>
-12.8958

> <Gold.Chemscore.ZeroCoef>
-5.4800

> <Gold.Chemscore.Hbond>
0.9061

> <Gold.Chemscore.Metal>
0.0000

> <Gold.Chemscore.Lipo>
83.2989

> <Gold.Chemscore.Internal_Hbond>
0.0000

> <Gold.Chemscore.DEClash>
0.1151

> <Gold.Chemscore.DEInternal>
2.7812

> <Gold.Chemscore.Rot>
2.0924

> <Gold.Chemscore.Internal.Correction>
   9.000000E+99

> <Gold.Chemscore.Hbonds>
donor molecule, donor type, donor heavy atom, donor atom, acceptor molecule, acceptor atom, score
      P1  H  6931  6943       L1    24  0.93

> <Gold.Chemscore.Hbond.Weighted>
-3.0265

> <Gold.Chemscore.Metal.Weighted>
-0.0000

> <Gold.Chemscore.Lipo.Weighted>
-9.7460

> <Gold.Chemscore.Internal_Hbond.Weighted>
0.0000

> <Gold.Chemscore.DEClash.Weighted>
0.1151

> <Gold.Chemscore.DEInternal.Weighted>
2.7812

> <Gold.Chemscore.Rot.Weighted>
5.3566

> <Gold.Chemscore.Internal.Correction.Weighted>
   9.000000E+99

> <Gold.Protein.RotatedTorsions>
[ 6907 6896 6895 6894 ] final  171.72 input  -60.11 | X-H torsion
[ 7974 7965 7964 7962 ] final   92.03 input  175.53 | X-H torsion
[ 8008 7997 7996 7995 ] final  170.84 input   59.86 | X-H torsion
[ 10167 10162 10161 10158 ] final    5.95 input  -65.29 | X-H torsion
[ 10718 10713 10712 10709 ] final -109.37 input   66.30 | X-H torsion
[ 10763 10752 10751 10750 ] final  171.90 input  -60.55 | X-H torsion
[ 11005 11000 10999 10996 ] final  111.05 input  -57.11 | X-H torsion

> <Gold.Protein.ActiveResidues>
 VAL166  LYS551  ARG553  GLY616  TRP617  ASP618  TYR619  PRO620  LYS621  CYS622 
 ASP623  PHE694  ASN695  SER759  ASP760  ASP761  ALA762  ILE779  LEU786  VAL792 
 PHE793  MET794  SER795  GLU796  ALA797  LYS798  CYS799  TRP800  GLU811  SER814 

> <Gold.Protein.RotatedAtoms>
  151.7957  133.3364  159.3511 H   0  0  0  0  0  0  0  0  0  0  0  0  # atno 6907 bound_to 6896
  150.7376  134.5800  159.5943 H   0  0  0  0  0  0  0  0  0  0  0  0  # atno 6908 bound_to 6896
  152.3178  134.7419  160.0372 H   0  0  0  0  0  0  0  0  0  0  0  0  # atno 6909 bound_to 6896
  145.4977  139.2276  143.2794 H   0  0  0  0  0  0  0  0  0  0  0  0  # atno 7974 bound_to 7965
  156.1328  140.1527  156.9040 H   0  0  0  0  0  0  0  0  0  0  0  0  # atno 8008 bound_to 7997
  154.4923  140.0848  156.7660 H   0  0  0  0  0  0  0  0  0  0  0  0  # atno 8009 bound_to 7997
  155.4224  140.3423  155.4275 H   0  0  0  0  0  0  0  0  0  0  0  0  # atno 8010 bound_to 7997
  140.6454  143.7674  150.7491 H   0  0  0  0  0  0  0  0  0  0  0  0  # atno 10167 bound_to 10162
  156.0534  130.5760  150.8091 H   0  0  0  0  0  0  0  0  0  0  0  0  # atno 10718 bound_to 10713
  154.4184  135.2757  155.1991 H   0  0  0  0  0  0  0  0  0  0  0  0  # atno 10763 bound_to 10752
  154.3948  135.6058  153.5867 H   0  0  0  0  0  0  0  0  0  0  0  0  # atno 10764 bound_to 10752
  152.9832  135.5912  154.4476 H   0  0  0  0  0  0  0  0  0  0  0  0  # atno 10765 bound_to 10752
  139.8895  134.9499  156.6372 H   0  0  0  0  0  0  0  0  0  0  0  0  # atno 11005 bound_to 11000
  146.2245  140.5776  142.9002 LP  0  0  0  0  0  0  0  0  0  0  0  0  # atno 17320 bound_to 7965
  144.7797  140.5815  143.6613 LP  0  0  0  0  0  0  0  0  0  0  0  0  # atno 17321 bound_to 7965
  140.1314  143.4523  152.2252 LP  0  0  0  0  0  0  0  0  0  0  0  0  # atno 17342 bound_to 10162
  139.5665  144.7438  151.4009 LP  0  0  0  0  0  0  0  0  0  0  0  0  # atno 17343 bound_to 10162
  157.5481  131.0943  150.9734 LP  0  0  0  0  0  0  0  0  0  0  0  0  # atno 17370 bound_to 10713
  157.0000  130.5596  149.5310 LP  0  0  0  0  0  0  0  0  0  0  0  0  # atno 17371 bound_to 10713
  140.7621  133.8808  155.8426 LP  0  0  0  0  0  0  0  0  0  0  0  0  # atno 17394 bound_to 11000
  140.9913  134.1275  157.4405 LP  0  0  0  0  0  0  0  0  0  0  0  0  # atno 17395 bound_to 11000

$$$$
