AV-unprocessed.smi:1758|AV-procd|sdf|7085|dock1
  -GOLD-   22720 8303D 1   1.00000     0.00000
 Structure written by MMmdl.
 44 46  0  0  0  0  0  0  0  0  2 V2000
  150.1348  141.7981  156.9358 C   0  0  0  0  0  0  0  0  0  0  0  0
  150.3993  141.1317  155.5803 C   0  0  0  0  0  0  0  0  0  0  0  0
  149.3792  140.1544  155.2533 N   0  0  0  0  0  0  0  0  0  0  0  0
  149.2616  139.3948  154.1062 C   0  0  0  0  0  0  0  0  0  0  0  0
  148.1410  138.6326  154.2812 C   0  0  0  0  0  0  0  0  0  0  0  0
  147.5576  137.6765  153.4118 N   0  0  0  0  0  0  0  0  0  0  0  0
  146.2503  137.4223  153.2406 C   0  0  0  0  0  0  0  0  0  0  0  0
  145.3322  138.0029  153.8197 O   0  0  0  0  0  0  0  0  0  0  0  0
  146.0548  136.4459  152.3430 N   0  0  0  0  0  0  0  0  0  0  0  0
  144.7467  135.9242  151.9556 C   0  0  2  0  0  0  0  0  0  0  0  0
  143.9758  135.3026  153.1131 C   0  0  0  0  0  0  0  0  0  0  0  0
  142.9195  134.4482  152.4045 C   0  0  0  0  0  0  0  0  0  0  0  0
  143.4797  134.0826  151.0798 N   0  3  2  0  0  0  0  0  0  0  0  0
  143.5107  132.6181  150.8196 C   0  0  0  0  0  0  0  0  0  0  0  0
  144.4450  132.2870  149.6464 C   0  0  0  0  0  0  0  0  0  0  0  0
  145.8975  132.7044  149.9462 C   0  0  0  0  0  0  0  0  0  0  0  0
  145.9841  133.8220  151.0033 C   0  0  0  0  0  0  0  0  0  0  0  0
  144.7803  134.7914  150.9111 C   0  0  2  0  0  0  0  0  0  0  0  0
  147.6318  138.9809  155.5593 C   0  0  0  0  0  0  0  0  0  0  0  0
  148.3853  139.9017  156.1408 N   0  0  0  0  0  0  0  0  0  0  0  0
  150.9148  142.5229  157.1695 H   0  0  0  0  0  0  0  0  0  0  0  0
  150.1141  141.0606  157.7388 H   0  0  0  0  0  0  0  0  0  0  0  0
  149.1801  142.3250  156.9387 H   0  0  0  0  0  0  0  0  0  0  0  0
  150.4355  141.8815  154.7888 H   0  0  0  0  0  0  0  0  0  0  0  0
  151.3694  140.6333  155.5894 H   0  0  0  0  0  0  0  0  0  0  0  0
  149.9712  139.4682  153.2953 H   0  0  0  0  0  0  0  0  0  0  0  0
  148.2058  137.1220  152.8718 H   0  0  0  0  0  0  0  0  0  0  0  0
  146.8644  136.0222  151.9133 H   0  0  0  0  0  0  0  0  0  0  0  0
  144.1456  136.7467  151.5608 H   0  0  0  0  0  0  0  0  0  0  0  0
  144.6321  134.6633  153.7055 H   0  0  0  0  0  0  0  0  0  0  0  0
  143.5376  136.0452  153.7807 H   0  0  0  0  0  0  0  0  0  0  0  0
  142.6351  133.5832  153.0054 H   0  0  0  0  0  0  0  0  0  0  0  0
  142.0166  135.0355  152.2343 H   0  0  0  0  0  0  0  0  0  0  0  0
  143.8512  132.0844  151.7087 H   0  0  0  0  0  0  0  0  0  0  0  0
  142.4971  132.2731  150.6132 H   0  0  0  0  0  0  0  0  0  0  0  0
  144.4038  131.2229  149.4126 H   0  0  0  0  0  0  0  0  0  0  0  0
  144.0923  132.8081  148.7552 H   0  0  0  0  0  0  0  0  0  0  0  0
  146.4719  131.8445  150.2924 H   0  0  0  0  0  0  0  0  0  0  0  0
  146.3706  133.0302  149.0189 H   0  0  0  0  0  0  0  0  0  0  0  0
  146.0132  133.3769  151.9987 H   0  0  0  0  0  0  0  0  0  0  0  0
  146.9294  134.3512  150.8810 H   0  0  0  0  0  0  0  0  0  0  0  0
  144.7937  135.2351  149.9145 H   0  0  0  0  0  0  0  0  0  0  0  0
  146.7591  138.6057  156.0733 H   0  0  0  0  0  0  0  0  0  0  0  0
  142.8593  134.4840  150.3911 H   0  0  0  0  0  0  0  0  0  0  0  0
  1  2  1  0  0  0  0
  1 21  1  0  0  0  0
  1 22  1  0  0  0  0
  1 23  1  0  0  0  0
  2  3  1  0  0  0  0
  2 24  1  0  0  0  0
  2 25  1  0  0  0  0
  3 20  1  0  0  0  0
  3  4  1  0  0  0  0
  4  5  2  0  0  0  0
  4 26  1  0  0  0  0
  5  6  1  0  0  0  0
  5 19  1  0  0  0  0
  6  7  1  0  0  0  0
  6 27  1  0  0  0  0
  7  8  2  0  0  0  0
  7  9  1  0  0  0  0
  9 10  1  0  0  0  0
  9 28  1  0  0  0  0
 10 18  1  0  0  0  0
 10 11  1  0  0  0  0
 10 29  1  0  0  0  0
 11 12  1  0  0  0  0
 11 30  1  0  0  0  0
 11 31  1  0  0  0  0
 12 13  1  0  0  0  0
 12 32  1  0  0  0  0
 12 33  1  0  0  0  0
 13 18  1  0  0  0  0
 13 14  1  0  0  0  0
 13 44  1  0  0  0  0
 14 15  1  0  0  0  0
 14 34  1  0  0  0  0
 14 35  1  0  0  0  0
 15 16  1  0  0  0  0
 15 36  1  0  0  0  0
 15 37  1  0  0  0  0
 16 17  1  0  0  0  0
 16 38  1  0  0  0  0
 16 39  1  0  0  0  0
 17 18  1  0  0  0  0
 17 40  1  0  0  0  0
 17 41  1  0  0  0  0
 18 42  1  0  0  0  0
 19 20  2  0  0  0  0
 19 43  1  0  0  0  0
M  CHG  1  13   1
M  END
> <s_m_source_file>
AV-unprocessed.smi

> <i_m_source_file_index>
1758

> <i_lp_mmshare_version>
43012

> <i_f3d_flags>
0

> <s_epik_input>
W0NIM11bQ0gyXW4xW2NIXWMoW2NIXW4xKVtOSF1DKD1PKVtOSF1bQ0BIXShbQ0gyXVtDSDJdMilbQ0BASF0oTjIzKVtDSDJdW0NIMl1bQ0gyXVtDSDJdMw==

> <s_epik_cmdline>
J2VwaWtfcHl0aG9uJywgJy1waCcsICc3LjAnLCAnLXRuJywgJzgnLCAnLW1hJywgJzIwMCcsICctbWV0YWxfYmluZGluZycsICctaW1hZScsICc8aW5maWxlLm1hZT4nLCAnLW9tYWUnLCAnPG91dGZpbGUubWFlPic=

> <r_lp_tautomer_probability>
1

> <r_epik_Ionization_Penalty>
0.00111541

> <r_epik_Ionization_Penalty_Charging>
0.000974069

> <r_epik_Ionization_Penalty_Neutral>
0.000141346

> <r_epik_State_Penalty>
0.000633842

> <r_epik_Charging_Adjusted_Penalty>
0.00160791

> <i_epik_Tot_Q>
1

> <i_epik_Tot_abs_Q>
1

> <r_epik_Metal_State_Penalty>
-0

> <b_epik_Metal_Only>
0

> <s_lp_Force_Field>
OPLS_2005

> <r_lp_Energy>
44.8791

> <b_lp_Chiralities_Consistent>
1

> <s_lp_Variant>
AV-unprocessed.smi:1758-7

> <Gold.Version>
5.8.1

> <Gold.Id.Protein>
6NUR|6NUR_protein|mol2

> <Gold.PLP.Fitness>
46.1747

> <Gold.PLP.PLP>
-32.9258

> <Gold.PLP.part.hbond>
-3.0000

> <Gold.PLP.part.metal>
0.0000

> <Gold.PLP.part.buried>
-3.3207

> <Gold.PLP.part.nonpolar>
-26.9971

> <Gold.PLP.part.repulsive>
0.2042

> <Gold.PLP.ligand.clash>
0.0000

> <Gold.PLP.ligand.torsion>
0.2555

> <Gold.PLP.Chemscore.Hbond>
3.5996

> <Gold.PLP.Chemscore.CHOScore>
0.9853

> <Gold.PLP.Chemscore.Metal>
0.0000

> <Gold.Chemscore.Hbonds>
donor molecule, donor type, donor heavy atom, donor atom, acceptor molecule, acceptor atom, score
      L1  H     6    27       P1  7948  1.00
      L1  H     9    28       P1  7948  0.74
      L1  H    13    44       P1 10186  1.86
      L1  C     4    26       P1  7957  0.99

> <Gold.PLP.Chemscore.Internal.Correction>
0.0053

> <Gold.Rescore>
     Score         DG    S(hbond)    S(metal)    S(lipo)     H(rot)  DE(clash)    DE(int)     intcor
     19.37     -20.02       2.41        0.00      81.40       1.19       0.29       0.36       ----

> <Gold.Chemscore.Fitness>
19.3650

> <Gold.Chemscore.DG>
-20.0199

> <Gold.Chemscore.ZeroCoef>
-5.4800

> <Gold.Chemscore.Hbond>
2.4127

> <Gold.Chemscore.Metal>
0.0000

> <Gold.Chemscore.Lipo>
81.4003

> <Gold.Chemscore.Internal_Hbond>
0.0000

> <Gold.Chemscore.DEClash>
0.2940

> <Gold.Chemscore.DEInternal>
0.3609

> <Gold.Chemscore.Rot>
1.1884

> <Gold.Chemscore.Internal.Correction>
   9.000000E+99

> <Gold.Chemscore.Hbonds>
donor molecule, donor type, donor heavy atom, donor atom, acceptor molecule, acceptor atom, score
      L1  H     6    27       P1  7948  0.93
      L1  H     9    28       P1  7948  0.71
      L1  H    13    44       P1 10186  0.51

> <Gold.Chemscore.Hbond.Weighted>
-8.0584

> <Gold.Chemscore.Metal.Weighted>
-0.0000

> <Gold.Chemscore.Lipo.Weighted>
-9.5238

> <Gold.Chemscore.Internal_Hbond.Weighted>
0.0000

> <Gold.Chemscore.DEClash.Weighted>
0.2940

> <Gold.Chemscore.DEInternal.Weighted>
0.3609

> <Gold.Chemscore.Rot.Weighted>
3.0423

> <Gold.Chemscore.Internal.Correction.Weighted>
   9.000000E+99

> <Gold.Protein.RotatedTorsions>
[ 6907 6896 6895 6894 ] final  169.16 input  -60.11 | X-H torsion
[ 7974 7965 7964 7962 ] final  -85.77 input  175.53 | X-H torsion
[ 8008 7997 7996 7995 ] final -165.41 input   59.86 | X-H torsion
[ 10167 10162 10161 10158 ] final   28.02 input  -65.29 | X-H torsion
[ 10718 10713 10712 10709 ] final  -11.78 input   66.30 | X-H torsion
[ 10763 10752 10751 10750 ] final  -56.41 input  -60.55 | X-H torsion
[ 11005 11000 10999 10996 ] final  -58.28 input  -57.11 | X-H torsion

> <Gold.Protein.ActiveResidues>
 VAL166  LYS551  ARG553  GLY616  TRP617  ASP618  TYR619  PRO620  LYS621  CYS622 
 ASP623  PHE694  ASN695  SER759  ASP760  ASP761  ALA762  ILE779  LEU786  VAL792 
 PHE793  MET794  SER795  GLU796  ALA797  LYS798  CYS799  TRP800  GLU811  SER814 

> <Gold.Protein.RotatedAtoms>
  151.8362  133.3416  159.3628 H   0  0  0  0  0  0  0  0  0  0  0  0  # atno 6907 bound_to 6896
  150.7249  134.5435  159.5768 H   0  0  0  0  0  0  0  0  0  0  0  0  # atno 6908 bound_to 6896
  152.2899  134.7734  160.0431 H   0  0  0  0  0  0  0  0  0  0  0  0  # atno 6909 bound_to 6896
  145.4887  140.9554  143.1824 H   0  0  0  0  0  0  0  0  0  0  0  0  # atno 7974 bound_to 7965
  155.8494  140.0961  157.1684 H   0  0  0  0  0  0  0  0  0  0  0  0  # atno 8008 bound_to 7997
  154.3985  140.1386  156.3888 H   0  0  0  0  0  0  0  0  0  0  0  0  # atno 8009 bound_to 7997
  155.7977  140.3454  155.5387 H   0  0  0  0  0  0  0  0  0  0  0  0  # atno 8010 bound_to 7997
  140.4888  144.0500  150.6290 H   0  0  0  0  0  0  0  0  0  0  0  0  # atno 10167 bound_to 10162
  156.6541  130.4963  149.6052 H   0  0  0  0  0  0  0  0  0  0  0  0  # atno 10718 bound_to 10713
  154.2063  135.6402  153.5102 H   0  0  0  0  0  0  0  0  0  0  0  0  # atno 10763 bound_to 10752
  153.0000  135.5463  154.6262 H   0  0  0  0  0  0  0  0  0  0  0  0  # atno 10764 bound_to 10752
  154.5688  135.2915  155.0821 H   0  0  0  0  0  0  0  0  0  0  0  0  # atno 10765 bound_to 10752
  141.1201  133.6612  156.4897 H   0  0  0  0  0  0  0  0  0  0  0  0  # atno 11005 bound_to 11000
  144.7846  139.6454  143.7139 LP  0  0  0  0  0  0  0  0  0  0  0  0  # atno 17320 bound_to 7965
  146.2297  139.5790  142.9563 LP  0  0  0  0  0  0  0  0  0  0  0  0  # atno 17321 bound_to 7965
  140.3763  143.2827  152.0221 LP  0  0  0  0  0  0  0  0  0  0  0  0  # atno 17342 bound_to 10162
  139.4847  144.6190  151.7291 LP  0  0  0  0  0  0  0  0  0  0  0  0  # atno 17343 bound_to 10162
  156.2061  130.6650  151.1220 LP  0  0  0  0  0  0  0  0  0  0  0  0  # atno 17370 bound_to 10713
  157.7131  131.0724  150.6428 LP  0  0  0  0  0  0  0  0  0  0  0  0  # atno 17371 bound_to 10713
  140.4533  134.6909  157.5050 LP  0  0  0  0  0  0  0  0  0  0  0  0  # atno 17394 bound_to 11000
  140.0151  134.6631  155.9321 LP  0  0  0  0  0  0  0  0  0  0  0  0  # atno 17395 bound_to 11000

$$$$
