AV-unprocessed.smi:1677|AV-procd|sdf|6723|dock1
  -GOLD-   22720 7463D 1   1.00000     0.00000
 Structure written by MMmdl.
 37 38  0  0  0  0  0  0  0  0  2 V2000
  146.8769  141.2843  156.7735 C   0  0  0  0  0  0  0  0  0  0  0  0
  148.2166  141.3328  156.0210 C   0  0  1  0  0  0  0  0  0  0  0  0
  148.0628  141.6986  154.5288 C   0  0  0  0  0  0  0  0  0  0  0  0
  147.7852  140.5337  153.6830 N   0  0  0  0  0  0  0  0  0  0  0  0
  146.6865  140.3318  152.8876 C   0  0  0  0  0  0  0  0  0  0  0  0
  146.8572  139.1106  152.2878 C   0  0  0  0  0  0  0  0  0  0  0  0
  148.0503  138.6177  152.7448 N   0  3  0  0  0  0  0  0  0  0  0  0
  148.6115  139.4830  153.5958 C   0  0  0  0  0  0  0  0  0  0  0  0
  149.1020  142.2851  156.6844 N   0  0  0  0  0  0  0  0  0  0  0  0
  150.2106  141.9675  157.3719 C   0  0  0  0  0  0  0  0  0  0  0  0
  150.6172  140.8121  157.4991 O   0  0  0  0  0  0  0  0  0  0  0  0
  150.9759  143.1340  158.0103 C   0  0  1  0  0  0  0  0  0  0  0  0
  150.0610  143.9483  158.9532 C   0  0  0  0  0  0  0  0  0  0  0  0
  150.8426  144.9539  159.7799 C   0  0  0  0  0  0  0  0  0  0  0  0
  152.1767  144.9043  159.9355 C   0  0  0  0  0  0  0  0  0  0  0  0
  153.0524  143.8340  159.3075 C   0  0  0  0  0  0  0  0  0  0  0  0
  152.2296  142.6491  158.7660 C   0  0  0  0  0  0  0  0  0  0  0  0
  146.2132  140.5229  156.3636 H   0  0  0  0  0  0  0  0  0  0  0  0
  146.3585  142.2426  156.7220 H   0  0  0  0  0  0  0  0  0  0  0  0
  147.0293  141.0452  157.8267 H   0  0  0  0  0  0  0  0  0  0  0  0
  148.6636  140.3392  156.0911 H   0  0  0  0  0  0  0  0  0  0  0  0
  147.2598  142.4246  154.3911 H   0  0  0  0  0  0  0  0  0  0  0  0
  148.9746  142.1619  154.1492 H   0  0  0  0  0  0  0  0  0  0  0  0
  145.8869  141.0545  152.8088 H   0  0  0  0  0  0  0  0  0  0  0  0
  146.2353  138.5695  151.5895 H   0  0  0  0  0  0  0  0  0  0  0  0
  149.5496  139.3586  154.1070 H   0  0  0  0  0  0  0  0  0  0  0  0
  148.8450  143.2604  156.6310 H   0  0  0  0  0  0  0  0  0  0  0  0
  151.3123  143.7968  157.2104 H   0  0  0  0  0  0  0  0  0  0  0  0
  149.3134  144.4854  158.3684 H   0  0  0  0  0  0  0  0  0  0  0  0
  149.5187  143.2970  159.6404 H   0  0  0  0  0  0  0  0  0  0  0  0
  150.2733  145.7323  160.2665 H   0  0  0  0  0  0  0  0  0  0  0  0
  152.6766  145.6587  160.5252 H   0  0  0  0  0  0  0  0  0  0  0  0
  153.6236  144.2957  158.5017 H   0  0  0  0  0  0  0  0  0  0  0  0
  153.7727  143.4796  160.0452 H   0  0  0  0  0  0  0  0  0  0  0  0
  151.9285  142.0150  159.6016 H   0  0  0  0  0  0  0  0  0  0  0  0
  152.8567  142.0305  158.1222 H   0  0  0  0  0  0  0  0  0  0  0  0
  148.4516  137.7269  152.4792 H   0  0  0  0  0  0  0  0  0  0  0  0
  1  2  1  0  0  0  0
  1 18  1  0  0  0  0
  1 19  1  0  0  0  0
  1 20  1  0  0  0  0
  2  3  1  0  0  0  0
  2  9  1  0  0  0  0
  2 21  1  0  0  0  0
  3  4  1  0  0  0  0
  3 22  1  0  0  0  0
  3 23  1  0  0  0  0
  4  8  1  0  0  0  0
  4  5  1  0  0  0  0
  5  6  2  0  0  0  0
  5 24  1  0  0  0  0
  6  7  1  0  0  0  0
  6 25  1  0  0  0  0
  7  8  2  0  0  0  0
  7 37  1  0  0  0  0
  8 26  1  0  0  0  0
  9 10  1  0  0  0  0
  9 27  1  0  0  0  0
 10 11  2  0  0  0  0
 10 12  1  0  0  0  0
 12 17  1  0  0  0  0
 12 13  1  0  0  0  0
 12 28  1  0  0  0  0
 13 14  1  0  0  0  0
 13 29  1  0  0  0  0
 13 30  1  0  0  0  0
 14 15  2  0  0  0  0
 14 31  1  0  0  0  0
 15 16  1  0  0  0  0
 15 32  1  0  0  0  0
 16 17  1  0  0  0  0
 16 33  1  0  0  0  0
 16 34  1  0  0  0  0
 17 35  1  0  0  0  0
 17 36  1  0  0  0  0
M  CHG  1   7   1
M  END
> <s_m_source_file>
AV-unprocessed.smi

> <i_m_source_file_index>
1677

> <i_lp_mmshare_version>
43012

> <i_f3d_flags>
0

> <s_epik_input>
W2NIXTFuW2NIXVtjSF1uMVtDSDJdW0NAQEhdKFtDSDNdKVtOSF1DKD1PKVtDQEBIXTJbQ0gyXVtDSF09W0NIXVtDSDJdW0NIMl0y

> <s_epik_cmdline>
J2VwaWtfcHl0aG9uJywgJy1waCcsICc3LjAnLCAnLXRuJywgJzgnLCAnLW1hJywgJzIwMCcsICctbWV0YWxfYmluZGluZycsICctaW1hZScsICc8aW5maWxlLm1hZT4nLCAnLW9tYWUnLCAnPG91dGZpbGUubWFlPic=

> <r_lp_tautomer_probability>
1

> <r_epik_Ionization_Penalty>
0.245541

> <r_epik_Ionization_Penalty_Charging>
0

> <r_epik_Ionization_Penalty_Neutral>
0.245541

> <r_epik_State_Penalty>
0.236686

> <r_epik_Charging_Adjusted_Penalty>
0.236686

> <i_epik_Tot_Q>
1

> <i_epik_Tot_abs_Q>
1

> <r_epik_Metal_State_Penalty>
0.529594

> <b_epik_Metal_Only>
0

> <s_lp_Force_Field>
OPLS_2005

> <r_lp_Energy>
11.602

> <b_lp_Chiralities_Consistent>
1

> <s_lp_Variant>
AV-unprocessed.smi:1677-4

> <Gold.Version>
5.8.1

> <Gold.Id.Protein>
6NUR|6NUR_protein|mol2

> <Gold.PLP.Fitness>
46.3019

> <Gold.PLP.PLP>
-35.1905

> <Gold.PLP.part.hbond>
-3.0000

> <Gold.PLP.part.metal>
0.0000

> <Gold.PLP.part.buried>
-0.6577

> <Gold.PLP.part.nonpolar>
-32.0117

> <Gold.PLP.part.repulsive>
0.0818

> <Gold.PLP.ligand.clash>
0.0000

> <Gold.PLP.ligand.torsion>
0.3825

> <Gold.PLP.Chemscore.Hbond>
3.0000

> <Gold.PLP.Chemscore.CHOScore>
0.9074

> <Gold.PLP.Chemscore.Metal>
0.0000

> <Gold.Chemscore.Hbonds>
donor molecule, donor type, donor heavy atom, donor atom, acceptor molecule, acceptor atom, score
      L1  H     7    37       P1  7948  2.00
      L1  H     9    27       P1  8028  0.93
      L1  C     5    24       P1 10175  0.79

> <Gold.PLP.Chemscore.Internal.Correction>
0.1542

> <Gold.Rescore>
     Score         DG    S(hbond)    S(metal)    S(lipo)     H(rot)  DE(clash)    DE(int)     intcor
     17.33     -18.51       1.92        0.00      96.22       1.81       0.77       0.42       ----

> <Gold.Chemscore.Fitness>
17.3295

> <Gold.Chemscore.DG>
-18.5150

> <Gold.Chemscore.ZeroCoef>
-5.4800

> <Gold.Chemscore.Hbond>
1.9230

> <Gold.Chemscore.Metal>
0.0000

> <Gold.Chemscore.Lipo>
96.2198

> <Gold.Chemscore.Internal_Hbond>
0.0000

> <Gold.Chemscore.DEClash>
0.7660

> <Gold.Chemscore.DEInternal>
0.4195

> <Gold.Chemscore.Rot>
1.8147

> <Gold.Chemscore.Internal.Correction>
   9.000000E+99

> <Gold.Chemscore.Hbonds>
donor molecule, donor type, donor heavy atom, donor atom, acceptor molecule, acceptor atom, score
      L1  H     7    37       P1  7948  1.00
      L1  H     9    27       P1  8028  0.80

> <Gold.Chemscore.Hbond.Weighted>
-6.4229

> <Gold.Chemscore.Metal.Weighted>
-0.0000

> <Gold.Chemscore.Lipo.Weighted>
-11.2577

> <Gold.Chemscore.Internal_Hbond.Weighted>
0.0000

> <Gold.Chemscore.DEClash.Weighted>
0.7660

> <Gold.Chemscore.DEInternal.Weighted>
0.4195

> <Gold.Chemscore.Rot.Weighted>
4.6456

> <Gold.Chemscore.Internal.Correction.Weighted>
   9.000000E+99

> <Gold.Protein.RotatedTorsions>
[ 6907 6896 6895 6894 ] final -142.20 input  -60.11 | X-H torsion
[ 7974 7965 7964 7962 ] final  150.26 input  175.53 | X-H torsion
[ 8008 7997 7996 7995 ] final   45.66 input   59.86 | X-H torsion
[ 10167 10162 10161 10158 ] final  -50.55 input  -65.29 | X-H torsion
[ 10718 10713 10712 10709 ] final -175.15 input   66.30 | X-H torsion
[ 10763 10752 10751 10750 ] final   12.75 input  -60.55 | X-H torsion
[ 11005 11000 10999 10996 ] final  -99.65 input  -57.11 | X-H torsion

> <Gold.Protein.ActiveResidues>
 VAL166  LYS551  ARG553  GLY616  TRP617  ASP618  TYR619  PRO620  LYS621  CYS622 
 ASP623  PHE694  ASN695  SER759  ASP760  ASP761  ALA762  ILE779  LEU786  VAL792 
 PHE793  MET794  SER795  GLU796  ALA797  LYS798  CYS799  TRP800  GLU811  SER814 

> <Gold.Protein.RotatedAtoms>
  151.0839  133.5369  159.2618 H   0  0  0  0  0  0  0  0  0  0  0  0  # atno 6907 bound_to 6896
  151.2262  135.0536  159.8979 H   0  0  0  0  0  0  0  0  0  0  0  0  # atno 6908 bound_to 6896
  152.5427  134.0634  159.8216 H   0  0  0  0  0  0  0  0  0  0  0  0  # atno 6909 bound_to 6896
  144.8377  139.6386  143.6030 H   0  0  0  0  0  0  0  0  0  0  0  0  # atno 7974 bound_to 7965
  155.3395  140.3407  155.4239 H   0  0  0  0  0  0  0  0  0  0  0  0  # atno 8008 bound_to 7997
  156.1820  140.1667  156.8292 H   0  0  0  0  0  0  0  0  0  0  0  0  # atno 8009 bound_to 7997
  154.5344  140.0738  156.8385 H   0  0  0  0  0  0  0  0  0  0  0  0  # atno 8010 bound_to 7997
  140.6632  143.2653  151.4376 H   0  0  0  0  0  0  0  0  0  0  0  0  # atno 10167 bound_to 10162
  156.7956  130.9534  151.3119 H   0  0  0  0  0  0  0  0  0  0  0  0  # atno 10718 bound_to 10713
  153.1791  135.6825  153.8503 H   0  0  0  0  0  0  0  0  0  0  0  0  # atno 10763 bound_to 10752
  153.7841  135.3178  155.3371 H   0  0  0  0  0  0  0  0  0  0  0  0  # atno 10764 bound_to 10752
  154.8048  135.4755  154.0459 H   0  0  0  0  0  0  0  0  0  0  0  0  # atno 10765 bound_to 10752
  141.1300  133.8338  157.1000 H   0  0  0  0  0  0  0  0  0  0  0  0  # atno 11005 bound_to 11000
  146.2674  139.6552  142.9320 LP  0  0  0  0  0  0  0  0  0  0  0  0  # atno 17320 bound_to 7965
  145.4759  141.0437  143.2672 LP  0  0  0  0  0  0  0  0  0  0  0  0  # atno 17321 bound_to 7965
  139.5872  144.1578  152.2043 LP  0  0  0  0  0  0  0  0  0  0  0  0  # atno 17342 bound_to 10162
  140.0922  144.5611  150.7047 LP  0  0  0  0  0  0  0  0  0  0  0  0  # atno 17343 bound_to 10162
  157.6579  130.8940  149.9767 LP  0  0  0  0  0  0  0  0  0  0  0  0  # atno 17370 bound_to 10713
  156.1132  130.3649  150.0013 LP  0  0  0  0  0  0  0  0  0  0  0  0  # atno 17371 bound_to 10713
  140.0339  134.9887  157.0834 LP  0  0  0  0  0  0  0  0  0  0  0  0  # atno 17394 bound_to 11000
  140.4241  134.1849  155.7165 LP  0  0  0  0  0  0  0  0  0  0  0  0  # atno 17395 bound_to 11000

$$$$
