AV-unprocessed.smi:864|AV-procd|sdf|3987|dock2
  -GOLD-   22720 1463D 1   1.00000     0.00000
 Structure written by MMmdl.
 44 46  0  0  0  0  0  0  0  0  1 V2000
  143.7466  132.4948  149.4933 C   0  0  0  0  0  0  0  0  0  0  0  0
  144.6682  132.3070  150.6803 C   0  0  0  0  0  0  0  0  0  0  0  0
  144.6034  131.1374  151.4662 C   0  0  0  0  0  0  0  0  0  0  0  0
  145.4817  131.0156  152.5598 C   0  0  0  0  0  0  0  0  0  0  0  0
  146.3859  132.0648  152.8267 C   0  0  0  0  0  0  0  0  0  0  0  0
  147.3271  132.0033  154.0176 C   0  0  0  0  0  0  0  0  0  0  0  0
  148.7858  132.3559  153.6666 C   0  0  0  0  0  0  0  0  0  0  0  0
  148.9979  133.8006  153.6108 N   0  0  0  0  0  0  0  0  0  0  0  0
  149.3333  134.5765  154.6520 C   0  0  0  0  0  0  0  0  0  0  0  0
  149.4156  134.1775  155.8137 O   0  0  0  0  0  0  0  0  0  0  0  0
  149.5971  135.8321  154.2663 N   0  0  0  0  0  0  0  0  0  0  0  0
  150.0408  136.9121  155.1443 C   0  0  1  0  0  0  0  0  0  0  0  0
  151.4771  137.3484  154.8248 C   0  0  0  0  0  0  0  0  0  0  0  0
  151.3837  138.8635  154.7691 C   0  0  0  0  0  0  0  0  0  0  0  0
  152.3762  139.5870  154.6967 O   0  0  0  0  0  0  0  0  0  0  0  0
  150.1120  139.2757  154.8221 N   0  0  0  0  0  0  0  0  0  0  0  0
  149.6975  140.6446  154.9169 C   0  0  0  0  0  0  0  0  0  0  0  0
  148.3805  141.0185  155.5698 C   0  0  0  0  0  0  0  0  0  0  0  0
  148.5302  141.0985  154.0703 C   0  0  0  0  0  0  0  0  0  0  0  0
  149.1741  138.1698  154.9569 C   0  0  0  0  0  0  0  0  0  0  0  0
  146.3726  133.1900  151.9756 C   0  0  0  0  0  0  0  0  0  0  0  0
  145.5360  133.3139  150.9230 N   0  0  0  0  0  0  0  0  0  0  0  0
  142.9037  131.8046  149.5383 H   0  0  0  0  0  0  0  0  0  0  0  0
  144.2879  132.3145  148.5641 H   0  0  0  0  0  0  0  0  0  0  0  0
  143.3502  133.5104  149.4698 H   0  0  0  0  0  0  0  0  0  0  0  0
  143.8960  130.3530  151.2409 H   0  0  0  0  0  0  0  0  0  0  0  0
  145.4503  130.1379  153.1887 H   0  0  0  0  0  0  0  0  0  0  0  0
  146.9640  132.6814  154.7911 H   0  0  0  0  0  0  0  0  0  0  0  0
  147.2839  131.0022  154.4481 H   0  0  0  0  0  0  0  0  0  0  0  0
  149.4557  131.9372  154.4177 H   0  0  0  0  0  0  0  0  0  0  0  0
  149.0634  131.8887  152.7202 H   0  0  0  0  0  0  0  0  0  0  0  0
  148.9475  134.2293  152.6983 H   0  0  0  0  0  0  0  0  0  0  0  0
  149.5050  136.0546  153.2859 H   0  0  0  0  0  0  0  0  0  0  0  0
  150.0038  136.6080  156.1925 H   0  0  0  0  0  0  0  0  0  0  0  0
  152.1818  137.0249  155.5918 H   0  0  0  0  0  0  0  0  0  0  0  0
  151.8210  136.9759  153.8588 H   0  0  0  0  0  0  0  0  0  0  0  0
  150.5001  141.3685  155.0514 H   0  0  0  0  0  0  0  0  0  0  0  0
  147.7317  140.2357  155.9569 H   0  0  0  0  0  0  0  0  0  0  0  0
  148.3455  141.9574  156.1184 H   0  0  0  0  0  0  0  0  0  0  0  0
  148.5906  142.0882  153.6222 H   0  0  0  0  0  0  0  0  0  0  0  0
  148.0136  140.3483  153.4746 H   0  0  0  0  0  0  0  0  0  0  0  0
  148.5633  138.1119  154.0545 H   0  0  0  0  0  0  0  0  0  0  0  0
  148.5079  138.3175  155.8080 H   0  0  0  0  0  0  0  0  0  0  0  0
  147.0431  134.0185  152.1509 H   0  0  0  0  0  0  0  0  0  0  0  0
  1  2  1  0  0  0  0
  1 23  1  0  0  0  0
  1 24  1  0  0  0  0
  1 25  1  0  0  0  0
  2 22  1  0  0  0  0
  2  3  2  0  0  0  0
  3  4  1  0  0  0  0
  3 26  1  0  0  0  0
  4  5  2  0  0  0  0
  4 27  1  0  0  0  0
  5  6  1  0  0  0  0
  5 21  1  0  0  0  0
  6  7  1  0  0  0  0
  6 28  1  0  0  0  0
  6 29  1  0  0  0  0
  7  8  1  0  0  0  0
  7 30  1  0  0  0  0
  7 31  1  0  0  0  0
  8  9  1  0  0  0  0
  8 32  1  0  0  0  0
  9 10  2  0  0  0  0
  9 11  1  0  0  0  0
 11 12  1  0  0  0  0
 11 33  1  0  0  0  0
 12 20  1  0  0  0  0
 12 13  1  0  0  0  0
 12 34  1  0  0  0  0
 13 14  1  0  0  0  0
 13 35  1  0  0  0  0
 13 36  1  0  0  0  0
 14 15  2  0  0  0  0
 14 16  1  0  0  0  0
 16 17  1  0  0  0  0
 16 20  1  0  0  0  0
 17 19  1  0  0  0  0
 17 18  1  0  0  0  0
 17 37  1  0  0  0  0
 18 19  1  0  0  0  0
 18 38  1  0  0  0  0
 18 39  1  0  0  0  0
 19 40  1  0  0  0  0
 19 41  1  0  0  0  0
 20 42  1  0  0  0  0
 20 43  1  0  0  0  0
 21 22  2  0  0  0  0
 21 44  1  0  0  0  0
M  END
> <s_m_source_file>
AV-unprocessed.smi

> <i_m_source_file_index>
864

> <i_lp_mmshare_version>
43012

> <i_f3d_flags>
0

> <s_epik_input>
W0NIM11jMVtjSF1bY0hdYyhbY0hdbjEpW0NIMl1bQ0gyXVtOSF1DKD1PKVtOSF1bQ0BASF0yW0NIMl1DKD1PKU4oW0NIMl0yKVtDSF0zW0NIMl1bQ0gyXTM=

> <s_epik_cmdline>
J2VwaWtfcHl0aG9uJywgJy1waCcsICc3LjAnLCAnLXRuJywgJzgnLCAnLW1hJywgJzIwMCcsICctbWV0YWxfYmluZGluZycsICctaW1hZScsICc8aW5maWxlLm1hZT4nLCAnLW9tYWUnLCAnPG91dGZpbGUubWFlPic=

> <r_epik_Ionization_Penalty>
0.0559435

> <r_epik_Ionization_Penalty_Charging>
0

> <r_epik_Ionization_Penalty_Neutral>
0.0559435

> <r_epik_State_Penalty>
0.0481757

> <r_epik_Charging_Adjusted_Penalty>
0.0481757

> <i_epik_Tot_Q>
0

> <i_epik_Tot_abs_Q>
0

> <r_epik_Metal_State_Penalty>
0.0439988

> <b_epik_Metal_Only>
0

> <s_lp_Force_Field>
OPLS_2005

> <r_lp_Energy>
34.0483

> <b_lp_Chiralities_Consistent>
1

> <s_lp_Variant>
AV-unprocessed.smi:864-2

> <Gold.Version>
5.8.1

> <Gold.Id.Protein>
6NUR|6NUR_protein|mol2

> <Gold.PLP.Fitness>
49.5820

> <Gold.PLP.PLP>
-43.1715

> <Gold.PLP.part.hbond>
-4.1191

> <Gold.PLP.part.metal>
0.0000

> <Gold.PLP.part.buried>
-4.1571

> <Gold.PLP.part.nonpolar>
-35.6944

> <Gold.PLP.part.repulsive>
0.3062

> <Gold.PLP.ligand.clash>
0.0000

> <Gold.PLP.ligand.torsion>
0.9491

> <Gold.PLP.Chemscore.Hbond>
1.7040

> <Gold.PLP.Chemscore.CHOScore>
1.0000

> <Gold.PLP.Chemscore.Metal>
0.0000

> <Gold.Chemscore.Hbonds>
donor molecule, donor type, donor heavy atom, donor atom, acceptor molecule, acceptor atom, score
      L1  H     8    32       P1  7948  0.13
      L1  H    11    33       P1  7948  0.93
      P1  H  7989  7998       L1    15  0.62
      L1  C    21    44       P1  7948  0.10

> <Gold.PLP.Chemscore.Internal.Correction>
0.1966

> <Gold.Rescore>
     Score         DG    S(hbond)    S(metal)    S(lipo)     H(rot)  DE(clash)    DE(int)     intcor
     14.32     -15.19       1.00        0.00      92.61       1.75       0.11       0.75       ----

> <Gold.Chemscore.Fitness>
14.3227

> <Gold.Chemscore.DG>
-15.1869

> <Gold.Chemscore.ZeroCoef>
-5.4800

> <Gold.Chemscore.Hbond>
1.0049

> <Gold.Chemscore.Metal>
0.0000

> <Gold.Chemscore.Lipo>
92.6088

> <Gold.Chemscore.Internal_Hbond>
0.0000

> <Gold.Chemscore.DEClash>
0.1134

> <Gold.Chemscore.DEInternal>
0.7508

> <Gold.Chemscore.Rot>
1.7518

> <Gold.Chemscore.Internal.Correction>
   9.000000E+99

> <Gold.Chemscore.Hbonds>
donor molecule, donor type, donor heavy atom, donor atom, acceptor molecule, acceptor atom, score
      L1  H    11    33       P1  7948  0.31
      P1  H  7989  7998       L1    15  0.13
      P1  H  7997  8010       L1    15  0.01

> <Gold.Chemscore.Hbond.Weighted>
-3.3562

> <Gold.Chemscore.Metal.Weighted>
-0.0000

> <Gold.Chemscore.Lipo.Weighted>
-10.8352

> <Gold.Chemscore.Internal_Hbond.Weighted>
0.0000

> <Gold.Chemscore.DEClash.Weighted>
0.1134

> <Gold.Chemscore.DEInternal.Weighted>
0.7508

> <Gold.Chemscore.Rot.Weighted>
4.4846

> <Gold.Chemscore.Internal.Correction.Weighted>
   9.000000E+99

> <Gold.Protein.RotatedTorsions>
[ 6907 6896 6895 6894 ] final  160.41 input  -60.11 | X-H torsion
[ 7974 7965 7964 7962 ] final -140.27 input  175.53 | X-H torsion
[ 8008 7997 7996 7995 ] final   87.85 input   59.86 | X-H torsion
[ 10167 10162 10161 10158 ] final   61.76 input  -65.29 | X-H torsion
[ 10718 10713 10712 10709 ] final -140.98 input   66.30 | X-H torsion
[ 10763 10752 10751 10750 ] final   98.11 input  -60.55 | X-H torsion
[ 11005 11000 10999 10996 ] final -161.46 input  -57.11 | X-H torsion

> <Gold.Protein.ActiveResidues>
 VAL166  LYS551  ARG553  GLY616  TRP617  ASP618  TYR619  PRO620  LYS621  CYS622 
 ASP623  PHE694  ASN695  SER759  ASP760  ASP761  ALA762  ILE779  LEU786  VAL792 
 PHE793  MET794  SER795  GLU796  ALA797  LYS798  CYS799  TRP800  GLU811  SER814 

> <Gold.Protein.RotatedAtoms>
  151.9710  133.3726  159.4070 H   0  0  0  0  0  0  0  0  0  0  0  0  # atno 6907 bound_to 6896
  150.6949  134.4140  159.5184 H   0  0  0  0  0  0  0  0  0  0  0  0  # atno 6908 bound_to 6896
  152.1844  134.8726  160.0574 H   0  0  0  0  0  0  0  0  0  0  0  0  # atno 6909 bound_to 6896
  144.8610  140.6220  143.5328 H   0  0  0  0  0  0  0  0  0  0  0  0  # atno 7974 bound_to 7965
  155.9805  140.3378  155.6658 H   0  0  0  0  0  0  0  0  0  0  0  0  # atno 8008 bound_to 7997
  155.6555  140.0710  157.2590 H   0  0  0  0  0  0  0  0  0  0  0  0  # atno 8009 bound_to 7997
  154.4190  140.1718  156.1708 H   0  0  0  0  0  0  0  0  0  0  0  0  # atno 8010 bound_to 7997
  140.1512  144.4460  150.6758 H   0  0  0  0  0  0  0  0  0  0  0  0  # atno 10167 bound_to 10162
  156.3287  130.7574  151.1687 H   0  0  0  0  0  0  0  0  0  0  0  0  # atno 10718 bound_to 10713
  153.2850  135.4160  155.1114 H   0  0  0  0  0  0  0  0  0  0  0  0  # atno 10763 bound_to 10752
  154.8502  135.3504  154.6059 H   0  0  0  0  0  0  0  0  0  0  0  0  # atno 10764 bound_to 10752
  153.6481  135.7054  153.5276 H   0  0  0  0  0  0  0  0  0  0  0  0  # atno 10765 bound_to 10752
  140.6201  134.4759  157.5223 H   0  0  0  0  0  0  0  0  0  0  0  0  # atno 11005 bound_to 11000
  145.4312  139.1549  143.4021 LP  0  0  0  0  0  0  0  0  0  0  0  0  # atno 17320 bound_to 7965
  146.2861  140.4428  142.8757 LP  0  0  0  0  0  0  0  0  0  0  0  0  # atno 17321 bound_to 7965
  140.6701  143.2282  151.5646 LP  0  0  0  0  0  0  0  0  0  0  0  0  # atno 17342 bound_to 10162
  139.5425  144.2610  152.1378 LP  0  0  0  0  0  0  0  0  0  0  0  0  # atno 17343 bound_to 10162
  157.7426  131.0487  150.5010 LP  0  0  0  0  0  0  0  0  0  0  0  0  # atno 17370 bound_to 10713
  156.5173  130.4153  149.6269 LP  0  0  0  0  0  0  0  0  0  0  0  0  # atno 17371 bound_to 10713
  139.9157  134.8252  156.1375 LP  0  0  0  0  0  0  0  0  0  0  0  0  # atno 17394 bound_to 11000
  141.0748  133.6780  156.2214 LP  0  0  0  0  0  0  0  0  0  0  0  0  # atno 17395 bound_to 11000

$$$$
