AV-unprocessed.smi:3284|AV-procd|sdf|12577|dock5
  -GOLD-   2272018503D 1   1.00000     0.00000
 Structure written by MMmdl.
 45 46  0  0  0  0  0  0  0  0  3 V2000
  151.6147  145.7674  160.0986 C   0  0  0  0  0  0  0  0  0  0  0  0
  151.9850  144.3269  160.4156 C   0  0  0  0  0  0  0  0  0  0  0  0
  152.3423  143.9927  161.6703 C   0  0  0  0  0  0  0  0  0  0  0  0
  152.8003  142.6146  162.0885 C   0  0  0  0  0  0  0  0  0  0  0  0
  153.2805  141.8056  160.8813 C   0  0  0  0  0  0  0  0  0  0  0  0
  152.2551  141.8449  159.7364 C   0  0  2  0  0  0  0  0  0  0  0  0
  152.7346  140.9352  158.5885 C   0  0  0  0  0  0  0  0  0  0  0  0
  151.9564  143.3007  159.2621 C   0  0  1  0  0  0  0  0  0  0  0  0
  150.6295  143.3395  158.4590 C   0  0  0  0  0  0  0  0  0  0  0  0
  150.8013  142.8841  157.0648 N   0  3  0  0  0  0  0  0  0  0  0  0
  150.2292  141.5535  156.7782 C   0  0  0  0  0  0  0  0  0  0  0  0
  150.1940  141.2688  155.2672 C   0  0  0  0  0  0  0  0  0  0  0  0
  148.8276  141.3985  154.6593 C   0  0  0  0  0  0  0  0  0  0  0  0
  148.1148  142.5300  154.5903 N   0  3  0  0  0  0  0  0  0  0  0  0
  146.9040  142.2971  153.9971 C   0  0  0  0  0  0  0  0  0  0  0  0
  146.8756  140.9628  153.6876 C   0  0  0  0  0  0  0  0  0  0  0  0
  148.0717  140.4361  154.1032 N   0  0  0  0  0  0  0  0  0  0  0  0
  148.4950  139.0401  153.9754 C   0  0  0  0  0  0  0  0  0  0  0  0
  152.1760  146.1263  159.2358 H   0  0  0  0  0  0  0  0  0  0  0  0
  151.8427  146.4277  160.9360 H   0  0  0  0  0  0  0  0  0  0  0  0
  150.5483  145.8618  159.8952 H   0  0  0  0  0  0  0  0  0  0  0  0
  152.3266  144.7380  162.4526 H   0  0  0  0  0  0  0  0  0  0  0  0
  153.6094  142.7108  162.8131 H   0  0  0  0  0  0  0  0  0  0  0  0
  151.9759  142.1097  162.5929 H   0  0  0  0  0  0  0  0  0  0  0  0
  154.2336  142.2054  160.5313 H   0  0  0  0  0  0  0  0  0  0  0  0
  153.4723  140.7770  161.1889 H   0  0  0  0  0  0  0  0  0  0  0  0
  151.3294  141.4206  160.1291 H   0  0  0  0  0  0  0  0  0  0  0  0
  153.6551  141.3132  158.1425 H   0  0  0  0  0  0  0  0  0  0  0  0
  151.9962  140.8409  157.7939 H   0  0  0  0  0  0  0  0  0  0  0  0
  152.9374  139.9265  158.9502 H   0  0  0  0  0  0  0  0  0  0  0  0
  152.7683  143.5931  158.5945 H   0  0  0  0  0  0  0  0  0  0  0  0
  149.8679  142.7047  158.9087 H   0  0  0  0  0  0  0  0  0  0  0  0
  150.2293  144.3544  158.4721 H   0  0  0  0  0  0  0  0  0  0  0  0
  150.3402  143.5568  156.4693 H   0  0  0  0  0  0  0  0  0  0  0  0
  150.8237  140.7942  157.2870 H   0  0  0  0  0  0  0  0  0  0  0  0
  149.2220  141.4956  157.1908 H   0  0  0  0  0  0  0  0  0  0  0  0
  150.8507  141.9551  154.7305 H   0  0  0  0  0  0  0  0  0  0  0  0
  150.5482  140.2596  155.0557 H   0  0  0  0  0  0  0  0  0  0  0  0
  146.1731  143.0776  153.8423 H   0  0  0  0  0  0  0  0  0  0  0  0
  146.1114  140.3652  153.2115 H   0  0  0  0  0  0  0  0  0  0  0  0
  147.7721  138.4955  153.3669 H   0  0  0  0  0  0  0  0  0  0  0  0
  148.5457  138.5840  154.9637 H   0  0  0  0  0  0  0  0  0  0  0  0
  149.4714  138.9958  153.4924 H   0  0  0  0  0  0  0  0  0  0  0  0
  151.7870  142.8780  156.8436 H   0  0  0  0  0  0  0  0  0  0  0  0
  148.4308  143.4331  154.9213 H   0  0  0  0  0  0  0  0  0  0  0  0
  1  2  1  0  0  0  0
  1 19  1  0  0  0  0
  1 20  1  0  0  0  0
  1 21  1  0  0  0  0
  2  8  1  0  0  0  0
  2  3  2  0  0  0  0
  3  4  1  0  0  0  0
  3 22  1  0  0  0  0
  4  5  1  0  0  0  0
  4 23  1  0  0  0  0
  4 24  1  0  0  0  0
  5  6  1  0  0  0  0
  5 25  1  0  0  0  0
  5 26  1  0  0  0  0
  6  7  1  0  0  0  0
  6  8  1  0  0  0  0
  6 27  1  0  0  0  0
  7 28  1  0  0  0  0
  7 29  1  0  0  0  0
  7 30  1  0  0  0  0
  8  9  1  0  0  0  0
  8 31  1  0  0  0  0
  9 10  1  0  0  0  0
  9 32  1  0  0  0  0
  9 33  1  0  0  0  0
 10 11  1  0  0  0  0
 10 34  1  0  0  0  0
 10 44  1  0  0  0  0
 11 12  1  0  0  0  0
 11 35  1  0  0  0  0
 11 36  1  0  0  0  0
 12 13  1  0  0  0  0
 12 37  1  0  0  0  0
 12 38  1  0  0  0  0
 13 17  1  0  0  0  0
 13 14  2  0  0  0  0
 14 15  1  0  0  0  0
 14 45  1  0  0  0  0
 15 16  2  0  0  0  0
 15 39  1  0  0  0  0
 16 17  1  0  0  0  0
 16 40  1  0  0  0  0
 17 18  1  0  0  0  0
 18 41  1  0  0  0  0
 18 42  1  0  0  0  0
 18 43  1  0  0  0  0
M  CHG  1  10   1
M  CHG  1  14   1
M  END
> <s_m_source_file>
AV-unprocessed.smi

> <i_m_source_file_index>
3284

> <i_lp_mmshare_version>
43012

> <i_f3d_flags>
0

> <s_epik_input>
W0NIM11DMT1bQ0hdW0NIMl1bQ0gyXVtDQEBIXShbQ0gzXSlbQ0BIXTFbQ0gyXVtOSF1bQ0gyXVtDSDJdYzJuW2NIXVtjSF1uMltDSDNd

> <s_epik_cmdline>
J2VwaWtfcHl0aG9uJywgJy1waCcsICc3LjAnLCAnLXRuJywgJzgnLCAnLW1hJywgJzIwMCcsICctbWV0YWxfYmluZGluZycsICctaW1hZScsICc8aW5maWxlLm1hZT4nLCAnLW9tYWUnLCAnPG91dGZpbGUubWFlPic=

> <r_lp_tautomer_probability>
1

> <r_epik_Ionization_Penalty>
0.892846

> <r_epik_Ionization_Penalty_Charging>
0.00275802

> <r_epik_Ionization_Penalty_Neutral>
0.890088

> <r_epik_State_Penalty>
0.485211

> <r_epik_Charging_Adjusted_Penalty>
0.487969

> <i_epik_Tot_Q>
2

> <i_epik_Tot_abs_Q>
2

> <r_epik_Metal_State_Penalty>
4.22898

> <b_epik_Metal_Only>
0

> <s_lp_Force_Field>
OPLS_2005

> <r_lp_Energy>
25.617

> <b_lp_Chiralities_Consistent>
1

> <s_lp_Variant>
AV-unprocessed.smi:3284-6

> <Gold.Version>
5.8.1

> <Gold.Id.Protein>
6NUR|6NUR_protein|mol2

> <Gold.PLP.Fitness>
62.2702

> <Gold.PLP.PLP>
-49.0479

> <Gold.PLP.part.hbond>
-2.0000

> <Gold.PLP.part.metal>
0.0000

> <Gold.PLP.part.buried>
-5.3041

> <Gold.PLP.part.nonpolar>
-42.6275

> <Gold.PLP.part.repulsive>
0.2268

> <Gold.PLP.ligand.clash>
0.0000

> <Gold.PLP.ligand.torsion>
0.9481

> <Gold.PLP.Chemscore.Hbond>
4.0000

> <Gold.PLP.Chemscore.CHOScore>
0.9992

> <Gold.PLP.Chemscore.Metal>
0.0000

> <Gold.Chemscore.Hbonds>
donor molecule, donor type, donor heavy atom, donor atom, acceptor molecule, acceptor atom, score
      L1  H    10    34       P1  8028  2.00
      L1  H    14    45       P1  8028  1.95
      L1  C    16    40       P1 10175  0.98

> <Gold.PLP.Chemscore.Internal.Correction>
0.1209

> <Gold.Rescore>
     Score         DG    S(hbond)    S(metal)    S(lipo)     H(rot)  DE(clash)    DE(int)     intcor
     21.79     -23.02       1.98        0.00     130.56       1.70       0.33       0.90       ----

> <Gold.Chemscore.Fitness>
21.7933

> <Gold.Chemscore.DG>
-23.0198

> <Gold.Chemscore.ZeroCoef>
-5.4800

> <Gold.Chemscore.Hbond>
1.9809

> <Gold.Chemscore.Metal>
0.0000

> <Gold.Chemscore.Lipo>
130.5552

> <Gold.Chemscore.Internal_Hbond>
0.0000

> <Gold.Chemscore.DEClash>
0.3257

> <Gold.Chemscore.DEInternal>
0.9008

> <Gold.Chemscore.Rot>
1.6997

> <Gold.Chemscore.Internal.Correction>
   9.000000E+99

> <Gold.Chemscore.Hbonds>
donor molecule, donor type, donor heavy atom, donor atom, acceptor molecule, acceptor atom, score
      L1  H    10    34       P1  8028  0.94
      L1  H    14    45       P1  8028  0.92

> <Gold.Chemscore.Hbond.Weighted>
-6.6161

> <Gold.Chemscore.Metal.Weighted>
-0.0000

> <Gold.Chemscore.Lipo.Weighted>
-15.2750

> <Gold.Chemscore.Internal_Hbond.Weighted>
0.0000

> <Gold.Chemscore.DEClash.Weighted>
0.3257

> <Gold.Chemscore.DEInternal.Weighted>
0.9008

> <Gold.Chemscore.Rot.Weighted>
4.3512

> <Gold.Chemscore.Internal.Correction.Weighted>
   9.000000E+99

> <Gold.Protein.RotatedTorsions>
[ 6907 6896 6895 6894 ] final -156.37 input  -60.11 | X-H torsion
[ 7974 7965 7964 7962 ] final   49.87 input  175.53 | X-H torsion
[ 8008 7997 7996 7995 ] final  -94.00 input   59.86 | X-H torsion
[ 10167 10162 10161 10158 ] final   34.03 input  -65.29 | X-H torsion
[ 10718 10713 10712 10709 ] final -175.44 input   66.30 | X-H torsion
[ 10763 10752 10751 10750 ] final   76.20 input  -60.55 | X-H torsion
[ 11005 11000 10999 10996 ] final -173.92 input  -57.11 | X-H torsion

> <Gold.Protein.ActiveResidues>
 VAL166  LYS551  ARG553  GLY616  TRP617  ASP618  TYR619  PRO620  LYS621  CYS622 
 ASP623  PHE694  ASN695  SER759  ASP760  ASP761  ALA762  ILE779  LEU786  VAL792 
 PHE793  MET794  SER795  GLU796  ALA797  LYS798  CYS799  TRP800  GLU811  SER814 

> <Gold.Protein.RotatedAtoms>
  151.2866  133.4185  159.2630 H   0  0  0  0  0  0  0  0  0  0  0  0  # atno 6907 bound_to 6896
  151.0314  134.9542  159.8123 H   0  0  0  0  0  0  0  0  0  0  0  0  # atno 6908 bound_to 6896
  152.5346  134.2827  159.9066 H   0  0  0  0  0  0  0  0  0  0  0  0  # atno 6909 bound_to 6896
  146.0067  139.4497  142.9982 H   0  0  0  0  0  0  0  0  0  0  0  0  # atno 7974 bound_to 7965
  154.7429  140.0493  157.0826 H   0  0  0  0  0  0  0  0  0  0  0  0  # atno 8008 bound_to 7997
  155.0156  140.3141  155.4794 H   0  0  0  0  0  0  0  0  0  0  0  0  # atno 8009 bound_to 7997
  156.2868  140.2176  156.5272 H   0  0  0  0  0  0  0  0  0  0  0  0  # atno 8010 bound_to 7997
  140.4353  144.1266  150.6165 H   0  0  0  0  0  0  0  0  0  0  0  0  # atno 10167 bound_to 10162
  156.7999  130.9548  151.3119 H   0  0  0  0  0  0  0  0  0  0  0  0  # atno 10718 bound_to 10713
  153.0708  135.4960  154.8300 H   0  0  0  0  0  0  0  0  0  0  0  0  # atno 10763 bound_to 10752
  154.7020  135.3003  154.9330 H   0  0  0  0  0  0  0  0  0  0  0  0  # atno 10764 bound_to 10752
  154.0050  135.6761  153.4814 H   0  0  0  0  0  0  0  0  0  0  0  0  # atno 10765 bound_to 10752
  140.4803  134.6082  157.4916 H   0  0  0  0  0  0  0  0  0  0  0  0  # atno 11005 bound_to 11000
  145.7406  141.0009  143.1303 LP  0  0  0  0  0  0  0  0  0  0  0  0  # atno 17320 bound_to 7965
  144.6938  139.9094  143.7462 LP  0  0  0  0  0  0  0  0  0  0  0  0  # atno 17321 bound_to 7965
  140.4381  143.2538  151.9509 LP  0  0  0  0  0  0  0  0  0  0  0  0  # atno 17342 bound_to 10162
  139.4786  144.5681  151.8133 LP  0  0  0  0  0  0  0  0  0  0  0  0  # atno 17343 bound_to 10162
  157.6559  130.8924  149.9727 LP  0  0  0  0  0  0  0  0  0  0  0  0  # atno 17370 bound_to 10713
  156.1107  130.3650  150.0054 LP  0  0  0  0  0  0  0  0  0  0  0  0  # atno 17371 bound_to 10713
  139.9831  134.7106  155.9824 LP  0  0  0  0  0  0  0  0  0  0  0  0  # atno 17394 bound_to 11000
  141.1534  133.6545  156.4086 LP  0  0  0  0  0  0  0  0  0  0  0  0  # atno 17395 bound_to 11000

$$$$
