AV-unprocessed.smi:196|AV-procd|sdf|1540|dock3
  -GOLD-   2262019393D 1   1.00000     0.00000
 Structure written by MMmdl.
 47 50  0  0  0  0  0  0  0  0  1 V2000
  143.1594  134.0480  152.5389 C   0  0  0  0  0  0  0  0  0  0  0  0
  144.3088  134.1341  151.5227 C   0  0  2  0  0  0  0  0  0  0  0  0
  145.1055  132.9623  151.6795 O   0  0  0  0  0  0  0  0  0  0  0  0
  146.4531  133.2764  151.3759 C   0  0  0  0  0  0  0  0  0  0  0  0
  146.6148  134.6567  151.9936 C   0  0  0  0  0  0  0  0  0  0  0  0
  145.2863  135.3348  151.6711 C   0  0  1  0  0  0  0  0  0  0  0  0
  145.4095  135.9465  150.3973 O   0  0  0  0  0  0  0  0  0  0  0  0
  144.8837  136.4324  152.6916 C   0  0  0  0  0  0  0  0  0  0  0  0
  145.9635  137.3582  153.0012 N   0  0  0  0  0  0  0  0  0  0  0  0
  146.1672  138.6025  152.4461 C   0  0  0  0  0  0  0  0  0  0  0  0
  147.2145  139.2461  152.8856 N   0  0  0  0  0  0  0  0  0  0  0  0
  147.7703  138.3808  153.8183 C   0  0  0  0  0  0  0  0  0  0  0  0
  148.9131  138.4397  154.6568 C   0  0  0  0  0  0  0  0  0  0  0  0
  149.7298  139.5178  154.6692 N   0  0  0  0  0  0  0  0  0  0  0  0
  149.0582  140.7875  154.9298 C   0  0  0  0  0  0  0  0  0  0  0  0
  149.9006  141.5095  155.9826 C   0  0  1  0  0  0  0  0  0  0  0  0
  149.4335  141.2212  157.1986 F   0  0  0  0  0  0  0  0  0  0  0  0
  151.2826  140.8903  155.8066 C   0  0  0  0  0  0  0  0  0  0  0  0
  150.9699  139.4301  155.4504 C   0  0  2  0  0  0  0  0  0  0  0  0
  152.1418  138.7611  154.7077 C   0  0  0  0  0  0  0  0  0  0  0  0
  151.9469  137.5688  154.1340 N   0  0  0  0  0  0  0  0  0  0  0  0
  153.2323  139.3257  154.6594 O   0  0  0  0  0  0  0  0  0  0  0  0
  149.1590  137.3831  155.4744 N   0  0  0  0  0  0  0  0  0  0  0  0
  148.3391  136.3276  155.4634 C   0  0  0  0  0  0  0  0  0  0  0  0
  147.2409  136.1304  154.7300 N   0  0  0  0  0  0  0  0  0  0  0  0
  146.9934  137.1929  153.9109 C   0  0  0  0  0  0  0  0  0  0  0  0
  149.8915  142.5942  155.8745 H   0  0  0  0  0  0  0  0  0  0  0  0
  150.7997  138.8784  156.3764 H   0  0  0  0  0  0  0  0  0  0  0  0
  142.4958  134.9096  152.4656 H   0  0  0  0  0  0  0  0  0  0  0  0
  143.5330  133.9884  153.5614 H   0  0  0  0  0  0  0  0  0  0  0  0
  142.5567  133.1573  152.3604 H   0  0  0  0  0  0  0  0  0  0  0  0
  143.8816  134.1122  150.5182 H   0  0  0  0  0  0  0  0  0  0  0  0
  147.1418  132.5422  151.7939 H   0  0  0  0  0  0  0  0  0  0  0  0
  146.5919  133.3084  150.2942 H   0  0  0  0  0  0  0  0  0  0  0  0
  146.7254  134.5429  153.0725 H   0  0  0  0  0  0  0  0  0  0  0  0
  147.4887  135.1954  151.6243 H   0  0  0  0  0  0  0  0  0  0  0  0
  145.5979  135.2753  149.7594 H   0  0  0  0  0  0  0  0  0  0  0  0
  144.0390  137.0110  152.3157 H   0  0  0  0  0  0  0  0  0  0  0  0
  144.5562  135.9822  153.6290 H   0  0  0  0  0  0  0  0  0  0  0  0
  145.5124  139.0179  151.6941 H   0  0  0  0  0  0  0  0  0  0  0  0
  149.0532  141.3559  153.9993 H   0  0  0  0  0  0  0  0  0  0  0  0
  148.0198  140.6779  155.2496 H   0  0  0  0  0  0  0  0  0  0  0  0
  151.8016  141.3872  154.9847 H   0  0  0  0  0  0  0  0  0  0  0  0
  151.9027  140.9850  156.6989 H   0  0  0  0  0  0  0  0  0  0  0  0
  152.7053  137.1173  153.6427 H   0  0  0  0  0  0  0  0  0  0  0  0
  151.0422  137.1246  154.1936 H   0  0  0  0  0  0  0  0  0  0  0  0
  148.5999  135.5266  156.1392 H   0  0  0  0  0  0  0  0  0  0  0  0
  1  2  1  0  0  0  0
  1 29  1  0  0  0  0
  1 30  1  0  0  0  0
  1 31  1  0  0  0  0
  2  6  1  0  0  0  0
  2  3  1  0  0  0  0
  2 32  1  0  0  0  0
  3  4  1  0  0  0  0
  4  5  1  0  0  0  0
  4 33  1  0  0  0  0
  4 34  1  0  0  0  0
  5  6  1  0  0  0  0
  5 35  1  0  0  0  0
  5 36  1  0  0  0  0
  6  7  1  0  0  0  0
  6  8  1  0  0  0  0
  7 37  1  0  0  0  0
  8  9  1  0  0  0  0
  8 38  1  0  0  0  0
  8 39  1  0  0  0  0
  9 26  1  0  0  0  0
  9 10  1  0  0  0  0
 10 11  2  0  0  0  0
 10 40  1  0  0  0  0
 11 12  1  0  0  0  0
 12 26  2  0  0  0  0
 12 13  1  0  0  0  0
 13 14  1  0  0  0  0
 13 23  2  0  0  0  0
 14 19  1  0  0  0  0
 14 15  1  0  0  0  0
 15 16  1  0  0  0  0
 15 41  1  0  0  0  0
 15 42  1  0  0  0  0
 16 27  1  0  0  0  0
 16 17  1  0  0  0  0
 16 18  1  0  0  0  0
 18 19  1  0  0  0  0
 18 43  1  0  0  0  0
 18 44  1  0  0  0  0
 19 28  1  0  0  0  0
 19 20  1  0  0  0  0
 20 21  1  0  0  0  0
 20 22  2  0  0  0  0
 21 45  1  0  0  0  0
 21 46  1  0  0  0  0
 23 24  1  0  0  0  0
 24 25  2  0  0  0  0
 24 47  1  0  0  0  0
 25 26  1  0  0  0  0
M  END
> <s_m_source_file>
AV-unprocessed.smi

> <i_m_source_file_index>
196

> <i_lp_mmshare_version>
43012

> <i_f3d_flags>
0

> <s_epik_input>
W0NIMl0xW0NIMl1PW0NAQEhdKFtDSDNdKVtDQEBdMShbT0hdKVtDSDJdbihbY0hdbjIpYyhjMjMpbltjSF1uYzNONFtDSDJdW0NASF0oRilbQ0gyXVtDQEhdNEMoPU8pW05IMl0=

> <s_epik_cmdline>
J2VwaWtfcHl0aG9uJywgJy1waCcsICc3LjAnLCAnLXRuJywgJzgnLCAnLW1hJywgJzIwMCcsICctbWV0YWxfYmluZGluZycsICctaW1hZScsICc8aW5maWxlLm1hZT4nLCAnLW9tYWUnLCAnPG91dGZpbGUubWFlPic=

> <r_lp_tautomer_probability>
1

> <r_epik_Ionization_Penalty>
0.000857933

> <r_epik_Ionization_Penalty_Charging>
0

> <r_epik_Ionization_Penalty_Neutral>
0.000857933

> <r_epik_State_Penalty>
0.000462053

> <r_epik_Charging_Adjusted_Penalty>
0.000462053

> <i_epik_Tot_Q>
0

> <i_epik_Tot_abs_Q>
0

> <r_epik_Metal_State_Penalty>
-0

> <b_epik_Metal_Only>
0

> <s_lp_Force_Field>
OPLS_2005

> <r_lp_Energy>
46.05

> <b_lp_Chiralities_Consistent>
1

> <s_lp_Variant>
AV-unprocessed.smi:196-13

> <Gold.Version>
5.8.1

> <Gold.Id.Protein>
6NUR|6NUR_protein|mol2

> <Gold.PLP.Fitness>
43.5080

> <Gold.PLP.PLP>
-33.7760

> <Gold.PLP.part.hbond>
-4.4349

> <Gold.PLP.part.metal>
0.0000

> <Gold.PLP.part.buried>
-1.2101

> <Gold.PLP.part.nonpolar>
-32.1431

> <Gold.PLP.part.repulsive>
2.4482

> <Gold.PLP.ligand.clash>
0.0000

> <Gold.PLP.ligand.torsion>
0.6984

> <Gold.PLP.Chemscore.Hbond>
1.9913

> <Gold.PLP.Chemscore.CHOScore>
1.6636

> <Gold.PLP.Chemscore.Metal>
0.0000

> <Gold.Chemscore.Hbonds>
donor molecule, donor type, donor heavy atom, donor atom, acceptor molecule, acceptor atom, score
      L1  H     7    37       P1  7921  0.45
      P1  H  7997  8010       L1    22  1.00
      L1  C    10    40       P1 10171  1.00
      L1  C    10    40       P1 10175  0.77

> <Gold.PLP.Chemscore.Internal.Correction>
0.1643

> <Gold.Rescore>
     Score         DG    S(hbond)    S(metal)    S(lipo)     H(rot)  DE(clash)    DE(int)     intcor
      6.42     -10.95       1.85        0.00      60.63       3.04       3.67       0.87       ----

> <Gold.Chemscore.Fitness>
6.4167

> <Gold.Chemscore.DG>
-10.9542

> <Gold.Chemscore.ZeroCoef>
-5.4800

> <Gold.Chemscore.Hbond>
1.8461

> <Gold.Chemscore.Metal>
0.0000

> <Gold.Chemscore.Lipo>
60.6318

> <Gold.Chemscore.Internal_Hbond>
0.0000

> <Gold.Chemscore.DEClash>
3.6700

> <Gold.Chemscore.DEInternal>
0.8675

> <Gold.Chemscore.Rot>
3.0413

> <Gold.Chemscore.Internal.Correction>
   9.000000E+99

> <Gold.Chemscore.Hbonds>
donor molecule, donor type, donor heavy atom, donor atom, acceptor molecule, acceptor atom, score
      L1  H     7    37       P1  7921  0.44
      P1  H  7997  8010       L1    22  0.98

> <Gold.Chemscore.Hbond.Weighted>
-6.1659

> <Gold.Chemscore.Metal.Weighted>
-0.0000

> <Gold.Chemscore.Lipo.Weighted>
-7.0939

> <Gold.Chemscore.Internal_Hbond.Weighted>
0.0000

> <Gold.Chemscore.DEClash.Weighted>
3.6700

> <Gold.Chemscore.DEInternal.Weighted>
0.8675

> <Gold.Chemscore.Rot.Weighted>
7.7856

> <Gold.Chemscore.Internal.Correction.Weighted>
   9.000000E+99

> <Gold.Protein.RotatedTorsions>
[ 6907 6896 6895 6894 ] final   81.96 input  -60.11 | X-H torsion
[ 7974 7965 7964 7962 ] final  -15.84 input  175.53 | X-H torsion
[ 8008 7997 7996 7995 ] final   98.54 input   59.86 | X-H torsion
[ 10167 10162 10161 10158 ] final  160.20 input  -65.29 | X-H torsion
[ 10718 10713 10712 10709 ] final  -92.89 input   66.30 | X-H torsion
[ 10763 10752 10751 10750 ] final  -59.14 input  -60.55 | X-H torsion
[ 11005 11000 10999 10996 ] final  125.05 input  -57.11 | X-H torsion

> <Gold.Protein.ActiveResidues>
 VAL166  LYS551  ARG553  GLY616  TRP617  ASP618  TYR619  PRO620  LYS621  CYS622 
 ASP623  PHE694  ASN695  SER759  ASP760  ASP761  ALA762  ILE779  LEU786  VAL792 
 PHE793  MET794  SER795  GLU796  ALA797  LYS798  CYS799  TRP800  GLU811  SER814 

> <Gold.Protein.RotatedAtoms>
  152.5284  134.3124  159.9118 H   0  0  0  0  0  0  0  0  0  0  0  0  # atno 6907 bound_to 6896
  151.3073  133.4089  159.2652 H   0  0  0  0  0  0  0  0  0  0  0  0  # atno 6908 bound_to 6896
  151.0068  134.9382  159.8042 H   0  0  0  0  0  0  0  0  0  0  0  0  # atno 6909 bound_to 6896
  146.2014  140.3551  142.8422 H   0  0  0  0  0  0  0  0  0  0  0  0  # atno 7974 bound_to 7965
  156.1015  140.3242  155.7948 H   0  0  0  0  0  0  0  0  0  0  0  0  # atno 8008 bound_to 7997
  155.4829  140.0555  157.2982 H   0  0  0  0  0  0  0  0  0  0  0  0  # atno 8009 bound_to 7997
  154.4700  140.2007  156.0035 H   0  0  0  0  0  0  0  0  0  0  0  0  # atno 8010 bound_to 7997
  139.4838  144.4657  151.8644 H   0  0  0  0  0  0  0  0  0  0  0  0  # atno 10167 bound_to 10162
  156.0007  130.5005  150.5693 H   0  0  0  0  0  0  0  0  0  0  0  0  # atno 10718 bound_to 10713
  154.2490  135.6329  153.5233 H   0  0  0  0  0  0  0  0  0  0  0  0  # atno 10763 bound_to 10752
  152.9916  135.5560  154.5828 H   0  0  0  0  0  0  0  0  0  0  0  0  # atno 10764 bound_to 10752
  154.5351  135.2891  155.1120 H   0  0  0  0  0  0  0  0  0  0  0  0  # atno 10765 bound_to 10752
  139.9388  134.9637  156.8500 H   0  0  0  0  0  0  0  0  0  0  0  0  # atno 11005 bound_to 11000
  144.8692  140.7249  143.6058 LP  0  0  0  0  0  0  0  0  0  0  0  0  # atno 17320 bound_to 7965
  145.3470  139.1716  143.4455 LP  0  0  0  0  0  0  0  0  0  0  0  0  # atno 17321 bound_to 7965
  140.4122  144.2353  150.5888 LP  0  0  0  0  0  0  0  0  0  0  0  0  # atno 17342 bound_to 10162
  140.4955  143.2334  151.8756 LP  0  0  0  0  0  0  0  0  0  0  0  0  # atno 17343 bound_to 10162
  157.3590  131.0746  151.1651 LP  0  0  0  0  0  0  0  0  0  0  0  0  # atno 17370 bound_to 10713
  157.2442  130.6584  149.5903 LP  0  0  0  0  0  0  0  0  0  0  0  0  # atno 17371 bound_to 10713
  140.6006  134.0175  155.7536 LP  0  0  0  0  0  0  0  0  0  0  0  0  # atno 17394 bound_to 11000
  141.1013  133.9763  157.3073 LP  0  0  0  0  0  0  0  0  0  0  0  0  # atno 17395 bound_to 11000

$$$$
