AV-unprocessed.smi:420|AV-procd|sdf|2533|dock3
  -GOLD-   2262022493D 1   1.00000     0.00000
 Structure written by MMmdl.
 36 38  0  0  0  0  0  0  0  0  1 V2000
  150.6058  141.4710  156.8123 C   0  0  0  0  0  0  0  0  0  0  0  0
  151.5133  141.7359  157.9223 N   0  0  0  0  0  0  0  0  0  0  0  0
  152.5129  140.9394  158.3676 C   0  0  0  0  0  0  0  0  0  0  0  0
  152.8292  139.8439  157.9037 O   0  0  0  0  0  0  0  0  0  0  0  0
  153.1117  141.5615  159.4111 N   0  0  0  0  0  0  0  0  0  0  0  0
  154.2422  141.0582  160.1902 C   0  0  0  0  0  0  0  0  0  0  0  0
  154.1054  139.5531  160.4945 C   0  0  1  0  0  0  0  0  0  0  0  0
  154.8277  138.8278  159.5186 O   0  0  0  0  0  0  0  0  0  0  0  0
  154.5916  139.2360  161.9007 C   0  0  0  0  0  0  0  0  0  0  0  0
  154.4466  137.9388  162.4416 C   0  0  0  0  0  0  0  0  0  0  0  0
  154.9100  137.6555  163.7412 C   0  0  0  0  0  0  0  0  0  0  0  0
  155.5252  138.6653  164.5060 C   0  0  0  0  0  0  0  0  0  0  0  0
  155.9728  138.3920  165.7543 F   0  0  0  0  0  0  0  0  0  0  0  0
  155.6764  139.9587  163.9704 C   0  0  0  0  0  0  0  0  0  0  0  0
  155.2116  140.2429  162.6715 C   0  0  0  0  0  0  0  0  0  0  0  0
  152.4822  142.7951  159.6333 C   0  0  0  0  0  0  0  0  0  0  0  0
  152.7311  143.8085  160.5756 C   0  0  0  0  0  0  0  0  0  0  0  0
  151.8994  144.9521  160.5305 C   0  0  0  0  0  0  0  0  0  0  0  0
  150.8619  145.0596  159.5680 C   0  0  0  0  0  0  0  0  0  0  0  0
  150.6354  144.0265  158.6285 C   0  0  0  0  0  0  0  0  0  0  0  0
  151.4757  142.9023  158.6966 C   0  0  0  0  0  0  0  0  0  0  0  0
  150.7901  140.4985  156.3540 H   0  0  0  0  0  0  0  0  0  0  0  0
  150.7215  142.2337  156.0419 H   0  0  0  0  0  0  0  0  0  0  0  0
  149.5724  141.4893  157.1589 H   0  0  0  0  0  0  0  0  0  0  0  0
  155.1918  141.2775  159.7007 H   0  0  0  0  0  0  0  0  0  0  0  0
  154.2616  141.6158  161.1285 H   0  0  0  0  0  0  0  0  0  0  0  0
  153.0597  139.2511  160.4211 H   0  0  0  0  0  0  0  0  0  0  0  0
  155.7166  139.1482  159.5059 H   0  0  0  0  0  0  0  0  0  0  0  0
  153.9818  137.1552  161.8613 H   0  0  0  0  0  0  0  0  0  0  0  0
  154.7951  136.6628  164.1506 H   0  0  0  0  0  0  0  0  0  0  0  0
  156.1502  140.7333  164.5553 H   0  0  0  0  0  0  0  0  0  0  0  0
  155.3358  141.2374  162.2683 H   0  0  0  0  0  0  0  0  0  0  0  0
  153.5243  143.7250  161.3035 H   0  0  0  0  0  0  0  0  0  0  0  0
  152.0568  145.7537  161.2370 H   0  0  0  0  0  0  0  0  0  0  0  0
  150.2387  145.9416  159.5514 H   0  0  0  0  0  0  0  0  0  0  0  0
  149.8499  144.1011  157.8911 H   0  0  0  0  0  0  0  0  0  0  0  0
  1  2  1  0  0  0  0
  1 22  1  0  0  0  0
  1 23  1  0  0  0  0
  1 24  1  0  0  0  0
  2 21  1  0  0  0  0
  2  3  1  0  0  0  0
  3  4  2  0  0  0  0
  3  5  1  0  0  0  0
  5  6  1  0  0  0  0
  5 16  1  0  0  0  0
  6  7  1  0  0  0  0
  6 25  1  0  0  0  0
  6 26  1  0  0  0  0
  7  8  1  0  0  0  0
  7  9  1  0  0  0  0
  7 27  1  0  0  0  0
  8 28  1  0  0  0  0
  9 15  1  0  0  0  0
  9 10  2  0  0  0  0
 10 11  1  0  0  0  0
 10 29  1  0  0  0  0
 11 12  2  0  0  0  0
 11 30  1  0  0  0  0
 12 13  1  0  0  0  0
 12 14  1  0  0  0  0
 14 15  2  0  0  0  0
 14 31  1  0  0  0  0
 15 32  1  0  0  0  0
 16 21  2  0  0  0  0
 16 17  1  0  0  0  0
 17 18  2  0  0  0  0
 17 33  1  0  0  0  0
 18 19  1  0  0  0  0
 18 34  1  0  0  0  0
 19 20  2  0  0  0  0
 19 35  1  0  0  0  0
 20 21  1  0  0  0  0
 20 36  1  0  0  0  0
M  END
> <s_m_source_file>
AV-unprocessed.smi

> <i_m_source_file_index>
420

> <i_lp_mmshare_version>
43012

> <i_f3d_flags>
0

> <s_epik_input>
W2NIXTFbY0hdW2NIXVtjSF1jKGMxMiluKFtDSDNdKWMoPU8pbjJbQ0gyXVtDQEhdKFtPSF0pYzNbY0hdW2NIXWMoRilbY0hdW2NIXTM=

> <s_epik_cmdline>
J2VwaWtfcHl0aG9uJywgJy1waCcsICc3LjAnLCAnLXRuJywgJzgnLCAnLW1hJywgJzIwMCcsICctbWV0YWxfYmluZGluZycsICctaW1hZScsICc8aW5maWxlLm1hZT4nLCAnLW9tYWUnLCAnPG91dGZpbGUubWFlPic=

> <r_lp_tautomer_probability>
1

> <r_epik_Ionization_Penalty>
1.79795e-06

> <r_epik_Ionization_Penalty_Charging>
2.57375e-09

> <r_epik_Ionization_Penalty_Neutral>
1.79538e-06

> <r_epik_State_Penalty>
-0

> <r_epik_Charging_Adjusted_Penalty>
2.57375e-09

> <i_epik_Tot_Q>
0

> <i_epik_Tot_abs_Q>
0

> <r_epik_Metal_State_Penalty>
-0

> <b_epik_Metal_Only>
0

> <s_lp_Force_Field>
OPLS_2005

> <r_lp_Energy>
43.03

> <b_lp_Chiralities_Consistent>
1

> <s_lp_Variant>
AV-unprocessed.smi:420-2

> <Gold.Version>
5.8.1

> <Gold.Id.Protein>
6NUR|6NUR_protein|mol2

> <Gold.PLP.Fitness>
48.0336

> <Gold.PLP.PLP>
-46.6690

> <Gold.PLP.part.hbond>
-1.0000

> <Gold.PLP.part.metal>
0.0000

> <Gold.PLP.part.buried>
-5.7736

> <Gold.PLP.part.nonpolar>
-39.6747

> <Gold.PLP.part.repulsive>
0.0000

> <Gold.PLP.ligand.clash>
0.0000

> <Gold.PLP.ligand.torsion>
0.8283

> <Gold.PLP.Chemscore.Hbond>
1.0000

> <Gold.PLP.Chemscore.CHOScore>
0.0000

> <Gold.PLP.Chemscore.Metal>
0.0000

> <Gold.Chemscore.Hbonds>
donor molecule, donor type, donor heavy atom, donor atom, acceptor molecule, acceptor atom, score
      P1  H  7997  8008       L1     4  1.00

> <Gold.PLP.Chemscore.Internal.Correction>
0.0212

> <Gold.Rescore>
     Score         DG    S(hbond)    S(metal)    S(lipo)     H(rot)  DE(clash)    DE(int)     intcor
     17.05     -19.14       0.93        0.00     130.66       1.85       0.06       2.03       ----

> <Gold.Chemscore.Fitness>
17.0527

> <Gold.Chemscore.DG>
-19.1404

> <Gold.Chemscore.ZeroCoef>
-5.4800

> <Gold.Chemscore.Hbond>
0.9282

> <Gold.Chemscore.Metal>
0.0000

> <Gold.Chemscore.Lipo>
130.6602

> <Gold.Chemscore.Internal_Hbond>
0.0000

> <Gold.Chemscore.DEClash>
0.0554

> <Gold.Chemscore.DEInternal>
2.0323

> <Gold.Chemscore.Rot>
1.8465

> <Gold.Chemscore.Internal.Correction>
   9.000000E+99

> <Gold.Chemscore.Hbonds>
donor molecule, donor type, donor heavy atom, donor atom, acceptor molecule, acceptor atom, score
      P1  H  7997  8008       L1     4  0.64

> <Gold.Chemscore.Hbond.Weighted>
-3.1002

> <Gold.Chemscore.Metal.Weighted>
-0.0000

> <Gold.Chemscore.Lipo.Weighted>
-15.2872

> <Gold.Chemscore.Internal_Hbond.Weighted>
0.0000

> <Gold.Chemscore.DEClash.Weighted>
0.0554

> <Gold.Chemscore.DEInternal.Weighted>
2.0323

> <Gold.Chemscore.Rot.Weighted>
4.7270

> <Gold.Chemscore.Internal.Correction.Weighted>
   9.000000E+99

> <Gold.Protein.RotatedTorsions>
[ 6907 6896 6895 6894 ] final -122.71 input  -60.11 | X-H torsion
[ 7974 7965 7964 7962 ] final   67.28 input  175.53 | X-H torsion
[ 8008 7997 7996 7995 ] final  -76.25 input   59.86 | X-H torsion
[ 10167 10162 10161 10158 ] final    1.86 input  -65.29 | X-H torsion
[ 10718 10713 10712 10709 ] final   10.73 input   66.30 | X-H torsion
[ 10763 10752 10751 10750 ] final  -65.80 input  -60.55 | X-H torsion
[ 11005 11000 10999 10996 ] final  -35.05 input  -57.11 | X-H torsion

> <Gold.Protein.ActiveResidues>
 VAL166  LYS551  ARG553  GLY616  TRP617  ASP618  TYR619  PRO620  LYS621  CYS622 
 ASP623  PHE694  ASN695  SER759  ASP760  ASP761  ALA762  ILE779  LEU786  VAL792 
 PHE793  MET794  SER795  GLU796  ALA797  LYS798  CYS799  TRP800  GLU811  SER814 

> <Gold.Protein.RotatedAtoms>
  150.8602  133.7656  159.2994 H   0  0  0  0  0  0  0  0  0  0  0  0  # atno 6907 bound_to 6896
  151.5300  135.1066  159.9910 H   0  0  0  0  0  0  0  0  0  0  0  0  # atno 6908 bound_to 6896
  152.4620  133.7798  159.6900 H   0  0  0  0  0  0  0  0  0  0  0  0  # atno 6909 bound_to 6896
  145.8165  139.3061  143.1068 H   0  0  0  0  0  0  0  0  0  0  0  0  # atno 7974 bound_to 7965
  154.5489  140.0730  156.8634 H   0  0  0  0  0  0  0  0  0  0  0  0  # atno 8008 bound_to 7997
  155.3033  140.3385  155.4228 H   0  0  0  0  0  0  0  0  0  0  0  0  # atno 8009 bound_to 7997
  156.1943  140.1697  156.8016 H   0  0  0  0  0  0  0  0  0  0  0  0  # atno 8010 bound_to 7997
  140.6663  143.7171  150.7833 H   0  0  0  0  0  0  0  0  0  0  0  0  # atno 10167 bound_to 10162
  156.9853  130.6021  149.5680 H   0  0  0  0  0  0  0  0  0  0  0  0  # atno 10718 bound_to 10713
  154.3503  135.6138  153.5639 H   0  0  0  0  0  0  0  0  0  0  0  0  # atno 10763 bound_to 10752
  152.9798  135.5791  154.4751 H   0  0  0  0  0  0  0  0  0  0  0  0  # atno 10764 bound_to 10752
  154.4471  135.2852  155.1785 H   0  0  0  0  0  0  0  0  0  0  0  0  # atno 10765 bound_to 10752
  140.9766  133.7080  156.1612 H   0  0  0  0  0  0  0  0  0  0  0  0  # atno 11005 bound_to 11000
  145.9721  140.8752  143.0157 LP  0  0  0  0  0  0  0  0  0  0  0  0  # atno 17320 bound_to 7965
  144.6752  140.1960  143.7392 LP  0  0  0  0  0  0  0  0  0  0  0  0  # atno 17321 bound_to 7965
  140.0849  143.4933  152.2510 LP  0  0  0  0  0  0  0  0  0  0  0  0  # atno 17342 bound_to 10162
  139.5913  144.7551  151.3395 LP  0  0  0  0  0  0  0  0  0  0  0  0  # atno 17343 bound_to 10162
  156.0228  130.5323  150.8324 LP  0  0  0  0  0  0  0  0  0  0  0  0  # atno 17370 bound_to 10713
  157.5497  131.0943  150.9712 LP  0  0  0  0  0  0  0  0  0  0  0  0  # atno 17371 bound_to 10713
  140.7250  134.4317  157.5571 LP  0  0  0  0  0  0  0  0  0  0  0  0  # atno 17394 bound_to 11000
  139.8933  134.8734  156.2231 LP  0  0  0  0  0  0  0  0  0  0  0  0  # atno 17395 bound_to 11000

$$$$
