AV-unprocessed.smi:196|AV-procd|sdf|1536|dock4
  -GOLD-   2262019393D 1   1.00000     0.00000
 Structure written by MMmdl.
 47 50  0  0  0  0  0  0  0  0  1 V2000
  149.1057  137.6824  157.6770 C   0  0  0  0  0  0  0  0  0  0  0  0
  150.3783  137.9252  156.8503 C   0  0  2  0  0  0  0  0  0  0  0  0
  150.0722  138.9061  155.8621 O   0  0  0  0  0  0  0  0  0  0  0  0
  150.8728  138.6703  154.7177 C   0  0  0  0  0  0  0  0  0  0  0  0
  150.8559  137.1532  154.6145 C   0  0  0  0  0  0  0  0  0  0  0  0
  150.9532  136.7078  156.0713 C   0  0  1  0  0  0  0  0  0  0  0  0
  152.3282  136.6000  156.4015 O   0  0  0  0  0  0  0  0  0  0  0  0
  150.2870  135.3341  156.3459 C   0  0  0  0  0  0  0  0  0  0  0  0
  149.1318  135.0706  155.5006 N   0  0  0  0  0  0  0  0  0  0  0  0
  148.0229  135.8696  155.3511 C   0  0  0  0  0  0  0  0  0  0  0  0
  147.1183  135.4129  154.5306 N   0  0  0  0  0  0  0  0  0  0  0  0
  147.6410  134.2111  154.0628 C   0  0  0  0  0  0  0  0  0  0  0  0
  147.1962  133.2053  153.1497 C   0  0  0  0  0  0  0  0  0  0  0  0
  146.0213  133.2275  152.4601 N   0  0  0  0  0  0  0  0  0  0  0  0
  145.5401  132.0775  151.6990 C   0  0  0  0  0  0  0  0  0  0  0  0
  144.2466  132.5395  151.0256 C   0  0  2  0  0  0  0  0  0  0  0  0
  144.5103  132.9783  149.7939 F   0  0  0  0  0  0  0  0  0  0  0  0
  143.7837  133.7002  151.9068 C   0  0  0  0  0  0  0  0  0  0  0  0
  145.0811  134.3483  152.4235 C   0  0  2  0  0  0  0  0  0  0  0  0
  145.5580  135.4914  151.5075 C   0  0  0  0  0  0  0  0  0  0  0  0
  146.6214  136.1847  151.9206 N   0  0  0  0  0  0  0  0  0  0  0  0
  144.9835  135.7493  150.4508 O   0  0  0  0  0  0  0  0  0  0  0  0
  148.0201  132.1401  152.9607 N   0  0  0  0  0  0  0  0  0  0  0  0
  149.1904  132.0569  153.5975 C   0  0  0  0  0  0  0  0  0  0  0  0
  149.7299  132.9149  154.4628 N   0  0  0  0  0  0  0  0  0  0  0  0
  148.9121  133.9855  154.6696 C   0  0  0  0  0  0  0  0  0  0  0  0
  143.5048  131.7458  150.9341 H   0  0  0  0  0  0  0  0  0  0  0  0
  144.9020  134.7337  153.4275 H   0  0  0  0  0  0  0  0  0  0  0  0
  149.2754  136.9469  158.4634 H   0  0  0  0  0  0  0  0  0  0  0  0
  148.2825  137.3334  157.0530 H   0  0  0  0  0  0  0  0  0  0  0  0
  148.7799  138.6042  158.1590 H   0  0  0  0  0  0  0  0  0  0  0  0
  151.1388  138.3488  157.5091 H   0  0  0  0  0  0  0  0  0  0  0  0
  150.4654  139.1590  153.8325 H   0  0  0  0  0  0  0  0  0  0  0  0
  151.8835  139.0441  154.8886 H   0  0  0  0  0  0  0  0  0  0  0  0
  149.8994  136.8449  154.1911 H   0  0  0  0  0  0  0  0  0  0  0  0
  151.6455  136.7548  153.9756 H   0  0  0  0  0  0  0  0  0  0  0  0
  152.5966  137.3989  156.8291 H   0  0  0  0  0  0  0  0  0  0  0  0
  151.0054  134.5267  156.1984 H   0  0  0  0  0  0  0  0  0  0  0  0
  149.9588  135.2686  157.3833 H   0  0  0  0  0  0  0  0  0  0  0  0
  147.9031  136.8051  155.8780 H   0  0  0  0  0  0  0  0  0  0  0  0
  146.2703  131.7320  150.9657 H   0  0  0  0  0  0  0  0  0  0  0  0
  145.3356  131.2581  152.3895 H   0  0  0  0  0  0  0  0  0  0  0  0
  143.1254  134.3920  151.3789 H   0  0  0  0  0  0  0  0  0  0  0  0
  143.2205  133.3042  152.7529 H   0  0  0  0  0  0  0  0  0  0  0  0
  146.9745  136.9481  151.3624 H   0  0  0  0  0  0  0  0  0  0  0  0
  147.0660  135.9444  152.7948 H   0  0  0  0  0  0  0  0  0  0  0  0
  149.7791  131.1776  153.3813 H   0  0  0  0  0  0  0  0  0  0  0  0
  1  2  1  0  0  0  0
  1 29  1  0  0  0  0
  1 30  1  0  0  0  0
  1 31  1  0  0  0  0
  2  6  1  0  0  0  0
  2  3  1  0  0  0  0
  2 32  1  0  0  0  0
  3  4  1  0  0  0  0
  4  5  1  0  0  0  0
  4 33  1  0  0  0  0
  4 34  1  0  0  0  0
  5  6  1  0  0  0  0
  5 35  1  0  0  0  0
  5 36  1  0  0  0  0
  6  7  1  0  0  0  0
  6  8  1  0  0  0  0
  7 37  1  0  0  0  0
  8  9  1  0  0  0  0
  8 38  1  0  0  0  0
  8 39  1  0  0  0  0
  9 26  1  0  0  0  0
  9 10  1  0  0  0  0
 10 11  2  0  0  0  0
 10 40  1  0  0  0  0
 11 12  1  0  0  0  0
 12 26  2  0  0  0  0
 12 13  1  0  0  0  0
 13 14  1  0  0  0  0
 13 23  2  0  0  0  0
 14 19  1  0  0  0  0
 14 15  1  0  0  0  0
 15 16  1  0  0  0  0
 15 41  1  0  0  0  0
 15 42  1  0  0  0  0
 16 27  1  0  0  0  0
 16 17  1  0  0  0  0
 16 18  1  0  0  0  0
 18 19  1  0  0  0  0
 18 43  1  0  0  0  0
 18 44  1  0  0  0  0
 19 28  1  0  0  0  0
 19 20  1  0  0  0  0
 20 21  1  0  0  0  0
 20 22  2  0  0  0  0
 21 45  1  0  0  0  0
 21 46  1  0  0  0  0
 23 24  1  0  0  0  0
 24 25  2  0  0  0  0
 24 47  1  0  0  0  0
 25 26  1  0  0  0  0
M  END
> <s_m_source_file>
AV-unprocessed.smi

> <i_m_source_file_index>
196

> <i_lp_mmshare_version>
43012

> <i_f3d_flags>
0

> <s_epik_input>
W0NIMl0xW0NIMl1PW0NAQEhdKFtDSDNdKVtDQEBdMShbT0hdKVtDSDJdbihbY0hdbjIpYyhjMjMpbltjSF1uYzNONFtDSDJdW0NASF0oRilbQ0gyXVtDQEhdNEMoPU8pW05IMl0=

> <s_epik_cmdline>
J2VwaWtfcHl0aG9uJywgJy1waCcsICc3LjAnLCAnLXRuJywgJzgnLCAnLW1hJywgJzIwMCcsICctbWV0YWxfYmluZGluZycsICctaW1hZScsICc8aW5maWxlLm1hZT4nLCAnLW9tYWUnLCAnPG91dGZpbGUubWFlPic=

> <r_lp_tautomer_probability>
1

> <r_epik_Ionization_Penalty>
0.000857933

> <r_epik_Ionization_Penalty_Charging>
0

> <r_epik_Ionization_Penalty_Neutral>
0.000857933

> <r_epik_State_Penalty>
0.000462053

> <r_epik_Charging_Adjusted_Penalty>
0.000462053

> <i_epik_Tot_Q>
0

> <i_epik_Tot_abs_Q>
0

> <r_epik_Metal_State_Penalty>
-0

> <b_epik_Metal_Only>
0

> <s_lp_Force_Field>
OPLS_2005

> <r_lp_Energy>
42.9342

> <b_lp_Chiralities_Consistent>
1

> <s_lp_Variant>
AV-unprocessed.smi:196-9

> <Gold.Version>
5.8.1

> <Gold.Id.Protein>
6NUR|6NUR_protein|mol2

> <Gold.PLP.Fitness>
37.5170

> <Gold.PLP.PLP>
-35.8047

> <Gold.PLP.part.hbond>
-1.6715

> <Gold.PLP.part.metal>
0.0000

> <Gold.PLP.part.buried>
-6.9396

> <Gold.PLP.part.nonpolar>
-27.7368

> <Gold.PLP.part.repulsive>
1.2186

> <Gold.PLP.ligand.clash>
0.0000

> <Gold.PLP.ligand.torsion>
0.6590

> <Gold.PLP.Chemscore.Hbond>
1.0000

> <Gold.PLP.Chemscore.CHOScore>
0.0000

> <Gold.PLP.Chemscore.Metal>
0.0000

> <Gold.Chemscore.Hbonds>
donor molecule, donor type, donor heavy atom, donor atom, acceptor molecule, acceptor atom, score
      P1  H 10752 10764       L1     7  1.00

> <Gold.PLP.Chemscore.Internal.Correction>
0.0302

> <Gold.Rescore>
     Score         DG    S(hbond)    S(metal)    S(lipo)     H(rot)  DE(clash)    DE(int)     intcor
      6.22      -8.28       0.92        0.00      54.40       2.60       0.12       1.94       ----

> <Gold.Chemscore.Fitness>
6.2152

> <Gold.Chemscore.DG>
-8.2795

> <Gold.Chemscore.ZeroCoef>
-5.4800

> <Gold.Chemscore.Hbond>
0.9230

> <Gold.Chemscore.Metal>
0.0000

> <Gold.Chemscore.Lipo>
54.3970

> <Gold.Chemscore.Internal_Hbond>
0.0000

> <Gold.Chemscore.DEClash>
0.1218

> <Gold.Chemscore.DEInternal>
1.9426

> <Gold.Chemscore.Rot>
2.5968

> <Gold.Chemscore.Internal.Correction>
   9.000000E+99

> <Gold.Chemscore.Hbonds>
donor molecule, donor type, donor heavy atom, donor atom, acceptor molecule, acceptor atom, score
      P1  H 10752 10764       L1     7  0.42

> <Gold.Chemscore.Hbond.Weighted>
-3.0828

> <Gold.Chemscore.Metal.Weighted>
-0.0000

> <Gold.Chemscore.Lipo.Weighted>
-6.3644

> <Gold.Chemscore.Internal_Hbond.Weighted>
0.0000

> <Gold.Chemscore.DEClash.Weighted>
0.1218

> <Gold.Chemscore.DEInternal.Weighted>
1.9426

> <Gold.Chemscore.Rot.Weighted>
6.6477

> <Gold.Chemscore.Internal.Correction.Weighted>
   9.000000E+99

> <Gold.Protein.RotatedTorsions>
[ 6907 6896 6895 6894 ] final -159.35 input  -60.11 | X-H torsion
[ 7974 7965 7964 7962 ] final -168.40 input  175.53 | X-H torsion
[ 8008 7997 7996 7995 ] final   65.16 input   59.86 | X-H torsion
[ 10167 10162 10161 10158 ] final  118.88 input  -65.29 | X-H torsion
[ 10718 10713 10712 10709 ] final  -91.14 input   66.30 | X-H torsion
[ 10763 10752 10751 10750 ] final  -37.70 input  -60.55 | X-H torsion
[ 11005 11000 10999 10996 ] final  -39.68 input  -57.11 | X-H torsion

> <Gold.Protein.ActiveResidues>
 VAL166  LYS551  ARG553  GLY616  TRP617  ASP618  TYR619  PRO620  LYS621  CYS622 
 ASP623  PHE694  ASN695  SER759  ASP760  ASP761  ALA762  ILE779  LEU786  VAL792 
 PHE793  MET794  SER795  GLU796  ALA797  LYS798  CYS799  TRP800  GLU811  SER814 

> <Gold.Protein.RotatedAtoms>
  151.3322  133.3996  159.2663 H   0  0  0  0  0  0  0  0  0  0  0  0  # atno 6907 bound_to 6896
  150.9946  134.9273  159.7929 H   0  0  0  0  0  0  0  0  0  0  0  0  # atno 6908 bound_to 6896
  152.5257  134.3287  159.9227 H   0  0  0  0  0  0  0  0  0  0  0  0  # atno 6909 bound_to 6896
  144.7204  140.2375  143.6296 H   0  0  0  0  0  0  0  0  0  0  0  0  # atno 7974 bound_to 7965
  155.6574  140.3497  155.4770 H   0  0  0  0  0  0  0  0  0  0  0  0  # atno 8008 bound_to 7997
  155.9797  140.1172  157.0761 H   0  0  0  0  0  0  0  0  0  0  0  0  # atno 8009 bound_to 7997
  154.4188  140.1140  156.5405 H   0  0  0  0  0  0  0  0  0  0  0  0  # atno 8010 bound_to 7997
  139.6082  144.7075  151.2904 H   0  0  0  0  0  0  0  0  0  0  0  0  # atno 10167 bound_to 10162
  155.9992  130.4937  150.5430 H   0  0  0  0  0  0  0  0  0  0  0  0  # atno 10718 bound_to 10713
  153.9007  135.6802  153.4755 H   0  0  0  0  0  0  0  0  0  0  0  0  # atno 10763 bound_to 10752
  153.1131  135.4774  154.9066 H   0  0  0  0  0  0  0  0  0  0  0  0  # atno 10764 bound_to 10752
  154.7577  135.3202  154.8393 H   0  0  0  0  0  0  0  0  0  0  0  0  # atno 10765 bound_to 10752
  141.0120  133.6903  156.2219 H   0  0  0  0  0  0  0  0  0  0  0  0  # atno 11005 bound_to 11000
  145.8351  139.2104  143.1860 LP  0  0  0  0  0  0  0  0  0  0  0  0  # atno 17320 bound_to 7965
  146.0396  140.8178  142.9835 LP  0  0  0  0  0  0  0  0  0  0  0  0  # atno 17321 bound_to 7965
  140.7300  143.6892  150.7936 LP  0  0  0  0  0  0  0  0  0  0  0  0  # atno 17342 bound_to 10162
  140.0481  143.5277  152.2686 LP  0  0  0  0  0  0  0  0  0  0  0  0  # atno 17343 bound_to 10162
  157.3364  131.0709  151.1822 LP  0  0  0  0  0  0  0  0  0  0  0  0  # atno 17370 bound_to 10713
  157.2685  130.6693  149.6008 LP  0  0  0  0  0  0  0  0  0  0  0  0  # atno 17371 bound_to 10713
  140.6718  134.4859  157.5587 LP  0  0  0  0  0  0  0  0  0  0  0  0  # atno 17394 bound_to 11000
  139.9095  134.8376  156.1580 LP  0  0  0  0  0  0  0  0  0  0  0  0  # atno 17395 bound_to 11000

$$$$
