AV-unprocessed.smi:2612|AV-procd|sdf|10211|dock7
  -GOLD-   2272014213D 1   1.00000     0.00000
 Structure written by MMmdl.
 40 41  0  0  0  0  0  0  0  0  1 V2000
  144.2069  131.6968  150.7858 C   0  0  0  0  0  0  0  0  0  0  0  0
  145.5205  132.1958  151.0070 O   0  0  0  0  0  0  0  0  0  0  0  0
  145.6808  133.4985  151.5853 C   0  0  0  0  0  0  0  0  0  0  0  0
  147.2131  133.5999  151.8055 C   0  0  0  0  0  0  0  0  0  0  0  0
  147.8350  132.3120  152.1068 N   0  0  0  0  0  0  0  0  0  0  0  0
  148.6704  132.1307  153.2187 C   0  0  0  0  0  0  0  0  0  0  0  0
  149.2354  133.2739  153.8246 C   0  0  0  0  0  0  0  0  0  0  0  0
  150.0725  133.1084  154.9456 C   0  0  0  0  0  0  0  0  0  0  0  0
  150.3058  131.8028  155.4178 C   0  0  0  0  0  0  0  0  0  0  0  0
  151.3905  131.5230  156.8098 S   0  0  0  0  0  0  0  0  0  0  0  0
  152.9821  131.0329  156.0307 C   0  0  0  0  0  0  0  0  0  0  0  0
  151.5945  132.8087  157.4947 O   0  0  0  0  0  0  0  0  0  0  0  0
  150.8771  130.3693  157.5643 O   0  0  0  0  0  0  0  0  0  0  0  0
  149.7160  130.7175  154.7411 C   0  0  0  0  0  0  0  0  0  0  0  0
  148.9140  130.8755  153.6664 N   0  0  0  0  0  0  0  0  0  0  0  0
  145.1251  134.6498  150.7053 C   0  0  0  0  0  0  0  0  0  0  0  0
  145.1621  135.9985  151.4463 C   0  0  0  0  0  0  0  0  0  0  0  0
  144.4287  135.9008  152.6618 O   0  0  0  0  0  0  0  0  0  0  0  0
  144.9776  134.9519  153.5696 C   0  0  0  0  0  0  0  0  0  0  0  0
  144.9474  133.5437  152.9463 C   0  0  0  0  0  0  0  0  0  0  0  0
  144.2749  130.6572  150.4666 H   0  0  0  0  0  0  0  0  0  0  0  0
  143.7017  132.2425  149.9891 H   0  0  0  0  0  0  0  0  0  0  0  0
  143.5880  131.7226  151.6813 H   0  0  0  0  0  0  0  0  0  0  0  0
  147.7022  134.0878  150.9645 H   0  0  0  0  0  0  0  0  0  0  0  0
  147.4057  134.2476  152.6612 H   0  0  0  0  0  0  0  0  0  0  0  0
  147.9232  131.6602  151.3403 H   0  0  0  0  0  0  0  0  0  0  0  0
  149.0309  134.2629  153.4411 H   0  0  0  0  0  0  0  0  0  0  0  0
  150.5219  133.9646  155.4264 H   0  0  0  0  0  0  0  0  0  0  0  0
  153.7182  130.8298  156.8082 H   0  0  0  0  0  0  0  0  0  0  0  0
  153.3414  131.8416  155.3946 H   0  0  0  0  0  0  0  0  0  0  0  0
  152.8334  130.1361  155.4296 H   0  0  0  0  0  0  0  0  0  0  0  0
  149.8895  129.7007  155.0607 H   0  0  0  0  0  0  0  0  0  0  0  0
  145.6598  134.7188  149.7586 H   0  0  0  0  0  0  0  0  0  0  0  0
  144.0823  134.4649  150.4497 H   0  0  0  0  0  0  0  0  0  0  0  0
  146.1825  136.3210  151.6508 H   0  0  0  0  0  0  0  0  0  0  0  0
  144.7089  136.7730  150.8275 H   0  0  0  0  0  0  0  0  0  0  0  0
  145.9892  135.2440  153.8525 H   0  0  0  0  0  0  0  0  0  0  0  0
  144.3846  134.9643  154.4841 H   0  0  0  0  0  0  0  0  0  0  0  0
  143.9028  133.2610  152.8263 H   0  0  0  0  0  0  0  0  0  0  0  0
  145.3791  132.8183  153.6367 H   0  0  0  0  0  0  0  0  0  0  0  0
  1  2  1  0  0  0  0
  1 21  1  0  0  0  0
  1 22  1  0  0  0  0
  1 23  1  0  0  0  0
  2  3  1  0  0  0  0
  3 20  1  0  0  0  0
  3  4  1  0  0  0  0
  3 16  1  0  0  0  0
  4  5  1  0  0  0  0
  4 24  1  0  0  0  0
  4 25  1  0  0  0  0
  5  6  1  0  0  0  0
  5 26  1  0  0  0  0
  6 15  1  0  0  0  0
  6  7  2  0  0  0  0
  7  8  1  0  0  0  0
  7 27  1  0  0  0  0
  8  9  2  0  0  0  0
  8 28  1  0  0  0  0
  9 10  1  0  0  0  0
  9 14  1  0  0  0  0
 10 11  1  0  0  0  0
 10 12  2  0  0  0  0
 10 13  2  0  0  0  0
 11 29  1  0  0  0  0
 11 30  1  0  0  0  0
 11 31  1  0  0  0  0
 14 15  2  0  0  0  0
 14 32  1  0  0  0  0
 16 17  1  0  0  0  0
 16 33  1  0  0  0  0
 16 34  1  0  0  0  0
 17 18  1  0  0  0  0
 17 35  1  0  0  0  0
 17 36  1  0  0  0  0
 18 19  1  0  0  0  0
 19 20  1  0  0  0  0
 19 37  1  0  0  0  0
 19 38  1  0  0  0  0
 20 39  1  0  0  0  0
 20 40  1  0  0  0  0
M  END
> <s_m_source_file>
AV-unprocessed.smi

> <i_m_source_file_index>
2612

> <i_lp_mmshare_version>
43012

> <i_f3d_flags>
0

> <s_epik_input>
W0NIMl0xW0NIMl1PW0NIMl1bQ0gyXUMxKE9bQ0gzXSlbQ0gyXVtOSF1jMltjSF1bY0hdYyhbY0hdbjIpUyg9TykoPU8pW0NIM10=

> <s_epik_cmdline>
J2VwaWtfcHl0aG9uJywgJy1waCcsICc3LjAnLCAnLXRuJywgJzgnLCAnLW1hJywgJzIwMCcsICctbWV0YWxfYmluZGluZycsICctaW1hZScsICc8aW5maWxlLm1hZT4nLCAnLW9tYWUnLCAnPG91dGZpbGUubWFlPic=

> <r_lp_tautomer_probability>
1

> <r_epik_Ionization_Penalty>
1.02976e-06

> <r_epik_Ionization_Penalty_Charging>
0

> <r_epik_Ionization_Penalty_Neutral>
1.02976e-06

> <r_epik_State_Penalty>
-0

> <r_epik_Charging_Adjusted_Penalty>
0

> <i_epik_Tot_Q>
0

> <i_epik_Tot_abs_Q>
0

> <r_epik_Metal_State_Penalty>
-0

> <b_epik_Metal_Only>
0

> <s_lp_Force_Field>
OPLS_2005

> <r_lp_Energy>
16.1681

> <b_lp_Chiralities_Consistent>
1

> <s_lp_Variant>
AV-unprocessed.smi:2612-1

> <Gold.Version>
5.8.1

> <Gold.Id.Protein>
6NUR|6NUR_protein|mol2

> <Gold.PLP.Fitness>
36.5433

> <Gold.PLP.PLP>
-31.8806

> <Gold.PLP.part.hbond>
-2.0000

> <Gold.PLP.part.metal>
0.0000

> <Gold.PLP.part.buried>
-3.6450

> <Gold.PLP.part.nonpolar>
-26.2861

> <Gold.PLP.part.repulsive>
0.3199

> <Gold.PLP.ligand.clash>
0.0000

> <Gold.PLP.ligand.torsion>
1.5730

> <Gold.PLP.Chemscore.Hbond>
1.9200

> <Gold.PLP.Chemscore.CHOScore>
0.0000

> <Gold.PLP.Chemscore.Metal>
0.0000

> <Gold.Chemscore.Hbonds>
donor molecule, donor type, donor heavy atom, donor atom, acceptor molecule, acceptor atom, score
      L1  H     5    26       P1 10747  0.93
      P1  H  6896  6909       L1    12  0.93

> <Gold.PLP.Chemscore.Internal.Correction>
2.0486

> <Gold.Rescore>
     Score         DG    S(hbond)    S(metal)    S(lipo)     H(rot)  DE(clash)    DE(int)     intcor
     13.92     -15.64       1.96        0.00      62.73       1.45       0.12       1.60       ----

> <Gold.Chemscore.Fitness>
13.9180

> <Gold.Chemscore.DG>
-15.6429

> <Gold.Chemscore.ZeroCoef>
-5.4800

> <Gold.Chemscore.Hbond>
1.9561

> <Gold.Chemscore.Metal>
0.0000

> <Gold.Chemscore.Lipo>
62.7260

> <Gold.Chemscore.Internal_Hbond>
0.0000

> <Gold.Chemscore.DEClash>
0.1214

> <Gold.Chemscore.DEInternal>
1.6035

> <Gold.Chemscore.Rot>
1.4490

> <Gold.Chemscore.Internal.Correction>
   9.000000E+99

> <Gold.Chemscore.Hbonds>
donor molecule, donor type, donor heavy atom, donor atom, acceptor molecule, acceptor atom, score
      L1  H     5    26       P1 10747  0.90
      P1  H  6896  6909       L1    12  0.90

> <Gold.Chemscore.Hbond.Weighted>
-6.5334

> <Gold.Chemscore.Metal.Weighted>
-0.0000

> <Gold.Chemscore.Lipo.Weighted>
-7.3389

> <Gold.Chemscore.Internal_Hbond.Weighted>
0.0000

> <Gold.Chemscore.DEClash.Weighted>
0.1214

> <Gold.Chemscore.DEInternal.Weighted>
1.6035

> <Gold.Chemscore.Rot.Weighted>
3.7094

> <Gold.Chemscore.Internal.Correction.Weighted>
   9.000000E+99

> <Gold.Protein.RotatedTorsions>
[ 6907 6896 6895 6894 ] final  -57.39 input  -60.11 | X-H torsion
[ 7974 7965 7964 7962 ] final -178.94 input  175.53 | X-H torsion
[ 8008 7997 7996 7995 ] final -151.90 input   59.86 | X-H torsion
[ 10167 10162 10161 10158 ] final -115.64 input  -65.29 | X-H torsion
[ 10718 10713 10712 10709 ] final  136.36 input   66.30 | X-H torsion
[ 10763 10752 10751 10750 ] final -131.04 input  -60.55 | X-H torsion
[ 11005 11000 10999 10996 ] final  144.94 input  -57.11 | X-H torsion

> <Gold.Protein.ActiveResidues>
 VAL166  LYS551  ARG553  GLY616  TRP617  ASP618  TYR619  PRO620  LYS621  CYS622 
 ASP623  PHE694  ASN695  SER759  ASP760  ASP761  ALA762  ILE779  LEU786  VAL792 
 PHE793  MET794  SER795  GLU796  ALA797  LYS798  CYS799  TRP800  GLU811  SER814 

> <Gold.Protein.RotatedAtoms>
  150.8090  134.7233  159.6670 H   0  0  0  0  0  0  0  0  0  0  0  0  # atno 6907 bound_to 6896
  152.4210  134.5952  159.9995 H   0  0  0  0  0  0  0  0  0  0  0  0  # atno 6908 bound_to 6896
  151.6168  133.3305  159.3115 H   0  0  0  0  0  0  0  0  0  0  0  0  # atno 6909 bound_to 6896
  144.7133  140.0793  143.6426 H   0  0  0  0  0  0  0  0  0  0  0  0  # atno 7974 bound_to 7965
  155.6467  140.0707  157.2600 H   0  0  0  0  0  0  0  0  0  0  0  0  # atno 8008 bound_to 7997
  154.4171  140.1740  156.1680 H   0  0  0  0  0  0  0  0  0  0  0  0  # atno 8009 bound_to 7997
  155.9811  140.3353  155.6667 H   0  0  0  0  0  0  0  0  0  0  0  0  # atno 8010 bound_to 7997
  140.0879  143.4727  152.1887 H   0  0  0  0  0  0  0  0  0  0  0  0  # atno 10167 bound_to 10162
  157.4475  131.1063  151.0072 H   0  0  0  0  0  0  0  0  0  0  0  0  # atno 10718 bound_to 10713
  154.8753  135.3843  154.4181 H   0  0  0  0  0  0  0  0  0  0  0  0  # atno 10763 bound_to 10752
  153.4888  135.7030  153.5901 H   0  0  0  0  0  0  0  0  0  0  0  0  # atno 10764 bound_to 10752
  153.4284  135.3884  155.2122 H   0  0  0  0  0  0  0  0  0  0  0  0  # atno 10765 bound_to 10752
  140.0673  134.9172  157.1285 H   0  0  0  0  0  0  0  0  0  0  0  0  # atno 11005 bound_to 11000
  145.9716  139.2874  143.1095 LP  0  0  0  0  0  0  0  0  0  0  0  0  # atno 17320 bound_to 7965
  145.9110  140.9180  143.0454 LP  0  0  0  0  0  0  0  0  0  0  0  0  # atno 17321 bound_to 7965
  139.5742  144.7478  151.3810 LP  0  0  0  0  0  0  0  0  0  0  0  0  # atno 17342 bound_to 10162
  140.7044  143.7551  150.7457 LP  0  0  0  0  0  0  0  0  0  0  0  0  # atno 17343 bound_to 10162
  157.0914  130.5943  149.5440 LP  0  0  0  0  0  0  0  0  0  0  0  0  # atno 17370 bound_to 10713
  155.9973  130.5045  150.7530 LP  0  0  0  0  0  0  0  0  0  0  0  0  # atno 17371 bound_to 10713
  140.3680  134.2421  155.7180 LP  0  0  0  0  0  0  0  0  0  0  0  0  # atno 17394 bound_to 11000
  141.1998  133.8004  157.0521 LP  0  0  0  0  0  0  0  0  0  0  0  0  # atno 17395 bound_to 11000

$$$$
