AV-unprocessed.smi:35|AV-procd|sdf|251|dock3
  -GOLD-   2262016 13D 1   1.00000     0.00000
 Structure written by MMmdl.
 29 30  0  0  0  0  0  0  0  0  1 V2000
  150.9603  143.0846  157.7399 O   0  0  0  0  0  0  0  0  0  0  0  0
  150.8532  142.0724  157.0513 C   0  0  0  0  0  0  0  0  0  0  0  0
  150.2456  142.1344  155.7946 N   0  0  0  0  0  0  0  0  0  0  0  0
  150.0727  141.0570  154.9239 C   0  0  0  0  0  0  0  0  0  0  0  0
  149.5002  141.2232  153.8473 O   0  0  0  0  0  0  0  0  0  0  0  0
  150.5756  139.8006  155.3338 N   0  0  0  0  0  0  0  0  0  0  0  0
  150.3735  138.6110  154.4095 C   0  0  2  0  0  0  0  0  0  0  0  0
  149.1551  137.9918  154.6886 O   0  0  0  0  0  0  0  0  0  0  0  0
  149.3629  136.9354  155.6168 C   0  0  1  0  0  0  0  0  0  0  0  0
  148.1696  135.9699  155.5858 C   0  0  0  0  0  0  0  0  0  0  0  0
  147.5727  135.9850  154.3068 O   0  0  0  0  0  0  0  0  0  0  0  0
  150.6666  136.3217  155.1051 C   0  0  2  0  0  0  0  0  0  0  0  0
  151.3441  135.6597  156.1546 O   0  0  0  0  0  0  0  0  0  0  0  0
  151.4632  137.5343  154.6273 C   0  0  1  0  0  0  0  0  0  0  0  0
  152.1471  137.2293  153.4287 O   0  0  0  0  0  0  0  0  0  0  0  0
  151.1547  139.6859  156.5941 C   0  0  0  0  0  0  0  0  0  0  0  0
  151.3091  140.7399  157.4295 C   0  0  0  0  0  0  0  0  0  0  0  0
  152.1619  140.3660  159.1783 Br  0  0  0  0  0  0  0  0  0  0  0  0
  149.8962  143.0330  155.4945 H   0  0  0  0  0  0  0  0  0  0  0  0
  150.3471  139.0397  153.4054 H   0  0  0  0  0  0  0  0  0  0  0  0
  149.5144  137.3404  156.6195 H   0  0  0  0  0  0  0  0  0  0  0  0
  148.4705  134.9568  155.8540 H   0  0  0  0  0  0  0  0  0  0  0  0
  147.4127  136.2855  156.3044 H   0  0  0  0  0  0  0  0  0  0  0  0
  148.2558  135.9316  153.6560 H   0  0  0  0  0  0  0  0  0  0  0  0
  150.4636  135.6330  154.2830 H   0  0  0  0  0  0  0  0  0  0  0  0
  151.4138  136.2540  156.8863 H   0  0  0  0  0  0  0  0  0  0  0  0
  152.1739  137.8636  155.3873 H   0  0  0  0  0  0  0  0  0  0  0  0
  151.5127  136.9440  152.7885 H   0  0  0  0  0  0  0  0  0  0  0  0
  151.5001  138.7280  156.9516 H   0  0  0  0  0  0  0  0  0  0  0  0
  1  2  2  0  0  0  0
  2 17  1  0  0  0  0
  2  3  1  0  0  0  0
  3 19  1  0  0  0  0
  3  4  1  0  0  0  0
  4  5  2  0  0  0  0
  4  6  1  0  0  0  0
  6  7  1  0  0  0  0
  6 16  1  0  0  0  0
  7 14  1  0  0  0  0
  7  8  1  0  0  0  0
  7 20  1  0  0  0  0
  8  9  1  0  0  0  0
  9 10  1  0  0  0  0
  9 12  1  0  0  0  0
  9 21  1  0  0  0  0
 10 11  1  0  0  0  0
 10 22  1  0  0  0  0
 10 23  1  0  0  0  0
 11 24  1  0  0  0  0
 12 13  1  0  0  0  0
 12 14  1  0  0  0  0
 12 25  1  0  0  0  0
 13 26  1  0  0  0  0
 14 15  1  0  0  0  0
 14 27  1  0  0  0  0
 15 28  1  0  0  0  0
 16 17  2  0  0  0  0
 16 29  1  0  0  0  0
 17 18  1  0  0  0  0
M  END
> <s_m_source_file>
AV-unprocessed.smi

> <i_m_source_file_index>
35

> <i_lp_mmshare_version>
43012

> <i_f3d_flags>
0

> <s_epik_input>
Tz1jMVtuSF1jKD1PKW4oW2NIXWMxQnIpW0NAQEhdMk9bQ0BASF0oW0NIMl1bT0hdKVtDQEBIXShbT0hdKVtDQEhdMltPSF0=

> <s_epik_cmdline>
J2VwaWtfcHl0aG9uJywgJy1waCcsICc3LjAnLCAnLXRuJywgJzgnLCAnLW1hJywgJzIwMCcsICctbWV0YWxfYmluZGluZycsICctaW1hZScsICc8aW5maWxlLm1hZT4nLCAnLW9tYWUnLCAnPG91dGZpbGUubWFlPic=

> <r_lp_tautomer_probability>
0.999537

> <r_epik_Ionization_Penalty>
0.10812

> <r_epik_Ionization_Penalty_Charging>
0.108119

> <r_epik_Ionization_Penalty_Neutral>
4.93006e-07

> <r_epik_State_Penalty>
0.0979238

> <r_epik_Charging_Adjusted_Penalty>
0.206043

> <i_epik_Tot_Q>
0

> <i_epik_Tot_abs_Q>
0

> <r_epik_Metal_State_Penalty>
3.07911

> <b_epik_Metal_Only>
0

> <s_epik_Chemistry_Notes>
This compound contains an acetal/aminal-like group ( X-CH(R)-Y where X, Y are N, S, or O) that may be acid/base labile, releasing an aldehyde.

> <s_lp_Force_Field>
OPLS_2005

> <r_lp_Energy>
25.602

> <b_lp_Chiralities_Consistent>
1

> <s_lp_Variant>
AV-unprocessed.smi:35-5

> <Gold.Version>
5.8.1

> <Gold.Id.Protein>
6NUR|6NUR_protein|mol2

> <Gold.PLP.Fitness>
40.3957

> <Gold.PLP.PLP>
-25.9494

> <Gold.PLP.part.hbond>
-7.0000

> <Gold.PLP.part.metal>
0.0000

> <Gold.PLP.part.buried>
-0.0495

> <Gold.PLP.part.nonpolar>
-19.4280

> <Gold.PLP.part.repulsive>
1.6431

> <Gold.PLP.ligand.clash>
0.0000

> <Gold.PLP.ligand.torsion>
1.0784

> <Gold.PLP.Chemscore.Hbond>
5.5224

> <Gold.PLP.Chemscore.CHOScore>
0.0000

> <Gold.PLP.Chemscore.Metal>
0.0000

> <Gold.Chemscore.Hbonds>
donor molecule, donor type, donor heavy atom, donor atom, acceptor molecule, acceptor atom, score
      L1  H     3    19       P1  8028  1.00
      L1  H    11    24       P1  7948  1.00
      L1  H    15    28       P1  7949  0.96
      P1  H  8011  8017       L1     5  0.85
      P1  H 10752 10763       L1    15  0.67
      P1  H 10752 10764       L1    13  0.55

> <Gold.PLP.Chemscore.Internal.Correction>
0.0359

> <Gold.Rescore>
     Score         DG    S(hbond)    S(metal)    S(lipo)     H(rot)  DE(clash)    DE(int)     intcor
     11.08     -13.16       3.96        0.00      32.80       3.67       0.94       1.14       ----

> <Gold.Chemscore.Fitness>
11.0813

> <Gold.Chemscore.DG>
-13.1644

> <Gold.Chemscore.ZeroCoef>
-5.4800

> <Gold.Chemscore.Hbond>
3.9646

> <Gold.Chemscore.Metal>
0.0000

> <Gold.Chemscore.Lipo>
32.8043

> <Gold.Chemscore.Internal_Hbond>
0.0000

> <Gold.Chemscore.DEClash>
0.9430

> <Gold.Chemscore.DEInternal>
1.1401

> <Gold.Chemscore.Rot>
3.6701

> <Gold.Chemscore.Internal.Correction>
   9.000000E+99

> <Gold.Chemscore.Hbonds>
donor molecule, donor type, donor heavy atom, donor atom, acceptor molecule, acceptor atom, score
      L1  H     3    19       P1  8028  0.97
      L1  H    11    24       P1  7948  0.96
      L1  H    15    28       P1  7949  0.87
      P1  H  8011  8017       L1     5  0.84
      P1  H 10752 10763       L1    15  0.33
      P1  H 10752 10764       L1    13  0.10

> <Gold.Chemscore.Hbond.Weighted>
-13.2417

> <Gold.Chemscore.Metal.Weighted>
-0.0000

> <Gold.Chemscore.Lipo.Weighted>
-3.8381

> <Gold.Chemscore.Internal_Hbond.Weighted>
0.0000

> <Gold.Chemscore.DEClash.Weighted>
0.9430

> <Gold.Chemscore.DEInternal.Weighted>
1.1401

> <Gold.Chemscore.Rot.Weighted>
9.3955

> <Gold.Chemscore.Internal.Correction.Weighted>
   9.000000E+99

> <Gold.Protein.RotatedTorsions>
[ 6907 6896 6895 6894 ] final  163.93 input  -60.11 | X-H torsion
[ 7974 7965 7964 7962 ] final  -56.06 input  175.53 | X-H torsion
[ 8008 7997 7996 7995 ] final   31.22 input   59.86 | X-H torsion
[ 10167 10162 10161 10158 ] final   52.83 input  -65.29 | X-H torsion
[ 10718 10713 10712 10709 ] final  -53.06 input   66.30 | X-H torsion
[ 10763 10752 10751 10750 ] final  -14.02 input  -60.55 | X-H torsion
[ 11005 11000 10999 10996 ] final -145.14 input  -57.11 | X-H torsion

> <Gold.Protein.ActiveResidues>
 VAL166  LYS551  ARG553  GLY616  TRP617  ASP618  TYR619  PRO620  LYS621  CYS622 
 ASP623  PHE694  ASN695  SER759  ASP760  ASP761  ALA762  ILE779  LEU786  VAL792 
 PHE793  MET794  SER795  GLU796  ALA797  LYS798  CYS799  TRP800  GLU811  SER814 

> <Gold.Protein.RotatedAtoms>
  151.9177  133.3577  159.3885 H   0  0  0  0  0  0  0  0  0  0  0  0  # atno 6907 bound_to 6896
  150.7044  134.4667  159.5415 H   0  0  0  0  0  0  0  0  0  0  0  0  # atno 6908 bound_to 6896
  152.2285  134.8345  160.0527 H   0  0  0  0  0  0  0  0  0  0  0  0  # atno 6909 bound_to 6896
  145.8670  140.8244  142.9908 H   0  0  0  0  0  0  0  0  0  0  0  0  # atno 7974 bound_to 7965
  155.1030  140.3231  155.4542 H   0  0  0  0  0  0  0  0  0  0  0  0  # atno 8008 bound_to 7997
  156.2712  140.2057  156.6103 H   0  0  0  0  0  0  0  0  0  0  0  0  # atno 8009 bound_to 7997
  154.6814  140.0526  157.0257 H   0  0  0  0  0  0  0  0  0  0  0  0  # atno 8010 bound_to 7997
  140.2472  144.3519  150.6360 H   0  0  0  0  0  0  0  0  0  0  0  0  # atno 10167 bound_to 10162
  156.1567  130.4150  149.9857 H   0  0  0  0  0  0  0  0  0  0  0  0  # atno 10718 bound_to 10713
  153.5221  135.7015  153.5726 H   0  0  0  0  0  0  0  0  0  0  0  0  # atno 10763 bound_to 10752
  153.3771  135.3930  155.1830 H   0  0  0  0  0  0  0  0  0  0  0  0  # atno 10764 bound_to 10752
  154.8693  135.3826  154.4710 H   0  0  0  0  0  0  0  0  0  0  0  0  # atno 10765 bound_to 10752
  140.7953  134.2921  157.4999 H   0  0  0  0  0  0  0  0  0  0  0  0  # atno 11005 bound_to 11000
  144.6726  140.1181  143.7451 LP  0  0  0  0  0  0  0  0  0  0  0  0  # atno 17320 bound_to 7965
  145.9182  139.2529  143.1397 LP  0  0  0  0  0  0  0  0  0  0  0  0  # atno 17321 bound_to 7965
  140.6068  143.2168  151.6964 LP  0  0  0  0  0  0  0  0  0  0  0  0  # atno 17342 bound_to 10162
  139.5058  144.3705  152.0474 LP  0  0  0  0  0  0  0  0  0  0  0  0  # atno 17343 bound_to 10162
  156.7699  130.9182  151.3644 LP  0  0  0  0  0  0  0  0  0  0  0  0  # atno 17370 bound_to 10713
  157.6701  130.9043  150.0020 LP  0  0  0  0  0  0  0  0  0  0  0  0  # atno 17371 bound_to 10713
  139.8727  134.9398  156.3752 LP  0  0  0  0  0  0  0  0  0  0  0  0  # atno 17394 bound_to 11000
  140.9349  133.7554  156.0072 LP  0  0  0  0  0  0  0  0  0  0  0  0  # atno 17395 bound_to 11000

$$$$
