AV-unprocessed.smi:910|AV-procd|sdf|4135|dock9
  -GOLD-   22720 2 43D 1   1.00000     0.00000
 Structure written by MMmdl.
 45 46  0  0  0  0  0  0  0  0  2 V2000
  146.8932  133.5721  159.7653 C   0  0  0  0  0  0  0  0  0  0  0  0
  147.1894  135.0376  159.8284 C   0  0  0  0  0  0  0  0  0  0  0  0
  147.8748  135.6996  158.8208 N   0  0  0  0  0  0  0  0  0  0  0  0
  147.9474  136.9748  159.2066 C   0  0  0  0  0  0  0  0  0  0  0  0
  148.5300  137.9779  158.5300 N   0  5  0  0  0  0  0  0  0  0  0  0
  149.8768  138.0985  158.5365 C   0  0  0  0  0  0  0  0  0  0  0  0
  150.6889  137.2060  158.7924 O   0  0  0  0  0  0  0  0  0  0  0  0
  150.3118  139.3284  158.2265 N   0  0  0  0  0  0  0  0  0  0  0  0
  151.7083  139.7433  158.1399 C   0  0  0  0  0  0  0  0  0  0  0  0
  151.8337  141.2011  157.6768 C   0  0  0  0  0  0  0  0  0  0  0  0
  152.7720  141.8698  158.5069 O   0  0  0  0  0  0  0  0  0  0  0  0
  152.2929  142.1557  159.8141 C   0  0  1  0  0  0  0  0  0  0  0  0
  153.1070  141.3354  160.8370 C   0  0  0  0  0  0  0  0  0  0  0  0
  152.7293  141.6981  162.2805 C   0  0  0  0  0  0  0  0  0  0  0  0
  152.8957  143.2035  162.5309 C   0  0  0  0  0  0  0  0  0  0  0  0
  152.0824  144.0249  161.5191 C   0  0  0  0  0  0  0  0  0  0  0  0
  152.4531  143.6722  160.0645 C   0  0  2  0  0  0  0  0  0  0  0  0
  151.6193  144.5031  159.0758 C   0  0  0  0  0  0  0  0  0  0  0  0
  147.3559  137.1777  160.4186 O   0  0  0  0  0  0  0  0  0  0  0  0
  146.8789  135.9531  160.7978 C   0  0  0  0  0  0  0  0  0  0  0  0
  146.1616  135.8609  162.1012 C   0  0  0  0  0  0  0  0  0  0  0  0
  147.3588  133.0424  160.5963 H   0  0  0  0  0  0  0  0  0  0  0  0
  147.2638  133.1276  158.8411 H   0  0  0  0  0  0  0  0  0  0  0  0
  145.8200  133.3872  159.8131 H   0  0  0  0  0  0  0  0  0  0  0  0
  149.6148  140.0292  158.0211 H   0  0  0  0  0  0  0  0  0  0  0  0
  152.1710  139.6207  159.1193 H   0  0  0  0  0  0  0  0  0  0  0  0
  152.2484  139.0843  157.4584 H   0  0  0  0  0  0  0  0  0  0  0  0
  152.1847  141.2317  156.6446 H   0  0  0  0  0  0  0  0  0  0  0  0
  150.8597  141.6907  157.6991 H   0  0  0  0  0  0  0  0  0  0  0  0
  151.2342  141.9012  159.8960 H   0  0  0  0  0  0  0  0  0  0  0  0
  152.9549  140.2675  160.6816 H   0  0  0  0  0  0  0  0  0  0  0  0
  154.1718  141.5170  160.6847 H   0  0  0  0  0  0  0  0  0  0  0  0
  151.6965  141.4055  162.4731 H   0  0  0  0  0  0  0  0  0  0  0  0
  153.3471  141.1341  162.9796 H   0  0  0  0  0  0  0  0  0  0  0  0
  152.5831  143.4485  163.5462 H   0  0  0  0  0  0  0  0  0  0  0  0
  153.9503  143.4728  162.4581 H   0  0  0  0  0  0  0  0  0  0  0  0
  151.0182  143.8468  161.6813 H   0  0  0  0  0  0  0  0  0  0  0  0
  152.2472  145.0878  161.6985 H   0  0  0  0  0  0  0  0  0  0  0  0
  153.5023  143.9321  159.9145 H   0  0  0  0  0  0  0  0  0  0  0  0
  150.5569  144.2731  159.1623 H   0  0  0  0  0  0  0  0  0  0  0  0
  151.9178  144.3109  158.0451 H   0  0  0  0  0  0  0  0  0  0  0  0
  151.7448  145.5706  159.2575 H   0  0  0  0  0  0  0  0  0  0  0  0
  145.9564  134.8226  162.3623 H   0  0  0  0  0  0  0  0  0  0  0  0
  145.2112  136.3925  162.0560 H   0  0  0  0  0  0  0  0  0  0  0  0
  146.7575  136.2994  162.9017 H   0  0  0  0  0  0  0  0  0  0  0  0
  1 22  1  0  0  0  0
  1 23  1  0  0  0  0
  1 24  1  0  0  0  0
  1  2  1  0  0  0  0
  2  3  1  0  0  0  0
  2 20  2  0  0  0  0
  3  4  2  0  0  0  0
  4 19  1  0  0  0  0
  4  5  1  0  0  0  0
  5  6  1  0  0  0  0
  6  8  1  0  0  0  0
  6  7  2  0  0  0  0
  8  9  1  0  0  0  0
  8 25  1  0  0  0  0
  9 10  1  0  0  0  0
  9 26  1  0  0  0  0
  9 27  1  0  0  0  0
 10 11  1  0  0  0  0
 10 28  1  0  0  0  0
 10 29  1  0  0  0  0
 11 12  1  0  0  0  0
 12 17  1  0  0  0  0
 12 13  1  0  0  0  0
 12 30  1  0  0  0  0
 13 14  1  0  0  0  0
 13 31  1  0  0  0  0
 13 32  1  0  0  0  0
 14 15  1  0  0  0  0
 14 33  1  0  0  0  0
 14 34  1  0  0  0  0
 15 16  1  0  0  0  0
 15 35  1  0  0  0  0
 15 36  1  0  0  0  0
 16 17  1  0  0  0  0
 16 37  1  0  0  0  0
 16 38  1  0  0  0  0
 17 18  1  0  0  0  0
 17 39  1  0  0  0  0
 18 40  1  0  0  0  0
 18 41  1  0  0  0  0
 18 42  1  0  0  0  0
 19 20  1  0  0  0  0
 20 21  1  0  0  0  0
 21 43  1  0  0  0  0
 21 44  1  0  0  0  0
 21 45  1  0  0  0  0
M  CHG  1   5  -1
M  END
> <s_m_source_file>
AV-unprocessed.smi

> <i_m_source_file_index>
910

> <i_lp_mmshare_version>
43012

> <i_f3d_flags>
0

> <s_epik_input>
W0NIM11jMW5jKG9jMVtDSDNdKVtOSF1DKD1PKVtOSF1bQ0gyXVtDSDJdT1tDQEBIXTJbQ0gyXVtDSDJdW0NIMl1bQ0gyXVtDQEhdMltDSDNd

> <s_epik_cmdline>
J2VwaWtfcHl0aG9uJywgJy1waCcsICc3LjAnLCAnLXRuJywgJzgnLCAnLW1hJywgJzIwMCcsICctbWV0YWxfYmluZGluZycsICctaW1hZScsICc8aW5maWxlLm1hZT4nLCAnLW9tYWUnLCAnPG91dGZpbGUubWFlPic=

> <r_lp_tautomer_probability>
0.107061

> <r_epik_Ionization_Penalty>
10.1763

> <r_epik_Ionization_Penalty_Charging>
7.13067

> <r_epik_Ionization_Penalty_Neutral>
3.04564

> <r_epik_State_Penalty>
5.57927

> <r_epik_Charging_Adjusted_Penalty>
12.7099

> <i_epik_Tot_Q>
-1

> <i_epik_Tot_abs_Q>
1

> <r_epik_Metal_State_Penalty>
1.52303

> <b_epik_Metal_Only>
1

> <s_lp_Force_Field>
OPLS_2005

> <r_lp_Energy>
4.71828

> <b_lp_Chiralities_Consistent>
1

> <s_lp_Variant>
AV-unprocessed.smi:910-20

> <Gold.Version>
5.8.1

> <Gold.Id.Protein>
6NUR|6NUR_protein|mol2

> <Gold.PLP.Fitness>
48.7709

> <Gold.PLP.PLP>
-44.2145

> <Gold.PLP.part.hbond>
-3.4908

> <Gold.PLP.part.metal>
0.0000

> <Gold.PLP.part.buried>
-2.6432

> <Gold.PLP.part.nonpolar>
-37.5768

> <Gold.PLP.part.repulsive>
0.1667

> <Gold.PLP.ligand.clash>
0.0000

> <Gold.PLP.ligand.torsion>
1.9230

> <Gold.PLP.Chemscore.Hbond>
2.7823

> <Gold.PLP.Chemscore.CHOScore>
0.0000

> <Gold.PLP.Chemscore.Metal>
0.0000

> <Gold.Chemscore.Hbonds>
donor molecule, donor type, donor heavy atom, donor atom, acceptor molecule, acceptor atom, score
      P1  H  6934  6947       L1    19  1.00

> <Gold.PLP.Chemscore.Internal.Correction>
0.0554

> <Gold.Rescore>
     Score         DG    S(hbond)    S(metal)    S(lipo)     H(rot)  DE(clash)    DE(int)     intcor
     19.89     -22.03       2.06        0.00     118.07       1.62       0.30       1.84       ----

> <Gold.Chemscore.Fitness>
19.8867

> <Gold.Chemscore.DG>
-22.0291

> <Gold.Chemscore.ZeroCoef>
-5.4800

> <Gold.Chemscore.Hbond>
2.0580

> <Gold.Chemscore.Metal>
0.0000

> <Gold.Chemscore.Lipo>
118.0739

> <Gold.Chemscore.Internal_Hbond>
0.0000

> <Gold.Chemscore.DEClash>
0.3007

> <Gold.Chemscore.DEInternal>
1.8417

> <Gold.Chemscore.Rot>
1.6169

> <Gold.Chemscore.Internal.Correction>
   9.000000E+99

> <Gold.Chemscore.Hbonds>
donor molecule, donor type, donor heavy atom, donor atom, acceptor molecule, acceptor atom, score
      P1  H  6896  6907       L1     7  0.07
      P1  H  6931  6943       L1    19  0.01
      P1  H  6934  6947       L1    19  0.86

> <Gold.Chemscore.Hbond.Weighted>
-6.8737

> <Gold.Chemscore.Metal.Weighted>
-0.0000

> <Gold.Chemscore.Lipo.Weighted>
-13.8146

> <Gold.Chemscore.Internal_Hbond.Weighted>
0.0000

> <Gold.Chemscore.DEClash.Weighted>
0.3007

> <Gold.Chemscore.DEInternal.Weighted>
1.8417

> <Gold.Chemscore.Rot.Weighted>
4.1393

> <Gold.Chemscore.Internal.Correction.Weighted>
   9.000000E+99

> <Gold.Protein.RotatedTorsions>
[ 6907 6896 6895 6894 ] final  -13.95 input  -60.11 | X-H torsion
[ 7974 7965 7964 7962 ] final  -55.84 input  175.53 | X-H torsion
[ 8008 7997 7996 7995 ] final  112.62 input   59.86 | X-H torsion
[ 10167 10162 10161 10158 ] final -107.30 input  -65.29 | X-H torsion
[ 10718 10713 10712 10709 ] final  138.43 input   66.30 | X-H torsion
[ 10763 10752 10751 10750 ] final  -81.73 input  -60.55 | X-H torsion
[ 11005 11000 10999 10996 ] final  -21.16 input  -57.11 | X-H torsion

> <Gold.Protein.ActiveResidues>
 VAL166  LYS551  ARG553  GLY616  TRP617  ASP618  TYR619  PRO620  LYS621  CYS622 
 ASP623  PHE694  ASN695  SER759  ASP760  ASP761  ALA762  ILE779  LEU786  VAL792 
 PHE793  MET794  SER795  GLU796  ALA797  LYS798  CYS799  TRP800  GLU811  SER814 

> <Gold.Protein.RotatedAtoms>
  151.3469  135.0876  159.9389 H   0  0  0  0  0  0  0  0  0  0  0  0  # atno 6907 bound_to 6896
  152.5197  133.9391  159.7628 H   0  0  0  0  0  0  0  0  0  0  0  0  # atno 6908 bound_to 6896
  150.9759  133.6242  159.2760 H   0  0  0  0  0  0  0  0  0  0  0  0  # atno 6909 bound_to 6896
  145.8695  140.8226  142.9895 H   0  0  0  0  0  0  0  0  0  0  0  0  # atno 7974 bound_to 7965
  156.2204  140.2996  155.9940 H   0  0  0  0  0  0  0  0  0  0  0  0  # atno 8008 bound_to 7997
  155.2495  140.0425  157.3002 H   0  0  0  0  0  0  0  0  0  0  0  0  # atno 8009 bound_to 7997
  154.5832  140.2381  155.8032 H   0  0  0  0  0  0  0  0  0  0  0  0  # atno 8010 bound_to 7997
  140.1784  143.3986  152.1300 H   0  0  0  0  0  0  0  0  0  0  0  0  # atno 10167 bound_to 10162
  157.4254  131.1043  151.0308 H   0  0  0  0  0  0  0  0  0  0  0  0  # atno 10718 bound_to 10713
  154.5671  135.5616  153.7061 H   0  0  0  0  0  0  0  0  0  0  0  0  # atno 10763 bound_to 10752
  153.0036  135.6288  154.2165 H   0  0  0  0  0  0  0  0  0  0  0  0  # atno 10764 bound_to 10752
  154.2104  135.2874  155.2940 H   0  0  0  0  0  0  0  0  0  0  0  0  # atno 10765 bound_to 10752
  140.8535  133.7840  155.9992 H   0  0  0  0  0  0  0  0  0  0  0  0  # atno 11005 bound_to 11000
  144.6726  140.1217  143.7449 LP  0  0  0  0  0  0  0  0  0  0  0  0  # atno 17320 bound_to 7965
  145.9153  139.2512  143.1413 LP  0  0  0  0  0  0  0  0  0  0  0  0  # atno 17321 bound_to 7965
  139.5307  144.7155  151.5067 LP  0  0  0  0  0  0  0  0  0  0  0  0  # atno 17342 bound_to 10162
  140.6536  143.8646  150.6811 LP  0  0  0  0  0  0  0  0  0  0  0  0  # atno 17343 bound_to 10162
  157.1223  130.6067  149.5508 LP  0  0  0  0  0  0  0  0  0  0  0  0  # atno 17370 bound_to 10713
  155.9895  130.4942  150.7215 LP  0  0  0  0  0  0  0  0  0  0  0  0  # atno 17371 bound_to 10713
  140.8764  134.2664  157.5166 LP  0  0  0  0  0  0  0  0  0  0  0  0  # atno 17394 bound_to 11000
  139.8704  134.9593  156.4328 LP  0  0  0  0  0  0  0  0  0  0  0  0  # atno 17395 bound_to 11000

$$$$
