AV-unprocessed.smi:1356|AV-procd|sdf|5541|dock1
  -GOLD-   22720 5133D 1   1.00000     0.00000
 Structure written by MMmdl.
 41 42  0  0  0  0  0  0  0  0  1 V2000
  151.2674  144.0134  160.7453 C   0  0  0  0  0  0  0  0  0  0  0  0
  150.9681  144.9172  159.5619 C   0  0  1  0  0  0  0  0  0  0  0  0
  151.9215  144.9622  158.3931 C   0  0  0  0  0  0  0  0  0  0  0  0
  150.5215  144.4186  158.1931 C   0  0  1  0  0  0  0  0  0  0  0  0
  150.3554  142.9517  157.9798 C   0  0  0  0  0  0  0  0  0  0  0  0
  150.6868  142.1218  158.8263 O   0  0  0  0  0  0  0  0  0  0  0  0
  149.7672  142.6249  156.8186 N   0  0  0  0  0  0  0  0  0  0  0  0
  149.4781  141.2638  156.3822 C   0  0  0  0  0  0  0  0  0  0  0  0
  149.1947  141.2078  154.8678 C   0  0  0  0  0  0  0  0  0  0  0  0
  147.8631  140.5358  154.5174 C   0  0  0  0  0  0  0  0  0  0  0  0
  147.0272  140.2907  155.3881 O   0  0  0  0  0  0  0  0  0  0  0  0
  147.6804  140.2418  153.2212 N   0  0  0  0  0  0  0  0  0  0  0  0
  146.5028  139.5841  152.6667 C   0  0  0  0  0  0  0  0  0  0  0  0
  146.8694  138.6169  151.5284 C   0  0  0  0  0  0  0  0  0  0  0  0
  145.9451  137.4151  151.4805 C   0  0  0  0  0  0  0  0  0  0  0  0
  146.1662  136.3732  150.5547 C   0  0  0  0  0  0  0  0  0  0  0  0
  145.2715  135.2856  150.5425 C   0  0  0  0  0  0  0  0  0  0  0  0
  144.1958  135.2821  151.4513 C   0  0  0  0  0  0  0  0  0  0  0  0
  144.0616  136.3715  152.3350 C   0  0  0  0  0  0  0  0  0  0  0  0
  144.9130  137.4198  152.3542 N   0  0  0  0  0  0  0  0  0  0  0  0
  151.8097  143.1195  160.4354 H   0  0  0  0  0  0  0  0  0  0  0  0
  150.3391  143.7092  161.2290 H   0  0  0  0  0  0  0  0  0  0  0  0
  151.8783  144.5463  161.4737 H   0  0  0  0  0  0  0  0  0  0  0  0
  150.5235  145.8641  159.8619 H   0  0  0  0  0  0  0  0  0  0  0  0
  152.1434  145.9319  157.9526 H   0  0  0  0  0  0  0  0  0  0  0  0
  152.7518  144.2578  158.3930 H   0  0  0  0  0  0  0  0  0  0  0  0
  149.7962  145.0477  157.6807 H   0  0  0  0  0  0  0  0  0  0  0  0
  149.5086  143.3723  156.1907 H   0  0  0  0  0  0  0  0  0  0  0  0
  150.3073  140.6053  156.6481 H   0  0  0  0  0  0  0  0  0  0  0  0
  148.6098  140.9108  156.9399 H   0  0  0  0  0  0  0  0  0  0  0  0
  149.1943  142.2166  154.4535 H   0  0  0  0  0  0  0  0  0  0  0  0
  149.9940  140.6623  154.3634 H   0  0  0  0  0  0  0  0  0  0  0  0
  148.4175  140.4784  152.5730 H   0  0  0  0  0  0  0  0  0  0  0  0
  146.0136  139.0390  153.4743 H   0  0  0  0  0  0  0  0  0  0  0  0
  145.7875  140.3311  152.3183 H   0  0  0  0  0  0  0  0  0  0  0  0
  146.8308  139.1314  150.5673 H   0  0  0  0  0  0  0  0  0  0  0  0
  147.8965  138.2693  151.6482 H   0  0  0  0  0  0  0  0  0  0  0  0
  146.9988  136.4066  149.8675 H   0  0  0  0  0  0  0  0  0  0  0  0
  145.4067  134.4697  149.8484 H   0  0  0  0  0  0  0  0  0  0  0  0
  143.4897  134.4652  151.4702 H   0  0  0  0  0  0  0  0  0  0  0  0
  143.2478  136.4020  153.0443 H   0  0  0  0  0  0  0  0  0  0  0  0
  1  2  1  0  0  0  0
  1 21  1  0  0  0  0
  1 22  1  0  0  0  0
  1 23  1  0  0  0  0
  2  4  1  0  0  0  0
  2  3  1  0  0  0  0
  2 24  1  0  0  0  0
  3  4  1  0  0  0  0
  3 25  1  0  0  0  0
  3 26  1  0  0  0  0
  4  5  1  0  0  0  0
  4 27  1  0  0  0  0
  5  6  2  0  0  0  0
  5  7  1  0  0  0  0
  7  8  1  0  0  0  0
  7 28  1  0  0  0  0
  8  9  1  0  0  0  0
  8 29  1  0  0  0  0
  8 30  1  0  0  0  0
  9 10  1  0  0  0  0
  9 31  1  0  0  0  0
  9 32  1  0  0  0  0
 10 11  2  0  0  0  0
 10 12  1  0  0  0  0
 12 13  1  0  0  0  0
 12 33  1  0  0  0  0
 13 14  1  0  0  0  0
 13 34  1  0  0  0  0
 13 35  1  0  0  0  0
 14 15  1  0  0  0  0
 14 36  1  0  0  0  0
 14 37  1  0  0  0  0
 15 20  1  0  0  0  0
 15 16  2  0  0  0  0
 16 17  1  0  0  0  0
 16 38  1  0  0  0  0
 17 18  2  0  0  0  0
 17 39  1  0  0  0  0
 18 19  1  0  0  0  0
 18 40  1  0  0  0  0
 19 20  2  0  0  0  0
 19 41  1  0  0  0  0
M  END
> <s_m_source_file>
AV-unprocessed.smi

> <i_m_source_file_index>
1356

> <i_lp_mmshare_version>
43012

> <i_f3d_flags>
0

> <s_epik_input>
W0NIM11bQ0BASF0xW0NIMl1bQ0BIXTFDKD1PKVtOSF1bQ0gyXVtDSDJdQyg9TylbTkhdW0NIMl1bQ0gyXWMyW2NIXVtjSF1bY0hdW2NIXW4y

> <s_epik_cmdline>
J2VwaWtfcHl0aG9uJywgJy1waCcsICc3LjAnLCAnLXRuJywgJzgnLCAnLW1hJywgJzIwMCcsICctbWV0YWxfYmluZGluZycsICctaW1hZScsICc8aW5maWxlLm1hZT4nLCAnLW9tYWUnLCAnPG91dGZpbGUubWFlPic=

> <r_epik_Ionization_Penalty>
0.0258005

> <r_epik_Ionization_Penalty_Charging>
0

> <r_epik_Ionization_Penalty_Neutral>
0.0258005

> <r_epik_State_Penalty>
0.0210245

> <r_epik_Charging_Adjusted_Penalty>
0.0210245

> <i_epik_Tot_Q>
0

> <i_epik_Tot_abs_Q>
0

> <r_epik_Metal_State_Penalty>
0.0201445

> <b_epik_Metal_Only>
0

> <s_lp_Force_Field>
OPLS_2005

> <r_lp_Energy>
8.2515

> <b_lp_Chiralities_Consistent>
1

> <s_lp_Variant>
AV-unprocessed.smi:1356-2

> <Gold.Version>
5.8.1

> <Gold.Id.Protein>
6NUR|6NUR_protein|mol2

> <Gold.PLP.Fitness>
48.2316

> <Gold.PLP.PLP>
-44.0340

> <Gold.PLP.part.hbond>
-2.0000

> <Gold.PLP.part.metal>
0.0000

> <Gold.PLP.part.buried>
0.5583

> <Gold.PLP.part.nonpolar>
-44.2267

> <Gold.PLP.part.repulsive>
0.4028

> <Gold.PLP.ligand.clash>
0.0000

> <Gold.PLP.ligand.torsion>
1.0698

> <Gold.PLP.Chemscore.Hbond>
1.9920

> <Gold.PLP.Chemscore.CHOScore>
0.0000

> <Gold.PLP.Chemscore.Metal>
0.0000

> <Gold.Chemscore.Hbonds>
donor molecule, donor type, donor heavy atom, donor atom, acceptor molecule, acceptor atom, score
      L1  H     7    28       P1  8028  1.00
      L1  H    12    33       P1  7957  1.00

> <Gold.PLP.Chemscore.Internal.Correction>
0.3612

> <Gold.Rescore>
     Score         DG    S(hbond)    S(metal)    S(lipo)     H(rot)  DE(clash)    DE(int)     intcor
     15.52     -18.84       1.86        0.00     108.76       2.18       0.68       2.65       ----

> <Gold.Chemscore.Fitness>
15.5230

> <Gold.Chemscore.DG>
-18.8449

> <Gold.Chemscore.ZeroCoef>
-5.4800

> <Gold.Chemscore.Hbond>
1.8587

> <Gold.Chemscore.Metal>
0.0000

> <Gold.Chemscore.Lipo>
108.7648

> <Gold.Chemscore.Internal_Hbond>
0.0000

> <Gold.Chemscore.DEClash>
0.6754

> <Gold.Chemscore.DEInternal>
2.6465

> <Gold.Chemscore.Rot>
2.1753

> <Gold.Chemscore.Internal.Correction>
   9.000000E+99

> <Gold.Chemscore.Hbonds>
donor molecule, donor type, donor heavy atom, donor atom, acceptor molecule, acceptor atom, score
      L1  H     7    28       P1  8028  0.97
      L1  H    12    33       P1  7957  0.96

> <Gold.Chemscore.Hbond.Weighted>
-6.2081

> <Gold.Chemscore.Metal.Weighted>
-0.0000

> <Gold.Chemscore.Lipo.Weighted>
-12.7255

> <Gold.Chemscore.Internal_Hbond.Weighted>
0.0000

> <Gold.Chemscore.DEClash.Weighted>
0.6754

> <Gold.Chemscore.DEInternal.Weighted>
2.6465

> <Gold.Chemscore.Rot.Weighted>
5.5687

> <Gold.Chemscore.Internal.Correction.Weighted>
   9.000000E+99

> <Gold.Protein.RotatedTorsions>
[ 6907 6896 6895 6894 ] final  -80.66 input  -60.11 | X-H torsion
[ 7974 7965 7964 7962 ] final  -62.97 input  175.53 | X-H torsion
[ 8008 7997 7996 7995 ] final -118.50 input   59.86 | X-H torsion
[ 10167 10162 10161 10158 ] final   71.62 input  -65.29 | X-H torsion
[ 10718 10713 10712 10709 ] final   40.42 input   66.30 | X-H torsion
[ 10763 10752 10751 10750 ] final   86.06 input  -60.55 | X-H torsion
[ 11005 11000 10999 10996 ] final  116.18 input  -57.11 | X-H torsion

> <Gold.Protein.ActiveResidues>
 VAL166  LYS551  ARG553  GLY616  TRP617  ASP618  TYR619  PRO620  LYS621  CYS622 
 ASP623  PHE694  ASN695  SER759  ASP760  ASP761  ALA762  ILE779  LEU786  VAL792 
 PHE793  MET794  SER795  GLU796  ALA797  LYS798  CYS799  TRP800  GLU811  SER814 

> <Gold.Protein.RotatedAtoms>
  150.6925  134.3935  159.5086 H   0  0  0  0  0  0  0  0  0  0  0  0  # atno 6907 bound_to 6896
  152.1720  134.8824  160.0543 H   0  0  0  0  0  0  0  0  0  0  0  0  # atno 6908 bound_to 6896
  151.9846  133.3735  159.4158 H   0  0  0  0  0  0  0  0  0  0  0  0  # atno 6909 bound_to 6896
  145.7847  140.8742  143.0312 H   0  0  0  0  0  0  0  0  0  0  0  0  # atno 7974 bound_to 7965
  155.1006  140.0396  157.2696 H   0  0  0  0  0  0  0  0  0  0  0  0  # atno 8008 bound_to 7997
  154.6761  140.2623  155.6931 H   0  0  0  0  0  0  0  0  0  0  0  0  # atno 8009 bound_to 7997
  156.2677  140.2788  156.1288 H   0  0  0  0  0  0  0  0  0  0  0  0  # atno 8010 bound_to 7997
  140.0442  144.5365  150.7411 H   0  0  0  0  0  0  0  0  0  0  0  0  # atno 10167 bound_to 10162
  157.3819  130.7758  149.7200 H   0  0  0  0  0  0  0  0  0  0  0  0  # atno 10718 bound_to 10713
  153.1534  135.4594  154.9669 H   0  0  0  0  0  0  0  0  0  0  0  0  # atno 10763 bound_to 10752
  154.7842  135.3198  154.7925 H   0  0  0  0  0  0  0  0  0  0  0  0  # atno 10764 bound_to 10752
  153.8426  135.6928  153.4855 H   0  0  0  0  0  0  0  0  0  0  0  0  # atno 10765 bound_to 10752
  139.9033  134.9594  156.7159 H   0  0  0  0  0  0  0  0  0  0  0  0  # atno 11005 bound_to 11000
  144.6791  140.0039  143.7484 LP  0  0  0  0  0  0  0  0  0  0  0  0  # atno 17320 bound_to 7965
  146.0038  139.3113  143.0912 LP  0  0  0  0  0  0  0  0  0  0  0  0  # atno 17321 bound_to 7965
  140.7246  143.2623  151.4163 LP  0  0  0  0  0  0  0  0  0  0  0  0  # atno 17342 bound_to 10162
  139.5994  144.1327  152.2181 LP  0  0  0  0  0  0  0  0  0  0  0  0  # atno 17343 bound_to 10162
  155.9778  130.4059  150.3691 LP  0  0  0  0  0  0  0  0  0  0  0  0  # atno 17370 bound_to 10713
  157.1796  131.0389  151.2755 LP  0  0  0  0  0  0  0  0  0  0  0  0  # atno 17371 bound_to 10713
  140.7039  133.9282  155.8041 LP  0  0  0  0  0  0  0  0  0  0  0  0  # atno 17394 bound_to 11000
  141.0351  134.0701  157.3969 LP  0  0  0  0  0  0  0  0  0  0  0  0  # atno 17395 bound_to 11000

$$$$
