AV-unprocessed.smi:392|AV-procd|sdf|2482|dock2
  -GOLD-   2262022423D 1   1.00000     0.00000
 Structure written by MMmdl.
 33 35  0  0  0  0  0  0  0  0  2 V2000
  152.8740  139.3727  156.7623 O   0  0  0  0  0  0  0  0  0  0  0  0
  151.8388  140.2665  157.1173 C   0  0  2  0  0  0  0  0  0  0  0  0
  151.3301  140.9438  155.8287 C   0  0  0  0  0  0  0  0  0  0  0  0
  150.5223  140.0424  154.9968 N   0  0  0  0  0  0  0  0  0  0  0  0
  150.8142  138.8059  154.5087 C   0  0  0  0  0  0  0  0  0  0  0  0
  149.7438  138.3904  153.7761 N   0  3  0  0  0  0  0  0  0  0  0  0
  148.7527  139.3743  153.7989 C   0  0  0  0  0  0  0  0  0  0  0  0
  147.4942  139.4161  153.2064 C   0  0  0  0  0  0  0  0  0  0  0  0
  146.7288  140.5802  153.4275 C   0  0  0  0  0  0  0  0  0  0  0  0
  147.2194  141.6444  154.2122 C   0  0  0  0  0  0  0  0  0  0  0  0
  148.4961  141.5906  154.8095 C   0  0  0  0  0  0  0  0  0  0  0  0
  149.2461  140.4375  154.5840 C   0  0  0  0  0  0  0  0  0  0  0  0
  152.2821  141.2825  158.1641 C   0  0  0  0  0  0  0  0  0  0  0  0
  151.9326  142.6449  158.0285 C   0  0  0  0  0  0  0  0  0  0  0  0
  152.3258  143.5817  159.0035 C   0  0  0  0  0  0  0  0  0  0  0  0
  153.0690  143.1632  160.1230 C   0  0  0  0  0  0  0  0  0  0  0  0
  153.4167  141.8068  160.2676 C   0  0  0  0  0  0  0  0  0  0  0  0
  153.0239  140.8677  159.2942 C   0  0  0  0  0  0  0  0  0  0  0  0
  153.3549  139.5640  159.4582 F   0  0  0  0  0  0  0  0  0  0  0  0
  152.5096  138.6932  156.2156 H   0  0  0  0  0  0  0  0  0  0  0  0
  151.0438  139.6495  157.5362 H   0  0  0  0  0  0  0  0  0  0  0  0
  150.7155  141.8129  156.0687 H   0  0  0  0  0  0  0  0  0  0  0  0
  152.1610  141.3095  155.2238 H   0  0  0  0  0  0  0  0  0  0  0  0
  151.7326  138.2588  154.6656 H   0  0  0  0  0  0  0  0  0  0  0  0
  147.1159  138.6028  152.6048 H   0  0  0  0  0  0  0  0  0  0  0  0
  145.7459  140.6589  152.9861 H   0  0  0  0  0  0  0  0  0  0  0  0
  146.6046  142.5206  154.3589 H   0  0  0  0  0  0  0  0  0  0  0  0
  148.8645  142.4106  155.4083 H   0  0  0  0  0  0  0  0  0  0  0  0
  151.3568  142.9771  157.1768 H   0  0  0  0  0  0  0  0  0  0  0  0
  152.0552  144.6217  158.8931 H   0  0  0  0  0  0  0  0  0  0  0  0
  153.3704  143.8817  160.8710 H   0  0  0  0  0  0  0  0  0  0  0  0
  153.9839  141.4852  161.1287 H   0  0  0  0  0  0  0  0  0  0  0  0
  149.6968  137.5012  153.2952 H   0  0  0  0  0  0  0  0  0  0  0  0
  1  2  1  0  0  0  0
  1 20  1  0  0  0  0
  2  3  1  0  0  0  0
  2 13  1  0  0  0  0
  2 21  1  0  0  0  0
  3  4  1  0  0  0  0
  3 22  1  0  0  0  0
  3 23  1  0  0  0  0
  4 12  1  0  0  0  0
  4  5  1  0  0  0  0
  5  6  2  0  0  0  0
  5 24  1  0  0  0  0
  6  7  1  0  0  0  0
  6 33  1  0  0  0  0
  7 12  2  0  0  0  0
  7  8  1  0  0  0  0
  8  9  2  0  0  0  0
  8 25  1  0  0  0  0
  9 10  1  0  0  0  0
  9 26  1  0  0  0  0
 10 11  2  0  0  0  0
 10 27  1  0  0  0  0
 11 12  1  0  0  0  0
 11 28  1  0  0  0  0
 13 18  1  0  0  0  0
 13 14  2  0  0  0  0
 14 15  1  0  0  0  0
 14 29  1  0  0  0  0
 15 16  2  0  0  0  0
 15 30  1  0  0  0  0
 16 17  1  0  0  0  0
 16 31  1  0  0  0  0
 17 18  2  0  0  0  0
 17 32  1  0  0  0  0
 18 19  1  0  0  0  0
M  CHG  1   6   1
M  END
> <s_m_source_file>
AV-unprocessed.smi

> <i_m_source_file_index>
392

> <i_lp_mmshare_version>
43012

> <i_f3d_flags>
0

> <s_epik_input>
RmMxW2NIXVtjSF1bY0hdW2NIXWMxW0NASF0oW09IXSlbQ0gyXW4oW2NIXW4yKWMoYzIzKVtjSF1bY0hdW2NIXVtjSF0z

> <s_epik_cmdline>
J2VwaWtfcHl0aG9uJywgJy1waCcsICc3LjAnLCAnLXRuJywgJzgnLCAnLW1hJywgJzIwMCcsICctbWV0YWxfYmluZGluZycsICctaW1hZScsICc8aW5maWxlLm1hZT4nLCAnLW9tYWUnLCAnPG91dGZpbGUubWFlPic=

> <r_epik_Ionization_Penalty>
1.3029

> <r_epik_Ionization_Penalty_Charging>
1.3029

> <r_epik_Ionization_Penalty_Neutral>
1.34362e-06

> <r_epik_State_Penalty>
1.377

> <r_epik_Charging_Adjusted_Penalty>
2.6799

> <i_epik_Tot_Q>
1

> <i_epik_Tot_abs_Q>
1

> <r_epik_Metal_State_Penalty>
5.40879

> <b_epik_Metal_Only>
0

> <s_lp_Force_Field>
OPLS_2005

> <r_lp_Energy>
17.8965

> <b_lp_Chiralities_Consistent>
1

> <s_lp_Variant>
AV-unprocessed.smi:392-3

> <Gold.Version>
5.8.1

> <Gold.Id.Protein>
6NUR|6NUR_protein|mol2

> <Gold.PLP.Fitness>
51.8868

> <Gold.PLP.PLP>
-43.9041

> <Gold.PLP.part.hbond>
-2.7255

> <Gold.PLP.part.metal>
0.0000

> <Gold.PLP.part.buried>
2.3850

> <Gold.PLP.part.nonpolar>
-43.4312

> <Gold.PLP.part.repulsive>
0.0576

> <Gold.PLP.ligand.clash>
0.0000

> <Gold.PLP.ligand.torsion>
0.5166

> <Gold.PLP.Chemscore.Hbond>
3.0000

> <Gold.PLP.Chemscore.CHOScore>
0.0000

> <Gold.PLP.Chemscore.Metal>
0.0000

> <Gold.Chemscore.Hbonds>
donor molecule, donor type, donor heavy atom, donor atom, acceptor molecule, acceptor atom, score
      L1  H     6    33       P1  7948  2.00
      P1  H  7997  8009       L1     1  1.00

> <Gold.PLP.Chemscore.Internal.Correction>
0.0159

> <Gold.Rescore>
     Score         DG    S(hbond)    S(metal)    S(lipo)     H(rot)  DE(clash)    DE(int)     intcor
     17.22     -20.04       1.86        0.00     114.24       1.97       0.97       1.85       ----

> <Gold.Chemscore.Fitness>
17.2197

> <Gold.Chemscore.DG>
-20.0357

> <Gold.Chemscore.ZeroCoef>
-5.4800

> <Gold.Chemscore.Hbond>
1.8643

> <Gold.Chemscore.Metal>
0.0000

> <Gold.Chemscore.Lipo>
114.2411

> <Gold.Chemscore.Internal_Hbond>
0.0000

> <Gold.Chemscore.DEClash>
0.9703

> <Gold.Chemscore.DEInternal>
1.8456

> <Gold.Chemscore.Rot>
1.9677

> <Gold.Chemscore.Internal.Correction>
   9.000000E+99

> <Gold.Chemscore.Hbonds>
donor molecule, donor type, donor heavy atom, donor atom, acceptor molecule, acceptor atom, score
      L1  H     6    33       P1  7948  0.64
      P1  H  7997  8009       L1     1  0.88

> <Gold.Chemscore.Hbond.Weighted>
-6.2266

> <Gold.Chemscore.Metal.Weighted>
-0.0000

> <Gold.Chemscore.Lipo.Weighted>
-13.3662

> <Gold.Chemscore.Internal_Hbond.Weighted>
0.0000

> <Gold.Chemscore.DEClash.Weighted>
0.9703

> <Gold.Chemscore.DEInternal.Weighted>
1.8456

> <Gold.Chemscore.Rot.Weighted>
5.0372

> <Gold.Chemscore.Internal.Correction.Weighted>
   9.000000E+99

> <Gold.Protein.RotatedTorsions>
[ 6907 6896 6895 6894 ] final   62.30 input  -60.11 | X-H torsion
[ 7974 7965 7964 7962 ] final -110.51 input  175.53 | X-H torsion
[ 8008 7997 7996 7995 ] final -178.77 input   59.86 | X-H torsion
[ 10167 10162 10161 10158 ] final    9.87 input  -65.29 | X-H torsion
[ 10718 10713 10712 10709 ] final  -92.92 input   66.30 | X-H torsion
[ 10763 10752 10751 10750 ] final -140.27 input  -60.55 | X-H torsion
[ 11005 11000 10999 10996 ] final -148.72 input  -57.11 | X-H torsion

> <Gold.Protein.ActiveResidues>
 VAL166  LYS551  ARG553  GLY616  TRP617  ASP618  TYR619  PRO620  LYS621  CYS622 
 ASP623  PHE694  ASN695  SER759  ASP760  ASP761  ALA762  ILE779  LEU786  VAL792 
 PHE793  MET794  SER795  GLU796  ALA797  LYS798  CYS799  TRP800  GLU811  SER814 

> <Gold.Protein.RotatedAtoms>
  152.4161  134.6039  160.0007 H   0  0  0  0  0  0  0  0  0  0  0  0  # atno 6907 bound_to 6896
  151.6202  133.3334  159.3094 H   0  0  0  0  0  0  0  0  0  0  0  0  # atno 6908 bound_to 6896
  150.8050  134.7208  159.6701 H   0  0  0  0  0  0  0  0  0  0  0  0  # atno 6909 bound_to 6896
  145.1674  140.8909  143.3555 H   0  0  0  0  0  0  0  0  0  0  0  0  # atno 7974 bound_to 7965
  156.0228  140.1265  157.0340 H   0  0  0  0  0  0  0  0  0  0  0  0  # atno 8008 bound_to 7997
  154.4318  140.1065  156.6057 H   0  0  0  0  0  0  0  0  0  0  0  0  # atno 8009 bound_to 7997
  155.5920  140.3469  155.4571 H   0  0  0  0  0  0  0  0  0  0  0  0  # atno 8010 bound_to 7997
  140.6229  143.8165  150.7197 H   0  0  0  0  0  0  0  0  0  0  0  0  # atno 10167 bound_to 10162
  156.0007  130.5006  150.5698 H   0  0  0  0  0  0  0  0  0  0  0  0  # atno 10718 bound_to 10713
  154.8584  135.3558  154.5681 H   0  0  0  0  0  0  0  0  0  0  0  0  # atno 10763 bound_to 10752
  153.6294  135.7003  153.5286 H   0  0  0  0  0  0  0  0  0  0  0  0  # atno 10764 bound_to 10752
  153.3062  135.4192  155.1255 H   0  0  0  0  0  0  0  0  0  0  0  0  # atno 10765 bound_to 10752
  140.7583  134.3328  157.5108 H   0  0  0  0  0  0  0  0  0  0  0  0  # atno 11005 bound_to 11000
  145.0268  139.3376  143.6045 LP  0  0  0  0  0  0  0  0  0  0  0  0  # atno 17320 bound_to 7965
  146.3473  139.9590  142.8719 LP  0  0  0  0  0  0  0  0  0  0  0  0  # atno 17321 bound_to 7965
  140.1759  143.4155  152.1967 LP  0  0  0  0  0  0  0  0  0  0  0  0  # atno 17342 bound_to 10162
  139.5454  144.7294  151.4600 LP  0  0  0  0  0  0  0  0  0  0  0  0  # atno 17343 bound_to 10162
  157.3595  131.0747  151.1648 LP  0  0  0  0  0  0  0  0  0  0  0  0  # atno 17370 bound_to 10713
  157.2438  130.6582  149.5901 LP  0  0  0  0  0  0  0  0  0  0  0  0  # atno 17371 bound_to 10713
  139.8775  134.9185  156.3205 LP  0  0  0  0  0  0  0  0  0  0  0  0  # atno 17394 bound_to 11000
  140.9687  133.7341  156.0504 LP  0  0  0  0  0  0  0  0  0  0  0  0  # atno 17395 bound_to 11000

$$$$
