AV-unprocessed.smi:1244|AV-procd|sdf|5228|dock9
  -GOLD-   22720 4333D 1   1.00000     0.00000
 Structure written by MMmdl.
 55 57  0  0  0  0  0  0  0  0  2 V2000
  147.0186  131.9783  153.2147 C   0  0  0  0  0  0  0  0  0  0  0  0
  146.5079  132.6187  151.9199 C   0  0  2  0  0  0  0  0  0  0  0  0
  146.2928  134.1351  152.0706 C   0  0  0  0  0  0  0  0  0  0  0  0
  145.7252  134.7270  150.8666 N   0  0  0  0  0  0  0  0  0  0  0  0
  145.5759  136.1753  151.0126 C   0  0  0  0  0  0  0  0  0  0  0  0
  144.6541  136.6351  152.1612 C   0  0  0  0  0  0  0  0  0  0  0  0
  145.0221  137.9495  152.6780 N   0  0  0  0  0  0  0  0  0  0  0  0
  146.2121  138.2664  153.2057 C   0  0  0  0  0  0  0  0  0  0  0  0
  147.1312  137.4609  153.3524 O   0  0  0  0  0  0  0  0  0  0  0  0
  146.2689  139.5698  153.5252 N   0  0  0  0  0  0  0  0  0  0  0  0
  147.4016  140.3044  153.9734 C   0  0  0  0  0  0  0  0  0  0  0  0
  148.6671  139.6796  154.1153 C   0  0  0  0  0  0  0  0  0  0  0  0
  149.7575  140.4086  154.6254 C   0  0  0  0  0  0  0  0  0  0  0  0
  149.5625  141.7480  155.0031 C   0  0  0  0  0  0  0  0  0  0  0  0
  148.3435  142.3098  154.8690 N   0  3  0  0  0  0  0  0  0  0  0  0
  147.2584  141.6661  154.3696 C   0  0  0  0  0  0  0  0  0  0  0  0
  146.0472  142.3902  154.2790 N   0  0  0  0  0  0  0  0  0  0  0  0
  145.3910  142.8865  155.4828 C   0  0  0  0  0  0  0  0  0  0  0  0
  144.3392  143.8726  154.9819 C   0  0  0  0  0  0  0  0  0  0  0  0
  145.0230  144.4954  153.7683 C   0  0  0  0  0  0  0  0  0  0  0  0
  145.8609  143.3483  153.1932 C   0  0  0  0  0  0  0  0  0  0  0  0
  144.4632  134.0601  150.5573 C   0  0  0  0  0  0  0  0  0  0  0  0
  144.6199  132.5323  150.4212 C   0  0  1  0  0  0  0  0  0  0  0  0
  145.3248  132.1085  149.1215 C   0  0  0  0  0  0  0  0  0  0  0  0
  145.2713  131.9966  151.5745 O   0  0  0  0  0  0  0  0  0  0  0  0
  147.9735  132.4100  153.5156 H   0  0  0  0  0  0  0  0  0  0  0  0
  147.1645  130.9054  153.0877 H   0  0  0  0  0  0  0  0  0  0  0  0
  146.3125  132.1240  154.0327 H   0  0  0  0  0  0  0  0  0  0  0  0
  147.2394  132.4314  151.1334 H   0  0  0  0  0  0  0  0  0  0  0  0
  145.6365  134.3284  152.9209 H   0  0  0  0  0  0  0  0  0  0  0  0
  147.2470  134.6107  152.3003 H   0  0  0  0  0  0  0  0  0  0  0  0
  146.5571  136.6368  151.1337 H   0  0  0  0  0  0  0  0  0  0  0  0
  145.1751  136.5809  150.0825 H   0  0  0  0  0  0  0  0  0  0  0  0
  143.6186  136.6786  151.8247 H   0  0  0  0  0  0  0  0  0  0  0  0
  144.6761  135.9037  152.9704 H   0  0  0  0  0  0  0  0  0  0  0  0
  144.3272  138.6770  152.5956 H   0  0  0  0  0  0  0  0  0  0  0  0
  145.4614  140.1221  153.2766 H   0  0  0  0  0  0  0  0  0  0  0  0
  148.8129  138.6407  153.8601 H   0  0  0  0  0  0  0  0  0  0  0  0
  150.7252  139.9418  154.7368 H   0  0  0  0  0  0  0  0  0  0  0  0
  150.3367  142.3820  155.4108 H   0  0  0  0  0  0  0  0  0  0  0  0
  144.9436  142.0748  156.0576 H   0  0  0  0  0  0  0  0  0  0  0  0
  146.1078  143.4067  156.1196 H   0  0  0  0  0  0  0  0  0  0  0  0
  143.4421  143.3360  154.6690 H   0  0  0  0  0  0  0  0  0  0  0  0
  144.0509  144.6065  155.7349 H   0  0  0  0  0  0  0  0  0  0  0  0
  144.3168  144.9072  153.0469 H   0  0  0  0  0  0  0  0  0  0  0  0
  145.6803  145.3034  154.0929 H   0  0  0  0  0  0  0  0  0  0  0  0
  146.8093  143.7114  152.7947 H   0  0  0  0  0  0  0  0  0  0  0  0
  145.3164  142.8605  152.3843 H   0  0  0  0  0  0  0  0  0  0  0  0
  143.7396  134.2722  151.3460 H   0  0  0  0  0  0  0  0  0  0  0  0
  144.0379  134.4561  149.6356 H   0  0  0  0  0  0  0  0  0  0  0  0
  143.6222  132.0932  150.4005 H   0  0  0  0  0  0  0  0  0  0  0  0
  144.7557  132.4287  148.2486 H   0  0  0  0  0  0  0  0  0  0  0  0
  145.4276  131.0244  149.0701 H   0  0  0  0  0  0  0  0  0  0  0  0
  146.3203  132.5428  149.0374 H   0  0  0  0  0  0  0  0  0  0  0  0
  148.2337  143.2831  155.1541 H   0  0  0  0  0  0  0  0  0  0  0  0
  1  2  1  0  0  0  0
  1 26  1  0  0  0  0
  1 27  1  0  0  0  0
  1 28  1  0  0  0  0
  2 25  1  0  0  0  0
  2  3  1  0  0  0  0
  2 29  1  0  0  0  0
  3  4  1  0  0  0  0
  3 30  1  0  0  0  0
  3 31  1  0  0  0  0
  4  5  1  0  0  0  0
  4 22  1  0  0  0  0
  5  6  1  0  0  0  0
  5 32  1  0  0  0  0
  5 33  1  0  0  0  0
  6  7  1  0  0  0  0
  6 34  1  0  0  0  0
  6 35  1  0  0  0  0
  7  8  1  0  0  0  0
  7 36  1  0  0  0  0
  8  9  2  0  0  0  0
  8 10  1  0  0  0  0
 10 11  1  0  0  0  0
 10 37  1  0  0  0  0
 11 16  1  0  0  0  0
 11 12  2  0  0  0  0
 12 13  1  0  0  0  0
 12 38  1  0  0  0  0
 13 14  2  0  0  0  0
 13 39  1  0  0  0  0
 14 15  1  0  0  0  0
 14 40  1  0  0  0  0
 15 16  2  0  0  0  0
 15 55  1  0  0  0  0
 16 17  1  0  0  0  0
 17 21  1  0  0  0  0
 17 18  1  0  0  0  0
 18 19  1  0  0  0  0
 18 41  1  0  0  0  0
 18 42  1  0  0  0  0
 19 20  1  0  0  0  0
 19 43  1  0  0  0  0
 19 44  1  0  0  0  0
 20 21  1  0  0  0  0
 20 45  1  0  0  0  0
 20 46  1  0  0  0  0
 21 47  1  0  0  0  0
 21 48  1  0  0  0  0
 22 23  1  0  0  0  0
 22 49  1  0  0  0  0
 22 50  1  0  0  0  0
 23 24  1  0  0  0  0
 23 25  1  0  0  0  0
 23 51  1  0  0  0  0
 24 52  1  0  0  0  0
 24 53  1  0  0  0  0
 24 54  1  0  0  0  0
M  CHG  1  15   1
M  END
> <s_m_source_file>
AV-unprocessed.smi

> <i_m_source_file_index>
1244

> <i_lp_mmshare_version>
43012

> <i_f3d_flags>
0

> <s_epik_input>
W0NIM11bQ0BASF0xW0NIMl1OKFtDSDJdW0NASF0oTzEpW0NIM10pW0NIMl1bQ0gyXVtOSF1DKD1PKVtOSF1jMltjSF1bY0hdW2NIXW5jMk4zW0NIMl1bQ0gyXVtDSDJdW0NIMl0z

> <s_epik_cmdline>
J2VwaWtfcHl0aG9uJywgJy1waCcsICc3LjAnLCAnLXRuJywgJzgnLCAnLW1hJywgJzIwMCcsICctbWV0YWxfYmluZGluZycsICctaW1hZScsICc8aW5maWxlLm1hZT4nLCAnLW9tYWUnLCAnPG91dGZpbGUubWFlPic=

> <r_epik_Ionization_Penalty>
1.38385

> <r_epik_Ionization_Penalty_Charging>
1.11784

> <r_epik_Ionization_Penalty_Neutral>
0.26601

> <r_epik_State_Penalty>
1.46794

> <r_epik_Charging_Adjusted_Penalty>
2.58578

> <i_epik_Tot_Q>
1

> <i_epik_Tot_abs_Q>
1

> <r_epik_Metal_State_Penalty>
1.54908

> <b_epik_Metal_Only>
0

> <s_lp_Force_Field>
OPLS_2005

> <r_lp_Energy>
60.0137

> <b_lp_Chiralities_Consistent>
1

> <s_lp_Variant>
AV-unprocessed.smi:1244-8

> <Gold.Version>
5.8.1

> <Gold.Id.Protein>
6NUR|6NUR_protein|mol2

> <Gold.PLP.Fitness>
53.1459

> <Gold.PLP.PLP>
-41.5636

> <Gold.PLP.part.hbond>
-3.5634

> <Gold.PLP.part.metal>
0.0000

> <Gold.PLP.part.buried>
-6.2694

> <Gold.PLP.part.nonpolar>
-34.6104

> <Gold.PLP.part.repulsive>
3.4903

> <Gold.PLP.ligand.clash>
0.0000

> <Gold.PLP.ligand.torsion>
0.4198

> <Gold.PLP.Chemscore.Hbond>
4.0000

> <Gold.PLP.Chemscore.CHOScore>
0.0000

> <Gold.PLP.Chemscore.Metal>
0.0000

> <Gold.Chemscore.Hbonds>
donor molecule, donor type, donor heavy atom, donor atom, acceptor molecule, acceptor atom, score
      L1  H     7    36       P1 10175  1.00
      L1  H    10    37       P1 10175  1.00
      L1  H    15    55       P1  8028  2.00

> <Gold.PLP.Chemscore.Internal.Correction>
0.4218

> <Gold.Rescore>
     Score         DG    S(hbond)    S(metal)    S(lipo)     H(rot)  DE(clash)    DE(int)     intcor
     19.45     -23.96       2.89        0.00     109.95       1.58       2.59       1.92       ----

> <Gold.Chemscore.Fitness>
19.4527

> <Gold.Chemscore.DG>
-23.9610

> <Gold.Chemscore.ZeroCoef>
-5.4800

> <Gold.Chemscore.Hbond>
2.8923

> <Gold.Chemscore.Metal>
0.0000

> <Gold.Chemscore.Lipo>
109.9546

> <Gold.Chemscore.Internal_Hbond>
0.0000

> <Gold.Chemscore.DEClash>
2.5912

> <Gold.Chemscore.DEInternal>
1.9171

> <Gold.Chemscore.Rot>
1.5797

> <Gold.Chemscore.Internal.Correction>
   9.000000E+99

> <Gold.Chemscore.Hbonds>
donor molecule, donor type, donor heavy atom, donor atom, acceptor molecule, acceptor atom, score
      L1  H     7    36       P1 10175  0.99
      L1  H    10    37       P1 10175  0.96
      L1  H    15    55       P1  8028  0.92

> <Gold.Chemscore.Hbond.Weighted>
-9.6603

> <Gold.Chemscore.Metal.Weighted>
-0.0000

> <Gold.Chemscore.Lipo.Weighted>
-12.8647

> <Gold.Chemscore.Internal_Hbond.Weighted>
0.0000

> <Gold.Chemscore.DEClash.Weighted>
2.5912

> <Gold.Chemscore.DEInternal.Weighted>
1.9171

> <Gold.Chemscore.Rot.Weighted>
4.0439

> <Gold.Chemscore.Internal.Correction.Weighted>
   9.000000E+99

> <Gold.Protein.RotatedTorsions>
[ 6907 6896 6895 6894 ] final -126.02 input  -60.11 | X-H torsion
[ 7974 7965 7964 7962 ] final  139.25 input  175.53 | X-H torsion
[ 8008 7997 7996 7995 ] final   85.03 input   59.86 | X-H torsion
[ 10167 10162 10161 10158 ] final   38.25 input  -65.29 | X-H torsion
[ 10718 10713 10712 10709 ] final   -4.46 input   66.30 | X-H torsion
[ 10763 10752 10751 10750 ] final   47.98 input  -60.55 | X-H torsion
[ 11005 11000 10999 10996 ] final  116.76 input  -57.11 | X-H torsion

> <Gold.Protein.ActiveResidues>
 VAL166  LYS551  ARG553  GLY616  TRP617  ASP618  TYR619  PRO620  LYS621  CYS622 
 ASP623  PHE694  ASN695  SER759  ASP760  ASP761  ALA762  ILE779  LEU786  VAL792 
 PHE793  MET794  SER795  GLU796  ALA797  LYS798  CYS799  TRP800  GLU811  SER814 

> <Gold.Protein.RotatedAtoms>
  150.8926  133.7222  159.2900 H   0  0  0  0  0  0  0  0  0  0  0  0  # atno 6907 bound_to 6896
  151.4767  135.1048  159.9776 H   0  0  0  0  0  0  0  0  0  0  0  0  # atno 6908 bound_to 6896
  152.4829  133.8253  159.7130 H   0  0  0  0  0  0  0  0  0  0  0  0  # atno 6909 bound_to 6896
  144.9296  139.5064  143.5624 H   0  0  0  0  0  0  0  0  0  0  0  0  # atno 7974 bound_to 7965
  155.9448  140.3405  155.6358 H   0  0  0  0  0  0  0  0  0  0  0  0  # atno 8008 bound_to 7997
  155.6994  140.0758  157.2435 H   0  0  0  0  0  0  0  0  0  0  0  0  # atno 8009 bound_to 7997
  154.4110  140.1642  156.2162 H   0  0  0  0  0  0  0  0  0  0  0  0  # atno 8010 bound_to 7997
  140.3955  144.1795  150.6132 H   0  0  0  0  0  0  0  0  0  0  0  0  # atno 10167 bound_to 10162
  156.7609  130.5269  149.5785 H   0  0  0  0  0  0  0  0  0  0  0  0  # atno 10718 bound_to 10713
  152.9795  135.5959  154.3851 H   0  0  0  0  0  0  0  0  0  0  0  0  # atno 10763 bound_to 10752
  154.3512  135.2767  155.2373 H   0  0  0  0  0  0  0  0  0  0  0  0  # atno 10764 bound_to 10752
  154.4411  135.6013  153.6185 H   0  0  0  0  0  0  0  0  0  0  0  0  # atno 10765 bound_to 10752
  139.9052  134.9602  156.7248 H   0  0  0  0  0  0  0  0  0  0  0  0  # atno 11005 bound_to 11000
  146.3241  139.8237  142.8922 LP  0  0  0  0  0  0  0  0  0  0  0  0  # atno 17320 bound_to 7965
  145.3163  141.0233  143.3526 LP  0  0  0  0  0  0  0  0  0  0  0  0  # atno 17321 bound_to 7965
  140.4795  143.2384  151.8975 LP  0  0  0  0  0  0  0  0  0  0  0  0  # atno 17342 bound_to 10162
  139.4787  144.5284  151.8702 LP  0  0  0  0  0  0  0  0  0  0  0  0  # atno 17343 bound_to 10162
  156.1339  130.6198  151.0373 LP  0  0  0  0  0  0  0  0  0  0  0  0  # atno 17370 bound_to 10713
  157.6735  131.0856  150.7554 LP  0  0  0  0  0  0  0  0  0  0  0  0  # atno 17371 bound_to 10713
  140.6972  133.9338  155.8002 LP  0  0  0  0  0  0  0  0  0  0  0  0  # atno 17394 bound_to 11000
  141.0398  134.0637  157.3915 LP  0  0  0  0  0  0  0  0  0  0  0  0  # atno 17395 bound_to 11000

$$$$
