AV-unprocessed.smi:1115|AV-procd|sdf|4806|dock10
  -GOLD-   22720 3353D 1   1.00000     0.00000
 Structure written by MMmdl.
 51 52  0  0  0  0  0  0  0  0  4 V2000
  152.3764  145.3941  158.6016 C   0  0  0  0  0  0  0  0  0  0  0  0
  151.2511  144.4872  158.7851 N   0  0  0  0  0  0  0  0  0  0  0  0
  150.0892  144.9067  159.5605 C   0  0  0  0  0  0  0  0  0  0  0  0
  151.3546  143.1485  158.3491 C   0  0  0  0  0  0  0  0  0  0  0  0
  152.1064  142.1650  159.0376 C   0  0  0  0  0  0  0  0  0  0  0  0
  152.1602  140.8471  158.5395 C   0  0  0  0  0  0  0  0  0  0  0  0
  151.4738  140.5164  157.3534 C   0  0  0  0  0  0  0  0  0  0  0  0
  151.5384  139.1695  156.9044 N   0  0  0  0  0  0  0  0  0  0  0  0
  151.6089  138.6933  155.6483 C   0  0  0  0  0  0  0  0  0  0  0  0
  151.6704  139.4688  154.6878 O   0  0  0  0  0  0  0  0  0  0  0  0
  151.6208  137.3341  155.6180 N   0  5  0  0  0  0  0  0  0  0  0  0
  150.8496  136.5185  154.6729 C   0  0  0  0  0  0  0  0  0  0  0  0
  149.5071  136.0235  155.3181 C   0  0  0  0  0  0  0  0  0  0  0  0
  149.7873  135.3476  156.6897 C   0  0  0  0  0  0  0  0  0  0  0  0
  148.6225  137.2698  155.6354 C   0  0  0  0  0  0  0  0  0  0  0  0
  148.8261  135.0583  154.3674 N   0  3  0  0  0  0  0  0  0  0  0  0
  149.5393  133.7706  154.1051 C   0  0  0  0  0  0  0  0  0  0  0  0
  148.8779  133.0154  152.9437 C   0  0  0  0  0  0  0  0  0  0  0  0
  147.5220  132.7510  153.2733 O   0  0  0  0  0  0  0  0  0  0  0  0
  146.7858  133.9514  153.4579 C   0  0  0  0  0  0  0  0  0  0  0  0
  147.3835  134.7743  154.6132 C   0  0  0  0  0  0  0  0  0  0  0  0
  150.7266  141.5296  156.7082 C   0  0  0  0  0  0  0  0  0  0  0  0
  150.7019  142.7793  157.2199 N   0  3  0  0  0  0  0  0  0  0  0  0
  153.2736  144.9931  159.0735 H   0  0  0  0  0  0  0  0  0  0  0  0
  152.1756  146.3701  159.0438 H   0  0  0  0  0  0  0  0  0  0  0  0
  152.5774  145.5445  157.5407 H   0  0  0  0  0  0  0  0  0  0  0  0
  150.0352  144.3531  160.4982 H   0  0  0  0  0  0  0  0  0  0  0  0
  149.1705  144.7323  159.0000 H   0  0  0  0  0  0  0  0  0  0  0  0
  150.1349  145.9693  159.7998 H   0  0  0  0  0  0  0  0  0  0  0  0
  152.6454  142.3983  159.9435 H   0  0  0  0  0  0  0  0  0  0  0  0
  152.7316  140.0965  159.0660 H   0  0  0  0  0  0  0  0  0  0  0  0
  151.5927  138.4718  157.6318 H   0  0  0  0  0  0  0  0  0  0  0  0
  150.6170  137.0863  153.7714 H   0  0  0  0  0  0  0  0  0  0  0  0
  151.4211  135.6562  154.3273 H   0  0  0  0  0  0  0  0  0  0  0  0
  150.1933  136.0525  157.4184 H   0  0  0  0  0  0  0  0  0  0  0  0
  150.4934  134.5168  156.6330 H   0  0  0  0  0  0  0  0  0  0  0  0
  148.8665  134.9537  157.1213 H   0  0  0  0  0  0  0  0  0  0  0  0
  149.1317  137.9923  156.2776 H   0  0  0  0  0  0  0  0  0  0  0  0
  147.7194  136.9905  156.1794 H   0  0  0  0  0  0  0  0  0  0  0  0
  148.3050  137.8084  154.7400 H   0  0  0  0  0  0  0  0  0  0  0  0
  150.5873  133.9376  153.8574 H   0  0  0  0  0  0  0  0  0  0  0  0
  149.5178  133.1409  154.9954 H   0  0  0  0  0  0  0  0  0  0  0  0
  148.9430  133.5865  152.0160 H   0  0  0  0  0  0  0  0  0  0  0  0
  149.3892  132.0678  152.7728 H   0  0  0  0  0  0  0  0  0  0  0  0
  146.7807  134.5312  152.5335 H   0  0  0  0  0  0  0  0  0  0  0  0
  145.7485  133.6976  153.6768 H   0  0  0  0  0  0  0  0  0  0  0  0
  147.2687  134.2430  155.5589 H   0  0  0  0  0  0  0  0  0  0  0  0
  146.7980  135.6898  154.6782 H   0  0  0  0  0  0  0  0  0  0  0  0
  150.1372  141.3929  155.8142 H   0  0  0  0  0  0  0  0  0  0  0  0
  150.1548  143.4854  156.7275 H   0  0  0  0  0  0  0  0  0  0  0  0
  148.8407  135.5600  153.4896 H   0  0  0  0  0  0  0  0  0  0  0  0
  1  2  1  0  0  0  0
  1 24  1  0  0  0  0
  1 25  1  0  0  0  0
  1 26  1  0  0  0  0
  2  3  1  0  0  0  0
  2  4  1  0  0  0  0
  3 27  1  0  0  0  0
  3 28  1  0  0  0  0
  3 29  1  0  0  0  0
  4 23  1  0  0  0  0
  4  5  2  0  0  0  0
  5  6  1  0  0  0  0
  5 30  1  0  0  0  0
  6  7  2  0  0  0  0
  6 31  1  0  0  0  0
  7  8  1  0  0  0  0
  7 22  1  0  0  0  0
  8  9  1  0  0  0  0
  8 32  1  0  0  0  0
  9 10  2  0  0  0  0
  9 11  1  0  0  0  0
 11 12  1  0  0  0  0
 12 13  1  0  0  0  0
 12 33  1  0  0  0  0
 12 34  1  0  0  0  0
 13 14  1  0  0  0  0
 13 15  1  0  0  0  0
 13 16  1  0  0  0  0
 14 35  1  0  0  0  0
 14 36  1  0  0  0  0
 14 37  1  0  0  0  0
 15 38  1  0  0  0  0
 15 39  1  0  0  0  0
 15 40  1  0  0  0  0
 16 21  1  0  0  0  0
 16 17  1  0  0  0  0
 16 51  1  0  0  0  0
 17 18  1  0  0  0  0
 17 41  1  0  0  0  0
 17 42  1  0  0  0  0
 18 19  1  0  0  0  0
 18 43  1  0  0  0  0
 18 44  1  0  0  0  0
 19 20  1  0  0  0  0
 20 21  1  0  0  0  0
 20 45  1  0  0  0  0
 20 46  1  0  0  0  0
 21 47  1  0  0  0  0
 21 48  1  0  0  0  0
 22 23  2  0  0  0  0
 22 49  1  0  0  0  0
 23 50  1  0  0  0  0
M  CHG  1  11  -1
M  CHG  1  16   1
M  CHG  1  23   1
M  END
> <s_m_source_file>
AV-unprocessed.smi

> <i_m_source_file_index>
1115

> <i_lp_mmshare_version>
43012

> <i_f3d_flags>
0

> <s_epik_input>
W0NIM11OKFtDSDNdKWMxW2NIXVtjSF1jKFtjSF1uMSlbTkhdQyg9TylbTkhdW0NIMl1DKFtDSDNdKShbQ0gzXSlOMltDSDJdW0NIMl1PW0NIMl1bQ0gyXTI=

> <s_epik_cmdline>
J2VwaWtfcHl0aG9uJywgJy1waCcsICc3LjAnLCAnLXRuJywgJzgnLCAnLW1hJywgJzIwMCcsICctbWV0YWxfYmluZGluZycsICctaW1hZScsICc8aW5maWxlLm1hZT4nLCAnLW9tYWUnLCAnPG91dGZpbGUubWFlPic=

> <r_lp_tautomer_probability>
0.999994

> <r_epik_Ionization_Penalty>
7.4335

> <r_epik_Ionization_Penalty_Charging>
7.4335

> <r_epik_Ionization_Penalty_Neutral>
3.43851e-06

> <r_epik_State_Penalty>
7.6346

> <r_epik_Charging_Adjusted_Penalty>
15.0681

> <i_epik_Tot_Q>
1

> <i_epik_Tot_abs_Q>
3

> <r_epik_Metal_State_Penalty>
3.83601

> <b_epik_Metal_Only>
1

> <s_lp_Force_Field>
OPLS_2005

> <r_lp_Energy>
31.3993

> <b_lp_Chiralities_Consistent>
1

> <s_lp_Variant>
AV-unprocessed.smi:1115-5

> <Gold.Version>
5.8.1

> <Gold.Id.Protein>
6NUR|6NUR_protein|mol2

> <Gold.PLP.Fitness>
47.3386

> <Gold.PLP.PLP>
-37.1145

> <Gold.PLP.part.hbond>
-2.9284

> <Gold.PLP.part.metal>
0.0000

> <Gold.PLP.part.buried>
-6.7048

> <Gold.PLP.part.nonpolar>
-27.7096

> <Gold.PLP.part.repulsive>
0.2993

> <Gold.PLP.ligand.clash>
0.0000

> <Gold.PLP.ligand.torsion>
2.4788

> <Gold.PLP.Chemscore.Hbond>
4.9825

> <Gold.PLP.Chemscore.CHOScore>
0.0000

> <Gold.PLP.Chemscore.Metal>
0.0000

> <Gold.Chemscore.Hbonds>
donor molecule, donor type, donor heavy atom, donor atom, acceptor molecule, acceptor atom, score
      L1  H    16    51       P1  7948  2.00
      L1  H    23    50       P1  8028  1.85
      P1  H  7989  7998       L1    10  1.00

> <Gold.PLP.Chemscore.Internal.Correction>
0.2342

> <Gold.Rescore>
     Score         DG    S(hbond)    S(metal)    S(lipo)     H(rot)  DE(clash)    DE(int)     intcor
     17.17     -21.07       2.95        0.00      81.04       1.46       0.57       3.33       ----

> <Gold.Chemscore.Fitness>
17.1729

> <Gold.Chemscore.DG>
-21.0733

> <Gold.Chemscore.ZeroCoef>
-5.4800

> <Gold.Chemscore.Hbond>
2.9526

> <Gold.Chemscore.Metal>
0.0000

> <Gold.Chemscore.Lipo>
81.0400

> <Gold.Chemscore.Internal_Hbond>
0.0000

> <Gold.Chemscore.DEClash>
0.5722

> <Gold.Chemscore.DEInternal>
3.3282

> <Gold.Chemscore.Rot>
1.4648

> <Gold.Chemscore.Internal.Correction>
   9.000000E+99

> <Gold.Chemscore.Hbonds>
donor molecule, donor type, donor heavy atom, donor atom, acceptor molecule, acceptor atom, score
      L1  H    16    51       P1  7948  0.91
      L1  H    23    50       P1  8028  0.89
      P1  H  7989  7998       L1    10  0.99

> <Gold.Chemscore.Hbond.Weighted>
-9.8615

> <Gold.Chemscore.Metal.Weighted>
-0.0000

> <Gold.Chemscore.Lipo.Weighted>
-9.4817

> <Gold.Chemscore.Internal_Hbond.Weighted>
0.0000

> <Gold.Chemscore.DEClash.Weighted>
0.5722

> <Gold.Chemscore.DEInternal.Weighted>
3.3282

> <Gold.Chemscore.Rot.Weighted>
3.7499

> <Gold.Chemscore.Internal.Correction.Weighted>
   9.000000E+99

> <Gold.Protein.RotatedTorsions>
[ 6907 6896 6895 6894 ] final    7.26 input  -60.11 | X-H torsion
[ 7974 7965 7964 7962 ] final   86.86 input  175.53 | X-H torsion
[ 8008 7997 7996 7995 ] final   49.94 input   59.86 | X-H torsion
[ 10167 10162 10161 10158 ] final  145.40 input  -65.29 | X-H torsion
[ 10718 10713 10712 10709 ] final   26.94 input   66.30 | X-H torsion
[ 10763 10752 10751 10750 ] final   86.73 input  -60.55 | X-H torsion
[ 11005 11000 10999 10996 ] final   95.91 input  -57.11 | X-H torsion

> <Gold.Protein.ActiveResidues>
 VAL166  LYS551  ARG553  GLY616  TRP617  ASP618  TYR619  PRO620  LYS621  CYS622 
 ASP623  PHE694  ASN695  SER759  ASP760  ASP761  ALA762  ILE779  LEU786  VAL792 
 PHE793  MET794  SER795  GLU796  ALA797  LYS798  CYS799  TRP800  GLU811  SER814 

> <Gold.Protein.RotatedAtoms>
  151.6869  135.0953  160.0226 H   0  0  0  0  0  0  0  0  0  0  0  0  # atno 6907 bound_to 6896
  152.3802  133.6531  159.6163 H   0  0  0  0  0  0  0  0  0  0  0  0  # atno 6908 bound_to 6896
  150.7740  133.9044  159.3392 H   0  0  0  0  0  0  0  0  0  0  0  0  # atno 6909 bound_to 6896
  145.5667  139.2309  143.2429 H   0  0  0  0  0  0  0  0  0  0  0  0  # atno 7974 bound_to 7965
  155.4105  140.3442  155.4263 H   0  0  0  0  0  0  0  0  0  0  0  0  # atno 8008 bound_to 7997
  156.1451  140.1554  156.8890 H   0  0  0  0  0  0  0  0  0  0  0  0  # atno 8009 bound_to 7997
  154.5004  140.0816  156.7766 H   0  0  0  0  0  0  0  0  0  0  0  0  # atno 8010 bound_to 7997
  139.4927  144.5904  151.6692 H   0  0  0  0  0  0  0  0  0  0  0  0  # atno 10167 bound_to 10162
  157.2135  130.6945  149.6239 H   0  0  0  0  0  0  0  0  0  0  0  0  # atno 10718 bound_to 10713
  153.1599  135.4569  154.9757 H   0  0  0  0  0  0  0  0  0  0  0  0  # atno 10763 bound_to 10752
  154.7889  135.3214  154.7824 H   0  0  0  0  0  0  0  0  0  0  0  0  # atno 10764 bound_to 10752
  153.8316  135.6938  153.4868 H   0  0  0  0  0  0  0  0  0  0  0  0  # atno 10765 bound_to 10752
  139.8785  134.8923  156.4080 H   0  0  0  0  0  0  0  0  0  0  0  0  # atno 11005 bound_to 11000
  146.1813  140.6493  142.9188 LP  0  0  0  0  0  0  0  0  0  0  0  0  # atno 17320 bound_to 7965
  144.7457  140.5061  143.6837 LP  0  0  0  0  0  0  0  0  0  0  0  0  # atno 17321 bound_to 7965
  140.5530  144.0394  150.6135 LP  0  0  0  0  0  0  0  0  0  0  0  0  # atno 17342 bound_to 10162
  140.3455  143.2994  152.0543 LP  0  0  0  0  0  0  0  0  0  0  0  0  # atno 17343 bound_to 10162
  155.9688  130.4543  150.5845 LP  0  0  0  0  0  0  0  0  0  0  0  0  # atno 17370 bound_to 10713
  157.3648  131.0756  151.1607 LP  0  0  0  0  0  0  0  0  0  0  0  0  # atno 17371 bound_to 10713
  140.9220  133.7638  155.9918 LP  0  0  0  0  0  0  0  0  0  0  0  0  # atno 17394 bound_to 11000
  140.8429  134.3046  157.5306 LP  0  0  0  0  0  0  0  0  0  0  0  0  # atno 17395 bound_to 11000

$$$$
