AV-unprocessed.smi:3159|AV-procd|sdf|12049|dock1
  -GOLD-   2272017473D 1   1.00000     0.00000
 Structure written by MMmdl.
 35 36  0  0  0  0  0  0  0  0  1 V2000
  151.9952  144.4685  157.7044 C   0  0  0  0  0  0  0  0  0  0  0  0
  152.4268  143.6676  158.8973 C   0  0  0  0  0  0  0  0  0  0  0  0
  153.0085  142.3665  158.9172 C   0  0  0  0  0  0  0  0  0  0  0  0
  153.1943  142.1402  160.2538 C   0  0  0  0  0  0  0  0  0  0  0  0
  153.7185  141.0485  160.8719 N   0  0  0  0  0  0  0  0  0  0  0  0
  154.1615  139.9038  160.3235 C   0  0  0  0  0  0  0  0  0  0  0  0
  154.1560  139.6391  159.1211 O   0  0  0  0  0  0  0  0  0  0  0  0
  154.6186  139.0637  161.2635 N   0  0  0  0  0  0  0  0  0  0  0  0
  155.1740  137.7364  161.0165 C   0  0  0  0  0  0  0  0  0  0  0  0
  155.0528  136.8244  162.2518 C   0  0  2  0  0  0  0  0  0  0  0  0
  153.7047  136.9021  162.9388 C   0  0  0  0  0  0  0  0  0  0  0  0
  154.0109  136.3076  164.3107 C   0  0  0  0  0  0  0  0  0  0  0  0
  155.3769  136.6153  164.5751 O   0  0  0  0  0  0  0  0  0  0  0  0
  155.9860  137.1707  163.4136 C   0  0  0  0  0  0  0  0  0  0  0  0
  152.7492  143.2376  160.9569 N   0  0  0  0  0  0  0  0  0  0  0  0
  152.7339  143.4709  162.3879 C   0  0  0  0  0  0  0  0  0  0  0  0
  152.2747  144.1797  160.1134 N   0  0  0  0  0  0  0  0  0  0  0  0
  152.1574  143.9155  156.7789 H   0  0  0  0  0  0  0  0  0  0  0  0
  152.5546  145.4017  157.6353 H   0  0  0  0  0  0  0  0  0  0  0  0
  150.9350  144.7172  157.7602 H   0  0  0  0  0  0  0  0  0  0  0  0
  153.2408  141.7259  158.0799 H   0  0  0  0  0  0  0  0  0  0  0  0
  153.7900  141.1171  161.8762 H   0  0  0  0  0  0  0  0  0  0  0  0
  154.5825  139.3657  162.2262 H   0  0  0  0  0  0  0  0  0  0  0  0
  154.7053  137.2726  160.1467 H   0  0  0  0  0  0  0  0  0  0  0  0
  156.2264  137.8629  160.7616 H   0  0  0  0  0  0  0  0  0  0  0  0
  155.2294  135.7884  161.9568 H   0  0  0  0  0  0  0  0  0  0  0  0
  153.3911  137.9417  163.0455 H   0  0  0  0  0  0  0  0  0  0  0  0
  152.9202  136.3616  162.4086 H   0  0  0  0  0  0  0  0  0  0  0  0
  153.3557  136.7003  165.0886 H   0  0  0  0  0  0  0  0  0  0  0  0
  153.8989  135.2228  164.2894 H   0  0  0  0  0  0  0  0  0  0  0  0
  156.9952  136.7839  163.2709 H   0  0  0  0  0  0  0  0  0  0  0  0
  156.0536  138.2515  163.5453 H   0  0  0  0  0  0  0  0  0  0  0  0
  153.7230  143.2758  162.8029 H   0  0  0  0  0  0  0  0  0  0  0  0
  152.0109  142.8043  162.8585 H   0  0  0  0  0  0  0  0  0  0  0  0
  152.4585  144.5036  162.6060 H   0  0  0  0  0  0  0  0  0  0  0  0
  1  2  1  0  0  0  0
  1 18  1  0  0  0  0
  1 19  1  0  0  0  0
  1 20  1  0  0  0  0
  2 17  2  0  0  0  0
  2  3  1  0  0  0  0
  3  4  2  0  0  0  0
  3 21  1  0  0  0  0
  4  5  1  0  0  0  0
  4 15  1  0  0  0  0
  5  6  1  0  0  0  0
  5 22  1  0  0  0  0
  6  7  2  0  0  0  0
  6  8  1  0  0  0  0
  8  9  1  0  0  0  0
  8 23  1  0  0  0  0
  9 10  1  0  0  0  0
  9 24  1  0  0  0  0
  9 25  1  0  0  0  0
 10 14  1  0  0  0  0
 10 11  1  0  0  0  0
 10 26  1  0  0  0  0
 11 12  1  0  0  0  0
 11 27  1  0  0  0  0
 11 28  1  0  0  0  0
 12 13  1  0  0  0  0
 12 29  1  0  0  0  0
 12 30  1  0  0  0  0
 13 14  1  0  0  0  0
 14 31  1  0  0  0  0
 14 32  1  0  0  0  0
 15 16  1  0  0  0  0
 15 17  1  0  0  0  0
 16 33  1  0  0  0  0
 16 34  1  0  0  0  0
 16 35  1  0  0  0  0
M  END
> <s_m_source_file>
AV-unprocessed.smi

> <i_m_source_file_index>
3159

> <i_lp_mmshare_version>
43012

> <i_f3d_flags>
0

> <s_epik_input>
W0NIM11jMVtjSF1jKG4objEpW0NIM10pW05IXUMoPU8pW05IXVtDSDJdW0NAQEhdMltDSDJdW0NIMl1PW0NIMl0y

> <s_epik_cmdline>
J2VwaWtfcHl0aG9uJywgJy1waCcsICc3LjAnLCAnLXRuJywgJzgnLCAnLW1hJywgJzIwMCcsICctbWV0YWxfYmluZGluZycsICctaW1hZScsICc8aW5maWxlLm1hZT4nLCAnLW9tYWUnLCAnPG91dGZpbGUubWFlPic=

> <r_lp_tautomer_probability>
1

> <r_epik_Ionization_Penalty>
9.40319e-05

> <r_epik_Ionization_Penalty_Charging>
0

> <r_epik_Ionization_Penalty_Neutral>
9.40319e-05

> <r_epik_State_Penalty>
-0

> <r_epik_Charging_Adjusted_Penalty>
0

> <i_epik_Tot_Q>
0

> <i_epik_Tot_abs_Q>
0

> <r_epik_Metal_State_Penalty>
-0

> <b_epik_Metal_Only>
0

> <s_lp_Force_Field>
OPLS_2005

> <r_lp_Energy>
20.0318

> <b_lp_Chiralities_Consistent>
1

> <s_lp_Variant>
AV-unprocessed.smi:3159-1

> <Gold.Version>
5.8.1

> <Gold.Id.Protein>
6NUR|6NUR_protein|mol2

> <Gold.PLP.Fitness>
40.7898

> <Gold.PLP.PLP>
-38.3213

> <Gold.PLP.part.hbond>
-1.0000

> <Gold.PLP.part.metal>
0.0000

> <Gold.PLP.part.buried>
-5.2393

> <Gold.PLP.part.nonpolar>
-31.3447

> <Gold.PLP.part.repulsive>
0.1675

> <Gold.PLP.ligand.clash>
0.0000

> <Gold.PLP.ligand.torsion>
0.2686

> <Gold.PLP.Chemscore.Hbond>
1.0000

> <Gold.PLP.Chemscore.CHOScore>
0.0000

> <Gold.PLP.Chemscore.Metal>
0.0000

> <Gold.Chemscore.Hbonds>
donor molecule, donor type, donor heavy atom, donor atom, acceptor molecule, acceptor atom, score
      P1  H  7997  8009       L1     7  0.98

> <Gold.PLP.Chemscore.Internal.Correction>
0.0057

> <Gold.Rescore>
     Score         DG    S(hbond)    S(metal)    S(lipo)     H(rot)  DE(clash)    DE(int)     intcor
     14.05     -15.66       0.99        0.00      85.99       1.25       0.24       1.38       ----

> <Gold.Chemscore.Fitness>
14.0486

> <Gold.Chemscore.DG>
-15.6595

> <Gold.Chemscore.ZeroCoef>
-5.4800

> <Gold.Chemscore.Hbond>
0.9921

> <Gold.Chemscore.Metal>
0.0000

> <Gold.Chemscore.Lipo>
85.9866

> <Gold.Chemscore.Internal_Hbond>
0.0000

> <Gold.Chemscore.DEClash>
0.2354

> <Gold.Chemscore.DEInternal>
1.3755

> <Gold.Chemscore.Rot>
1.2478

> <Gold.Chemscore.Internal.Correction>
   9.000000E+99

> <Gold.Chemscore.Hbonds>
donor molecule, donor type, donor heavy atom, donor atom, acceptor molecule, acceptor atom, score
      P1  H  7997  8009       L1     7  0.91

> <Gold.Chemscore.Hbond.Weighted>
-3.3135

> <Gold.Chemscore.Metal.Weighted>
-0.0000

> <Gold.Chemscore.Lipo.Weighted>
-10.0604

> <Gold.Chemscore.Internal_Hbond.Weighted>
0.0000

> <Gold.Chemscore.DEClash.Weighted>
0.2354

> <Gold.Chemscore.DEInternal.Weighted>
1.3755

> <Gold.Chemscore.Rot.Weighted>
3.1944

> <Gold.Chemscore.Internal.Correction.Weighted>
   9.000000E+99

> <Gold.Protein.RotatedTorsions>
[ 6907 6896 6895 6894 ] final  125.38 input  -60.11 | X-H torsion
[ 7974 7965 7964 7962 ] final   87.45 input  175.53 | X-H torsion
[ 8008 7997 7996 7995 ] final  123.24 input   59.86 | X-H torsion
[ 10167 10162 10161 10158 ] final    2.93 input  -65.29 | X-H torsion
[ 10718 10713 10712 10709 ] final  -72.37 input   66.30 | X-H torsion
[ 10763 10752 10751 10750 ] final -102.66 input  -60.55 | X-H torsion
[ 11005 11000 10999 10996 ] final   -5.88 input  -57.11 | X-H torsion

> <Gold.Protein.ActiveResidues>
 VAL166  LYS551  ARG553  GLY616  TRP617  ASP618  TYR619  PRO620  LYS621  CYS622 
 ASP623  PHE694  ASN695  SER759  ASP760  ASP761  ALA762  ILE779  LEU786  VAL792 
 PHE793  MET794  SER795  GLU796  ALA797  LYS798  CYS799  TRP800  GLU811  SER814 

> <Gold.Protein.RotatedAtoms>
  152.3997  133.6799  159.6305 H   0  0  0  0  0  0  0  0  0  0  0  0  # atno 6907 bound_to 6896
  150.7890  133.8812  159.3295 H   0  0  0  0  0  0  0  0  0  0  0  0  # atno 6908 bound_to 6896
  151.6581  135.0994  160.0225 H   0  0  0  0  0  0  0  0  0  0  0  0  # atno 6909 bound_to 6896
  145.5588  139.2302  143.2471 H   0  0  0  0  0  0  0  0  0  0  0  0  # atno 7974 bound_to 7965
  156.2758  140.2767  156.1596 H   0  0  0  0  0  0  0  0  0  0  0  0  # atno 8008 bound_to 7997
  155.0768  140.0387  157.2644 H   0  0  0  0  0  0  0  0  0  0  0  0  # atno 8009 bound_to 7997
  154.6996  140.2646  155.6738 H   0  0  0  0  0  0  0  0  0  0  0  0  # atno 8010 bound_to 7997
  140.6611  143.7302  150.7740 H   0  0  0  0  0  0  0  0  0  0  0  0  # atno 10167 bound_to 10162
  156.0323  130.4371  150.2583 H   0  0  0  0  0  0  0  0  0  0  0  0  # atno 10718 bound_to 10713
  154.7750  135.4852  153.9726 H   0  0  0  0  0  0  0  0  0  0  0  0  # atno 10763 bound_to 10752
  153.1417  135.6774  153.9024 H   0  0  0  0  0  0  0  0  0  0  0  0  # atno 10764 bound_to 10752
  153.8697  135.3145  155.3420 H   0  0  0  0  0  0  0  0  0  0  0  0  # atno 10765 bound_to 10752
  140.6959  133.9031  155.8650 H   0  0  0  0  0  0  0  0  0  0  0  0  # atno 11005 bound_to 11000
  146.1865  140.6413  142.9165 LP  0  0  0  0  0  0  0  0  0  0  0  0  # atno 17320 bound_to 7965
  144.7493  140.5149  143.6813 LP  0  0  0  0  0  0  0  0  0  0  0  0  # atno 17321 bound_to 7965
  140.0971  143.4823  152.2446 LP  0  0  0  0  0  0  0  0  0  0  0  0  # atno 17342 bound_to 10162
  139.5845  144.7525  151.3555 LP  0  0  0  0  0  0  0  0  0  0  0  0  # atno 17343 bound_to 10162
  157.0685  131.0110  151.3198 LP  0  0  0  0  0  0  0  0  0  0  0  0  # atno 17370 bound_to 10713
  157.5017  130.7884  149.7612 LP  0  0  0  0  0  0  0  0  0  0  0  0  # atno 17371 bound_to 10713
  141.0203  134.0898  157.4127 LP  0  0  0  0  0  0  0  0  0  0  0  0  # atno 17394 bound_to 11000
  139.8910  135.0116  156.6768 LP  0  0  0  0  0  0  0  0  0  0  0  0  # atno 17395 bound_to 11000

$$$$
