AV-unprocessed.smi:2340|AV-procd|sdf|9351|dock3
  -GOLD-   2272012573D 1   1.00000     0.00000
 Structure written by MMmdl.
 40 41  0  0  0  0  0  0  0  0  1 V2000
  144.0652  132.6049  149.0266 C   0  0  0  0  0  0  0  0  0  0  0  0
  144.9008  132.9673  150.2135 C   0  0  0  0  0  0  0  0  0  0  0  0
  146.1589  132.5078  150.5126 C   0  0  0  0  0  0  0  0  0  0  0  0
  146.7730  133.2083  151.9852 S   0  0  0  0  0  0  0  0  0  0  0  0
  145.2674  134.1078  152.1505 C   0  0  0  0  0  0  0  0  0  0  0  0
  144.9992  135.0913  153.2515 C   0  0  1  0  0  0  0  0  0  0  0  0
  143.5417  135.0399  153.7313 C   0  0  0  0  0  0  0  0  0  0  0  0
  146.0067  134.9775  154.4203 C   0  0  0  0  0  0  0  0  0  0  0  0
  147.2878  135.6192  154.1362 N   0  0  0  0  0  0  0  0  0  0  0  0
  147.9762  136.3802  154.9971 C   0  0  0  0  0  0  0  0  0  0  0  0
  147.6603  136.5493  156.1749 O   0  0  0  0  0  0  0  0  0  0  0  0
  149.0216  136.9714  154.4044 N   0  0  0  0  0  0  0  0  0  0  0  0
  149.8759  137.9770  155.0271 C   0  0  1  0  0  0  0  0  0  0  0  0
  151.3418  137.6037  154.9349 C   0  0  0  0  0  0  0  0  0  0  0  0
  152.0403  138.9607  155.0082 C   0  0  0  0  0  0  0  0  0  0  0  0
  151.0855  139.9333  154.5914 O   0  0  0  0  0  0  0  0  0  0  0  0
  149.8556  139.3018  154.2562 C   0  0  2  0  0  0  0  0  0  0  0  0
  148.6763  140.2224  154.5940 C   0  0  0  0  0  0  0  0  0  0  0  0
  144.4064  133.8716  151.1562 N   0  0  0  0  0  0  0  0  0  0  0  0
  144.5983  131.9337  148.3529 H   0  0  0  0  0  0  0  0  0  0  0  0
  143.7880  133.4917  148.4560 H   0  0  0  0  0  0  0  0  0  0  0  0
  143.1452  132.1054  149.3308 H   0  0  0  0  0  0  0  0  0  0  0  0
  146.7628  131.8075  149.9549 H   0  0  0  0  0  0  0  0  0  0  0  0
  145.1348  136.0825  152.8155 H   0  0  0  0  0  0  0  0  0  0  0  0
  142.8510  135.2083  152.9046 H   0  0  0  0  0  0  0  0  0  0  0  0
  143.3497  135.8061  154.4830 H   0  0  0  0  0  0  0  0  0  0  0  0
  143.3016  134.0735  154.1754 H   0  0  0  0  0  0  0  0  0  0  0  0
  145.5792  135.3816  155.3391 H   0  0  0  0  0  0  0  0  0  0  0  0
  146.2178  133.9258  154.6150 H   0  0  0  0  0  0  0  0  0  0  0  0
  147.6324  135.5434  153.1904 H   0  0  0  0  0  0  0  0  0  0  0  0
  149.1960  136.7657  153.4316 H   0  0  0  0  0  0  0  0  0  0  0  0
  149.6134  138.1393  156.0746 H   0  0  0  0  0  0  0  0  0  0  0  0
  151.6598  136.9191  155.7220 H   0  0  0  0  0  0  0  0  0  0  0  0
  151.5567  137.1363  153.9725 H   0  0  0  0  0  0  0  0  0  0  0  0
  152.3365  139.1859  156.0332 H   0  0  0  0  0  0  0  0  0  0  0  0
  152.9336  138.9936  154.3840 H   0  0  0  0  0  0  0  0  0  0  0  0
  149.8725  139.1053  153.1825 H   0  0  0  0  0  0  0  0  0  0  0  0
  147.7263  139.7641  154.3195 H   0  0  0  0  0  0  0  0  0  0  0  0
  148.7536  141.1667  154.0549 H   0  0  0  0  0  0  0  0  0  0  0  0
  148.6441  140.4481  155.6602 H   0  0  0  0  0  0  0  0  0  0  0  0
  1  2  1  0  0  0  0
  1 20  1  0  0  0  0
  1 21  1  0  0  0  0
  1 22  1  0  0  0  0
  2 19  1  0  0  0  0
  2  3  2  0  0  0  0
  3  4  1  0  0  0  0
  3 23  1  0  0  0  0
  4  5  1  0  0  0  0
  5  6  1  0  0  0  0
  5 19  2  0  0  0  0
  6  7  1  0  0  0  0
  6  8  1  0  0  0  0
  6 24  1  0  0  0  0
  7 25  1  0  0  0  0
  7 26  1  0  0  0  0
  7 27  1  0  0  0  0
  8  9  1  0  0  0  0
  8 28  1  0  0  0  0
  8 29  1  0  0  0  0
  9 10  1  0  0  0  0
  9 30  1  0  0  0  0
 10 11  2  0  0  0  0
 10 12  1  0  0  0  0
 12 13  1  0  0  0  0
 12 31  1  0  0  0  0
 13 17  1  0  0  0  0
 13 14  1  0  0  0  0
 13 32  1  0  0  0  0
 14 15  1  0  0  0  0
 14 33  1  0  0  0  0
 14 34  1  0  0  0  0
 15 16  1  0  0  0  0
 15 35  1  0  0  0  0
 15 36  1  0  0  0  0
 16 17  1  0  0  0  0
 17 18  1  0  0  0  0
 17 37  1  0  0  0  0
 18 38  1  0  0  0  0
 18 39  1  0  0  0  0
 18 40  1  0  0  0  0
M  END
> <s_m_source_file>
AV-unprocessed.smi

> <i_m_source_file_index>
2340

> <i_lp_mmshare_version>
43012

> <i_f3d_flags>
0

> <s_epik_input>
W0NIM11jMVtjSF1zYyhuMSlbQ0BIXShbQ0gzXSlbQ0gyXVtOSF1DKD1PKVtOSF1bQ0BASF0yW0NIMl1bQ0gyXU9bQ0BIXTJbQ0gzXQ==

> <s_epik_cmdline>
J2VwaWtfcHl0aG9uJywgJy1waCcsICc3LjAnLCAnLXRuJywgJzgnLCAnLW1hJywgJzIwMCcsICctbWV0YWxfYmluZGluZycsICctaW1hZScsICc8aW5maWxlLm1hZT4nLCAnLW9tYWUnLCAnPG91dGZpbGUubWFlPic=

> <r_epik_Ionization_Penalty>
0.00156622

> <r_epik_Ionization_Penalty_Charging>
0

> <r_epik_Ionization_Penalty_Neutral>
0.00156622

> <r_epik_State_Penalty>
0.00101902

> <r_epik_Charging_Adjusted_Penalty>
0.00101902

> <i_epik_Tot_Q>
0

> <i_epik_Tot_abs_Q>
0

> <r_epik_Metal_State_Penalty>
-0

> <b_epik_Metal_Only>
0

> <s_lp_Force_Field>
OPLS_2005

> <r_lp_Energy>
3.95119

> <b_lp_Chiralities_Consistent>
1

> <s_lp_Variant>
AV-unprocessed.smi:2340-8

> <Gold.Version>
5.8.1

> <Gold.Id.Protein>
6NUR|6NUR_protein|mol2

> <Gold.PLP.Fitness>
41.2079

> <Gold.PLP.PLP>
-30.9551

> <Gold.PLP.part.hbond>
-3.0000

> <Gold.PLP.part.metal>
0.0000

> <Gold.PLP.part.buried>
-5.1329

> <Gold.PLP.part.nonpolar>
-23.8498

> <Gold.PLP.part.repulsive>
0.2569

> <Gold.PLP.ligand.clash>
0.0000

> <Gold.PLP.ligand.torsion>
0.8320

> <Gold.PLP.Chemscore.Hbond>
2.9280

> <Gold.PLP.Chemscore.CHOScore>
1.0000

> <Gold.PLP.Chemscore.Metal>
0.0000

> <Gold.Chemscore.Hbonds>
donor molecule, donor type, donor heavy atom, donor atom, acceptor molecule, acceptor atom, score
      L1  H     9    30       P1  7948  0.93
      L1  H    12    31       P1  7948  1.00
      P1  H  7989  7998       L1    16  1.00
      L1  C     3    23       P1 10747  1.00

> <Gold.PLP.Chemscore.Internal.Correction>
0.1329

> <Gold.Rescore>
     Score         DG    S(hbond)    S(metal)    S(lipo)     H(rot)  DE(clash)    DE(int)     intcor
     19.03     -19.87       2.61        0.00      82.10       1.53       0.04       0.81       ----

> <Gold.Chemscore.Fitness>
19.0302

> <Gold.Chemscore.DG>
-19.8715

> <Gold.Chemscore.ZeroCoef>
-5.4800

> <Gold.Chemscore.Hbond>
2.6075

> <Gold.Chemscore.Metal>
0.0000

> <Gold.Chemscore.Lipo>
82.0997

> <Gold.Chemscore.Internal_Hbond>
0.0000

> <Gold.Chemscore.DEClash>
0.0354

> <Gold.Chemscore.DEInternal>
0.8060

> <Gold.Chemscore.Rot>
1.5325

> <Gold.Chemscore.Internal.Correction>
   9.000000E+99

> <Gold.Chemscore.Hbonds>
donor molecule, donor type, donor heavy atom, donor atom, acceptor molecule, acceptor atom, score
      L1  H     9    30       P1  7948  0.87
      L1  H    12    31       P1  7948  0.98
      P1  H  7989  7998       L1    16  0.68

> <Gold.Chemscore.Hbond.Weighted>
-8.7092

> <Gold.Chemscore.Metal.Weighted>
-0.0000

> <Gold.Chemscore.Lipo.Weighted>
-9.6057

> <Gold.Chemscore.Internal_Hbond.Weighted>
0.0000

> <Gold.Chemscore.DEClash.Weighted>
0.0354

> <Gold.Chemscore.DEInternal.Weighted>
0.8060

> <Gold.Chemscore.Rot.Weighted>
3.9233

> <Gold.Chemscore.Internal.Correction.Weighted>
   9.000000E+99

> <Gold.Protein.RotatedTorsions>
[ 6907 6896 6895 6894 ] final  153.21 input  -60.11 | X-H torsion
[ 7974 7965 7964 7962 ] final  -23.91 input  175.53 | X-H torsion
[ 8008 7997 7996 7995 ] final  -46.26 input   59.86 | X-H torsion
[ 10167 10162 10161 10158 ] final  -65.17 input  -65.29 | X-H torsion
[ 10718 10713 10712 10709 ] final  -70.49 input   66.30 | X-H torsion
[ 10763 10752 10751 10750 ] final  112.09 input  -60.55 | X-H torsion
[ 11005 11000 10999 10996 ] final  -51.79 input  -57.11 | X-H torsion

> <Gold.Protein.ActiveResidues>
 VAL166  LYS551  ARG553  GLY616  TRP617  ASP618  TYR619  PRO620  LYS621  CYS622 
 ASP623  PHE694  ASN695  SER759  ASP760  ASP761  ALA762  ILE779  LEU786  VAL792 
 PHE793  MET794  SER795  GLU796  ALA797  LYS798  CYS799  TRP800  GLU811  SER814 

> <Gold.Protein.RotatedAtoms>
  152.0759  133.4129  159.4479 H   0  0  0  0  0  0  0  0  0  0  0  0  # atno 6907 bound_to 6896
  150.6863  134.3038  159.4726 H   0  0  0  0  0  0  0  0  0  0  0  0  # atno 6908 bound_to 6896
  152.0875  134.9429  160.0623 H   0  0  0  0  0  0  0  0  0  0  0  0  # atno 6909 bound_to 6896
  146.1587  140.4680  142.8580 H   0  0  0  0  0  0  0  0  0  0  0  0  # atno 7974 bound_to 7965
  154.4006  140.1376  156.3982 H   0  0  0  0  0  0  0  0  0  0  0  0  # atno 8008 bound_to 7997
  155.7849  140.3480  155.5297 H   0  0  0  0  0  0  0  0  0  0  0  0  # atno 8009 bound_to 7997
  155.8637  140.0960  157.1587 H   0  0  0  0  0  0  0  0  0  0  0  0  # atno 8010 bound_to 7997
  140.5749  143.2321  151.6463 H   0  0  0  0  0  0  0  0  0  0  0  0  # atno 10167 bound_to 10162
  156.0405  130.4332  150.2303 H   0  0  0  0  0  0  0  0  0  0  0  0  # atno 10718 bound_to 10713
  153.4728  135.3697  155.2400 H   0  0  0  0  0  0  0  0  0  0  0  0  # atno 10763 bound_to 10752
  154.8756  135.3935  154.3792 H   0  0  0  0  0  0  0  0  0  0  0  0  # atno 10764 bound_to 10752
  153.4383  135.7083  153.6250 H   0  0  0  0  0  0  0  0  0  0  0  0  # atno 10765 bound_to 10752
  141.0890  133.6636  156.3929 H   0  0  0  0  0  0  0  0  0  0  0  0  # atno 11005 bound_to 11000
  144.7998  140.6191  143.6486 LP  0  0  0  0  0  0  0  0  0  0  0  0  # atno 17320 bound_to 7965
  145.4643  139.1509  143.3849 LP  0  0  0  0  0  0  0  0  0  0  0  0  # atno 17321 bound_to 7965
  139.5137  144.3434  152.0719 LP  0  0  0  0  0  0  0  0  0  0  0  0  # atno 17342 bound_to 10162
  140.2576  144.4101  150.6197 LP  0  0  0  0  0  0  0  0  0  0  0  0  # atno 17343 bound_to 10162
  157.0399  131.0032  151.3287 LP  0  0  0  0  0  0  0  0  0  0  0  0  # atno 17370 bound_to 10713
  157.5217  130.8002  149.7816 LP  0  0  0  0  0  0  0  0  0  0  0  0  # atno 17371 bound_to 10713
  140.5296  134.6225  157.5345 LP  0  0  0  0  0  0  0  0  0  0  0  0  # atno 17394 bound_to 11000
  139.9712  134.7289  156.0037 LP  0  0  0  0  0  0  0  0  0  0  0  0  # atno 17395 bound_to 11000

$$$$
