AV-unprocessed.smi:2781|AV-procd|sdf|10717|dock2
  -GOLD-   2272015153D 1   1.00000     0.00000
 Structure written by MMmdl.
 35 38  0  0  0  0  0  0  0  0  1 V2000
  150.4413  140.6227  156.2853 O   0  0  0  0  0  0  0  0  0  0  0  0
  149.9891  141.7109  155.9277 C   0  0  0  0  0  0  0  0  0  0  0  0
  149.0187  141.8858  155.0129 N   0  0  0  0  0  0  0  0  0  0  0  0
  148.3263  140.8960  154.2658 C   0  0  0  0  0  0  0  0  0  0  0  0
  147.2540  141.3796  153.4816 C   0  0  0  0  0  0  0  0  0  0  0  0
  146.5041  140.4782  152.7010 C   0  0  0  0  0  0  0  0  0  0  0  0
  146.8479  139.1150  152.7256 C   0  0  0  0  0  0  0  0  0  0  0  0
  146.1563  138.2112  151.9919 F   0  0  0  0  0  0  0  0  0  0  0  0
  147.9295  138.7152  153.5319 C   0  0  0  0  0  0  0  0  0  0  0  0
  148.6488  139.5782  154.2808 N   0  0  0  0  0  0  0  0  0  0  0  0
  150.4115  142.8860  156.4143 N   0  0  0  0  0  0  0  0  0  0  0  0
  151.4281  143.0576  157.4012 C   0  0  2  0  0  0  0  0  0  0  0  0
  150.9830  143.0858  158.8554 C   0  0  1  0  0  0  0  0  0  0  0  0
  151.8998  142.9868  160.0711 C   0  0  2  0  0  0  0  0  0  0  0  0
  151.4553  144.0591  161.0871 C   0  0  0  0  0  0  0  0  0  0  0  0
  151.8982  145.3747  160.4005 C   0  0  0  0  0  0  0  0  0  0  0  0
  152.5367  144.8683  159.0903 C   0  0  1  0  0  0  0  0  0  0  0  0
  153.2202  143.5983  159.6000 C   0  0  0  0  0  0  0  0  0  0  0  0
  151.4146  144.3578  158.1909 C   0  0  1  0  0  0  0  0  0  0  0  0
  148.7444  142.8392  154.8281 H   0  0  0  0  0  0  0  0  0  0  0  0
  147.0044  142.4306  153.4749 H   0  0  0  0  0  0  0  0  0  0  0  0
  145.6811  140.8274  152.0954 H   0  0  0  0  0  0  0  0  0  0  0  0
  148.2253  137.6775  153.5780 H   0  0  0  0  0  0  0  0  0  0  0  0
  149.9809  143.7274  156.0602 H   0  0  0  0  0  0  0  0  0  0  0  0
  152.3964  142.6141  157.1809 H   0  0  0  0  0  0  0  0  0  0  0  0
  149.9207  142.9544  159.0545 H   0  0  0  0  0  0  0  0  0  0  0  0
  151.9654  141.9747  160.4707 H   0  0  0  0  0  0  0  0  0  0  0  0
  150.3818  144.0291  161.2772 H   0  0  0  0  0  0  0  0  0  0  0  0
  151.9684  143.9305  162.0411 H   0  0  0  0  0  0  0  0  0  0  0  0
  151.0618  146.0506  160.2180 H   0  0  0  0  0  0  0  0  0  0  0  0
  152.6289  145.9031  161.0144 H   0  0  0  0  0  0  0  0  0  0  0  0
  153.1885  145.5846  158.5895 H   0  0  0  0  0  0  0  0  0  0  0  0
  153.9288  143.7806  160.4106 H   0  0  0  0  0  0  0  0  0  0  0  0
  153.7323  143.0237  158.8289 H   0  0  0  0  0  0  0  0  0  0  0  0
  150.6443  145.0849  157.9397 H   0  0  0  0  0  0  0  0  0  0  0  0
  1  2  2  0  0  0  0
  2  3  1  0  0  0  0
  2 11  1  0  0  0  0
  3  4  1  0  0  0  0
  3 20  1  0  0  0  0
  4 10  1  0  0  0  0
  4  5  2  0  0  0  0
  5  6  1  0  0  0  0
  5 21  1  0  0  0  0
  6  7  2  0  0  0  0
  6 22  1  0  0  0  0
  7  8  1  0  0  0  0
  7  9  1  0  0  0  0
  9 10  2  0  0  0  0
  9 23  1  0  0  0  0
 11 12  1  0  0  0  0
 11 24  1  0  0  0  0
 12 19  1  0  0  0  0
 12 13  1  0  0  0  0
 12 25  1  0  0  0  0
 13 19  1  0  0  0  0
 13 14  1  0  0  0  0
 13 26  1  0  0  0  0
 14 18  1  0  0  0  0
 14 15  1  0  0  0  0
 14 27  1  0  0  0  0
 15 16  1  0  0  0  0
 15 28  1  0  0  0  0
 15 29  1  0  0  0  0
 16 17  1  0  0  0  0
 16 30  1  0  0  0  0
 16 31  1  0  0  0  0
 17 18  1  0  0  0  0
 17 19  1  0  0  0  0
 17 32  1  0  0  0  0
 18 33  1  0  0  0  0
 18 34  1  0  0  0  0
 19 35  1  0  0  0  0
M  END
> <s_m_source_file>
AV-unprocessed.smi

> <i_m_source_file_index>
2781

> <i_lp_mmshare_version>
43012

> <i_f3d_flags>
0

> <s_epik_input>
bjFbY0hdYyhGKVtjSF1bY0hdYzFbTkhdQyg9TylbTkhdW0NASF0yW0NAQEhdM1tDQEhdKFtDSDJdNClbQ0gyXVtDSDJdW0NASF00W0NASF0yMw==

> <s_epik_cmdline>
J2VwaWtfcHl0aG9uJywgJy1waCcsICc3LjAnLCAnLXRuJywgJzgnLCAnLW1hJywgJzIwMCcsICctbWV0YWxfYmluZGluZycsICctaW1hZScsICc8aW5maWxlLm1hZT4nLCAnLW9tYWUnLCAnPG91dGZpbGUubWFlPic=

> <r_lp_tautomer_probability>
1

> <r_epik_Ionization_Penalty>
4.05776e-05

> <r_epik_Ionization_Penalty_Charging>
0

> <r_epik_Ionization_Penalty_Neutral>
4.05776e-05

> <r_epik_State_Penalty>
-0

> <r_epik_Charging_Adjusted_Penalty>
0

> <i_epik_Tot_Q>
0

> <i_epik_Tot_abs_Q>
0

> <r_epik_Metal_State_Penalty>
-0

> <b_epik_Metal_Only>
0

> <s_lp_Force_Field>
OPLS_2005

> <r_lp_Energy>
77.2999

> <b_lp_Chiralities_Consistent>
1

> <s_lp_Variant>
AV-unprocessed.smi:2781-1

> <Gold.Version>
5.8.1

> <Gold.Id.Protein>
6NUR|6NUR_protein|mol2

> <Gold.PLP.Fitness>
48.8974

> <Gold.PLP.PLP>
-41.1727

> <Gold.PLP.part.hbond>
-1.9121

> <Gold.PLP.part.metal>
0.0000

> <Gold.PLP.part.buried>
-1.0180

> <Gold.PLP.part.nonpolar>
-39.7087

> <Gold.PLP.part.repulsive>
0.4542

> <Gold.PLP.ligand.clash>
0.0000

> <Gold.PLP.ligand.torsion>
0.3555

> <Gold.PLP.Chemscore.Hbond>
1.8112

> <Gold.PLP.Chemscore.CHOScore>
0.9920

> <Gold.PLP.Chemscore.Metal>
0.0000

> <Gold.Chemscore.Hbonds>
donor molecule, donor type, donor heavy atom, donor atom, acceptor molecule, acceptor atom, score
      L1  H     3    20       P1  8028  0.81
      L1  H    11    24       P1  8028  0.99
      L1  C     9    23       P1  7948  0.99

> <Gold.PLP.Chemscore.Internal.Correction>
0.0262

> <Gold.Rescore>
     Score         DG    S(hbond)    S(metal)    S(lipo)     H(rot)  DE(clash)    DE(int)     intcor
     20.49     -22.90       1.71        0.00     121.90       1.00       0.77       1.64       ----

> <Gold.Chemscore.Fitness>
20.4876

> <Gold.Chemscore.DG>
-22.8983

> <Gold.Chemscore.ZeroCoef>
-5.4800

> <Gold.Chemscore.Hbond>
1.7116

> <Gold.Chemscore.Metal>
0.0000

> <Gold.Chemscore.Lipo>
121.8950

> <Gold.Chemscore.Internal_Hbond>
0.0000

> <Gold.Chemscore.DEClash>
0.7730

> <Gold.Chemscore.DEInternal>
1.6377

> <Gold.Chemscore.Rot>
1.0000

> <Gold.Chemscore.Internal.Correction>
   9.000000E+99

> <Gold.Chemscore.Hbonds>
donor molecule, donor type, donor heavy atom, donor atom, acceptor molecule, acceptor atom, score
      L1  H     3    20       P1  8028  0.76
      L1  H    11    24       P1  8028  0.92

> <Gold.Chemscore.Hbond.Weighted>
-5.7166

> <Gold.Chemscore.Metal.Weighted>
-0.0000

> <Gold.Chemscore.Lipo.Weighted>
-14.2617

> <Gold.Chemscore.Internal_Hbond.Weighted>
0.0000

> <Gold.Chemscore.DEClash.Weighted>
0.7730

> <Gold.Chemscore.DEInternal.Weighted>
1.6377

> <Gold.Chemscore.Rot.Weighted>
2.5600

> <Gold.Chemscore.Internal.Correction.Weighted>
   9.000000E+99

> <Gold.Protein.RotatedTorsions>
[ 6907 6896 6895 6894 ] final   13.82 input  -60.11 | X-H torsion
[ 7974 7965 7964 7962 ] final -121.22 input  175.53 | X-H torsion
[ 8008 7997 7996 7995 ] final   52.03 input   59.86 | X-H torsion
[ 10167 10162 10161 10158 ] final  -25.04 input  -65.29 | X-H torsion
[ 10718 10713 10712 10709 ] final   73.65 input   66.30 | X-H torsion
[ 10763 10752 10751 10750 ] final -176.41 input  -60.55 | X-H torsion
[ 11005 11000 10999 10996 ] final  -97.25 input  -57.11 | X-H torsion

> <Gold.Protein.ActiveResidues>
 VAL166  LYS551  ARG553  GLY616  TRP617  ASP618  TYR619  PRO620  LYS621  CYS622 
 ASP623  PHE694  ASN695  SER759  ASP760  ASP761  ALA762  ILE779  LEU786  VAL792 
 PHE793  MET794  SER795  GLU796  ALA797  LYS798  CYS799  TRP800  GLU811  SER814 

> <Gold.Protein.RotatedAtoms>
  151.7924  135.0732  160.0388 H   0  0  0  0  0  0  0  0  0  0  0  0  # atno 6907 bound_to 6896
  152.3147  133.5785  159.5712 H   0  0  0  0  0  0  0  0  0  0  0  0  # atno 6908 bound_to 6896
  150.7338  134.0016  159.3682 H   0  0  0  0  0  0  0  0  0  0  0  0  # atno 6909 bound_to 6896
  145.0427  140.8157  143.4256 H   0  0  0  0  0  0  0  0  0  0  0  0  # atno 7974 bound_to 7965
  155.4451  140.3456  155.4294 H   0  0  0  0  0  0  0  0  0  0  0  0  # atno 8008 bound_to 7997
  156.1255  140.1499  156.9173 H   0  0  0  0  0  0  0  0  0  0  0  0  # atno 8009 bound_to 7997
  154.4855  140.0857  156.7455 H   0  0  0  0  0  0  0  0  0  0  0  0  # atno 8010 bound_to 7997
  140.7287  143.4299  151.0818 H   0  0  0  0  0  0  0  0  0  0  0  0  # atno 10167 bound_to 10162
  157.6557  130.9639  150.1099 H   0  0  0  0  0  0  0  0  0  0  0  0  # atno 10718 bound_to 10713
  154.5727  135.2829  155.0812 H   0  0  0  0  0  0  0  0  0  0  0  0  # atno 10763 bound_to 10752
  154.2178  135.6396  153.5139 H   0  0  0  0  0  0  0  0  0  0  0  0  # atno 10764 bound_to 10752
  153.0062  135.5507  154.6355 H   0  0  0  0  0  0  0  0  0  0  0  0  # atno 10765 bound_to 10752
  141.1385  133.8157  157.0680 H   0  0  0  0  0  0  0  0  0  0  0  0  # atno 11005 bound_to 11000
  145.1627  139.2449  143.5383 LP  0  0  0  0  0  0  0  0  0  0  0  0  # atno 17320 bound_to 7965
  146.3511  140.1358  142.8596 LP  0  0  0  0  0  0  0  0  0  0  0  0  # atno 17321 bound_to 7965
  139.7955  143.8158  152.3157 LP  0  0  0  0  0  0  0  0  0  0  0  0  # atno 17342 bound_to 10162
  139.8156  144.7317  150.9639 LP  0  0  0  0  0  0  0  0  0  0  0  0  # atno 17343 bound_to 10162
  156.1998  130.3659  149.8802 LP  0  0  0  0  0  0  0  0  0  0  0  0  # atno 17370 bound_to 10713
  156.6709  130.8820  151.3562 LP  0  0  0  0  0  0  0  0  0  0  0  0  # atno 17371 bound_to 10713
  140.0529  134.9796  157.1168 LP  0  0  0  0  0  0  0  0  0  0  0  0  # atno 17394 bound_to 11000
  140.3963  134.2130  155.7164 LP  0  0  0  0  0  0  0  0  0  0  0  0  # atno 17395 bound_to 11000

$$$$
