AV-unprocessed.smi:2062|AV-procd|sdf|8400|dock3
  -GOLD-   2272011 83D 1   1.00000     0.00000
 Structure written by MMmdl.
 42 43  0  0  0  0  0  0  0  0  1 V2000
  153.1718  142.0833  160.3232 C   0  0  0  0  0  0  0  0  0  0  0  0
  152.4093  142.6783  159.1266 C   0  0  0  0  0  0  0  0  0  0  0  0
  151.8874  144.0986  159.4016 C   0  0  0  0  0  0  0  0  0  0  0  0
  151.3441  141.7256  158.5290 C   0  0  0  0  0  0  0  0  0  0  0  0
  151.2800  141.6052  157.0689 N   0  0  0  0  0  0  0  0  0  0  0  0
  151.7847  140.3048  156.6397 C   0  0  0  0  0  0  0  0  0  0  0  0
  151.7355  140.1389  155.1125 C   0  0  0  0  0  0  0  0  0  0  0  0
  150.4011  140.3361  154.6605 O   0  0  0  0  0  0  0  0  0  0  0  0
  149.8870  141.6214  155.0005 C   0  0  1  0  0  0  0  0  0  0  0  0
  148.4535  141.7354  154.4543 C   0  0  0  0  0  0  0  0  0  0  0  0
  148.2709  140.9399  153.2449 N   0  0  0  0  0  0  0  0  0  0  0  0
  147.5505  139.8116  153.1691 C   0  0  0  0  0  0  0  0  0  0  0  0
  146.9664  139.3138  154.1323 O   0  0  0  0  0  0  0  0  0  0  0  0
  147.5556  139.3133  151.9204 N   0  0  0  0  0  0  0  0  0  0  0  0
  146.9180  138.1387  151.4411 C   0  0  0  0  0  0  0  0  0  0  0  0
  147.0212  137.6810  150.1877 N   0  0  0  0  0  0  0  0  0  0  0  0
  146.2875  136.5075  149.9955 C   0  0  0  0  0  0  0  0  0  0  0  0
  145.6278  136.0820  151.1216 C   0  0  0  0  0  0  0  0  0  0  0  0
  145.9032  137.1446  152.4762 S   0  0  0  0  0  0  0  0  0  0  0  0
  149.9336  141.7888  156.5325 C   0  0  0  0  0  0  0  0  0  0  0  0
  152.5529  141.9873  161.2127 H   0  0  0  0  0  0  0  0  0  0  0  0
  154.0204  142.7137  160.5903 H   0  0  0  0  0  0  0  0  0  0  0  0
  153.5657  141.0952  160.0846 H   0  0  0  0  0  0  0  0  0  0  0  0
  153.1636  142.7841  158.3457 H   0  0  0  0  0  0  0  0  0  0  0  0
  151.1591  144.1133  160.2125 H   0  0  0  0  0  0  0  0  0  0  0  0
  151.4086  144.5179  158.5161 H   0  0  0  0  0  0  0  0  0  0  0  0
  152.7027  144.7663  159.6816 H   0  0  0  0  0  0  0  0  0  0  0  0
  151.5675  140.7355  158.9292 H   0  0  0  0  0  0  0  0  0  0  0  0
  150.3590  141.9751  158.9261 H   0  0  0  0  0  0  0  0  0  0  0  0
  152.8128  140.1760  156.9799 H   0  0  0  0  0  0  0  0  0  0  0  0
  151.2006  139.5094  157.1057 H   0  0  0  0  0  0  0  0  0  0  0  0
  152.4041  140.8485  154.6225 H   0  0  0  0  0  0  0  0  0  0  0  0
  152.0643  139.1392  154.8288 H   0  0  0  0  0  0  0  0  0  0  0  0
  150.5121  142.3895  154.5410 H   0  0  0  0  0  0  0  0  0  0  0  0
  147.7390  141.3933  155.2036 H   0  0  0  0  0  0  0  0  0  0  0  0
  148.2082  142.7788  154.2480 H   0  0  0  0  0  0  0  0  0  0  0  0
  148.7144  141.2820  152.4051 H   0  0  0  0  0  0  0  0  0  0  0  0
  148.0794  139.8336  151.2322 H   0  0  0  0  0  0  0  0  0  0  0  0
  146.2904  136.0402  149.0217 H   0  0  0  0  0  0  0  0  0  0  0  0
  144.9990  135.2115  151.2355 H   0  0  0  0  0  0  0  0  0  0  0  0
  149.2473  141.0820  157.0016 H   0  0  0  0  0  0  0  0  0  0  0  0
  149.5723  142.7871  156.7674 H   0  0  0  0  0  0  0  0  0  0  0  0
  1  2  1  0  0  0  0
  1 21  1  0  0  0  0
  1 22  1  0  0  0  0
  1 23  1  0  0  0  0
  2  3  1  0  0  0  0
  2  4  1  0  0  0  0
  2 24  1  0  0  0  0
  3 25  1  0  0  0  0
  3 26  1  0  0  0  0
  3 27  1  0  0  0  0
  4  5  1  0  0  0  0
  4 28  1  0  0  0  0
  4 29  1  0  0  0  0
  5 20  1  0  0  0  0
  5  6  1  0  0  0  0
  6  7  1  0  0  0  0
  6 30  1  0  0  0  0
  6 31  1  0  0  0  0
  7  8  1  0  0  0  0
  7 32  1  0  0  0  0
  7 33  1  0  0  0  0
  8  9  1  0  0  0  0
  9 10  1  0  0  0  0
  9 20  1  0  0  0  0
  9 34  1  0  0  0  0
 10 11  1  0  0  0  0
 10 35  1  0  0  0  0
 10 36  1  0  0  0  0
 11 12  1  0  0  0  0
 11 37  1  0  0  0  0
 12 13  2  0  0  0  0
 12 14  1  0  0  0  0
 14 15  1  0  0  0  0
 14 38  1  0  0  0  0
 15 19  1  0  0  0  0
 15 16  2  0  0  0  0
 16 17  1  0  0  0  0
 17 18  2  0  0  0  0
 17 39  1  0  0  0  0
 18 19  1  0  0  0  0
 18 40  1  0  0  0  0
 20 41  1  0  0  0  0
 20 42  1  0  0  0  0
M  END
> <s_m_source_file>
AV-unprocessed.smi

> <i_m_source_file_index>
2062

> <i_lp_mmshare_version>
43012

> <i_f3d_flags>
0

> <s_epik_input>
W0NIM11bQ0hdKFtDSDNdKVtDSDJdTjFbQ0gyXVtDSDJdT1tDQEhdKFtDSDJdMSlbQ0gyXVtOSF1DKD1PKVtOSF1jMm5bY0hdW2NIXXMy

> <s_epik_cmdline>
J2VwaWtfcHl0aG9uJywgJy1waCcsICc3LjAnLCAnLXRuJywgJzgnLCAnLW1hJywgJzIwMCcsICctbWV0YWxfYmluZGluZycsICctaW1hZScsICc8aW5maWxlLm1hZT4nLCAnLW9tYWUnLCAnPG91dGZpbGUubWFlPic=

> <r_lp_tautomer_probability>
0.999

> <r_epik_Ionization_Penalty>
1.11227

> <r_epik_Ionization_Penalty_Charging>
0

> <r_epik_Ionization_Penalty_Neutral>
1.11227

> <r_epik_State_Penalty>
1.17021

> <r_epik_Charging_Adjusted_Penalty>
1.17021

> <i_epik_Tot_Q>
0

> <i_epik_Tot_abs_Q>
0

> <r_epik_Metal_State_Penalty>
1.22349

> <b_epik_Metal_Only>
0

> <s_lp_Force_Field>
OPLS_2005

> <r_lp_Energy>
27.0187

> <b_lp_Chiralities_Consistent>
1

> <s_lp_Variant>
AV-unprocessed.smi:2062-5

> <Gold.Version>
5.8.1

> <Gold.Id.Protein>
6NUR|6NUR_protein|mol2

> <Gold.PLP.Fitness>
46.8072

> <Gold.PLP.PLP>
-38.1979

> <Gold.PLP.part.hbond>
-3.4484

> <Gold.PLP.part.metal>
0.0000

> <Gold.PLP.part.buried>
-1.6944

> <Gold.PLP.part.nonpolar>
-35.8097

> <Gold.PLP.part.repulsive>
2.8780

> <Gold.PLP.ligand.clash>
0.0000

> <Gold.PLP.ligand.torsion>
1.6675

> <Gold.PLP.Chemscore.Hbond>
2.9600

> <Gold.PLP.Chemscore.CHOScore>
1.0000

> <Gold.PLP.Chemscore.Metal>
0.0000

> <Gold.Chemscore.Hbonds>
donor molecule, donor type, donor heavy atom, donor atom, acceptor molecule, acceptor atom, score
      L1  H    11    37       P1  7957  0.43
      L1  H    14    38       P1  7957  0.54
      P1  H  7954  7966       L1    16  0.11
      L1  C    17    39       P1  7921  0.48

> <Gold.PLP.Chemscore.Internal.Correction>
0.0643

> <Gold.Rescore>
     Score         DG    S(hbond)    S(metal)    S(lipo)     H(rot)  DE(clash)    DE(int)     intcor
     15.61     -20.73       2.71        0.00      90.68       1.72       2.07       3.05       ----

> <Gold.Chemscore.Fitness>
15.6141

> <Gold.Chemscore.DG>
-20.7341

> <Gold.Chemscore.ZeroCoef>
-5.4800

> <Gold.Chemscore.Hbond>
2.7085

> <Gold.Chemscore.Metal>
0.0000

> <Gold.Chemscore.Lipo>
90.6799

> <Gold.Chemscore.Internal_Hbond>
0.0000

> <Gold.Chemscore.DEClash>
2.0686

> <Gold.Chemscore.DEInternal>
3.0514

> <Gold.Chemscore.Rot>
1.7195

> <Gold.Chemscore.Internal.Correction>
   9.000000E+99

> <Gold.Chemscore.Hbonds>
donor molecule, donor type, donor heavy atom, donor atom, acceptor molecule, acceptor atom, score
      L1  H    11    37       P1  7957  0.44
      L1  H    14    38       P1  7957  0.51
      P1  H  7954  7966       L1    16  0.07

> <Gold.Chemscore.Hbond.Weighted>
-9.0464

> <Gold.Chemscore.Metal.Weighted>
-0.0000

> <Gold.Chemscore.Lipo.Weighted>
-10.6096

> <Gold.Chemscore.Internal_Hbond.Weighted>
0.0000

> <Gold.Chemscore.DEClash.Weighted>
2.0686

> <Gold.Chemscore.DEInternal.Weighted>
3.0514

> <Gold.Chemscore.Rot.Weighted>
4.4019

> <Gold.Chemscore.Internal.Correction.Weighted>
   9.000000E+99

> <Gold.Protein.RotatedTorsions>
[ 6907 6896 6895 6894 ] final -177.08 input  -60.11 | X-H torsion
[ 7974 7965 7964 7962 ] final  -52.92 input  175.53 | X-H torsion
[ 8008 7997 7996 7995 ] final -124.41 input   59.86 | X-H torsion
[ 10167 10162 10161 10158 ] final  167.14 input  -65.29 | X-H torsion
[ 10718 10713 10712 10709 ] final  -19.55 input   66.30 | X-H torsion
[ 10763 10752 10751 10750 ] final   60.84 input  -60.55 | X-H torsion
[ 11005 11000 10999 10996 ] final   35.39 input  -57.11 | X-H torsion

> <Gold.Protein.ActiveResidues>
 VAL166  LYS551  ARG553  GLY616  TRP617  ASP618  TYR619  PRO620  LYS621  CYS622 
 ASP623  PHE694  ASN695  SER759  ASP760  ASP761  ALA762  ILE779  LEU786  VAL792 
 PHE793  MET794  SER795  GLU796  ALA797  LYS798  CYS799  TRP800  GLU811  SER814 

> <Gold.Protein.RotatedAtoms>
  151.6151  133.3344  159.3075 H   0  0  0  0  0  0  0  0  0  0  0  0  # atno 6907 bound_to 6896
  150.8135  134.7308  159.6721 H   0  0  0  0  0  0  0  0  0  0  0  0  # atno 6908 bound_to 6896
  152.4232  134.5922  160.0029 H   0  0  0  0  0  0  0  0  0  0  0  0  # atno 6909 bound_to 6896
  145.9026  140.7981  142.9735 H   0  0  0  0  0  0  0  0  0  0  0  0  # atno 7974 bound_to 7965
  155.1964  140.0414  157.2909 H   0  0  0  0  0  0  0  0  0  0  0  0  # atno 8008 bound_to 7997
  154.6104  140.2475  155.7648 H   0  0  0  0  0  0  0  0  0  0  0  0  # atno 8009 bound_to 7997
  156.2376  140.2916  156.0364 H   0  0  0  0  0  0  0  0  0  0  0  0  # atno 8010 bound_to 7997
  139.4939  144.3953  151.9471 H   0  0  0  0  0  0  0  0  0  0  0  0  # atno 10167 bound_to 10162
  156.5442  130.4685  149.6484 H   0  0  0  0  0  0  0  0  0  0  0  0  # atno 10718 bound_to 10713
  152.9933  135.5522  154.5939 H   0  0  0  0  0  0  0  0  0  0  0  0  # atno 10763 bound_to 10752
  154.5295  135.2812  155.1195 H   0  0  0  0  0  0  0  0  0  0  0  0  # atno 10764 bound_to 10752
  154.2516  135.6398  153.5295 H   0  0  0  0  0  0  0  0  0  0  0  0  # atno 10765 bound_to 10752
  140.2432  134.3390  155.7918 H   0  0  0  0  0  0  0  0  0  0  0  0  # atno 11005 bound_to 11000
  144.6737  140.1701  143.7415 LP  0  0  0  0  0  0  0  0  0  0  0  0  # atno 17320 bound_to 7965
  145.8772  139.2303  143.1626 LP  0  0  0  0  0  0  0  0  0  0  0  0  # atno 17321 bound_to 7965
  140.3391  144.3225  150.5971 LP  0  0  0  0  0  0  0  0  0  0  0  0  # atno 17342 bound_to 10162
  140.5581  143.2196  151.7813 LP  0  0  0  0  0  0  0  0  0  0  0  0  # atno 17343 bound_to 10162
  156.2944  130.7142  151.1999 LP  0  0  0  0  0  0  0  0  0  0  0  0  # atno 17370 bound_to 10713
  157.7400  131.0523  150.5197 LP  0  0  0  0  0  0  0  0  0  0  0  0  # atno 17371 bound_to 10713
  141.2208  133.7310  156.8918 LP  0  0  0  0  0  0  0  0  0  0  0  0  # atno 17394 bound_to 11000
  140.1632  134.9151  157.2741 LP  0  0  0  0  0  0  0  0  0  0  0  0  # atno 17395 bound_to 11000

$$$$
