AV-unprocessed.smi:374|AV-procd|sdf|2451|dock4
  -GOLD-   2262022393D 1   1.00000     0.00000
 Structure written by MMmdl.
 37 38  0  0  0  0  0  0  0  0  1 V2000
  150.7553  137.7801  158.5105 C   0  0  0  0  0  0  0  0  0  0  0  0
  152.0548  137.9083  157.6944 C   0  0  2  0  0  0  0  0  0  0  0  0
  153.0165  138.9632  158.2626 C   0  0  0  0  0  0  0  0  0  0  0  0
  154.2228  138.7335  158.3569 O   0  0  0  0  0  0  0  0  0  0  0  0
  152.4607  140.1215  158.6464 N   0  0  0  0  0  0  0  0  0  0  0  0
  153.1923  141.2351  159.2349 C   0  0  0  0  0  0  0  0  0  0  0  0
  152.2515  142.3980  159.6040 C   0  0  0  0  0  0  0  0  0  0  0  0
  152.1640  143.4191  158.4515 C   0  0  0  0  0  0  0  0  0  0  0  0
  151.2205  144.5841  158.7917 C   0  0  0  0  0  0  0  0  0  0  0  0
  151.6431  145.2792  160.0946 C   0  0  0  0  0  0  0  0  0  0  0  0
  151.7294  144.2744  161.2531 C   0  0  0  0  0  0  0  0  0  0  0  0
  152.6700  143.1068  160.9123 C   0  0  0  0  0  0  0  0  0  0  0  0
  151.7674  138.1912  156.2949 N   0  0  0  0  0  0  0  0  0  0  0  0
  151.1316  139.2166  155.7206 C   0  0  0  0  0  0  0  0  0  0  0  0
  151.0649  139.1351  154.3992 N   0  0  0  0  0  0  0  0  0  0  0  0
  151.7251  137.9539  154.2105 C   0  0  0  0  0  0  0  0  0  0  0  0
  152.1669  137.3481  155.3128 N   0  0  0  0  0  0  0  0  0  0  0  0
  150.9659  137.5610  159.5577 H   0  0  0  0  0  0  0  0  0  0  0  0
  150.1353  136.9698  158.1260 H   0  0  0  0  0  0  0  0  0  0  0  0
  150.1618  138.6946  158.4739 H   0  0  0  0  0  0  0  0  0  0  0  0
  152.5673  136.9457  157.7459 H   0  0  0  0  0  0  0  0  0  0  0  0
  151.4625  140.2315  158.5400 H   0  0  0  0  0  0  0  0  0  0  0  0
  153.7278  140.8902  160.1211 H   0  0  0  0  0  0  0  0  0  0  0  0
  153.9439  141.5760  158.5210 H   0  0  0  0  0  0  0  0  0  0  0  0
  151.2536  141.9821  159.7529 H   0  0  0  0  0  0  0  0  0  0  0  0
  153.1577  143.8108  158.2303 H   0  0  0  0  0  0  0  0  0  0  0  0
  151.8184  142.9265  157.5419 H   0  0  0  0  0  0  0  0  0  0  0  0
  151.2096  145.3043  157.9734 H   0  0  0  0  0  0  0  0  0  0  0  0
  150.1999  144.2119  158.8896 H   0  0  0  0  0  0  0  0  0  0  0  0
  152.6120  145.7604  159.9548 H   0  0  0  0  0  0  0  0  0  0  0  0
  150.9359  146.0720  160.3402 H   0  0  0  0  0  0  0  0  0  0  0  0
  152.0749  144.7780  162.1564 H   0  0  0  0  0  0  0  0  0  0  0  0
  150.7339  143.8883  161.4762 H   0  0  0  0  0  0  0  0  0  0  0  0
  152.6759  142.4022  161.7444 H   0  0  0  0  0  0  0  0  0  0  0  0
  153.6912  143.4789  160.8185 H   0  0  0  0  0  0  0  0  0  0  0  0
  150.7110  140.0389  156.2810 H   0  0  0  0  0  0  0  0  0  0  0  0
  151.8862  137.5282  153.2312 H   0  0  0  0  0  0  0  0  0  0  0  0
  1  2  1  0  0  0  0
  1 18  1  0  0  0  0
  1 19  1  0  0  0  0
  1 20  1  0  0  0  0
  2  3  1  0  0  0  0
  2 13  1  0  0  0  0
  2 21  1  0  0  0  0
  3  4  2  0  0  0  0
  3  5  1  0  0  0  0
  5  6  1  0  0  0  0
  5 22  1  0  0  0  0
  6  7  1  0  0  0  0
  6 23  1  0  0  0  0
  6 24  1  0  0  0  0
  7 12  1  0  0  0  0
  7  8  1  0  0  0  0
  7 25  1  0  0  0  0
  8  9  1  0  0  0  0
  8 26  1  0  0  0  0
  8 27  1  0  0  0  0
  9 10  1  0  0  0  0
  9 28  1  0  0  0  0
  9 29  1  0  0  0  0
 10 11  1  0  0  0  0
 10 30  1  0  0  0  0
 10 31  1  0  0  0  0
 11 12  1  0  0  0  0
 11 32  1  0  0  0  0
 11 33  1  0  0  0  0
 12 34  1  0  0  0  0
 12 35  1  0  0  0  0
 13 17  1  0  0  0  0
 13 14  1  0  0  0  0
 14 15  2  0  0  0  0
 14 36  1  0  0  0  0
 15 16  1  0  0  0  0
 16 17  2  0  0  0  0
 16 37  1  0  0  0  0
M  END
> <s_m_source_file>
AV-unprocessed.smi

> <i_m_source_file_index>
374

> <i_lp_mmshare_version>
43012

> <i_f3d_flags>
0

> <s_epik_input>
bjFbY0hdbltjSF1uMVtDQEhdKFtDSDNdKUMoPU8pW05IXVtDSDJdW0NIXTJbQ0gyXVtDSDJdW0NIMl1bQ0gyXVtDSDJdMg==

> <s_epik_cmdline>
J2VwaWtfcHl0aG9uJywgJy1waCcsICc3LjAnLCAnLXRuJywgJzgnLCAnLW1hJywgJzIwMCcsICctbWV0YWxfYmluZGluZycsICctaW1hZScsICc8aW5maWxlLm1hZT4nLCAnLW9tYWUnLCAnPG91dGZpbGUubWFlPic=

> <r_lp_tautomer_probability>
1

> <r_epik_Ionization_Penalty>
1.24899e-05

> <r_epik_Ionization_Penalty_Charging>
0

> <r_epik_Ionization_Penalty_Neutral>
1.24899e-05

> <r_epik_State_Penalty>
-0

> <r_epik_Charging_Adjusted_Penalty>
0

> <i_epik_Tot_Q>
0

> <i_epik_Tot_abs_Q>
0

> <r_epik_Metal_State_Penalty>
-0

> <b_epik_Metal_Only>
0

> <s_lp_Force_Field>
OPLS_2005

> <r_lp_Energy>
16.088

> <b_lp_Chiralities_Consistent>
1

> <s_lp_Variant>
AV-unprocessed.smi:374-1

> <Gold.Version>
5.8.1

> <Gold.Id.Protein>
6NUR|6NUR_protein|mol2

> <Gold.PLP.Fitness>
46.4549

> <Gold.PLP.PLP>
-37.4958

> <Gold.PLP.part.hbond>
-3.0000

> <Gold.PLP.part.metal>
0.0000

> <Gold.PLP.part.buried>
-5.4703

> <Gold.PLP.part.nonpolar>
-30.0712

> <Gold.PLP.part.repulsive>
0.3117

> <Gold.PLP.ligand.clash>
0.0000

> <Gold.PLP.ligand.torsion>
1.0195

> <Gold.PLP.Chemscore.Hbond>
2.6435

> <Gold.PLP.Chemscore.CHOScore>
1.0000

> <Gold.PLP.Chemscore.Metal>
0.0000

> <Gold.Chemscore.Hbonds>
donor molecule, donor type, donor heavy atom, donor atom, acceptor molecule, acceptor atom, score
      P1  H  7989  7998       L1    15  1.00
      P1  H  7997  8010       L1     4  1.00
      P1  H 10752 10765       L1    17  0.76
      L1  C    16    37       P1  7949  1.00

> <Gold.PLP.Chemscore.Internal.Correction>
0.0676

> <Gold.Rescore>
     Score         DG    S(hbond)    S(metal)    S(lipo)     H(rot)  DE(clash)    DE(int)     intcor
     14.74     -15.71       1.92        0.00      79.42       2.14       0.18       0.79       ----

> <Gold.Chemscore.Fitness>
14.7391

> <Gold.Chemscore.DG>
-15.7092

> <Gold.Chemscore.ZeroCoef>
-5.4800

> <Gold.Chemscore.Hbond>
1.9196

> <Gold.Chemscore.Metal>
0.0000

> <Gold.Chemscore.Lipo>
79.4173

> <Gold.Chemscore.Internal_Hbond>
0.0000

> <Gold.Chemscore.DEClash>
0.1799

> <Gold.Chemscore.DEInternal>
0.7903

> <Gold.Chemscore.Rot>
2.1383

> <Gold.Chemscore.Internal.Correction>
   9.000000E+99

> <Gold.Chemscore.Hbonds>
donor molecule, donor type, donor heavy atom, donor atom, acceptor molecule, acceptor atom, score
      P1  H  7989  7998       L1    15  0.79
      P1  H  7997  8010       L1     4  0.26
      P1  H 10752 10765       L1    17  0.22

> <Gold.Chemscore.Hbond.Weighted>
-6.4115

> <Gold.Chemscore.Metal.Weighted>
-0.0000

> <Gold.Chemscore.Lipo.Weighted>
-9.2918

> <Gold.Chemscore.Internal_Hbond.Weighted>
0.0000

> <Gold.Chemscore.DEClash.Weighted>
0.1799

> <Gold.Chemscore.DEInternal.Weighted>
0.7903

> <Gold.Chemscore.Rot.Weighted>
5.4741

> <Gold.Chemscore.Internal.Correction.Weighted>
   9.000000E+99

> <Gold.Protein.RotatedTorsions>
[ 6907 6896 6895 6894 ] final   -8.29 input  -60.11 | X-H torsion
[ 7974 7965 7964 7962 ] final -150.01 input  175.53 | X-H torsion
[ 8008 7997 7996 7995 ] final   15.10 input   59.86 | X-H torsion
[ 10167 10162 10161 10158 ] final  -70.46 input  -65.29 | X-H torsion
[ 10718 10713 10712 10709 ] final  124.07 input   66.30 | X-H torsion
[ 10763 10752 10751 10750 ] final  175.79 input  -60.55 | X-H torsion
[ 11005 11000 10999 10996 ] final -168.54 input  -57.11 | X-H torsion

> <Gold.Protein.ActiveResidues>
 VAL166  LYS551  ARG553  GLY616  TRP617  ASP618  TYR619  PRO620  LYS621  CYS622 
 ASP623  PHE694  ASN695  SER759  ASP760  ASP761  ALA762  ILE779  LEU786  VAL792 
 PHE793  MET794  SER795  GLU796  ALA797  LYS798  CYS799  TRP800  GLU811  SER814 

> <Gold.Protein.RotatedAtoms>
  151.4359  135.1015  159.9655 H   0  0  0  0  0  0  0  0  0  0  0  0  # atno 6907 bound_to 6896
  152.4939  133.8573  159.7243 H   0  0  0  0  0  0  0  0  0  0  0  0  # atno 6908 bound_to 6896
  150.9122  133.6925  159.2879 H   0  0  0  0  0  0  0  0  0  0  0  0  # atno 6909 bound_to 6896
  144.7933  140.4988  143.5758 H   0  0  0  0  0  0  0  0  0  0  0  0  # atno 7974 bound_to 7965
  154.8579  140.2940  155.5557 H   0  0  0  0  0  0  0  0  0  0  0  0  # atno 8008 bound_to 7997
  156.3019  140.2483  156.3481 H   0  0  0  0  0  0  0  0  0  0  0  0  # atno 8009 bound_to 7997
  154.8950  140.0393  157.1849 H   0  0  0  0  0  0  0  0  0  0  0  0  # atno 8010 bound_to 7997
  140.5351  143.2318  151.7192 H   0  0  0  0  0  0  0  0  0  0  0  0  # atno 10167 bound_to 10162
  157.5614  131.1089  150.8531 H   0  0  0  0  0  0  0  0  0  0  0  0  # atno 10718 bound_to 10713
  154.4723  135.2771  155.1633 H   0  0  0  0  0  0  0  0  0  0  0  0  # atno 10763 bound_to 10752
  154.3377  135.6177  153.5585 H   0  0  0  0  0  0  0  0  0  0  0  0  # atno 10764 bound_to 10752
  152.9865  135.5781  154.5107 H   0  0  0  0  0  0  0  0  0  0  0  0  # atno 10765 bound_to 10752
  140.5409  134.5524  157.5099 H   0  0  0  0  0  0  0  0  0  0  0  0  # atno 11005 bound_to 11000
  145.5738  139.1485  143.3273 LP  0  0  0  0  0  0  0  0  0  0  0  0  # atno 17320 bound_to 7965
  146.2192  140.5871  142.9024 LP  0  0  0  0  0  0  0  0  0  0  0  0  # atno 17321 bound_to 7965
  139.4968  144.4055  152.0136 LP  0  0  0  0  0  0  0  0  0  0  0  0  # atno 17342 bound_to 10162
  140.3160  144.3483  150.6021 LP  0  0  0  0  0  0  0  0  0  0  0  0  # atno 17343 bound_to 10162
  156.9028  130.5253  149.5282 LP  0  0  0  0  0  0  0  0  0  0  0  0  # atno 17370 bound_to 10713
  156.0666  130.5708  150.9301 LP  0  0  0  0  0  0  0  0  0  0  0  0  # atno 17371 bound_to 10713
  139.9505  134.7626  156.0461 LP  0  0  0  0  0  0  0  0  0  0  0  0  # atno 17394 bound_to 11000
  141.1228  133.6608  156.3258 LP  0  0  0  0  0  0  0  0  0  0  0  0  # atno 17395 bound_to 11000

$$$$
