AV-unprocessed.smi:557|AV-procd|sdf|2915|dock2
  -GOLD-   2262023403D 1   1.00000     0.00000
 Structure written by MMmdl.
 47 49  0  0  0  0  0  0  0  0  2 V2000
  154.3041  138.1937  154.4355 C   0  0  0  0  0  0  0  0  0  0  0  0
  153.0054  138.7897  154.6638 N   0  0  0  0  0  0  0  0  0  0  0  0
  151.8036  138.4943  154.0571 C   0  0  0  0  0  0  0  0  0  0  0  0
  150.8573  139.3168  154.6005 C   0  0  0  0  0  0  0  0  0  0  0  0
  149.3899  139.4014  154.2867 C   0  0  0  0  0  0  0  0  0  0  0  0
  148.5821  138.3789  155.0968 C   0  0  0  0  0  0  0  0  0  0  0  0
  148.0845  137.3141  154.2299 N   0  0  0  0  0  0  0  0  0  0  0  0
  146.9066  136.6741  154.3222 C   0  0  0  0  0  0  0  0  0  0  0  0
  146.0891  136.9381  155.2015 O   0  0  0  0  0  0  0  0  0  0  0  0
  146.7083  135.7313  153.3854 N   0  0  0  0  0  0  0  0  0  0  0  0
  145.5159  134.8975  153.2690 C   0  0  1  0  0  0  0  0  0  0  0  0
  144.2275  135.7196  153.0885 C   0  0  0  0  0  0  0  0  0  0  0  0
  143.3647  134.9158  152.0961 C   0  0  0  0  0  0  0  0  0  0  0  0
  144.1169  133.6725  151.8417 N   0  3  1  0  0  0  0  0  0  0  0  0
  143.8468  132.9703  150.5682 C   0  0  0  0  0  0  0  0  0  0  0  0
  144.6576  131.6595  150.5290 C   0  0  0  0  0  0  0  0  0  0  0  0
  146.1573  131.9070  150.7911 C   0  0  0  0  0  0  0  0  0  0  0  0
  146.3704  132.7242  152.0799 C   0  0  0  0  0  0  0  0  0  0  0  0
  145.5365  134.0154  152.0175 C   0  0  2  0  0  0  0  0  0  0  0  0
  151.5930  140.0876  155.5455 C   0  0  0  0  0  0  0  0  0  0  0  0
  152.8770  139.7712  155.5798 N   0  0  0  0  0  0  0  0  0  0  0  0
  154.2352  137.4315  153.6590 H   0  0  0  0  0  0  0  0  0  0  0  0
  154.6639  137.7313  155.3551 H   0  0  0  0  0  0  0  0  0  0  0  0
  155.0122  138.9601  154.1187 H   0  0  0  0  0  0  0  0  0  0  0  0
  151.7214  137.7320  153.2964 H   0  0  0  0  0  0  0  0  0  0  0  0
  149.0131  140.4042  154.4921 H   0  0  0  0  0  0  0  0  0  0  0  0
  149.2205  139.2336  153.2224 H   0  0  0  0  0  0  0  0  0  0  0  0
  149.2084  137.9462  155.8789 H   0  0  0  0  0  0  0  0  0  0  0  0
  147.7422  138.8747  155.5867 H   0  0  0  0  0  0  0  0  0  0  0  0
  148.7018  137.0256  153.4843 H   0  0  0  0  0  0  0  0  0  0  0  0
  147.4369  135.5857  152.7015 H   0  0  0  0  0  0  0  0  0  0  0  0
  145.4004  134.2696  154.1552 H   0  0  0  0  0  0  0  0  0  0  0  0
  143.7190  135.8663  154.0420 H   0  0  0  0  0  0  0  0  0  0  0  0
  144.4384  136.7070  152.6753 H   0  0  0  0  0  0  0  0  0  0  0  0
  142.3732  134.6931  152.4912 H   0  0  0  0  0  0  0  0  0  0  0  0
  143.2422  135.4766  151.1681 H   0  0  0  0  0  0  0  0  0  0  0  0
  142.7805  132.7567  150.4863 H   0  0  0  0  0  0  0  0  0  0  0  0
  144.1139  133.6108  149.7262 H   0  0  0  0  0  0  0  0  0  0  0  0
  144.2704  130.9737  151.2840 H   0  0  0  0  0  0  0  0  0  0  0  0
  144.5229  131.1644  149.5668 H   0  0  0  0  0  0  0  0  0  0  0  0
  146.6891  130.9574  150.8563 H   0  0  0  0  0  0  0  0  0  0  0  0
  146.5881  132.4453  149.9456 H   0  0  0  0  0  0  0  0  0  0  0  0
  146.0816  132.1316  152.9490 H   0  0  0  0  0  0  0  0  0  0  0  0
  147.4285  132.9588  152.1975 H   0  0  0  0  0  0  0  0  0  0  0  0
  145.8580  134.6146  151.1623 H   0  0  0  0  0  0  0  0  0  0  0  0
  151.2326  140.8650  156.2027 H   0  0  0  0  0  0  0  0  0  0  0  0
  143.8836  133.0371  152.5914 H   0  0  0  0  0  0  0  0  0  0  0  0
  1  2  1  0  0  0  0
  1 22  1  0  0  0  0
  1 23  1  0  0  0  0
  1 24  1  0  0  0  0
  2 21  1  0  0  0  0
  2  3  1  0  0  0  0
  3  4  2  0  0  0  0
  3 25  1  0  0  0  0
  4  5  1  0  0  0  0
  4 20  1  0  0  0  0
  5  6  1  0  0  0  0
  5 26  1  0  0  0  0
  5 27  1  0  0  0  0
  6  7  1  0  0  0  0
  6 28  1  0  0  0  0
  6 29  1  0  0  0  0
  7  8  1  0  0  0  0
  7 30  1  0  0  0  0
  8  9  2  0  0  0  0
  8 10  1  0  0  0  0
 10 11  1  0  0  0  0
 10 31  1  0  0  0  0
 11 19  1  0  0  0  0
 11 12  1  0  0  0  0
 11 32  1  0  0  0  0
 12 13  1  0  0  0  0
 12 33  1  0  0  0  0
 12 34  1  0  0  0  0
 13 14  1  0  0  0  0
 13 35  1  0  0  0  0
 13 36  1  0  0  0  0
 14 19  1  0  0  0  0
 14 15  1  0  0  0  0
 14 47  1  0  0  0  0
 15 16  1  0  0  0  0
 15 37  1  0  0  0  0
 15 38  1  0  0  0  0
 16 17  1  0  0  0  0
 16 39  1  0  0  0  0
 16 40  1  0  0  0  0
 17 18  1  0  0  0  0
 17 41  1  0  0  0  0
 17 42  1  0  0  0  0
 18 19  1  0  0  0  0
 18 43  1  0  0  0  0
 18 44  1  0  0  0  0
 19 45  1  0  0  0  0
 20 21  2  0  0  0  0
 20 46  1  0  0  0  0
M  CHG  1  14   1
M  END
> <s_m_source_file>
AV-unprocessed.smi

> <i_m_source_file_index>
557

> <i_lp_mmshare_version>
43012

> <i_f3d_flags>
0

> <s_epik_input>
W0NIM11uMVtjSF1jKFtjSF1uMSlbQ0gyXVtDSDJdW05IXUMoPU8pW05IXVtDQEhdKFtDSDJdW0NIMl0yKVtDQEhdKE4yMylbQ0gyXVtDSDJdW0NIMl1bQ0gyXTM=

> <s_epik_cmdline>
J2VwaWtfcHl0aG9uJywgJy1waCcsICc3LjAnLCAnLXRuJywgJzgnLCAnLW1hJywgJzIwMCcsICctbWV0YWxfYmluZGluZycsICctaW1hZScsICc8aW5maWxlLm1hZT4nLCAnLW9tYWUnLCAnPG91dGZpbGUubWFlPic=

> <r_lp_tautomer_probability>
1

> <r_epik_Ionization_Penalty>
0.000956547

> <r_epik_Ionization_Penalty_Charging>
0.000435796

> <r_epik_Ionization_Penalty_Neutral>
0.000520752

> <r_epik_State_Penalty>
-0

> <r_epik_Charging_Adjusted_Penalty>
0.000435796

> <i_epik_Tot_Q>
1

> <i_epik_Tot_abs_Q>
1

> <r_epik_Metal_State_Penalty>
-0

> <b_epik_Metal_Only>
0

> <s_lp_Force_Field>
OPLS_2005

> <r_lp_Energy>
39.7592

> <b_lp_Chiralities_Consistent>
1

> <s_lp_Variant>
AV-unprocessed.smi:557-2

> <Gold.Version>
5.8.1

> <Gold.Id.Protein>
6NUR|6NUR_protein|mol2

> <Gold.PLP.Fitness>
43.6230

> <Gold.PLP.PLP>
-33.4146

> <Gold.PLP.part.hbond>
-3.0000

> <Gold.PLP.part.metal>
0.0000

> <Gold.PLP.part.buried>
0.4073

> <Gold.PLP.part.nonpolar>
-29.8237

> <Gold.PLP.part.repulsive>
0.0257

> <Gold.PLP.ligand.clash>
0.0000

> <Gold.PLP.ligand.torsion>
0.8866

> <Gold.PLP.Chemscore.Hbond>
3.0000

> <Gold.PLP.Chemscore.CHOScore>
0.9819

> <Gold.PLP.Chemscore.Metal>
0.0000

> <Gold.Chemscore.Hbonds>
donor molecule, donor type, donor heavy atom, donor atom, acceptor molecule, acceptor atom, score
      L1  H     7    30       P1  7948  1.00
      L1  H    10    31       P1  7948  0.99
      P1  H  7997  8008       L1    21  1.00
      L1  C     3    25       P1  7949  0.91

> <Gold.PLP.Chemscore.Internal.Correction>
0.0358

> <Gold.Rescore>
     Score         DG    S(hbond)    S(metal)    S(lipo)     H(rot)  DE(clash)    DE(int)     intcor
     19.14     -21.51       2.86        0.00      90.39       1.60       1.52       0.86       ----

> <Gold.Chemscore.Fitness>
19.1362

> <Gold.Chemscore.DG>
-21.5144

> <Gold.Chemscore.ZeroCoef>
-5.4800

> <Gold.Chemscore.Hbond>
2.8620

> <Gold.Chemscore.Metal>
0.0000

> <Gold.Chemscore.Lipo>
90.3940

> <Gold.Chemscore.Internal_Hbond>
0.0000

> <Gold.Chemscore.DEClash>
1.5204

> <Gold.Chemscore.DEInternal>
0.8578

> <Gold.Chemscore.Rot>
1.6018

> <Gold.Chemscore.Internal.Correction>
   9.000000E+99

> <Gold.Chemscore.Hbonds>
donor molecule, donor type, donor heavy atom, donor atom, acceptor molecule, acceptor atom, score
      L1  H     7    30       P1  7948  0.95
      L1  H    10    31       P1  7948  0.93
      P1  H  7997  8008       L1    21  0.80

> <Gold.Chemscore.Hbond.Weighted>
-9.5589

> <Gold.Chemscore.Metal.Weighted>
-0.0000

> <Gold.Chemscore.Lipo.Weighted>
-10.5761

> <Gold.Chemscore.Internal_Hbond.Weighted>
0.0000

> <Gold.Chemscore.DEClash.Weighted>
1.5204

> <Gold.Chemscore.DEInternal.Weighted>
0.8578

> <Gold.Chemscore.Rot.Weighted>
4.1006

> <Gold.Chemscore.Internal.Correction.Weighted>
   9.000000E+99

> <Gold.Protein.RotatedTorsions>
[ 6907 6896 6895 6894 ] final  -54.77 input  -60.11 | X-H torsion
[ 7974 7965 7964 7962 ] final  -49.60 input  175.53 | X-H torsion
[ 8008 7997 7996 7995 ] final  -44.51 input   59.86 | X-H torsion
[ 10167 10162 10161 10158 ] final -143.30 input  -65.29 | X-H torsion
[ 10718 10713 10712 10709 ] final  170.97 input   66.30 | X-H torsion
[ 10763 10752 10751 10750 ] final  -75.82 input  -60.55 | X-H torsion
[ 11005 11000 10999 10996 ] final  115.50 input  -57.11 | X-H torsion

> <Gold.Protein.ActiveResidues>
 VAL166  LYS551  ARG553  GLY616  TRP617  ASP618  TYR619  PRO620  LYS621  CYS622 
 ASP623  PHE694  ASN695  SER759  ASP760  ASP761  ALA762  ILE779  LEU786  VAL792 
 PHE793  MET794  SER795  GLU796  ALA797  LYS798  CYS799  TRP800  GLU811  SER814 

> <Gold.Protein.RotatedAtoms>
  150.8309  134.7562  159.6852 H   0  0  0  0  0  0  0  0  0  0  0  0  # atno 6907 bound_to 6896
  152.4414  134.5581  159.9896 H   0  0  0  0  0  0  0  0  0  0  0  0  # atno 6908 bound_to 6896
  151.5742  133.3348  159.3031 H   0  0  0  0  0  0  0  0  0  0  0  0  # atno 6909 bound_to 6896
  145.9388  140.7681  142.9562 H   0  0  0  0  0  0  0  0  0  0  0  0  # atno 7974 bound_to 7965
  154.3997  140.1420  156.3695 H   0  0  0  0  0  0  0  0  0  0  0  0  # atno 8008 bound_to 7997
  155.8106  140.3473  155.5435 H   0  0  0  0  0  0  0  0  0  0  0  0  # atno 8009 bound_to 7997
  155.8390  140.0924  157.1736 H   0  0  0  0  0  0  0  0  0  0  0  0  # atno 8010 bound_to 7997
  139.8006  143.7839  152.2658 H   0  0  0  0  0  0  0  0  0  0  0  0  # atno 10167 bound_to 10162
  157.0004  131.0174  151.2832 H   0  0  0  0  0  0  0  0  0  0  0  0  # atno 10718 bound_to 10713
  154.4917  135.5818  153.6464 H   0  0  0  0  0  0  0  0  0  0  0  0  # atno 10763 bound_to 10752
  152.9863  135.6114  154.3117 H   0  0  0  0  0  0  0  0  0  0  0  0  # atno 10764 bound_to 10752
  154.3017  135.2846  155.2587 H   0  0  0  0  0  0  0  0  0  0  0  0  # atno 10765 bound_to 10752
  139.9012  134.9585  156.7054 H   0  0  0  0  0  0  0  0  0  0  0  0  # atno 11005 bound_to 11000
  144.6776  140.2247  143.7362 LP  0  0  0  0  0  0  0  0  0  0  0  0  # atno 17320 bound_to 7965
  145.8327  139.2093  143.1873 LP  0  0  0  0  0  0  0  0  0  0  0  0  # atno 17321 bound_to 7965
  139.7958  144.7393  150.9893 LP  0  0  0  0  0  0  0  0  0  0  0  0  # atno 17342 bound_to 10162
  140.7820  143.4396  151.0572 LP  0  0  0  0  0  0  0  0  0  0  0  0  # atno 17343 bound_to 10162
  157.5394  130.8110  149.8011 LP  0  0  0  0  0  0  0  0  0  0  0  0  # atno 17370 bound_to 10713
  156.0173  130.3808  150.2070 LP  0  0  0  0  0  0  0  0  0  0  0  0  # atno 17371 bound_to 10713
  140.7117  133.9217  155.8089 LP  0  0  0  0  0  0  0  0  0  0  0  0  # atno 17394 bound_to 11000
  141.0295  134.0776  157.4030 LP  0  0  0  0  0  0  0  0  0  0  0  0  # atno 17395 bound_to 11000

$$$$
