AV-unprocessed.smi:1686|AV-procd|sdf|6763|dock10
  -GOLD-   22720 7523D 1   1.00000     0.00000
 Structure written by MMmdl.
 41 43  0  0  0  0  0  0  0  0  1 V2000
  152.9815  138.9876  159.7794 C   0  0  0  0  0  0  0  0  0  0  0  0
  151.9937  138.0310  159.1759 C   0  0  0  0  0  0  0  0  0  0  0  0
  151.2736  137.2574  159.9776 N   0  0  0  0  0  0  0  0  0  0  0  0
  150.4470  136.4908  159.1481 O   0  0  0  0  0  0  0  0  0  0  0  0
  150.7213  136.8512  157.8735 C   0  0  0  0  0  0  0  0  0  0  0  0
  149.9155  136.1518  156.5254 Cl  0  0  0  0  0  0  0  0  0  0  0  0
  151.6870  137.8132  157.8002 C   0  0  0  0  0  0  0  0  0  0  0  0
  152.2773  138.4842  156.5831 C   0  0  0  0  0  0  0  0  0  0  0  0
  151.5355  139.7790  156.2294 C   0  0  0  0  0  0  0  0  0  0  0  0
  150.9626  139.9132  155.1467 O   0  0  0  0  0  0  0  0  0  0  0  0
  151.5613  140.7359  157.1696 N   0  0  0  0  0  0  0  0  0  0  0  0
  150.9494  142.0583  157.0560 C   0  0  1  0  0  0  0  0  0  0  0  0
  149.4776  141.8974  156.6340 C   0  0  0  0  0  0  0  0  0  0  0  0
  151.0953  142.8216  158.3953 C   0  0  2  0  0  0  0  0  0  0  0  0
  150.6506  144.3030  158.3177 C   0  0  0  0  0  0  0  0  0  0  0  0
  151.8714  145.0698  158.8559 C   0  0  1  0  0  0  0  0  0  0  0  0
  152.0240  144.8030  160.3643 C   0  0  0  0  0  0  0  0  0  0  0  0
  152.5246  143.3471  160.3997 C   0  0  0  0  0  0  0  0  0  0  0  0
  152.5529  142.9604  158.9084 C   0  0  2  0  0  0  0  0  0  0  0  0
  153.0213  144.2632  158.2686 C   0  0  0  0  0  0  0  0  0  0  0  0
  153.4797  139.5842  159.0155 H   0  0  0  0  0  0  0  0  0  0  0  0
  153.7519  138.4552  160.3376 H   0  0  0  0  0  0  0  0  0  0  0  0
  152.4894  139.6779  160.4650 H   0  0  0  0  0  0  0  0  0  0  0  0
  153.3308  138.7178  156.7393 H   0  0  0  0  0  0  0  0  0  0  0  0
  152.2421  137.8244  155.7158 H   0  0  0  0  0  0  0  0  0  0  0  0
  152.0552  140.5393  158.0279 H   0  0  0  0  0  0  0  0  0  0  0  0
  151.4708  142.6222  156.2806 H   0  0  0  0  0  0  0  0  0  0  0  0
  148.9905  142.8623  156.4965 H   0  0  0  0  0  0  0  0  0  0  0  0
  148.9095  141.3428  157.3817 H   0  0  0  0  0  0  0  0  0  0  0  0
  149.3952  141.3591  155.6891 H   0  0  0  0  0  0  0  0  0  0  0  0
  150.4991  142.2993  159.1455 H   0  0  0  0  0  0  0  0  0  0  0  0
  150.4512  144.6086  157.2899 H   0  0  0  0  0  0  0  0  0  0  0  0
  149.7484  144.4963  158.8993 H   0  0  0  0  0  0  0  0  0  0  0  0
  151.8717  146.1287  158.5959 H   0  0  0  0  0  0  0  0  0  0  0  0
  152.7613  145.4733  160.8077 H   0  0  0  0  0  0  0  0  0  0  0  0
  151.0846  144.9337  160.9028 H   0  0  0  0  0  0  0  0  0  0  0  0
  153.5257  143.2985  160.8297 H   0  0  0  0  0  0  0  0  0  0  0  0
  151.8783  142.6970  160.9904 H   0  0  0  0  0  0  0  0  0  0  0  0
  153.1921  142.1005  158.7085 H   0  0  0  0  0  0  0  0  0  0  0  0
  153.0225  144.2391  157.1778 H   0  0  0  0  0  0  0  0  0  0  0  0
  154.0023  144.5896  158.6189 H   0  0  0  0  0  0  0  0  0  0  0  0
  1  2  1  0  0  0  0
  1 21  1  0  0  0  0
  1 22  1  0  0  0  0
  1 23  1  0  0  0  0
  2  7  1  0  0  0  0
  2  3  2  0  0  0  0
  3  4  1  0  0  0  0
  4  5  1  0  0  0  0
  5  6  1  0  0  0  0
  5  7  2  0  0  0  0
  7  8  1  0  0  0  0
  8  9  1  0  0  0  0
  8 24  1  0  0  0  0
  8 25  1  0  0  0  0
  9 10  2  0  0  0  0
  9 11  1  0  0  0  0
 11 12  1  0  0  0  0
 11 26  1  0  0  0  0
 12 13  1  0  0  0  0
 12 14  1  0  0  0  0
 12 27  1  0  0  0  0
 13 28  1  0  0  0  0
 13 29  1  0  0  0  0
 13 30  1  0  0  0  0
 14 19  1  0  0  0  0
 14 15  1  0  0  0  0
 14 31  1  0  0  0  0
 15 16  1  0  0  0  0
 15 32  1  0  0  0  0
 15 33  1  0  0  0  0
 16 20  1  0  0  0  0
 16 17  1  0  0  0  0
 16 34  1  0  0  0  0
 17 18  1  0  0  0  0
 17 35  1  0  0  0  0
 17 36  1  0  0  0  0
 18 19  1  0  0  0  0
 18 37  1  0  0  0  0
 18 38  1  0  0  0  0
 19 20  1  0  0  0  0
 19 39  1  0  0  0  0
 20 40  1  0  0  0  0
 20 41  1  0  0  0  0
M  END
> <s_m_source_file>
AV-unprocessed.smi

> <i_m_source_file_index>
1686

> <i_lp_mmshare_version>
43012

> <i_f3d_flags>
0

> <s_epik_input>
W0NIM11jMW5vYyhDbCljMVtDSDJdQyg9TylbTkhdW0NASF0oW0NIM10pW0NASF0oW0NIMl1bQ0BIXTIzKVtDQEhdKFtDSDJdMylbQ0gyXVtDSDJdMg==

> <s_epik_cmdline>
J2VwaWtfcHl0aG9uJywgJy1waCcsICc3LjAnLCAnLXRuJywgJzgnLCAnLW1hJywgJzIwMCcsICctbWV0YWxfYmluZGluZycsICctaW1hZScsICc8aW5maWxlLm1hZT4nLCAnLW9tYWUnLCAnPG91dGZpbGUubWFlPic=

> <r_lp_tautomer_probability>
1

> <r_epik_Ionization_Penalty>
2.01576e-08

> <r_epik_Ionization_Penalty_Charging>
0

> <r_epik_Ionization_Penalty_Neutral>
2.01576e-08

> <r_epik_State_Penalty>
-0

> <r_epik_Charging_Adjusted_Penalty>
0

> <i_epik_Tot_Q>
0

> <i_epik_Tot_abs_Q>
0

> <r_epik_Metal_State_Penalty>
-0

> <b_epik_Metal_Only>
0

> <s_lp_Force_Field>
OPLS_2005

> <r_lp_Energy>
46.9039

> <b_lp_Chiralities_Consistent>
1

> <s_lp_Variant>
AV-unprocessed.smi:1686-6

> <Gold.Version>
5.8.1

> <Gold.Id.Protein>
6NUR|6NUR_protein|mol2

> <Gold.PLP.Fitness>
45.2779

> <Gold.PLP.PLP>
-40.3604

> <Gold.PLP.part.hbond>
-2.8420

> <Gold.PLP.part.metal>
0.0000

> <Gold.PLP.part.buried>
-4.6772

> <Gold.PLP.part.nonpolar>
-33.7165

> <Gold.PLP.part.repulsive>
0.1483

> <Gold.PLP.ligand.clash>
0.0000

> <Gold.PLP.ligand.torsion>
0.4461

> <Gold.PLP.Chemscore.Hbond>
1.9280

> <Gold.PLP.Chemscore.CHOScore>
0.0000

> <Gold.PLP.Chemscore.Metal>
0.0000

> <Gold.Chemscore.Hbonds>
donor molecule, donor type, donor heavy atom, donor atom, acceptor molecule, acceptor atom, score
      P1  H  6896  6907       L1     4  0.75
      P1  H  7989  7998       L1    10  1.00

> <Gold.PLP.Chemscore.Internal.Correction>
0.0258

> <Gold.Rescore>
     Score         DG    S(hbond)    S(metal)    S(lipo)     H(rot)  DE(clash)    DE(int)     intcor
     20.03     -22.16       1.74        0.00     124.89       1.46       0.17       1.96       ----

> <Gold.Chemscore.Fitness>
20.0305

> <Gold.Chemscore.DG>
-22.1579

> <Gold.Chemscore.ZeroCoef>
-5.4800

> <Gold.Chemscore.Hbond>
1.7413

> <Gold.Chemscore.Metal>
0.0000

> <Gold.Chemscore.Lipo>
124.8878

> <Gold.Chemscore.Internal_Hbond>
0.0000

> <Gold.Chemscore.DEClash>
0.1697

> <Gold.Chemscore.DEInternal>
1.9577

> <Gold.Chemscore.Rot>
1.4648

> <Gold.Chemscore.Internal.Correction>
   9.000000E+99

> <Gold.Chemscore.Hbonds>
donor molecule, donor type, donor heavy atom, donor atom, acceptor molecule, acceptor atom, score
      P1  H  6896  6907       L1     4  0.09
      P1  H  7989  7998       L1    10  0.94

> <Gold.Chemscore.Hbond.Weighted>
-5.8160

> <Gold.Chemscore.Metal.Weighted>
-0.0000

> <Gold.Chemscore.Lipo.Weighted>
-14.6119

> <Gold.Chemscore.Internal_Hbond.Weighted>
0.0000

> <Gold.Chemscore.DEClash.Weighted>
0.1697

> <Gold.Chemscore.DEInternal.Weighted>
1.9577

> <Gold.Chemscore.Rot.Weighted>
3.7500

> <Gold.Chemscore.Internal.Correction.Weighted>
   9.000000E+99

> <Gold.Protein.RotatedTorsions>
[ 6907 6896 6895 6894 ] final  -38.90 input  -60.11 | X-H torsion
[ 7974 7965 7964 7962 ] final  -33.52 input  175.53 | X-H torsion
[ 8008 7997 7996 7995 ] final  -36.67 input   59.86 | X-H torsion
[ 10167 10162 10161 10158 ] final  -11.29 input  -65.29 | X-H torsion
[ 10718 10713 10712 10709 ] final -153.88 input   66.30 | X-H torsion
[ 10763 10752 10751 10750 ] final  -68.49 input  -60.55 | X-H torsion
[ 11005 11000 10999 10996 ] final   91.01 input  -57.11 | X-H torsion

> <Gold.Protein.ActiveResidues>
 VAL166  LYS551  ARG553  GLY616  TRP617  ASP618  TYR619  PRO620  LYS621  CYS622 
 ASP623  PHE694  ASN695  SER759  ASP760  ASP761  ALA762  ILE779  LEU786  VAL792 
 PHE793  MET794  SER795  GLU796  ALA797  LYS798  CYS799  TRP800  GLU811  SER814 

> <Gold.Protein.RotatedAtoms>
  150.9968  134.9289  159.7930 H   0  0  0  0  0  0  0  0  0  0  0  0  # atno 6907 bound_to 6896
  152.5266  134.3208  159.9157 H   0  0  0  0  0  0  0  0  0  0  0  0  # atno 6908 bound_to 6896
  151.3214  133.3997  159.2689 H   0  0  0  0  0  0  0  0  0  0  0  0  # atno 6909 bound_to 6896
  146.0904  140.5926  142.8867 H   0  0  0  0  0  0  0  0  0  0  0  0  # atno 7974 bound_to 7965
  154.4068  140.1624  156.2412 H   0  0  0  0  0  0  0  0  0  0  0  0  # atno 8008 bound_to 7997
  155.9200  140.3422  155.6142 H   0  0  0  0  0  0  0  0  0  0  0  0  # atno 8009 bound_to 7997
  155.7234  140.0771  157.2311 H   0  0  0  0  0  0  0  0  0  0  0  0  # atno 8010 bound_to 7997
  140.7135  143.5655  150.9149 H   0  0  0  0  0  0  0  0  0  0  0  0  # atno 10167 bound_to 10162
  156.4917  130.8350  151.2573 H   0  0  0  0  0  0  0  0  0  0  0  0  # atno 10718 bound_to 10713
  154.3898  135.6055  153.5837 H   0  0  0  0  0  0  0  0  0  0  0  0  # atno 10763 bound_to 10752
  152.9787  135.5881  154.4311 H   0  0  0  0  0  0  0  0  0  0  0  0  # atno 10764 bound_to 10752
  154.4094  135.2844  155.2025 H   0  0  0  0  0  0  0  0  0  0  0  0  # atno 10765 bound_to 10752
  139.8846  134.8648  156.3366 H   0  0  0  0  0  0  0  0  0  0  0  0  # atno 11005 bound_to 11000
  144.7356  140.4798  143.6906 LP  0  0  0  0  0  0  0  0  0  0  0  0  # atno 17320 bound_to 7965
  145.6050  139.1507  143.3107 LP  0  0  0  0  0  0  0  0  0  0  0  0  # atno 17321 bound_to 7965
  139.9381  143.6414  152.3060 LP  0  0  0  0  0  0  0  0  0  0  0  0  # atno 17342 bound_to 10162
  139.6889  144.7649  151.1474 LP  0  0  0  0  0  0  0  0  0  0  0  0  # atno 17343 bound_to 10162
  157.7473  131.0011  150.2951 LP  0  0  0  0  0  0  0  0  0  0  0  0  # atno 17370 bound_to 10713
  156.3420  130.3817  149.7401 LP  0  0  0  0  0  0  0  0  0  0  0  0  # atno 17371 bound_to 10713
  140.9687  133.7341  156.0503 LP  0  0  0  0  0  0  0  0  0  0  0  0  # atno 17394 bound_to 11000
  140.7898  134.3630  157.5467 LP  0  0  0  0  0  0  0  0  0  0  0  0  # atno 17395 bound_to 11000

$$$$
