AV-unprocessed.smi:694|AV-procd|sdf|3382|dock5
  -GOLD-   22720 0363D 1   1.00000     0.00000
 Structure written by MMmdl.
 42 43  0  0  0  0  0  0  0  0  1 V2000
  152.0405  143.8808  158.1932 C   0  0  0  0  0  0  0  0  0  0  0  0
  152.1185  142.4233  158.1981 N   0  0  0  0  0  0  0  0  0  0  0  0
  152.9063  141.7402  159.2166 C   0  0  0  0  0  0  0  0  0  0  0  0
  151.4408  141.6805  157.2044 C   0  0  0  0  0  0  0  0  0  0  0  0
  151.7672  140.3276  156.9393 C   0  0  0  0  0  0  0  0  0  0  0  0
  151.0632  139.6346  155.9361 C   0  0  0  0  0  0  0  0  0  0  0  0
  150.0530  140.2987  155.2142 C   0  0  0  0  0  0  0  0  0  0  0  0
  149.3513  139.5612  154.2211 N   0  0  0  0  0  0  0  0  0  0  0  0
  148.0891  139.7200  153.7860 C   0  0  0  0  0  0  0  0  0  0  0  0
  147.3101  140.5971  154.1575 O   0  0  0  0  0  0  0  0  0  0  0  0
  147.7761  138.7999  152.8628 N   0  0  0  0  0  0  0  0  0  0  0  0
  146.4842  138.6938  152.1915 C   0  0  0  0  0  0  0  0  0  0  0  0
  145.8806  137.2768  152.2996 C   0  0  2  0  0  0  0  0  0  0  0  0
  145.7527  136.5435  150.9595 C   0  0  0  0  0  0  0  0  0  0  0  0
  144.6837  135.4618  151.1772 C   0  0  0  0  0  0  0  0  0  0  0  0
  144.0139  135.7704  152.5259 C   0  0  0  0  0  0  0  0  0  0  0  0
  144.4759  137.1784  152.9161 C   0  0  2  0  0  0  0  0  0  0  0  0
  143.5914  138.1260  152.3466 O   0  0  0  0  0  0  0  0  0  0  0  0
  149.7870  141.6460  155.5548 C   0  0  0  0  0  0  0  0  0  0  0  0
  150.4609  142.3138  156.5147 N   0  0  0  0  0  0  0  0  0  0  0  0
  151.0062  144.2095  158.2993 H   0  0  0  0  0  0  0  0  0  0  0  0
  152.4372  144.2815  157.2595 H   0  0  0  0  0  0  0  0  0  0  0  0
  152.6143  144.3144  159.0123 H   0  0  0  0  0  0  0  0  0  0  0  0
  153.7144  141.1696  158.7582 H   0  0  0  0  0  0  0  0  0  0  0  0
  152.2798  141.0591  159.7933 H   0  0  0  0  0  0  0  0  0  0  0  0
  153.3539  142.4485  159.9137 H   0  0  0  0  0  0  0  0  0  0  0  0
  152.5414  139.8081  157.4834 H   0  0  0  0  0  0  0  0  0  0  0  0
  151.3015  138.6026  155.7245 H   0  0  0  0  0  0  0  0  0  0  0  0
  149.8878  138.8385  153.7645 H   0  0  0  0  0  0  0  0  0  0  0  0
  148.4768  138.1174  152.6134 H   0  0  0  0  0  0  0  0  0  0  0  0
  145.8115  139.4296  152.6326 H   0  0  0  0  0  0  0  0  0  0  0  0
  146.5921  138.9750  151.1425 H   0  0  0  0  0  0  0  0  0  0  0  0
  146.5440  136.6751  152.9234 H   0  0  0  0  0  0  0  0  0  0  0  0
  145.4160  137.2348  150.1858 H   0  0  0  0  0  0  0  0  0  0  0  0
  146.7039  136.1242  150.6303 H   0  0  0  0  0  0  0  0  0  0  0  0
  143.9555  135.4823  150.3656 H   0  0  0  0  0  0  0  0  0  0  0  0
  145.1271  134.4656  151.1901 H   0  0  0  0  0  0  0  0  0  0  0  0
  142.9283  135.6716  152.4887 H   0  0  0  0  0  0  0  0  0  0  0  0
  144.3738  135.0591  153.2706 H   0  0  0  0  0  0  0  0  0  0  0  0
  144.4919  137.3152  153.9980 H   0  0  0  0  0  0  0  0  0  0  0  0
  143.6937  138.1055  151.4076 H   0  0  0  0  0  0  0  0  0  0  0  0
  149.0100  142.2201  155.0761 H   0  0  0  0  0  0  0  0  0  0  0  0
  1  2  1  0  0  0  0
  1 21  1  0  0  0  0
  1 22  1  0  0  0  0
  1 23  1  0  0  0  0
  2  3  1  0  0  0  0
  2  4  1  0  0  0  0
  3 24  1  0  0  0  0
  3 25  1  0  0  0  0
  3 26  1  0  0  0  0
  4 20  1  0  0  0  0
  4  5  2  0  0  0  0
  5  6  1  0  0  0  0
  5 27  1  0  0  0  0
  6  7  2  0  0  0  0
  6 28  1  0  0  0  0
  7  8  1  0  0  0  0
  7 19  1  0  0  0  0
  8  9  1  0  0  0  0
  8 29  1  0  0  0  0
  9 10  2  0  0  0  0
  9 11  1  0  0  0  0
 11 12  1  0  0  0  0
 11 30  1  0  0  0  0
 12 13  1  0  0  0  0
 12 31  1  0  0  0  0
 12 32  1  0  0  0  0
 13 17  1  0  0  0  0
 13 14  1  0  0  0  0
 13 33  1  0  0  0  0
 14 15  1  0  0  0  0
 14 34  1  0  0  0  0
 14 35  1  0  0  0  0
 15 16  1  0  0  0  0
 15 36  1  0  0  0  0
 15 37  1  0  0  0  0
 16 17  1  0  0  0  0
 16 38  1  0  0  0  0
 16 39  1  0  0  0  0
 17 18  1  0  0  0  0
 17 40  1  0  0  0  0
 18 41  1  0  0  0  0
 19 20  2  0  0  0  0
 19 42  1  0  0  0  0
M  END
> <s_m_source_file>
AV-unprocessed.smi

> <i_m_source_file_index>
694

> <i_lp_mmshare_version>
43012

> <i_f3d_flags>
0

> <s_epik_input>
W0NIM11OKFtDSDNdKWMxW2NIXVtjSF1jKFtjSF1uMSlbTkhdQyg9TylbTkhdW0NIMl1bQ0BASF0yW0NIMl1bQ0gyXVtDSDJdW0NASF0yW09IXQ==

> <s_epik_cmdline>
J2VwaWtfcHl0aG9uJywgJy1waCcsICc3LjAnLCAnLXRuJywgJzgnLCAnLW1hJywgJzIwMCcsICctbWV0YWxfYmluZGluZycsICctaW1hZScsICc8aW5maWxlLm1hZT4nLCAnLW9tYWUnLCAnPG91dGZpbGUubWFlPic=

> <r_lp_tautomer_probability>
1

> <r_epik_Ionization_Penalty>
0.60335

> <r_epik_Ionization_Penalty_Charging>
0

> <r_epik_Ionization_Penalty_Neutral>
0.60335

> <r_epik_State_Penalty>
0.616805

> <r_epik_Charging_Adjusted_Penalty>
0.616805

> <i_epik_Tot_Q>
0

> <i_epik_Tot_abs_Q>
0

> <r_epik_Metal_State_Penalty>
0.301709

> <b_epik_Metal_Only>
0

> <s_lp_Force_Field>
OPLS_2005

> <r_lp_Energy>
30.3621

> <b_lp_Chiralities_Consistent>
1

> <s_lp_Variant>
AV-unprocessed.smi:694-7

> <Gold.Version>
5.8.1

> <Gold.Id.Protein>
6NUR|6NUR_protein|mol2

> <Gold.PLP.Fitness>
44.2288

> <Gold.PLP.PLP>
-38.4294

> <Gold.PLP.part.hbond>
-4.1639

> <Gold.PLP.part.metal>
0.0000

> <Gold.PLP.part.buried>
-2.2186

> <Gold.PLP.part.nonpolar>
-33.6211

> <Gold.PLP.part.repulsive>
1.2102

> <Gold.PLP.ligand.clash>
0.0000

> <Gold.PLP.ligand.torsion>
1.0614

> <Gold.PLP.Chemscore.Hbond>
1.9672

> <Gold.PLP.Chemscore.CHOScore>
0.6684

> <Gold.PLP.Chemscore.Metal>
0.0000

> <Gold.Chemscore.Hbonds>
donor molecule, donor type, donor heavy atom, donor atom, acceptor molecule, acceptor atom, score
      L1  H    11    30       P1  7948  0.93
      L1  H    18    41       P1 10171  1.00
      L1  C    19    42       P1  8028  0.70

> <Gold.PLP.Chemscore.Internal.Correction>
0.0154

> <Gold.Rescore>
     Score         DG    S(hbond)    S(metal)    S(lipo)     H(rot)  DE(clash)    DE(int)     intcor
     15.57     -16.83       1.89        0.00      80.82       1.73       0.12       1.15       ----

> <Gold.Chemscore.Fitness>
15.5702

> <Gold.Chemscore.DG>
-16.8345

> <Gold.Chemscore.ZeroCoef>
-5.4800

> <Gold.Chemscore.Hbond>
1.8912

> <Gold.Chemscore.Metal>
0.0000

> <Gold.Chemscore.Lipo>
80.8217

> <Gold.Chemscore.Internal_Hbond>
0.0000

> <Gold.Chemscore.DEClash>
0.1155

> <Gold.Chemscore.DEInternal>
1.1488

> <Gold.Chemscore.Rot>
1.7259

> <Gold.Chemscore.Internal.Correction>
   9.000000E+99

> <Gold.Chemscore.Hbonds>
donor molecule, donor type, donor heavy atom, donor atom, acceptor molecule, acceptor atom, score
      L1  H    11    30       P1  7948  0.84
      L1  H    18    41       P1 10171  0.95

> <Gold.Chemscore.Hbond.Weighted>
-6.3167

> <Gold.Chemscore.Metal.Weighted>
-0.0000

> <Gold.Chemscore.Lipo.Weighted>
-9.4561

> <Gold.Chemscore.Internal_Hbond.Weighted>
0.0000

> <Gold.Chemscore.DEClash.Weighted>
0.1155

> <Gold.Chemscore.DEInternal.Weighted>
1.1488

> <Gold.Chemscore.Rot.Weighted>
4.4184

> <Gold.Chemscore.Internal.Correction.Weighted>
   9.000000E+99

> <Gold.Protein.RotatedTorsions>
[ 6907 6896 6895 6894 ] final  -30.04 input  -60.11 | X-H torsion
[ 7974 7965 7964 7962 ] final    5.76 input  175.53 | X-H torsion
[ 8008 7997 7996 7995 ] final  -66.65 input   59.86 | X-H torsion
[ 10167 10162 10161 10158 ] final   96.67 input  -65.29 | X-H torsion
[ 10718 10713 10712 10709 ] final   99.80 input   66.30 | X-H torsion
[ 10763 10752 10751 10750 ] final  -96.08 input  -60.55 | X-H torsion
[ 11005 11000 10999 10996 ] final  174.82 input  -57.11 | X-H torsion

> <Gold.Protein.ActiveResidues>
 VAL166  LYS551  ARG553  GLY616  TRP617  ASP618  TYR619  PRO620  LYS621  CYS622 
 ASP623  PHE694  ASN695  SER759  ASP760  ASP761  ALA762  ILE779  LEU786  VAL792 
 PHE793  MET794  SER795  GLU796  ALA797  LYS798  CYS799  TRP800  GLU811  SER814 

> <Gold.Protein.RotatedAtoms>
  151.1109  135.0026  159.8493 H   0  0  0  0  0  0  0  0  0  0  0  0  # atno 6907 bound_to 6896
  152.5443  134.1837  159.8656 H   0  0  0  0  0  0  0  0  0  0  0  0  # atno 6908 bound_to 6896
  151.1887  133.4636  159.2628 H   0  0  0  0  0  0  0  0  0  0  0  0  # atno 6909 bound_to 6896
  146.2439  140.0335  142.8388 H   0  0  0  0  0  0  0  0  0  0  0  0  # atno 7974 bound_to 7965
  154.4748  140.0908  156.7235 H   0  0  0  0  0  0  0  0  0  0  0  0  # atno 8008 bound_to 7997
  155.4626  140.3461  155.4296 H   0  0  0  0  0  0  0  0  0  0  0  0  # atno 8009 bound_to 7997
  156.1099  140.1445  156.9342 H   0  0  0  0  0  0  0  0  0  0  0  0  # atno 8010 bound_to 7997
  139.7872  144.6866  150.9941 H   0  0  0  0  0  0  0  0  0  0  0  0  # atno 10167 bound_to 10162
  157.6868  131.0680  150.5003 H   0  0  0  0  0  0  0  0  0  0  0  0  # atno 10718 bound_to 10713
  154.7207  135.5097  153.8807 H   0  0  0  0  0  0  0  0  0  0  0  0  # atno 10763 bound_to 10752
  153.0860  135.6645  153.9958 H   0  0  0  0  0  0  0  0  0  0  0  0  # atno 10764 bound_to 10752
  153.9781  135.3031  155.3401 H   0  0  0  0  0  0  0  0  0  0  0  0  # atno 10765 bound_to 10752
  140.3554  134.7159  157.4296 H   0  0  0  0  0  0  0  0  0  0  0  0  # atno 11005 bound_to 11000
  145.1133  140.9418  143.4643 LP  0  0  0  0  0  0  0  0  0  0  0  0  # atno 17320 bound_to 7965
  145.0554  139.3148  143.5907 LP  0  0  0  0  0  0  0  0  0  0  0  0  # atno 17321 bound_to 7965
  140.7820  143.4419  151.0539 LP  0  0  0  0  0  0  0  0  0  0  0  0  # atno 17342 bound_to 10162
  139.8097  143.7967  152.3170 LP  0  0  0  0  0  0  0  0  0  0  0  0  # atno 17343 bound_to 10162
  156.5325  130.4188  149.6194 LP  0  0  0  0  0  0  0  0  0  0  0  0  # atno 17370 bound_to 10713
  156.3056  130.7201  151.2082 LP  0  0  0  0  0  0  0  0  0  0  0  0  # atno 17371 bound_to 10713
  140.0669  134.5917  155.8685 LP  0  0  0  0  0  0  0  0  0  0  0  0  # atno 17394 bound_to 11000
  141.2000  133.6610  156.5872 LP  0  0  0  0  0  0  0  0  0  0  0  0  # atno 17395 bound_to 11000

$$$$
