AV-unprocessed.smi:113|AV-procd|sdf|1099|dock6
  -GOLD-   2262018213D 1   1.00000     0.00000
 Structure written by MMmdl.
 53 56  0  0  0  0  0  0  0  0  2 V2000
  143.5443  137.5902  158.5719 C   0  0  0  0  0  0  0  0  0  0  0  0
  144.6743  136.8090  159.2081 C   0  0  0  0  0  0  0  0  0  0  0  0
  145.9823  136.8254  158.6864 C   0  0  0  0  0  0  0  0  0  0  0  0
  147.0059  136.0775  159.3194 C   0  0  0  0  0  0  0  0  0  0  0  0
  148.4384  136.0765  158.7749 C   0  0  0  0  0  0  0  0  0  0  0  0
  148.6118  135.7161  157.3747 N   0  0  0  0  0  0  0  0  0  0  0  0
  149.0958  134.4197  157.0787 C   0  0  0  0  0  0  0  0  0  0  0  0
  149.3622  133.6114  157.9706 O   0  0  0  0  0  0  0  0  0  0  0  0
  149.2780  134.1367  155.6538 C   0  0  0  0  0  0  0  0  0  0  0  0
  149.8305  132.7755  155.2600 C   0  0  0  0  0  0  0  0  0  0  0  0
  148.9722  135.0835  154.7337 C   0  0  0  0  0  0  0  0  0  0  0  0
  148.4708  136.3397  155.0473 N   0  0  0  0  0  0  0  0  0  0  0  0
  148.2106  137.4186  154.0029 C   0  0  2  0  0  0  0  0  0  0  0  0
  146.9231  138.2244  154.2094 C   0  0  0  0  0  0  0  0  0  0  0  0
  145.9080  137.5014  153.3216 C   0  0  1  0  0  0  0  0  0  0  0  0
  145.2840  138.4252  152.4494 O   0  0  0  0  0  0  0  0  0  0  0  0
  146.7271  136.4089  152.5946 C   0  0  1  0  0  0  0  0  0  0  0  0
  146.4169  136.1618  151.1072 C   0  0  0  0  0  0  0  0  0  0  0  0
  145.0817  135.7300  150.9483 O   0  0  0  0  0  0  0  0  0  0  0  0
  148.0818  136.8111  152.7576 O   0  0  0  0  0  0  0  0  0  0  0  0
  148.3285  136.7022  156.4038 C   0  0  0  0  0  0  0  0  0  0  0  0
  147.9801  137.8417  156.7234 O   0  0  0  0  0  0  0  0  0  0  0  0
  146.6720  135.3251  160.4789 C   0  0  0  0  0  0  0  0  0  0  0  0
  147.6286  134.5477  161.1751 C   0  0  0  0  0  0  0  0  0  0  0  0
  147.2581  133.8131  162.3188 C   0  0  0  0  0  0  0  0  0  0  0  0
  145.9305  133.8459  162.7844 C   0  0  0  0  0  0  0  0  0  0  0  0
  144.9671  134.6148  162.1057 C   0  0  0  0  0  0  0  0  0  0  0  0
  145.3350  135.3487  160.9602 C   0  0  0  0  0  0  0  0  0  0  0  0
  144.4056  136.0821  160.3118 N   0  3  0  0  0  0  0  0  0  0  0  0
  143.7342  137.7499  157.5102 H   0  0  0  0  0  0  0  0  0  0  0  0
  143.4417  138.5635  159.0526 H   0  0  0  0  0  0  0  0  0  0  0  0
  142.5988  137.0559  158.6696 H   0  0  0  0  0  0  0  0  0  0  0  0
  146.1831  137.4140  157.8036 H   0  0  0  0  0  0  0  0  0  0  0  0
  148.8956  137.0565  158.9214 H   0  0  0  0  0  0  0  0  0  0  0  0
  149.0636  135.3993  159.3594 H   0  0  0  0  0  0  0  0  0  0  0  0
  149.9203  132.6692  154.1786 H   0  0  0  0  0  0  0  0  0  0  0  0
  149.1765  131.9798  155.6187 H   0  0  0  0  0  0  0  0  0  0  0  0
  150.8207  132.6263  155.6918 H   0  0  0  0  0  0  0  0  0  0  0  0
  149.1517  134.8273  153.7024 H   0  0  0  0  0  0  0  0  0  0  0  0
  149.0861  138.0690  154.0378 H   0  0  0  0  0  0  0  0  0  0  0  0
  146.6434  138.3109  155.2591 H   0  0  0  0  0  0  0  0  0  0  0  0
  147.1089  139.2342  153.8401 H   0  0  0  0  0  0  0  0  0  0  0  0
  145.1266  137.0350  153.9219 H   0  0  0  0  0  0  0  0  0  0  0  0
  144.5257  138.0125  152.0654 H   0  0  0  0  0  0  0  0  0  0  0  0
  146.6119  135.4665  153.1331 H   0  0  0  0  0  0  0  0  0  0  0  0
  146.5980  137.0516  150.5041 H   0  0  0  0  0  0  0  0  0  0  0  0
  147.0710  135.3805  150.7194 H   0  0  0  0  0  0  0  0  0  0  0  0
  144.5308  136.4905  150.8422 H   0  0  0  0  0  0  0  0  0  0  0  0
  148.6565  134.4983  160.8490 H   0  0  0  0  0  0  0  0  0  0  0  0
  147.9964  133.2218  162.8407 H   0  0  0  0  0  0  0  0  0  0  0  0
  145.6516  133.2808  163.6620 H   0  0  0  0  0  0  0  0  0  0  0  0
  143.9493  134.6358  162.4677 H   0  0  0  0  0  0  0  0  0  0  0  0
  143.4523  136.0856  160.6739 H   0  0  0  0  0  0  0  0  0  0  0  0
  1  2  1  0  0  0  0
  1 30  1  0  0  0  0
  1 31  1  0  0  0  0
  1 32  1  0  0  0  0
  2 29  1  0  0  0  0
  2  3  2  0  0  0  0
  3  4  1  0  0  0  0
  3 33  1  0  0  0  0
  4  5  1  0  0  0  0
  4 23  2  0  0  0  0
  5  6  1  0  0  0  0
  5 34  1  0  0  0  0
  5 35  1  0  0  0  0
  6 21  1  0  0  0  0
  6  7  1  0  0  0  0
  7  8  2  0  0  0  0
  7  9  1  0  0  0  0
  9 10  1  0  0  0  0
  9 11  2  0  0  0  0
 10 36  1  0  0  0  0
 10 37  1  0  0  0  0
 10 38  1  0  0  0  0
 11 12  1  0  0  0  0
 11 39  1  0  0  0  0
 12 13  1  0  0  0  0
 12 21  1  0  0  0  0
 13 20  1  0  0  0  0
 13 14  1  0  0  0  0
 13 40  1  0  0  0  0
 14 15  1  0  0  0  0
 14 41  1  0  0  0  0
 14 42  1  0  0  0  0
 15 16  1  0  0  0  0
 15 17  1  0  0  0  0
 15 43  1  0  0  0  0
 16 44  1  0  0  0  0
 17 18  1  0  0  0  0
 17 20  1  0  0  0  0
 17 45  1  0  0  0  0
 18 19  1  0  0  0  0
 18 46  1  0  0  0  0
 18 47  1  0  0  0  0
 19 48  1  0  0  0  0
 21 22  2  0  0  0  0
 23 28  1  0  0  0  0
 23 24  1  0  0  0  0
 24 25  2  0  0  0  0
 24 49  1  0  0  0  0
 25 26  1  0  0  0  0
 25 50  1  0  0  0  0
 26 27  2  0  0  0  0
 26 51  1  0  0  0  0
 27 28  1  0  0  0  0
 27 52  1  0  0  0  0
 28 29  2  0  0  0  0
 29 53  1  0  0  0  0
M  CHG  1  29   1
M  END
> <s_m_source_file>
AV-unprocessed.smi

> <i_m_source_file_index>
113

> <i_lp_mmshare_version>
43012

> <i_f3d_flags>
0

> <s_epik_input>
W2NIXTFbY0hdW2NIXVtjSF1jKGMxMiluYyhbQ0gzXSlbY0hdYzJbQ0gyXW4zYyg9TyljKFtDSDNdKVtjSF1uKGMzPU8pW0NAQEhdNFtDSDJdW0NAQEhdKFtPSF0pW0NASF0oTzQpW0NIMl1bT0hd

> <s_epik_cmdline>
J2VwaWtfcHl0aG9uJywgJy1waCcsICc3LjAnLCAnLXRuJywgJzgnLCAnLW1hJywgJzIwMCcsICctbWV0YWxfYmluZGluZycsICctaW1hZScsICc8aW5maWxlLm1hZT4nLCAnLW9tYWUnLCAnPG91dGZpbGUubWFlPic=

> <r_lp_tautomer_probability>
1

> <r_epik_Ionization_Penalty>
0.705471

> <r_epik_Ionization_Penalty_Charging>
0.70547

> <r_epik_Ionization_Penalty_Neutral>
1.19947e-07

> <r_epik_State_Penalty>
0.728574

> <r_epik_Charging_Adjusted_Penalty>
1.43404

> <i_epik_Tot_Q>
1

> <i_epik_Tot_abs_Q>
1

> <r_epik_Metal_State_Penalty>
4.61665

> <b_epik_Metal_Only>
0

> <s_epik_Chemistry_Notes>
This compound contains an acetal/aminal-like group ( X-CH(R)-Y where X, Y are N, S, or O) that may be acid/base labile, releasing an aldehyde.

> <s_lp_Force_Field>
OPLS_2005

> <r_lp_Energy>
45.3358

> <b_lp_Chiralities_Consistent>
1

> <s_lp_Variant>
AV-unprocessed.smi:113-9

> <Gold.Version>
5.8.1

> <Gold.Id.Protein>
6NUR|6NUR_protein|mol2

> <Gold.PLP.Fitness>
42.5985

> <Gold.PLP.PLP>
-31.9689

> <Gold.PLP.part.hbond>
-4.0000

> <Gold.PLP.part.metal>
0.0000

> <Gold.PLP.part.buried>
-3.7999

> <Gold.PLP.part.nonpolar>
-24.8906

> <Gold.PLP.part.repulsive>
0.5949

> <Gold.PLP.ligand.clash>
0.0000

> <Gold.PLP.ligand.torsion>
0.7163

> <Gold.PLP.Chemscore.Hbond>
3.0000

> <Gold.PLP.Chemscore.CHOScore>
1.0000

> <Gold.PLP.Chemscore.Metal>
0.0000

> <Gold.Chemscore.Hbonds>
donor molecule, donor type, donor heavy atom, donor atom, acceptor molecule, acceptor atom, score
      L1  H    16    44       P1 10171  0.02
      L1  H    19    48       P1 10171  0.03
      P1  H  6896  6908       L1     8  1.00
      L1  C    11    39       P1  7948  0.90

> <Gold.PLP.Chemscore.Internal.Correction>
0.0622

> <Gold.Rescore>
     Score         DG    S(hbond)    S(metal)    S(lipo)     H(rot)  DE(clash)    DE(int)     intcor
     15.07     -17.48       2.98        0.00      83.51       3.01       0.19       2.22       ----

> <Gold.Chemscore.Fitness>
15.0669

> <Gold.Chemscore.DG>
-17.4826

> <Gold.Chemscore.ZeroCoef>
-5.4800

> <Gold.Chemscore.Hbond>
2.9769

> <Gold.Chemscore.Metal>
0.0000

> <Gold.Chemscore.Lipo>
83.5096

> <Gold.Chemscore.Internal_Hbond>
0.0000

> <Gold.Chemscore.DEClash>
0.1945

> <Gold.Chemscore.DEInternal>
2.2212

> <Gold.Chemscore.Rot>
3.0120

> <Gold.Chemscore.Internal.Correction>
   9.000000E+99

> <Gold.Chemscore.Hbonds>
donor molecule, donor type, donor heavy atom, donor atom, acceptor molecule, acceptor atom, score
      L1  H    16    44       P1 10171  0.04
      L1  H    19    48       P1 10171  0.08
      P1  H  6896  6908       L1     8  0.98

> <Gold.Chemscore.Hbond.Weighted>
-9.9428

> <Gold.Chemscore.Metal.Weighted>
-0.0000

> <Gold.Chemscore.Lipo.Weighted>
-9.7706

> <Gold.Chemscore.Internal_Hbond.Weighted>
0.0000

> <Gold.Chemscore.DEClash.Weighted>
0.1945

> <Gold.Chemscore.DEInternal.Weighted>
2.2212

> <Gold.Chemscore.Rot.Weighted>
7.7108

> <Gold.Chemscore.Internal.Correction.Weighted>
   9.000000E+99

> <Gold.Protein.RotatedTorsions>
[ 6907 6896 6895 6894 ] final  133.08 input  -60.11 | X-H torsion
[ 7974 7965 7964 7962 ] final  -64.30 input  175.53 | X-H torsion
[ 8008 7997 7996 7995 ] final -162.06 input   59.86 | X-H torsion
[ 10167 10162 10161 10158 ] final  -57.49 input  -65.29 | X-H torsion
[ 10718 10713 10712 10709 ] final  -41.23 input   66.30 | X-H torsion
[ 10763 10752 10751 10750 ] final   73.41 input  -60.55 | X-H torsion
[ 11005 11000 10999 10996 ] final  -77.00 input  -57.11 | X-H torsion

> <Gold.Protein.ActiveResidues>
 VAL166  LYS551  ARG553  GLY616  TRP617  ASP618  TYR619  PRO620  LYS621  CYS622 
 ASP623  PHE694  ASN695  SER759  ASP760  ASP761  ALA762  ILE779  LEU786  VAL792 
 PHE793  MET794  SER795  GLU796  ALA797  LYS798  CYS799  TRP800  GLU811  SER814 

> <Gold.Protein.RotatedAtoms>
  152.3257  133.5903  159.5774 H   0  0  0  0  0  0  0  0  0  0  0  0  # atno 6907 bound_to 6896
  150.7395  133.9943  159.3626 H   0  0  0  0  0  0  0  0  0  0  0  0  # atno 6908 bound_to 6896
  151.7823  135.0759  160.0426 H   0  0  0  0  0  0  0  0  0  0  0  0  # atno 6909 bound_to 6896
  145.7684  140.8825  143.0393 H   0  0  0  0  0  0  0  0  0  0  0  0  # atno 7974 bound_to 7965
  155.8013  140.0892  157.1956 H   0  0  0  0  0  0  0  0  0  0  0  0  # atno 8008 bound_to 7997
  154.3982  140.1472  156.3336 H   0  0  0  0  0  0  0  0  0  0  0  0  # atno 8009 bound_to 7997
  155.8460  140.3436  155.5665 H   0  0  0  0  0  0  0  0  0  0  0  0  # atno 8010 bound_to 7997
  140.6255  143.2436  151.5374 H   0  0  0  0  0  0  0  0  0  0  0  0  # atno 10167 bound_to 10162
  156.2726  130.4208  149.8421 H   0  0  0  0  0  0  0  0  0  0  0  0  # atno 10718 bound_to 10713
  153.0520  135.5064  154.7890 H   0  0  0  0  0  0  0  0  0  0  0  0  # atno 10763 bound_to 10752
  154.6745  135.2958  154.9700 H   0  0  0  0  0  0  0  0  0  0  0  0  # atno 10764 bound_to 10752
  154.0507  135.6704  153.4853 H   0  0  0  0  0  0  0  0  0  0  0  0  # atno 10765 bound_to 10752
  141.1657  133.7005  156.7754 H   0  0  0  0  0  0  0  0  0  0  0  0  # atno 11005 bound_to 11000
  144.6817  139.9821  143.7483 LP  0  0  0  0  0  0  0  0  0  0  0  0  # atno 17320 bound_to 7965
  146.0194  139.3238  143.0822 LP  0  0  0  0  0  0  0  0  0  0  0  0  # atno 17321 bound_to 7965
  139.5476  144.2480  152.1471 LP  0  0  0  0  0  0  0  0  0  0  0  0  # atno 17342 bound_to 10162
  140.1710  144.4935  150.6579 LP  0  0  0  0  0  0  0  0  0  0  0  0  # atno 17343 bound_to 10162
  156.5897  130.8501  151.3405 LP  0  0  0  0  0  0  0  0  0  0  0  0  # atno 17370 bound_to 10713
  157.7289  130.9663  150.1762 LP  0  0  0  0  0  0  0  0  0  0  0  0  # atno 17371 bound_to 10713
  140.2434  134.8596  157.3596 LP  0  0  0  0  0  0  0  0  0  0  0  0  # atno 17394 bound_to 11000
  140.1774  134.4533  155.7793 LP  0  0  0  0  0  0  0  0  0  0  0  0  # atno 17395 bound_to 11000

$$$$
