AV-unprocessed.smi:697|AV-procd|sdf|3391|dock7
  -GOLD-   22720 0373D 1   1.00000     0.00000
 Structure written by MMmdl.
 44 45  0  0  0  0  0  0  0  0  1 V2000
  147.9248  136.3303  160.7672 C   0  0  0  0  0  0  0  0  0  0  0  0
  147.9043  137.2281  159.6642 O   0  0  0  0  0  0  0  0  0  0  0  0
  148.8870  137.0324  158.6380 C   0  0  1  0  0  0  0  0  0  0  0  0
  150.3000  137.2396  159.1982 C   0  0  0  0  0  0  0  0  0  0  0  0
  148.5710  135.7547  157.8369 C   0  0  0  0  0  0  0  0  0  0  0  0
  147.5941  136.5974  157.0194 C   0  0  2  0  0  0  0  0  0  0  0  0
  147.5861  136.2358  155.6059 N   0  0  0  0  0  0  0  0  0  0  0  0
  146.4845  135.9248  154.9100 C   0  0  0  0  0  0  0  0  0  0  0  0
  145.3599  135.8958  155.4089 O   0  0  0  0  0  0  0  0  0  0  0  0
  146.7891  135.6530  153.6276 N   0  0  0  0  0  0  0  0  0  0  0  0
  145.9408  135.3257  152.5560 C   0  0  0  0  0  0  0  0  0  0  0  0
  145.7763  134.0778  152.0433 C   0  0  0  0  0  0  0  0  0  0  0  0
  144.8711  133.8107  150.9380 C   0  0  0  0  0  0  0  0  0  0  0  0
  144.7591  132.4262  150.3188 C   0  0  0  0  0  0  0  0  0  0  0  0
  144.4646  131.5063  151.2382 F   0  0  0  0  0  0  0  0  0  0  0  0
  143.8127  132.3977  149.3801 F   0  0  0  0  0  0  0  0  0  0  0  0
  145.9161  132.0897  149.7506 F   0  0  0  0  0  0  0  0  0  0  0  0
  144.2044  134.8678  150.4389 C   0  0  0  0  0  0  0  0  0  0  0  0
  144.3499  136.1490  150.9749 N   0  0  0  0  0  0  0  0  0  0  0  0
  145.1729  136.4539  152.0031 C   0  0  0  0  0  0  0  0  0  0  0  0
  145.2443  137.6101  152.4185 O   0  0  0  0  0  0  0  0  0  0  0  0
  148.4490  137.8420  157.3735 C   0  0  0  0  0  0  0  0  0  0  0  0
  147.6728  139.1394  157.6253 C   0  0  0  0  0  0  0  0  0  0  0  0
  149.5738  138.2134  156.3881 C   0  0  0  0  0  0  0  0  0  0  0  0
  143.8008  136.8865  150.5572 H   0  0  0  0  0  0  0  0  0  0  0  0
  147.0353  136.4943  161.3749 H   0  0  0  0  0  0  0  0  0  0  0  0
  148.7884  136.5033  161.4090 H   0  0  0  0  0  0  0  0  0  0  0  0
  147.9239  135.2867  160.4547 H   0  0  0  0  0  0  0  0  0  0  0  0
  151.0570  137.1961  158.4160 H   0  0  0  0  0  0  0  0  0  0  0  0
  150.5699  136.4701  159.9212 H   0  0  0  0  0  0  0  0  0  0  0  0
  150.3924  138.2087  159.6887 H   0  0  0  0  0  0  0  0  0  0  0  0
  149.4250  135.3937  157.2609 H   0  0  0  0  0  0  0  0  0  0  0  0
  148.1040  134.9418  158.3921 H   0  0  0  0  0  0  0  0  0  0  0  0
  146.6015  136.6185  157.4758 H   0  0  0  0  0  0  0  0  0  0  0  0
  148.4750  136.2310  155.1276 H   0  0  0  0  0  0  0  0  0  0  0  0
  147.7710  135.6636  153.3921 H   0  0  0  0  0  0  0  0  0  0  0  0
  146.3017  133.2317  152.4540 H   0  0  0  0  0  0  0  0  0  0  0  0
  143.5243  134.8182  149.6014 H   0  0  0  0  0  0  0  0  0  0  0  0
  147.3476  139.6008  156.6924 H   0  0  0  0  0  0  0  0  0  0  0  0
  148.2805  139.8694  158.1607 H   0  0  0  0  0  0  0  0  0  0  0  0
  146.7734  138.9691  158.2173 H   0  0  0  0  0  0  0  0  0  0  0  0
  149.1766  138.6179  155.4564 H   0  0  0  0  0  0  0  0  0  0  0  0
  150.1906  137.3546  156.1238 H   0  0  0  0  0  0  0  0  0  0  0  0
  150.2385  138.9692  156.8078 H   0  0  0  0  0  0  0  0  0  0  0  0
  1  2  1  0  0  0  0
  1 26  1  0  0  0  0
  1 27  1  0  0  0  0
  1 28  1  0  0  0  0
  2  3  1  0  0  0  0
  3 22  1  0  0  0  0
  3  4  1  0  0  0  0
  3  5  1  0  0  0  0
  4 29  1  0  0  0  0
  4 30  1  0  0  0  0
  4 31  1  0  0  0  0
  5  6  1  0  0  0  0
  5 32  1  0  0  0  0
  5 33  1  0  0  0  0
  6  7  1  0  0  0  0
  6 22  1  0  0  0  0
  6 34  1  0  0  0  0
  7  8  1  0  0  0  0
  7 35  1  0  0  0  0
  8  9  2  0  0  0  0
  8 10  1  0  0  0  0
 10 11  1  0  0  0  0
 10 36  1  0  0  0  0
 11 20  1  0  0  0  0
 11 12  2  0  0  0  0
 12 13  1  0  0  0  0
 12 37  1  0  0  0  0
 13 14  1  0  0  0  0
 13 18  2  0  0  0  0
 14 15  1  0  0  0  0
 14 16  1  0  0  0  0
 14 17  1  0  0  0  0
 18 19  1  0  0  0  0
 18 38  1  0  0  0  0
 19 25  1  0  0  0  0
 19 20  1  0  0  0  0
 20 21  2  0  0  0  0
 22 23  1  0  0  0  0
 22 24  1  0  0  0  0
 23 39  1  0  0  0  0
 23 40  1  0  0  0  0
 23 41  1  0  0  0  0
 24 42  1  0  0  0  0
 24 43  1  0  0  0  0
 24 44  1  0  0  0  0
M  END
> <s_m_source_file>
AV-unprocessed.smi

> <i_m_source_file_index>
697

> <i_lp_mmshare_version>
43012

> <i_f3d_flags>
0

> <s_epik_input>
W0NIM11PW0NAQF0xKFtDSDNdKVtDSDJdW0NASF0oQzEoW0NIM10pW0NIM10pW05IXUMoPU8pW05IXWMyW2NIXWMoQyhGKShGKUYpW2NIXVtuSF1jMj1P

> <s_epik_cmdline>
J2VwaWtfcHl0aG9uJywgJy1waCcsICc3LjAnLCAnLXRuJywgJzgnLCAnLW1hJywgJzIwMCcsICctbWV0YWxfYmluZGluZycsICctaW1hZScsICc8aW5maWxlLm1hZT4nLCAnLW9tYWUnLCAnPG91dGZpbGUubWFlPic=

> <r_lp_tautomer_probability>
1

> <r_epik_Ionization_Penalty>
0.0036482

> <r_epik_Ionization_Penalty_Charging>
0.00362828

> <r_epik_Ionization_Penalty_Neutral>
1.99208e-05

> <r_epik_State_Penalty>
-0

> <r_epik_Charging_Adjusted_Penalty>
0.00362828

> <i_epik_Tot_Q>
0

> <i_epik_Tot_abs_Q>
0

> <r_epik_Metal_State_Penalty>
0.369362

> <b_epik_Metal_Only>
0

> <s_lp_Force_Field>
OPLS_2005

> <r_lp_Energy>
34.6264

> <b_lp_Chiralities_Consistent>
1

> <s_lp_Variant>
AV-unprocessed.smi:697-3

> <Gold.Version>
5.8.1

> <Gold.Id.Protein>
6NUR|6NUR_protein|mol2

> <Gold.PLP.Fitness>
38.7472

> <Gold.PLP.PLP>
-33.0090

> <Gold.PLP.part.hbond>
-2.7880

> <Gold.PLP.part.metal>
0.0000

> <Gold.PLP.part.buried>
-6.1692

> <Gold.PLP.part.nonpolar>
-26.6796

> <Gold.PLP.part.repulsive>
0.4907

> <Gold.PLP.ligand.clash>
1.2365

> <Gold.PLP.ligand.torsion>
1.0313

> <Gold.PLP.Chemscore.Hbond>
1.8922

> <Gold.PLP.Chemscore.CHOScore>
0.9812

> <Gold.PLP.Chemscore.Metal>
0.0000

> <Gold.Chemscore.Hbonds>
donor molecule, donor type, donor heavy atom, donor atom, acceptor molecule, acceptor atom, score
      L1  H    10    36       P1  7948  0.78
      L1  H    19    25       P1 10171  0.91
      P1  H  6934  6947       L1     2  0.17
      L1  C    18    38       P1 10186  0.99

> <Gold.PLP.Chemscore.Internal.Correction>
0.4174

> <Gold.Rescore>
     Score         DG    S(hbond)    S(metal)    S(lipo)     H(rot)  DE(clash)    DE(int)     intcor
     12.72     -13.67       1.73        0.00      49.30       1.31       0.03       0.92       ----

> <Gold.Chemscore.Fitness>
12.7219

> <Gold.Chemscore.DG>
-13.6731

> <Gold.Chemscore.ZeroCoef>
-5.4800

> <Gold.Chemscore.Hbond>
1.7274

> <Gold.Chemscore.Metal>
0.0000

> <Gold.Chemscore.Lipo>
49.2958

> <Gold.Chemscore.Internal_Hbond>
0.0000

> <Gold.Chemscore.DEClash>
0.0333

> <Gold.Chemscore.DEInternal>
0.9179

> <Gold.Chemscore.Rot>
1.3062

> <Gold.Chemscore.Internal.Correction>
   9.000000E+99

> <Gold.Chemscore.Hbonds>
donor molecule, donor type, donor heavy atom, donor atom, acceptor molecule, acceptor atom, score
      L1  H    10    36       P1  7948  0.74
      L1  H    19    25       P1 10171  0.90
      P1  H  6934  6947       L1     2  0.02

> <Gold.Chemscore.Hbond.Weighted>
-5.7695

> <Gold.Chemscore.Metal.Weighted>
-0.0000

> <Gold.Chemscore.Lipo.Weighted>
-5.7676

> <Gold.Chemscore.Internal_Hbond.Weighted>
0.0000

> <Gold.Chemscore.DEClash.Weighted>
0.0333

> <Gold.Chemscore.DEInternal.Weighted>
0.9179

> <Gold.Chemscore.Rot.Weighted>
3.3440

> <Gold.Chemscore.Internal.Correction.Weighted>
   9.000000E+99

> <Gold.Protein.RotatedTorsions>
[ 6907 6896 6895 6894 ] final    0.59 input  -60.11 | X-H torsion
[ 7974 7965 7964 7962 ] final -178.31 input  175.53 | X-H torsion
[ 8008 7997 7996 7995 ] final -118.97 input   59.86 | X-H torsion
[ 10167 10162 10161 10158 ] final  -28.96 input  -65.29 | X-H torsion
[ 10718 10713 10712 10709 ] final   71.67 input   66.30 | X-H torsion
[ 10763 10752 10751 10750 ] final   -2.72 input  -60.55 | X-H torsion
[ 11005 11000 10999 10996 ] final -167.76 input  -57.11 | X-H torsion

> <Gold.Protein.ActiveResidues>
 VAL166  LYS551  ARG553  GLY616  TRP617  ASP618  TYR619  PRO620  LYS621  CYS622 
 ASP623  PHE694  ASN695  SER759  ASP760  ASP761  ALA762  ILE779  LEU786  VAL792 
 PHE793  MET794  SER795  GLU796  ALA797  LYS798  CYS799  TRP800  GLU811  SER814 

> <Gold.Protein.RotatedAtoms>
  151.5790  135.1059  160.0012 H   0  0  0  0  0  0  0  0  0  0  0  0  # atno 6907 bound_to 6896
  152.4363  133.7363  159.6626 H   0  0  0  0  0  0  0  0  0  0  0  0  # atno 6908 bound_to 6896
  150.8262  133.8098  159.3141 H   0  0  0  0  0  0  0  0  0  0  0  0  # atno 6909 bound_to 6896
  144.7130  140.0888  143.6422 H   0  0  0  0  0  0  0  0  0  0  0  0  # atno 7974 bound_to 7965
  155.1083  140.0397  157.2716 H   0  0  0  0  0  0  0  0  0  0  0  0  # atno 8008 bound_to 7997
  154.6705  140.2611  155.6987 H   0  0  0  0  0  0  0  0  0  0  0  0  # atno 8009 bound_to 7997
  156.2656  140.2798  156.1212 H   0  0  0  0  0  0  0  0  0  0  0  0  # atno 8010 bound_to 7997
  140.7265  143.3967  151.1335 H   0  0  0  0  0  0  0  0  0  0  0  0  # atno 10167 bound_to 10162
  157.6463  130.9540  150.0822 H   0  0  0  0  0  0  0  0  0  0  0  0  # atno 10718 bound_to 10713
  153.3618  135.6990  153.6706 H   0  0  0  0  0  0  0  0  0  0  0  0  # atno 10763 bound_to 10752
  153.5392  135.3576  155.2711 H   0  0  0  0  0  0  0  0  0  0  0  0  # atno 10764 bound_to 10752
  154.8669  135.4199  154.2877 H   0  0  0  0  0  0  0  0  0  0  0  0  # atno 10765 bound_to 10752
  140.5496  134.5441  157.5119 H   0  0  0  0  0  0  0  0  0  0  0  0  # atno 11005 bound_to 11000
  145.9639  139.2820  143.1139 LP  0  0  0  0  0  0  0  0  0  0  0  0  # atno 17320 bound_to 7965
  145.9191  140.9128  143.0414 LP  0  0  0  0  0  0  0  0  0  0  0  0  # atno 17321 bound_to 7965
  139.7581  143.8677  152.3093 LP  0  0  0  0  0  0  0  0  0  0  0  0  # atno 17342 bound_to 10162
  139.8553  144.7144  150.9164 LP  0  0  0  0  0  0  0  0  0  0  0  0  # atno 17343 bound_to 10162
  156.1795  130.3649  149.9055 LP  0  0  0  0  0  0  0  0  0  0  0  0  # atno 17370 bound_to 10713
  156.7011  130.8933  151.3599 LP  0  0  0  0  0  0  0  0  0  0  0  0  # atno 17371 bound_to 10713
  139.9462  134.7698  156.0557 LP  0  0  0  0  0  0  0  0  0  0  0  0  # atno 17394 bound_to 11000
  141.1179  133.6622  156.3141 LP  0  0  0  0  0  0  0  0  0  0  0  0  # atno 17395 bound_to 11000

$$$$
