AV-unprocessed.smi:110|AV-procd|sdf|1077|dock6
  -GOLD-   2262018163D 1   1.00000     0.00000
 Structure written by MMmdl.
 46 50  0  0  0  0  0  0  0  0  1 V2000
  148.4525  135.9792  154.4292 O   0  0  0  0  0  0  0  0  0  0  0  0
  147.2793  136.7638  154.3988 C   0  0  0  0  0  0  0  0  0  0  0  0
  147.6155  138.2337  154.7084 C   0  0  1  0  0  0  0  0  0  0  0  0
  149.0267  138.4469  154.7181 O   0  0  0  0  0  0  0  0  0  0  0  0
  149.3348  139.7533  154.3297 C   0  0  2  0  0  0  0  0  0  0  0  0
  150.0100  140.4400  155.4767 N   0  0  0  0  0  0  0  0  0  0  0  0
  149.6781  141.6609  156.0193 C   0  0  0  0  0  0  0  0  0  0  0  0
  150.4204  142.0514  157.0185 N   0  0  0  0  0  0  0  0  0  0  0  0
  151.3558  141.0349  157.1677 C   0  0  0  0  0  0  0  0  0  0  0  0
  152.4471  140.8059  158.0540 C   0  0  0  0  0  0  0  0  0  0  0  0
  152.8231  141.6452  159.0466 N   0  0  0  0  0  0  0  0  0  0  0  0
  153.3157  141.0620  160.3031 C   0  0  0  0  0  0  0  0  0  0  0  0
  153.1508  142.1215  161.4092 C   0  0  0  0  0  0  0  0  0  0  0  0
  152.6148  143.2735  160.6230 C   0  0  0  0  0  0  0  0  0  0  0  0
  152.3051  144.5597  161.0980 C   0  0  0  0  0  0  0  0  0  0  0  0
  151.8255  145.5122  160.1733 C   0  0  0  0  0  0  0  0  0  0  0  0
  151.6738  145.1710  158.8091 C   0  0  0  0  0  0  0  0  0  0  0  0
  151.9931  143.8726  158.3544 C   0  0  0  0  0  0  0  0  0  0  0  0
  152.4535  142.9207  159.2871 C   0  0  0  0  0  0  0  0  0  0  0  0
  153.1255  139.6374  157.9296 N   0  0  0  0  0  0  0  0  0  0  0  0
  152.7879  138.7652  156.9767 C   0  0  0  0  0  0  0  0  0  0  0  0
  151.8100  138.8546  156.0743 N   0  0  0  0  0  0  0  0  0  0  0  0
  151.1028  140.0133  156.2076 C   0  0  0  0  0  0  0  0  0  0  0  0
  148.0220  140.4496  153.9427 C   0  0  1  0  0  0  0  0  0  0  0  0
  148.1372  141.2770  152.7999 O   0  0  0  0  0  0  0  0  0  0  0  0
  147.1018  139.2601  153.6903 C   0  0  1  0  0  0  0  0  0  0  0  0
  147.2197  138.7554  152.3689 O   0  0  0  0  0  0  0  0  0  0  0  0
  147.2089  138.5011  155.6837 H   0  0  0  0  0  0  0  0  0  0  0  0
  150.0741  139.7309  153.5279 H   0  0  0  0  0  0  0  0  0  0  0  0
  147.6440  141.0335  154.7821 H   0  0  0  0  0  0  0  0  0  0  0  0
  146.0565  139.5157  153.8658 H   0  0  0  0  0  0  0  0  0  0  0  0
  148.8639  136.0211  153.5794 H   0  0  0  0  0  0  0  0  0  0  0  0
  146.7821  136.6633  153.4336 H   0  0  0  0  0  0  0  0  0  0  0  0
  146.6037  136.3659  155.1565 H   0  0  0  0  0  0  0  0  0  0  0  0
  148.8549  142.2569  155.6528 H   0  0  0  0  0  0  0  0  0  0  0  0
  152.7602  140.1560  160.5500 H   0  0  0  0  0  0  0  0  0  0  0  0
  154.3648  140.7877  160.1879 H   0  0  0  0  0  0  0  0  0  0  0  0
  152.4356  141.8111  162.1711 H   0  0  0  0  0  0  0  0  0  0  0  0
  154.0992  142.3756  161.8828 H   0  0  0  0  0  0  0  0  0  0  0  0
  152.4340  144.8133  162.1398 H   0  0  0  0  0  0  0  0  0  0  0  0
  151.5798  146.5092  160.5081 H   0  0  0  0  0  0  0  0  0  0  0  0
  151.3149  145.9100  158.1082 H   0  0  0  0  0  0  0  0  0  0  0  0
  151.8872  143.6214  157.3093 H   0  0  0  0  0  0  0  0  0  0  0  0
  153.3846  137.8662  156.9324 H   0  0  0  0  0  0  0  0  0  0  0  0
  148.6488  140.8190  152.1504 H   0  0  0  0  0  0  0  0  0  0  0  0
  148.0466  139.0455  152.0142 H   0  0  0  0  0  0  0  0  0  0  0  0
  1  2  1  0  0  0  0
  1 32  1  0  0  0  0
  2  3  1  0  0  0  0
  2 33  1  0  0  0  0
  2 34  1  0  0  0  0
  3 28  1  0  0  0  0
  3 26  1  0  0  0  0
  3  4  1  0  0  0  0
  4  5  1  0  0  0  0
  5 29  1  0  0  0  0
  5  6  1  0  0  0  0
  5 24  1  0  0  0  0
  6 23  1  0  0  0  0
  6  7  1  0  0  0  0
  7  8  2  0  0  0  0
  7 35  1  0  0  0  0
  8  9  1  0  0  0  0
  9 23  2  0  0  0  0
  9 10  1  0  0  0  0
 10 11  1  0  0  0  0
 10 20  2  0  0  0  0
 11 19  1  0  0  0  0
 11 12  1  0  0  0  0
 12 13  1  0  0  0  0
 12 36  1  0  0  0  0
 12 37  1  0  0  0  0
 13 14  1  0  0  0  0
 13 38  1  0  0  0  0
 13 39  1  0  0  0  0
 14 19  2  0  0  0  0
 14 15  1  0  0  0  0
 15 16  2  0  0  0  0
 15 40  1  0  0  0  0
 16 17  1  0  0  0  0
 16 41  1  0  0  0  0
 17 18  2  0  0  0  0
 17 42  1  0  0  0  0
 18 19  1  0  0  0  0
 18 43  1  0  0  0  0
 20 21  1  0  0  0  0
 21 22  2  0  0  0  0
 21 44  1  0  0  0  0
 22 23  1  0  0  0  0
 24 30  1  0  0  0  0
 24 25  1  0  0  0  0
 24 26  1  0  0  0  0
 25 45  1  0  0  0  0
 26 31  1  0  0  0  0
 26 27  1  0  0  0  0
 27 46  1  0  0  0  0
M  END
> <s_m_source_file>
AV-unprocessed.smi

> <i_m_source_file_index>
110

> <i_lp_mmshare_version>
43012

> <i_f3d_flags>
0

> <s_epik_input>
W09IXVtDSDJdW0NASF0xT1tDQEhdKFtDQEhdKFtPSF0pW0NAQEhdMVtPSF0pbihbY0hdbjIpYyhjMjMpbltjSF1uYzNOKFtDSDJdW0NIMl00KWMoYzQ1KVtjSF1bY0hdW2NIXVtjSF01

> <s_epik_cmdline>
J2VwaWtfcHl0aG9uJywgJy1waCcsICc3LjAnLCAnLXRuJywgJzgnLCAnLW1hJywgJzIwMCcsICctbWV0YWxfYmluZGluZycsICctaW1hZScsICc8aW5maWxlLm1hZT4nLCAnLW9tYWUnLCAnPG91dGZpbGUubWFlPic=

> <r_lp_tautomer_probability>
1

> <r_epik_Ionization_Penalty>
0.00068475

> <r_epik_Ionization_Penalty_Charging>
0

> <r_epik_Ionization_Penalty_Neutral>
0.00068475

> <r_epik_State_Penalty>
0.000417442

> <r_epik_Charging_Adjusted_Penalty>
0.000417442

> <i_epik_Tot_Q>
0

> <i_epik_Tot_abs_Q>
0

> <r_epik_Metal_State_Penalty>
-0

> <b_epik_Metal_Only>
0

> <s_epik_Chemistry_Notes>
This compound contains an acetal/aminal-like group ( X-CH(R)-Y where X, Y are N, S, or O) that may be acid/base labile, releasing an aldehyde.

> <s_lp_Force_Field>
OPLS_2005

> <r_lp_Energy>
64.5887

> <b_lp_Chiralities_Consistent>
1

> <s_lp_Variant>
AV-unprocessed.smi:110-15

> <Gold.Version>
5.8.1

> <Gold.Id.Protein>
6NUR|6NUR_protein|mol2

> <Gold.PLP.Fitness>
64.0958

> <Gold.PLP.PLP>
-52.3661

> <Gold.PLP.part.hbond>
-5.5968

> <Gold.PLP.part.metal>
0.0000

> <Gold.PLP.part.buried>
-1.2096

> <Gold.PLP.part.nonpolar>
-44.8648

> <Gold.PLP.part.repulsive>
0.2503

> <Gold.PLP.ligand.clash>
0.0000

> <Gold.PLP.ligand.torsion>
1.1441

> <Gold.PLP.Chemscore.Hbond>
3.7440

> <Gold.PLP.Chemscore.CHOScore>
0.8820

> <Gold.PLP.Chemscore.Metal>
0.0000

> <Gold.Chemscore.Hbonds>
donor molecule, donor type, donor heavy atom, donor atom, acceptor molecule, acceptor atom, score
      L1  H     1    32       P1  7948  1.00
      L1  H    25    45       P1  7957  1.00
      L1  H    27    46       P1  7957  1.00
      P1  H  7997  8008       L1    20  0.68
      L1  C     7    35       P1  8028  0.87

> <Gold.PLP.Chemscore.Internal.Correction>
0.1398

> <Gold.Rescore>
     Score         DG    S(hbond)    S(metal)    S(lipo)     H(rot)  DE(clash)    DE(int)     intcor
     16.13     -20.38       3.03        0.00     114.80       3.38       1.70       2.55       ----

> <Gold.Chemscore.Fitness>
16.1316

> <Gold.Chemscore.DG>
-20.3816

> <Gold.Chemscore.ZeroCoef>
-5.4800

> <Gold.Chemscore.Hbond>
3.0336

> <Gold.Chemscore.Metal>
0.0000

> <Gold.Chemscore.Lipo>
114.7981

> <Gold.Chemscore.Internal_Hbond>
0.0000

> <Gold.Chemscore.DEClash>
1.7000

> <Gold.Chemscore.DEInternal>
2.5499

> <Gold.Chemscore.Rot>
3.3837

> <Gold.Chemscore.Internal.Correction>
   9.000000E+99

> <Gold.Chemscore.Hbonds>
donor molecule, donor type, donor heavy atom, donor atom, acceptor molecule, acceptor atom, score
      L1  H     1    32       P1  7948  0.98
      L1  H    25    45       P1  7957  0.97
      L1  H    27    46       P1  7957  0.94
      P1  H  7997  8008       L1    20  0.04

> <Gold.Chemscore.Hbond.Weighted>
-10.1324

> <Gold.Chemscore.Metal.Weighted>
-0.0000

> <Gold.Chemscore.Lipo.Weighted>
-13.4314

> <Gold.Chemscore.Internal_Hbond.Weighted>
0.0000

> <Gold.Chemscore.DEClash.Weighted>
1.7000

> <Gold.Chemscore.DEInternal.Weighted>
2.5499

> <Gold.Chemscore.Rot.Weighted>
8.6622

> <Gold.Chemscore.Internal.Correction.Weighted>
   9.000000E+99

> <Gold.Protein.RotatedTorsions>
[ 6907 6896 6895 6894 ] final  -33.92 input  -60.11 | X-H torsion
[ 7974 7965 7964 7962 ] final  125.50 input  175.53 | X-H torsion
[ 8008 7997 7996 7995 ] final  -98.95 input   59.86 | X-H torsion
[ 10167 10162 10161 10158 ] final -110.87 input  -65.29 | X-H torsion
[ 10718 10713 10712 10709 ] final  -51.81 input   66.30 | X-H torsion
[ 10763 10752 10751 10750 ] final  179.29 input  -60.55 | X-H torsion
[ 11005 11000 10999 10996 ] final -163.07 input  -57.11 | X-H torsion

> <Gold.Protein.ActiveResidues>
 VAL166  LYS551  ARG553  GLY616  TRP617  ASP618  TYR619  PRO620  LYS621  CYS622 
 ASP623  PHE694  ASN695  SER759  ASP760  ASP761  ALA762  ILE779  LEU786  VAL792 
 PHE793  MET794  SER795  GLU796  ALA797  LYS798  CYS799  TRP800  GLU811  SER814 

> <Gold.Protein.RotatedAtoms>
  151.0593  134.9726  159.8251 H   0  0  0  0  0  0  0  0  0  0  0  0  # atno 6907 bound_to 6896
  152.5393  134.2438  159.8882 H   0  0  0  0  0  0  0  0  0  0  0  0  # atno 6908 bound_to 6896
  151.2457  133.4333  159.2643 H   0  0  0  0  0  0  0  0  0  0  0  0  # atno 6909 bound_to 6896
  145.0723  139.3720  143.4951 H   0  0  0  0  0  0  0  0  0  0  0  0  # atno 7974 bound_to 7965
  154.8082  140.0451  157.1323 H   0  0  0  0  0  0  0  0  0  0  0  0  # atno 8008 bound_to 7997
  154.9399  140.3051  155.5106 H   0  0  0  0  0  0  0  0  0  0  0  0  # atno 8009 bound_to 7997
  156.2969  140.2307  156.4467 H   0  0  0  0  0  0  0  0  0  0  0  0  # atno 8010 bound_to 7997
  140.1398  143.4289  152.1570 H   0  0  0  0  0  0  0  0  0  0  0  0  # atno 10167 bound_to 10162
  156.1677  130.4149  149.9695 H   0  0  0  0  0  0  0  0  0  0  0  0  # atno 10718 bound_to 10713
  154.5187  135.2792  155.1281 H   0  0  0  0  0  0  0  0  0  0  0  0  # atno 10763 bound_to 10752
  154.2847  135.6278  153.5365 H   0  0  0  0  0  0  0  0  0  0  0  0  # atno 10764 bound_to 10752
  152.9932  135.5659  154.5671 H   0  0  0  0  0  0  0  0  0  0  0  0  # atno 10765 bound_to 10752
  140.6022  134.4935  157.5206 H   0  0  0  0  0  0  0  0  0  0  0  0  # atno 11005 bound_to 11000
  146.3529  140.0474  142.8638 LP  0  0  0  0  0  0  0  0  0  0  0  0  # atno 17320 bound_to 7965
  145.1277  140.9500  143.4563 LP  0  0  0  0  0  0  0  0  0  0  0  0  # atno 17321 bound_to 7965
  139.5478  144.7312  151.4530 LP  0  0  0  0  0  0  0  0  0  0  0  0  # atno 17342 bound_to 10162
  140.6767  143.8173  150.7068 LP  0  0  0  0  0  0  0  0  0  0  0  0  # atno 17343 bound_to 10162
  156.7505  130.9113  151.3637 LP  0  0  0  0  0  0  0  0  0  0  0  0  # atno 17370 bound_to 10713
  157.6780  130.9113  150.0197 LP  0  0  0  0  0  0  0  0  0  0  0  0  # atno 17371 bound_to 10713
  139.9227  134.8116  156.1161 LP  0  0  0  0  0  0  0  0  0  0  0  0  # atno 17394 bound_to 11000
  141.0864  133.6732  156.2446 LP  0  0  0  0  0  0  0  0  0  0  0  0  # atno 17395 bound_to 11000

$$$$
