AV-unprocessed.smi:3339|AV-procd|sdf|12877|dock2
  -GOLD-   2272019283D 1   1.00000     0.00000
 Structure written by MMmdl.
 39 40  0  0  0  0  0  0  0  0  1 V2000
  153.0560  138.7430  154.6477 C   0  0  0  0  0  0  0  0  0  0  0  0
  151.5952  138.7770  155.1119 C   0  0  0  0  0  0  0  0  0  0  0  0
  150.7481  137.7307  154.3687 C   0  0  0  0  0  0  0  0  0  0  0  0
  151.1103  140.0906  154.8640 O   0  0  0  0  0  0  0  0  0  0  0  0
  149.7901  140.3351  155.3297 C   0  0  0  0  0  0  0  0  0  0  0  0
  149.8634  141.2053  156.5959 C   0  0  2  0  0  0  0  0  0  0  0  0
  148.7574  142.0857  156.5642 O   0  0  0  0  0  0  0  0  0  0  0  0
  151.1468  142.0604  156.6337 C   0  0  0  0  0  0  0  0  0  0  0  0
  151.7440  142.0762  157.9677 N   0  0  0  0  0  0  0  0  0  0  0  0
  152.4998  141.1011  158.5253 C   0  0  0  0  0  0  0  0  0  0  0  0
  152.8074  140.0340  157.9948 O   0  0  0  0  0  0  0  0  0  0  0  0
  152.8716  141.5131  159.7597 N   0  0  0  0  0  0  0  0  0  0  0  0
  153.7054  140.7867  160.7097 C   0  0  0  0  0  0  0  0  0  0  0  0
  152.3593  142.7965  159.9899 C   0  0  0  0  0  0  0  0  0  0  0  0
  152.4792  143.6541  161.0968 C   0  0  0  0  0  0  0  0  0  0  0  0
  151.8381  144.9125  161.0109 C   0  0  0  0  0  0  0  0  0  0  0  0
  151.1105  145.2802  159.8490 C   0  0  0  0  0  0  0  0  0  0  0  0
  151.0067  144.3970  158.7487 C   0  0  0  0  0  0  0  0  0  0  0  0
  151.6505  143.1523  158.8620 C   0  0  0  0  0  0  0  0  0  0  0  0
  153.5053  137.7665  154.8312 H   0  0  0  0  0  0  0  0  0  0  0  0
  153.6511  139.4862  155.1793 H   0  0  0  0  0  0  0  0  0  0  0  0
  153.1368  138.9537  153.5807 H   0  0  0  0  0  0  0  0  0  0  0  0
  151.5774  138.5692  156.1831 H   0  0  0  0  0  0  0  0  0  0  0  0
  151.1675  136.7320  154.4929 H   0  0  0  0  0  0  0  0  0  0  0  0
  150.7088  137.9440  153.3001 H   0  0  0  0  0  0  0  0  0  0  0  0
  149.7246  137.6971  154.7406 H   0  0  0  0  0  0  0  0  0  0  0  0
  149.2413  140.8681  154.5538 H   0  0  0  0  0  0  0  0  0  0  0  0
  149.2529  139.4043  155.5214 H   0  0  0  0  0  0  0  0  0  0  0  0
  149.8099  140.5669  157.4791 H   0  0  0  0  0  0  0  0  0  0  0  0
  149.0515  142.9276  156.2511 H   0  0  0  0  0  0  0  0  0  0  0  0
  151.8924  141.6460  155.9545 H   0  0  0  0  0  0  0  0  0  0  0  0
  150.9569  143.0734  156.2744 H   0  0  0  0  0  0  0  0  0  0  0  0
  153.2993  140.8694  161.7182 H   0  0  0  0  0  0  0  0  0  0  0  0
  154.7150  141.1976  160.7118 H   0  0  0  0  0  0  0  0  0  0  0  0
  153.7702  139.7258  160.4640 H   0  0  0  0  0  0  0  0  0  0  0  0
  153.0381  143.3689  161.9758 H   0  0  0  0  0  0  0  0  0  0  0  0
  151.9054  145.6025  161.8390 H   0  0  0  0  0  0  0  0  0  0  0  0
  150.6317  146.2473  159.8033 H   0  0  0  0  0  0  0  0  0  0  0  0
  150.4583  144.6728  157.8600 H   0  0  0  0  0  0  0  0  0  0  0  0
  1  2  1  0  0  0  0
  1 20  1  0  0  0  0
  1 21  1  0  0  0  0
  1 22  1  0  0  0  0
  2  3  1  0  0  0  0
  2  4  1  0  0  0  0
  2 23  1  0  0  0  0
  3 24  1  0  0  0  0
  3 25  1  0  0  0  0
  3 26  1  0  0  0  0
  4  5  1  0  0  0  0
  5  6  1  0  0  0  0
  5 27  1  0  0  0  0
  5 28  1  0  0  0  0
  6  7  1  0  0  0  0
  6  8  1  0  0  0  0
  6 29  1  0  0  0  0
  7 30  1  0  0  0  0
  8  9  1  0  0  0  0
  8 31  1  0  0  0  0
  8 32  1  0  0  0  0
  9 19  1  0  0  0  0
  9 10  1  0  0  0  0
 10 11  2  0  0  0  0
 10 12  1  0  0  0  0
 12 13  1  0  0  0  0
 12 14  1  0  0  0  0
 13 33  1  0  0  0  0
 13 34  1  0  0  0  0
 13 35  1  0  0  0  0
 14 19  2  0  0  0  0
 14 15  1  0  0  0  0
 15 16  2  0  0  0  0
 15 36  1  0  0  0  0
 16 17  1  0  0  0  0
 16 37  1  0  0  0  0
 17 18  2  0  0  0  0
 17 38  1  0  0  0  0
 18 19  1  0  0  0  0
 18 39  1  0  0  0  0
M  END
> <s_m_source_file>
AV-unprocessed.smi

> <i_m_source_file_index>
3339

> <i_lp_mmshare_version>
43012

> <i_f3d_flags>
0

> <s_epik_input>
W0NIM11bQ0hdKFtDSDNdKU9bQ0gyXVtDQEhdKFtPSF0pW0NIMl1uKGMoPU8pbjFbQ0gzXSljKGMxMilbY0hdW2NIXVtjSF1bY0hdMg==

> <s_epik_cmdline>
J2VwaWtfcHl0aG9uJywgJy1waCcsICc3LjAnLCAnLXRuJywgJzgnLCAnLW1hJywgJzIwMCcsICctbWV0YWxfYmluZGluZycsICctaW1hZScsICc8aW5maWxlLm1hZT4nLCAnLW9tYWUnLCAnPG91dGZpbGUubWFlPic=

> <r_lp_tautomer_probability>
1

> <r_epik_Ionization_Penalty>
3.68683e-07

> <r_epik_Ionization_Penalty_Charging>
2.29158e-09

> <r_epik_Ionization_Penalty_Neutral>
3.66391e-07

> <r_epik_State_Penalty>
-0

> <r_epik_Charging_Adjusted_Penalty>
2.29158e-09

> <i_epik_Tot_Q>
0

> <i_epik_Tot_abs_Q>
0

> <r_epik_Metal_State_Penalty>
-0

> <b_epik_Metal_Only>
0

> <s_lp_Force_Field>
OPLS_2005

> <r_lp_Energy>
41.4945

> <b_lp_Chiralities_Consistent>
1

> <s_lp_Variant>
AV-unprocessed.smi:3339-1

> <Gold.Version>
5.8.1

> <Gold.Id.Protein>
6NUR|6NUR_protein|mol2

> <Gold.PLP.Fitness>
53.8495

> <Gold.PLP.PLP>
-48.0753

> <Gold.PLP.part.hbond>
-3.0000

> <Gold.PLP.part.metal>
0.0000

> <Gold.PLP.part.buried>
-6.3394

> <Gold.PLP.part.nonpolar>
-39.6589

> <Gold.PLP.part.repulsive>
0.0595

> <Gold.PLP.ligand.clash>
0.0000

> <Gold.PLP.ligand.torsion>
1.6564

> <Gold.PLP.Chemscore.Hbond>
3.0000

> <Gold.PLP.Chemscore.CHOScore>
0.0000

> <Gold.PLP.Chemscore.Metal>
0.0000

> <Gold.Chemscore.Hbonds>
donor molecule, donor type, donor heavy atom, donor atom, acceptor molecule, acceptor atom, score
      L1  H     7    30       P1  8028  1.00
      P1  H  7989  7998       L1     4  1.00
      P1  H  7997  8009       L1    11  1.00

> <Gold.PLP.Chemscore.Internal.Correction>
0.0870

> <Gold.Rescore>
     Score         DG    S(hbond)    S(metal)    S(lipo)     H(rot)  DE(clash)    DE(int)     intcor
     21.46     -23.44       2.82        0.00     119.71       2.13       0.18       1.80       ----

> <Gold.Chemscore.Fitness>
21.4619

> <Gold.Chemscore.DG>
-23.4353

> <Gold.Chemscore.ZeroCoef>
-5.4800

> <Gold.Chemscore.Hbond>
2.8159

> <Gold.Chemscore.Metal>
0.0000

> <Gold.Chemscore.Lipo>
119.7146

> <Gold.Chemscore.Internal_Hbond>
0.0000

> <Gold.Chemscore.DEClash>
0.1783

> <Gold.Chemscore.DEInternal>
1.7952

> <Gold.Chemscore.Rot>
2.1314

> <Gold.Chemscore.Internal.Correction>
   9.000000E+99

> <Gold.Chemscore.Hbonds>
donor molecule, donor type, donor heavy atom, donor atom, acceptor molecule, acceptor atom, score
      L1  H     7    30       P1  8028  0.98
      P1  H  7989  7998       L1     4  0.92
      P1  H  7997  8009       L1    11  0.84

> <Gold.Chemscore.Hbond.Weighted>
-9.4051

> <Gold.Chemscore.Metal.Weighted>
-0.0000

> <Gold.Chemscore.Lipo.Weighted>
-14.0066

> <Gold.Chemscore.Internal_Hbond.Weighted>
0.0000

> <Gold.Chemscore.DEClash.Weighted>
0.1783

> <Gold.Chemscore.DEInternal.Weighted>
1.7952

> <Gold.Chemscore.Rot.Weighted>
5.4564

> <Gold.Chemscore.Internal.Correction.Weighted>
   9.000000E+99

> <Gold.Protein.RotatedTorsions>
[ 6907 6896 6895 6894 ] final  -17.24 input  -60.11 | X-H torsion
[ 7974 7965 7964 7962 ] final  171.26 input  175.53 | X-H torsion
[ 8008 7997 7996 7995 ] final  162.70 input   59.86 | X-H torsion
[ 10167 10162 10161 10158 ] final   77.14 input  -65.29 | X-H torsion
[ 10718 10713 10712 10709 ] final  -10.13 input   66.30 | X-H torsion
[ 10763 10752 10751 10750 ] final   -6.33 input  -60.55 | X-H torsion
[ 11005 11000 10999 10996 ] final  -38.88 input  -57.11 | X-H torsion

> <Gold.Protein.ActiveResidues>
 VAL166  LYS551  ARG553  GLY616  TRP617  ASP618  TYR619  PRO620  LYS621  CYS622 
 ASP623  PHE694  ASN695  SER759  ASP760  ASP761  ALA762  ILE779  LEU786  VAL792 
 PHE793  MET794  SER795  GLU796  ALA797  LYS798  CYS799  TRP800  GLU811  SER814 

> <Gold.Protein.RotatedAtoms>
  151.2963  135.0756  159.9222 H   0  0  0  0  0  0  0  0  0  0  0  0  # atno 6907 bound_to 6896
  152.5306  133.9879  159.7847 H   0  0  0  0  0  0  0  0  0  0  0  0  # atno 6908 bound_to 6896
  151.0158  133.5871  159.2707 H   0  0  0  0  0  0  0  0  0  0  0  0  # atno 6909 bound_to 6896
  144.7300  139.9324  143.6425 H   0  0  0  0  0  0  0  0  0  0  0  0  # atno 7974 bound_to 7965
  156.2012  140.1743  156.7895 H   0  0  0  0  0  0  0  0  0  0  0  0  # atno 8008 bound_to 7997
  154.5594  140.0702  156.8826 H   0  0  0  0  0  0  0  0  0  0  0  0  # atno 8009 bound_to 7997
  155.2876  140.3353  155.4257 H   0  0  0  0  0  0  0  0  0  0  0  0  # atno 8010 bound_to 7997
  139.9847  144.5800  150.7869 H   0  0  0  0  0  0  0  0  0  0  0  0  # atno 10167 bound_to 10162
  156.6779  130.5028  149.5980 H   0  0  0  0  0  0  0  0  0  0  0  0  # atno 10718 bound_to 10713
  153.4109  135.7007  153.6360 H   0  0  0  0  0  0  0  0  0  0  0  0  # atno 10763 bound_to 10752
  153.4854  135.3684  155.2464 H   0  0  0  0  0  0  0  0  0  0  0  0  # atno 10764 bound_to 10752
  154.8717  135.4076  154.3461 H   0  0  0  0  0  0  0  0  0  0  0  0  # atno 10765 bound_to 10752
  141.0060  133.6931  156.2112 H   0  0  0  0  0  0  0  0  0  0  0  0  # atno 11005 bound_to 11000
  146.0847  139.3835  143.0443 LP  0  0  0  0  0  0  0  0  0  0  0  0  # atno 17320 bound_to 7965
  145.7793  140.9863  143.1108 LP  0  0  0  0  0  0  0  0  0  0  0  0  # atno 17321 bound_to 7965
  140.7476  143.2909  151.3333 LP  0  0  0  0  0  0  0  0  0  0  0  0  # atno 17342 bound_to 10162
  139.6383  144.0587  152.2534 LP  0  0  0  0  0  0  0  0  0  0  0  0  # atno 17343 bound_to 10162
  156.1889  130.6547  151.1038 LP  0  0  0  0  0  0  0  0  0  0  0  0  # atno 17370 bound_to 10713
  157.7054  131.0758  150.6684 LP  0  0  0  0  0  0  0  0  0  0  0  0  # atno 17371 bound_to 10713
  140.6811  134.4766  157.5589 LP  0  0  0  0  0  0  0  0  0  0  0  0  # atno 17394 bound_to 11000
  139.9064  134.8440  156.1691 LP  0  0  0  0  0  0  0  0  0  0  0  0  # atno 17395 bound_to 11000

$$$$
