AV-unprocessed.smi:610|AV-procd|sdf|3057|dock3
  -GOLD-   2262023583D 1   1.00000     0.00000
 Structure written by MMmdl.
 38 39  0  0  0  0  0  0  0  0  2 V2000
  150.5572  140.3592  155.3613 C   0  0  0  0  0  0  0  0  0  0  0  0
  149.3037  141.1816  155.6878 C   0  0  2  0  0  0  0  0  0  0  0  0
  148.6143  141.6858  154.4011 C   0  0  0  0  0  0  0  0  0  0  0  0
  147.2615  142.2013  154.6378 N   0  0  0  0  0  0  0  0  0  0  0  0
  146.4738  142.9045  153.7623 C   0  0  0  0  0  0  0  0  0  0  0  0
  145.3094  143.1898  154.4272 C   0  0  0  0  0  0  0  0  0  0  0  0
  145.4322  142.6424  155.6762 N   0  3  0  0  0  0  0  0  0  0  0  0
  146.6177  142.0373  155.8006 C   0  0  0  0  0  0  0  0  0  0  0  0
  149.6825  142.2988  156.5517 N   0  0  0  0  0  0  0  0  0  0  0  0
  150.3827  142.2117  157.6974 C   0  0  0  0  0  0  0  0  0  0  0  0
  150.7994  141.1366  158.1319 O   0  0  0  0  0  0  0  0  0  0  0  0
  150.6427  143.5125  158.4987 C   0  0  0  0  0  0  0  0  0  0  0  0
  149.4028  144.1732  158.8866 N   0  0  0  0  0  0  0  0  0  0  0  0
  151.4818  143.2248  159.7736 C   0  0  0  0  0  0  0  0  0  0  0  0
  152.7779  144.0353  159.6513 C   0  0  0  0  0  0  0  0  0  0  0  0
  152.9340  144.3179  158.1612 C   0  0  0  0  0  0  0  0  0  0  0  0
  151.4977  144.5041  157.6742 C   0  0  0  0  0  0  0  0  0  0  0  0
  150.3097  139.4961  154.7425 H   0  0  0  0  0  0  0  0  0  0  0  0
  151.0298  139.9858  156.2705 H   0  0  0  0  0  0  0  0  0  0  0  0
  151.2952  140.9544  154.8222 H   0  0  0  0  0  0  0  0  0  0  0  0
  148.6179  140.5208  156.2210 H   0  0  0  0  0  0  0  0  0  0  0  0
  149.2010  142.4768  153.9316 H   0  0  0  0  0  0  0  0  0  0  0  0
  148.5321  140.8786  153.6718 H   0  0  0  0  0  0  0  0  0  0  0  0
  146.7958  143.1516  152.7610 H   0  0  0  0  0  0  0  0  0  0  0  0
  144.4264  143.7273  154.1138 H   0  0  0  0  0  0  0  0  0  0  0  0
  146.9872  141.5282  156.6730 H   0  0  0  0  0  0  0  0  0  0  0  0
  149.3885  143.2204  156.2602 H   0  0  0  0  0  0  0  0  0  0  0  0
  149.5749  144.7629  159.6880 H   0  0  0  0  0  0  0  0  0  0  0  0
  149.1082  144.7889  158.1422 H   0  0  0  0  0  0  0  0  0  0  0  0
  150.9578  143.4825  160.6955 H   0  0  0  0  0  0  0  0  0  0  0  0
  151.7315  142.1655  159.8587 H   0  0  0  0  0  0  0  0  0  0  0  0
  152.6691  144.9785  160.1885 H   0  0  0  0  0  0  0  0  0  0  0  0
  153.6390  143.5145  160.0710 H   0  0  0  0  0  0  0  0  0  0  0  0
  153.5608  145.1874  157.9621 H   0  0  0  0  0  0  0  0  0  0  0  0
  153.3882  143.4588  157.6662 H   0  0  0  0  0  0  0  0  0  0  0  0
  151.4185  144.3530  156.5963 H   0  0  0  0  0  0  0  0  0  0  0  0
  151.1939  145.5348  157.8663 H   0  0  0  0  0  0  0  0  0  0  0  0
  144.7296  142.6893  156.4036 H   0  0  0  0  0  0  0  0  0  0  0  0
  1  2  1  0  0  0  0
  1 18  1  0  0  0  0
  1 19  1  0  0  0  0
  1 20  1  0  0  0  0
  2  3  1  0  0  0  0
  2  9  1  0  0  0  0
  2 21  1  0  0  0  0
  3  4  1  0  0  0  0
  3 22  1  0  0  0  0
  3 23  1  0  0  0  0
  4  8  1  0  0  0  0
  4  5  1  0  0  0  0
  5  6  2  0  0  0  0
  5 24  1  0  0  0  0
  6  7  1  0  0  0  0
  6 25  1  0  0  0  0
  7  8  2  0  0  0  0
  7 38  1  0  0  0  0
  8 26  1  0  0  0  0
  9 10  1  0  0  0  0
  9 27  1  0  0  0  0
 10 11  2  0  0  0  0
 10 12  1  0  0  0  0
 12 17  1  0  0  0  0
 12 13  1  0  0  0  0
 12 14  1  0  0  0  0
 13 28  1  0  0  0  0
 13 29  1  0  0  0  0
 14 15  1  0  0  0  0
 14 30  1  0  0  0  0
 14 31  1  0  0  0  0
 15 16  1  0  0  0  0
 15 32  1  0  0  0  0
 15 33  1  0  0  0  0
 16 17  1  0  0  0  0
 16 34  1  0  0  0  0
 16 35  1  0  0  0  0
 17 36  1  0  0  0  0
 17 37  1  0  0  0  0
M  CHG  1   7   1
M  END
> <s_m_source_file>
AV-unprocessed.smi

> <i_m_source_file_index>
610

> <i_lp_mmshare_version>
43012

> <i_f3d_flags>
0

> <s_epik_input>
W2NIXTFuW2NIXVtjSF1uMVtDSDJdW0NAQEhdKFtDSDNdKVtOSF1DKD1PKUMyKFtOSDJdKVtDSDJdW0NIMl1bQ0gyXVtDSDJdMg==

> <s_epik_cmdline>
J2VwaWtfcHl0aG9uJywgJy1waCcsICc3LjAnLCAnLXRuJywgJzgnLCAnLW1hJywgJzIwMCcsICctbWV0YWxfYmluZGluZycsICctaW1hZScsICc8aW5maWxlLm1hZT4nLCAnLW9tYWUnLCAnPG91dGZpbGUubWFlPic=

> <r_epik_Ionization_Penalty>
1.50287

> <r_epik_Ionization_Penalty_Charging>
0

> <r_epik_Ionization_Penalty_Neutral>
1.50287

> <r_epik_State_Penalty>
1.57152

> <r_epik_Charging_Adjusted_Penalty>
1.57152

> <i_epik_Tot_Q>
1

> <i_epik_Tot_abs_Q>
1

> <r_epik_Metal_State_Penalty>
1.8522

> <b_epik_Metal_Only>
0

> <s_lp_Force_Field>
OPLS_2005

> <r_lp_Energy>
22.5232

> <b_lp_Chiralities_Consistent>
1

> <s_lp_Variant>
AV-unprocessed.smi:610-5

> <Gold.Version>
5.8.1

> <Gold.Id.Protein>
6NUR|6NUR_protein|mol2

> <Gold.PLP.Fitness>
43.0650

> <Gold.PLP.PLP>
-37.4978

> <Gold.PLP.part.hbond>
-2.1860

> <Gold.PLP.part.metal>
0.0000

> <Gold.PLP.part.buried>
-2.6158

> <Gold.PLP.part.nonpolar>
-31.7434

> <Gold.PLP.part.repulsive>
0.0574

> <Gold.PLP.ligand.clash>
0.0000

> <Gold.PLP.ligand.torsion>
0.2445

> <Gold.PLP.Chemscore.Hbond>
2.0000

> <Gold.PLP.Chemscore.CHOScore>
0.0000

> <Gold.PLP.Chemscore.Metal>
0.0000

> <Gold.Chemscore.Hbonds>
donor molecule, donor type, donor heavy atom, donor atom, acceptor molecule, acceptor atom, score
      L1  H     9    27       P1  8028  1.00
      L1  H    13    29       P1  8029  1.00

> <Gold.PLP.Chemscore.Internal.Correction>
0.0563

> <Gold.Rescore>
     Score         DG    S(hbond)    S(metal)    S(lipo)     H(rot)  DE(clash)    DE(int)     intcor
     15.36     -16.91       1.86        0.00      88.72       2.02       0.13       1.42       ----

> <Gold.Chemscore.Fitness>
15.3590

> <Gold.Chemscore.DG>
-16.9115

> <Gold.Chemscore.ZeroCoef>
-5.4800

> <Gold.Chemscore.Hbond>
1.8593

> <Gold.Chemscore.Metal>
0.0000

> <Gold.Chemscore.Lipo>
88.7220

> <Gold.Chemscore.Internal_Hbond>
0.0000

> <Gold.Chemscore.DEClash>
0.1313

> <Gold.Chemscore.DEInternal>
1.4212

> <Gold.Chemscore.Rot>
2.0152

> <Gold.Chemscore.Internal.Correction>
   9.000000E+99

> <Gold.Chemscore.Hbonds>
donor molecule, donor type, donor heavy atom, donor atom, acceptor molecule, acceptor atom, score
      L1  H     9    27       P1  8028  1.00
      L1  H    13    29       P1  8029  0.29

> <Gold.Chemscore.Hbond.Weighted>
-6.2099

> <Gold.Chemscore.Metal.Weighted>
-0.0000

> <Gold.Chemscore.Lipo.Weighted>
-10.3805

> <Gold.Chemscore.Internal_Hbond.Weighted>
0.0000

> <Gold.Chemscore.DEClash.Weighted>
0.1313

> <Gold.Chemscore.DEInternal.Weighted>
1.4212

> <Gold.Chemscore.Rot.Weighted>
5.1589

> <Gold.Chemscore.Internal.Correction.Weighted>
   9.000000E+99

> <Gold.Protein.RotatedTorsions>
[ 6907 6896 6895 6894 ] final -174.71 input  -60.11 | X-H torsion
[ 7974 7965 7964 7962 ] final   -8.24 input  175.53 | X-H torsion
[ 8008 7997 7996 7995 ] final -125.31 input   59.86 | X-H torsion
[ 10167 10162 10161 10158 ] final -112.72 input  -65.29 | X-H torsion
[ 10718 10713 10712 10709 ] final   58.42 input   66.30 | X-H torsion
[ 10763 10752 10751 10750 ] final   80.39 input  -60.55 | X-H torsion
[ 11005 11000 10999 10996 ] final -179.37 input  -57.11 | X-H torsion

> <Gold.Protein.ActiveResidues>
 VAL166  LYS551  ARG553  GLY616  TRP617  ASP618  TYR619  PRO620  LYS621  CYS622 
 ASP623  PHE694  ASN695  SER759  ASP760  ASP761  ALA762  ILE779  LEU786  VAL792 
 PHE793  MET794  SER795  GLU796  ALA797  LYS798  CYS799  TRP800  GLU811  SER814 

> <Gold.Protein.RotatedAtoms>
  151.5767  133.3383  159.3000 H   0  0  0  0  0  0  0  0  0  0  0  0  # atno 6907 bound_to 6896
  150.8336  134.7603  159.6886 H   0  0  0  0  0  0  0  0  0  0  0  0  # atno 6908 bound_to 6896
  152.4416  134.5585  159.9939 H   0  0  0  0  0  0  0  0  0  0  0  0  # atno 6909 bound_to 6896
  146.2285  140.2439  142.8344 H   0  0  0  0  0  0  0  0  0  0  0  0  # atno 7974 bound_to 7965
  155.2112  140.0419  157.2933 H   0  0  0  0  0  0  0  0  0  0  0  0  # atno 8008 bound_to 7997
  154.6010  140.2452  155.7763 H   0  0  0  0  0  0  0  0  0  0  0  0  # atno 8009 bound_to 7997
  156.2321  140.2934  156.0225 H   0  0  0  0  0  0  0  0  0  0  0  0  # atno 8010 bound_to 7997
  140.1197  143.4454  152.1699 H   0  0  0  0  0  0  0  0  0  0  0  0  # atno 10167 bound_to 10162
  157.5595  130.8825  149.9088 H   0  0  0  0  0  0  0  0  0  0  0  0  # atno 10718 bound_to 10713
  153.1029  135.4804  154.8900 H   0  0  0  0  0  0  0  0  0  0  0  0  # atno 10763 bound_to 10752
  154.7399  135.3080  154.8749 H   0  0  0  0  0  0  0  0  0  0  0  0  # atno 10764 bound_to 10752
  153.9360  135.6839  153.4798 H   0  0  0  0  0  0  0  0  0  0  0  0  # atno 10765 bound_to 10752
  140.4194  134.6620  157.4656 H   0  0  0  0  0  0  0  0  0  0  0  0  # atno 11005 bound_to 11000
  144.9463  140.8132  143.5599 LP  0  0  0  0  0  0  0  0  0  0  0  0  # atno 17320 bound_to 7965
  145.2395  139.2079  143.5000 LP  0  0  0  0  0  0  0  0  0  0  0  0  # atno 17321 bound_to 7965
  139.5575  144.7383  151.4251 LP  0  0  0  0  0  0  0  0  0  0  0  0  # atno 17342 bound_to 10162
  140.6879  143.7931  150.7212 LP  0  0  0  0  0  0  0  0  0  0  0  0  # atno 17343 bound_to 10162
  156.0649  130.3694  150.0900 LP  0  0  0  0  0  0  0  0  0  0  0  0  # atno 17370 bound_to 10713
  156.9065  130.9637  151.3569 LP  0  0  0  0  0  0  0  0  0  0  0  0  # atno 17371 bound_to 10713
  140.0211  134.6546  155.9238 LP  0  0  0  0  0  0  0  0  0  0  0  0  # atno 17394 bound_to 11000
  141.1790  133.6544  156.4943 LP  0  0  0  0  0  0  0  0  0  0  0  0  # atno 17395 bound_to 11000

$$$$
