AV-unprocessed.smi:1244|AV-procd|sdf|5221|dock6
  -GOLD-   22720 4323D 1   1.00000     0.00000
 Structure written by MMmdl.
 54 56  0  0  0  0  0  0  0  0  1 V2000
  151.4053  145.2177  159.1777 C   0  0  0  0  0  0  0  0  0  0  0  0
  152.1752  144.1464  158.3865 C   0  0  2  0  0  0  0  0  0  0  0  0
  151.2582  143.1021  157.7187 C   0  0  0  0  0  0  0  0  0  0  0  0
  150.6809  142.1621  158.6739 N   0  0  0  0  0  0  0  0  0  0  0  0
  149.8212  141.1918  157.9976 C   0  0  0  0  0  0  0  0  0  0  0  0
  148.9405  141.7779  156.8773 C   0  0  0  0  0  0  0  0  0  0  0  0
  148.0619  142.8287  157.3772 N   0  0  0  0  0  0  0  0  0  0  0  0
  147.0824  142.6496  158.2746 C   0  0  0  0  0  0  0  0  0  0  0  0
  146.8283  141.5643  158.7973 O   0  0  0  0  0  0  0  0  0  0  0  0
  146.4153  143.7934  158.5028 N   0  0  0  0  0  0  0  0  0  0  0  0
  145.3063  144.0030  159.3707 C   0  0  0  0  0  0  0  0  0  0  0  0
  144.7396  142.9386  160.1139 C   0  0  0  0  0  0  0  0  0  0  0  0
  143.6347  143.1881  160.9456 C   0  0  0  0  0  0  0  0  0  0  0  0
  143.1342  144.4988  161.0086 C   0  0  0  0  0  0  0  0  0  0  0  0
  143.6736  145.5263  160.3233 N   0  0  0  0  0  0  0  0  0  0  0  0
  144.7498  145.3054  159.5283 C   0  0  0  0  0  0  0  0  0  0  0  0
  145.2793  146.4272  158.8491 N   0  0  0  0  0  0  0  0  0  0  0  0
  144.6015  146.9684  157.6756 C   0  0  0  0  0  0  0  0  0  0  0  0
  145.2180  148.3481  157.4638 C   0  0  0  0  0  0  0  0  0  0  0  0
  145.4612  148.8169  158.8949 C   0  0  0  0  0  0  0  0  0  0  0  0
  145.8189  147.5278  159.6422 C   0  0  0  0  0  0  0  0  0  0  0  0
  151.7597  141.5296  159.4269 C   0  0  0  0  0  0  0  0  0  0  0  0
  152.6450  142.5651  160.1441 C   0  0  1  0  0  0  0  0  0  0  0  0
  153.8324  141.9105  160.8581 C   0  0  0  0  0  0  0  0  0  0  0  0
  153.1585  143.4951  159.1923 O   0  0  0  0  0  0  0  0  0  0  0  0
  150.7452  145.7846  158.5208 H   0  0  0  0  0  0  0  0  0  0  0  0
  152.0918  145.9241  159.6451 H   0  0  0  0  0  0  0  0  0  0  0  0
  150.7870  144.7830  159.9629 H   0  0  0  0  0  0  0  0  0  0  0  0
  152.7212  144.6651  157.5979 H   0  0  0  0  0  0  0  0  0  0  0  0
  150.4654  143.6126  157.1704 H   0  0  0  0  0  0  0  0  0  0  0  0
  151.8377  142.5512  156.9763 H   0  0  0  0  0  0  0  0  0  0  0  0
  150.4525  140.4187  157.5575 H   0  0  0  0  0  0  0  0  0  0  0  0
  149.1925  140.6825  158.7296 H   0  0  0  0  0  0  0  0  0  0  0  0
  149.5541  142.2192  156.0930 H   0  0  0  0  0  0  0  0  0  0  0  0
  148.3484  140.9915  156.4062 H   0  0  0  0  0  0  0  0  0  0  0  0
  148.1987  143.7547  156.9994 H   0  0  0  0  0  0  0  0  0  0  0  0
  146.6627  144.5786  157.9188 H   0  0  0  0  0  0  0  0  0  0  0  0
  145.1396  141.9373  160.0641 H   0  0  0  0  0  0  0  0  0  0  0  0
  143.1814  142.3932  161.5192 H   0  0  0  0  0  0  0  0  0  0  0  0
  142.2834  144.7310  161.6318 H   0  0  0  0  0  0  0  0  0  0  0  0
  144.7363  146.3248  156.8058 H   0  0  0  0  0  0  0  0  0  0  0  0
  143.5320  147.0760  157.8612 H   0  0  0  0  0  0  0  0  0  0  0  0
  146.1676  148.2569  156.9342 H   0  0  0  0  0  0  0  0  0  0  0  0
  144.5732  149.0192  156.8957 H   0  0  0  0  0  0  0  0  0  0  0  0
  146.2373  149.5793  158.9684 H   0  0  0  0  0  0  0  0  0  0  0  0
  144.5400  149.2342  159.3035 H   0  0  0  0  0  0  0  0  0  0  0  0
  145.4258  147.5343  160.6598 H   0  0  0  0  0  0  0  0  0  0  0  0
  146.9025  147.4211  159.6970 H   0  0  0  0  0  0  0  0  0  0  0  0
  151.3514  140.8502  160.1740 H   0  0  0  0  0  0  0  0  0  0  0  0
  152.3725  140.9257  158.7560 H   0  0  0  0  0  0  0  0  0  0  0  0
  152.0511  143.0990  160.8866 H   0  0  0  0  0  0  0  0  0  0  0  0
  153.4939  141.1954  161.6082 H   0  0  0  0  0  0  0  0  0  0  0  0
  154.4427  142.6588  161.3642 H   0  0  0  0  0  0  0  0  0  0  0  0
  154.4729  141.3794  160.1533 H   0  0  0  0  0  0  0  0  0  0  0  0
  1  2  1  0  0  0  0
  1 26  1  0  0  0  0
  1 27  1  0  0  0  0
  1 28  1  0  0  0  0
  2 25  1  0  0  0  0
  2  3  1  0  0  0  0
  2 29  1  0  0  0  0
  3  4  1  0  0  0  0
  3 30  1  0  0  0  0
  3 31  1  0  0  0  0
  4  5  1  0  0  0  0
  4 22  1  0  0  0  0
  5  6  1  0  0  0  0
  5 32  1  0  0  0  0
  5 33  1  0  0  0  0
  6  7  1  0  0  0  0
  6 34  1  0  0  0  0
  6 35  1  0  0  0  0
  7  8  1  0  0  0  0
  7 36  1  0  0  0  0
  8  9  2  0  0  0  0
  8 10  1  0  0  0  0
 10 11  1  0  0  0  0
 10 37  1  0  0  0  0
 11 16  1  0  0  0  0
 11 12  2  0  0  0  0
 12 13  1  0  0  0  0
 12 38  1  0  0  0  0
 13 14  2  0  0  0  0
 13 39  1  0  0  0  0
 14 15  1  0  0  0  0
 14 40  1  0  0  0  0
 15 16  2  0  0  0  0
 16 17  1  0  0  0  0
 17 21  1  0  0  0  0
 17 18  1  0  0  0  0
 18 19  1  0  0  0  0
 18 41  1  0  0  0  0
 18 42  1  0  0  0  0
 19 20  1  0  0  0  0
 19 43  1  0  0  0  0
 19 44  1  0  0  0  0
 20 21  1  0  0  0  0
 20 45  1  0  0  0  0
 20 46  1  0  0  0  0
 21 47  1  0  0  0  0
 21 48  1  0  0  0  0
 22 23  1  0  0  0  0
 22 49  1  0  0  0  0
 22 50  1  0  0  0  0
 23 24  1  0  0  0  0
 23 25  1  0  0  0  0
 23 51  1  0  0  0  0
 24 52  1  0  0  0  0
 24 53  1  0  0  0  0
 24 54  1  0  0  0  0
M  END
> <s_m_source_file>
AV-unprocessed.smi

> <i_m_source_file_index>
1244

> <i_lp_mmshare_version>
43012

> <i_f3d_flags>
0

> <s_epik_input>
W0NIM11bQ0BASF0xW0NIMl1OKFtDSDJdW0NASF0oTzEpW0NIM10pW0NIMl1bQ0gyXVtOSF1DKD1PKVtOSF1jMltjSF1bY0hdW2NIXW5jMk4zW0NIMl1bQ0gyXVtDSDJdW0NIMl0z

> <s_epik_cmdline>
J2VwaWtfcHl0aG9uJywgJy1waCcsICc3LjAnLCAnLXRuJywgJzgnLCAnLW1hJywgJzIwMCcsICctbWV0YWxfYmluZGluZycsICctaW1hZScsICc8aW5maWxlLm1hZT4nLCAnLW9tYWUnLCAnPG91dGZpbGUubWFlPic=

> <r_lp_tautomer_probability>
1

> <r_epik_Ionization_Penalty>
0.363951

> <r_epik_Ionization_Penalty_Charging>
0

> <r_epik_Ionization_Penalty_Neutral>
0.363951

> <r_epik_State_Penalty>
0.349372

> <r_epik_Charging_Adjusted_Penalty>
0.349372

> <i_epik_Tot_Q>
0

> <i_epik_Tot_abs_Q>
0

> <r_epik_Metal_State_Penalty>
0.333054

> <b_epik_Metal_Only>
0

> <s_lp_Force_Field>
OPLS_2005

> <r_lp_Energy>
51.1959

> <b_lp_Chiralities_Consistent>
1

> <s_lp_Variant>
AV-unprocessed.smi:1244-1

> <Gold.Version>
5.8.1

> <Gold.Id.Protein>
6NUR|6NUR_protein|mol2

> <Gold.PLP.Fitness>
49.5692

> <Gold.PLP.PLP>
-44.0699

> <Gold.PLP.part.hbond>
-3.5252

> <Gold.PLP.part.metal>
0.0000

> <Gold.PLP.part.buried>
-8.0933

> <Gold.PLP.part.nonpolar>
-34.5150

> <Gold.PLP.part.repulsive>
2.0180

> <Gold.PLP.ligand.clash>
0.0000

> <Gold.PLP.ligand.torsion>
0.3948

> <Gold.PLP.Chemscore.Hbond>
1.9780

> <Gold.PLP.Chemscore.CHOScore>
0.0000

> <Gold.PLP.Chemscore.Metal>
0.0000

> <Gold.Chemscore.Hbonds>
donor molecule, donor type, donor heavy atom, donor atom, acceptor molecule, acceptor atom, score
      L1  H     7    36       P1  8028  0.28
      L1  H    10    37       P1  8029  1.00
      P1  H  6934  6946       L1     9  0.54

> <Gold.PLP.Chemscore.Internal.Correction>
0.3548

> <Gold.Rescore>
     Score         DG    S(hbond)    S(metal)    S(lipo)     H(rot)  DE(clash)    DE(int)     intcor
     17.35     -20.67       1.43        0.00     122.78       1.55       1.58       1.74       ----

> <Gold.Chemscore.Fitness>
17.3474

> <Gold.Chemscore.DG>
-20.6688

> <Gold.Chemscore.ZeroCoef>
-5.4800

> <Gold.Chemscore.Hbond>
1.4330

> <Gold.Chemscore.Metal>
0.0000

> <Gold.Chemscore.Lipo>
122.7802

> <Gold.Chemscore.Internal_Hbond>
0.0000

> <Gold.Chemscore.DEClash>
1.5842

> <Gold.Chemscore.DEInternal>
1.7372

> <Gold.Chemscore.Rot>
1.5479

> <Gold.Chemscore.Internal.Correction>
   9.000000E+99

> <Gold.Chemscore.Hbonds>
donor molecule, donor type, donor heavy atom, donor atom, acceptor molecule, acceptor atom, score
      L1  H    10    37       P1  8029  0.44
      P1  H  6934  6946       L1     9  0.51

> <Gold.Chemscore.Hbond.Weighted>
-4.7862

> <Gold.Chemscore.Metal.Weighted>
-0.0000

> <Gold.Chemscore.Lipo.Weighted>
-14.3653

> <Gold.Chemscore.Internal_Hbond.Weighted>
0.0000

> <Gold.Chemscore.DEClash.Weighted>
1.5842

> <Gold.Chemscore.DEInternal.Weighted>
1.7372

> <Gold.Chemscore.Rot.Weighted>
3.9627

> <Gold.Chemscore.Internal.Correction.Weighted>
   9.000000E+99

> <Gold.Protein.RotatedTorsions>
[ 6907 6896 6895 6894 ] final   52.05 input  -60.11 | X-H torsion
[ 7974 7965 7964 7962 ] final  -48.72 input  175.53 | X-H torsion
[ 8008 7997 7996 7995 ] final -124.26 input   59.86 | X-H torsion
[ 10167 10162 10161 10158 ] final  163.82 input  -65.29 | X-H torsion
[ 10718 10713 10712 10709 ] final -134.47 input   66.30 | X-H torsion
[ 10763 10752 10751 10750 ] final   73.11 input  -60.55 | X-H torsion
[ 11005 11000 10999 10996 ] final -138.19 input  -57.11 | X-H torsion

> <Gold.Protein.ActiveResidues>
 VAL166  LYS551  ARG553  GLY616  TRP617  ASP618  TYR619  PRO620  LYS621  CYS622 
 ASP623  PHE694  ASN695  SER759  ASP760  ASP761  ALA762  ILE779  LEU786  VAL792 
 PHE793  MET794  SER795  GLU796  ALA797  LYS798  CYS799  TRP800  GLU811  SER814 

> <Gold.Protein.RotatedAtoms>
  152.3192  134.7402  160.0317 H   0  0  0  0  0  0  0  0  0  0  0  0  # atno 6907 bound_to 6896
  151.7856  133.3348  159.3492 H   0  0  0  0  0  0  0  0  0  0  0  0  # atno 6908 bound_to 6896
  150.7360  134.5821  159.5988 H   0  0  0  0  0  0  0  0  0  0  0  0  # atno 6909 bound_to 6896
  145.9482  140.7597  142.9518 H   0  0  0  0  0  0  0  0  0  0  0  0  # atno 7974 bound_to 7965
  155.1939  140.0414  157.2905 H   0  0  0  0  0  0  0  0  0  0  0  0  # atno 8008 bound_to 7997
  154.6120  140.2479  155.7629 H   0  0  0  0  0  0  0  0  0  0  0  0  # atno 8009 bound_to 7997
  156.2384  140.2913  156.0387 H   0  0  0  0  0  0  0  0  0  0  0  0  # atno 8010 bound_to 7997
  139.4879  144.4298  151.9084 H   0  0  0  0  0  0  0  0  0  0  0  0  # atno 10167 bound_to 10162
  156.2558  130.7180  151.1096 H   0  0  0  0  0  0  0  0  0  0  0  0  # atno 10718 bound_to 10713
  153.0501  135.5075  154.7845 H   0  0  0  0  0  0  0  0  0  0  0  0  # atno 10763 bound_to 10752
  154.6714  135.2953  154.9739 H   0  0  0  0  0  0  0  0  0  0  0  0  # atno 10764 bound_to 10752
  154.0556  135.6698  153.4858 H   0  0  0  0  0  0  0  0  0  0  0  0  # atno 10765 bound_to 10752
  140.8640  134.2134  157.4691 H   0  0  0  0  0  0  0  0  0  0  0  0  # atno 11005 bound_to 11000
  144.6791  140.2391  143.7346 LP  0  0  0  0  0  0  0  0  0  0  0  0  # atno 17320 bound_to 7965
  145.8207  139.2042  143.1939 LP  0  0  0  0  0  0  0  0  0  0  0  0  # atno 17321 bound_to 7965
  140.3745  144.2813  150.5916 LP  0  0  0  0  0  0  0  0  0  0  0  0  # atno 17342 bound_to 10162
  140.5289  143.2248  151.8271 LP  0  0  0  0  0  0  0  0  0  0  0  0  # atno 17343 bound_to 10162
  157.7232  131.0668  150.6047 LP  0  0  0  0  0  0  0  0  0  0  0  0  # atno 17370 bound_to 10713
  156.6131  130.4385  149.5851 LP  0  0  0  0  0  0  0  0  0  0  0  0  # atno 17371 bound_to 10713
  139.8708  134.9743  156.4840 LP  0  0  0  0  0  0  0  0  0  0  0  0  # atno 17394 bound_to 11000
  140.8651  133.8031  155.9305 LP  0  0  0  0  0  0  0  0  0  0  0  0  # atno 17395 bound_to 11000

$$$$
