AV-unprocessed.smi:212|AV-procd|sdf|1617|dock8
  -GOLD-   2262019543D 1   1.00000     0.00000
 Structure written by MMmdl.
 65 68  0  0  0  0  0  0  0  0  2 V2000
  149.7313  132.4207  155.1545 C   0  0  0  0  0  0  0  0  0  0  0  0
  148.3571  132.9401  154.6896 C   0  0  2  0  0  0  0  0  0  0  0  0
  148.2542  133.0394  153.1538 C   0  0  0  0  0  0  0  0  0  0  0  0
  146.8962  133.4769  152.7413 N   0  3  2  0  0  0  0  0  0  0  0  0
  146.6997  133.4703  151.2672 C   0  0  0  0  0  0  0  0  0  0  0  0
  145.4718  132.6347  150.8359 C   0  0  0  0  0  0  0  0  0  0  0  0
  145.6709  131.1610  151.2272 C   0  0  0  0  0  0  0  0  0  0  0  0
  144.1588  133.1720  151.4350 C   0  0  0  0  0  0  0  0  0  0  0  0
  145.3636  132.6657  149.4265 O   0  0  0  0  0  0  0  0  0  0  0  0
  146.4966  134.7570  153.3813 C   0  0  0  0  0  0  0  0  0  0  0  0
  146.6364  134.6880  154.9158 C   0  0  0  0  0  0  0  0  0  0  0  0
  147.9485  134.1955  155.3284 N   0  0  0  0  0  0  0  0  0  0  0  0
  148.8909  135.1516  155.5052 C   0  0  0  0  0  0  0  0  0  0  0  0
  149.9234  135.2678  154.6304 N   0  0  0  0  0  0  0  0  0  0  0  0
  150.8561  136.2065  154.8194 C   0  0  0  0  0  0  0  0  0  0  0  0
  150.9446  137.1106  155.7978 N   0  0  0  0  0  0  0  0  0  0  0  0
  149.9085  136.9928  156.6772 C   0  0  0  0  0  0  0  0  0  0  0  0
  148.8470  136.0488  156.6039 C   0  0  0  0  0  0  0  0  0  0  0  0
  147.9754  136.2243  157.6705 N   0  0  0  0  0  0  0  0  0  0  0  0
  148.4926  137.2189  158.3395 C   0  0  0  0  0  0  0  0  0  0  0  0
  149.6508  137.7435  157.8109 N   0  0  0  0  0  0  0  0  0  0  0  0
  150.4303  138.8416  158.3565 C   0  0  0  0  0  0  0  0  0  0  0  0
  150.4872  140.0780  157.4242 C   0  0  2  0  0  0  0  0  0  0  0  0
  151.4299  139.8221  156.2198 C   0  0  0  0  0  0  0  0  0  0  0  0
  150.9460  140.4211  155.0363 O   0  0  0  0  0  0  0  0  0  0  0  0
  150.8920  141.3454  158.2274 C   0  0  2  0  0  0  0  0  0  0  0  0
  151.0130  142.6167  157.4021 C   0  0  0  0  0  0  0  0  0  0  0  0
  151.8282  143.5258  158.3146 C   0  0  0  0  0  0  0  0  0  0  0  0
  152.6826  142.6621  159.0535 O   0  0  0  0  0  0  0  0  0  0  0  0
  152.2874  141.3075  158.8622 C   0  0  0  0  0  0  0  0  0  0  0  0
  149.9323  131.4326  154.7401 H   0  0  0  0  0  0  0  0  0  0  0  0
  149.7718  132.3329  156.2407 H   0  0  0  0  0  0  0  0  0  0  0  0
  150.5437  133.0767  154.8396 H   0  0  0  0  0  0  0  0  0  0  0  0
  147.6251  132.1989  155.0139 H   0  0  0  0  0  0  0  0  0  0  0  0
  148.9990  133.7317  152.7584 H   0  0  0  0  0  0  0  0  0  0  0  0
  148.4646  132.0635  152.7142 H   0  0  0  0  0  0  0  0  0  0  0  0
  146.6179  134.4924  150.8933 H   0  0  0  0  0  0  0  0  0  0  0  0
  147.5841  133.0566  150.7796 H   0  0  0  0  0  0  0  0  0  0  0  0
  145.7624  131.0490  152.3080 H   0  0  0  0  0  0  0  0  0  0  0  0
  146.5740  130.7469  150.7770 H   0  0  0  0  0  0  0  0  0  0  0  0
  144.8312  130.5442  150.9043 H   0  0  0  0  0  0  0  0  0  0  0  0
  144.1969  133.1755  152.5249 H   0  0  0  0  0  0  0  0  0  0  0  0
  143.3074  132.5578  151.1388 H   0  0  0  0  0  0  0  0  0  0  0  0
  143.9499  134.1914  151.1096 H   0  0  0  0  0  0  0  0  0  0  0  0
  145.7125  133.4877  149.1150 H   0  0  0  0  0  0  0  0  0  0  0  0
  147.1084  135.5659  152.9806 H   0  0  0  0  0  0  0  0  0  0  0  0
  145.4648  134.9953  153.1231 H   0  0  0  0  0  0  0  0  0  0  0  0
  146.4418  135.6667  155.3570 H   0  0  0  0  0  0  0  0  0  0  0  0
  145.8816  134.0133  155.3216 H   0  0  0  0  0  0  0  0  0  0  0  0
  151.6453  136.2367  154.0827 H   0  0  0  0  0  0  0  0  0  0  0  0
  148.0399  137.6020  159.2427 H   0  0  0  0  0  0  0  0  0  0  0  0
  149.9830  139.0983  159.3162 H   0  0  0  0  0  0  0  0  0  0  0  0
  151.4390  138.4869  158.5715 H   0  0  0  0  0  0  0  0  0  0  0  0
  149.4791  140.2307  157.0348 H   0  0  0  0  0  0  0  0  0  0  0  0
  152.4354  140.1878  156.4307 H   0  0  0  0  0  0  0  0  0  0  0  0
  151.5246  138.7593  156.0020 H   0  0  0  0  0  0  0  0  0  0  0  0
  150.0658  140.7280  155.1924 H   0  0  0  0  0  0  0  0  0  0  0  0
  150.1588  141.5207  159.0164 H   0  0  0  0  0  0  0  0  0  0  0  0
  151.5629  142.4215  156.4800 H   0  0  0  0  0  0  0  0  0  0  0  0
  150.0507  143.0575  157.1405 H   0  0  0  0  0  0  0  0  0  0  0  0
  152.3968  144.2722  157.7598 H   0  0  0  0  0  0  0  0  0  0  0  0
  151.1743  144.0479  159.0141 H   0  0  0  0  0  0  0  0  0  0  0  0
  152.3019  140.7650  159.8078 H   0  0  0  0  0  0  0  0  0  0  0  0
  153.0057  140.8363  158.1898 H   0  0  0  0  0  0  0  0  0  0  0  0
  146.2651  132.7759  153.1023 H   0  0  0  0  0  0  0  0  0  0  0  0
  1  2  1  0  0  0  0
  1 31  1  0  0  0  0
  1 32  1  0  0  0  0
  1 33  1  0  0  0  0
  2 12  1  0  0  0  0
  2  3  1  0  0  0  0
  2 34  1  0  0  0  0
  3  4  1  0  0  0  0
  3 35  1  0  0  0  0
  3 36  1  0  0  0  0
  4  5  1  0  0  0  0
  4 10  1  0  0  0  0
  4 65  1  0  0  0  0
  5  6  1  0  0  0  0
  5 37  1  0  0  0  0
  5 38  1  0  0  0  0
  6  7  1  0  0  0  0
  6  8  1  0  0  0  0
  6  9  1  0  0  0  0
  7 39  1  0  0  0  0
  7 40  1  0  0  0  0
  7 41  1  0  0  0  0
  8 42  1  0  0  0  0
  8 43  1  0  0  0  0
  8 44  1  0  0  0  0
  9 45  1  0  0  0  0
 10 11  1  0  0  0  0
 10 46  1  0  0  0  0
 10 47  1  0  0  0  0
 11 12  1  0  0  0  0
 11 48  1  0  0  0  0
 11 49  1  0  0  0  0
 12 13  1  0  0  0  0
 13 18  1  0  0  0  0
 13 14  2  0  0  0  0
 14 15  1  0  0  0  0
 15 16  2  0  0  0  0
 15 50  1  0  0  0  0
 16 17  1  0  0  0  0
 17 21  1  0  0  0  0
 17 18  2  0  0  0  0
 18 19  1  0  0  0  0
 19 20  2  0  0  0  0
 20 21  1  0  0  0  0
 20 51  1  0  0  0  0
 21 22  1  0  0  0  0
 22 23  1  0  0  0  0
 22 52  1  0  0  0  0
 22 53  1  0  0  0  0
 23 24  1  0  0  0  0
 23 26  1  0  0  0  0
 23 54  1  0  0  0  0
 24 25  1  0  0  0  0
 24 55  1  0  0  0  0
 24 56  1  0  0  0  0
 25 57  1  0  0  0  0
 26 30  1  0  0  0  0
 26 27  1  0  0  0  0
 26 58  1  0  0  0  0
 27 28  1  0  0  0  0
 27 59  1  0  0  0  0
 27 60  1  0  0  0  0
 28 29  1  0  0  0  0
 28 61  1  0  0  0  0
 28 62  1  0  0  0  0
 29 30  1  0  0  0  0
 30 63  1  0  0  0  0
 30 64  1  0  0  0  0
M  CHG  1   4   1
M  END
> <s_m_source_file>
AV-unprocessed.smi

> <i_m_source_file_index>
212

> <i_lp_mmshare_version>
43012

> <i_f3d_flags>
0

> <s_epik_input>
W0NIM11bQ0BASF0xW0NIMl1OKFtDSDJdQyhbQ0gzXSkoW0NIM10pW09IXSlbQ0gyXVtDSDJdTjFjKG5bY0hdbjIpYyhjMjMpbltjSF1uM1tDSDJdW0NASF0oW0NIMl1bT0hdKVtDQEBIXTRbQ0gyXVtDSDJdT1tDSDJdNA==

> <s_epik_cmdline>
J2VwaWtfcHl0aG9uJywgJy1waCcsICc3LjAnLCAnLXRuJywgJzgnLCAnLW1hJywgJzIwMCcsICctbWV0YWxfYmluZGluZycsICctaW1hZScsICc8aW5maWxlLm1hZT4nLCAnLW9tYWUnLCAnPG91dGZpbGUubWFlPic=

> <r_lp_tautomer_probability>
1

> <r_epik_Ionization_Penalty>
0.00182193

> <r_epik_Ionization_Penalty_Charging>
0.00173996

> <r_epik_Ionization_Penalty_Neutral>
8.19718e-05

> <r_epik_State_Penalty>
-0

> <r_epik_Charging_Adjusted_Penalty>
0.00173996

> <i_epik_Tot_Q>
1

> <i_epik_Tot_abs_Q>
1

> <r_epik_Metal_State_Penalty>
-0

> <b_epik_Metal_Only>
0

> <s_lp_Force_Field>
OPLS_2005

> <r_lp_Energy>
60.482

> <b_lp_Chiralities_Consistent>
1

> <s_lp_Variant>
AV-unprocessed.smi:212-1

> <Gold.Version>
5.8.1

> <Gold.Id.Protein>
6NUR|6NUR_protein|mol2

> <Gold.PLP.Fitness>
46.0223

> <Gold.PLP.PLP>
-39.9724

> <Gold.PLP.part.hbond>
-2.0000

> <Gold.PLP.part.metal>
0.0000

> <Gold.PLP.part.buried>
-5.9657

> <Gold.PLP.part.nonpolar>
-32.6674

> <Gold.PLP.part.repulsive>
1.2832

> <Gold.PLP.ligand.clash>
0.0000

> <Gold.PLP.ligand.torsion>
1.8063

> <Gold.PLP.Chemscore.Hbond>
2.0000

> <Gold.PLP.Chemscore.CHOScore>
0.8598

> <Gold.PLP.Chemscore.Metal>
0.0000

> <Gold.Chemscore.Hbonds>
donor molecule, donor type, donor heavy atom, donor atom, acceptor molecule, acceptor atom, score
      L1  H     9    45       P1  7921  0.80
      P1  H  7989  7998       L1    25  1.00
      L1  C    15    50       P1  7949  0.62

> <Gold.PLP.Chemscore.Internal.Correction>
1.0831

> <Gold.Rescore>
     Score         DG    S(hbond)    S(metal)    S(lipo)     H(rot)  DE(clash)    DE(int)     intcor
      7.96     -13.34       1.82        0.00      95.71       3.68       0.76       4.62       ----

> <Gold.Chemscore.Fitness>
7.9567

> <Gold.Chemscore.DG>
-13.3409

> <Gold.Chemscore.ZeroCoef>
-5.4800

> <Gold.Chemscore.Hbond>
1.8224

> <Gold.Chemscore.Metal>
0.0000

> <Gold.Chemscore.Lipo>
95.7101

> <Gold.Chemscore.Internal_Hbond>
0.0000

> <Gold.Chemscore.DEClash>
0.7635

> <Gold.Chemscore.DEInternal>
4.6207

> <Gold.Chemscore.Rot>
3.6812

> <Gold.Chemscore.Internal.Correction>
   9.000000E+99

> <Gold.Chemscore.Hbonds>
donor molecule, donor type, donor heavy atom, donor atom, acceptor molecule, acceptor atom, score
      L1  H     9    45       P1  7921  0.11
      P1  H  7989  7998       L1    25  0.88

> <Gold.Chemscore.Hbond.Weighted>
-6.0867

> <Gold.Chemscore.Metal.Weighted>
-0.0000

> <Gold.Chemscore.Lipo.Weighted>
-11.1981

> <Gold.Chemscore.Internal_Hbond.Weighted>
0.0000

> <Gold.Chemscore.DEClash.Weighted>
0.7635

> <Gold.Chemscore.DEInternal.Weighted>
4.6207

> <Gold.Chemscore.Rot.Weighted>
9.4239

> <Gold.Chemscore.Internal.Correction.Weighted>
   9.000000E+99

> <Gold.Protein.RotatedTorsions>
[ 6907 6896 6895 6894 ] final  151.81 input  -60.11 | X-H torsion
[ 7974 7965 7964 7962 ] final -146.38 input  175.53 | X-H torsion
[ 8008 7997 7996 7995 ] final  -12.31 input   59.86 | X-H torsion
[ 10167 10162 10161 10158 ] final   93.09 input  -65.29 | X-H torsion
[ 10718 10713 10712 10709 ] final  106.86 input   66.30 | X-H torsion
[ 10763 10752 10751 10750 ] final  113.49 input  -60.55 | X-H torsion
[ 11005 11000 10999 10996 ] final  -31.08 input  -57.11 | X-H torsion

> <Gold.Protein.ActiveResidues>
 VAL166  LYS551  ARG553  GLY616  TRP617  ASP618  TYR619  PRO620  LYS621  CYS622 
 ASP623  PHE694  ASN695  SER759  ASP760  ASP761  ALA762  ILE779  LEU786  VAL792 
 PHE793  MET794  SER795  GLU796  ALA797  LYS798  CYS799  TRP800  GLU811  SER814 

> <Gold.Protein.RotatedAtoms>
  152.0954  133.4222  159.4562 H   0  0  0  0  0  0  0  0  0  0  0  0  # atno 6907 bound_to 6896
  150.6863  134.2823  159.4641 H   0  0  0  0  0  0  0  0  0  0  0  0  # atno 6908 bound_to 6896
  152.0678  134.9553  160.0625 H   0  0  0  0  0  0  0  0  0  0  0  0  # atno 6909 bound_to 6896
  144.8163  140.5463  143.5608 H   0  0  0  0  0  0  0  0  0  0  0  0  # atno 7974 bound_to 7965
  154.5388  140.2279  155.8676 H   0  0  0  0  0  0  0  0  0  0  0  0  # atno 8008 bound_to 7997
  156.1838  140.3094  155.9162 H   0  0  0  0  0  0  0  0  0  0  0  0  # atno 8009 bound_to 7997
  155.3299  140.0445  157.3033 H   0  0  0  0  0  0  0  0  0  0  0  0  # atno 8010 bound_to 7997
  139.8213  144.6730  150.9515 H   0  0  0  0  0  0  0  0  0  0  0  0  # atno 10167 bound_to 10162
  157.6652  131.0860  150.6070 H   0  0  0  0  0  0  0  0  0  0  0  0  # atno 10718 bound_to 10713
  153.4933  135.3654  155.2503 H   0  0  0  0  0  0  0  0  0  0  0  0  # atno 10763 bound_to 10752
  154.8751  135.3982  154.3563 H   0  0  0  0  0  0  0  0  0  0  0  0  # atno 10764 bound_to 10752
  153.4187  135.7079  153.6375 H   0  0  0  0  0  0  0  0  0  0  0  0  # atno 10765 bound_to 10752
  140.9437  133.7263  156.1115 H   0  0  0  0  0  0  0  0  0  0  0  0  # atno 11005 bound_to 11000
  145.5206  139.1477  143.3554 LP  0  0  0  0  0  0  0  0  0  0  0  0  # atno 17320 bound_to 7965
  146.2466  140.5347  142.8911 LP  0  0  0  0  0  0  0  0  0  0  0  0  # atno 17321 bound_to 7965
  140.7813  143.4089  151.1026 LP  0  0  0  0  0  0  0  0  0  0  0  0  # atno 17342 bound_to 10162
  139.7749  143.8440  152.3127 LP  0  0  0  0  0  0  0  0  0  0  0  0  # atno 17343 bound_to 10162
  156.6371  130.4448  149.5766 LP  0  0  0  0  0  0  0  0  0  0  0  0  # atno 17370 bound_to 10713
  156.2238  130.6753  151.1395 LP  0  0  0  0  0  0  0  0  0  0  0  0  # atno 17371 bound_to 10713
  140.7698  134.3845  157.5510 LP  0  0  0  0  0  0  0  0  0  0  0  0  # atno 17394 bound_to 11000
  139.8827  134.9015  156.2812 LP  0  0  0  0  0  0  0  0  0  0  0  0  # atno 17395 bound_to 11000

$$$$
