AV-unprocessed.smi:283|AV-procd|sdf|2139|dock5
  -GOLD-   2262021463D 1   1.00000     0.00000
 Structure written by MMmdl.
 48 51  0  0  0  0  0  0  0  0  1 V2000
  149.6106  141.4058  157.1670 C   0  0  0  0  0  0  0  0  0  0  0  0
  151.1092  141.7574  157.1429 C   0  0  2  0  0  0  0  0  0  0  0  0
  151.9224  140.5835  156.8270 N   0  0  0  0  0  0  0  0  0  0  0  0
  151.4864  139.6201  155.9853 C   0  0  0  0  0  0  0  0  0  0  0  0
  150.8053  139.9265  154.8502 N   0  0  0  0  0  0  0  0  0  0  0  0
  150.3934  138.9525  154.0335 C   0  0  0  0  0  0  0  0  0  0  0  0
  150.5566  137.6340  154.1597 N   0  0  0  0  0  0  0  0  0  0  0  0
  151.2441  137.3198  155.2967 C   0  0  0  0  0  0  0  0  0  0  0  0
  151.7399  138.2498  156.2523 C   0  0  0  0  0  0  0  0  0  0  0  0
  152.3911  137.5723  157.2751 N   0  0  0  0  0  0  0  0  0  0  0  0
  152.2859  136.3148  156.9381 C   0  0  0  0  0  0  0  0  0  0  0  0
  151.6138  136.0725  155.7609 N   0  0  0  0  0  0  0  0  0  0  0  0
  151.3426  134.7449  155.1251 C   0  0  1  0  0  0  0  0  0  0  0  0
  151.7445  133.7323  155.9877 O   0  0  0  0  0  0  0  0  0  0  0  0
  150.9703  132.5650  155.7330 C   0  0  1  0  0  0  0  0  0  0  0  0
  150.6276  131.8911  157.0740 C   0  0  0  0  0  0  0  0  0  0  0  0
  149.9779  132.7803  157.9583 O   0  0  0  0  0  0  0  0  0  0  0  0
  149.7657  132.9895  154.8649 C   0  0  2  0  0  0  0  0  0  0  0  0
  149.9176  132.4627  153.5604 O   0  0  0  0  0  0  0  0  0  0  0  0
  149.8570  134.5099  154.8173 C   0  0  1  0  0  0  0  0  0  0  0  0
  148.9822  135.1023  155.7600 O   0  0  0  0  0  0  0  0  0  0  0  0
  151.5125  142.4128  158.4631 C   0  0  0  0  0  0  0  0  0  0  0  0
  151.0368  143.7063  158.7844 C   0  0  0  0  0  0  0  0  0  0  0  0
  151.4024  144.3268  159.9937 C   0  0  0  0  0  0  0  0  0  0  0  0
  152.2547  143.6636  160.8945 C   0  0  0  0  0  0  0  0  0  0  0  0
  152.7448  142.3828  160.5804 C   0  0  0  0  0  0  0  0  0  0  0  0
  152.3828  141.7565  159.3707 C   0  0  0  0  0  0  0  0  0  0  0  0
  153.0313  140.1894  159.0327 Cl  0  0  0  0  0  0  0  0  0  0  0  0
  151.9645  134.7225  154.2289 H   0  0  0  0  0  0  0  0  0  0  0  0
  151.6143  131.8840  155.1735 H   0  0  0  0  0  0  0  0  0  0  0  0
  148.8090  132.6418  155.2574 H   0  0  0  0  0  0  0  0  0  0  0  0
  149.6181  134.9211  153.8355 H   0  0  0  0  0  0  0  0  0  0  0  0
  149.0048  142.2926  157.3555 H   0  0  0  0  0  0  0  0  0  0  0  0
  149.3878  140.6800  157.9498 H   0  0  0  0  0  0  0  0  0  0  0  0
  149.2768  140.9822  156.2198 H   0  0  0  0  0  0  0  0  0  0  0  0
  151.2837  142.4840  156.3504 H   0  0  0  0  0  0  0  0  0  0  0  0
  152.7965  140.5134  157.3277 H   0  0  0  0  0  0  0  0  0  0  0  0
  149.8580  139.2755  153.1529 H   0  0  0  0  0  0  0  0  0  0  0  0
  152.7021  135.5222  157.5430 H   0  0  0  0  0  0  0  0  0  0  0  0
  149.9614  131.0454  156.9021 H   0  0  0  0  0  0  0  0  0  0  0  0
  151.5273  131.4978  157.5480 H   0  0  0  0  0  0  0  0  0  0  0  0
  149.4003  132.2792  158.5149 H   0  0  0  0  0  0  0  0  0  0  0  0
  149.5528  133.0792  152.9440 H   0  0  0  0  0  0  0  0  0  0  0  0
  148.1109  135.1122  155.3940 H   0  0  0  0  0  0  0  0  0  0  0  0
  150.3888  144.2372  158.1027 H   0  0  0  0  0  0  0  0  0  0  0  0
  151.0302  145.3132  160.2288 H   0  0  0  0  0  0  0  0  0  0  0  0
  152.5366  144.1387  161.8226 H   0  0  0  0  0  0  0  0  0  0  0  0
  153.4048  141.8793  161.2715 H   0  0  0  0  0  0  0  0  0  0  0  0
  1  2  1  0  0  0  0
  1 33  1  0  0  0  0
  1 34  1  0  0  0  0
  1 35  1  0  0  0  0
  2  3  1  0  0  0  0
  2 22  1  0  0  0  0
  2 36  1  0  0  0  0
  3  4  1  0  0  0  0
  3 37  1  0  0  0  0
  4  9  1  0  0  0  0
  4  5  2  0  0  0  0
  5  6  1  0  0  0  0
  6  7  2  0  0  0  0
  6 38  1  0  0  0  0
  7  8  1  0  0  0  0
  8 12  1  0  0  0  0
  8  9  2  0  0  0  0
  9 10  1  0  0  0  0
 10 11  2  0  0  0  0
 11 12  1  0  0  0  0
 11 39  1  0  0  0  0
 12 13  1  0  0  0  0
 13 29  1  0  0  0  0
 13 20  1  0  0  0  0
 13 14  1  0  0  0  0
 14 15  1  0  0  0  0
 15 30  1  0  0  0  0
 15 16  1  0  0  0  0
 15 18  1  0  0  0  0
 16 17  1  0  0  0  0
 16 40  1  0  0  0  0
 16 41  1  0  0  0  0
 17 42  1  0  0  0  0
 18 31  1  0  0  0  0
 18 19  1  0  0  0  0
 18 20  1  0  0  0  0
 19 43  1  0  0  0  0
 20 32  1  0  0  0  0
 20 21  1  0  0  0  0
 21 44  1  0  0  0  0
 22 27  1  0  0  0  0
 22 23  2  0  0  0  0
 23 24  1  0  0  0  0
 23 45  1  0  0  0  0
 24 25  2  0  0  0  0
 24 46  1  0  0  0  0
 25 26  1  0  0  0  0
 25 47  1  0  0  0  0
 26 27  2  0  0  0  0
 26 48  1  0  0  0  0
 27 28  1  0  0  0  0
M  END
> <s_m_source_file>
AV-unprocessed.smi

> <i_m_source_file_index>
283

> <i_lp_mmshare_version>
43012

> <i_f3d_flags>
0

> <s_epik_input>
Q2xjMVtjSF1bY0hdW2NIXVtjSF1jMVtDQEhdKFtDSDNdKVtOSF1jKG5bY0hdbjIpYyhjMjMpbltjSF1uM1tDQEBIXTRPW0NASF0oW0NIMl1bT0hdKVtDQEBIXShbT0hdKVtDQEhdNFtPSF0=

> <s_epik_cmdline>
J2VwaWtfcHl0aG9uJywgJy1waCcsICc3LjAnLCAnLXRuJywgJzgnLCAnLW1hJywgJzIwMCcsICctbWV0YWxfYmluZGluZycsICctaW1hZScsICc8aW5maWxlLm1hZT4nLCAnLW9tYWUnLCAnPG91dGZpbGUubWFlPic=

> <r_lp_tautomer_probability>
1

> <r_epik_Ionization_Penalty>
0.000266407

> <r_epik_Ionization_Penalty_Charging>
0

> <r_epik_Ionization_Penalty_Neutral>
0.000266407

> <r_epik_State_Penalty>
-0

> <r_epik_Charging_Adjusted_Penalty>
0

> <i_epik_Tot_Q>
0

> <i_epik_Tot_abs_Q>
0

> <r_epik_Metal_State_Penalty>
-0

> <b_epik_Metal_Only>
0

> <s_epik_Chemistry_Notes>
This compound contains an acetal/aminal-like group ( X-CH(R)-Y where X, Y are N, S, or O) that may be acid/base labile, releasing an aldehyde.

> <s_lp_Force_Field>
OPLS_2005

> <r_lp_Energy>
48.6958

> <b_lp_Chiralities_Consistent>
1

> <s_lp_Variant>
AV-unprocessed.smi:283-15

> <Gold.Version>
5.8.1

> <Gold.Id.Protein>
6NUR|6NUR_protein|mol2

> <Gold.PLP.Fitness>
50.6412

> <Gold.PLP.PLP>
-43.4254

> <Gold.PLP.part.hbond>
-2.1862

> <Gold.PLP.part.metal>
0.0000

> <Gold.PLP.part.buried>
-6.1805

> <Gold.PLP.part.nonpolar>
-36.0852

> <Gold.PLP.part.repulsive>
0.4324

> <Gold.PLP.ligand.clash>
0.0000

> <Gold.PLP.ligand.torsion>
0.9556

> <Gold.PLP.Chemscore.Hbond>
2.0000

> <Gold.PLP.Chemscore.CHOScore>
1.0000

> <Gold.PLP.Chemscore.Metal>
0.0000

> <Gold.Chemscore.Hbonds>
donor molecule, donor type, donor heavy atom, donor atom, acceptor molecule, acceptor atom, score
      P1  H  6896  6908       L1    17  0.72
      P1  H  7989  7998       L1     5  0.70
      L1  C     6    38       P1  7957  1.00

> <Gold.PLP.Chemscore.Internal.Correction>
0.1270

> <Gold.Rescore>
     Score         DG    S(hbond)    S(metal)    S(lipo)     H(rot)  DE(clash)    DE(int)     intcor
      7.42     -10.42       1.05        0.00     101.87       4.10       0.12       2.87       ----

> <Gold.Chemscore.Fitness>
7.4250

> <Gold.Chemscore.DG>
-10.4190

> <Gold.Chemscore.ZeroCoef>
-5.4800

> <Gold.Chemscore.Hbond>
1.0505

> <Gold.Chemscore.Metal>
0.0000

> <Gold.Chemscore.Lipo>
101.8665

> <Gold.Chemscore.Internal_Hbond>
0.0000

> <Gold.Chemscore.DEClash>
0.1247

> <Gold.Chemscore.DEInternal>
2.8693

> <Gold.Chemscore.Rot>
4.0968

> <Gold.Chemscore.Internal.Correction>
   9.000000E+99

> <Gold.Chemscore.Hbonds>
donor molecule, donor type, donor heavy atom, donor atom, acceptor molecule, acceptor atom, score
      P1  H  6896  6908       L1    17  0.14
      P1  H  7989  7998       L1     5  0.07

> <Gold.Chemscore.Hbond.Weighted>
-3.5086

> <Gold.Chemscore.Metal.Weighted>
-0.0000

> <Gold.Chemscore.Lipo.Weighted>
-11.9184

> <Gold.Chemscore.Internal_Hbond.Weighted>
0.0000

> <Gold.Chemscore.DEClash.Weighted>
0.1247

> <Gold.Chemscore.DEInternal.Weighted>
2.8693

> <Gold.Chemscore.Rot.Weighted>
10.4879

> <Gold.Chemscore.Internal.Correction.Weighted>
   9.000000E+99

> <Gold.Protein.RotatedTorsions>
[ 6907 6896 6895 6894 ] final  134.05 input  -60.11 | X-H torsion
[ 7974 7965 7964 7962 ] final  -82.01 input  175.53 | X-H torsion
[ 8008 7997 7996 7995 ] final   50.35 input   59.86 | X-H torsion
[ 10167 10162 10161 10158 ] final  137.87 input  -65.29 | X-H torsion
[ 10718 10713 10712 10709 ] final -132.55 input   66.30 | X-H torsion
[ 10763 10752 10751 10750 ] final   75.33 input  -60.55 | X-H torsion
[ 11005 11000 10999 10996 ] final  -58.11 input  -57.11 | X-H torsion

> <Gold.Protein.ActiveResidues>
 VAL166  LYS551  ARG553  GLY616  TRP617  ASP618  TYR619  PRO620  LYS621  CYS622 
 ASP623  PHE694  ASN695  SER759  ASP760  ASP761  ALA762  ILE779  LEU786  VAL792 
 PHE793  MET794  SER795  GLU796  ALA797  LYS798  CYS799  TRP800  GLU811  SER814 

> <Gold.Protein.RotatedAtoms>
  152.3154  133.5797  159.5708 H   0  0  0  0  0  0  0  0  0  0  0  0  # atno 6907 bound_to 6896
  150.7344  134.0090  159.3672 H   0  0  0  0  0  0  0  0  0  0  0  0  # atno 6908 bound_to 6896
  151.7979  135.0718  160.0447 H   0  0  0  0  0  0  0  0  0  0  0  0  # atno 6909 bound_to 6896
  145.5390  140.9512  143.1561 H   0  0  0  0  0  0  0  0  0  0  0  0  # atno 7974 bound_to 7965
  155.4172  140.3445  155.4268 H   0  0  0  0  0  0  0  0  0  0  0  0  # atno 8008 bound_to 7997
  156.1414  140.1543  156.8946 H   0  0  0  0  0  0  0  0  0  0  0  0  # atno 8009 bound_to 7997
  154.4974  140.0824  156.7706 H   0  0  0  0  0  0  0  0  0  0  0  0  # atno 8010 bound_to 7997
  139.5130  144.6386  151.5631 H   0  0  0  0  0  0  0  0  0  0  0  0  # atno 10167 bound_to 10162
  156.2358  130.7065  151.0906 H   0  0  0  0  0  0  0  0  0  0  0  0  # atno 10718 bound_to 10713
  153.0647  135.4992  154.8174 H   0  0  0  0  0  0  0  0  0  0  0  0  # atno 10763 bound_to 10752
  154.6936  135.2989  154.9446 H   0  0  0  0  0  0  0  0  0  0  0  0  # atno 10764 bound_to 10752
  154.0193  135.6744  153.4824 H   0  0  0  0  0  0  0  0  0  0  0  0  # atno 10765 bound_to 10752
  141.1193  133.6611  156.4871 H   0  0  0  0  0  0  0  0  0  0  0  0  # atno 11005 bound_to 11000
  144.7587  139.7011  143.7243 LP  0  0  0  0  0  0  0  0  0  0  0  0  # atno 17320 bound_to 7965
  146.1994  139.5279  142.9753 LP  0  0  0  0  0  0  0  0  0  0  0  0  # atno 17321 bound_to 7965
  140.6144  143.9377  150.6477 LP  0  0  0  0  0  0  0  0  0  0  0  0  # atno 17342 bound_to 10162
  140.2630  143.3510  152.1306 LP  0  0  0  0  0  0  0  0  0  0  0  0  # atno 17343 bound_to 10162
  157.7153  131.0713  150.6348 LP  0  0  0  0  0  0  0  0  0  0  0  0  # atno 17370 bound_to 10713
  156.6418  130.4460  149.5749 LP  0  0  0  0  0  0  0  0  0  0  0  0  # atno 17371 bound_to 10713
  140.4553  134.6891  157.5059 LP  0  0  0  0  0  0  0  0  0  0  0  0  # atno 17394 bound_to 11000
  140.0139  134.6649  155.9339 LP  0  0  0  0  0  0  0  0  0  0  0  0  # atno 17395 bound_to 11000

$$$$
