AV-unprocessed.smi:2881|AV-procd|sdf|11065|dock6
  -GOLD-   2272015533D 1   1.00000     0.00000
 Structure written by MMmdl.
 40 42  0  0  0  0  0  0  0  0  1 V2000
  154.1680  141.2353  161.2331 C   0  0  0  0  0  0  0  0  0  0  0  0
  153.2287  141.2980  160.0650 C   0  0  0  0  0  0  0  0  0  0  0  0
  152.6739  142.4548  159.4432 C   0  0  0  0  0  0  0  0  0  0  0  0
  151.8962  141.9576  158.4348 C   0  0  0  0  0  0  0  0  0  0  0  0
  151.0509  142.6434  157.4093 C   0  0  0  0  0  0  0  0  0  0  0  0
  150.6531  141.6769  156.2937 C   0  0  0  0  0  0  0  0  0  0  0  0
  151.3171  140.6604  156.0920 O   0  0  0  0  0  0  0  0  0  0  0  0
  149.5681  142.0058  155.5764 N   0  0  0  0  0  0  0  0  0  0  0  0
  149.0013  141.2013  154.4971 C   0  0  2  0  0  0  0  0  0  0  0  0
  147.7738  141.8518  153.8100 C   0  0  2  0  0  0  0  0  0  0  0  0
  146.7122  142.2886  154.8422 C   0  0  0  0  0  0  0  0  0  0  0  0
  146.1631  140.9423  155.3497 C   0  0  0  0  0  0  0  0  0  0  0  0
  146.9623  139.9144  154.5245 C   0  0  1  0  0  0  0  0  0  0  0  0
  147.0956  140.6373  153.1890 C   0  0  0  0  0  0  0  0  0  0  0  0
  148.4209  139.8671  155.0360 C   0  0  1  0  0  0  0  0  0  0  0  0
  149.1896  138.6243  154.5478 C   0  0  0  0  0  0  0  0  0  0  0  0
  149.5133  138.7616  153.1801 O   0  0  0  0  0  0  0  0  0  0  0  0
  152.0127  140.5874  158.5025 N   0  0  0  0  0  0  0  0  0  0  0  0
  152.8235  140.1736  159.4938 N   0  0  0  0  0  0  0  0  0  0  0  0
  151.5514  139.9316  157.8882 H   0  0  0  0  0  0  0  0  0  0  0  0
  154.5290  142.2283  161.5016 H   0  0  0  0  0  0  0  0  0  0  0  0
  155.0375  140.6175  161.0072 H   0  0  0  0  0  0  0  0  0  0  0  0
  153.6758  140.8128  162.1093 H   0  0  0  0  0  0  0  0  0  0  0  0
  152.8277  143.4935  159.6963 H   0  0  0  0  0  0  0  0  0  0  0  0
  151.5972  143.4855  156.9829 H   0  0  0  0  0  0  0  0  0  0  0  0
  150.1513  143.0564  157.8676 H   0  0  0  0  0  0  0  0  0  0  0  0
  149.0805  142.8576  155.8133 H   0  0  0  0  0  0  0  0  0  0  0  0
  149.7734  141.0041  153.7505 H   0  0  0  0  0  0  0  0  0  0  0  0
  148.0375  142.6368  153.1003 H   0  0  0  0  0  0  0  0  0  0  0  0
  147.1129  142.9086  155.6439 H   0  0  0  0  0  0  0  0  0  0  0  0
  145.9207  142.8602  154.3558 H   0  0  0  0  0  0  0  0  0  0  0  0
  146.3011  140.8134  156.4238 H   0  0  0  0  0  0  0  0  0  0  0  0
  145.0957  140.8630  155.1400 H   0  0  0  0  0  0  0  0  0  0  0  0
  146.4803  138.9377  154.4732 H   0  0  0  0  0  0  0  0  0  0  0  0
  146.1354  140.8672  152.7233 H   0  0  0  0  0  0  0  0  0  0  0  0
  147.7227  140.1132  152.4663 H   0  0  0  0  0  0  0  0  0  0  0  0
  148.4126  139.8493  156.1277 H   0  0  0  0  0  0  0  0  0  0  0  0
  150.1171  138.5080  155.1088 H   0  0  0  0  0  0  0  0  0  0  0  0
  148.6095  137.7125  154.6911 H   0  0  0  0  0  0  0  0  0  0  0  0
  149.3985  137.9240  152.7577 H   0  0  0  0  0  0  0  0  0  0  0  0
  1 21  1  0  0  0  0
  1 22  1  0  0  0  0
  1 23  1  0  0  0  0
  1  2  1  0  0  0  0
  2 19  2  0  0  0  0
  2  3  1  0  0  0  0
  3  4  2  0  0  0  0
  3 24  1  0  0  0  0
  4 18  1  0  0  0  0
  4  5  1  0  0  0  0
  5  6  1  0  0  0  0
  5 25  1  0  0  0  0
  5 26  1  0  0  0  0
  6  7  2  0  0  0  0
  6  8  1  0  0  0  0
  8  9  1  0  0  0  0
  8 27  1  0  0  0  0
  9 15  1  0  0  0  0
  9 10  1  0  0  0  0
  9 28  1  0  0  0  0
 10 14  1  0  0  0  0
 10 11  1  0  0  0  0
 10 29  1  0  0  0  0
 11 12  1  0  0  0  0
 11 30  1  0  0  0  0
 11 31  1  0  0  0  0
 12 13  1  0  0  0  0
 12 32  1  0  0  0  0
 12 33  1  0  0  0  0
 13 14  1  0  0  0  0
 13 15  1  0  0  0  0
 13 34  1  0  0  0  0
 14 35  1  0  0  0  0
 14 36  1  0  0  0  0
 15 16  1  0  0  0  0
 15 37  1  0  0  0  0
 16 17  1  0  0  0  0
 16 38  1  0  0  0  0
 16 39  1  0  0  0  0
 17 40  1  0  0  0  0
 18 19  1  0  0  0  0
 18 20  1  0  0  0  0
M  END
> <s_m_source_file>
AV-unprocessed.smi

> <i_m_source_file_index>
2881

> <i_lp_mmshare_version>
43012

> <i_f3d_flags>
0

> <s_epik_input>
W0NIM11jMVtjSF1jKG5bbkhdMSlbQ0gyXUMoPU8pW05IXVtDQEhdKFtDQEBIXTIzKVtDQEhdKFtDSDJdW09IXSlbQ0BASF0oW0NIMl0zKVtDSDJdW0NIMl0y

> <s_epik_cmdline>
J2VwaWtfcHl0aG9uJywgJy1waCcsICc3LjAnLCAnLXRuJywgJzgnLCAnLW1hJywgJzIwMCcsICctbWV0YWxfYmluZGluZycsICctaW1hZScsICc8aW5maWxlLm1hZT4nLCAnLW9tYWUnLCAnPG91dGZpbGUubWFlPic=

> <r_lp_tautomer_probability>
0.5

> <r_epik_Ionization_Penalty>
0.00013396

> <r_epik_Ionization_Penalty_Charging>
0

> <r_epik_Ionization_Penalty_Neutral>
0.00013396

> <r_epik_State_Penalty>
0.41068

> <r_epik_Charging_Adjusted_Penalty>
0.41068

> <i_epik_Tot_Q>
0

> <i_epik_Tot_abs_Q>
0

> <r_epik_Metal_State_Penalty>
0.41066

> <b_epik_Metal_Only>
0

> <s_lp_Force_Field>
OPLS_2005

> <r_lp_Energy>
46.7591

> <b_lp_Chiralities_Consistent>
1

> <s_lp_Variant>
AV-unprocessed.smi:2881-11

> <Gold.Version>
5.8.1

> <Gold.Id.Protein>
6NUR|6NUR_protein|mol2

> <Gold.PLP.Fitness>
43.1276

> <Gold.PLP.PLP>
-38.3502

> <Gold.PLP.part.hbond>
-2.7612

> <Gold.PLP.part.metal>
0.0000

> <Gold.PLP.part.buried>
-5.3505

> <Gold.PLP.part.nonpolar>
-29.8094

> <Gold.PLP.part.repulsive>
0.2832

> <Gold.PLP.ligand.clash>
0.0000

> <Gold.PLP.ligand.torsion>
0.6252

> <Gold.PLP.Chemscore.Hbond>
2.0000

> <Gold.PLP.Chemscore.CHOScore>
0.0000

> <Gold.PLP.Chemscore.Metal>
0.0000

> <Gold.Chemscore.Hbonds>
donor molecule, donor type, donor heavy atom, donor atom, acceptor molecule, acceptor atom, score
      L1  H     8    27       P1  8028  1.00
      L1  H    17    40       P1  7948  1.00

> <Gold.PLP.Chemscore.Internal.Correction>
0.0277

> <Gold.Rescore>
     Score         DG    S(hbond)    S(metal)    S(lipo)     H(rot)  DE(clash)    DE(int)     intcor
     16.46     -17.20       1.99        0.00      93.26       2.28       0.14       0.60       ----

> <Gold.Chemscore.Fitness>
16.4601

> <Gold.Chemscore.DG>
-17.1969

> <Gold.Chemscore.ZeroCoef>
-5.4800

> <Gold.Chemscore.Hbond>
1.9851

> <Gold.Chemscore.Metal>
0.0000

> <Gold.Chemscore.Lipo>
93.2634

> <Gold.Chemscore.Internal_Hbond>
0.0000

> <Gold.Chemscore.DEClash>
0.1392

> <Gold.Chemscore.DEInternal>
0.5977

> <Gold.Chemscore.Rot>
2.2755

> <Gold.Chemscore.Internal.Correction>
   9.000000E+99

> <Gold.Chemscore.Hbonds>
donor molecule, donor type, donor heavy atom, donor atom, acceptor molecule, acceptor atom, score
      L1  H     8    27       P1  8028  0.94
      L1  H    17    40       P1  7948  0.88

> <Gold.Chemscore.Hbond.Weighted>
-6.6303

> <Gold.Chemscore.Metal.Weighted>
-0.0000

> <Gold.Chemscore.Lipo.Weighted>
-10.9118

> <Gold.Chemscore.Internal_Hbond.Weighted>
0.0000

> <Gold.Chemscore.DEClash.Weighted>
0.1392

> <Gold.Chemscore.DEInternal.Weighted>
0.5977

> <Gold.Chemscore.Rot.Weighted>
5.8252

> <Gold.Chemscore.Internal.Correction.Weighted>
   9.000000E+99

> <Gold.Protein.RotatedTorsions>
[ 6907 6896 6895 6894 ] final -143.62 input  -60.11 | X-H torsion
[ 7974 7965 7964 7962 ] final  -28.84 input  175.53 | X-H torsion
[ 8008 7997 7996 7995 ] final  178.98 input   59.86 | X-H torsion
[ 10167 10162 10161 10158 ] final  -22.22 input  -65.29 | X-H torsion
[ 10718 10713 10712 10709 ] final  -17.34 input   66.30 | X-H torsion
[ 10763 10752 10751 10750 ] final -178.11 input  -60.55 | X-H torsion
[ 11005 11000 10999 10996 ] final -150.96 input  -57.11 | X-H torsion

> <Gold.Protein.ActiveResidues>
 VAL166  LYS551  ARG553  GLY616  TRP617  ASP618  TYR619  PRO620  LYS621  CYS622 
 ASP623  PHE694  ASN695  SER759  ASP760  ASP761  ALA762  ILE779  LEU786  VAL792 
 PHE793  MET794  SER795  GLU796  ALA797  LYS798  CYS799  TRP800  GLU811  SER814 

> <Gold.Protein.RotatedAtoms>
  151.1030  133.5229  159.2608 H   0  0  0  0  0  0  0  0  0  0  0  0  # atno 6907 bound_to 6896
  151.2053  135.0458  159.8899 H   0  0  0  0  0  0  0  0  0  0  0  0  # atno 6908 bound_to 6896
  152.5444  134.0853  159.8306 H   0  0  0  0  0  0  0  0  0  0  0  0  # atno 6909 bound_to 6896
  146.1259  140.5335  142.8714 H   0  0  0  0  0  0  0  0  0  0  0  0  # atno 7974 bound_to 7965
  156.0485  140.1320  157.0076 H   0  0  0  0  0  0  0  0  0  0  0  0  # atno 8008 bound_to 7997
  154.4424  140.1015  156.6412 H   0  0  0  0  0  0  0  0  0  0  0  0  # atno 8009 bound_to 7997
  155.5559  140.3464  155.4482 H   0  0  0  0  0  0  0  0  0  0  0  0  # atno 8010 bound_to 7997
  140.7285  143.4555  151.0454 H   0  0  0  0  0  0  0  0  0  0  0  0  # atno 10167 bound_to 10162
  156.5750  130.4759  149.6346 H   0  0  0  0  0  0  0  0  0  0  0  0  # atno 10718 bound_to 10713
  154.5517  135.2813  155.1002 H   0  0  0  0  0  0  0  0  0  0  0  0  # atno 10763 bound_to 10752
  154.2445  135.6351  153.5222 H   0  0  0  0  0  0  0  0  0  0  0  0  # atno 10764 bound_to 10752
  153.0005  135.5568  154.6085 H   0  0  0  0  0  0  0  0  0  0  0  0  # atno 10765 bound_to 10752
  140.7347  134.3582  157.5160 H   0  0  0  0  0  0  0  0  0  0  0  0  # atno 11005 bound_to 11000
  144.7642  140.5492  143.6714 LP  0  0  0  0  0  0  0  0  0  0  0  0  # atno 17320 bound_to 7965
  145.5366  139.1475  143.3470 LP  0  0  0  0  0  0  0  0  0  0  0  0  # atno 17321 bound_to 7965
  139.8235  143.7787  152.3178 LP  0  0  0  0  0  0  0  0  0  0  0  0  # atno 17342 bound_to 10162
  139.7878  144.7421  150.9997 LP  0  0  0  0  0  0  0  0  0  0  0  0  # atno 17343 bound_to 10162
  156.2681  130.7001  151.1790 LP  0  0  0  0  0  0  0  0  0  0  0  0  # atno 17370 bound_to 10713
  157.7339  131.0586  150.5549 LP  0  0  0  0  0  0  0  0  0  0  0  0  # atno 17371 bound_to 10713
  139.8819  134.9041  156.2871 LP  0  0  0  0  0  0  0  0  0  0  0  0  # atno 17394 bound_to 11000
  140.9890  133.7220  156.0785 LP  0  0  0  0  0  0  0  0  0  0  0  0  # atno 17395 bound_to 11000

$$$$
