AV-unprocessed.smi:2691|AV-procd|sdf|10391|dock5
  -GOLD-   2272014423D 1   1.00000     0.00000
 Structure written by MMmdl.
 49 51  0  0  0  0  0  0  0  0  1 V2000
  149.2588  129.9221  154.5442 C   0  0  0  0  0  0  0  0  0  0  0  0
  149.4223  131.4057  154.8235 C   0  0  0  0  0  0  0  0  0  0  0  0
  149.9621  131.8161  156.0634 C   0  0  0  0  0  0  0  0  0  0  0  0
  150.1318  133.1858  156.3617 C   0  0  0  0  0  0  0  0  0  0  0  0
  150.6327  133.8042  157.4949 N   0  0  0  0  0  0  0  0  0  0  0  0
  150.5337  135.0887  157.1646 C   0  0  0  0  0  0  0  0  0  0  0  0
  150.0277  135.3756  155.9499 N   0  0  0  0  0  0  0  0  0  0  0  0
  149.8302  136.6901  155.3665 C   0  0  0  0  0  0  0  0  0  0  0  0
  151.1325  137.5119  155.3112 C   0  0  1  0  0  0  0  0  0  0  0  0
  152.0463  136.8442  154.4621 O   0  0  0  0  0  0  0  0  0  0  0  0
  150.8883  138.9325  154.7578 C   0  0  0  0  0  0  0  0  0  0  0  0
  150.9651  139.9573  155.8111 N   0  0  0  0  0  0  0  0  0  0  0  0
  149.9625  140.9451  155.7992 C   0  0  0  0  0  0  0  0  0  0  0  0
  149.9242  141.8878  156.6861 N   0  0  0  0  0  0  0  0  0  0  0  0
  150.9024  141.9427  157.6871 C   0  0  0  0  0  0  0  0  0  0  0  0
  150.8151  143.0745  158.7032 C   0  0  0  0  0  0  0  0  0  0  0  0
  150.9364  144.4443  158.0186 C   0  0  0  0  0  0  0  0  0  0  0  0
  151.8471  142.9142  159.8317 C   0  0  0  0  0  0  0  0  0  0  0  0
  151.8984  141.0258  157.7271 C   0  0  0  0  0  0  0  0  0  0  0  0
  151.9677  139.9506  156.7375 C   0  0  0  0  0  0  0  0  0  0  0  0
  152.8620  139.1039  156.7387 O   0  0  0  0  0  0  0  0  0  0  0  0
  149.7452  134.1409  155.3769 C   0  0  0  0  0  0  0  0  0  0  0  0
  149.2070  133.7457  154.1395 C   0  0  0  0  0  0  0  0  0  0  0  0
  149.0412  132.3733  153.8591 C   0  0  0  0  0  0  0  0  0  0  0  0
  148.4556  131.9565  152.5215 C   0  0  0  0  0  0  0  0  0  0  0  0
  149.6499  129.3176  155.3631 H   0  0  0  0  0  0  0  0  0  0  0  0
  149.7948  129.6414  153.6373 H   0  0  0  0  0  0  0  0  0  0  0  0
  148.2054  129.6720  154.4166 H   0  0  0  0  0  0  0  0  0  0  0  0
  150.2517  131.0798  156.7985 H   0  0  0  0  0  0  0  0  0  0  0  0
  150.8464  135.8669  157.8455 H   0  0  0  0  0  0  0  0  0  0  0  0
  149.4049  136.5743  154.3683 H   0  0  0  0  0  0  0  0  0  0  0  0
  149.0825  137.2109  155.9660 H   0  0  0  0  0  0  0  0  0  0  0  0
  151.5609  137.5613  156.3132 H   0  0  0  0  0  0  0  0  0  0  0  0
  151.6447  136.7346  153.6138 H   0  0  0  0  0  0  0  0  0  0  0  0
  151.5621  139.1440  153.9248 H   0  0  0  0  0  0  0  0  0  0  0  0
  149.8930  138.9821  154.3122 H   0  0  0  0  0  0  0  0  0  0  0  0
  149.2297  140.8601  154.9949 H   0  0  0  0  0  0  0  0  0  0  0  0
  149.8274  143.0287  159.1643 H   0  0  0  0  0  0  0  0  0  0  0  0
  150.1842  144.5608  157.2379 H   0  0  0  0  0  0  0  0  0  0  0  0
  151.9165  144.5754  157.5587 H   0  0  0  0  0  0  0  0  0  0  0  0
  150.7954  145.2539  158.7350 H   0  0  0  0  0  0  0  0  0  0  0  0
  151.7464  141.9443  160.3198 H   0  0  0  0  0  0  0  0  0  0  0  0
  151.7134  143.6817  160.5946 H   0  0  0  0  0  0  0  0  0  0  0  0
  152.8687  142.9961  159.4589 H   0  0  0  0  0  0  0  0  0  0  0  0
  152.6540  141.0785  158.4975 H   0  0  0  0  0  0  0  0  0  0  0  0
  148.9221  134.4939  153.4141 H   0  0  0  0  0  0  0  0  0  0  0  0
  148.1509  132.8228  151.9336 H   0  0  0  0  0  0  0  0  0  0  0  0
  147.5772  131.3270  152.6662 H   0  0  0  0  0  0  0  0  0  0  0  0
  149.1909  131.3983  151.9416 H   0  0  0  0  0  0  0  0  0  0  0  0
  1  2  1  0  0  0  0
  1 26  1  0  0  0  0
  1 27  1  0  0  0  0
  1 28  1  0  0  0  0
  2 24  1  0  0  0  0
  2  3  2  0  0  0  0
  3  4  1  0  0  0  0
  3 29  1  0  0  0  0
  4 22  2  0  0  0  0
  4  5  1  0  0  0  0
  5  6  2  0  0  0  0
  6  7  1  0  0  0  0
  6 30  1  0  0  0  0
  7  8  1  0  0  0  0
  7 22  1  0  0  0  0
  8  9  1  0  0  0  0
  8 31  1  0  0  0  0
  8 32  1  0  0  0  0
  9 10  1  0  0  0  0
  9 11  1  0  0  0  0
  9 33  1  0  0  0  0
 10 34  1  0  0  0  0
 11 12  1  0  0  0  0
 11 35  1  0  0  0  0
 11 36  1  0  0  0  0
 12 20  1  0  0  0  0
 12 13  1  0  0  0  0
 13 14  2  0  0  0  0
 13 37  1  0  0  0  0
 14 15  1  0  0  0  0
 15 16  1  0  0  0  0
 15 19  2  0  0  0  0
 16 17  1  0  0  0  0
 16 18  1  0  0  0  0
 16 38  1  0  0  0  0
 17 39  1  0  0  0  0
 17 40  1  0  0  0  0
 17 41  1  0  0  0  0
 18 42  1  0  0  0  0
 18 43  1  0  0  0  0
 18 44  1  0  0  0  0
 19 20  1  0  0  0  0
 19 45  1  0  0  0  0
 20 21  2  0  0  0  0
 22 23  1  0  0  0  0
 23 24  2  0  0  0  0
 23 46  1  0  0  0  0
 24 25  1  0  0  0  0
 25 47  1  0  0  0  0
 25 48  1  0  0  0  0
 25 49  1  0  0  0  0
M  END
> <s_m_source_file>
AV-unprocessed.smi

> <i_m_source_file_index>
2691

> <i_lp_mmshare_version>
43012

> <i_f3d_flags>
0

> <s_epik_input>
W0NIM11jKFtjSF0xKWMoW0NIM10pW2NIXWMoYzEyKW4oW2NIXW4yKVtDSDJdW0NASF0oW09IXSlbQ0gyXW4zW2NIXW5jKFtDSF0oW0NIM10pW0NIM10pW2NIXWMzPU8=

> <s_epik_cmdline>
J2VwaWtfcHl0aG9uJywgJy1waCcsICc3LjAnLCAnLXRuJywgJzgnLCAnLW1hJywgJzIwMCcsICctbWV0YWxfYmluZGluZycsICctaW1hZScsICc8aW5maWxlLm1hZT4nLCAnLW9tYWUnLCAnPG91dGZpbGUubWFlPic=

> <r_lp_tautomer_probability>
1

> <r_epik_Ionization_Penalty>
0.113357

> <r_epik_Ionization_Penalty_Charging>
3.84185e-08

> <r_epik_Ionization_Penalty_Neutral>
0.113357

> <r_epik_State_Penalty>
0.103025

> <r_epik_Charging_Adjusted_Penalty>
0.103025

> <i_epik_Tot_Q>
0

> <i_epik_Tot_abs_Q>
0

> <r_epik_Metal_State_Penalty>
0.0863451

> <b_epik_Metal_Only>
0

> <s_lp_Force_Field>
OPLS_2005

> <r_lp_Energy>
17.2292

> <b_lp_Chiralities_Consistent>
1

> <s_lp_Variant>
AV-unprocessed.smi:2691-2

> <Gold.Version>
5.8.1

> <Gold.Id.Protein>
6NUR|6NUR_protein|mol2

> <Gold.PLP.Fitness>
55.0640

> <Gold.PLP.PLP>
-46.2020

> <Gold.PLP.part.hbond>
-4.0000

> <Gold.PLP.part.metal>
0.0000

> <Gold.PLP.part.buried>
-1.3334

> <Gold.PLP.part.nonpolar>
-41.5474

> <Gold.PLP.part.repulsive>
0.1139

> <Gold.PLP.ligand.clash>
0.0000

> <Gold.PLP.ligand.torsion>
0.9297

> <Gold.PLP.Chemscore.Hbond>
3.5472

> <Gold.PLP.Chemscore.CHOScore>
0.0000

> <Gold.PLP.Chemscore.Metal>
0.0000

> <Gold.Chemscore.Hbonds>
donor molecule, donor type, donor heavy atom, donor atom, acceptor molecule, acceptor atom, score
      L1  H    10    34       P1  7949  0.32
      P1  H  6896  6909       L1     5  0.74
      P1  H  7997  8010       L1    21  1.00
      P1  H 10752 10763       L1    10  0.72

> <Gold.PLP.Chemscore.Internal.Correction>
0.0799

> <Gold.Rescore>
     Score         DG    S(hbond)    S(metal)    S(lipo)     H(rot)  DE(clash)    DE(int)     intcor
     18.09     -21.33       3.26        0.00      95.92       2.45       1.48       1.76       ----

> <Gold.Chemscore.Fitness>
18.0864

> <Gold.Chemscore.DG>
-21.3255

> <Gold.Chemscore.ZeroCoef>
-5.4800

> <Gold.Chemscore.Hbond>
3.2645

> <Gold.Chemscore.Metal>
0.0000

> <Gold.Chemscore.Lipo>
95.9248

> <Gold.Chemscore.Internal_Hbond>
0.0000

> <Gold.Chemscore.DEClash>
1.4759

> <Gold.Chemscore.DEInternal>
1.7633

> <Gold.Chemscore.Rot>
2.4536

> <Gold.Chemscore.Internal.Correction>
   9.000000E+99

> <Gold.Chemscore.Hbonds>
donor molecule, donor type, donor heavy atom, donor atom, acceptor molecule, acceptor atom, score
      L1  H    10    34       P1  7949  0.31
      P1  H  6896  6909       L1     5  0.45
      P1  H  7997  8010       L1    21  0.40
      P1  H 10752 10763       L1    10  0.10

> <Gold.Chemscore.Hbond.Weighted>
-10.9036

> <Gold.Chemscore.Metal.Weighted>
-0.0000

> <Gold.Chemscore.Lipo.Weighted>
-11.2232

> <Gold.Chemscore.Internal_Hbond.Weighted>
0.0000

> <Gold.Chemscore.DEClash.Weighted>
1.4759

> <Gold.Chemscore.DEInternal.Weighted>
1.7633

> <Gold.Chemscore.Rot.Weighted>
6.2812

> <Gold.Chemscore.Internal.Correction.Weighted>
   9.000000E+99

> <Gold.Protein.RotatedTorsions>
[ 6907 6896 6895 6894 ] final   -4.07 input  -60.11 | X-H torsion
[ 7974 7965 7964 7962 ] final  -72.19 input  175.53 | X-H torsion
[ 8008 7997 7996 7995 ] final   66.82 input   59.86 | X-H torsion
[ 10167 10162 10161 10158 ] final   12.29 input  -65.29 | X-H torsion
[ 10718 10713 10712 10709 ] final   -4.51 input   66.30 | X-H torsion
[ 10763 10752 10751 10750 ] final   46.84 input  -60.55 | X-H torsion
[ 11005 11000 10999 10996 ] final  120.51 input  -57.11 | X-H torsion

> <Gold.Protein.ActiveResidues>
 VAL166  LYS551  ARG553  GLY616  TRP617  ASP618  TYR619  PRO620  LYS621  CYS622 
 ASP623  PHE694  ASN695  SER759  ASP760  ASP761  ALA762  ILE779  LEU786  VAL792 
 PHE793  MET794  SER795  GLU796  ALA797  LYS798  CYS799  TRP800  GLU811  SER814 

> <Gold.Protein.RotatedAtoms>
  151.5036  135.1062  159.9835 H   0  0  0  0  0  0  0  0  0  0  0  0  # atno 6907 bound_to 6896
  152.4691  133.7986  159.6951 H   0  0  0  0  0  0  0  0  0  0  0  0  # atno 6908 bound_to 6896
  150.8691  133.7468  159.2993 H   0  0  0  0  0  0  0  0  0  0  0  0  # atno 6909 bound_to 6896
  145.6683  140.9230  143.0897 H   0  0  0  0  0  0  0  0  0  0  0  0  # atno 7974 bound_to 7965
  155.6833  140.3496  155.4864 H   0  0  0  0  0  0  0  0  0  0  0  0  # atno 8008 bound_to 7997
  155.9588  140.1133  157.0936 H   0  0  0  0  0  0  0  0  0  0  0  0  # atno 8009 bound_to 7997
  154.4138  140.1180  156.5137 H   0  0  0  0  0  0  0  0  0  0  0  0  # atno 8010 bound_to 7997
  140.6077  143.8473  150.7032 H   0  0  0  0  0  0  0  0  0  0  0  0  # atno 10167 bound_to 10162
  156.7603  130.5267  149.5786 H   0  0  0  0  0  0  0  0  0  0  0  0  # atno 10718 bound_to 10713
  152.9806  135.5995  154.3665 H   0  0  0  0  0  0  0  0  0  0  0  0  # atno 10763 bound_to 10752
  154.3342  135.2768  155.2458 H   0  0  0  0  0  0  0  0  0  0  0  0  # atno 10764 bound_to 10752
  154.4568  135.5976  153.6284 H   0  0  0  0  0  0  0  0  0  0  0  0  # atno 10765 bound_to 10752
  139.9188  134.9635  156.7818 H   0  0  0  0  0  0  0  0  0  0  0  0  # atno 11005 bound_to 11000
  144.7065  139.8539  143.7428 LP  0  0  0  0  0  0  0  0  0  0  0  0  # atno 17320 bound_to 7965
  146.1067  139.4068  143.0313 LP  0  0  0  0  0  0  0  0  0  0  0  0  # atno 17321 bound_to 7965
  140.2034  143.3941  152.1774 LP  0  0  0  0  0  0  0  0  0  0  0  0  # atno 17342 bound_to 10162
  139.5337  144.7187  151.4965 LP  0  0  0  0  0  0  0  0  0  0  0  0  # atno 17343 bound_to 10162
  156.1343  130.6200  151.0379 LP  0  0  0  0  0  0  0  0  0  0  0  0  # atno 17370 bound_to 10713
  157.6738  131.0855  150.7547 LP  0  0  0  0  0  0  0  0  0  0  0  0  # atno 17371 bound_to 10713
  140.6538  133.9707  155.7769 LP  0  0  0  0  0  0  0  0  0  0  0  0  # atno 17394 bound_to 11000
  141.0690  134.0234  157.3553 LP  0  0  0  0  0  0  0  0  0  0  0  0  # atno 17395 bound_to 11000

$$$$
