AV-unprocessed.smi:2881|AV-procd|sdf|11062|dock10
  -GOLD-   2272015533D 1   1.00000     0.00000
 Structure written by MMmdl.
 40 42  0  0  0  0  0  0  0  0  1 V2000
  146.8876  139.4016  153.5827 C   0  0  0  0  0  0  0  0  0  0  0  0
  148.2711  139.5147  154.1265 C   0  0  0  0  0  0  0  0  0  0  0  0
  148.7399  139.5357  155.4096 C   0  0  0  0  0  0  0  0  0  0  0  0
  150.1541  139.6567  155.2677 C   0  0  0  0  0  0  0  0  0  0  0  0
  151.1908  139.7194  156.3568 C   0  0  0  0  0  0  0  0  0  0  0  0
  150.7747  140.7389  157.4171 C   0  0  0  0  0  0  0  0  0  0  0  0
  149.5881  141.0355  157.5549 O   0  0  0  0  0  0  0  0  0  0  0  0
  151.7604  141.2653  158.1599 N   0  0  0  0  0  0  0  0  0  0  0  0
  151.5763  142.2371  159.2342 C   0  0  1  0  0  0  0  0  0  0  0  0
  152.9310  142.5794  159.8927 C   0  0  2  0  0  0  0  0  0  0  0  0
  152.6641  143.2624  161.2461 C   0  0  0  0  0  0  0  0  0  0  0  0
  152.1503  144.6510  160.8221 C   0  0  0  0  0  0  0  0  0  0  0  0
  152.1757  144.5747  159.2801 C   0  0  1  0  0  0  0  0  0  0  0  0
  153.4354  143.7488  159.0516 C   0  0  0  0  0  0  0  0  0  0  0  0
  151.0903  143.6186  158.7248 C   0  0  2  0  0  0  0  0  0  0  0  0
  149.6334  143.9509  159.1032 C   0  0  0  0  0  0  0  0  0  0  0  0
  149.4438  145.3489  159.1575 O   0  0  0  0  0  0  0  0  0  0  0  0
  150.5302  139.7144  153.9973 N   0  0  0  0  0  0  0  0  0  0  0  0
  149.3749  139.6249  153.3128 N   0  0  0  0  0  0  0  0  0  0  0  0
  149.3545  139.6398  152.3029 H   0  0  0  0  0  0  0  0  0  0  0  0
  146.1800  139.1396  154.3698 H   0  0  0  0  0  0  0  0  0  0  0  0
  146.8336  138.6314  152.8131 H   0  0  0  0  0  0  0  0  0  0  0  0
  146.5669  140.3455  153.1416 H   0  0  0  0  0  0  0  0  0  0  0  0
  148.1607  139.4689  156.3187 H   0  0  0  0  0  0  0  0  0  0  0  0
  151.3322  138.7431  156.8231 H   0  0  0  0  0  0  0  0  0  0  0  0
  152.1576  140.0061  155.9415 H   0  0  0  0  0  0  0  0  0  0  0  0
  152.7054  140.9588  157.9786 H   0  0  0  0  0  0  0  0  0  0  0  0
  150.8960  141.8169  159.9776 H   0  0  0  0  0  0  0  0  0  0  0  0
  153.6160  141.7338  159.9673 H   0  0  0  0  0  0  0  0  0  0  0  0
  151.9415  142.7173  161.8542 H   0  0  0  0  0  0  0  0  0  0  0  0
  153.5843  143.3554  161.8241 H   0  0  0  0  0  0  0  0  0  0  0  0
  151.1670  144.8815  161.2293 H   0  0  0  0  0  0  0  0  0  0  0  0
  152.8322  145.4264  161.1740 H   0  0  0  0  0  0  0  0  0  0  0  0
  152.1828  145.5517  158.7962 H   0  0  0  0  0  0  0  0  0  0  0  0
  154.3383  144.2131  159.4528 H   0  0  0  0  0  0  0  0  0  0  0  0
  153.6033  143.4913  158.0042 H   0  0  0  0  0  0  0  0  0  0  0  0
  151.1598  143.6441  157.6352 H   0  0  0  0  0  0  0  0  0  0  0  0
  148.9543  143.5453  158.3536 H   0  0  0  0  0  0  0  0  0  0  0  0
  149.3455  143.5048  160.0544 H   0  0  0  0  0  0  0  0  0  0  0  0
  149.1878  145.6503  158.2992 H   0  0  0  0  0  0  0  0  0  0  0  0
  1  2  1  0  0  0  0
  1 21  1  0  0  0  0
  1 22  1  0  0  0  0
  1 23  1  0  0  0  0
  2 19  1  0  0  0  0
  2  3  2  0  0  0  0
  3  4  1  0  0  0  0
  3 24  1  0  0  0  0
  4  5  1  0  0  0  0
  4 18  2  0  0  0  0
  5  6  1  0  0  0  0
  5 25  1  0  0  0  0
  5 26  1  0  0  0  0
  6  7  2  0  0  0  0
  6  8  1  0  0  0  0
  8  9  1  0  0  0  0
  8 27  1  0  0  0  0
  9 15  1  0  0  0  0
  9 10  1  0  0  0  0
  9 28  1  0  0  0  0
 10 14  1  0  0  0  0
 10 11  1  0  0  0  0
 10 29  1  0  0  0  0
 11 12  1  0  0  0  0
 11 30  1  0  0  0  0
 11 31  1  0  0  0  0
 12 13  1  0  0  0  0
 12 32  1  0  0  0  0
 12 33  1  0  0  0  0
 13 14  1  0  0  0  0
 13 15  1  0  0  0  0
 13 34  1  0  0  0  0
 14 35  1  0  0  0  0
 14 36  1  0  0  0  0
 15 16  1  0  0  0  0
 15 37  1  0  0  0  0
 16 17  1  0  0  0  0
 16 38  1  0  0  0  0
 16 39  1  0  0  0  0
 17 40  1  0  0  0  0
 18 19  1  0  0  0  0
 19 20  1  0  0  0  0
M  END
> <s_m_source_file>
AV-unprocessed.smi

> <i_m_source_file_index>
2881

> <i_lp_mmshare_version>
43012

> <i_f3d_flags>
0

> <s_epik_input>
W0NIM11jMVtjSF1jKG5bbkhdMSlbQ0gyXUMoPU8pW05IXVtDQEhdKFtDQEBIXTIzKVtDQEhdKFtDSDJdW09IXSlbQ0BASF0oW0NIMl0zKVtDSDJdW0NIMl0y

> <s_epik_cmdline>
J2VwaWtfcHl0aG9uJywgJy1waCcsICc3LjAnLCAnLXRuJywgJzgnLCAnLW1hJywgJzIwMCcsICctbWV0YWxfYmluZGluZycsICctaW1hZScsICc8aW5maWxlLm1hZT4nLCAnLW9tYWUnLCAnPG91dGZpbGUubWFlPic=

> <r_lp_tautomer_probability>
0.5

> <r_epik_Ionization_Penalty>
9.4349e-05

> <r_epik_Ionization_Penalty_Charging>
0

> <r_epik_Ionization_Penalty_Neutral>
9.4349e-05

> <r_epik_State_Penalty>
0.41068

> <r_epik_Charging_Adjusted_Penalty>
0.41068

> <i_epik_Tot_Q>
0

> <i_epik_Tot_abs_Q>
0

> <r_epik_Metal_State_Penalty>
0.4107

> <b_epik_Metal_Only>
0

> <s_lp_Force_Field>
OPLS_2005

> <r_lp_Energy>
47.6032

> <b_lp_Chiralities_Consistent>
1

> <s_lp_Variant>
AV-unprocessed.smi:2881-8

> <Gold.Version>
5.8.1

> <Gold.Id.Protein>
6NUR|6NUR_protein|mol2

> <Gold.PLP.Fitness>
41.9299

> <Gold.PLP.PLP>
-34.7293

> <Gold.PLP.part.hbond>
-2.9810

> <Gold.PLP.part.metal>
0.0000

> <Gold.PLP.part.buried>
-6.8388

> <Gold.PLP.part.nonpolar>
-24.6325

> <Gold.PLP.part.repulsive>
0.7757

> <Gold.PLP.ligand.clash>
0.0000

> <Gold.PLP.ligand.torsion>
0.7733

> <Gold.PLP.Chemscore.Hbond>
2.9040

> <Gold.PLP.Chemscore.CHOScore>
0.0000

> <Gold.PLP.Chemscore.Metal>
0.0000

> <Gold.Chemscore.Hbonds>
donor molecule, donor type, donor heavy atom, donor atom, acceptor molecule, acceptor atom, score
      L1  H    17    40       P1  8029  0.93
      L1  H    19    20       P1  7957  0.26
      P1  H  7989  7998       L1    18  1.00

> <Gold.PLP.Chemscore.Internal.Correction>
0.0350

> <Gold.Rescore>
     Score         DG    S(hbond)    S(metal)    S(lipo)     H(rot)  DE(clash)    DE(int)     intcor
     19.65     -21.64       2.93        0.00     104.25       2.28       0.06       1.92       ----

> <Gold.Chemscore.Fitness>
19.6492

> <Gold.Chemscore.DG>
-21.6351

> <Gold.Chemscore.ZeroCoef>
-5.4800

> <Gold.Chemscore.Hbond>
2.9290

> <Gold.Chemscore.Metal>
0.0000

> <Gold.Chemscore.Lipo>
104.2524

> <Gold.Chemscore.Internal_Hbond>
0.0000

> <Gold.Chemscore.DEClash>
0.0630

> <Gold.Chemscore.DEInternal>
1.9228

> <Gold.Chemscore.Rot>
2.2755

> <Gold.Chemscore.Internal.Correction>
   9.000000E+99

> <Gold.Chemscore.Hbonds>
donor molecule, donor type, donor heavy atom, donor atom, acceptor molecule, acceptor atom, score
      L1  H    17    40       P1  8029  0.81
      L1  H    19    20       P1  7957  0.27
      P1  H  7989  7998       L1    18  0.90

> <Gold.Chemscore.Hbond.Weighted>
-9.7828

> <Gold.Chemscore.Metal.Weighted>
-0.0000

> <Gold.Chemscore.Lipo.Weighted>
-12.1975

> <Gold.Chemscore.Internal_Hbond.Weighted>
0.0000

> <Gold.Chemscore.DEClash.Weighted>
0.0630

> <Gold.Chemscore.DEInternal.Weighted>
1.9228

> <Gold.Chemscore.Rot.Weighted>
5.8252

> <Gold.Chemscore.Internal.Correction.Weighted>
   9.000000E+99

> <Gold.Protein.RotatedTorsions>
[ 6907 6896 6895 6894 ] final  108.33 input  -60.11 | X-H torsion
[ 7974 7965 7964 7962 ] final -102.04 input  175.53 | X-H torsion
[ 8008 7997 7996 7995 ] final -162.56 input   59.86 | X-H torsion
[ 10167 10162 10161 10158 ] final  143.03 input  -65.29 | X-H torsion
[ 10718 10713 10712 10709 ] final  165.48 input   66.30 | X-H torsion
[ 10763 10752 10751 10750 ] final  166.81 input  -60.55 | X-H torsion
[ 11005 11000 10999 10996 ] final   99.71 input  -57.11 | X-H torsion

> <Gold.Protein.ActiveResidues>
 VAL166  LYS551  ARG553  GLY616  TRP617  ASP618  TYR619  PRO620  LYS621  CYS622 
 ASP623  PHE694  ASN695  SER759  ASP760  ASP761  ALA762  ILE779  LEU786  VAL792 
 PHE793  MET794  SER795  GLU796  ALA797  LYS798  CYS799  TRP800  GLU811  SER814 

> <Gold.Protein.RotatedAtoms>
  152.5117  133.9105  159.7485 H   0  0  0  0  0  0  0  0  0  0  0  0  # atno 6907 bound_to 6896
  150.9499  133.6552  159.2781 H   0  0  0  0  0  0  0  0  0  0  0  0  # atno 6908 bound_to 6896
  151.3834  135.0949  159.9556 H   0  0  0  0  0  0  0  0  0  0  0  0  # atno 6909 bound_to 6896
  145.2739  140.9307  143.2971 H   0  0  0  0  0  0  0  0  0  0  0  0  # atno 7974 bound_to 7965
  155.8086  140.0902  157.1917 H   0  0  0  0  0  0  0  0  0  0  0  0  # atno 8008 bound_to 7997
  154.3980  140.1459  156.3419 H   0  0  0  0  0  0  0  0  0  0  0  0  # atno 8009 bound_to 7997
  155.8389  140.3439  155.5621 H   0  0  0  0  0  0  0  0  0  0  0  0  # atno 8010 bound_to 7997
  139.4979  144.6068  151.6361 H   0  0  0  0  0  0  0  0  0  0  0  0  # atno 10167 bound_to 10162
  157.0795  131.0388  151.2580 H   0  0  0  0  0  0  0  0  0  0  0  0  # atno 10718 bound_to 10713
  154.3446  135.2753  155.2405 H   0  0  0  0  0  0  0  0  0  0  0  0  # atno 10763 bound_to 10752
  154.4660  135.5895  153.6292 H   0  0  0  0  0  0  0  0  0  0  0  0  # atno 10764 bound_to 10752
  152.9855  135.6076  154.3650 H   0  0  0  0  0  0  0  0  0  0  0  0  # atno 10765 bound_to 10752
  139.8770  134.9108  156.4646 H   0  0  0  0  0  0  0  0  0  0  0  0  # atno 11005 bound_to 11000
  144.9311  139.4297  143.6494 LP  0  0  0  0  0  0  0  0  0  0  0  0  # atno 17320 bound_to 7965
  146.3238  139.8223  142.8924 LP  0  0  0  0  0  0  0  0  0  0  0  0  # atno 17321 bound_to 7965
  140.5732  144.0074  150.6227 LP  0  0  0  0  0  0  0  0  0  0  0  0  # atno 17342 bound_to 10162
  140.3198  143.3144  152.0795 LP  0  0  0  0  0  0  0  0  0  0  0  0  # atno 17343 bound_to 10162
  157.4811  130.7766  149.7415 LP  0  0  0  0  0  0  0  0  0  0  0  0  # atno 17370 bound_to 10713
  155.9927  130.3929  150.2929 LP  0  0  0  0  0  0  0  0  0  0  0  0  # atno 17371 bound_to 10713
  140.8839  133.7897  155.9497 LP  0  0  0  0  0  0  0  0  0  0  0  0  # atno 17394 bound_to 11000
  140.8825  134.2594  157.5137 LP  0  0  0  0  0  0  0  0  0  0  0  0  # atno 17395 bound_to 11000

$$$$
