AV-unprocessed.smi:580|AV-procd|sdf|2989|dock5
  -GOLD-   2262023493D 1   1.00000     0.00000
 Structure written by MMmdl.
 36 37  0  0  0  0  0  0  0  0  1 V2000
  154.4597  134.9708  156.9645 C   0  0  0  0  0  0  0  0  0  0  0  0
  154.1074  135.7208  158.2033 C   0  0  0  0  0  0  0  0  0  0  0  0
  154.1550  137.0458  158.5345 C   0  0  0  0  0  0  0  0  0  0  0  0
  153.6730  137.0591  159.8703 C   0  0  0  0  0  0  0  0  0  0  0  0
  153.5640  138.2745  160.5933 N   0  0  0  0  0  0  0  0  0  0  0  0
  153.5401  139.5228  160.0957 C   0  0  0  0  0  0  0  0  0  0  0  0
  153.6145  139.8113  158.9009 O   0  0  0  0  0  0  0  0  0  0  0  0
  153.4306  140.4353  161.0727 N   0  0  0  0  0  0  0  0  0  0  0  0
  153.3959  141.8811  160.8728 C   0  0  2  0  0  0  0  0  0  0  0  0
  152.9990  142.5991  162.1779 C   0  0  0  0  0  0  0  0  0  0  0  0
  152.8852  144.1182  161.9723 C   0  0  0  0  0  0  0  0  0  0  0  0
  151.9004  144.4675  160.8401 C   0  0  1  0  0  0  0  0  0  0  0  0
  151.7990  145.9856  160.6336 C   0  0  0  0  0  0  0  0  0  0  0  0
  152.3021  143.7470  159.5386 C   0  0  0  0  0  0  0  0  0  0  0  0
  152.4093  142.2270  159.7428 C   0  0  0  0  0  0  0  0  0  0  0  0
  153.3613  135.8513  160.3150 N   0  0  0  0  0  0  0  0  0  0  0  0
  153.6385  134.9873  159.2491 O   0  0  0  0  0  0  0  0  0  0  0  0
  154.6147  135.6517  156.1275 H   0  0  0  0  0  0  0  0  0  0  0  0
  153.6642  134.2769  156.6920 H   0  0  0  0  0  0  0  0  0  0  0  0
  155.3753  134.3969  157.1084 H   0  0  0  0  0  0  0  0  0  0  0  0
  154.4811  137.8701  157.9177 H   0  0  0  0  0  0  0  0  0  0  0  0
  153.5044  138.1840  161.5969 H   0  0  0  0  0  0  0  0  0  0  0  0
  153.3751  140.1081  162.0261 H   0  0  0  0  0  0  0  0  0  0  0  0
  154.3878  142.2228  160.5698 H   0  0  0  0  0  0  0  0  0  0  0  0
  152.0453  142.2110  162.5384 H   0  0  0  0  0  0  0  0  0  0  0  0
  153.7310  142.3921  162.9595 H   0  0  0  0  0  0  0  0  0  0  0  0
  152.5650  144.5877  162.9030 H   0  0  0  0  0  0  0  0  0  0  0  0
  153.8706  144.5268  161.7443 H   0  0  0  0  0  0  0  0  0  0  0  0
  150.9121  144.1090  161.1313 H   0  0  0  0  0  0  0  0  0  0  0  0
  152.7596  146.4111  160.3418 H   0  0  0  0  0  0  0  0  0  0  0  0
  151.4775  146.4852  161.5479 H   0  0  0  0  0  0  0  0  0  0  0  0
  151.0763  146.2283  159.8539 H   0  0  0  0  0  0  0  0  0  0  0  0
  151.5743  143.9590  158.7546 H   0  0  0  0  0  0  0  0  0  0  0  0
  153.2587  144.1327  159.1834 H   0  0  0  0  0  0  0  0  0  0  0  0
  152.7264  141.7542  158.8125 H   0  0  0  0  0  0  0  0  0  0  0  0
  151.4223  141.8232  159.9743 H   0  0  0  0  0  0  0  0  0  0  0  0
  1  2  1  0  0  0  0
  1 18  1  0  0  0  0
  1 19  1  0  0  0  0
  1 20  1  0  0  0  0
  2 17  1  0  0  0  0
  2  3  2  0  0  0  0
  3  4  1  0  0  0  0
  3 21  1  0  0  0  0
  4  5  1  0  0  0  0
  4 16  2  0  0  0  0
  5  6  1  0  0  0  0
  5 22  1  0  0  0  0
  6  7  2  0  0  0  0
  6  8  1  0  0  0  0
  8  9  1  0  0  0  0
  8 23  1  0  0  0  0
  9 15  1  0  0  0  0
  9 10  1  0  0  0  0
  9 24  1  0  0  0  0
 10 11  1  0  0  0  0
 10 25  1  0  0  0  0
 10 26  1  0  0  0  0
 11 12  1  0  0  0  0
 11 27  1  0  0  0  0
 11 28  1  0  0  0  0
 12 13  1  0  0  0  0
 12 14  1  0  0  0  0
 12 29  1  0  0  0  0
 13 30  1  0  0  0  0
 13 31  1  0  0  0  0
 13 32  1  0  0  0  0
 14 15  1  0  0  0  0
 14 33  1  0  0  0  0
 14 34  1  0  0  0  0
 15 35  1  0  0  0  0
 15 36  1  0  0  0  0
 16 17  1  0  0  0  0
M  END
> <s_m_source_file>
AV-unprocessed.smi

> <i_m_source_file_index>
580

> <i_lp_mmshare_version>
43012

> <i_f3d_flags>
0

> <s_epik_input>
W0NIM11jMVtjSF1jKG5vMSlbTkhdQyg9TylbTkhdW0NAQEhdMltDSDJdW0NIMl1bQ0BASF0oW0NIM10pW0NIMl1bQ0gyXTI=

> <s_epik_cmdline>
J2VwaWtfcHl0aG9uJywgJy1waCcsICc3LjAnLCAnLXRuJywgJzgnLCAnLW1hJywgJzIwMCcsICctbWV0YWxfYmluZGluZycsICctaW1hZScsICc8aW5maWxlLm1hZT4nLCAnLW9tYWUnLCAnPG91dGZpbGUubWFlPic=

> <r_lp_tautomer_probability>
1

> <r_epik_Ionization_Penalty>
2.357e-05

> <r_epik_Ionization_Penalty_Charging>
0

> <r_epik_Ionization_Penalty_Neutral>
2.357e-05

> <r_epik_State_Penalty>
-0

> <r_epik_Charging_Adjusted_Penalty>
0

> <i_epik_Tot_Q>
0

> <i_epik_Tot_abs_Q>
0

> <r_epik_Metal_State_Penalty>
-0

> <b_epik_Metal_Only>
0

> <s_lp_Force_Field>
OPLS_2005

> <r_lp_Energy>
6.68451

> <b_lp_Chiralities_Consistent>
1

> <s_lp_Variant>
AV-unprocessed.smi:580-1

> <Gold.Version>
5.8.1

> <Gold.Id.Protein>
6NUR|6NUR_protein|mol2

> <Gold.PLP.Fitness>
39.1332

> <Gold.PLP.PLP>
-33.5357

> <Gold.PLP.part.hbond>
-2.4239

> <Gold.PLP.part.metal>
0.0000

> <Gold.PLP.part.buried>
-3.9870

> <Gold.PLP.part.nonpolar>
-27.3143

> <Gold.PLP.part.repulsive>
0.0905

> <Gold.PLP.ligand.clash>
0.0000

> <Gold.PLP.ligand.torsion>
0.2027

> <Gold.PLP.Chemscore.Hbond>
2.0000

> <Gold.PLP.Chemscore.CHOScore>
0.0000

> <Gold.PLP.Chemscore.Metal>
0.0000

> <Gold.Chemscore.Hbonds>
donor molecule, donor type, donor heavy atom, donor atom, acceptor molecule, acceptor atom, score
      P1  H  7997  8009       L1     7  0.68

> <Gold.PLP.Chemscore.Internal.Correction>
0.0029

> <Gold.Rescore>
     Score         DG    S(hbond)    S(metal)    S(lipo)     H(rot)  DE(clash)    DE(int)     intcor
     17.13     -18.61       1.90        0.00      79.93       1.00       0.00       1.48       ----

> <Gold.Chemscore.Fitness>
17.1263

> <Gold.Chemscore.DG>
-18.6076

> <Gold.Chemscore.ZeroCoef>
-5.4800

> <Gold.Chemscore.Hbond>
1.8968

> <Gold.Chemscore.Metal>
0.0000

> <Gold.Chemscore.Lipo>
79.9331

> <Gold.Chemscore.Internal_Hbond>
0.0000

> <Gold.Chemscore.DEClash>
0.0000

> <Gold.Chemscore.DEInternal>
1.4813

> <Gold.Chemscore.Rot>
1.0000

> <Gold.Chemscore.Internal.Correction>
   9.000000E+99

> <Gold.Chemscore.Hbonds>
donor molecule, donor type, donor heavy atom, donor atom, acceptor molecule, acceptor atom, score
      P1  H  7997  8009       L1     7  0.66

> <Gold.Chemscore.Hbond.Weighted>
-6.3354

> <Gold.Chemscore.Metal.Weighted>
-0.0000

> <Gold.Chemscore.Lipo.Weighted>
-9.3522

> <Gold.Chemscore.Internal_Hbond.Weighted>
0.0000

> <Gold.Chemscore.DEClash.Weighted>
0.0000

> <Gold.Chemscore.DEInternal.Weighted>
1.4813

> <Gold.Chemscore.Rot.Weighted>
2.5600

> <Gold.Chemscore.Internal.Correction.Weighted>
   9.000000E+99

> <Gold.Protein.RotatedTorsions>
[ 6907 6896 6895 6894 ] final  -81.59 input  -60.11 | X-H torsion
[ 7974 7965 7964 7962 ] final   18.82 input  175.53 | X-H torsion
[ 8008 7997 7996 7995 ] final  122.79 input   59.86 | X-H torsion
[ 10167 10162 10161 10158 ] final  124.81 input  -65.29 | X-H torsion
[ 10718 10713 10712 10709 ] final -152.70 input   66.30 | X-H torsion
[ 10763 10752 10751 10750 ] final  160.43 input  -60.55 | X-H torsion
[ 11005 11000 10999 10996 ] final   79.13 input  -57.11 | X-H torsion

> <Gold.Protein.ActiveResidues>
 VAL166  LYS551  ARG553  GLY616  TRP617  ASP618  TYR619  PRO620  LYS621  CYS622 
 ASP623  PHE694  ASN695  SER759  ASP760  ASP761  ALA762  ILE779  LEU786  VAL792 
 PHE793  MET794  SER795  GLU796  ALA797  LYS798  CYS799  TRP800  GLU811  SER814 

> <Gold.Protein.RotatedAtoms>
  150.6910  134.3794  159.5027 H   0  0  0  0  0  0  0  0  0  0  0  0  # atno 6907 bound_to 6896
  152.1599  134.8918  160.0551 H   0  0  0  0  0  0  0  0  0  0  0  0  # atno 6908 bound_to 6896
  151.9984  133.3781  159.4209 H   0  0  0  0  0  0  0  0  0  0  0  0  # atno 6909 bound_to 6896
  146.2171  139.8402  142.8642 H   0  0  0  0  0  0  0  0  0  0  0  0  # atno 7974 bound_to 7965
  156.2741  140.2777  156.1524 H   0  0  0  0  0  0  0  0  0  0  0  0  # atno 8008 bound_to 7997
  155.0840  140.0388  157.2665 H   0  0  0  0  0  0  0  0  0  0  0  0  # atno 8009 bound_to 7997
  154.6942  140.2635  155.6788 H   0  0  0  0  0  0  0  0  0  0  0  0  # atno 8010 bound_to 7997
  139.5720  144.6944  151.3752 H   0  0  0  0  0  0  0  0  0  0  0  0  # atno 10167 bound_to 10162
  156.4760  130.8281  151.2509 H   0  0  0  0  0  0  0  0  0  0  0  0  # atno 10718 bound_to 10713
  154.2473  135.2772  155.2830 H   0  0  0  0  0  0  0  0  0  0  0  0  # atno 10763 bound_to 10752
  154.5494  135.5679  153.6912 H   0  0  0  0  0  0  0  0  0  0  0  0  # atno 10764 bound_to 10752
  152.9987  135.6271  154.2619 H   0  0  0  0  0  0  0  0  0  0  0  0  # atno 10765 bound_to 10752
  139.9185  134.7818  156.1738 H   0  0  0  0  0  0  0  0  0  0  0  0  # atno 11005 bound_to 11000
  145.2906  141.0166  143.3665 LP  0  0  0  0  0  0  0  0  0  0  0  0  # atno 17320 bound_to 7965
  144.9080  139.4565  143.6600 LP  0  0  0  0  0  0  0  0  0  0  0  0  # atno 17321 bound_to 7965
  140.7005  143.7644  150.7395 LP  0  0  0  0  0  0  0  0  0  0  0  0  # atno 17342 bound_to 10162
  140.1153  143.4661  152.2345 LP  0  0  0  0  0  0  0  0  0  0  0  0  # atno 17343 bound_to 10162
  157.7487  131.0060  150.3137 LP  0  0  0  0  0  0  0  0  0  0  0  0  # atno 17370 bound_to 10713
  156.3570  130.3840  149.7282 LP  0  0  0  0  0  0  0  0  0  0  0  0  # atno 17371 bound_to 10713
  141.0684  133.6808  156.2091 LP  0  0  0  0  0  0  0  0  0  0  0  0  # atno 17394 bound_to 11000
  140.6547  134.5030  157.5580 LP  0  0  0  0  0  0  0  0  0  0  0  0  # atno 17395 bound_to 11000

$$$$
