AV-unprocessed.smi:1930|AV-procd|sdf|7809|dock8
  -GOLD-   22720 9553D 1   1.00000     0.00000
 Structure written by MMmdl.
 41 42  0  0  0  0  0  0  0  0  1 V2000
  153.1510  133.3582  163.8923 C   0  0  0  0  0  0  0  0  0  0  0  0
  154.5409  133.9275  162.8308 S   0  0  0  0  0  0  0  0  0  0  0  0
  155.7697  133.9246  163.6395 O   0  0  0  0  0  0  0  0  0  0  0  0
  154.4965  133.1726  161.5691 O   0  0  0  0  0  0  0  0  0  0  0  0
  154.1385  135.5821  162.4770 N   0  0  0  0  0  0  0  0  0  0  0  0
  154.3586  136.1041  161.1086 C   0  0  0  0  0  0  0  0  0  0  0  0
  155.5966  137.0192  161.0431 C   0  0  0  0  0  0  0  0  0  0  0  0
  155.4553  138.0777  162.0516 N   0  0  0  0  0  0  0  0  0  0  0  0
  155.1259  139.3740  161.8258 C   0  0  0  0  0  0  0  0  0  0  0  0
  154.9700  140.1977  162.7281 O   0  0  0  0  0  0  0  0  0  0  0  0
  155.0083  139.7060  160.5301 N   0  0  0  0  0  0  0  0  0  0  0  0
  154.6599  141.0334  160.0442 C   0  0  0  0  0  0  0  0  0  0  0  0
  153.2197  141.3883  160.4359 C   0  0  0  0  0  0  0  0  0  0  0  0
  152.7063  142.6026  159.6876 C   0  0  0  0  0  0  0  0  0  0  0  0
  153.3082  143.8658  159.8610 C   0  0  0  0  0  0  0  0  0  0  0  0
  152.7983  144.9646  159.1430 C   0  0  0  0  0  0  0  0  0  0  0  0
  151.7054  144.7524  158.2793 C   0  0  0  0  0  0  0  0  0  0  0  0
  151.1219  143.5472  158.1042 N   0  0  0  0  0  0  0  0  0  0  0  0
  151.6170  142.4986  158.7964 C   0  0  0  0  0  0  0  0  0  0  0  0
  155.4655  137.4924  163.3938 C   0  0  0  0  0  0  0  0  0  0  0  0
  154.2238  136.5936  163.5555 C   0  0  0  0  0  0  0  0  0  0  0  0
  153.3156  132.3168  164.1677 H   0  0  0  0  0  0  0  0  0  0  0  0
  152.2128  133.4371  163.3454 H   0  0  0  0  0  0  0  0  0  0  0  0
  153.1059  133.9622  164.7973 H   0  0  0  0  0  0  0  0  0  0  0  0
  154.4574  135.2833  160.3986 H   0  0  0  0  0  0  0  0  0  0  0  0
  153.4731  136.6655  160.8085 H   0  0  0  0  0  0  0  0  0  0  0  0
  156.5025  136.4485  161.2475 H   0  0  0  0  0  0  0  0  0  0  0  0
  155.7219  137.3934  160.0273 H   0  0  0  0  0  0  0  0  0  0  0  0
  155.1613  138.9877  159.8375 H   0  0  0  0  0  0  0  0  0  0  0  0
  155.3535  141.7639  160.4641 H   0  0  0  0  0  0  0  0  0  0  0  0
  154.7737  141.0646  158.9592 H   0  0  0  0  0  0  0  0  0  0  0  0
  152.5585  140.5429  160.2393 H   0  0  0  0  0  0  0  0  0  0  0  0
  153.1598  141.5838  161.5077 H   0  0  0  0  0  0  0  0  0  0  0  0
  154.1462  143.9917  160.5307 H   0  0  0  0  0  0  0  0  0  0  0  0
  153.2345  145.9466  159.2514 H   0  0  0  0  0  0  0  0  0  0  0  0
  151.2891  145.5728  157.7138 H   0  0  0  0  0  0  0  0  0  0  0  0
  151.1294  141.5488  158.6330 H   0  0  0  0  0  0  0  0  0  0  0  0
  156.3792  136.9142  163.5316 H   0  0  0  0  0  0  0  0  0  0  0  0
  155.4801  138.2487  164.1798 H   0  0  0  0  0  0  0  0  0  0  0  0
  153.3225  137.2070  163.5230 H   0  0  0  0  0  0  0  0  0  0  0  0
  154.2318  136.1105  164.5321 H   0  0  0  0  0  0  0  0  0  0  0  0
  1  2  1  0  0  0  0
  1 22  1  0  0  0  0
  1 23  1  0  0  0  0
  1 24  1  0  0  0  0
  2  3  2  0  0  0  0
  2  4  2  0  0  0  0
  2  5  1  0  0  0  0
  5 21  1  0  0  0  0
  5  6  1  0  0  0  0
  6  7  1  0  0  0  0
  6 25  1  0  0  0  0
  6 26  1  0  0  0  0
  7  8  1  0  0  0  0
  7 27  1  0  0  0  0
  7 28  1  0  0  0  0
  8  9  1  0  0  0  0
  8 20  1  0  0  0  0
  9 10  2  0  0  0  0
  9 11  1  0  0  0  0
 11 12  1  0  0  0  0
 11 29  1  0  0  0  0
 12 13  1  0  0  0  0
 12 30  1  0  0  0  0
 12 31  1  0  0  0  0
 13 14  1  0  0  0  0
 13 32  1  0  0  0  0
 13 33  1  0  0  0  0
 14 19  1  0  0  0  0
 14 15  2  0  0  0  0
 15 16  1  0  0  0  0
 15 34  1  0  0  0  0
 16 17  2  0  0  0  0
 16 35  1  0  0  0  0
 17 18  1  0  0  0  0
 17 36  1  0  0  0  0
 18 19  2  0  0  0  0
 19 37  1  0  0  0  0
 20 21  1  0  0  0  0
 20 38  1  0  0  0  0
 20 39  1  0  0  0  0
 21 40  1  0  0  0  0
 21 41  1  0  0  0  0
M  END
> <s_m_source_file>
AV-unprocessed.smi

> <i_m_source_file_index>
1930

> <i_lp_mmshare_version>
43012

> <i_f3d_flags>
0

> <s_epik_input>
W0NIM11TKD1PKSg9TylOMVtDSDJdW0NIMl1OKFtDSDJdW0NIMl0xKUMoPU8pW05IXVtDSDJdW0NIMl1jMltjSF1bY0hdW2NIXW5bY0hdMg==

> <s_epik_cmdline>
J2VwaWtfcHl0aG9uJywgJy1waCcsICc3LjAnLCAnLXRuJywgJzgnLCAnLW1hJywgJzIwMCcsICctbWV0YWxfYmluZGluZycsICctaW1hZScsICc8aW5maWxlLm1hZT4nLCAnLW9tYWUnLCAnPG91dGZpbGUubWFlPic=

> <r_epik_Ionization_Penalty>
0.0143741

> <r_epik_Ionization_Penalty_Charging>
0

> <r_epik_Ionization_Penalty_Neutral>
0.0143741

> <r_epik_State_Penalty>
0.0112033

> <r_epik_Charging_Adjusted_Penalty>
0.0112033

> <i_epik_Tot_Q>
0

> <i_epik_Tot_abs_Q>
0

> <r_epik_Metal_State_Penalty>
0.0109376

> <b_epik_Metal_Only>
0

> <s_lp_Force_Field>
OPLS_2005

> <r_lp_Energy>
24.8651

> <b_lp_Chiralities_Consistent>
1

> <s_lp_Variant>
AV-unprocessed.smi:1930-1

> <Gold.Version>
5.8.1

> <Gold.Id.Protein>
6NUR|6NUR_protein|mol2

> <Gold.PLP.Fitness>
45.3428

> <Gold.PLP.PLP>
-42.6063

> <Gold.PLP.part.hbond>
-0.9397

> <Gold.PLP.part.metal>
0.0000

> <Gold.PLP.part.buried>
-4.4627

> <Gold.PLP.part.nonpolar>
-38.3810

> <Gold.PLP.part.repulsive>
0.2240

> <Gold.PLP.ligand.clash>
0.0000

> <Gold.PLP.ligand.torsion>
1.1869

> <Gold.PLP.Chemscore.Hbond>
0.0000

> <Gold.PLP.Chemscore.CHOScore>
1.0000

> <Gold.PLP.Chemscore.Metal>
0.0000

> <Gold.PLP.Chemscore.Internal.Correction>
2.1103

> <Gold.Rescore>
     Score         DG    S(hbond)    S(metal)    S(lipo)     H(rot)  DE(clash)    DE(int)     intcor
     13.97     -15.36       0.00        0.00     115.13       1.40       0.19       1.20       ----

> <Gold.Chemscore.Fitness>
13.9693

> <Gold.Chemscore.DG>
-15.3570

> <Gold.Chemscore.ZeroCoef>
-5.4800

> <Gold.Chemscore.Hbond>
0.0000

> <Gold.Chemscore.Metal>
0.0000

> <Gold.Chemscore.Lipo>
115.1326

> <Gold.Chemscore.Internal_Hbond>
0.0000

> <Gold.Chemscore.DEClash>
0.1862

> <Gold.Chemscore.DEInternal>
1.2015

> <Gold.Chemscore.Rot>
1.4037

> <Gold.Chemscore.Internal.Correction>
   9.000000E+99

> <Gold.Chemscore.Hbond.Weighted>
-0.0000

> <Gold.Chemscore.Metal.Weighted>
-0.0000

> <Gold.Chemscore.Lipo.Weighted>
-13.4705

> <Gold.Chemscore.Internal_Hbond.Weighted>
0.0000

> <Gold.Chemscore.DEClash.Weighted>
0.1862

> <Gold.Chemscore.DEInternal.Weighted>
1.2015

> <Gold.Chemscore.Rot.Weighted>
3.5935

> <Gold.Chemscore.Internal.Correction.Weighted>
   9.000000E+99

> <Gold.Protein.RotatedTorsions>
[ 6907 6896 6895 6894 ] final -169.48 input  -60.11 | X-H torsion
[ 7974 7965 7964 7962 ] final -107.86 input  175.53 | X-H torsion
[ 8008 7997 7996 7995 ] final  170.96 input   59.86 | X-H torsion
[ 10167 10162 10161 10158 ] final  105.59 input  -65.29 | X-H torsion
[ 10718 10713 10712 10709 ] final   15.38 input   66.30 | X-H torsion
[ 10763 10752 10751 10750 ] final  -29.33 input  -60.55 | X-H torsion
[ 11005 11000 10999 10996 ] final  104.22 input  -57.11 | X-H torsion

> <Gold.Protein.ActiveResidues>
 VAL166  LYS551  ARG553  GLY616  TRP617  ASP618  TYR619  PRO620  LYS621  CYS622 
 ASP623  PHE694  ASN695  SER759  ASP760  ASP761  ALA762  ILE779  LEU786  VAL792 
 PHE793  MET794  SER795  GLU796  ALA797  LYS798  CYS799  TRP800  GLU811  SER814 

> <Gold.Protein.RotatedAtoms>
  151.4923  133.3522  159.2855 H   0  0  0  0  0  0  0  0  0  0  0  0  # atno 6907 bound_to 6896
  150.8826  134.8222  159.7247 H   0  0  0  0  0  0  0  0  0  0  0  0  # atno 6908 bound_to 6896
  152.4773  134.4823  159.9721 H   0  0  0  0  0  0  0  0  0  0  0  0  # atno 6909 bound_to 6896
  145.2001  140.9052  143.3374 H   0  0  0  0  0  0  0  0  0  0  0  0  # atno 7974 bound_to 7965
  156.1316  140.1524  156.9056 H   0  0  0  0  0  0  0  0  0  0  0  0  # atno 8008 bound_to 7997
  154.4914  140.0850  156.7642 H   0  0  0  0  0  0  0  0  0  0  0  0  # atno 8009 bound_to 7997
  155.4245  140.3424  155.4276 H   0  0  0  0  0  0  0  0  0  0  0  0  # atno 8010 bound_to 7997
  139.7080  144.7083  151.1074 H   0  0  0  0  0  0  0  0  0  0  0  0  # atno 10167 bound_to 10162
  157.0527  130.6276  149.5771 H   0  0  0  0  0  0  0  0  0  0  0  0  # atno 10718 bound_to 10713
  153.7629  135.6918  153.4922 H   0  0  0  0  0  0  0  0  0  0  0  0  # atno 10763 bound_to 10752
  153.1926  135.4465  155.0167 H   0  0  0  0  0  0  0  0  0  0  0  0  # atno 10764 bound_to 10752
  154.8146  135.3393  154.7143 H   0  0  0  0  0  0  0  0  0  0  0  0  # atno 10765 bound_to 10752
  139.8790  134.9292  156.5328 H   0  0  0  0  0  0  0  0  0  0  0  0  # atno 11005 bound_to 11000
  144.9956  139.3647  143.6193 LP  0  0  0  0  0  0  0  0  0  0  0  0  # atno 17320 bound_to 7965
  146.3419  139.9157  142.8774 LP  0  0  0  0  0  0  0  0  0  0  0  0  # atno 17321 bound_to 7965
  140.7726  143.5332  150.9399 LP  0  0  0  0  0  0  0  0  0  0  0  0  # atno 17342 bound_to 10162
  139.9016  143.6829  152.3130 LP  0  0  0  0  0  0  0  0  0  0  0  0  # atno 17343 bound_to 10162
  156.0002  130.5080  150.7636 LP  0  0  0  0  0  0  0  0  0  0  0  0  # atno 17370 bound_to 10713
  157.5017  131.0919  151.0306 LP  0  0  0  0  0  0  0  0  0  0  0  0  # atno 17371 bound_to 10713
  140.8368  133.8236  155.9036 LP  0  0  0  0  0  0  0  0  0  0  0  0  # atno 17394 bound_to 11000
  140.9276  134.2063  157.4885 LP  0  0  0  0  0  0  0  0  0  0  0  0  # atno 17395 bound_to 11000

$$$$
