AV-unprocessed.smi:1721|AV-procd|sdf|6937|dock2
  -GOLD-   22720 8143D 1   1.00000     0.00000
 Structure written by MMmdl.
 44 46  0  0  0  0  0  0  0  0  2 V2000
  152.1306  138.4987  154.6012 C   0  0  0  0  0  0  0  0  0  0  0  0
  150.7676  138.3188  154.2319 O   0  0  0  0  0  0  0  0  0  0  0  0
  149.8916  139.3739  154.4034 C   0  0  0  0  0  0  0  0  0  0  0  0
  150.3953  140.5703  154.7973 N   0  0  0  0  0  0  0  0  0  0  0  0
  149.5442  141.6026  154.9641 C   0  0  0  0  0  0  0  0  0  0  0  0
  148.1585  141.4990  154.7492 C   0  0  0  0  0  0  0  0  0  0  0  0
  147.6329  140.2592  154.3408 C   0  0  0  0  0  0  0  0  0  0  0  0
  148.5131  139.1627  154.1615 C   0  0  0  0  0  0  0  0  0  0  0  0
  148.1097  137.8599  153.7493 N   0  0  0  0  0  0  0  0  0  0  0  0
  147.0226  137.1457  154.0885 C   0  0  0  0  0  0  0  0  0  0  0  0
  146.1335  137.5080  154.8574 O   0  0  0  0  0  0  0  0  0  0  0  0
  147.0183  135.9556  153.4714 N   0  0  0  0  0  0  0  0  0  0  0  0
  145.9846  134.9351  153.6217 C   0  0  2  0  0  0  0  0  0  0  0  0
  146.4373  133.7450  154.4856 C   0  0  0  0  0  0  0  0  0  0  0  0
  145.7972  132.5020  153.8363 C   0  0  0  0  0  0  0  0  0  0  0  0
  144.9754  133.0196  152.7256 N   0  3  2  0  0  0  0  0  0  0  0  0
  144.6967  132.0958  151.6046 C   0  0  0  0  0  0  0  0  0  0  0  0
  143.7575  132.7884  150.5969 C   0  0  0  0  0  0  0  0  0  0  0  0
  144.3095  134.1566  150.1470 C   0  0  0  0  0  0  0  0  0  0  0  0
  144.6686  135.0380  151.3588 C   0  0  0  0  0  0  0  0  0  0  0  0
  145.6190  134.2694  152.2925 C   0  0  1  0  0  0  0  0  0  0  0  0
  152.6811  137.5790  154.4039 H   0  0  0  0  0  0  0  0  0  0  0  0
  152.2304  138.7218  155.6644 H   0  0  0  0  0  0  0  0  0  0  0  0
  152.5994  139.2956  154.0220 H   0  0  0  0  0  0  0  0  0  0  0  0
  149.9814  142.5396  155.2768 H   0  0  0  0  0  0  0  0  0  0  0  0
  147.5123  142.3522  154.8928 H   0  0  0  0  0  0  0  0  0  0  0  0
  146.5704  140.1885  154.1756 H   0  0  0  0  0  0  0  0  0  0  0  0
  148.7464  137.4078  153.1093 H   0  0  0  0  0  0  0  0  0  0  0  0
  147.7888  135.7380  152.8562 H   0  0  0  0  0  0  0  0  0  0  0  0
  145.0866  135.3627  154.0733 H   0  0  0  0  0  0  0  0  0  0  0  0
  147.5235  133.6419  154.4826 H   0  0  0  0  0  0  0  0  0  0  0  0
  146.1238  133.8699  155.5226 H   0  0  0  0  0  0  0  0  0  0  0  0
  146.5734  131.8374  153.4536 H   0  0  0  0  0  0  0  0  0  0  0  0
  145.1827  131.9374  154.5383 H   0  0  0  0  0  0  0  0  0  0  0  0
  145.6304  131.8055  151.1202 H   0  0  0  0  0  0  0  0  0  0  0  0
  144.2336  131.1854  151.9868 H   0  0  0  0  0  0  0  0  0  0  0  0
  143.5989  132.1459  149.7303 H   0  0  0  0  0  0  0  0  0  0  0  0
  142.7786  132.9310  151.0567 H   0  0  0  0  0  0  0  0  0  0  0  0
  145.1984  134.0043  149.5334 H   0  0  0  0  0  0  0  0  0  0  0  0
  143.5818  134.6663  149.5148 H   0  0  0  0  0  0  0  0  0  0  0  0
  145.1347  135.9626  151.0178 H   0  0  0  0  0  0  0  0  0  0  0  0
  143.7620  135.3220  151.8948 H   0  0  0  0  0  0  0  0  0  0  0  0
  146.5356  134.0201  151.7523 H   0  0  0  0  0  0  0  0  0  0  0  0
  144.0862  133.2827  153.1261 H   0  0  0  0  0  0  0  0  0  0  0  0
  1  2  1  0  0  0  0
  1 22  1  0  0  0  0
  1 23  1  0  0  0  0
  1 24  1  0  0  0  0
  2  3  1  0  0  0  0
  3  8  1  0  0  0  0
  3  4  2  0  0  0  0
  4  5  1  0  0  0  0
  5  6  2  0  0  0  0
  5 25  1  0  0  0  0
  6  7  1  0  0  0  0
  6 26  1  0  0  0  0
  7  8  2  0  0  0  0
  7 27  1  0  0  0  0
  8  9  1  0  0  0  0
  9 10  1  0  0  0  0
  9 28  1  0  0  0  0
 10 11  2  0  0  0  0
 10 12  1  0  0  0  0
 12 13  1  0  0  0  0
 12 29  1  0  0  0  0
 13 21  1  0  0  0  0
 13 14  1  0  0  0  0
 13 30  1  0  0  0  0
 14 15  1  0  0  0  0
 14 31  1  0  0  0  0
 14 32  1  0  0  0  0
 15 16  1  0  0  0  0
 15 33  1  0  0  0  0
 15 34  1  0  0  0  0
 16 21  1  0  0  0  0
 16 17  1  0  0  0  0
 16 44  1  0  0  0  0
 17 18  1  0  0  0  0
 17 35  1  0  0  0  0
 17 36  1  0  0  0  0
 18 19  1  0  0  0  0
 18 37  1  0  0  0  0
 18 38  1  0  0  0  0
 19 20  1  0  0  0  0
 19 39  1  0  0  0  0
 19 40  1  0  0  0  0
 20 21  1  0  0  0  0
 20 41  1  0  0  0  0
 20 42  1  0  0  0  0
 21 43  1  0  0  0  0
M  CHG  1  16   1
M  END
> <s_m_source_file>
AV-unprocessed.smi

> <i_m_source_file_index>
1721

> <i_lp_mmshare_version>
43012

> <i_f3d_flags>
0

> <s_epik_input>
W0NIM11PYzFuW2NIXVtjSF1bY0hdYzFbTkhdQyg9TylbTkhdW0NASF0oW0NIMl1bQ0gyXTIpW0NAQEhdKE4yMylbQ0gyXVtDSDJdW0NIMl1bQ0gyXTM=

> <s_epik_cmdline>
J2VwaWtfcHl0aG9uJywgJy1waCcsICc3LjAnLCAnLXRuJywgJzgnLCAnLW1hJywgJzIwMCcsICctbWV0YWxfYmluZGluZycsICctaW1hZScsICc8aW5maWxlLm1hZT4nLCAnLW9tYWUnLCAnPG91dGZpbGUubWFlPic=

> <r_lp_tautomer_probability>
1

> <r_epik_Ionization_Penalty>
0.00104793

> <r_epik_Ionization_Penalty_Charging>
0.000974069

> <r_epik_Ionization_Penalty_Neutral>
7.38649e-05

> <r_epik_State_Penalty>
0.000633842

> <r_epik_Charging_Adjusted_Penalty>
0.00160791

> <i_epik_Tot_Q>
1

> <i_epik_Tot_abs_Q>
1

> <r_epik_Metal_State_Penalty>
-0

> <b_epik_Metal_Only>
0

> <s_lp_Force_Field>
OPLS_2005

> <r_lp_Energy>
37.3571

> <b_lp_Chiralities_Consistent>
1

> <s_lp_Variant>
AV-unprocessed.smi:1721-3

> <Gold.Version>
5.8.1

> <Gold.Id.Protein>
6NUR|6NUR_protein|mol2

> <Gold.PLP.Fitness>
42.8028

> <Gold.PLP.PLP>
-32.2539

> <Gold.PLP.part.hbond>
-2.9268

> <Gold.PLP.part.metal>
0.0000

> <Gold.PLP.part.buried>
-3.8317

> <Gold.PLP.part.nonpolar>
-25.9357

> <Gold.PLP.part.repulsive>
0.3747

> <Gold.PLP.ligand.clash>
0.0000

> <Gold.PLP.ligand.torsion>
0.5504

> <Gold.PLP.Chemscore.Hbond>
2.8800

> <Gold.PLP.Chemscore.CHOScore>
1.0000

> <Gold.PLP.Chemscore.Metal>
0.0000

> <Gold.Chemscore.Hbonds>
donor molecule, donor type, donor heavy atom, donor atom, acceptor molecule, acceptor atom, score
      L1  H     9    28       P1  7948  0.96
      L1  H    12    29       P1  7948  1.00
      P1  H  7989  7998       L1     4  0.96
      L1  C     5    25       P1  8028  0.98

> <Gold.PLP.Chemscore.Internal.Correction>
0.0097

> <Gold.Rescore>
     Score         DG    S(hbond)    S(metal)    S(lipo)     H(rot)  DE(clash)    DE(int)     intcor
     18.04     -18.80       2.39        0.00      72.99       1.25       0.23       0.53       ----

> <Gold.Chemscore.Fitness>
18.0444

> <Gold.Chemscore.DG>
-18.8017

> <Gold.Chemscore.ZeroCoef>
-5.4800

> <Gold.Chemscore.Hbond>
2.3877

> <Gold.Chemscore.Metal>
0.0000

> <Gold.Chemscore.Lipo>
72.9921

> <Gold.Chemscore.Internal_Hbond>
0.0000

> <Gold.Chemscore.DEClash>
0.2284

> <Gold.Chemscore.DEInternal>
0.5289

> <Gold.Chemscore.Rot>
1.2474

> <Gold.Chemscore.Internal.Correction>
   9.000000E+99

> <Gold.Chemscore.Hbonds>
donor molecule, donor type, donor heavy atom, donor atom, acceptor molecule, acceptor atom, score
      L1  H     9    28       P1  7948  0.92
      L1  H    12    29       P1  7948  0.94
      P1  H  7989  7998       L1     4  0.23

> <Gold.Chemscore.Hbond.Weighted>
-7.9750

> <Gold.Chemscore.Metal.Weighted>
-0.0000

> <Gold.Chemscore.Lipo.Weighted>
-8.5401

> <Gold.Chemscore.Internal_Hbond.Weighted>
0.0000

> <Gold.Chemscore.DEClash.Weighted>
0.2284

> <Gold.Chemscore.DEInternal.Weighted>
0.5289

> <Gold.Chemscore.Rot.Weighted>
3.1934

> <Gold.Chemscore.Internal.Correction.Weighted>
   9.000000E+99

> <Gold.Protein.RotatedTorsions>
[ 6907 6896 6895 6894 ] final -176.84 input  -60.11 | X-H torsion
[ 7974 7965 7964 7962 ] final -147.93 input  175.53 | X-H torsion
[ 8008 7997 7996 7995 ] final  -88.63 input   59.86 | X-H torsion
[ 10167 10162 10161 10158 ] final   63.04 input  -65.29 | X-H torsion
[ 10718 10713 10712 10709 ] final   70.07 input   66.30 | X-H torsion
[ 10763 10752 10751 10750 ] final  -41.29 input  -60.55 | X-H torsion
[ 11005 11000 10999 10996 ] final  -97.16 input  -57.11 | X-H torsion

> <Gold.Protein.ActiveResidues>
 VAL166  LYS551  ARG553  GLY616  TRP617  ASP618  TYR619  PRO620  LYS621  CYS622 
 ASP623  PHE694  ASN695  SER759  ASP760  ASP761  ALA762  ILE779  LEU786  VAL792 
 PHE793  MET794  SER795  GLU796  ALA797  LYS798  CYS799  TRP800  GLU811  SER814 

> <Gold.Protein.RotatedAtoms>
  151.6113  133.3347  159.3067 H   0  0  0  0  0  0  0  0  0  0  0  0  # atno 6907 bound_to 6896
  150.8155  134.7337  159.6737 H   0  0  0  0  0  0  0  0  0  0  0  0  # atno 6908 bound_to 6896
  152.4251  134.5889  160.0020 H   0  0  0  0  0  0  0  0  0  0  0  0  # atno 6909 bound_to 6896
  144.8062  140.5263  143.5674 H   0  0  0  0  0  0  0  0  0  0  0  0  # atno 7974 bound_to 7965
  154.6770  140.0551  157.0226 H   0  0  0  0  0  0  0  0  0  0  0  0  # atno 8008 bound_to 7997
  155.1006  140.3228  155.4529 H   0  0  0  0  0  0  0  0  0  0  0  0  # atno 8009 bound_to 7997
  156.2680  140.2032  156.6132 H   0  0  0  0  0  0  0  0  0  0  0  0  # atno 8010 bound_to 7997
  140.1374  144.4586  150.6830 H   0  0  0  0  0  0  0  0  0  0  0  0  # atno 10167 bound_to 10162
  157.6380  130.9458  150.0601 H   0  0  0  0  0  0  0  0  0  0  0  0  # atno 10718 bound_to 10713
  153.9601  135.6740  153.4745 H   0  0  0  0  0  0  0  0  0  0  0  0  # atno 10763 bound_to 10752
  153.0842  135.4907  154.8561 H   0  0  0  0  0  0  0  0  0  0  0  0  # atno 10764 bound_to 10752
  154.7278  135.3131  154.8902 H   0  0  0  0  0  0  0  0  0  0  0  0  # atno 10765 bound_to 10752
  141.1388  133.8150  157.0669 H   0  0  0  0  0  0  0  0  0  0  0  0  # atno 11005 bound_to 11000
  145.5434  139.1475  143.3434 LP  0  0  0  0  0  0  0  0  0  0  0  0  # atno 17320 bound_to 7965
  146.2353  140.5573  142.8957 LP  0  0  0  0  0  0  0  0  0  0  0  0  # atno 17321 bound_to 7965
  140.6781  143.2314  151.5456 LP  0  0  0  0  0  0  0  0  0  0  0  0  # atno 17342 bound_to 10162
  139.5489  144.2448  152.1494 LP  0  0  0  0  0  0  0  0  0  0  0  0  # atno 17343 bound_to 10162
  156.1636  130.3644  149.9264 LP  0  0  0  0  0  0  0  0  0  0  0  0  # atno 17370 bound_to 10713
  156.7256  130.9023  151.3622 LP  0  0  0  0  0  0  0  0  0  0  0  0  # atno 17371 bound_to 10713
  140.0536  134.9792  157.1180 LP  0  0  0  0  0  0  0  0  0  0  0  0  # atno 17394 bound_to 11000
  140.3953  134.2141  155.7165 LP  0  0  0  0  0  0  0  0  0  0  0  0  # atno 17395 bound_to 11000

$$$$
