AV-unprocessed.smi:413|AV-procd|sdf|2512|dock4
  -GOLD-   2262022463D 1   1.00000     0.00000
 Structure written by MMmdl.
 40 42  0  0  0  0  0  0  0  0  1 V2000
  149.0646  142.3675  155.8349 C   0  0  0  0  0  0  0  0  0  0  0  0
  149.8653  141.4517  156.6383 N   0  0  0  0  0  0  0  0  0  0  0  0
  149.7861  140.1008  156.6576 C   0  0  0  0  0  0  0  0  0  0  0  0
  149.0187  139.4095  155.9879 O   0  0  0  0  0  0  0  0  0  0  0  0
  150.6987  139.6396  157.5461 N   0  0  0  0  0  0  0  0  0  0  0  0
  150.9631  138.2392  157.8727 C   0  0  0  0  0  0  0  0  0  0  0  0
  150.6756  137.9294  159.3561 C   0  0  2  0  0  0  0  0  0  0  0  0
  151.6126  136.9718  159.8067 O   0  0  0  0  0  0  0  0  0  0  0  0
  149.2752  137.3319  159.5616 C   0  0  0  0  0  0  0  0  0  0  0  0
  148.8883  137.5262  160.9157 O   0  0  0  0  0  0  0  0  0  0  0  0
  148.1113  136.5615  161.5191 C   0  0  0  0  0  0  0  0  0  0  0  0
  147.8277  136.7350  162.8895 C   0  0  0  0  0  0  0  0  0  0  0  0
  147.0398  135.7994  163.5870 C   0  0  0  0  0  0  0  0  0  0  0  0
  146.5278  134.6731  162.9168 C   0  0  0  0  0  0  0  0  0  0  0  0
  145.7708  133.7716  163.5860 F   0  0  0  0  0  0  0  0  0  0  0  0
  146.8048  134.4858  161.5498 C   0  0  0  0  0  0  0  0  0  0  0  0
  147.5918  135.4229  160.8520 C   0  0  0  0  0  0  0  0  0  0  0  0
  151.3794  140.7279  158.1117 C   0  0  0  0  0  0  0  0  0  0  0  0
  152.4015  140.7844  159.0756 C   0  0  0  0  0  0  0  0  0  0  0  0
  152.8815  142.0659  159.4347 C   0  0  0  0  0  0  0  0  0  0  0  0
  152.3440  143.2371  158.8402 C   0  0  0  0  0  0  0  0  0  0  0  0
  151.3126  143.1521  157.8758 C   0  0  0  0  0  0  0  0  0  0  0  0
  150.8550  141.8670  157.5379 C   0  0  0  0  0  0  0  0  0  0  0  0
  148.4049  141.8396  155.1453 H   0  0  0  0  0  0  0  0  0  0  0  0
  149.7121  143.0186  155.2471 H   0  0  0  0  0  0  0  0  0  0  0  0
  148.4475  142.9919  156.4813 H   0  0  0  0  0  0  0  0  0  0  0  0
  150.3160  137.6320  157.2380 H   0  0  0  0  0  0  0  0  0  0  0  0
  151.9807  137.9549  157.6030 H   0  0  0  0  0  0  0  0  0  0  0  0
  150.7696  138.8268  159.9688 H   0  0  0  0  0  0  0  0  0  0  0  0
  152.4268  137.1108  159.3477 H   0  0  0  0  0  0  0  0  0  0  0  0
  148.5632  137.8066  158.8840 H   0  0  0  0  0  0  0  0  0  0  0  0
  149.2939  136.2633  159.3406 H   0  0  0  0  0  0  0  0  0  0  0  0
  148.2169  137.5971  163.4115 H   0  0  0  0  0  0  0  0  0  0  0  0
  146.8287  135.9464  164.6359 H   0  0  0  0  0  0  0  0  0  0  0  0
  146.4133  133.6212  161.0345 H   0  0  0  0  0  0  0  0  0  0  0  0
  147.7851  135.2442  159.8052 H   0  0  0  0  0  0  0  0  0  0  0  0
  152.8073  139.8916  159.5276 H   0  0  0  0  0  0  0  0  0  0  0  0
  153.6672  142.1536  160.1704 H   0  0  0  0  0  0  0  0  0  0  0  0
  152.7264  144.2054  159.1280 H   0  0  0  0  0  0  0  0  0  0  0  0
  150.8971  144.0385  157.4195 H   0  0  0  0  0  0  0  0  0  0  0  0
  1  2  1  0  0  0  0
  1 24  1  0  0  0  0
  1 25  1  0  0  0  0
  1 26  1  0  0  0  0
  2 23  1  0  0  0  0
  2  3  1  0  0  0  0
  3  4  2  0  0  0  0
  3  5  1  0  0  0  0
  5  6  1  0  0  0  0
  5 18  1  0  0  0  0
  6  7  1  0  0  0  0
  6 27  1  0  0  0  0
  6 28  1  0  0  0  0
  7  8  1  0  0  0  0
  7  9  1  0  0  0  0
  7 29  1  0  0  0  0
  8 30  1  0  0  0  0
  9 10  1  0  0  0  0
  9 31  1  0  0  0  0
  9 32  1  0  0  0  0
 10 11  1  0  0  0  0
 11 17  1  0  0  0  0
 11 12  2  0  0  0  0
 12 13  1  0  0  0  0
 12 33  1  0  0  0  0
 13 14  2  0  0  0  0
 13 34  1  0  0  0  0
 14 15  1  0  0  0  0
 14 16  1  0  0  0  0
 16 17  2  0  0  0  0
 16 35  1  0  0  0  0
 17 36  1  0  0  0  0
 18 23  2  0  0  0  0
 18 19  1  0  0  0  0
 19 20  2  0  0  0  0
 19 37  1  0  0  0  0
 20 21  1  0  0  0  0
 20 38  1  0  0  0  0
 21 22  2  0  0  0  0
 21 39  1  0  0  0  0
 22 23  1  0  0  0  0
 22 40  1  0  0  0  0
M  END
> <s_m_source_file>
AV-unprocessed.smi

> <i_m_source_file_index>
413

> <i_lp_mmshare_version>
43012

> <i_f3d_flags>
0

> <s_epik_input>
W2NIXTFbY0hdW2NIXVtjSF1jKGMxMiluKFtDSDNdKWMoPU8pbjJbQ0gyXVtDQEhdKFtPSF0pW0NIMl1PYzNbY0hdW2NIXWMoRilbY0hdW2NIXTM=

> <s_epik_cmdline>
J2VwaWtfcHl0aG9uJywgJy1waCcsICc3LjAnLCAnLXRuJywgJzgnLCAnLW1hJywgJzIwMCcsICctbWV0YWxfYmluZGluZycsICctaW1hZScsICc8aW5maWxlLm1hZT4nLCAnLW9tYWUnLCAnPG91dGZpbGUubWFlPic=

> <r_lp_tautomer_probability>
1

> <r_epik_Ionization_Penalty>
2.40172e-06

> <r_epik_Ionization_Penalty_Charging>
2.42369e-09

> <r_epik_Ionization_Penalty_Neutral>
2.3993e-06

> <r_epik_State_Penalty>
-0

> <r_epik_Charging_Adjusted_Penalty>
2.42369e-09

> <i_epik_Tot_Q>
0

> <i_epik_Tot_abs_Q>
0

> <r_epik_Metal_State_Penalty>
-0

> <b_epik_Metal_Only>
0

> <s_lp_Force_Field>
OPLS_2005

> <r_lp_Energy>
46.1897

> <b_lp_Chiralities_Consistent>
1

> <s_lp_Variant>
AV-unprocessed.smi:413-1

> <Gold.Version>
5.8.1

> <Gold.Id.Protein>
6NUR|6NUR_protein|mol2

> <Gold.PLP.Fitness>
49.2803

> <Gold.PLP.PLP>
-46.4965

> <Gold.PLP.part.hbond>
-2.2730

> <Gold.PLP.part.metal>
0.0000

> <Gold.PLP.part.buried>
-3.7110

> <Gold.PLP.part.nonpolar>
-41.5592

> <Gold.PLP.part.repulsive>
0.0365

> <Gold.PLP.ligand.clash>
0.0000

> <Gold.PLP.ligand.torsion>
0.9479

> <Gold.PLP.Chemscore.Hbond>
1.5440

> <Gold.PLP.Chemscore.CHOScore>
0.0000

> <Gold.PLP.Chemscore.Metal>
0.0000

> <Gold.Chemscore.Hbonds>
donor molecule, donor type, donor heavy atom, donor atom, acceptor molecule, acceptor atom, score
      P1  H  6896  6908       L1     8  1.00
      P1  H  6931  6943       L1    10  0.14
      P1  H  6934  6947       L1    10  0.08

> <Gold.PLP.Chemscore.Internal.Correction>
0.0475

> <Gold.Rescore>
     Score         DG    S(hbond)    S(metal)    S(lipo)     H(rot)  DE(clash)    DE(int)     intcor
     16.73     -18.95       1.49        0.00     122.16       2.27       1.32       0.90       ----

> <Gold.Chemscore.Fitness>
16.7268

> <Gold.Chemscore.DG>
-18.9486

> <Gold.Chemscore.ZeroCoef>
-5.4800

> <Gold.Chemscore.Hbond>
1.4936

> <Gold.Chemscore.Metal>
0.0000

> <Gold.Chemscore.Lipo>
122.1599

> <Gold.Chemscore.Internal_Hbond>
0.0000

> <Gold.Chemscore.DEClash>
1.3169

> <Gold.Chemscore.DEInternal>
0.9049

> <Gold.Chemscore.Rot>
2.2706

> <Gold.Chemscore.Internal.Correction>
   9.000000E+99

> <Gold.Chemscore.Hbonds>
donor molecule, donor type, donor heavy atom, donor atom, acceptor molecule, acceptor atom, score
      P1  H  6896  6908       L1     8  0.35
      P1  H  6931  6943       L1    10  0.03

> <Gold.Chemscore.Hbond.Weighted>
-4.9887

> <Gold.Chemscore.Metal.Weighted>
-0.0000

> <Gold.Chemscore.Lipo.Weighted>
-14.2927

> <Gold.Chemscore.Internal_Hbond.Weighted>
0.0000

> <Gold.Chemscore.DEClash.Weighted>
1.3169

> <Gold.Chemscore.DEInternal.Weighted>
0.9049

> <Gold.Chemscore.Rot.Weighted>
5.8128

> <Gold.Chemscore.Internal.Correction.Weighted>
   9.000000E+99

> <Gold.Protein.RotatedTorsions>
[ 6907 6896 6895 6894 ] final -118.13 input  -60.11 | X-H torsion
[ 7974 7965 7964 7962 ] final -172.20 input  175.53 | X-H torsion
[ 8008 7997 7996 7995 ] final   73.38 input   59.86 | X-H torsion
[ 10167 10162 10161 10158 ] final -116.32 input  -65.29 | X-H torsion
[ 10718 10713 10712 10709 ] final -123.37 input   66.30 | X-H torsion
[ 10763 10752 10751 10750 ] final  -47.37 input  -60.55 | X-H torsion
[ 11005 11000 10999 10996 ] final    7.11 input  -57.11 | X-H torsion

> <Gold.Protein.ActiveResidues>
 VAL166  LYS551  ARG553  GLY616  TRP617  ASP618  TYR619  PRO620  LYS621  CYS622 
 ASP623  PHE694  ASN695  SER759  ASP760  ASP761  ALA762  ILE779  LEU786  VAL792 
 PHE793  MET794  SER795  GLU796  ALA797  LYS798  CYS799  TRP800  GLU811  SER814 

> <Gold.Protein.RotatedAtoms>
  150.8194  133.8280  159.3145 H   0  0  0  0  0  0  0  0  0  0  0  0  # atno 6907 bound_to 6896
  151.6043  135.1043  160.0076 H   0  0  0  0  0  0  0  0  0  0  0  0  # atno 6908 bound_to 6896
  152.4283  133.7193  159.6581 H   0  0  0  0  0  0  0  0  0  0  0  0  # atno 6909 bound_to 6896
  144.7149  140.1808  143.6358 H   0  0  0  0  0  0  0  0  0  0  0  0  # atno 7974 bound_to 7965
  155.7828  140.3481  155.5307 H   0  0  0  0  0  0  0  0  0  0  0  0  # atno 8008 bound_to 7997
  155.8711  140.0986  157.1570 H   0  0  0  0  0  0  0  0  0  0  0  0  # atno 8009 bound_to 7997
  154.4017  140.1340  156.4067 H   0  0  0  0  0  0  0  0  0  0  0  0  # atno 8010 bound_to 7997
  140.0805  143.4792  152.1928 H   0  0  0  0  0  0  0  0  0  0  0  0  # atno 10167 bound_to 10162
  156.1496  130.6525  150.9894 H   0  0  0  0  0  0  0  0  0  0  0  0  # atno 10718 bound_to 10713
  154.0603  135.6619  153.4811 H   0  0  0  0  0  0  0  0  0  0  0  0  # atno 10763 bound_to 10752
  153.0429  135.5133  154.7666 H   0  0  0  0  0  0  0  0  0  0  0  0  # atno 10764 bound_to 10752
  154.6700  135.3028  154.9722 H   0  0  0  0  0  0  0  0  0  0  0  0  # atno 10765 bound_to 10752
  140.5519  134.0275  155.7940 H   0  0  0  0  0  0  0  0  0  0  0  0  # atno 11005 bound_to 11000
  145.8858  139.2348  143.1578 LP  0  0  0  0  0  0  0  0  0  0  0  0  # atno 17320 bound_to 7965
  145.9951  140.8569  143.0047 LP  0  0  0  0  0  0  0  0  0  0  0  0  # atno 17321 bound_to 7965
  139.5782  144.7498  151.3708 LP  0  0  0  0  0  0  0  0  0  0  0  0  # atno 17342 bound_to 10162
  140.7080  143.7464  150.7516 LP  0  0  0  0  0  0  0  0  0  0  0  0  # atno 17343 bound_to 10162
  157.6646  131.0874  150.7759 LP  0  0  0  0  0  0  0  0  0  0  0  0  # atno 17370 bound_to 10713
  156.7828  130.4865  149.5398 LP  0  0  0  0  0  0  0  0  0  0  0  0  # atno 17371 bound_to 10713
  141.1166  133.9529  157.2810 LP  0  0  0  0  0  0  0  0  0  0  0  0  # atno 17394 bound_to 11000
  139.9451  135.0185  156.8827 LP  0  0  0  0  0  0  0  0  0  0  0  0  # atno 17395 bound_to 11000

$$$$
