AV-unprocessed.smi:3094|AV-procd|sdf|11791|dock2
  -GOLD-   2272017163D 1   1.00000     0.00000
 Structure written by MMmdl.
 29 30  0  0  0  0  0  0  0  0  1 V2000
  149.4824  141.6958  154.9580 C   0  0  0  0  0  0  0  0  0  0  0  0
  150.1932  141.2902  156.2561 C   0  0  1  0  0  0  0  0  0  0  0  0
  151.5829  140.6835  155.9688 C   0  0  0  0  0  0  0  0  0  0  0  0
  151.5137  139.2867  155.5802 N   0  0  0  0  0  0  0  0  0  0  0  0
  150.8324  138.7527  154.4942 C   0  0  0  0  0  0  0  0  0  0  0  0
  151.0404  137.3926  154.5304 C   0  0  0  0  0  0  0  0  0  0  0  0
  151.8482  137.0701  155.6184 N   0  0  0  0  0  0  0  0  0  0  0  0
  152.0905  138.2423  156.1906 C   0  0  0  0  0  0  0  0  0  0  0  0
  150.3050  142.4630  157.1232 N   0  0  0  0  0  0  0  0  0  0  0  0
  150.7647  142.4672  158.3847 C   0  0  0  0  0  0  0  0  0  0  0  0
  151.1426  141.4501  158.9676 O   0  0  0  0  0  0  0  0  0  0  0  0
  150.7933  143.8217  159.0125 C   0  0  0  0  0  0  0  0  0  0  0  0
  151.6548  144.8777  158.3508 C   0  0  0  0  0  0  0  0  0  0  0  0
  152.0853  144.2724  159.6635 C   0  0  0  0  0  0  0  0  0  0  0  0
  149.3603  140.8394  154.2943 H   0  0  0  0  0  0  0  0  0  0  0  0
  150.0445  142.4582  154.4174 H   0  0  0  0  0  0  0  0  0  0  0  0
  148.4887  142.0957  155.1623 H   0  0  0  0  0  0  0  0  0  0  0  0
  149.5722  140.5316  156.7363 H   0  0  0  0  0  0  0  0  0  0  0  0
  152.0691  141.2278  155.1583 H   0  0  0  0  0  0  0  0  0  0  0  0
  152.2323  140.7779  156.8407 H   0  0  0  0  0  0  0  0  0  0  0  0
  150.2650  139.3666  153.8103 H   0  0  0  0  0  0  0  0  0  0  0  0
  150.6737  136.6275  153.8618 H   0  0  0  0  0  0  0  0  0  0  0  0
  152.6951  138.3421  157.0803 H   0  0  0  0  0  0  0  0  0  0  0  0
  150.0200  143.3468  156.7262 H   0  0  0  0  0  0  0  0  0  0  0  0
  149.8666  144.1663  159.4692 H   0  0  0  0  0  0  0  0  0  0  0  0
  152.2214  144.6035  157.4623 H   0  0  0  0  0  0  0  0  0  0  0  0
  151.2761  145.8977  158.3571 H   0  0  0  0  0  0  0  0  0  0  0  0
  151.9994  144.8830  160.5601 H   0  0  0  0  0  0  0  0  0  0  0  0
  152.9413  143.5999  159.6464 H   0  0  0  0  0  0  0  0  0  0  0  0
  1  2  1  0  0  0  0
  1 15  1  0  0  0  0
  1 16  1  0  0  0  0
  1 17  1  0  0  0  0
  2  3  1  0  0  0  0
  2  9  1  0  0  0  0
  2 18  1  0  0  0  0
  3  4  1  0  0  0  0
  3 19  1  0  0  0  0
  3 20  1  0  0  0  0
  4  8  1  0  0  0  0
  4  5  1  0  0  0  0
  5  6  2  0  0  0  0
  5 21  1  0  0  0  0
  6  7  1  0  0  0  0
  6 22  1  0  0  0  0
  7  8  2  0  0  0  0
  8 23  1  0  0  0  0
  9 10  1  0  0  0  0
  9 24  1  0  0  0  0
 10 11  2  0  0  0  0
 10 12  1  0  0  0  0
 12 14  1  0  0  0  0
 12 13  1  0  0  0  0
 12 25  1  0  0  0  0
 13 14  1  0  0  0  0
 13 26  1  0  0  0  0
 13 27  1  0  0  0  0
 14 28  1  0  0  0  0
 14 29  1  0  0  0  0
M  END
> <s_m_source_file>
AV-unprocessed.smi

> <i_m_source_file_index>
3094

> <i_lp_mmshare_version>
43012

> <i_f3d_flags>
0

> <s_epik_input>
W0NIMl0xW0NIMl1bQ0hdMUMoPU8pW05IXVtDQEhdKFtDSDNdKVtDSDJdbjJbY0hdW2NIXW5bY0hdMg==

> <s_epik_cmdline>
J2VwaWtfcHl0aG9uJywgJy1waCcsICc3LjAnLCAnLXRuJywgJzgnLCAnLW1hJywgJzIwMCcsICctbWV0YWxfYmluZGluZycsICctaW1hZScsICc8aW5maWxlLm1hZT4nLCAnLW9tYWUnLCAnPG91dGZpbGUubWFlPic=

> <r_lp_tautomer_probability>
1

> <r_epik_Ionization_Penalty>
0.642614

> <r_epik_Ionization_Penalty_Charging>
0.642614

> <r_epik_Ionization_Penalty_Neutral>
4.09963e-08

> <r_epik_State_Penalty>
0.660429

> <r_epik_Charging_Adjusted_Penalty>
1.30304

> <i_epik_Tot_Q>
0

> <i_epik_Tot_abs_Q>
0

> <r_epik_Metal_State_Penalty>
0.31224

> <b_epik_Metal_Only>
0

> <s_lp_Force_Field>
OPLS_2005

> <r_lp_Energy>
7.79034

> <b_lp_Chiralities_Consistent>
1

> <s_lp_Variant>
AV-unprocessed.smi:3094-4

> <Gold.Version>
5.8.1

> <Gold.Id.Protein>
6NUR|6NUR_protein|mol2

> <Gold.PLP.Fitness>
41.9771

> <Gold.PLP.PLP>
-31.8585

> <Gold.PLP.part.hbond>
-2.0000

> <Gold.PLP.part.metal>
0.0000

> <Gold.PLP.part.buried>
-2.5983

> <Gold.PLP.part.nonpolar>
-26.9632

> <Gold.PLP.part.repulsive>
0.0733

> <Gold.PLP.ligand.clash>
0.0000

> <Gold.PLP.ligand.torsion>
0.3271

> <Gold.PLP.Chemscore.Hbond>
1.9760

> <Gold.PLP.Chemscore.CHOScore>
1.5829

> <Gold.PLP.Chemscore.Metal>
0.0000

> <Gold.Chemscore.Hbonds>
donor molecule, donor type, donor heavy atom, donor atom, acceptor molecule, acceptor atom, score
      L1  H     9    24       P1  8028  0.89
      P1  H 10752 10763       L1     7  0.79
      L1  C     5    21       P1  7957  0.32
      L1  C     6    22       P1  7948  0.33
      L1  C     6    22       P1  7949  0.67

> <Gold.PLP.Chemscore.Internal.Correction>
0.0959

> <Gold.Rescore>
     Score         DG    S(hbond)    S(metal)    S(lipo)     H(rot)  DE(clash)    DE(int)     intcor
     14.67     -15.72       1.83        0.00      75.41       1.83       0.75       0.30       ----

> <Gold.Chemscore.Fitness>
14.6662

> <Gold.Chemscore.DG>
-15.7206

> <Gold.Chemscore.ZeroCoef>
-5.4800

> <Gold.Chemscore.Hbond>
1.8306

> <Gold.Chemscore.Metal>
0.0000

> <Gold.Chemscore.Lipo>
75.4121

> <Gold.Chemscore.Internal_Hbond>
0.0000

> <Gold.Chemscore.DEClash>
0.7508

> <Gold.Chemscore.DEInternal>
0.3036

> <Gold.Chemscore.Rot>
1.8347

> <Gold.Chemscore.Internal.Correction>
   9.000000E+99

> <Gold.Chemscore.Hbonds>
donor molecule, donor type, donor heavy atom, donor atom, acceptor molecule, acceptor atom, score
      L1  H     9    24       P1  8028  0.87
      P1  H 10752 10763       L1     7  0.15

> <Gold.Chemscore.Hbond.Weighted>
-6.1142

> <Gold.Chemscore.Metal.Weighted>
-0.0000

> <Gold.Chemscore.Lipo.Weighted>
-8.8232

> <Gold.Chemscore.Internal_Hbond.Weighted>
0.0000

> <Gold.Chemscore.DEClash.Weighted>
0.7508

> <Gold.Chemscore.DEInternal.Weighted>
0.3036

> <Gold.Chemscore.Rot.Weighted>
4.6969

> <Gold.Chemscore.Internal.Correction.Weighted>
   9.000000E+99

> <Gold.Protein.RotatedTorsions>
[ 6907 6896 6895 6894 ] final  -65.92 input  -60.11 | X-H torsion
[ 7974 7965 7964 7962 ] final   86.00 input  175.53 | X-H torsion
[ 8008 7997 7996 7995 ] final  149.23 input   59.86 | X-H torsion
[ 10167 10162 10161 10158 ] final  -91.34 input  -65.29 | X-H torsion
[ 10718 10713 10712 10709 ] final   -2.55 input   66.30 | X-H torsion
[ 10763 10752 10751 10750 ] final   65.34 input  -60.55 | X-H torsion
[ 11005 11000 10999 10996 ] final   71.57 input  -57.11 | X-H torsion

> <Gold.Protein.ActiveResidues>
 VAL166  LYS551  ARG553  GLY616  TRP617  ASP618  TYR619  PRO620  LYS621  CYS622 
 ASP623  PHE694  ASN695  SER759  ASP760  ASP761  ALA762  ILE779  LEU786  VAL792 
 PHE793  MET794  SER795  GLU796  ALA797  LYS798  CYS799  TRP800  GLU811  SER814 

> <Gold.Protein.RotatedAtoms>
  150.7496  134.6094  159.6077 H   0  0  0  0  0  0  0  0  0  0  0  0  # atno 6907 bound_to 6896
  152.3432  134.7103  160.0267 H   0  0  0  0  0  0  0  0  0  0  0  0  # atno 6908 bound_to 6896
  151.7548  133.3294  159.3438 H   0  0  0  0  0  0  0  0  0  0  0  0  # atno 6909 bound_to 6896
  145.5781  139.2321  143.2368 H   0  0  0  0  0  0  0  0  0  0  0  0  # atno 7974 bound_to 7965
  156.2762  140.2107  156.5825 H   0  0  0  0  0  0  0  0  0  0  0  0  # atno 8008 bound_to 7997
  154.7047  140.0517  157.0515 H   0  0  0  0  0  0  0  0  0  0  0  0  # atno 8009 bound_to 7997
  155.0687  140.3174  155.4640 H   0  0  0  0  0  0  0  0  0  0  0  0  # atno 8010 bound_to 7997
  140.3459  143.2917  151.9782 H   0  0  0  0  0  0  0  0  0  0  0  0  # atno 10167 bound_to 10162
  156.7891  130.5356  149.5738 H   0  0  0  0  0  0  0  0  0  0  0  0  # atno 10718 bound_to 10713
  153.0092  135.5360  154.6652 H   0  0  0  0  0  0  0  0  0  0  0  0  # atno 10763 bound_to 10752
  154.5851  135.2853  155.0695 H   0  0  0  0  0  0  0  0  0  0  0  0  # atno 10764 bound_to 10752
  154.1810  135.6516  153.5086 H   0  0  0  0  0  0  0  0  0  0  0  0  # atno 10765 bound_to 10752
  139.9536  134.7183  156.0804 H   0  0  0  0  0  0  0  0  0  0  0  0  # atno 11005 bound_to 11000
  146.1736  140.6607  142.9221 LP  0  0  0  0  0  0  0  0  0  0  0  0  # atno 17320 bound_to 7965
  144.7407  140.4933  143.6871 LP  0  0  0  0  0  0  0  0  0  0  0  0  # atno 17321 bound_to 7965
  139.4833  144.6117  151.7420 LP  0  0  0  0  0  0  0  0  0  0  0  0  # atno 17342 bound_to 10162
  140.5265  144.0797  150.6039 LP  0  0  0  0  0  0  0  0  0  0  0  0  # atno 17343 bound_to 10162
  156.1170  130.6082  151.0136 LP  0  0  0  0  0  0  0  0  0  0  0  0  # atno 17370 bound_to 10713
  157.6609  131.0881  150.7840 LP  0  0  0  0  0  0  0  0  0  0  0  0  # atno 17371 bound_to 10713
  141.1204  133.6614  156.3200 LP  0  0  0  0  0  0  0  0  0  0  0  0  # atno 17394 bound_to 11000
  140.5661  134.5887  157.5446 LP  0  0  0  0  0  0  0  0  0  0  0  0  # atno 17395 bound_to 11000

$$$$
