AV-unprocessed.smi:438|AV-procd|sdf|2577|dock9
  -GOLD-   2262022563D 1   1.00000     0.00000
 Structure written by MMmdl.
 48 49  0  0  0  0  0  0  0  0  1 V2000
  142.4083  135.4961  154.2109 C   0  0  0  0  0  0  0  0  0  0  0  0
  143.9210  135.4773  154.3329 C   0  0  0  0  0  0  0  0  0  0  0  0
  144.4232  135.9551  155.4928 N   0  0  0  0  0  0  0  0  0  0  0  0
  145.7504  135.9360  155.6202 C   0  0  0  0  0  0  0  0  0  0  0  0
  146.4192  136.5825  157.1352 S   0  0  0  0  0  0  0  0  0  0  0  0
  144.9280  136.6615  158.1726 C   0  0  0  0  0  0  0  0  0  0  0  0
  145.2600  136.9839  159.6261 C   0  0  0  0  0  0  0  0  0  0  0  0
  145.8177  138.0440  159.9083 O   0  0  0  0  0  0  0  0  0  0  0  0
  144.9013  136.0634  160.5351 N   0  0  0  0  0  0  0  0  0  0  0  0
  145.0716  136.1666  161.9857 C   0  0  2  0  0  0  0  0  0  0  0  0
  146.4806  136.7012  162.3135 C   0  0  0  0  0  0  0  0  0  0  0  0
  147.5824  135.6740  162.0007 C   0  0  0  0  0  0  0  0  0  0  0  0
  147.3165  134.3392  162.7121 C   0  0  0  0  0  0  0  0  0  0  0  0
  145.9238  133.7886  162.3657 C   0  0  0  0  0  0  0  0  0  0  0  0
  144.8125  134.8091  162.6887 C   0  0  2  0  0  0  0  0  0  0  0  0
  143.4162  134.2335  162.3950 C   0  0  0  0  0  0  0  0  0  0  0  0
  146.6432  135.5079  154.7279 N   0  0  0  0  0  0  0  0  0  0  0  0
  146.1571  135.0283  153.5630 C   0  0  0  0  0  0  0  0  0  0  0  0
  147.0507  134.5717  152.6382 O   0  0  0  0  0  0  0  0  0  0  0  0
  144.7646  134.9906  153.3013 C   0  0  0  0  0  0  0  0  0  0  0  0
  144.2165  134.4483  151.9871 C   0  0  0  0  0  0  0  0  0  0  0  0
  144.6876  135.2715  150.7807 C   0  0  0  0  0  0  0  0  0  0  0  0
  144.1533  134.7281  149.5936 O   0  0  0  0  0  0  0  0  0  0  0  0
  142.0341  134.5199  153.9018 H   0  0  0  0  0  0  0  0  0  0  0  0
  142.0987  136.2364  153.4729 H   0  0  0  0  0  0  0  0  0  0  0  0
  141.9353  135.7483  155.1611 H   0  0  0  0  0  0  0  0  0  0  0  0
  144.2601  137.4252  157.7731 H   0  0  0  0  0  0  0  0  0  0  0  0
  144.3832  135.7179  158.1362 H   0  0  0  0  0  0  0  0  0  0  0  0
  144.4449  135.2288  160.1966 H   0  0  0  0  0  0  0  0  0  0  0  0
  144.3557  136.8895  162.3805 H   0  0  0  0  0  0  0  0  0  0  0  0
  146.6686  137.6284  161.7707 H   0  0  0  0  0  0  0  0  0  0  0  0
  146.5266  136.9580  163.3726 H   0  0  0  0  0  0  0  0  0  0  0  0
  147.6414  135.5101  160.9241 H   0  0  0  0  0  0  0  0  0  0  0  0
  148.5527  136.0685  162.3043 H   0  0  0  0  0  0  0  0  0  0  0  0
  148.0818  133.6126  162.4377 H   0  0  0  0  0  0  0  0  0  0  0  0
  147.3957  134.4790  163.7909 H   0  0  0  0  0  0  0  0  0  0  0  0
  145.8890  133.5213  161.3087 H   0  0  0  0  0  0  0  0  0  0  0  0
  145.7521  132.8653  162.9201 H   0  0  0  0  0  0  0  0  0  0  0  0
  144.8517  134.9963  163.7629 H   0  0  0  0  0  0  0  0  0  0  0  0
  143.3066  133.9519  161.3473 H   0  0  0  0  0  0  0  0  0  0  0  0
  142.6361  134.9584  162.6290 H   0  0  0  0  0  0  0  0  0  0  0  0
  143.2276  133.3427  162.9944 H   0  0  0  0  0  0  0  0  0  0  0  0
  147.7357  135.1965  152.4563 H   0  0  0  0  0  0  0  0  0  0  0  0
  144.5074  133.4051  151.8644 H   0  0  0  0  0  0  0  0  0  0  0  0
  143.1267  134.4405  152.0288 H   0  0  0  0  0  0  0  0  0  0  0  0
  144.3671  136.3098  150.8721 H   0  0  0  0  0  0  0  0  0  0  0  0
  145.7758  135.2696  150.7116 H   0  0  0  0  0  0  0  0  0  0  0  0
  144.7977  134.8124  148.9075 H   0  0  0  0  0  0  0  0  0  0  0  0
  1  2  1  0  0  0  0
  1 24  1  0  0  0  0
  1 25  1  0  0  0  0
  1 26  1  0  0  0  0
  2 20  1  0  0  0  0
  2  3  2  0  0  0  0
  3  4  1  0  0  0  0
  4  5  1  0  0  0  0
  4 17  2  0  0  0  0
  5  6  1  0  0  0  0
  6  7  1  0  0  0  0
  6 27  1  0  0  0  0
  6 28  1  0  0  0  0
  7  8  2  0  0  0  0
  7  9  1  0  0  0  0
  9 10  1  0  0  0  0
  9 29  1  0  0  0  0
 10 15  1  0  0  0  0
 10 11  1  0  0  0  0
 10 30  1  0  0  0  0
 11 12  1  0  0  0  0
 11 31  1  0  0  0  0
 11 32  1  0  0  0  0
 12 13  1  0  0  0  0
 12 33  1  0  0  0  0
 12 34  1  0  0  0  0
 13 14  1  0  0  0  0
 13 35  1  0  0  0  0
 13 36  1  0  0  0  0
 14 15  1  0  0  0  0
 14 37  1  0  0  0  0
 14 38  1  0  0  0  0
 15 16  1  0  0  0  0
 15 39  1  0  0  0  0
 16 40  1  0  0  0  0
 16 41  1  0  0  0  0
 16 42  1  0  0  0  0
 17 18  1  0  0  0  0
 18 19  1  0  0  0  0
 18 20  2  0  0  0  0
 19 43  1  0  0  0  0
 20 21  1  0  0  0  0
 21 22  1  0  0  0  0
 21 44  1  0  0  0  0
 21 45  1  0  0  0  0
 22 23  1  0  0  0  0
 22 46  1  0  0  0  0
 22 47  1  0  0  0  0
 23 48  1  0  0  0  0
M  END
> <s_m_source_file>
AV-unprocessed.smi

> <i_m_source_file_index>
438

> <i_lp_mmshare_version>
43012

> <i_f3d_flags>
0

> <s_epik_input>
W09IXVtDSDJdW0NIMl1jMWMoW09IXSluYyhuYzFbQ0gzXSlTW0NIMl1DKD1PKVtOSF1bQ0BASF0yW0NIMl1bQ0gyXVtDSDJdW0NIMl1bQ0BIXTJbQ0gzXQ==

> <s_epik_cmdline>
J2VwaWtfcHl0aG9uJywgJy1waCcsICc3LjAnLCAnLXRuJywgJzgnLCAnLW1hJywgJzIwMCcsICctbWV0YWxfYmluZGluZycsICctaW1hZScsICc8aW5maWxlLm1hZT4nLCAnLW9tYWUnLCAnPG91dGZpbGUubWFlPic=

> <r_lp_tautomer_probability>
0.0660145

> <r_epik_Ionization_Penalty>
2.91405

> <r_epik_Ionization_Penalty_Charging>
0

> <r_epik_Ionization_Penalty_Neutral>
2.91405

> <r_epik_State_Penalty>
2.44767

> <r_epik_Charging_Adjusted_Penalty>
2.44767

> <i_epik_Tot_Q>
0

> <i_epik_Tot_abs_Q>
0

> <r_epik_Metal_State_Penalty>
3.04288

> <b_epik_Metal_Only>
0

> <s_lp_Force_Field>
OPLS_2005

> <r_lp_Energy>
3.55381

> <b_lp_Chiralities_Consistent>
1

> <s_lp_Variant>
AV-unprocessed.smi:438-15

> <Gold.Version>
5.8.1

> <Gold.Id.Protein>
6NUR|6NUR_protein|mol2

> <Gold.PLP.Fitness>
41.4926

> <Gold.PLP.PLP>
-33.7730

> <Gold.PLP.part.hbond>
-3.6960

> <Gold.PLP.part.metal>
0.0000

> <Gold.PLP.part.buried>
-5.8848

> <Gold.PLP.part.nonpolar>
-24.3813

> <Gold.PLP.part.repulsive>
0.0968

> <Gold.PLP.ligand.clash>
0.0000

> <Gold.PLP.ligand.torsion>
0.3428

> <Gold.PLP.Chemscore.Hbond>
2.7840

> <Gold.PLP.Chemscore.CHOScore>
0.0000

> <Gold.PLP.Chemscore.Metal>
0.0000

> <Gold.Chemscore.Hbonds>
donor molecule, donor type, donor heavy atom, donor atom, acceptor molecule, acceptor atom, score
      L1  H    19    43       P1  7948  1.00
      L1  H    23    48       P1  7921  1.00
      P1  H  6934  6947       L1     8  0.82

> <Gold.PLP.Chemscore.Internal.Correction>
0.0532

> <Gold.Rescore>
     Score         DG    S(hbond)    S(metal)    S(lipo)     H(rot)  DE(clash)    DE(int)     intcor
     14.00     -15.36       2.97        0.00      74.82       3.44       0.07       1.29       ----

> <Gold.Chemscore.Fitness>
13.9995

> <Gold.Chemscore.DG>
-15.3568

> <Gold.Chemscore.ZeroCoef>
-5.4800

> <Gold.Chemscore.Hbond>
2.9698

> <Gold.Chemscore.Metal>
0.0000

> <Gold.Chemscore.Lipo>
74.8178

> <Gold.Chemscore.Internal_Hbond>
0.0000

> <Gold.Chemscore.DEClash>
0.0718

> <Gold.Chemscore.DEInternal>
1.2855

> <Gold.Chemscore.Rot>
3.4359

> <Gold.Chemscore.Internal.Correction>
   9.000000E+99

> <Gold.Chemscore.Hbonds>
donor molecule, donor type, donor heavy atom, donor atom, acceptor molecule, acceptor atom, score
      L1  H    19    43       P1  7948  0.99
      L1  H    23    48       P1  7921  1.00
      P1  H  6934  6947       L1     8  0.81

> <Gold.Chemscore.Hbond.Weighted>
-9.9191

> <Gold.Chemscore.Metal.Weighted>
-0.0000

> <Gold.Chemscore.Lipo.Weighted>
-8.7537

> <Gold.Chemscore.Internal_Hbond.Weighted>
0.0000

> <Gold.Chemscore.DEClash.Weighted>
0.0718

> <Gold.Chemscore.DEInternal.Weighted>
1.2855

> <Gold.Chemscore.Rot.Weighted>
8.7960

> <Gold.Chemscore.Internal.Correction.Weighted>
   9.000000E+99

> <Gold.Protein.RotatedTorsions>
[ 6907 6896 6895 6894 ] final   -0.54 input  -60.11 | X-H torsion
[ 7974 7965 7964 7962 ] final  155.64 input  175.53 | X-H torsion
[ 8008 7997 7996 7995 ] final -161.13 input   59.86 | X-H torsion
[ 10167 10162 10161 10158 ] final -125.91 input  -65.29 | X-H torsion
[ 10718 10713 10712 10709 ] final  -63.42 input   66.30 | X-H torsion
[ 10763 10752 10751 10750 ] final -150.76 input  -60.55 | X-H torsion
[ 11005 11000 10999 10996 ] final  153.82 input  -57.11 | X-H torsion

> <Gold.Protein.ActiveResidues>
 VAL166  LYS551  ARG553  GLY616  TRP617  ASP618  TYR619  PRO620  LYS621  CYS622 
 ASP623  PHE694  ASN695  SER759  ASP760  ASP761  ALA762  ILE779  LEU786  VAL792 
 PHE793  MET794  SER795  GLU796  ALA797  LYS798  CYS799  TRP800  GLU811  SER814 

> <Gold.Protein.RotatedAtoms>
  151.5606  135.1065  159.9971 H   0  0  0  0  0  0  0  0  0  0  0  0  # atno 6907 bound_to 6896
  152.4448  133.7512  159.6706 H   0  0  0  0  0  0  0  0  0  0  0  0  # atno 6908 bound_to 6896
  150.8362  133.7942  159.3102 H   0  0  0  0  0  0  0  0  0  0  0  0  # atno 6909 bound_to 6896
  144.8012  139.7096  143.6181 H   0  0  0  0  0  0  0  0  0  0  0  0  # atno 7974 bound_to 7965
  155.7876  140.0874  157.2026 H   0  0  0  0  0  0  0  0  0  0  0  0  # atno 8008 bound_to 7997
  154.3987  140.1496  156.3183 H   0  0  0  0  0  0  0  0  0  0  0  0  # atno 8009 bound_to 7997
  155.8591  140.3431  155.5747 H   0  0  0  0  0  0  0  0  0  0  0  0  # atno 8010 bound_to 7997
  139.9770  143.5783  152.2392 H   0  0  0  0  0  0  0  0  0  0  0  0  # atno 10167 bound_to 10162
  156.0792  130.4220  150.1274 H   0  0  0  0  0  0  0  0  0  0  0  0  # atno 10718 bound_to 10713
  154.8099  135.3276  154.7333 H   0  0  0  0  0  0  0  0  0  0  0  0  # atno 10763 bound_to 10752
  153.7984  135.6905  153.4864 H   0  0  0  0  0  0  0  0  0  0  0  0  # atno 10764 bound_to 10752
  153.1870  135.4565  155.0047 H   0  0  0  0  0  0  0  0  0  0  0  0  # atno 10765 bound_to 10752
  140.1432  134.8725  157.2359 H   0  0  0  0  0  0  0  0  0  0  0  0  # atno 11005 bound_to 11000
  146.2294  139.5784  142.9565 LP  0  0  0  0  0  0  0  0  0  0  0  0  # atno 17320 bound_to 7965
  145.5549  141.0410  143.2258 LP  0  0  0  0  0  0  0  0  0  0  0  0  # atno 17321 bound_to 7965
  139.6438  144.7656  151.2285 LP  0  0  0  0  0  0  0  0  0  0  0  0  # atno 17342 bound_to 10162
  140.7502  143.6273  150.8456 LP  0  0  0  0  0  0  0  0  0  0  0  0  # atno 17343 bound_to 10162
  156.9309  130.9713  151.3533 LP  0  0  0  0  0  0  0  0  0  0  0  0  # atno 17370 bound_to 10713
  157.5902  130.8438  149.8647 LP  0  0  0  0  0  0  0  0  0  0  0  0  # atno 17371 bound_to 10713
  140.2696  134.3476  155.7378 LP  0  0  0  0  0  0  0  0  0  0  0  0  # atno 17394 bound_to 11000
  141.2189  133.7415  156.9202 LP  0  0  0  0  0  0  0  0  0  0  0  0  # atno 17395 bound_to 11000

$$$$
