AV-unprocessed.smi:1806|AV-procd|sdf|7299|dock4
  -GOLD-   22720 8553D 1   1.00000     0.00000
 Structure written by MMmdl.
 28 29  0  0  0  0  0  0  0  0  1 V2000
  151.2724  145.4457  160.1055 C   0  0  0  0  0  0  0  0  0  0  0  0
  151.8768  144.0580  160.1462 C   0  0  0  0  0  0  0  0  0  0  0  0
  152.5867  143.6091  161.2771 C   0  0  0  0  0  0  0  0  0  0  0  0
  153.1225  142.3091  161.2502 C   0  0  0  0  0  0  0  0  0  0  0  0
  152.9260  141.5168  160.1027 C   0  0  0  0  0  0  0  0  0  0  0  0
  152.2001  142.0427  159.0104 C   0  0  0  0  0  0  0  0  0  0  0  0
  152.0588  141.1644  157.9036 N   0  0  0  0  0  0  0  0  0  0  0  0
  151.2873  141.3099  156.8085 C   0  0  0  0  0  0  0  0  0  0  0  0
  150.5555  142.2806  156.6060 O   0  0  0  0  0  0  0  0  0  0  0  0
  151.4308  140.1759  155.9030 C   0  0  0  0  0  0  0  0  0  0  0  0
  150.4318  139.8833  155.0384 C   0  0  0  0  0  0  0  0  0  0  0  0
  150.4576  138.8156  154.1763 O   0  0  0  0  0  0  0  0  0  0  0  0
  151.4974  137.8773  154.4255 C   0  0  0  0  0  0  0  0  0  0  0  0
  152.8012  138.6067  154.7805 C   0  0  0  0  0  0  0  0  0  0  0  0
  152.6016  139.4491  155.9107 O   0  0  0  0  0  0  0  0  0  0  0  0
  151.6883  143.2983  159.0458 N   0  0  0  0  0  0  0  0  0  0  0  0
  151.5657  146.0302  160.9778 H   0  0  0  0  0  0  0  0  0  0  0  0
  150.1840  145.3832  160.0868 H   0  0  0  0  0  0  0  0  0  0  0  0
  151.6017  145.9789  159.2131 H   0  0  0  0  0  0  0  0  0  0  0  0
  152.7194  144.2413  162.1428 H   0  0  0  0  0  0  0  0  0  0  0  0
  153.6752  141.9254  162.0951 H   0  0  0  0  0  0  0  0  0  0  0  0
  153.3303  140.5155  160.0660 H   0  0  0  0  0  0  0  0  0  0  0  0
  152.6104  140.3198  157.9447 H   0  0  0  0  0  0  0  0  0  0  0  0
  149.5013  140.4282  154.9649 H   0  0  0  0  0  0  0  0  0  0  0  0
  151.1967  137.2169  155.2400 H   0  0  0  0  0  0  0  0  0  0  0  0
  151.6362  137.2547  153.5415 H   0  0  0  0  0  0  0  0  0  0  0  0
  153.5911  137.8899  155.0047 H   0  0  0  0  0  0  0  0  0  0  0  0
  153.1435  139.2095  153.9381 H   0  0  0  0  0  0  0  0  0  0  0  0
  1  2  1  0  0  0  0
  1 17  1  0  0  0  0
  1 18  1  0  0  0  0
  1 19  1  0  0  0  0
  2 16  1  0  0  0  0
  2  3  2  0  0  0  0
  3  4  1  0  0  0  0
  3 20  1  0  0  0  0
  4  5  2  0  0  0  0
  4 21  1  0  0  0  0
  5  6  1  0  0  0  0
  5 22  1  0  0  0  0
  6  7  1  0  0  0  0
  6 16  2  0  0  0  0
  7  8  1  0  0  0  0
  7 23  1  0  0  0  0
  8  9  2  0  0  0  0
  8 10  1  0  0  0  0
 10 15  1  0  0  0  0
 10 11  2  0  0  0  0
 11 12  1  0  0  0  0
 11 24  1  0  0  0  0
 12 13  1  0  0  0  0
 13 14  1  0  0  0  0
 13 25  1  0  0  0  0
 13 26  1  0  0  0  0
 14 15  1  0  0  0  0
 14 27  1  0  0  0  0
 14 28  1  0  0  0  0
M  END
> <s_m_source_file>
AV-unprocessed.smi

> <i_m_source_file_index>
1806

> <i_lp_mmshare_version>
43012

> <i_f3d_flags>
0

> <s_epik_input>
W0NIM11jMVtjSF1bY0hdW2NIXWMobjEpW05IXUMoPU8pQzI9W0NIXU9bQ0gyXVtDSDJdTzI=

> <s_epik_cmdline>
J2VwaWtfcHl0aG9uJywgJy1waCcsICc3LjAnLCAnLXRuJywgJzgnLCAnLW1hJywgJzIwMCcsICctbWV0YWxfYmluZGluZycsICctaW1hZScsICc8aW5maWxlLm1hZT4nLCAnLW9tYWUnLCAnPG91dGZpbGUubWFlPic=

> <r_lp_tautomer_probability>
1

> <r_epik_Ionization_Penalty>
0.000170398

> <r_epik_Ionization_Penalty_Charging>
0

> <r_epik_Ionization_Penalty_Neutral>
0.000170398

> <r_epik_State_Penalty>
-0

> <r_epik_Charging_Adjusted_Penalty>
0

> <i_epik_Tot_Q>
0

> <i_epik_Tot_abs_Q>
0

> <r_epik_Metal_State_Penalty>
0.0293809

> <b_epik_Metal_Only>
0

> <s_lp_Force_Field>
OPLS_2005

> <r_lp_Energy>
3.70878

> <b_lp_Chiralities_Consistent>
1

> <s_lp_Variant>
AV-unprocessed.smi:1806-1

> <Gold.Version>
5.8.1

> <Gold.Id.Protein>
6NUR|6NUR_protein|mol2

> <Gold.PLP.Fitness>
41.1789

> <Gold.PLP.PLP>
-38.7697

> <Gold.PLP.part.hbond>
-1.0000

> <Gold.PLP.part.metal>
0.0000

> <Gold.PLP.part.buried>
-6.0601

> <Gold.PLP.part.nonpolar>
-32.4483

> <Gold.PLP.part.repulsive>
0.6782

> <Gold.PLP.ligand.clash>
0.0000

> <Gold.PLP.ligand.torsion>
0.2960

> <Gold.PLP.Chemscore.Hbond>
1.0000

> <Gold.PLP.Chemscore.CHOScore>
0.0000

> <Gold.PLP.Chemscore.Metal>
0.0000

> <Gold.Chemscore.Hbonds>
donor molecule, donor type, donor heavy atom, donor atom, acceptor molecule, acceptor atom, score
      P1  H  7997  8008       L1    15  1.00

> <Gold.PLP.Chemscore.Internal.Correction>
0.0012

> <Gold.Rescore>
     Score         DG    S(hbond)    S(metal)    S(lipo)     H(rot)  DE(clash)    DE(int)     intcor
     16.87     -18.60       0.83        0.00      88.58       0.00       0.08       1.65       ----

> <Gold.Chemscore.Fitness>
16.8682

> <Gold.Chemscore.DG>
-18.6011

> <Gold.Chemscore.ZeroCoef>
-5.4800

> <Gold.Chemscore.Hbond>
0.8255

> <Gold.Chemscore.Metal>
0.0000

> <Gold.Chemscore.Lipo>
88.5806

> <Gold.Chemscore.Internal_Hbond>
0.0000

> <Gold.Chemscore.DEClash>
0.0841

> <Gold.Chemscore.DEInternal>
1.6487

> <Gold.Chemscore.Rot>
0.0000

> <Gold.Chemscore.Internal.Correction>
   9.000000E+99

> <Gold.Chemscore.Hbonds>
donor molecule, donor type, donor heavy atom, donor atom, acceptor molecule, acceptor atom, score
      P1  H  7997  8008       L1    15  0.45

> <Gold.Chemscore.Hbond.Weighted>
-2.7571

> <Gold.Chemscore.Metal.Weighted>
-0.0000

> <Gold.Chemscore.Lipo.Weighted>
-10.3639

> <Gold.Chemscore.Internal_Hbond.Weighted>
0.0000

> <Gold.Chemscore.DEClash.Weighted>
0.0841

> <Gold.Chemscore.DEInternal.Weighted>
1.6487

> <Gold.Chemscore.Rot.Weighted>
0.0000

> <Gold.Chemscore.Internal.Correction.Weighted>
   9.000000E+99

> <Gold.Protein.RotatedTorsions>
[ 6907 6896 6895 6894 ] final -123.35 input  -60.11 | X-H torsion
[ 7974 7965 7964 7962 ] final -102.62 input  175.53 | X-H torsion
[ 8008 7997 7996 7995 ] final  -41.64 input   59.86 | X-H torsion
[ 10167 10162 10161 10158 ] final  120.37 input  -65.29 | X-H torsion
[ 10718 10713 10712 10709 ] final   65.87 input   66.30 | X-H torsion
[ 10763 10752 10751 10750 ] final  -54.50 input  -60.55 | X-H torsion
[ 11005 11000 10999 10996 ] final  -85.75 input  -57.11 | X-H torsion

> <Gold.Protein.ActiveResidues>
 VAL166  LYS551  ARG553  GLY616  TRP617  ASP618  TYR619  PRO620  LYS621  CYS622 
 ASP623  PHE694  ASN695  SER759  ASP760  ASP761  ALA762  ILE779  LEU786  VAL792 
 PHE793  MET794  SER795  GLU796  ALA797  LYS798  CYS799  TRP800  GLU811  SER814 

> <Gold.Protein.RotatedAtoms>
  150.8662  133.7571  159.2975 H   0  0  0  0  0  0  0  0  0  0  0  0  # atno 6907 bound_to 6896
  151.5197  135.1065  159.9885 H   0  0  0  0  0  0  0  0  0  0  0  0  # atno 6908 bound_to 6896
  152.4663  133.7885  159.6945 H   0  0  0  0  0  0  0  0  0  0  0  0  # atno 6909 bound_to 6896
  145.2664  140.9285  143.3011 H   0  0  0  0  0  0  0  0  0  0  0  0  # atno 7974 bound_to 7965
  154.4003  140.1494  156.3224 H   0  0  0  0  0  0  0  0  0  0  0  0  # atno 8008 bound_to 7997
  155.8518  140.3457  155.5677 H   0  0  0  0  0  0  0  0  0  0  0  0  # atno 8009 bound_to 7997
  155.7976  140.0865  157.1965 H   0  0  0  0  0  0  0  0  0  0  0  0  # atno 8010 bound_to 7997
  139.5986  144.7050  151.3116 H   0  0  0  0  0  0  0  0  0  0  0  0  # atno 10167 bound_to 10162
  157.6133  130.9237  150.0033 H   0  0  0  0  0  0  0  0  0  0  0  0  # atno 10718 bound_to 10713
  154.1759  135.6451  153.5021 H   0  0  0  0  0  0  0  0  0  0  0  0  # atno 10763 bound_to 10752
  153.0072  135.5394  154.6565 H   0  0  0  0  0  0  0  0  0  0  0  0  # atno 10764 bound_to 10752
  154.5916  135.2935  155.0602 H   0  0  0  0  0  0  0  0  0  0  0  0  # atno 10765 bound_to 10752
  141.1638  133.7416  156.9060 H   0  0  0  0  0  0  0  0  0  0  0  0  # atno 11005 bound_to 11000
  144.9373  139.4229  143.6466 LP  0  0  0  0  0  0  0  0  0  0  0  0  # atno 17320 bound_to 7965
  146.3260  139.8315  142.8907 LP  0  0  0  0  0  0  0  0  0  0  0  0  # atno 17321 bound_to 7965
  140.7232  143.7078  150.7793 LP  0  0  0  0  0  0  0  0  0  0  0  0  # atno 17342 bound_to 10162
  140.0650  143.5118  152.2609 LP  0  0  0  0  0  0  0  0  0  0  0  0  # atno 17343 bound_to 10162
  156.1244  130.3645  149.9833 LP  0  0  0  0  0  0  0  0  0  0  0  0  # atno 17370 bound_to 10713
  156.7907  130.9255  151.3646 LP  0  0  0  0  0  0  0  0  0  0  0  0  # atno 17371 bound_to 10713
  140.1549  134.9205  157.2641 LP  0  0  0  0  0  0  0  0  0  0  0  0  # atno 17394 bound_to 11000
  140.2679  134.3495  155.7383 LP  0  0  0  0  0  0  0  0  0  0  0  0  # atno 17395 bound_to 11000

$$$$
