AV-unprocessed.smi:786|AV-procd|sdf|3724|dock1
  -GOLD-   22720 1153D 1   1.00000     0.00000
 Structure written by MMmdl.
 39 40  0  0  0  0  0  0  0  0  3 V2000
  152.9732  139.6745  154.9828 O   0  0  0  0  0  0  0  0  0  0  0  0
  151.5846  139.2190  155.1542 S   0  0  0  0  0  0  0  0  0  0  0  0
  150.6277  139.6082  154.1058 O   0  0  0  0  0  0  0  0  0  0  0  0
  151.6201  137.3666  155.1243 C   0  0  0  0  0  0  0  0  0  0  0  0
  150.2384  136.6747  155.0253 C   0  0  0  0  0  0  0  0  0  0  0  0
  149.3092  136.9107  156.2311 C   0  0  0  0  0  0  0  0  0  0  0  0
  148.0157  136.0883  156.1054 C   0  0  0  0  0  0  0  0  0  0  0  0
  148.3190  134.7071  155.9504 O   0  0  0  0  0  0  0  0  0  0  0  0
  149.0610  134.4403  154.7666 C   0  0  0  0  0  0  0  0  0  0  0  0
  150.4177  135.1590  154.8306 C   0  0  0  0  0  0  0  0  0  0  0  0
  151.0027  139.5018  156.6432 N   0  5  0  0  0  0  0  0  0  0  0  0
  151.5346  140.5900  157.4535 C   0  0  0  0  0  0  0  0  0  0  0  0
  150.4512  141.6351  157.8149 C   0  0  0  0  0  0  0  0  0  0  0  0
  150.9745  142.9127  158.4638 C   0  0  0  0  0  0  0  0  0  0  0  0
  151.8853  142.8899  159.5446 C   0  0  0  0  0  0  0  0  0  0  0  0
  152.3333  144.1077  160.0972 C   0  0  0  0  0  0  0  0  0  0  0  0
  151.8677  145.3246  159.5575 C   0  0  0  0  0  0  0  0  0  0  0  0
  150.9646  145.2928  158.4758 C   0  0  0  0  0  0  0  0  0  0  0  0
  150.5593  144.1062  157.9744 N   0  3  0  0  0  0  0  0  0  0  0  0
  152.2369  137.0753  154.2742 H   0  0  0  0  0  0  0  0  0  0  0  0
  152.1451  137.0395  156.0217 H   0  0  0  0  0  0  0  0  0  0  0  0
  149.7310  137.0551  154.1381 H   0  0  0  0  0  0  0  0  0  0  0  0
  149.8243  136.6466  157.1555 H   0  0  0  0  0  0  0  0  0  0  0  0
  149.0343  137.9611  156.3080 H   0  0  0  0  0  0  0  0  0  0  0  0
  147.4048  136.2156  156.9991 H   0  0  0  0  0  0  0  0  0  0  0  0
  147.4176  136.4354  155.2614 H   0  0  0  0  0  0  0  0  0  0  0  0
  149.2117  133.3641  154.6807 H   0  0  0  0  0  0  0  0  0  0  0  0
  148.4943  134.7537  153.8883 H   0  0  0  0  0  0  0  0  0  0  0  0
  150.9819  134.9606  153.9188 H   0  0  0  0  0  0  0  0  0  0  0  0
  151.0027  134.7476  155.6543 H   0  0  0  0  0  0  0  0  0  0  0  0
  151.9637  140.2076  158.3801 H   0  0  0  0  0  0  0  0  0  0  0  0
  152.3554  141.0974  156.9463 H   0  0  0  0  0  0  0  0  0  0  0  0
  149.9205  141.9147  156.9044 H   0  0  0  0  0  0  0  0  0  0  0  0
  149.6940  141.1903  158.4612 H   0  0  0  0  0  0  0  0  0  0  0  0
  152.2321  141.9501  159.9488 H   0  0  0  0  0  0  0  0  0  0  0  0
  153.0260  144.1080  160.9260 H   0  0  0  0  0  0  0  0  0  0  0  0
  152.1977  146.2676  159.9677 H   0  0  0  0  0  0  0  0  0  0  0  0
  150.5548  146.1719  158.0008 H   0  0  0  0  0  0  0  0  0  0  0  0
  149.8978  144.1042  157.1958 H   0  0  0  0  0  0  0  0  0  0  0  0
  1  2  2  0  0  0  0
  2  3  2  0  0  0  0
  2  4  1  0  0  0  0
  2 11  1  0  0  0  0
  4  5  1  0  0  0  0
  4 20  1  0  0  0  0
  4 21  1  0  0  0  0
  5 10  1  0  0  0  0
  5  6  1  0  0  0  0
  5 22  1  0  0  0  0
  6  7  1  0  0  0  0
  6 23  1  0  0  0  0
  6 24  1  0  0  0  0
  7  8  1  0  0  0  0
  7 25  1  0  0  0  0
  7 26  1  0  0  0  0
  8  9  1  0  0  0  0
  9 10  1  0  0  0  0
  9 27  1  0  0  0  0
  9 28  1  0  0  0  0
 10 29  1  0  0  0  0
 10 30  1  0  0  0  0
 11 12  1  0  0  0  0
 12 13  1  0  0  0  0
 12 31  1  0  0  0  0
 12 32  1  0  0  0  0
 13 14  1  0  0  0  0
 13 33  1  0  0  0  0
 13 34  1  0  0  0  0
 14 19  1  0  0  0  0
 14 15  2  0  0  0  0
 15 16  1  0  0  0  0
 15 35  1  0  0  0  0
 16 17  2  0  0  0  0
 16 36  1  0  0  0  0
 17 18  1  0  0  0  0
 17 37  1  0  0  0  0
 18 19  2  0  0  0  0
 18 38  1  0  0  0  0
 19 39  1  0  0  0  0
M  CHG  1  11  -1
M  CHG  1  19   1
M  END
> <s_m_source_file>
AV-unprocessed.smi

> <i_m_source_file_index>
786

> <i_lp_mmshare_version>
43012

> <i_f3d_flags>
0

> <s_epik_input>
W0NIMl0xW0NIMl1PW0NIMl1bQ0gyXVtDSF0xW0NIMl1TKD1PKSg9TylbTkhdW0NIMl1bQ0gyXWMyW2NIXVtjSF1bY0hdW2NIXW4y

> <s_epik_cmdline>
J2VwaWtfcHl0aG9uJywgJy1waCcsICc3LjAnLCAnLXRuJywgJzgnLCAnLW1hJywgJzIwMCcsICctbWV0YWxfYmluZGluZycsICctaW1hZScsICc8aW5maWxlLm1hZT4nLCAnLW9tYWUnLCAnPG91dGZpbGUubWFlPic=

> <r_epik_Ionization_Penalty>
7.39271

> <r_epik_Ionization_Penalty_Charging>
7.39271

> <r_epik_Ionization_Penalty_Neutral>
5.66014e-11

> <r_epik_State_Penalty>
8.23716

> <r_epik_Charging_Adjusted_Penalty>
15.6299

> <i_epik_Tot_Q>
0

> <i_epik_Tot_abs_Q>
2

> <r_epik_Metal_State_Penalty>
4.19267

> <b_epik_Metal_Only>
1

> <s_lp_Force_Field>
OPLS_2005

> <r_lp_Energy>
3.22126

> <b_lp_Chiralities_Consistent>
1

> <s_lp_Variant>
AV-unprocessed.smi:786-4

> <Gold.Version>
5.8.1

> <Gold.Id.Protein>
6NUR|6NUR_protein|mol2

> <Gold.PLP.Fitness>
45.8404

> <Gold.PLP.PLP>
-35.1210

> <Gold.PLP.part.hbond>
-4.0000

> <Gold.PLP.part.metal>
0.0000

> <Gold.PLP.part.buried>
-3.3548

> <Gold.PLP.part.nonpolar>
-27.4751

> <Gold.PLP.part.repulsive>
0.2614

> <Gold.PLP.ligand.clash>
0.0000

> <Gold.PLP.ligand.torsion>
0.9457

> <Gold.PLP.Chemscore.Hbond>
3.8500

> <Gold.PLP.Chemscore.CHOScore>
0.0000

> <Gold.PLP.Chemscore.Metal>
0.0000

> <Gold.Chemscore.Hbonds>
donor molecule, donor type, donor heavy atom, donor atom, acceptor molecule, acceptor atom, score
      L1  H    19    39       P1  8028  2.00
      P1  H  7989  7998       L1     3  0.70
      P1  H  7997  8009       L1     1  1.00

> <Gold.PLP.Chemscore.Internal.Correction>
1.0608

> <Gold.Rescore>
     Score         DG    S(hbond)    S(metal)    S(lipo)     H(rot)  DE(clash)    DE(int)     intcor
     19.05     -20.36       2.66        0.00      87.92       1.68       0.33       0.98       ----

> <Gold.Chemscore.Fitness>
19.0544

> <Gold.Chemscore.DG>
-20.3571

> <Gold.Chemscore.ZeroCoef>
-5.4800

> <Gold.Chemscore.Hbond>
2.6639

> <Gold.Chemscore.Metal>
0.0000

> <Gold.Chemscore.Lipo>
87.9208

> <Gold.Chemscore.Internal_Hbond>
0.0000

> <Gold.Chemscore.DEClash>
0.3252

> <Gold.Chemscore.DEInternal>
0.9775

> <Gold.Chemscore.Rot>
1.6824

> <Gold.Chemscore.Internal.Correction>
   9.000000E+99

> <Gold.Chemscore.Hbonds>
donor molecule, donor type, donor heavy atom, donor atom, acceptor molecule, acceptor atom, score
      L1  H    19    39       P1  8028  0.69
      P1  H  7989  7998       L1     3  0.07
      P1  H  7997  8009       L1     1  1.00

> <Gold.Chemscore.Hbond.Weighted>
-8.8974

> <Gold.Chemscore.Metal.Weighted>
-0.0000

> <Gold.Chemscore.Lipo.Weighted>
-10.2867

> <Gold.Chemscore.Internal_Hbond.Weighted>
0.0000

> <Gold.Chemscore.DEClash.Weighted>
0.3252

> <Gold.Chemscore.DEInternal.Weighted>
0.9775

> <Gold.Chemscore.Rot.Weighted>
4.3070

> <Gold.Chemscore.Internal.Correction.Weighted>
   9.000000E+99

> <Gold.Protein.RotatedTorsions>
[ 6907 6896 6895 6894 ] final -178.47 input  -60.11 | X-H torsion
[ 7974 7965 7964 7962 ] final  -51.20 input  175.53 | X-H torsion
[ 8008 7997 7996 7995 ] final -138.98 input   59.86 | X-H torsion
[ 10167 10162 10161 10158 ] final   95.24 input  -65.29 | X-H torsion
[ 10718 10713 10712 10709 ] final   -1.86 input   66.30 | X-H torsion
[ 10763 10752 10751 10750 ] final   36.02 input  -60.55 | X-H torsion
[ 11005 11000 10999 10996 ] final  168.09 input  -57.11 | X-H torsion

> <Gold.Protein.ActiveResidues>
 VAL166  LYS551  ARG553  GLY616  TRP617  ASP618  TYR619  PRO620  LYS621  CYS622 
 ASP623  PHE694  ASN695  SER759  ASP760  ASP761  ALA762  ILE779  LEU786  VAL792 
 PHE793  MET794  SER795  GLU796  ALA797  LYS798  CYS799  TRP800  GLU811  SER814 

> <Gold.Protein.RotatedAtoms>
  151.6378  133.3328  159.3122 H   0  0  0  0  0  0  0  0  0  0  0  0  # atno 6907 bound_to 6896
  150.8023  134.7130  159.6624 H   0  0  0  0  0  0  0  0  0  0  0  0  # atno 6908 bound_to 6896
  152.4117  134.6118  160.0079 H   0  0  0  0  0  0  0  0  0  0  0  0  # atno 6909 bound_to 6896
  145.9216  140.7829  142.9644 H   0  0  0  0  0  0  0  0  0  0  0  0  # atno 7974 bound_to 7965
  155.4373  140.0529  157.3013 H   0  0  0  0  0  0  0  0  0  0  0  0  # atno 8008 bound_to 7997
  154.4833  140.2090  155.9670 H   0  0  0  0  0  0  0  0  0  0  0  0  # atno 8009 bound_to 7997
  156.1238  140.3183  155.8252 H   0  0  0  0  0  0  0  0  0  0  0  0  # atno 8010 bound_to 7997
  139.8008  144.6814  150.9768 H   0  0  0  0  0  0  0  0  0  0  0  0  # atno 10167 bound_to 10162
  156.7993  130.5387  149.5724 H   0  0  0  0  0  0  0  0  0  0  0  0  # atno 10718 bound_to 10713
  153.0094  135.6317  154.1918 H   0  0  0  0  0  0  0  0  0  0  0  0  # atno 10763 bound_to 10752
  154.1661  135.2821  155.3096 H   0  0  0  0  0  0  0  0  0  0  0  0  # atno 10764 bound_to 10752
  154.5944  135.5607  153.7371 H   0  0  0  0  0  0  0  0  0  0  0  0  # atno 10765 bound_to 10752
  140.2836  134.7730  157.3779 H   0  0  0  0  0  0  0  0  0  0  0  0  # atno 11005 bound_to 11000
  144.6753  140.1984  143.7389 LP  0  0  0  0  0  0  0  0  0  0  0  0  # atno 17320 bound_to 7965
  145.8543  139.2191  143.1754 LP  0  0  0  0  0  0  0  0  0  0  0  0  # atno 17321 bound_to 7965
  140.7820  143.4284  151.0733 LP  0  0  0  0  0  0  0  0  0  0  0  0  # atno 17342 bound_to 10162
  139.7956  143.8156  152.3157 LP  0  0  0  0  0  0  0  0  0  0  0  0  # atno 17343 bound_to 10162
  156.1111  130.6041  151.0048 LP  0  0  0  0  0  0  0  0  0  0  0  0  # atno 17370 bound_to 10713
  157.6562  131.0889  150.7943 LP  0  0  0  0  0  0  0  0  0  0  0  0  # atno 17371 bound_to 10713
  140.1260  134.5157  155.8144 LP  0  0  0  0  0  0  0  0  0  0  0  0  # atno 17394 bound_to 11000
  141.2158  133.6773  156.6953 LP  0  0  0  0  0  0  0  0  0  0  0  0  # atno 17395 bound_to 11000

$$$$
