AV-unprocessed.smi:1087|AV-procd|sdf|4727|dock4
  -GOLD-   22720 3253D 1   1.00000     0.00000
 Structure written by MMmdl.
 46 47  0  0  0  0  0  0  0  0  1 V2000
  151.7986  145.5063  159.8689 C   0  0  0  0  0  0  0  0  0  0  0  0
  151.7588  144.1141  159.5983 O   0  0  0  0  0  0  0  0  0  0  0  0
  152.9813  143.4339  159.8535 C   0  0  0  0  0  0  0  0  0  0  0  0
  152.8278  141.9028  159.9741 C   0  0  0  0  0  0  0  0  0  0  0  0
  152.7029  141.1718  158.7114 N   0  0  0  0  0  0  0  0  0  0  0  0
  151.7023  141.7569  157.8153 C   0  0  0  0  0  0  0  0  0  0  0  0
  151.5998  141.0113  156.4737 C   0  0  0  0  0  0  0  0  0  0  0  0
  151.2831  139.5205  156.6885 C   0  0  0  0  0  0  0  0  0  0  0  0
  151.2369  138.7590  155.3467 C   0  0  0  0  0  0  0  0  0  0  0  0
  150.1903  137.7431  155.3189 N   0  0  0  0  0  0  0  0  0  0  0  0
  150.3647  136.4467  155.6153 C   0  0  0  0  0  0  0  0  0  0  0  0
  151.4403  135.9782  155.9899 O   0  0  0  0  0  0  0  0  0  0  0  0
  149.1249  135.5523  155.4774 C   0  0  0  0  0  0  0  0  0  0  0  0
  149.4560  134.1432  155.2094 N   0  0  0  0  0  0  0  0  0  0  0  0
  149.0317  133.5958  153.9868 C   0  0  0  0  0  0  0  0  0  0  0  0
  149.2963  132.3187  153.6761 C   0  0  0  0  0  0  0  0  0  0  0  0
  150.0431  131.5445  154.6762 C   0  0  0  0  0  0  0  0  0  0  0  0
  150.4291  132.0396  155.7925 N   0  0  0  0  0  0  0  0  0  0  0  0
  150.1475  133.3801  156.1179 C   0  0  0  0  0  0  0  0  0  0  0  0
  150.5114  133.8615  157.1913 O   0  0  0  0  0  0  0  0  0  0  0  0
  152.3060  138.9290  157.6796 C   0  0  0  0  0  0  0  0  0  0  0  0
  152.3699  139.7696  158.9654 C   0  0  0  0  0  0  0  0  0  0  0  0
  150.8405  145.9534  159.6036 H   0  0  0  0  0  0  0  0  0  0  0  0
  152.5716  146.0016  159.2797 H   0  0  0  0  0  0  0  0  0  0  0  0
  151.9762  145.7118  160.9244 H   0  0  0  0  0  0  0  0  0  0  0  0
  153.6740  143.6629  159.0429 H   0  0  0  0  0  0  0  0  0  0  0  0
  153.4375  143.8366  160.7591 H   0  0  0  0  0  0  0  0  0  0  0  0
  153.7268  141.5464  160.4787 H   0  0  0  0  0  0  0  0  0  0  0  0
  152.0052  141.6453  160.6410 H   0  0  0  0  0  0  0  0  0  0  0  0
  150.7270  141.7692  158.3044 H   0  0  0  0  0  0  0  0  0  0  0  0
  151.9542  142.7929  157.5966 H   0  0  0  0  0  0  0  0  0  0  0  0
  150.8300  141.4728  155.8544 H   0  0  0  0  0  0  0  0  0  0  0  0
  152.5394  141.1164  155.9295 H   0  0  0  0  0  0  0  0  0  0  0  0
  150.2961  139.4579  157.1497 H   0  0  0  0  0  0  0  0  0  0  0  0
  151.0937  139.4558  154.5191 H   0  0  0  0  0  0  0  0  0  0  0  0
  152.1913  138.2630  155.1670 H   0  0  0  0  0  0  0  0  0  0  0  0
  149.2714  138.0435  155.0277 H   0  0  0  0  0  0  0  0  0  0  0  0
  148.5394  135.6429  156.3933 H   0  0  0  0  0  0  0  0  0  0  0  0
  148.4802  135.9364  154.6843 H   0  0  0  0  0  0  0  0  0  0  0  0
  148.4859  134.2657  153.3384 H   0  0  0  0  0  0  0  0  0  0  0  0
  148.9982  131.8359  152.7571 H   0  0  0  0  0  0  0  0  0  0  0  0
  150.2507  130.5064  154.4041 H   0  0  0  0  0  0  0  0  0  0  0  0
  152.0426  137.9021  157.9342 H   0  0  0  0  0  0  0  0  0  0  0  0
  153.2939  138.8922  157.2182 H   0  0  0  0  0  0  0  0  0  0  0  0
  153.1141  139.3304  159.6309 H   0  0  0  0  0  0  0  0  0  0  0  0
  151.4142  139.7051  159.4881 H   0  0  0  0  0  0  0  0  0  0  0  0
  1  2  1  0  0  0  0
  1 23  1  0  0  0  0
  1 24  1  0  0  0  0
  1 25  1  0  0  0  0
  2  3  1  0  0  0  0
  3  4  1  0  0  0  0
  3 26  1  0  0  0  0
  3 27  1  0  0  0  0
  4  5  1  0  0  0  0
  4 28  1  0  0  0  0
  4 29  1  0  0  0  0
  5 22  1  0  0  0  0
  5  6  1  0  0  0  0
  6  7  1  0  0  0  0
  6 30  1  0  0  0  0
  6 31  1  0  0  0  0
  7  8  1  0  0  0  0
  7 32  1  0  0  0  0
  7 33  1  0  0  0  0
  8  9  1  0  0  0  0
  8 21  1  0  0  0  0
  8 34  1  0  0  0  0
  9 10  1  0  0  0  0
  9 35  1  0  0  0  0
  9 36  1  0  0  0  0
 10 11  1  0  0  0  0
 10 37  1  0  0  0  0
 11 12  2  0  0  0  0
 11 13  1  0  0  0  0
 13 14  1  0  0  0  0
 13 38  1  0  0  0  0
 13 39  1  0  0  0  0
 14 19  1  0  0  0  0
 14 15  1  0  0  0  0
 15 16  2  0  0  0  0
 15 40  1  0  0  0  0
 16 17  1  0  0  0  0
 16 41  1  0  0  0  0
 17 18  2  0  0  0  0
 17 42  1  0  0  0  0
 18 19  1  0  0  0  0
 19 20  2  0  0  0  0
 21 22  1  0  0  0  0
 21 43  1  0  0  0  0
 21 44  1  0  0  0  0
 22 45  1  0  0  0  0
 22 46  1  0  0  0  0
M  END
> <s_m_source_file>
AV-unprocessed.smi

> <i_m_source_file_index>
1087

> <i_lp_mmshare_version>
43012

> <i_f3d_flags>
0

> <s_epik_input>
W0NIM11PW0NIMl1bQ0gyXU4xW0NIMl1bQ0gyXVtDSF0oW0NIMl1bQ0gyXTEpW0NIMl1bTkhdQyg9TylbQ0gyXW4yW2NIXVtjSF1bY0hdbmMyPU8=

> <s_epik_cmdline>
J2VwaWtfcHl0aG9uJywgJy1waCcsICc3LjAnLCAnLXRuJywgJzgnLCAnLW1hJywgJzIwMCcsICctbWV0YWxfYmluZGluZycsICctaW1hZScsICc8aW5maWxlLm1hZT4nLCAnLW9tYWUnLCAnPG91dGZpbGUubWFlPic=

> <r_lp_tautomer_probability>
1

> <r_epik_Ionization_Penalty>
2.43401

> <r_epik_Ionization_Penalty_Charging>
1.64716e-08

> <r_epik_Ionization_Penalty_Neutral>
2.43401

> <r_epik_State_Penalty>
2.59428

> <r_epik_Charging_Adjusted_Penalty>
2.59428

> <i_epik_Tot_Q>
0

> <i_epik_Tot_abs_Q>
0

> <r_epik_Metal_State_Penalty>
2.59427

> <b_epik_Metal_Only>
0

> <s_lp_Force_Field>
OPLS_2005

> <r_lp_Energy>
30.2677

> <b_lp_Chiralities_Consistent>
1

> <s_lp_Variant>
AV-unprocessed.smi:1087-3

> <Gold.Version>
5.8.1

> <Gold.Id.Protein>
6NUR|6NUR_protein|mol2

> <Gold.PLP.Fitness>
45.0845

> <Gold.PLP.PLP>
-39.1808

> <Gold.PLP.part.hbond>
-2.0000

> <Gold.PLP.part.metal>
0.0000

> <Gold.PLP.part.buried>
-7.0716

> <Gold.PLP.part.nonpolar>
-30.4114

> <Gold.PLP.part.repulsive>
0.0863

> <Gold.PLP.ligand.clash>
0.0000

> <Gold.PLP.ligand.torsion>
1.2479

> <Gold.PLP.Chemscore.Hbond>
1.7680

> <Gold.PLP.Chemscore.CHOScore>
0.9998

> <Gold.PLP.Chemscore.Metal>
0.0000

> <Gold.Chemscore.Hbonds>
donor molecule, donor type, donor heavy atom, donor atom, acceptor molecule, acceptor atom, score
      P1  H  6896  6908       L1    20  0.66
      P1  H 10752 10765       L1    12  1.00
      L1  C    15    40       P1  7948  1.00

> <Gold.PLP.Chemscore.Internal.Correction>
0.0959

> <Gold.Rescore>
     Score         DG    S(hbond)    S(metal)    S(lipo)     H(rot)  DE(clash)    DE(int)     intcor
     15.56     -16.90       1.98        0.00      93.09       2.37       0.03       1.31       ----

> <Gold.Chemscore.Fitness>
15.5594

> <Gold.Chemscore.DG>
-16.8998

> <Gold.Chemscore.ZeroCoef>
-5.4800

> <Gold.Chemscore.Hbond>
1.9764

> <Gold.Chemscore.Metal>
0.0000

> <Gold.Chemscore.Lipo>
93.0916

> <Gold.Chemscore.Internal_Hbond>
0.0000

> <Gold.Chemscore.DEClash>
0.0254

> <Gold.Chemscore.DEInternal>
1.3150

> <Gold.Chemscore.Rot>
2.3723

> <Gold.Chemscore.Internal.Correction>
   9.000000E+99

> <Gold.Chemscore.Hbonds>
donor molecule, donor type, donor heavy atom, donor atom, acceptor molecule, acceptor atom, score
      P1  H  6896  6908       L1    20  0.63
      P1  H 10752 10765       L1    12  0.94

> <Gold.Chemscore.Hbond.Weighted>
-6.6012

> <Gold.Chemscore.Metal.Weighted>
-0.0000

> <Gold.Chemscore.Lipo.Weighted>
-10.8917

> <Gold.Chemscore.Internal_Hbond.Weighted>
0.0000

> <Gold.Chemscore.DEClash.Weighted>
0.0254

> <Gold.Chemscore.DEInternal.Weighted>
1.3150

> <Gold.Chemscore.Rot.Weighted>
6.0731

> <Gold.Chemscore.Internal.Correction.Weighted>
   9.000000E+99

> <Gold.Protein.RotatedTorsions>
[ 6907 6896 6895 6894 ] final  106.18 input  -60.11 | X-H torsion
[ 7974 7965 7964 7962 ] final   50.71 input  175.53 | X-H torsion
[ 8008 7997 7996 7995 ] final  -56.45 input   59.86 | X-H torsion
[ 10167 10162 10161 10158 ] final  -54.19 input  -65.29 | X-H torsion
[ 10718 10713 10712 10709 ] final  141.88 input   66.30 | X-H torsion
[ 10763 10752 10751 10750 ] final -171.35 input  -60.55 | X-H torsion
[ 11005 11000 10999 10996 ] final  101.76 input  -57.11 | X-H torsion

> <Gold.Protein.ActiveResidues>
 VAL166  LYS551  ARG553  GLY616  TRP617  ASP618  TYR619  PRO620  LYS621  CYS622 
 ASP623  PHE694  ASN695  SER759  ASP760  ASP761  ALA762  ILE779  LEU786  VAL792 
 PHE793  MET794  SER795  GLU796  ALA797  LYS798  CYS799  TRP800  GLU811  SER814 

> <Gold.Protein.RotatedAtoms>
  152.5203  133.9419  159.7630 H   0  0  0  0  0  0  0  0  0  0  0  0  # atno 6907 bound_to 6896
  150.9747  133.6299  159.2739 H   0  0  0  0  0  0  0  0  0  0  0  0  # atno 6908 bound_to 6896
  151.3497  135.0887  159.9452 H   0  0  0  0  0  0  0  0  0  0  0  0  # atno 6909 bound_to 6896
  145.9985  139.4414  143.0029 H   0  0  0  0  0  0  0  0  0  0  0  0  # atno 7974 bound_to 7965
  154.4231  140.1129  156.5639 H   0  0  0  0  0  0  0  0  0  0  0  0  # atno 8008 bound_to 7997
  155.6282  140.3495  155.4655 H   0  0  0  0  0  0  0  0  0  0  0  0  # atno 8009 bound_to 7997
  155.9969  140.1191  157.0574 H   0  0  0  0  0  0  0  0  0  0  0  0  # atno 8010 bound_to 7997
  140.6444  143.2526  151.4900 H   0  0  0  0  0  0  0  0  0  0  0  0  # atno 10167 bound_to 10162
  157.3869  131.0999  151.0684 H   0  0  0  0  0  0  0  0  0  0  0  0  # atno 10718 bound_to 10713
  154.6314  135.2887  155.0212 H   0  0  0  0  0  0  0  0  0  0  0  0  # atno 10763 bound_to 10752
  154.1371  135.6524  153.4938 H   0  0  0  0  0  0  0  0  0  0  0  0  # atno 10764 bound_to 10752
  153.0281  135.5324  154.7143 H   0  0  0  0  0  0  0  0  0  0  0  0  # atno 10765 bound_to 10752
  139.8774  134.9196  156.4955 H   0  0  0  0  0  0  0  0  0  0  0  0  # atno 11005 bound_to 11000
  145.7523  140.9967  143.1244 LP  0  0  0  0  0  0  0  0  0  0  0  0  # atno 17320 bound_to 7965
  144.6911  139.9230  143.7468 LP  0  0  0  0  0  0  0  0  0  0  0  0  # atno 17321 bound_to 7965
  139.5654  144.2055  152.1757 LP  0  0  0  0  0  0  0  0  0  0  0  0  # atno 17342 bound_to 10162
  140.1335  144.5267  150.6788 LP  0  0  0  0  0  0  0  0  0  0  0  0  # atno 17343 bound_to 10162
  157.1732  130.6276  149.5647 LP  0  0  0  0  0  0  0  0  0  0  0  0  # atno 17370 bound_to 10713
  155.9789  130.4778  150.6683 LP  0  0  0  0  0  0  0  0  0  0  0  0  # atno 17371 bound_to 10713
  140.8627  133.8047  155.9282 LP  0  0  0  0  0  0  0  0  0  0  0  0  # atno 17394 bound_to 11000
  140.9033  134.2352  157.5029 LP  0  0  0  0  0  0  0  0  0  0  0  0  # atno 17395 bound_to 11000

$$$$
