AV-unprocessed.smi:193|AV-procd|sdf|1496|dock7
  -GOLD-   2262019323D 1   1.00000     0.00000
 Structure written by MMmdl.
 62 66  0  0  0  0  0  0  0  0  2 V2000
  144.2555  134.2014  149.9993 C   0  0  0  0  0  0  0  0  0  0  0  0
  144.7671  133.6045  151.3204 C   0  0  2  0  0  0  0  0  0  0  0  0
  145.5209  134.6921  152.1130 C   0  0  0  0  0  0  0  0  0  0  0  0
  145.6419  134.4234  153.5448 N   0  0  0  0  0  0  0  0  0  0  0  0
  146.3417  135.3322  154.2576 C   0  0  0  0  0  0  0  0  0  0  0  0
  147.0300  134.8831  155.3360 N   0  0  0  0  0  0  0  0  0  0  0  0
  147.7389  135.7388  156.0791 C   0  0  0  0  0  0  0  0  0  0  0  0
  147.8965  137.0540  155.9155 N   0  0  0  0  0  0  0  0  0  0  0  0
  147.2209  137.5034  154.8191 C   0  0  0  0  0  0  0  0  0  0  0  0
  146.4259  136.7166  153.9392 C   0  0  0  0  0  0  0  0  0  0  0  0
  145.9078  137.5152  152.9266 N   0  0  0  0  0  0  0  0  0  0  0  0
  146.3607  138.7086  153.1997 C   0  0  0  0  0  0  0  0  0  0  0  0
  147.1607  138.7915  154.3169 N   0  0  0  0  0  0  0  0  0  0  0  0
  147.7930  139.9897  154.8469 C   0  0  0  0  0  0  0  0  0  0  0  0
  149.3209  140.0563  154.6024 C   0  0  0  0  0  0  0  0  0  0  0  0
  149.5360  140.8093  153.4209 O   0  0  0  0  0  0  0  0  0  0  0  0
  150.0193  140.7765  155.7733 C   0  0  0  0  0  0  0  0  0  0  0  0
  151.5528  140.7177  155.6601 C   0  0  0  0  0  0  0  0  0  0  0  0
  151.9812  139.3654  155.5563 O   0  0  0  0  0  0  0  0  0  0  0  0
  151.4932  138.7219  154.3854 C   0  0  0  0  0  0  0  0  0  0  0  0
  149.9556  138.6606  154.4156 C   0  0  0  0  0  0  0  0  0  0  0  0
  145.6601  133.0702  154.0921 C   0  0  0  0  0  0  0  0  0  0  0  0
  146.5828  132.1191  153.3187 C   0  0  0  0  0  0  0  0  0  0  0  0
  145.8699  131.4834  152.1847 N   0  3  2  0  0  0  0  0  0  0  0  0
  146.5183  130.2159  151.7790 C   0  0  2  0  0  0  0  0  0  0  0  0
  145.5898  129.0236  151.8044 C   0  0  0  0  0  0  0  0  0  0  0  0
  146.6237  129.2000  152.8956 C   0  0  1  0  0  0  0  0  0  0  0  0
  147.8117  128.2672  152.9786 C   0  0  0  0  0  0  0  0  0  0  0  0
  145.6706  132.3854  151.0227 C   0  0  0  0  0  0  0  0  0  0  0  0
  145.0797  134.5474  149.3743 H   0  0  0  0  0  0  0  0  0  0  0  0
  143.5954  135.0506  150.1788 H   0  0  0  0  0  0  0  0  0  0  0  0
  143.6882  133.4674  149.4261 H   0  0  0  0  0  0  0  0  0  0  0  0
  143.8874  133.2829  151.8798 H   0  0  0  0  0  0  0  0  0  0  0  0
  146.4980  134.8591  151.6613 H   0  0  0  0  0  0  0  0  0  0  0  0
  144.9832  135.6370  152.0220 H   0  0  0  0  0  0  0  0  0  0  0  0
  148.2545  135.3087  156.9251 H   0  0  0  0  0  0  0  0  0  0  0  0
  146.1271  139.5677  152.5873 H   0  0  0  0  0  0  0  0  0  0  0  0
  147.3012  140.8572  154.4043 H   0  0  0  0  0  0  0  0  0  0  0  0
  147.5835  140.0370  155.9163 H   0  0  0  0  0  0  0  0  0  0  0  0
  149.3875  140.2465  152.6763 H   0  0  0  0  0  0  0  0  0  0  0  0
  149.6878  141.8139  155.8378 H   0  0  0  0  0  0  0  0  0  0  0  0
  149.7265  140.3045  156.7121 H   0  0  0  0  0  0  0  0  0  0  0  0
  151.9073  141.2910  154.8023 H   0  0  0  0  0  0  0  0  0  0  0  0
  152.0084  141.1622  156.5452 H   0  0  0  0  0  0  0  0  0  0  0  0
  151.8485  139.2431  153.4952 H   0  0  0  0  0  0  0  0  0  0  0  0
  151.9045  137.7131  154.3436 H   0  0  0  0  0  0  0  0  0  0  0  0
  149.6522  138.0155  155.2411 H   0  0  0  0  0  0  0  0  0  0  0  0
  149.5910  138.1843  153.5049 H   0  0  0  0  0  0  0  0  0  0  0  0
  145.9967  133.1097  155.1296 H   0  0  0  0  0  0  0  0  0  0  0  0
  144.6435  132.6774  154.1303 H   0  0  0  0  0  0  0  0  0  0  0  0
  147.5027  132.6065  152.9921 H   0  0  0  0  0  0  0  0  0  0  0  0
  146.8864  131.3320  154.0103 H   0  0  0  0  0  0  0  0  0  0  0  0
  147.2956  130.2927  151.0202 H   0  0  0  0  0  0  0  0  0  0  0  0
  144.5473  129.1853  152.0724 H   0  0  0  0  0  0  0  0  0  0  0  0
  145.7621  128.2409  151.0681 H   0  0  0  0  0  0  0  0  0  0  0  0
  146.2390  129.5001  153.8691 H   0  0  0  0  0  0  0  0  0  0  0  0
  148.1616  127.9954  151.9821 H   0  0  0  0  0  0  0  0  0  0  0  0
  147.5365  127.3564  153.5108 H   0  0  0  0  0  0  0  0  0  0  0  0
  148.6294  128.7500  153.5142 H   0  0  0  0  0  0  0  0  0  0  0  0
  145.2056  131.7970  150.2305 H   0  0  0  0  0  0  0  0  0  0  0  0
  146.6370  132.7068  150.6307 H   0  0  0  0  0  0  0  0  0  0  0  0
  144.9525  131.2311  152.5235 H   0  0  0  0  0  0  0  0  0  0  0  0
  1  2  1  0  0  0  0
  1 30  1  0  0  0  0
  1 31  1  0  0  0  0
  1 32  1  0  0  0  0
  2 29  1  0  0  0  0
  2  3  1  0  0  0  0
  2 33  1  0  0  0  0
  3  4  1  0  0  0  0
  3 34  1  0  0  0  0
  3 35  1  0  0  0  0
  4  5  1  0  0  0  0
  4 22  1  0  0  0  0
  5 10  1  0  0  0  0
  5  6  2  0  0  0  0
  6  7  1  0  0  0  0
  7  8  2  0  0  0  0
  7 36  1  0  0  0  0
  8  9  1  0  0  0  0
  9 13  1  0  0  0  0
  9 10  2  0  0  0  0
 10 11  1  0  0  0  0
 11 12  2  0  0  0  0
 12 13  1  0  0  0  0
 12 37  1  0  0  0  0
 13 14  1  0  0  0  0
 14 15  1  0  0  0  0
 14 38  1  0  0  0  0
 14 39  1  0  0  0  0
 15 21  1  0  0  0  0
 15 16  1  0  0  0  0
 15 17  1  0  0  0  0
 16 40  1  0  0  0  0
 17 18  1  0  0  0  0
 17 41  1  0  0  0  0
 17 42  1  0  0  0  0
 18 19  1  0  0  0  0
 18 43  1  0  0  0  0
 18 44  1  0  0  0  0
 19 20  1  0  0  0  0
 20 21  1  0  0  0  0
 20 45  1  0  0  0  0
 20 46  1  0  0  0  0
 21 47  1  0  0  0  0
 21 48  1  0  0  0  0
 22 23  1  0  0  0  0
 22 49  1  0  0  0  0
 22 50  1  0  0  0  0
 23 24  1  0  0  0  0
 23 51  1  0  0  0  0
 23 52  1  0  0  0  0
 24 25  1  0  0  0  0
 24 29  1  0  0  0  0
 24 62  1  0  0  0  0
 25 27  1  0  0  0  0
 25 26  1  0  0  0  0
 25 53  1  0  0  0  0
 26 27  1  0  0  0  0
 26 54  1  0  0  0  0
 26 55  1  0  0  0  0
 27 28  1  0  0  0  0
 27 56  1  0  0  0  0
 28 57  1  0  0  0  0
 28 58  1  0  0  0  0
 28 59  1  0  0  0  0
 29 60  1  0  0  0  0
 29 61  1  0  0  0  0
M  CHG  1  24   1
M  END
> <s_m_source_file>
AV-unprocessed.smi

> <i_m_source_file_index>
193

> <i_lp_mmshare_version>
43012

> <i_f3d_flags>
0

> <s_epik_input>
W0NIM11bQ0BASF0xW0NIMl1bQ0BIXTFOKFtDSDJdMilbQ0gyXVtDSDJdTihbQ0gyXVtDQEhdMltDSDNdKWMobltjSF1uMyljKGMzNCluW2NIXW40W0NIMl1DNShbT0hdKVtDSDJdW0NIMl1PW0NIMl1bQ0gyXTU=

> <s_epik_cmdline>
J2VwaWtfcHl0aG9uJywgJy1waCcsICc3LjAnLCAnLXRuJywgJzgnLCAnLW1hJywgJzIwMCcsICctbWV0YWxfYmluZGluZycsICctaW1hZScsICc8aW5maWxlLm1hZT4nLCAnLW9tYWUnLCAnPG91dGZpbGUubWFlPic=

> <r_lp_tautomer_probability>
1

> <r_epik_Ionization_Penalty>
0.0540825

> <r_epik_Ionization_Penalty_Charging>
0.0538476

> <r_epik_Ionization_Penalty_Neutral>
0.000234891

> <r_epik_State_Penalty>
0.0200719

> <r_epik_Charging_Adjusted_Penalty>
0.0739194

> <i_epik_Tot_Q>
1

> <i_epik_Tot_abs_Q>
1

> <r_epik_Metal_State_Penalty>
0.0199414

> <b_epik_Metal_Only>
0

> <s_lp_Force_Field>
OPLS_2005

> <r_lp_Energy>
53.912

> <b_lp_Chiralities_Consistent>
1

> <s_lp_Variant>
AV-unprocessed.smi:193-1

> <Gold.Version>
5.8.1

> <Gold.Id.Protein>
6NUR|6NUR_protein|mol2

> <Gold.PLP.Fitness>
41.9494

> <Gold.PLP.PLP>
-36.7925

> <Gold.PLP.part.hbond>
-2.4501

> <Gold.PLP.part.metal>
0.0000

> <Gold.PLP.part.buried>
-3.5232

> <Gold.PLP.part.nonpolar>
-30.9155

> <Gold.PLP.part.repulsive>
0.2930

> <Gold.PLP.ligand.clash>
0.1055

> <Gold.PLP.ligand.torsion>
1.7804

> <Gold.PLP.Chemscore.Hbond>
2.0160

> <Gold.PLP.Chemscore.CHOScore>
0.4359

> <Gold.PLP.Chemscore.Metal>
0.0000

> <Gold.Chemscore.Hbonds>
donor molecule, donor type, donor heavy atom, donor atom, acceptor molecule, acceptor atom, score
      L1  H    16    40       P1  7957  0.91
      P1  H  7989  7998       L1    16  0.27
      P1  H  8011  8017       L1    16  0.70
      L1  C    12    37       P1 10175  0.66

> <Gold.PLP.Chemscore.Internal.Correction>
1.4674

> <Gold.Rescore>
     Score         DG    S(hbond)    S(metal)    S(lipo)     H(rot)  DE(clash)    DE(int)     intcor
     11.34     -15.37       0.90        0.00     101.17       1.93       0.40       3.63       ----

> <Gold.Chemscore.Fitness>
11.3394

> <Gold.Chemscore.DG>
-15.3704

> <Gold.Chemscore.ZeroCoef>
-5.4800

> <Gold.Chemscore.Hbond>
0.8956

> <Gold.Chemscore.Metal>
0.0000

> <Gold.Chemscore.Lipo>
101.1739

> <Gold.Chemscore.Internal_Hbond>
0.0000

> <Gold.Chemscore.DEClash>
0.4022

> <Gold.Chemscore.DEInternal>
3.6289

> <Gold.Chemscore.Rot>
1.9290

> <Gold.Chemscore.Internal.Correction>
   9.000000E+99

> <Gold.Chemscore.Hbonds>
donor molecule, donor type, donor heavy atom, donor atom, acceptor molecule, acceptor atom, score
      L1  H    16    40       P1  7957  0.85
      P1  H  7989  7998       L1    16  0.02
      P1  H  8011  8017       L1    16  0.07

> <Gold.Chemscore.Hbond.Weighted>
-2.9914

> <Gold.Chemscore.Metal.Weighted>
-0.0000

> <Gold.Chemscore.Lipo.Weighted>
-11.8373

> <Gold.Chemscore.Internal_Hbond.Weighted>
0.0000

> <Gold.Chemscore.DEClash.Weighted>
0.4022

> <Gold.Chemscore.DEInternal.Weighted>
3.6289

> <Gold.Chemscore.Rot.Weighted>
4.9383

> <Gold.Chemscore.Internal.Correction.Weighted>
   9.000000E+99

> <Gold.Protein.RotatedTorsions>
[ 6907 6896 6895 6894 ] final   -7.92 input  -60.11 | X-H torsion
[ 7974 7965 7964 7962 ] final  159.49 input  175.53 | X-H torsion
[ 8008 7997 7996 7995 ] final  -46.87 input   59.86 | X-H torsion
[ 10167 10162 10161 10158 ] final -115.84 input  -65.29 | X-H torsion
[ 10718 10713 10712 10709 ] final   57.70 input   66.30 | X-H torsion
[ 10763 10752 10751 10750 ] final   33.95 input  -60.55 | X-H torsion
[ 11005 11000 10999 10996 ] final  -24.06 input  -57.11 | X-H torsion

> <Gold.Protein.ActiveResidues>
 VAL166  LYS551  ARG553  GLY616  TRP617  ASP618  TYR619  PRO620  LYS621  CYS622 
 ASP623  PHE694  ASN695  SER759  ASP760  ASP761  ALA762  ILE779  LEU786  VAL792 
 PHE793  MET794  SER795  GLU796  ALA797  LYS798  CYS799  TRP800  GLU811  SER814 

> <Gold.Protein.RotatedAtoms>
  151.4419  135.1021  159.9672 H   0  0  0  0  0  0  0  0  0  0  0  0  # atno 6907 bound_to 6896
  152.4919  133.8520  159.7217 H   0  0  0  0  0  0  0  0  0  0  0  0  # atno 6908 bound_to 6896
  150.9082  133.6972  159.2889 H   0  0  0  0  0  0  0  0  0  0  0  0  # atno 6909 bound_to 6896
  144.7787  139.7624  143.6268 H   0  0  0  0  0  0  0  0  0  0  0  0  # atno 7974 bound_to 7965
  154.4011  140.1360  156.4082 H   0  0  0  0  0  0  0  0  0  0  0  0  # atno 8008 bound_to 7997
  155.7759  140.3482  155.5251 H   0  0  0  0  0  0  0  0  0  0  0  0  # atno 8009 bound_to 7997
  155.8722  140.0973  157.1533 H   0  0  0  0  0  0  0  0  0  0  0  0  # atno 8010 bound_to 7997
  140.0858  143.4746  152.1899 H   0  0  0  0  0  0  0  0  0  0  0  0  # atno 10167 bound_to 10162
  157.5536  130.8783  149.9001 H   0  0  0  0  0  0  0  0  0  0  0  0  # atno 10718 bound_to 10713
  153.0187  135.6373  154.1592 H   0  0  0  0  0  0  0  0  0  0  0  0  # atno 10763 bound_to 10752
  154.1329  135.2839  155.3182 H   0  0  0  0  0  0  0  0  0  0  0  0  # atno 10764 bound_to 10752
  154.6181  135.5534  153.7607 H   0  0  0  0  0  0  0  0  0  0  0  0  # atno 10765 bound_to 10752
  140.8810  133.7654  156.0302 H   0  0  0  0  0  0  0  0  0  0  0  0  # atno 11005 bound_to 11000
  146.1983  139.5262  142.9760 LP  0  0  0  0  0  0  0  0  0  0  0  0  # atno 17320 bound_to 7965
  145.6111  141.0339  143.1966 LP  0  0  0  0  0  0  0  0  0  0  0  0  # atno 17321 bound_to 7965
  139.5753  144.7484  151.3781 LP  0  0  0  0  0  0  0  0  0  0  0  0  # atno 17342 bound_to 10162
  140.7054  143.7526  150.7474 LP  0  0  0  0  0  0  0  0  0  0  0  0  # atno 17343 bound_to 10162
  156.0598  130.3702  150.1007 LP  0  0  0  0  0  0  0  0  0  0  0  0  # atno 17370 bound_to 10713
  156.9178  130.9673  151.3553 LP  0  0  0  0  0  0  0  0  0  0  0  0  # atno 17371 bound_to 10713
  140.8461  134.3009  157.5294 LP  0  0  0  0  0  0  0  0  0  0  0  0  # atno 17394 bound_to 11000
  139.8720  134.9442  156.3876 LP  0  0  0  0  0  0  0  0  0  0  0  0  # atno 17395 bound_to 11000

$$$$
