AV-unprocessed.smi:2918|AV-procd|sdf|11191|dock7
  -GOLD-   2272016 83D 1   1.00000     0.00000
 Structure written by MMmdl.
 41 42  0  0  0  0  0  0  0  0  1 V2000
  150.7053  137.0838  155.4495 C   0  0  0  0  0  0  0  0  0  0  0  0
  151.1559  138.2021  154.4970 C   0  0  0  0  0  0  0  0  0  0  0  0
  152.5516  138.7365  154.8594 C   0  0  0  0  0  0  0  0  0  0  0  0
  150.1679  139.2760  154.4512 N   0  0  0  0  0  0  0  0  0  0  0  0
  150.5041  140.5248  154.8517 N   0  0  0  0  0  0  0  0  0  0  0  0
  149.4016  141.2472  154.7071 C   0  0  0  0  0  0  0  0  0  0  0  0
  148.3016  140.4902  154.2147 C   0  0  0  0  0  0  0  0  0  0  0  0
  148.8403  139.2404  154.0713 C   0  0  0  0  0  0  0  0  0  0  0  0
  148.2356  138.1001  153.6425 N   0  0  0  0  0  0  0  0  0  0  0  0
  147.0055  137.6384  153.9276 C   0  0  0  0  0  0  0  0  0  0  0  0
  146.1845  138.2035  154.6497 O   0  0  0  0  0  0  0  0  0  0  0  0
  146.7817  136.4664  153.3093 N   0  0  0  0  0  0  0  0  0  0  0  0
  145.5701  135.6324  153.3360 C   0  0  0  0  0  0  0  0  0  0  0  0
  144.8775  135.7542  154.7102 C   0  0  0  0  0  0  0  0  0  0  0  0
  144.5923  136.0025  152.1939 C   0  0  0  0  0  0  0  0  0  0  0  0
  145.1767  135.6799  150.8069 C   0  0  0  0  0  0  0  0  0  0  0  0
  145.5175  134.3004  150.7342 O   0  0  0  0  0  0  0  0  0  0  0  0
  146.5120  133.9238  151.6795 C   0  0  0  0  0  0  0  0  0  0  0  0
  146.0005  134.1664  153.1123 C   0  0  0  0  0  0  0  0  0  0  0  0
  151.4093  136.2513  155.4355 H   0  0  0  0  0  0  0  0  0  0  0  0
  149.7286  136.6939  155.1615 H   0  0  0  0  0  0  0  0  0  0  0  0
  150.6327  137.4390  156.4781 H   0  0  0  0  0  0  0  0  0  0  0  0
  151.2271  137.7718  153.4979 H   0  0  0  0  0  0  0  0  0  0  0  0
  153.2973  137.9425  154.8119 H   0  0  0  0  0  0  0  0  0  0  0  0
  152.5760  139.1507  155.8681 H   0  0  0  0  0  0  0  0  0  0  0  0
  152.8621  139.5208  154.1683 H   0  0  0  0  0  0  0  0  0  0  0  0
  149.4312  142.2952  154.9668 H   0  0  0  0  0  0  0  0  0  0  0  0
  147.2959  140.8269  154.0135 H   0  0  0  0  0  0  0  0  0  0  0  0
  148.7886  137.5309  153.0191 H   0  0  0  0  0  0  0  0  0  0  0  0
  147.5370  136.1057  152.7450 H   0  0  0  0  0  0  0  0  0  0  0  0
  144.0270  135.0759  154.7848 H   0  0  0  0  0  0  0  0  0  0  0  0
  144.4971  136.7598  154.8899 H   0  0  0  0  0  0  0  0  0  0  0  0
  145.5624  135.5095  155.5228 H   0  0  0  0  0  0  0  0  0  0  0  0
  143.6673  135.4371  152.3156 H   0  0  0  0  0  0  0  0  0  0  0  0
  144.3018  137.0516  152.2411 H   0  0  0  0  0  0  0  0  0  0  0  0
  144.4401  135.8977  150.0334 H   0  0  0  0  0  0  0  0  0  0  0  0
  146.0507  136.2965  150.5921 H   0  0  0  0  0  0  0  0  0  0  0  0
  146.7419  132.8672  151.5407 H   0  0  0  0  0  0  0  0  0  0  0  0
  147.4353  134.4735  151.4902 H   0  0  0  0  0  0  0  0  0  0  0  0
  146.7660  133.8776  153.8340 H   0  0  0  0  0  0  0  0  0  0  0  0
  145.1518  133.5045  153.2910 H   0  0  0  0  0  0  0  0  0  0  0  0
  1  2  1  0  0  0  0
  1 20  1  0  0  0  0
  1 21  1  0  0  0  0
  1 22  1  0  0  0  0
  2  3  1  0  0  0  0
  2  4  1  0  0  0  0
  2 23  1  0  0  0  0
  3 24  1  0  0  0  0
  3 25  1  0  0  0  0
  3 26  1  0  0  0  0
  4  8  1  0  0  0  0
  4  5  1  0  0  0  0
  5  6  2  0  0  0  0
  6  7  1  0  0  0  0
  6 27  1  0  0  0  0
  7  8  2  0  0  0  0
  7 28  1  0  0  0  0
  8  9  1  0  0  0  0
  9 10  1  0  0  0  0
  9 29  1  0  0  0  0
 10 11  2  0  0  0  0
 10 12  1  0  0  0  0
 12 13  1  0  0  0  0
 12 30  1  0  0  0  0
 13 19  1  0  0  0  0
 13 14  1  0  0  0  0
 13 15  1  0  0  0  0
 14 31  1  0  0  0  0
 14 32  1  0  0  0  0
 14 33  1  0  0  0  0
 15 16  1  0  0  0  0
 15 34  1  0  0  0  0
 15 35  1  0  0  0  0
 16 17  1  0  0  0  0
 16 36  1  0  0  0  0
 16 37  1  0  0  0  0
 17 18  1  0  0  0  0
 18 19  1  0  0  0  0
 18 38  1  0  0  0  0
 18 39  1  0  0  0  0
 19 40  1  0  0  0  0
 19 41  1  0  0  0  0
M  END
> <s_m_source_file>
AV-unprocessed.smi

> <i_m_source_file_index>
2918

> <i_lp_mmshare_version>
43012

> <i_f3d_flags>
0

> <s_epik_input>
W0NIM11bQ0hdKFtDSDNdKW4xbltjSF1bY0hdYzFbTkhdQyg9TylbTkhdQzIoW0NIM10pW0NIMl1bQ0gyXU9bQ0gyXVtDSDJdMg==

> <s_epik_cmdline>
J2VwaWtfcHl0aG9uJywgJy1waCcsICc3LjAnLCAnLXRuJywgJzgnLCAnLW1hJywgJzIwMCcsICctbWV0YWxfYmluZGluZycsICctaW1hZScsICc8aW5maWxlLm1hZT4nLCAnLW9tYWUnLCAnPG91dGZpbGUubWFlPic=

> <r_lp_tautomer_probability>
1

> <r_epik_Ionization_Penalty>
4.13243e-05

> <r_epik_Ionization_Penalty_Charging>
0

> <r_epik_Ionization_Penalty_Neutral>
4.13243e-05

> <r_epik_State_Penalty>
-0

> <r_epik_Charging_Adjusted_Penalty>
0

> <i_epik_Tot_Q>
0

> <i_epik_Tot_abs_Q>
0

> <r_epik_Metal_State_Penalty>
-0

> <b_epik_Metal_Only>
0

> <s_lp_Force_Field>
OPLS_2005

> <r_lp_Energy>
17.4718

> <b_lp_Chiralities_Consistent>
1

> <s_lp_Variant>
AV-unprocessed.smi:2918-1

> <Gold.Version>
5.8.1

> <Gold.Id.Protein>
6NUR|6NUR_protein|mol2

> <Gold.PLP.Fitness>
41.0230

> <Gold.PLP.PLP>
-31.5539

> <Gold.PLP.part.hbond>
-3.0000

> <Gold.PLP.part.metal>
0.0000

> <Gold.PLP.part.buried>
-3.6211

> <Gold.PLP.part.nonpolar>
-25.6748

> <Gold.PLP.part.repulsive>
0.3653

> <Gold.PLP.ligand.clash>
0.0000

> <Gold.PLP.ligand.torsion>
0.9192

> <Gold.PLP.Chemscore.Hbond>
2.9000

> <Gold.PLP.Chemscore.CHOScore>
0.8559

> <Gold.PLP.Chemscore.Metal>
0.0000

> <Gold.Chemscore.Hbonds>
donor molecule, donor type, donor heavy atom, donor atom, acceptor molecule, acceptor atom, score
      L1  H     9    29       P1  7948  1.00
      L1  H    12    30       P1  7948  1.00
      P1  H  7989  7998       L1     5  0.84
      L1  C     6    27       P1  8028  0.90

> <Gold.PLP.Chemscore.Internal.Correction>
0.0399

> <Gold.Rescore>
     Score         DG    S(hbond)    S(metal)    S(lipo)     H(rot)  DE(clash)    DE(int)     intcor
     14.42     -17.12       2.41        0.00      56.78       1.19       0.31       2.39       ----

> <Gold.Chemscore.Fitness>
14.4221

> <Gold.Chemscore.DG>
-17.1225

> <Gold.Chemscore.ZeroCoef>
-5.4800

> <Gold.Chemscore.Hbond>
2.4107

> <Gold.Chemscore.Metal>
0.0000

> <Gold.Chemscore.Lipo>
56.7805

> <Gold.Chemscore.Internal_Hbond>
0.0000

> <Gold.Chemscore.DEClash>
0.3132

> <Gold.Chemscore.DEInternal>
2.3872

> <Gold.Chemscore.Rot>
1.1924

> <Gold.Chemscore.Internal.Correction>
   9.000000E+99

> <Gold.Chemscore.Hbonds>
donor molecule, donor type, donor heavy atom, donor atom, acceptor molecule, acceptor atom, score
      L1  H     9    29       P1  7948  0.97
      L1  H    12    30       P1  7948  0.98
      P1  H  7989  7998       L1     5  0.10

> <Gold.Chemscore.Hbond.Weighted>
-8.0516

> <Gold.Chemscore.Metal.Weighted>
-0.0000

> <Gold.Chemscore.Lipo.Weighted>
-6.6433

> <Gold.Chemscore.Internal_Hbond.Weighted>
0.0000

> <Gold.Chemscore.DEClash.Weighted>
0.3132

> <Gold.Chemscore.DEInternal.Weighted>
2.3872

> <Gold.Chemscore.Rot.Weighted>
3.0524

> <Gold.Chemscore.Internal.Correction.Weighted>
   9.000000E+99

> <Gold.Protein.RotatedTorsions>
[ 6907 6896 6895 6894 ] final  113.02 input  -60.11 | X-H torsion
[ 7974 7965 7964 7962 ] final  -82.34 input  175.53 | X-H torsion
[ 8008 7997 7996 7995 ] final  105.04 input   59.86 | X-H torsion
[ 10167 10162 10161 10158 ] final  166.96 input  -65.29 | X-H torsion
[ 10718 10713 10712 10709 ] final  156.20 input   66.30 | X-H torsion
[ 10763 10752 10751 10750 ] final   31.96 input  -60.55 | X-H torsion
[ 11005 11000 10999 10996 ] final -128.57 input  -57.11 | X-H torsion

> <Gold.Protein.ActiveResidues>
 VAL166  LYS551  ARG553  GLY616  TRP617  ASP618  TYR619  PRO620  LYS621  CYS622 
 ASP623  PHE694  ASN695  SER759  ASP760  ASP761  ALA762  ILE779  LEU786  VAL792 
 PHE793  MET794  SER795  GLU796  ALA797  LYS798  CYS799  TRP800  GLU811  SER814 

> <Gold.Protein.RotatedAtoms>
  152.4884  133.8434  159.7163 H   0  0  0  0  0  0  0  0  0  0  0  0  # atno 6907 bound_to 6896
  150.8991  133.7133  159.2890 H   0  0  0  0  0  0  0  0  0  0  0  0  # atno 6908 bound_to 6896
  151.4580  135.1040  159.9769 H   0  0  0  0  0  0  0  0  0  0  0  0  # atno 6909 bound_to 6896
  145.5347  140.9517  143.1584 H   0  0  0  0  0  0  0  0  0  0  0  0  # atno 7974 bound_to 7965
  156.1625  140.3137  155.8832 H   0  0  0  0  0  0  0  0  0  0  0  0  # atno 8008 bound_to 7997
  155.3753  140.0484  157.3062 H   0  0  0  0  0  0  0  0  0  0  0  0  # atno 8009 bound_to 7997
  154.5160  140.2181  155.9075 H   0  0  0  0  0  0  0  0  0  0  0  0  # atno 8010 bound_to 7997
  139.4935  144.3973  151.9450 H   0  0  0  0  0  0  0  0  0  0  0  0  # atno 10167 bound_to 10162
  157.2082  131.0691  151.1985 H   0  0  0  0  0  0  0  0  0  0  0  0  # atno 10718 bound_to 10713
  153.0287  135.6425  154.1281 H   0  0  0  0  0  0  0  0  0  0  0  0  # atno 10763 bound_to 10752
  154.1006  135.2860  155.3254 H   0  0  0  0  0  0  0  0  0  0  0  0  # atno 10764 bound_to 10752
  154.6401  135.5462  153.7843 H   0  0  0  0  0  0  0  0  0  0  0  0  # atno 10765 bound_to 10752
  140.9505  134.1072  157.4066 H   0  0  0  0  0  0  0  0  0  0  0  0  # atno 11005 bound_to 11000
  144.7608  139.6962  143.7235 LP  0  0  0  0  0  0  0  0  0  0  0  0  # atno 17320 bound_to 7965
  146.2021  139.5322  142.9736 LP  0  0  0  0  0  0  0  0  0  0  0  0  # atno 17321 bound_to 7965
  140.3411  144.3202  150.5967 LP  0  0  0  0  0  0  0  0  0  0  0  0  # atno 17342 bound_to 10162
  140.5565  143.2198  151.7839 LP  0  0  0  0  0  0  0  0  0  0  0  0  # atno 17343 bound_to 10162
  157.3699  130.7175  149.6558 LP  0  0  0  0  0  0  0  0  0  0  0  0  # atno 17370 bound_to 10713
  155.9693  130.4202  150.4410 LP  0  0  0  0  0  0  0  0  0  0  0  0  # atno 17371 bound_to 10713
  139.8846  135.0064  156.6380 LP  0  0  0  0  0  0  0  0  0  0  0  0  # atno 17394 bound_to 11000
  140.7609  133.8818  155.8417 LP  0  0  0  0  0  0  0  0  0  0  0  0  # atno 17395 bound_to 11000

$$$$
