AV-unprocessed.smi:91|AV-procd|sdf|837|dock8
  -GOLD-   2262017263D 1   1.00000     0.00000
 Structure written by MMmdl.
 60 63  0  0  0  0  0  0  0  0  1 V2000
  146.8539  132.1190  152.3618 C   0  0  0  0  0  0  0  0  0  0  0  0
  147.5230  132.3785  153.5831 O   0  0  0  0  0  0  0  0  0  0  0  0
  148.6938  133.1601  153.4055 C   0  0  0  0  0  0  0  0  0  0  0  0
  149.1676  133.7158  154.7555 C   0  0  2  0  0  0  0  0  0  0  0  0
  150.1697  134.8749  154.6109 C   0  0  0  0  0  0  0  0  0  0  0  0
  150.6550  135.2725  155.9269 N   0  0  0  0  0  0  0  0  0  0  0  0
  151.3000  136.4594  156.0487 C   0  0  0  0  0  0  0  0  0  0  0  0
  151.8260  137.0648  154.9503 N   0  0  0  0  0  0  0  0  0  0  0  0
  152.4668  138.2319  155.0653 C   0  0  0  0  0  0  0  0  0  0  0  0
  152.6880  138.9580  156.1626 N   0  0  0  0  0  0  0  0  0  0  0  0
  152.1537  138.3616  157.2662 C   0  0  0  0  0  0  0  0  0  0  0  0
  151.4513  137.1236  157.2985 C   0  0  0  0  0  0  0  0  0  0  0  0
  151.0440  136.8444  158.5980 N   0  0  0  0  0  0  0  0  0  0  0  0
  151.4855  137.8553  159.2948 C   0  0  0  0  0  0  0  0  0  0  0  0
  152.1570  138.8157  158.5738 N   0  0  0  0  0  0  0  0  0  0  0  0
  152.7371  140.0392  159.0998 C   0  0  0  0  0  0  0  0  0  0  0  0
  151.8127  141.2692  158.9226 C   0  0  2  0  0  0  0  0  0  0  0  0
  151.3557  141.4596  157.4557 C   0  0  0  0  0  0  0  0  0  0  0  0
  150.0676  142.0367  157.3868 O   0  0  0  0  0  0  0  0  0  0  0  0
  152.4478  142.5524  159.5157 C   0  0  1  0  0  0  0  0  0  0  0  0
  151.7308  143.8438  159.1620 C   0  0  0  0  0  0  0  0  0  0  0  0
  152.2598  144.8032  160.2211 C   0  0  0  0  0  0  0  0  0  0  0  0
  152.4509  144.0114  161.3873 O   0  0  0  0  0  0  0  0  0  0  0  0
  152.4212  142.6283  161.0472 C   0  0  0  0  0  0  0  0  0  0  0  0
  151.2412  134.1656  156.6743 C   0  0  0  0  0  0  0  0  0  0  0  0
  150.2400  132.9966  156.8068 C   0  0  0  0  0  0  0  0  0  0  0  0
  150.9696  131.7441  157.3155 C   0  0  0  0  0  0  0  0  0  0  0  0
  149.0856  133.3385  157.7728 C   0  0  0  0  0  0  0  0  0  0  0  0
  149.7424  132.6475  155.5097 O   0  0  0  0  0  0  0  0  0  0  0  0
  145.9649  131.5176  152.5512 H   0  0  0  0  0  0  0  0  0  0  0  0
  147.4933  131.5668  151.6718 H   0  0  0  0  0  0  0  0  0  0  0  0
  146.5375  133.0453  151.8807 H   0  0  0  0  0  0  0  0  0  0  0  0
  149.4805  132.5447  152.9665 H   0  0  0  0  0  0  0  0  0  0  0  0
  148.4995  133.9810  152.7136 H   0  0  0  0  0  0  0  0  0  0  0  0
  148.2830  134.0770  155.2800 H   0  0  0  0  0  0  0  0  0  0  0  0
  151.0176  134.5731  153.9941 H   0  0  0  0  0  0  0  0  0  0  0  0
  149.6874  135.7175  154.1136 H   0  0  0  0  0  0  0  0  0  0  0  0
  152.8575  138.6427  154.1461 H   0  0  0  0  0  0  0  0  0  0  0  0
  151.3267  137.9334  160.3607 H   0  0  0  0  0  0  0  0  0  0  0  0
  152.9535  139.8690  160.1544 H   0  0  0  0  0  0  0  0  0  0  0  0
  153.6987  140.2107  158.6147 H   0  0  0  0  0  0  0  0  0  0  0  0
  150.9082  141.0683  159.4988 H   0  0  0  0  0  0  0  0  0  0  0  0
  152.0523  142.0930  156.9067 H   0  0  0  0  0  0  0  0  0  0  0  0
  151.3398  140.5071  156.9266 H   0  0  0  0  0  0  0  0  0  0  0  0
  149.4626  141.4807  157.8538 H   0  0  0  0  0  0  0  0  0  0  0  0
  153.4849  142.6341  159.1859 H   0  0  0  0  0  0  0  0  0  0  0  0
  151.9383  144.1890  158.1488 H   0  0  0  0  0  0  0  0  0  0  0  0
  150.6517  143.7250  159.2699 H   0  0  0  0  0  0  0  0  0  0  0  0
  153.2240  145.2120  159.9162 H   0  0  0  0  0  0  0  0  0  0  0  0
  151.5812  145.6356  160.4082 H   0  0  0  0  0  0  0  0  0  0  0  0
  151.4974  142.2028  161.4415 H   0  0  0  0  0  0  0  0  0  0  0  0
  153.2569  142.0974  161.5037 H   0  0  0  0  0  0  0  0  0  0  0  0
  152.1309  133.8326  156.1378 H   0  0  0  0  0  0  0  0  0  0  0  0
  151.5770  134.4774  157.6629 H   0  0  0  0  0  0  0  0  0  0  0  0
  151.4043  131.9103  158.3018 H   0  0  0  0  0  0  0  0  0  0  0  0
  151.7781  131.4571  156.6422 H   0  0  0  0  0  0  0  0  0  0  0  0
  150.2897  130.8951  157.3914 H   0  0  0  0  0  0  0  0  0  0  0  0
  149.4582  133.4852  158.7872 H   0  0  0  0  0  0  0  0  0  0  0  0
  148.3490  132.5352  157.8051 H   0  0  0  0  0  0  0  0  0  0  0  0
  148.5651  134.2541  157.4941 H   0  0  0  0  0  0  0  0  0  0  0  0
  1  2  1  0  0  0  0
  1 30  1  0  0  0  0
  1 31  1  0  0  0  0
  1 32  1  0  0  0  0
  2  3  1  0  0  0  0
  3  4  1  0  0  0  0
  3 33  1  0  0  0  0
  3 34  1  0  0  0  0
  4 29  1  0  0  0  0
  4  5  1  0  0  0  0
  4 35  1  0  0  0  0
  5  6  1  0  0  0  0
  5 36  1  0  0  0  0
  5 37  1  0  0  0  0
  6  7  1  0  0  0  0
  6 25  1  0  0  0  0
  7 12  1  0  0  0  0
  7  8  2  0  0  0  0
  8  9  1  0  0  0  0
  9 10  2  0  0  0  0
  9 38  1  0  0  0  0
 10 11  1  0  0  0  0
 11 15  1  0  0  0  0
 11 12  2  0  0  0  0
 12 13  1  0  0  0  0
 13 14  2  0  0  0  0
 14 15  1  0  0  0  0
 14 39  1  0  0  0  0
 15 16  1  0  0  0  0
 16 17  1  0  0  0  0
 16 40  1  0  0  0  0
 16 41  1  0  0  0  0
 17 18  1  0  0  0  0
 17 20  1  0  0  0  0
 17 42  1  0  0  0  0
 18 19  1  0  0  0  0
 18 43  1  0  0  0  0
 18 44  1  0  0  0  0
 19 45  1  0  0  0  0
 20 24  1  0  0  0  0
 20 21  1  0  0  0  0
 20 46  1  0  0  0  0
 21 22  1  0  0  0  0
 21 47  1  0  0  0  0
 21 48  1  0  0  0  0
 22 23  1  0  0  0  0
 22 49  1  0  0  0  0
 22 50  1  0  0  0  0
 23 24  1  0  0  0  0
 24 51  1  0  0  0  0
 24 52  1  0  0  0  0
 25 26  1  0  0  0  0
 25 53  1  0  0  0  0
 25 54  1  0  0  0  0
 26 27  1  0  0  0  0
 26 28  1  0  0  0  0
 26 29  1  0  0  0  0
 27 55  1  0  0  0  0
 27 56  1  0  0  0  0
 27 57  1  0  0  0  0
 28 58  1  0  0  0  0
 28 59  1  0  0  0  0
 28 60  1  0  0  0  0
M  END
> <s_m_source_file>
AV-unprocessed.smi

> <i_m_source_file_index>
91

> <i_lp_mmshare_version>
43012

> <i_f3d_flags>
0

> <s_epik_input>
W0NIM11PW0NIMl1bQ0BASF0oTzEpW0NIMl1OKFtDSDJdQzEoW0NIM10pW0NIM10pYyhuW2NIXW4yKWMoYzIzKW5bY0hdbjNbQ0gyXVtDQEhdKFtDSDJdW09IXSlbQ0BASF00W0NIMl1bQ0gyXU9bQ0gyXTQ=

> <s_epik_cmdline>
J2VwaWtfcHl0aG9uJywgJy1waCcsICc3LjAnLCAnLXRuJywgJzgnLCAnLW1hJywgJzIwMCcsICctbWV0YWxfYmluZGluZycsICctaW1hZScsICc8aW5maWxlLm1hZT4nLCAnLW9tYWUnLCAnPG91dGZpbGUubWFlPic=

> <r_lp_tautomer_probability>
1

> <r_epik_Ionization_Penalty>
8.63591e-05

> <r_epik_Ionization_Penalty_Charging>
0

> <r_epik_Ionization_Penalty_Neutral>
8.63591e-05

> <r_epik_State_Penalty>
-0

> <r_epik_Charging_Adjusted_Penalty>
0

> <i_epik_Tot_Q>
0

> <i_epik_Tot_abs_Q>
0

> <r_epik_Metal_State_Penalty>
-0

> <b_epik_Metal_Only>
0

> <s_lp_Force_Field>
OPLS_2005

> <r_lp_Energy>
47.5582

> <b_lp_Chiralities_Consistent>
1

> <s_lp_Variant>
AV-unprocessed.smi:91-5

> <Gold.Version>
5.8.1

> <Gold.Id.Protein>
6NUR|6NUR_protein|mol2

> <Gold.PLP.Fitness>
51.3652

> <Gold.PLP.PLP>
-46.7534

> <Gold.PLP.part.hbond>
-2.9009

> <Gold.PLP.part.metal>
0.0000

> <Gold.PLP.part.buried>
-5.6610

> <Gold.PLP.part.nonpolar>
-38.0731

> <Gold.PLP.part.repulsive>
0.4064

> <Gold.PLP.ligand.clash>
0.0000

> <Gold.PLP.ligand.torsion>
1.3796

> <Gold.PLP.Chemscore.Hbond>
2.2811

> <Gold.PLP.Chemscore.CHOScore>
0.0000

> <Gold.PLP.Chemscore.Metal>
0.0000

> <Gold.Chemscore.Hbonds>
donor molecule, donor type, donor heavy atom, donor atom, acceptor molecule, acceptor atom, score
      P1  H  6896  6909       L1    13  0.64
      P1  H  7997  8009       L1    10  1.00
      P1  H 10752 10765       L1     8  0.85

> <Gold.PLP.Chemscore.Internal.Correction>
0.5278

> <Gold.Rescore>
     Score         DG    S(hbond)    S(metal)    S(lipo)     H(rot)  DE(clash)    DE(int)     intcor
     14.76     -16.60       1.89        0.00     107.40       3.03       0.18       1.66       ----

> <Gold.Chemscore.Fitness>
14.7642

> <Gold.Chemscore.DG>
-16.5998

> <Gold.Chemscore.ZeroCoef>
-5.4800

> <Gold.Chemscore.Hbond>
1.8884

> <Gold.Chemscore.Metal>
0.0000

> <Gold.Chemscore.Lipo>
107.3970

> <Gold.Chemscore.Internal_Hbond>
0.0000

> <Gold.Chemscore.DEClash>
0.1771

> <Gold.Chemscore.DEInternal>
1.6585

> <Gold.Chemscore.Rot>
3.0284

> <Gold.Chemscore.Internal.Correction>
   9.000000E+99

> <Gold.Chemscore.Hbonds>
donor molecule, donor type, donor heavy atom, donor atom, acceptor molecule, acceptor atom, score
      P1  H  6896  6909       L1    13  0.34
      P1  H  7997  8009       L1    10  0.90
      P1  H 10752 10765       L1     8  0.27

> <Gold.Chemscore.Hbond.Weighted>
-6.3071

> <Gold.Chemscore.Metal.Weighted>
-0.0000

> <Gold.Chemscore.Lipo.Weighted>
-12.5654

> <Gold.Chemscore.Internal_Hbond.Weighted>
0.0000

> <Gold.Chemscore.DEClash.Weighted>
0.1771

> <Gold.Chemscore.DEInternal.Weighted>
1.6585

> <Gold.Chemscore.Rot.Weighted>
7.7528

> <Gold.Chemscore.Internal.Correction.Weighted>
   9.000000E+99

> <Gold.Protein.RotatedTorsions>
[ 6907 6896 6895 6894 ] final   98.28 input  -60.11 | X-H torsion
[ 7974 7965 7964 7962 ] final   25.83 input  175.53 | X-H torsion
[ 8008 7997 7996 7995 ] final -159.27 input   59.86 | X-H torsion
[ 10167 10162 10161 10158 ] final   44.28 input  -65.29 | X-H torsion
[ 10718 10713 10712 10709 ] final  -81.27 input   66.30 | X-H torsion
[ 10763 10752 10751 10750 ] final  155.77 input  -60.55 | X-H torsion
[ 11005 11000 10999 10996 ] final  154.97 input  -57.11 | X-H torsion

> <Gold.Protein.ActiveResidues>
 VAL166  LYS551  ARG553  GLY616  TRP617  ASP618  TYR619  PRO620  LYS621  CYS622 
 ASP623  PHE694  ASN695  SER759  ASP760  ASP761  ALA762  ILE779  LEU786  VAL792 
 PHE793  MET794  SER795  GLU796  ALA797  LYS798  CYS799  TRP800  GLU811  SER814 

> <Gold.Protein.RotatedAtoms>
  152.5411  134.0605  159.8149 H   0  0  0  0  0  0  0  0  0  0  0  0  # atno 6907 bound_to 6896
  151.0733  133.5441  159.2633 H   0  0  0  0  0  0  0  0  0  0  0  0  # atno 6908 bound_to 6896
  151.2296  135.0557  159.9036 H   0  0  0  0  0  0  0  0  0  0  0  0  # atno 6909 bound_to 6896
  146.1869  139.7412  142.8860 H   0  0  0  0  0  0  0  0  0  0  0  0  # atno 7974 bound_to 7965
  155.7600  140.0838  157.2160 H   0  0  0  0  0  0  0  0  0  0  0  0  # atno 8008 bound_to 7997
  154.4004  140.1544  156.2878 H   0  0  0  0  0  0  0  0  0  0  0  0  # atno 8009 bound_to 7997
  155.8848  140.3418  155.5916 H   0  0  0  0  0  0  0  0  0  0  0  0  # atno 8010 bound_to 7997
  140.3359  144.2531  150.6162 H   0  0  0  0  0  0  0  0  0  0  0  0  # atno 10167 bound_to 10162
  156.0053  130.4599  150.3927 H   0  0  0  0  0  0  0  0  0  0  0  0  # atno 10718 bound_to 10713
  154.1737  135.2803  155.3073 H   0  0  0  0  0  0  0  0  0  0  0  0  # atno 10763 bound_to 10752
  154.6056  135.5515  153.7423 H   0  0  0  0  0  0  0  0  0  0  0  0  # atno 10764 bound_to 10752
  153.0157  135.6402  154.1876 H   0  0  0  0  0  0  0  0  0  0  0  0  # atno 10765 bound_to 10752
  140.1538  134.8656  157.2489 H   0  0  0  0  0  0  0  0  0  0  0  0  # atno 11005 bound_to 11000
  145.3912  141.0372  143.3123 LP  0  0  0  0  0  0  0  0  0  0  0  0  # atno 17320 bound_to 7965
  144.8413  139.5467  143.6899 LP  0  0  0  0  0  0  0  0  0  0  0  0  # atno 17321 bound_to 7965
  140.5354  143.2234  151.8171 LP  0  0  0  0  0  0  0  0  0  0  0  0  # atno 17342 bound_to 10162
  139.4848  144.4668  151.9475 LP  0  0  0  0  0  0  0  0  0  0  0  0  # atno 17343 bound_to 10162
  157.2000  131.0436  151.2655 LP  0  0  0  0  0  0  0  0  0  0  0  0  # atno 17370 bound_to 10713
  157.3984  130.7320  149.6748 LP  0  0  0  0  0  0  0  0  0  0  0  0  # atno 17371 bound_to 10713
  140.2572  134.3614  155.7420 LP  0  0  0  0  0  0  0  0  0  0  0  0  # atno 17394 bound_to 11000
  141.2202  133.7349  156.9025 LP  0  0  0  0  0  0  0  0  0  0  0  0  # atno 17395 bound_to 11000

$$$$
