AV-unprocessed.smi:189|AV-procd|sdf|1490|dock3
  -GOLD-   2262019313D 1   1.00000     0.00000
 Structure written by MMmdl.
 53 57  0  0  0  0  0  0  0  0  1 V2000
  151.7581  142.3190  158.0537 C   0  0  0  0  0  0  0  0  0  0  0  0
  150.9620  141.0450  157.7244 C   0  0  1  0  0  0  0  0  0  0  0  0
  149.4847  141.1604  158.1279 C   0  0  0  0  0  0  0  0  0  0  0  0
  148.7883  141.7283  156.8830 C   0  0  2  0  0  0  0  0  0  0  0  0
  147.4374  141.0678  156.5549 C   0  0  0  0  0  0  0  0  0  0  0  0
  146.8415  141.5924  155.2315 C   0  0  0  0  0  0  0  0  0  0  0  0
  147.8968  141.8475  154.1316 C   0  0  0  0  0  0  0  0  0  0  0  0
  149.2113  141.1008  154.3998 C   0  0  0  0  0  0  0  0  0  0  0  0
  149.8216  141.5701  155.7461 C   0  0  2  0  0  0  0  0  0  0  0  0
  150.9395  140.7887  156.2860 N   0  0  0  0  0  0  0  0  0  0  0  0
  151.0543  139.4958  155.8914 C   0  0  0  0  0  0  0  0  0  0  0  0
  151.3603  139.1848  154.6035 N   0  0  0  0  0  0  0  0  0  0  0  0
  151.4977  137.9071  154.2372 C   0  0  0  0  0  0  0  0  0  0  0  0
  151.3765  136.8069  154.9833 N   0  0  0  0  0  0  0  0  0  0  0  0
  151.0684  137.1162  156.2757 C   0  0  0  0  0  0  0  0  0  0  0  0
  150.8934  138.4236  156.8086 C   0  0  0  0  0  0  0  0  0  0  0  0
  150.5972  138.3518  158.1637 N   0  0  0  0  0  0  0  0  0  0  0  0
  150.5967  137.0719  158.4185 C   0  0  0  0  0  0  0  0  0  0  0  0
  150.8616  136.2567  157.3403 N   0  0  0  0  0  0  0  0  0  0  0  0
  150.9184  134.8034  157.3390 C   0  0  0  0  0  0  0  0  0  0  0  0
  149.7105  134.1413  156.6360 C   0  0  2  0  0  0  0  0  0  0  0  0
  148.5404  134.3826  157.3980 O   0  0  0  0  0  0  0  0  0  0  0  0
  149.8536  132.6345  156.4350 C   0  0  0  0  0  0  0  0  0  0  0  0
  149.1060  132.3922  155.1314 C   0  0  0  0  0  0  0  0  0  0  0  0
  149.4675  133.5220  154.3561 O   0  0  0  0  0  0  0  0  0  0  0  0
  149.4783  134.6655  155.2047 C   0  0  0  0  0  0  0  0  0  0  0  0
  151.7785  142.4969  159.1290 H   0  0  0  0  0  0  0  0  0  0  0  0
  151.3293  143.2035  157.5818 H   0  0  0  0  0  0  0  0  0  0  0  0
  152.7911  142.2295  157.7163 H   0  0  0  0  0  0  0  0  0  0  0  0
  151.4270  140.2168  158.2618 H   0  0  0  0  0  0  0  0  0  0  0  0
  149.0932  140.1691  158.3592 H   0  0  0  0  0  0  0  0  0  0  0  0
  149.3320  141.7784  159.0133 H   0  0  0  0  0  0  0  0  0  0  0  0
  148.6183  142.7951  157.0348 H   0  0  0  0  0  0  0  0  0  0  0  0
  147.5802  139.9889  156.4754 H   0  0  0  0  0  0  0  0  0  0  0  0
  146.7295  141.2201  157.3701 H   0  0  0  0  0  0  0  0  0  0  0  0
  146.1026  140.8744  154.8739 H   0  0  0  0  0  0  0  0  0  0  0  0
  146.2942  142.5175  155.4155 H   0  0  0  0  0  0  0  0  0  0  0  0
  147.4933  141.5698  153.1574 H   0  0  0  0  0  0  0  0  0  0  0  0
  148.1079  142.9163  154.0771 H   0  0  0  0  0  0  0  0  0  0  0  0
  148.9930  140.0323  154.4062 H   0  0  0  0  0  0  0  0  0  0  0  0
  149.9181  141.2705  153.5872 H   0  0  0  0  0  0  0  0  0  0  0  0
  150.2361  142.5614  155.5573 H   0  0  0  0  0  0  0  0  0  0  0  0
  151.7416  137.7432  153.1981 H   0  0  0  0  0  0  0  0  0  0  0  0
  150.3977  136.6849  159.4072 H   0  0  0  0  0  0  0  0  0  0  0  0
  151.8499  134.4936  156.8633 H   0  0  0  0  0  0  0  0  0  0  0  0
  150.9788  134.4676  158.3750 H   0  0  0  0  0  0  0  0  0  0  0  0
  148.0520  135.0791  156.9866 H   0  0  0  0  0  0  0  0  0  0  0  0
  150.9017  132.3706  156.2887 H   0  0  0  0  0  0  0  0  0  0  0  0
  149.4744  132.0392  157.2668 H   0  0  0  0  0  0  0  0  0  0  0  0
  149.3944  131.4601  154.6453 H   0  0  0  0  0  0  0  0  0  0  0  0
  148.0267  132.3825  155.2911 H   0  0  0  0  0  0  0  0  0  0  0  0
  148.5307  135.1982  155.1110 H   0  0  0  0  0  0  0  0  0  0  0  0
  150.2658  135.3450  154.8774 H   0  0  0  0  0  0  0  0  0  0  0  0
  1  2  1  0  0  0  0
  1 27  1  0  0  0  0
  1 28  1  0  0  0  0
  1 29  1  0  0  0  0
  2 10  1  0  0  0  0
  2  3  1  0  0  0  0
  2 30  1  0  0  0  0
  3  4  1  0  0  0  0
  3 31  1  0  0  0  0
  3 32  1  0  0  0  0
  4  9  1  0  0  0  0
  4  5  1  0  0  0  0
  4 33  1  0  0  0  0
  5  6  1  0  0  0  0
  5 34  1  0  0  0  0
  5 35  1  0  0  0  0
  6  7  1  0  0  0  0
  6 36  1  0  0  0  0
  6 37  1  0  0  0  0
  7  8  1  0  0  0  0
  7 38  1  0  0  0  0
  7 39  1  0  0  0  0
  8  9  1  0  0  0  0
  8 40  1  0  0  0  0
  8 41  1  0  0  0  0
  9 10  1  0  0  0  0
  9 42  1  0  0  0  0
 10 11  1  0  0  0  0
 11 16  1  0  0  0  0
 11 12  2  0  0  0  0
 12 13  1  0  0  0  0
 13 14  2  0  0  0  0
 13 43  1  0  0  0  0
 14 15  1  0  0  0  0
 15 19  1  0  0  0  0
 15 16  2  0  0  0  0
 16 17  1  0  0  0  0
 17 18  2  0  0  0  0
 18 19  1  0  0  0  0
 18 44  1  0  0  0  0
 19 20  1  0  0  0  0
 20 21  1  0  0  0  0
 20 45  1  0  0  0  0
 20 46  1  0  0  0  0
 21 26  1  0  0  0  0
 21 22  1  0  0  0  0
 21 23  1  0  0  0  0
 22 47  1  0  0  0  0
 23 24  1  0  0  0  0
 23 48  1  0  0  0  0
 23 49  1  0  0  0  0
 24 25  1  0  0  0  0
 24 50  1  0  0  0  0
 24 51  1  0  0  0  0
 25 26  1  0  0  0  0
 26 52  1  0  0  0  0
 26 53  1  0  0  0  0
M  END
> <s_m_source_file>
AV-unprocessed.smi

> <i_m_source_file_index>
189

> <i_lp_mmshare_version>
43012

> <i_f3d_flags>
0

> <s_epik_input>
W0NIMl0xW0NIMl1bQ0gyXVtDSDJdW0NASF0oW0NASF0xMilOKFtDQEhdKFtDSDNdKVtDSDJdMiljKG5bY0hdbjMpYyhjMzQpbltjSF1uNFtDSDJdW0NAQF01KFtPSF0pW0NIMl1bQ0gyXU9bQ0gyXTU=

> <s_epik_cmdline>
J2VwaWtfcHl0aG9uJywgJy1waCcsICc3LjAnLCAnLXRuJywgJzgnLCAnLW1hJywgJzIwMCcsICctbWV0YWxfYmluZGluZycsICctaW1hZScsICc8aW5maWxlLm1hZT4nLCAnLW9tYWUnLCAnPG91dGZpbGUubWFlPic=

> <r_lp_tautomer_probability>
1

> <r_epik_Ionization_Penalty>
0.00594261

> <r_epik_Ionization_Penalty_Charging>
0

> <r_epik_Ionization_Penalty_Neutral>
0.00594261

> <r_epik_State_Penalty>
0.00429776

> <r_epik_Charging_Adjusted_Penalty>
0.00429776

> <i_epik_Tot_Q>
0

> <i_epik_Tot_abs_Q>
0

> <r_epik_Metal_State_Penalty>
-0

> <b_epik_Metal_Only>
0

> <s_lp_Force_Field>
OPLS_2005

> <r_lp_Energy>
66.7565

> <b_lp_Chiralities_Consistent>
1

> <s_lp_Variant>
AV-unprocessed.smi:189-16

> <Gold.Version>
5.8.1

> <Gold.Id.Protein>
6NUR|6NUR_protein|mol2

> <Gold.PLP.Fitness>
42.1795

> <Gold.PLP.PLP>
-34.2315

> <Gold.PLP.part.hbond>
-2.0000

> <Gold.PLP.part.metal>
0.0000

> <Gold.PLP.part.buried>
-1.5896

> <Gold.PLP.part.nonpolar>
-29.4257

> <Gold.PLP.part.repulsive>
0.5116

> <Gold.PLP.ligand.clash>
0.0000

> <Gold.PLP.ligand.torsion>
0.4183

> <Gold.PLP.Chemscore.Hbond>
2.0000

> <Gold.PLP.Chemscore.CHOScore>
0.8995

> <Gold.PLP.Chemscore.Metal>
0.0000

> <Gold.Chemscore.Hbonds>
donor molecule, donor type, donor heavy atom, donor atom, acceptor molecule, acceptor atom, score
      P1  H  7989  7998       L1    12  1.00
      P1  H 10752 10765       L1    14  1.00
      L1  C    13    43       P1  7949  1.00

> <Gold.PLP.Chemscore.Internal.Correction>
0.0862

> <Gold.Rescore>
     Score         DG    S(hbond)    S(metal)    S(lipo)     H(rot)  DE(clash)    DE(int)     intcor
      9.75     -15.40       1.80        0.00      77.76       2.03       0.36       5.28       ----

> <Gold.Chemscore.Fitness>
9.7536

> <Gold.Chemscore.DG>
-15.3987

> <Gold.Chemscore.ZeroCoef>
-5.4800

> <Gold.Chemscore.Hbond>
1.8015

> <Gold.Chemscore.Metal>
0.0000

> <Gold.Chemscore.Lipo>
77.7576

> <Gold.Chemscore.Internal_Hbond>
0.0000

> <Gold.Chemscore.DEClash>
0.3647

> <Gold.Chemscore.DEInternal>
5.2804

> <Gold.Chemscore.Rot>
2.0297

> <Gold.Chemscore.Internal.Correction>
   9.000000E+99

> <Gold.Chemscore.Hbonds>
donor molecule, donor type, donor heavy atom, donor atom, acceptor molecule, acceptor atom, score
      P1  H  7989  7998       L1    12  0.77
      P1  H 10752 10765       L1    14  0.57

> <Gold.Chemscore.Hbond.Weighted>
-6.0171

> <Gold.Chemscore.Metal.Weighted>
-0.0000

> <Gold.Chemscore.Lipo.Weighted>
-9.0976

> <Gold.Chemscore.Internal_Hbond.Weighted>
0.0000

> <Gold.Chemscore.DEClash.Weighted>
0.3647

> <Gold.Chemscore.DEInternal.Weighted>
5.2804

> <Gold.Chemscore.Rot.Weighted>
5.1960

> <Gold.Chemscore.Internal.Correction.Weighted>
   9.000000E+99

> <Gold.Protein.RotatedTorsions>
[ 6907 6896 6895 6894 ] final   19.00 input  -60.11 | X-H torsion
[ 7974 7965 7964 7962 ] final   39.95 input  175.53 | X-H torsion
[ 8008 7997 7996 7995 ] final   15.76 input   59.86 | X-H torsion
[ 10167 10162 10161 10158 ] final -122.88 input  -65.29 | X-H torsion
[ 10718 10713 10712 10709 ] final -164.32 input   66.30 | X-H torsion
[ 10763 10752 10751 10750 ] final  176.34 input  -60.55 | X-H torsion
[ 11005 11000 10999 10996 ] final -109.62 input  -57.11 | X-H torsion

> <Gold.Protein.ActiveResidues>
 VAL166  LYS551  ARG553  GLY616  TRP617  ASP618  TYR619  PRO620  LYS621  CYS622 
 ASP623  PHE694  ASN695  SER759  ASP760  ASP761  ALA762  ILE779  LEU786  VAL792 
 PHE793  MET794  SER795  GLU796  ALA797  LYS798  CYS799  TRP800  GLU811  SER814 

> <Gold.Protein.RotatedAtoms>
  151.8741  135.0478  160.0481 H   0  0  0  0  0  0  0  0  0  0  0  0  # atno 6907 bound_to 6896
  152.2565  133.5255  159.5364 H   0  0  0  0  0  0  0  0  0  0  0  0  # atno 6908 bound_to 6896
  150.7101  134.0805  159.3938 H   0  0  0  0  0  0  0  0  0  0  0  0  # atno 6909 bound_to 6896
  146.0944  139.5591  142.9455 H   0  0  0  0  0  0  0  0  0  0  0  0  # atno 7974 bound_to 7965
  154.8673  140.2953  155.5502 H   0  0  0  0  0  0  0  0  0  0  0  0  # atno 8008 bound_to 7997
  156.3021  140.2467  156.3589 H   0  0  0  0  0  0  0  0  0  0  0  0  # atno 8009 bound_to 7997
  154.8854  140.0396  157.1796 H   0  0  0  0  0  0  0  0  0  0  0  0  # atno 8010 bound_to 7997
  140.0095  143.5457  152.2269 H   0  0  0  0  0  0  0  0  0  0  0  0  # atno 10167 bound_to 10162
  156.6374  130.8954  151.2989 H   0  0  0  0  0  0  0  0  0  0  0  0  # atno 10718 bound_to 10713
  154.4799  135.2774  155.1579 H   0  0  0  0  0  0  0  0  0  0  0  0  # atno 10763 bound_to 10752
  154.3293  135.6193  153.5547 H   0  0  0  0  0  0  0  0  0  0  0  0  # atno 10764 bound_to 10752
  152.9874  135.5761  154.5197 H   0  0  0  0  0  0  0  0  0  0  0  0  # atno 10765 bound_to 10752
  141.0837  133.9175  157.2232 H   0  0  0  0  0  0  0  0  0  0  0  0  # atno 11005 bound_to 11000
  145.5977  141.0360  143.2035 LP  0  0  0  0  0  0  0  0  0  0  0  0  # atno 17320 bound_to 7965
  144.7384  139.7519  143.7320 LP  0  0  0  0  0  0  0  0  0  0  0  0  # atno 17321 bound_to 7965
  139.6215  144.7630  151.2730 LP  0  0  0  0  0  0  0  0  0  0  0  0  # atno 17342 bound_to 10162
  140.7387  143.6640  150.8139 LP  0  0  0  0  0  0  0  0  0  0  0  0  # atno 17343 bound_to 10162
  157.7181  130.9523  150.1333 LP  0  0  0  0  0  0  0  0  0  0  0  0  # atno 17370 bound_to 10713
  156.2186  130.3672  149.8583 LP  0  0  0  0  0  0  0  0  0  0  0  0  # atno 17371 bound_to 10713
  139.9653  135.0143  156.9371 LP  0  0  0  0  0  0  0  0  0  0  0  0  # atno 17394 bound_to 11000
  140.5410  134.0720  155.7341 LP  0  0  0  0  0  0  0  0  0  0  0  0  # atno 17395 bound_to 11000

$$$$
