AV-unprocessed.smi:1136|AV-procd|sdf|4862|dock2
  -GOLD-   22720 3433D 1   1.00000     0.00000
 Structure written by MMmdl.
 42 43  0  0  0  0  0  0  0  0  1 V2000
  154.5077  140.3545  161.2514 C   0  0  0  0  0  0  0  0  0  0  0  0
  153.7067  141.5749  160.9056 C   0  0  0  0  0  0  0  0  0  0  0  0
  153.1973  142.5740  161.7816 C   0  0  0  0  0  0  0  0  0  0  0  0
  152.5492  143.4489  160.9558 C   0  0  0  0  0  0  0  0  0  0  0  0
  151.8079  144.7056  161.2747 C   0  0  0  0  0  0  0  0  0  0  0  0
  152.6867  142.9618  159.6677 N   0  0  0  0  0  0  0  0  0  0  0  0
  152.1800  143.5106  158.4173 C   0  0  0  0  0  0  0  0  0  0  0  0
  150.8355  142.8945  158.0172 C   0  0  0  0  0  0  0  0  0  0  0  0
  149.9020  142.8909  158.8190 O   0  0  0  0  0  0  0  0  0  0  0  0
  150.7437  142.3881  156.7768 N   0  0  0  0  0  0  0  0  0  0  0  0
  149.5536  141.7680  156.1994 C   0  0  0  0  0  0  0  0  0  0  0  0
  149.8736  140.6690  155.1685 C   0  0  0  0  0  0  0  0  0  0  0  0
  149.7056  140.9031  153.9699 O   0  0  0  0  0  0  0  0  0  0  0  0
  150.3440  139.4769  155.6103 N   0  0  0  0  0  0  0  0  0  0  0  0
  150.6280  139.1375  157.0117 C   0  0  0  0  0  0  0  0  0  0  0  0
  152.1536  139.0553  157.2002 C   0  0  0  0  0  0  0  0  0  0  0  0
  152.7740  138.0394  156.2218 C   0  0  0  0  0  0  0  0  0  0  0  0
  152.3076  138.2842  154.7737 C   0  0  0  0  0  0  0  0  0  0  0  0
  150.7741  138.4075  154.7000 C   0  0  0  0  0  0  0  0  0  0  0  0
  153.3976  141.8129  159.6417 N   0  0  0  0  0  0  0  0  0  0  0  0
  154.7607  140.3362  162.3117 H   0  0  0  0  0  0  0  0  0  0  0  0
  155.4408  140.3238  160.6882 H   0  0  0  0  0  0  0  0  0  0  0  0
  153.9515  139.4442  161.0269 H   0  0  0  0  0  0  0  0  0  0  0  0
  153.2933  142.6379  162.8554 H   0  0  0  0  0  0  0  0  0  0  0  0
  151.7869  144.8829  162.3501 H   0  0  0  0  0  0  0  0  0  0  0  0
  150.7765  144.6499  160.9263 H   0  0  0  0  0  0  0  0  0  0  0  0
  152.2807  145.5662  160.8014 H   0  0  0  0  0  0  0  0  0  0  0  0
  152.0789  144.5912  158.5252 H   0  0  0  0  0  0  0  0  0  0  0  0
  152.9058  143.3380  157.6209 H   0  0  0  0  0  0  0  0  0  0  0  0
  151.5606  142.4424  156.1854 H   0  0  0  0  0  0  0  0  0  0  0  0
  148.9861  141.3299  157.0208 H   0  0  0  0  0  0  0  0  0  0  0  0
  148.9209  142.5303  155.7418 H   0  0  0  0  0  0  0  0  0  0  0  0
  150.2027  139.8365  157.7297 H   0  0  0  0  0  0  0  0  0  0  0  0
  150.1725  138.1740  157.2451 H   0  0  0  0  0  0  0  0  0  0  0  0
  152.5943  140.0397  157.0352 H   0  0  0  0  0  0  0  0  0  0  0  0
  152.3911  138.7769  158.2272 H   0  0  0  0  0  0  0  0  0  0  0  0
  153.8621  138.0754  156.2796 H   0  0  0  0  0  0  0  0  0  0  0  0
  152.4827  137.0325  156.5235 H   0  0  0  0  0  0  0  0  0  0  0  0
  152.7632  139.1997  154.3934 H   0  0  0  0  0  0  0  0  0  0  0  0
  152.6519  137.4757  154.1284 H   0  0  0  0  0  0  0  0  0  0  0  0
  150.3062  137.4680  154.9972 H   0  0  0  0  0  0  0  0  0  0  0  0
  150.4652  138.5778  153.6679 H   0  0  0  0  0  0  0  0  0  0  0  0
  1  2  1  0  0  0  0
  1 21  1  0  0  0  0
  1 22  1  0  0  0  0
  1 23  1  0  0  0  0
  2 20  2  0  0  0  0
  2  3  1  0  0  0  0
  3  4  2  0  0  0  0
  3 24  1  0  0  0  0
  4  5  1  0  0  0  0
  4  6  1  0  0  0  0
  5 25  1  0  0  0  0
  5 26  1  0  0  0  0
  5 27  1  0  0  0  0
  6  7  1  0  0  0  0
  6 20  1  0  0  0  0
  7  8  1  0  0  0  0
  7 28  1  0  0  0  0
  7 29  1  0  0  0  0
  8  9  2  0  0  0  0
  8 10  1  0  0  0  0
 10 11  1  0  0  0  0
 10 30  1  0  0  0  0
 11 12  1  0  0  0  0
 11 31  1  0  0  0  0
 11 32  1  0  0  0  0
 12 13  2  0  0  0  0
 12 14  1  0  0  0  0
 14 19  1  0  0  0  0
 14 15  1  0  0  0  0
 15 16  1  0  0  0  0
 15 33  1  0  0  0  0
 15 34  1  0  0  0  0
 16 17  1  0  0  0  0
 16 35  1  0  0  0  0
 16 36  1  0  0  0  0
 17 18  1  0  0  0  0
 17 37  1  0  0  0  0
 17 38  1  0  0  0  0
 18 19  1  0  0  0  0
 18 39  1  0  0  0  0
 18 40  1  0  0  0  0
 19 41  1  0  0  0  0
 19 42  1  0  0  0  0
M  END
> <s_m_source_file>
AV-unprocessed.smi

> <i_m_source_file_index>
1136

> <i_lp_mmshare_version>
43012

> <i_f3d_flags>
0

> <s_epik_input>
W0NIM11jMVtjSF1jKFtDSDNdKW4objEpW0NIMl1DKD1PKVtOSF1bQ0gyXUMoPU8pTjJbQ0gyXVtDSDJdW0NIMl1bQ0gyXVtDSDJdMg==

> <s_epik_cmdline>
J2VwaWtfcHl0aG9uJywgJy1waCcsICc3LjAnLCAnLXRuJywgJzgnLCAnLW1hJywgJzIwMCcsICctbWV0YWxfYmluZGluZycsICctaW1hZScsICc8aW5maWxlLm1hZT4nLCAnLW9tYWUnLCAnPG91dGZpbGUubWFlPic=

> <r_lp_tautomer_probability>
1

> <r_epik_Ionization_Penalty>
0.000263643

> <r_epik_Ionization_Penalty_Charging>
0

> <r_epik_Ionization_Penalty_Neutral>
0.000263643

> <r_epik_State_Penalty>
-0

> <r_epik_Charging_Adjusted_Penalty>
0

> <i_epik_Tot_Q>
0

> <i_epik_Tot_abs_Q>
0

> <r_epik_Metal_State_Penalty>
-0

> <b_epik_Metal_Only>
0

> <s_lp_Force_Field>
OPLS_2005

> <r_lp_Energy>
19.7074

> <b_lp_Chiralities_Consistent>
1

> <s_lp_Variant>
AV-unprocessed.smi:1136-1

> <Gold.Version>
5.8.1

> <Gold.Id.Protein>
6NUR|6NUR_protein|mol2

> <Gold.PLP.Fitness>
46.0537

> <Gold.PLP.PLP>
-44.4671

> <Gold.PLP.part.hbond>
-3.0243

> <Gold.PLP.part.metal>
0.0000

> <Gold.PLP.part.buried>
-2.5463

> <Gold.PLP.part.nonpolar>
-39.1465

> <Gold.PLP.part.repulsive>
1.6075

> <Gold.PLP.ligand.clash>
0.0000

> <Gold.PLP.ligand.torsion>
0.7592

> <Gold.PLP.Chemscore.Hbond>
1.0267

> <Gold.PLP.Chemscore.CHOScore>
0.0000

> <Gold.PLP.Chemscore.Metal>
0.0000

> <Gold.Chemscore.Hbonds>
donor molecule, donor type, donor heavy atom, donor atom, acceptor molecule, acceptor atom, score
      P1  H  7989  7998       L1    13  0.41
      P1  H  8011  8017       L1    13  0.46

> <Gold.PLP.Chemscore.Internal.Correction>
0.0248

> <Gold.Rescore>
     Score         DG    S(hbond)    S(metal)    S(lipo)     H(rot)  DE(clash)    DE(int)     intcor
     13.95     -17.05       0.89        0.00     108.65       1.61       2.14       0.96       ----

> <Gold.Chemscore.Fitness>
13.9472

> <Gold.Chemscore.DG>
-17.0479

> <Gold.Chemscore.ZeroCoef>
-5.4800

> <Gold.Chemscore.Hbond>
0.8939

> <Gold.Chemscore.Metal>
0.0000

> <Gold.Chemscore.Lipo>
108.6544

> <Gold.Chemscore.Internal_Hbond>
0.0000

> <Gold.Chemscore.DEClash>
2.1447

> <Gold.Chemscore.DEInternal>
0.9559

> <Gold.Chemscore.Rot>
1.6134

> <Gold.Chemscore.Internal.Correction>
   9.000000E+99

> <Gold.Chemscore.Hbonds>
donor molecule, donor type, donor heavy atom, donor atom, acceptor molecule, acceptor atom, score
      P1  H  7989  7998       L1    13  0.07
      P1  H  8011  8017       L1    13  0.44

> <Gold.Chemscore.Hbond.Weighted>
-2.9856

> <Gold.Chemscore.Metal.Weighted>
-0.0000

> <Gold.Chemscore.Lipo.Weighted>
-12.7126

> <Gold.Chemscore.Internal_Hbond.Weighted>
0.0000

> <Gold.Chemscore.DEClash.Weighted>
2.1447

> <Gold.Chemscore.DEInternal.Weighted>
0.9559

> <Gold.Chemscore.Rot.Weighted>
4.1303

> <Gold.Chemscore.Internal.Correction.Weighted>
   9.000000E+99

> <Gold.Protein.RotatedTorsions>
[ 6907 6896 6895 6894 ] final  -16.01 input  -60.11 | X-H torsion
[ 7974 7965 7964 7962 ] final   41.21 input  175.53 | X-H torsion
[ 8008 7997 7996 7995 ] final   -2.06 input   59.86 | X-H torsion
[ 10167 10162 10161 10158 ] final  -51.71 input  -65.29 | X-H torsion
[ 10718 10713 10712 10709 ] final   58.80 input   66.30 | X-H torsion
[ 10763 10752 10751 10750 ] final  -87.84 input  -60.55 | X-H torsion
[ 11005 11000 10999 10996 ] final  -87.43 input  -57.11 | X-H torsion

> <Gold.Protein.ActiveResidues>
 VAL166  LYS551  ARG553  GLY616  TRP617  ASP618  TYR619  PRO620  LYS621  CYS622 
 ASP623  PHE694  ASN695  SER759  ASP760  ASP761  ALA762  ILE779  LEU786  VAL792 
 PHE793  MET794  SER795  GLU796  ALA797  LYS798  CYS799  TRP800  GLU811  SER814 

> <Gold.Protein.RotatedAtoms>
  151.3152  135.0804  159.9286 H   0  0  0  0  0  0  0  0  0  0  0  0  # atno 6907 bound_to 6896
  152.5269  133.9695  159.7765 H   0  0  0  0  0  0  0  0  0  0  0  0  # atno 6908 bound_to 6896
  151.0006  133.6008  159.2726 H   0  0  0  0  0  0  0  0  0  0  0  0  # atno 6909 bound_to 6896
  146.0842  139.5442  142.9517 H   0  0  0  0  0  0  0  0  0  0  0  0  # atno 7974 bound_to 7965
  154.6399  140.2544  155.7334 H   0  0  0  0  0  0  0  0  0  0  0  0  # atno 8008 bound_to 7997
  156.2523  140.2889  156.0708 H   0  0  0  0  0  0  0  0  0  0  0  0  # atno 8009 bound_to 7997
  155.1613  140.0384  157.2833 H   0  0  0  0  0  0  0  0  0  0  0  0  # atno 8010 bound_to 7997
  140.6574  143.2610  151.4543 H   0  0  0  0  0  0  0  0  0  0  0  0  # atno 10167 bound_to 10162
  157.5625  130.8846  149.9134 H   0  0  0  0  0  0  0  0  0  0  0  0  # atno 10718 bound_to 10713
  154.6380  135.5399  153.7756 H   0  0  0  0  0  0  0  0  0  0  0  0  # atno 10763 bound_to 10752
  153.0319  135.6452  154.1202 H   0  0  0  0  0  0  0  0  0  0  0  0  # atno 10764 bound_to 10752
  154.1128  135.2925  155.3206 H   0  0  0  0  0  0  0  0  0  0  0  0  # atno 10765 bound_to 10752
  141.1617  133.7511  156.9305 H   0  0  0  0  0  0  0  0  0  0  0  0  # atno 11005 bound_to 11000
  145.6161  141.0331  143.1940 LP  0  0  0  0  0  0  0  0  0  0  0  0  # atno 17320 bound_to 7965
  144.7314  139.7715  143.7346 LP  0  0  0  0  0  0  0  0  0  0  0  0  # atno 17321 bound_to 7965
  139.5800  144.1731  152.1955 LP  0  0  0  0  0  0  0  0  0  0  0  0  # atno 17342 bound_to 10162
  140.1053  144.5504  150.6961 LP  0  0  0  0  0  0  0  0  0  0  0  0  # atno 17343 bound_to 10162
  156.0676  130.3690  150.0844 LP  0  0  0  0  0  0  0  0  0  0  0  0  # atno 17370 bound_to 10713
  156.9007  130.9619  151.3576 LP  0  0  0  0  0  0  0  0  0  0  0  0  # atno 17371 bound_to 10713
  140.1389  134.9306  157.2440 LP  0  0  0  0  0  0  0  0  0  0  0  0  # atno 17394 bound_to 11000
  140.2861  134.3294  155.7329 LP  0  0  0  0  0  0  0  0  0  0  0  0  # atno 17395 bound_to 11000

$$$$
