AV-unprocessed.smi:99|AV-procd|sdf|885|dock5
  -GOLD-   2262017363D 1   1.00000     0.00000
 Structure written by MMmdl.
 52 55  0  0  0  0  0  0  0  0  2 V2000
  152.8303  139.2581  158.0020 O   0  0  0  0  0  0  0  0  0  0  0  0
  151.9851  139.8335  158.6905 C   0  0  0  0  0  0  0  0  0  0  0  0
  150.7553  139.3401  158.9284 O   0  0  0  0  0  0  0  0  0  0  0  0
  150.3251  138.1574  158.2755 C   0  0  0  0  0  0  0  0  0  0  0  0
  148.8370  137.9334  158.5774 C   0  0  2  0  0  0  0  0  0  0  0  0
  148.7252  137.3062  159.8503 O   0  0  0  0  0  0  0  0  0  0  0  0
  148.5554  135.9254  159.7203 C   0  0  1  0  0  0  0  0  0  0  0  0
  147.3103  135.5151  160.4739 N   0  0  0  0  0  0  0  0  0  0  0  0
  146.3082  134.7885  159.8523 C   0  0  0  0  0  0  0  0  0  0  0  0
  145.2056  134.3970  160.5230 C   0  0  0  0  0  0  0  0  0  0  0  0
  145.0649  134.7441  161.9341 C   0  0  0  0  0  0  0  0  0  0  0  0
  144.0500  134.3963  162.5344 O   0  0  0  0  0  0  0  0  0  0  0  0
  146.0755  135.4421  162.5284 N   0  5  0  0  0  0  0  0  0  0  0  0
  147.1973  135.8303  161.8547 C   0  0  0  0  0  0  0  0  0  0  0  0
  148.1282  136.4354  162.3875 O   0  0  0  0  0  0  0  0  0  0  0  0
  148.3936  135.5941  158.2291 C   0  0  2  0  0  0  0  0  0  0  0  0
  149.5367  134.9569  157.6976 O   0  0  0  0  0  0  0  0  0  0  0  0
  148.1842  136.9574  157.5915 C   0  0  1  0  0  0  0  0  0  0  0  0
  146.7856  137.2010  157.4949 O   0  0  0  0  0  0  0  0  0  0  0  0
  146.3057  138.2840  156.8511 C   0  0  0  0  0  0  0  0  0  0  0  0
  146.9073  139.3571  156.7737 O   0  0  0  0  0  0  0  0  0  0  0  0
  144.9616  138.0453  156.2508 C   0  0  0  0  0  0  0  0  0  0  0  0
  144.3079  139.0991  155.5707 C   0  0  0  0  0  0  0  0  0  0  0  0
  143.0367  138.9024  154.9968 C   0  0  0  0  0  0  0  0  0  0  0  0
  142.4035  137.6498  155.0965 C   0  0  0  0  0  0  0  0  0  0  0  0
  143.0437  136.5931  155.7701 C   0  0  0  0  0  0  0  0  0  0  0  0
  144.3148  136.7877  156.3442 C   0  0  0  0  0  0  0  0  0  0  0  0
  152.2156  141.1533  159.3459 C   0  0  0  0  0  0  0  0  0  0  0  0
  153.0602  141.2274  160.4781 C   0  0  0  0  0  0  0  0  0  0  0  0
  153.2971  142.4602  161.1167 C   0  0  0  0  0  0  0  0  0  0  0  0
  152.6914  143.6338  160.6316 C   0  0  0  0  0  0  0  0  0  0  0  0
  151.8484  143.5733  159.5067 C   0  0  0  0  0  0  0  0  0  0  0  0
  151.6106  142.3415  158.8665 C   0  0  0  0  0  0  0  0  0  0  0  0
  150.4730  138.2750  157.2012 H   0  0  0  0  0  0  0  0  0  0  0  0
  150.9195  137.3019  158.5990 H   0  0  0  0  0  0  0  0  0  0  0  0
  148.3234  138.8957  158.5831 H   0  0  0  0  0  0  0  0  0  0  0  0
  149.3891  135.4166  160.2073 H   0  0  0  0  0  0  0  0  0  0  0  0
  146.4024  134.5138  158.8124 H   0  0  0  0  0  0  0  0  0  0  0  0
  144.4360  133.8271  160.0234 H   0  0  0  0  0  0  0  0  0  0  0  0
  147.5434  134.9298  158.0629 H   0  0  0  0  0  0  0  0  0  0  0  0
  149.8664  135.4873  156.9877 H   0  0  0  0  0  0  0  0  0  0  0  0
  148.6351  137.0058  156.5987 H   0  0  0  0  0  0  0  0  0  0  0  0
  144.7741  140.0699  155.4815 H   0  0  0  0  0  0  0  0  0  0  0  0
  142.5472  139.7145  154.4794 H   0  0  0  0  0  0  0  0  0  0  0  0
  141.4285  137.4993  154.6567 H   0  0  0  0  0  0  0  0  0  0  0  0
  142.5601  135.6304  155.8475 H   0  0  0  0  0  0  0  0  0  0  0  0
  144.7770  135.9544  156.8533 H   0  0  0  0  0  0  0  0  0  0  0  0
  153.5365  140.3396  160.8685 H   0  0  0  0  0  0  0  0  0  0  0  0
  153.9450  142.5047  161.9797 H   0  0  0  0  0  0  0  0  0  0  0  0
  152.8724  144.5791  161.1215 H   0  0  0  0  0  0  0  0  0  0  0  0
  151.3825  144.4733  159.1332 H   0  0  0  0  0  0  0  0  0  0  0  0
  150.9572  142.3302  158.0063 H   0  0  0  0  0  0  0  0  0  0  0  0
  1  2  2  0  0  0  0
  2  3  1  0  0  0  0
  2 28  1  0  0  0  0
  3  4  1  0  0  0  0
  4  5  1  0  0  0  0
  4 34  1  0  0  0  0
  4 35  1  0  0  0  0
  5 18  1  0  0  0  0
  5  6  1  0  0  0  0
  5 36  1  0  0  0  0
  6  7  1  0  0  0  0
  7  8  1  0  0  0  0
  7 16  1  0  0  0  0
  7 37  1  0  0  0  0
  8 14  1  0  0  0  0
  8  9  1  0  0  0  0
  9 10  2  0  0  0  0
  9 38  1  0  0  0  0
 10 11  1  0  0  0  0
 10 39  1  0  0  0  0
 11 12  2  0  0  0  0
 11 13  1  0  0  0  0
 13 14  1  0  0  0  0
 14 15  2  0  0  0  0
 16 17  1  0  0  0  0
 16 18  1  0  0  0  0
 16 40  1  0  0  0  0
 17 41  1  0  0  0  0
 18 19  1  0  0  0  0
 18 42  1  0  0  0  0
 19 20  1  0  0  0  0
 20 21  2  0  0  0  0
 20 22  1  0  0  0  0
 22 27  1  0  0  0  0
 22 23  2  0  0  0  0
 23 24  1  0  0  0  0
 23 43  1  0  0  0  0
 24 25  2  0  0  0  0
 24 44  1  0  0  0  0
 25 26  1  0  0  0  0
 25 45  1  0  0  0  0
 26 27  2  0  0  0  0
 26 46  1  0  0  0  0
 27 47  1  0  0  0  0
 28 33  1  0  0  0  0
 28 29  2  0  0  0  0
 29 30  1  0  0  0  0
 29 48  1  0  0  0  0
 30 31  2  0  0  0  0
 30 49  1  0  0  0  0
 31 32  1  0  0  0  0
 31 50  1  0  0  0  0
 32 33  2  0  0  0  0
 32 51  1  0  0  0  0
 33 52  1  0  0  0  0
M  CHG  1  13  -1
M  END
> <s_m_source_file>
AV-unprocessed.smi

> <i_m_source_file_index>
99

> <i_lp_mmshare_version>
43012

> <i_f3d_flags>
0

> <s_epik_input>
W2NIXTFbY0hdW2NIXVtjSF1bY0hdYzFDKD1PKU9bQ0gyXVtDQEBIXTJPW0NAQEhdKG4zW2NIXVtjSF1jKD1PKVtuSF1jMz1PKVtDQEBIXShbT0hdKVtDQEhdMk9DKD1PKWM0W2NIXVtjSF1bY0hdW2NIXVtjSF00

> <s_epik_cmdline>
J2VwaWtfcHl0aG9uJywgJy1waCcsICc3LjAnLCAnLXRuJywgJzgnLCAnLW1hJywgJzIwMCcsICctbWV0YWxfYmluZGluZycsICctaW1hZScsICc8aW5maWxlLm1hZT4nLCAnLW9tYWUnLCAnPG91dGZpbGUubWFlPic=

> <r_lp_tautomer_probability>
1

> <r_epik_Ionization_Penalty>
2.89159

> <r_epik_Ionization_Penalty_Charging>
2.1077e-08

> <r_epik_Ionization_Penalty_Neutral>
2.89159

> <r_epik_State_Penalty>
2.88671

> <r_epik_Charging_Adjusted_Penalty>
2.88671

> <i_epik_Tot_Q>
-1

> <i_epik_Tot_abs_Q>
1

> <r_epik_Metal_State_Penalty>
0.0727308

> <b_epik_Metal_Only>
1

> <s_epik_Chemistry_Notes>
This compound has an ester and may undergo hydrolysis at high or low pH. This compound contains an acetal/aminal-like group ( X-CH(R)-Y where X, Y are N, S, or O) that may be acid/base labile, releasing an aldehyde.

> <s_lp_Force_Field>
OPLS_2005

> <r_lp_Energy>
38.0652

> <b_lp_Chiralities_Consistent>
1

> <s_lp_Variant>
AV-unprocessed.smi:99-21

> <Gold.Version>
5.8.1

> <Gold.Id.Protein>
6NUR|6NUR_protein|mol2

> <Gold.PLP.Fitness>
46.7015

> <Gold.PLP.PLP>
-41.1907

> <Gold.PLP.part.hbond>
-5.6575

> <Gold.PLP.part.metal>
0.0000

> <Gold.PLP.part.buried>
-6.4555

> <Gold.PLP.part.nonpolar>
-29.9496

> <Gold.PLP.part.repulsive>
0.0493

> <Gold.PLP.ligand.clash>
0.0000

> <Gold.PLP.ligand.torsion>
2.1091

> <Gold.PLP.Chemscore.Hbond>
3.1691

> <Gold.PLP.Chemscore.CHOScore>
0.0000

> <Gold.PLP.Chemscore.Metal>
0.0000

> <Gold.Chemscore.Hbonds>
donor molecule, donor type, donor heavy atom, donor atom, acceptor molecule, acceptor atom, score
      P1  H  6896  6909       L1    17  0.71
      P1  H  6931  6943       L1    15  0.89
      P1  H  7997  8008       L1     1  0.70

> <Gold.PLP.Chemscore.Internal.Correction>
0.2218

> <Gold.Rescore>
     Score         DG    S(hbond)    S(metal)    S(lipo)     H(rot)  DE(clash)    DE(int)     intcor
     15.18     -17.62       3.05        0.00      85.26       3.13       0.07       2.36       ----

> <Gold.Chemscore.Fitness>
15.1806

> <Gold.Chemscore.DG>
-17.6172

> <Gold.Chemscore.ZeroCoef>
-5.4800

> <Gold.Chemscore.Hbond>
3.0499

> <Gold.Chemscore.Metal>
0.0000

> <Gold.Chemscore.Lipo>
85.2573

> <Gold.Chemscore.Internal_Hbond>
0.0000

> <Gold.Chemscore.DEClash>
0.0727

> <Gold.Chemscore.DEInternal>
2.3638

> <Gold.Chemscore.Rot>
3.1346

> <Gold.Chemscore.Internal.Correction>
   9.000000E+99

> <Gold.Chemscore.Hbonds>
donor molecule, donor type, donor heavy atom, donor atom, acceptor molecule, acceptor atom, score
      P1  H  6896  6909       L1    17  0.34
      P1  H  6931  6943       L1    15  0.87
      P1  H  7997  8008       L1     1  0.69

> <Gold.Chemscore.Hbond.Weighted>
-10.1866

> <Gold.Chemscore.Metal.Weighted>
-0.0000

> <Gold.Chemscore.Lipo.Weighted>
-9.9751

> <Gold.Chemscore.Internal_Hbond.Weighted>
0.0000

> <Gold.Chemscore.DEClash.Weighted>
0.0727

> <Gold.Chemscore.DEInternal.Weighted>
2.3638

> <Gold.Chemscore.Rot.Weighted>
8.0246

> <Gold.Chemscore.Internal.Correction.Weighted>
   9.000000E+99

> <Gold.Protein.RotatedTorsions>
[ 6907 6896 6895 6894 ] final   31.50 input  -60.11 | X-H torsion
[ 7974 7965 7964 7962 ] final  141.69 input  175.53 | X-H torsion
[ 8008 7997 7996 7995 ] final  -73.34 input   59.86 | X-H torsion
[ 10167 10162 10161 10158 ] final -176.33 input  -65.29 | X-H torsion
[ 10718 10713 10712 10709 ] final  122.15 input   66.30 | X-H torsion
[ 10763 10752 10751 10750 ] final  -80.19 input  -60.55 | X-H torsion
[ 11005 11000 10999 10996 ] final    0.81 input  -57.11 | X-H torsion

> <Gold.Protein.ActiveResidues>
 VAL166  LYS551  ARG553  GLY616  TRP617  ASP618  TYR619  PRO620  LYS621  CYS622 
 ASP623  PHE694  ASN695  SER759  ASP760  ASP761  ALA762  ILE779  LEU786  VAL792 
 PHE793  MET794  SER795  GLU796  ALA797  LYS798  CYS799  TRP800  GLU811  SER814 

> <Gold.Protein.RotatedAtoms>
  152.0611  134.9594  160.0574 H   0  0  0  0  0  0  0  0  0  0  0  0  # atno 6907 bound_to 6896
  152.0957  133.4218  159.4572 H   0  0  0  0  0  0  0  0  0  0  0  0  # atno 6908 bound_to 6896
  150.6838  134.2739  159.4643 H   0  0  0  0  0  0  0  0  0  0  0  0  # atno 6909 bound_to 6896
  144.9074  139.5340  143.5725 H   0  0  0  0  0  0  0  0  0  0  0  0  # atno 7974 bound_to 7965
  154.5239  140.0781  156.8223 H   0  0  0  0  0  0  0  0  0  0  0  0  # atno 8008 bound_to 7997
  155.3516  140.3413  155.4221 H   0  0  0  0  0  0  0  0  0  0  0  0  # atno 8009 bound_to 7997
  156.1711  140.1620  156.8432 H   0  0  0  0  0  0  0  0  0  0  0  0  # atno 8010 bound_to 7997
  139.5535  144.2048  152.1119 H   0  0  0  0  0  0  0  0  0  0  0  0  # atno 10167 bound_to 10162
  157.5764  131.1079  150.8270 H   0  0  0  0  0  0  0  0  0  0  0  0  # atno 10718 bound_to 10713
  154.5480  135.5670  153.6897 H   0  0  0  0  0  0  0  0  0  0  0  0  # atno 10763 bound_to 10752
  152.9982  135.6244  154.2412 H   0  0  0  0  0  0  0  0  0  0  0  0  # atno 10764 bound_to 10752
  154.2346  135.2864  155.2857 H   0  0  0  0  0  0  0  0  0  0  0  0  # atno 10765 bound_to 10752
  140.6225  133.9649  155.8232 H   0  0  0  0  0  0  0  0  0  0  0  0  # atno 11005 bound_to 11000
  146.3141  139.7853  142.8997 LP  0  0  0  0  0  0  0  0  0  0  0  0  # atno 17320 bound_to 7965
  145.3513  141.0308  143.3337 LP  0  0  0  0  0  0  0  0  0  0  0  0  # atno 17321 bound_to 7965
  140.1548  144.5081  150.6666 LP  0  0  0  0  0  0  0  0  0  0  0  0  # atno 17342 bound_to 10162
  140.6803  143.2324  151.5400 LP  0  0  0  0  0  0  0  0  0  0  0  0  # atno 17343 bound_to 10162
  156.8728  130.5152  149.5295 LP  0  0  0  0  0  0  0  0  0  0  0  0  # atno 17370 bound_to 10713
  156.0809  130.5820  150.9561 LP  0  0  0  0  0  0  0  0  0  0  0  0  # atno 17371 bound_to 10713
  141.0733  134.0173  157.3495 LP  0  0  0  0  0  0  0  0  0  0  0  0  # atno 17394 bound_to 11000
  139.9148  135.0195  156.7837 LP  0  0  0  0  0  0  0  0  0  0  0  0  # atno 17395 bound_to 11000

$$$$
