AV-unprocessed.smi:3202|AV-procd|sdf|12245|dock10
  -GOLD-   2272018 83D 1   1.00000     0.00000
 Structure written by MMmdl.
 43 44  0  0  0  0  0  0  0  0  2 V2000
  150.6072  135.9260  154.4919 C   0  0  0  0  0  0  0  0  0  0  0  0
  151.1060  137.3277  154.6854 C   0  0  0  0  0  0  0  0  0  0  0  0
  150.4329  138.4267  155.2953 C   0  0  0  0  0  0  0  0  0  0  0  0
  151.3250  139.4588  155.2102 C   0  0  0  0  0  0  0  0  0  0  0  0
  151.2359  140.8812  155.6617 C   0  0  0  0  0  0  0  0  0  0  0  0
  149.9193  141.2321  156.3806 C   0  0  2  0  0  0  0  0  0  0  0  0
  148.7575  141.4674  155.4014 C   0  0  0  0  0  0  0  0  0  0  0  0
  150.1162  142.4379  157.2154 N   0  3  0  0  0  0  0  0  0  0  0  0
  151.4589  142.5839  157.8224 C   0  0  2  0  0  0  0  0  0  0  0  0
  151.7035  141.6246  158.9951 C   0  0  0  0  0  0  0  0  0  0  0  0
  152.7700  142.3053  159.8625 C   0  0  0  0  0  0  0  0  0  0  0  0
  152.9373  143.7281  159.3075 C   0  0  0  0  0  0  0  0  0  0  0  0
  151.7235  143.9920  158.3972 C   0  0  0  0  0  0  0  0  0  0  0  0
  152.0672  145.0054  157.2893 C   0  0  0  0  0  0  0  0  0  0  0  0
  150.5429  144.5284  159.2403 C   0  0  0  0  0  0  0  0  0  0  0  0
  152.4412  138.9501  154.5860 N   0  0  0  0  0  0  0  0  0  0  0  0
  152.3171  137.6511  154.2579 N   0  0  0  0  0  0  0  0  0  0  0  0
  153.2825  139.4692  154.3781 H   0  0  0  0  0  0  0  0  0  0  0  0
  149.6355  135.7848  154.9656 H   0  0  0  0  0  0  0  0  0  0  0  0
  151.2952  135.1998  154.9256 H   0  0  0  0  0  0  0  0  0  0  0  0
  150.4976  135.6914  153.4329 H   0  0  0  0  0  0  0  0  0  0  0  0
  149.4437  138.4512  155.7283 H   0  0  0  0  0  0  0  0  0  0  0  0
  151.3692  141.5439  154.8052 H   0  0  0  0  0  0  0  0  0  0  0  0
  152.0744  141.0858  156.3286 H   0  0  0  0  0  0  0  0  0  0  0  0
  149.6501  140.3898  157.0201 H   0  0  0  0  0  0  0  0  0  0  0  0
  148.5460  140.5762  154.8099 H   0  0  0  0  0  0  0  0  0  0  0  0
  148.9798  142.2803  154.7093 H   0  0  0  0  0  0  0  0  0  0  0  0
  147.8416  141.7251  155.9340 H   0  0  0  0  0  0  0  0  0  0  0  0
  149.9533  143.2451  156.6307 H   0  0  0  0  0  0  0  0  0  0  0  0
  152.2071  142.3829  157.0530 H   0  0  0  0  0  0  0  0  0  0  0  0
  150.7911  141.4940  159.5789 H   0  0  0  0  0  0  0  0  0  0  0  0
  152.0180  140.6360  158.6594 H   0  0  0  0  0  0  0  0  0  0  0  0
  152.4482  142.3298  160.9043 H   0  0  0  0  0  0  0  0  0  0  0  0
  153.7167  141.7653  159.8273 H   0  0  0  0  0  0  0  0  0  0  0  0
  153.0412  144.4698  160.1006 H   0  0  0  0  0  0  0  0  0  0  0  0
  153.8573  143.7652  158.7218 H   0  0  0  0  0  0  0  0  0  0  0  0
  152.3306  145.9759  157.7114 H   0  0  0  0  0  0  0  0  0  0  0  0
  151.2233  145.1572  156.6157 H   0  0  0  0  0  0  0  0  0  0  0  0
  152.9119  144.6716  156.6856 H   0  0  0  0  0  0  0  0  0  0  0  0
  150.8014  145.4748  159.7166 H   0  0  0  0  0  0  0  0  0  0  0  0
  150.2558  143.8370  160.0326 H   0  0  0  0  0  0  0  0  0  0  0  0
  149.6600  144.7121  158.6275 H   0  0  0  0  0  0  0  0  0  0  0  0
  149.4284  142.4392  157.9552 H   0  0  0  0  0  0  0  0  0  0  0  0
  1 19  1  0  0  0  0
  1 20  1  0  0  0  0
  1 21  1  0  0  0  0
  1  2  1  0  0  0  0
  2 17  2  0  0  0  0
  2  3  1  0  0  0  0
  3  4  2  0  0  0  0
  3 22  1  0  0  0  0
  4 16  1  0  0  0  0
  4  5  1  0  0  0  0
  5  6  1  0  0  0  0
  5 23  1  0  0  0  0
  5 24  1  0  0  0  0
  6  7  1  0  0  0  0
  6  8  1  0  0  0  0
  6 25  1  0  0  0  0
  7 26  1  0  0  0  0
  7 27  1  0  0  0  0
  7 28  1  0  0  0  0
  8  9  1  0  0  0  0
  8 29  1  0  0  0  0
  8 43  1  0  0  0  0
  9 13  1  0  0  0  0
  9 10  1  0  0  0  0
  9 30  1  0  0  0  0
 10 11  1  0  0  0  0
 10 31  1  0  0  0  0
 10 32  1  0  0  0  0
 11 12  1  0  0  0  0
 11 33  1  0  0  0  0
 11 34  1  0  0  0  0
 12 13  1  0  0  0  0
 12 35  1  0  0  0  0
 12 36  1  0  0  0  0
 13 14  1  0  0  0  0
 13 15  1  0  0  0  0
 14 37  1  0  0  0  0
 14 38  1  0  0  0  0
 14 39  1  0  0  0  0
 15 40  1  0  0  0  0
 15 41  1  0  0  0  0
 15 42  1  0  0  0  0
 16 17  1  0  0  0  0
 16 18  1  0  0  0  0
M  CHG  1   8   1
M  END
> <s_m_source_file>
AV-unprocessed.smi

> <i_m_source_file_index>
3202

> <i_lp_mmshare_version>
43012

> <i_f3d_flags>
0

> <s_epik_input>
W0NIM11jMVtjSF1jKG5bbkhdMSlbQ0gyXVtDQEhdKFtDSDNdKVtOSF1bQ0BASF0oQzIoW0NIM10pW0NIM10pW0NIMl1bQ0gyXVtDSDJdMg==

> <s_epik_cmdline>
J2VwaWtfcHl0aG9uJywgJy1waCcsICc3LjAnLCAnLXRuJywgJzgnLCAnLW1hJywgJzIwMCcsICctbWV0YWxfYmluZGluZycsICctaW1hZScsICc8aW5maWxlLm1hZT4nLCAnLW9tYWUnLCAnPG91dGZpbGUubWFlPic=

> <r_lp_tautomer_probability>
0.5

> <r_epik_Ionization_Penalty>
0.000449684

> <r_epik_Ionization_Penalty_Charging>
0.000404963

> <r_epik_Ionization_Penalty_Neutral>
4.47208e-05

> <r_epik_State_Penalty>
0.41068

> <r_epik_Charging_Adjusted_Penalty>
0.411085

> <i_epik_Tot_Q>
1

> <i_epik_Tot_abs_Q>
1

> <r_epik_Metal_State_Penalty>
0.410687

> <b_epik_Metal_Only>
0

> <s_lp_Force_Field>
OPLS_2005

> <r_lp_Energy>
32.3092

> <b_lp_Chiralities_Consistent>
1

> <s_lp_Variant>
AV-unprocessed.smi:3202-5

> <Gold.Version>
5.8.1

> <Gold.Id.Protein>
6NUR|6NUR_protein|mol2

> <Gold.PLP.Fitness>
43.7204

> <Gold.PLP.PLP>
-36.4696

> <Gold.PLP.part.hbond>
-2.0000

> <Gold.PLP.part.metal>
0.0000

> <Gold.PLP.part.buried>
-3.9916

> <Gold.PLP.part.nonpolar>
-30.7959

> <Gold.PLP.part.repulsive>
0.3545

> <Gold.PLP.ligand.clash>
0.0000

> <Gold.PLP.ligand.torsion>
0.5557

> <Gold.PLP.Chemscore.Hbond>
2.7840

> <Gold.PLP.Chemscore.CHOScore>
0.0000

> <Gold.PLP.Chemscore.Metal>
0.0000

> <Gold.Chemscore.Hbonds>
donor molecule, donor type, donor heavy atom, donor atom, acceptor molecule, acceptor atom, score
      L1  H     8    29       P1  8028  1.85
      P1  H 10752 10765       L1    17  0.51

> <Gold.PLP.Chemscore.Internal.Correction>
0.0102

> <Gold.Rescore>
     Score         DG    S(hbond)    S(metal)    S(lipo)     H(rot)  DE(clash)    DE(int)     intcor
     19.18     -21.36       1.59        0.00     122.35       1.46       1.73       0.45       ----

> <Gold.Chemscore.Fitness>
19.1812

> <Gold.Chemscore.DG>
-21.3564

> <Gold.Chemscore.ZeroCoef>
-5.4800

> <Gold.Chemscore.Hbond>
1.5863

> <Gold.Chemscore.Metal>
0.0000

> <Gold.Chemscore.Lipo>
122.3487

> <Gold.Chemscore.Internal_Hbond>
0.0000

> <Gold.Chemscore.DEClash>
1.7260

> <Gold.Chemscore.DEInternal>
0.4492

> <Gold.Chemscore.Rot>
1.4596

> <Gold.Chemscore.Internal.Correction>
   9.000000E+99

> <Gold.Chemscore.Hbonds>
donor molecule, donor type, donor heavy atom, donor atom, acceptor molecule, acceptor atom, score
      L1  H     8    29       P1  8028  0.88
      P1  H 10752 10765       L1    17  0.06

> <Gold.Chemscore.Hbond.Weighted>
-5.2981

> <Gold.Chemscore.Metal.Weighted>
-0.0000

> <Gold.Chemscore.Lipo.Weighted>
-14.3148

> <Gold.Chemscore.Internal_Hbond.Weighted>
0.0000

> <Gold.Chemscore.DEClash.Weighted>
1.7260

> <Gold.Chemscore.DEInternal.Weighted>
0.4492

> <Gold.Chemscore.Rot.Weighted>
3.7365

> <Gold.Chemscore.Internal.Correction.Weighted>
   9.000000E+99

> <Gold.Protein.RotatedTorsions>
[ 6907 6896 6895 6894 ] final -158.44 input  -60.11 | X-H torsion
[ 7974 7965 7964 7962 ] final  -44.98 input  175.53 | X-H torsion
[ 8008 7997 7996 7995 ] final -162.40 input   59.86 | X-H torsion
[ 10167 10162 10161 10158 ] final -164.11 input  -65.29 | X-H torsion
[ 10718 10713 10712 10709 ] final  109.10 input   66.30 | X-H torsion
[ 10763 10752 10751 10750 ] final  156.00 input  -60.55 | X-H torsion
[ 11005 11000 10999 10996 ] final  154.12 input  -57.11 | X-H torsion

> <Gold.Protein.ActiveResidues>
 VAL166  LYS551  ARG553  GLY616  TRP617  ASP618  TYR619  PRO620  LYS621  CYS622 
 ASP623  PHE694  ASN695  SER759  ASP760  ASP761  ALA762  ILE779  LEU786  VAL792 
 PHE793  MET794  SER795  GLU796  ALA797  LYS798  CYS799  TRP800  GLU811  SER814 

> <Gold.Protein.RotatedAtoms>
  151.3181  133.4051  159.2652 H   0  0  0  0  0  0  0  0  0  0  0  0  # atno 6907 bound_to 6896
  151.0057  134.9358  159.7989 H   0  0  0  0  0  0  0  0  0  0  0  0  # atno 6908 bound_to 6896
  152.5287  134.3146  159.9178 H   0  0  0  0  0  0  0  0  0  0  0  0  # atno 6909 bound_to 6896
  145.9867  140.7226  142.9337 H   0  0  0  0  0  0  0  0  0  0  0  0  # atno 7974 bound_to 7965
  155.8062  140.0899  157.1929 H   0  0  0  0  0  0  0  0  0  0  0  0  # atno 8008 bound_to 7997
  154.3981  140.1463  156.3392 H   0  0  0  0  0  0  0  0  0  0  0  0  # atno 8009 bound_to 7997
  155.8412  140.3438  155.5636 H   0  0  0  0  0  0  0  0  0  0  0  0  # atno 8010 bound_to 7997
  139.6273  144.0507  152.1986 H   0  0  0  0  0  0  0  0  0  0  0  0  # atno 10167 bound_to 10162
  157.6557  131.0907  150.6404 H   0  0  0  0  0  0  0  0  0  0  0  0  # atno 10718 bound_to 10713
  154.1774  135.2801  155.3062 H   0  0  0  0  0  0  0  0  0  0  0  0  # atno 10763 bound_to 10752
  154.6029  135.5524  153.7396 H   0  0  0  0  0  0  0  0  0  0  0  0  # atno 10764 bound_to 10752
  153.0147  135.6396  154.1914 H   0  0  0  0  0  0  0  0  0  0  0  0  # atno 10765 bound_to 10752
  140.1460  134.8707  157.2393 H   0  0  0  0  0  0  0  0  0  0  0  0  # atno 11005 bound_to 11000
  144.6877  140.3000  143.7265 LP  0  0  0  0  0  0  0  0  0  0  0  0  # atno 17320 bound_to 7965
  145.7691  139.1851  143.2223 LP  0  0  0  0  0  0  0  0  0  0  0  0  # atno 17321 bound_to 7965
  140.0164  144.6186  150.7604 LP  0  0  0  0  0  0  0  0  0  0  0  0  # atno 17342 bound_to 10162
  140.7418  143.2824  151.3561 LP  0  0  0  0  0  0  0  0  0  0  0  0  # atno 17343 bound_to 10162
  156.6711  130.4539  149.5657 LP  0  0  0  0  0  0  0  0  0  0  0  0  # atno 17370 bound_to 10713
  156.1997  130.6612  151.1154 LP  0  0  0  0  0  0  0  0  0  0  0  0  # atno 17371 bound_to 10713
  140.2663  134.3512  155.7389 LP  0  0  0  0  0  0  0  0  0  0  0  0  # atno 17394 bound_to 11000
  141.2192  133.7398  156.9156 LP  0  0  0  0  0  0  0  0  0  0  0  0  # atno 17395 bound_to 11000

$$$$
