AV-unprocessed.smi:3253|AV-procd|sdf|12450|dock3
  -GOLD-   2272018343D 1   1.00000     0.00000
 Structure written by MMmdl.
 36 37  0  0  0  0  0  0  0  0  1 V2000
  146.2848  135.7060  155.7409 C   0  0  0  0  0  0  0  0  0  0  0  0
  147.4984  135.1490  154.9846 C   0  0  1  0  0  0  0  0  0  0  0  0
  147.0694  134.1391  153.8987 C   0  0  0  0  0  0  0  0  0  0  0  0
  145.9608  134.6190  153.0934 N   0  0  0  0  0  0  0  0  0  0  0  0
  145.9394  135.7454  152.2808 C   0  0  0  0  0  0  0  0  0  0  0  0
  144.6887  135.7932  151.7081 C   0  0  0  0  0  0  0  0  0  0  0  0
  143.9262  134.7177  152.1573 N   0  0  0  0  0  0  0  0  0  0  0  0
  144.7449  134.0686  152.9749 C   0  0  0  0  0  0  0  0  0  0  0  0
  148.2415  136.2611  154.3931 N   0  0  0  0  0  0  0  0  0  0  0  0
  148.7808  137.2893  155.0674 C   0  0  0  0  0  0  0  0  0  0  0  0
  148.6717  137.4327  156.2856 O   0  0  0  0  0  0  0  0  0  0  0  0
  149.5862  138.3018  154.2395 C   0  0  2  0  0  0  0  0  0  0  0  0
  151.0942  138.1969  154.5459 C   0  0  0  0  0  0  0  0  0  0  0  0
  151.4206  139.5078  155.2411 C   0  0  0  0  0  0  0  0  0  0  0  0
  152.5246  139.7498  155.7266 O   0  0  0  0  0  0  0  0  0  0  0  0
  150.3609  140.3209  155.2498 N   0  0  0  0  0  0  0  0  0  0  0  0
  150.3112  141.6502  155.8433 C   0  0  0  0  0  0  0  0  0  0  0  0
  149.2091  139.7647  154.5611 C   0  0  0  0  0  0  0  0  0  0  0  0
  145.7204  134.9057  156.2203 H   0  0  0  0  0  0  0  0  0  0  0  0
  145.6065  136.2358  155.0710 H   0  0  0  0  0  0  0  0  0  0  0  0
  146.5943  136.4020  156.5215 H   0  0  0  0  0  0  0  0  0  0  0  0
  148.1222  134.6320  155.7163 H   0  0  0  0  0  0  0  0  0  0  0  0
  147.9040  133.9332  153.2274 H   0  0  0  0  0  0  0  0  0  0  0  0
  146.7896  133.1859  154.3497 H   0  0  0  0  0  0  0  0  0  0  0  0
  146.7942  136.3966  152.1737 H   0  0  0  0  0  0  0  0  0  0  0  0
  144.2820  136.5129  151.0131 H   0  0  0  0  0  0  0  0  0  0  0  0
  144.4556  133.1670  153.4949 H   0  0  0  0  0  0  0  0  0  0  0  0
  148.3820  136.2299  153.3937 H   0  0  0  0  0  0  0  0  0  0  0  0
  149.4127  138.1109  153.1790 H   0  0  0  0  0  0  0  0  0  0  0  0
  151.3556  137.3518  155.1854 H   0  0  0  0  0  0  0  0  0  0  0  0
  151.6776  138.1163  153.6282 H   0  0  0  0  0  0  0  0  0  0  0  0
  151.1418  142.2624  155.4901 H   0  0  0  0  0  0  0  0  0  0  0  0
  150.3704  141.5828  156.9299 H   0  0  0  0  0  0  0  0  0  0  0  0
  149.3830  142.1606  155.5848 H   0  0  0  0  0  0  0  0  0  0  0  0
  149.0295  140.3284  153.6446 H   0  0  0  0  0  0  0  0  0  0  0  0
  148.3147  139.8512  155.1810 H   0  0  0  0  0  0  0  0  0  0  0  0
  1  2  1  0  0  0  0
  1 19  1  0  0  0  0
  1 20  1  0  0  0  0
  1 21  1  0  0  0  0
  2  3  1  0  0  0  0
  2  9  1  0  0  0  0
  2 22  1  0  0  0  0
  3  4  1  0  0  0  0
  3 23  1  0  0  0  0
  3 24  1  0  0  0  0
  4  8  1  0  0  0  0
  4  5  1  0  0  0  0
  5  6  2  0  0  0  0
  5 25  1  0  0  0  0
  6  7  1  0  0  0  0
  6 26  1  0  0  0  0
  7  8  2  0  0  0  0
  8 27  1  0  0  0  0
  9 10  1  0  0  0  0
  9 28  1  0  0  0  0
 10 11  2  0  0  0  0
 10 12  1  0  0  0  0
 12 18  1  0  0  0  0
 12 13  1  0  0  0  0
 12 29  1  0  0  0  0
 13 14  1  0  0  0  0
 13 30  1  0  0  0  0
 13 31  1  0  0  0  0
 14 15  2  0  0  0  0
 14 16  1  0  0  0  0
 16 17  1  0  0  0  0
 16 18  1  0  0  0  0
 17 32  1  0  0  0  0
 17 33  1  0  0  0  0
 17 34  1  0  0  0  0
 18 35  1  0  0  0  0
 18 36  1  0  0  0  0
M  END
> <s_m_source_file>
AV-unprocessed.smi

> <i_m_source_file_index>
3253

> <i_lp_mmshare_version>
43012

> <i_f3d_flags>
0

> <s_epik_input>
W2NIXTFuW2NIXVtjSF1uMVtDSDJdW0NAQEhdKFtDSDNdKVtOSF1DKD1PKVtDQEBIXTJbQ0gyXUMoPU8pTihbQ0gzXSlbQ0gyXTI=

> <s_epik_cmdline>
J2VwaWtfcHl0aG9uJywgJy1waCcsICc3LjAnLCAnLXRuJywgJzgnLCAnLW1hJywgJzIwMCcsICctbWV0YWxfYmluZGluZycsICctaW1hZScsICc8aW5maWxlLm1hZT4nLCAnLW9tYWUnLCAnPG91dGZpbGUubWFlPic=

> <r_lp_tautomer_probability>
1

> <r_epik_Ionization_Penalty>
0.628884

> <r_epik_Ionization_Penalty_Charging>
0.628884

> <r_epik_Ionization_Penalty_Neutral>
2.35084e-08

> <r_epik_State_Penalty>
0.64556

> <r_epik_Charging_Adjusted_Penalty>
1.27444

> <i_epik_Tot_Q>
0

> <i_epik_Tot_abs_Q>
0

> <r_epik_Metal_State_Penalty>
0.308736

> <b_epik_Metal_Only>
0

> <s_lp_Force_Field>
OPLS_2005

> <r_lp_Energy>
12.6473

> <b_lp_Chiralities_Consistent>
1

> <s_lp_Variant>
AV-unprocessed.smi:3253-6

> <Gold.Version>
5.8.1

> <Gold.Id.Protein>
6NUR|6NUR_protein|mol2

> <Gold.PLP.Fitness>
38.9382

> <Gold.PLP.PLP>
-24.5854

> <Gold.PLP.part.hbond>
-2.0000

> <Gold.PLP.part.metal>
0.0000

> <Gold.PLP.part.buried>
-1.3178

> <Gold.PLP.part.nonpolar>
-21.4680

> <Gold.PLP.part.repulsive>
0.1428

> <Gold.PLP.ligand.clash>
0.0000

> <Gold.PLP.ligand.torsion>
0.3282

> <Gold.PLP.Chemscore.Hbond>
2.0000

> <Gold.PLP.Chemscore.CHOScore>
2.9962

> <Gold.PLP.Chemscore.Metal>
0.0000

> <Gold.Chemscore.Hbonds>
donor molecule, donor type, donor heavy atom, donor atom, acceptor molecule, acceptor atom, score
      L1  H     9    28       P1  7948  1.00
      P1  H  7997  8008       L1    15  1.00
      L1  C     5    25       P1  7948  1.00
      L1  C     6    26       P1 10171  1.00
      L1  C     8    27       P1 10957  0.81

> <Gold.PLP.Chemscore.Internal.Correction>
0.0207

> <Gold.Rescore>
     Score         DG    S(hbond)    S(metal)    S(lipo)     H(rot)  DE(clash)    DE(int)     intcor
     11.88     -12.18       2.00        0.00      43.36       1.97       0.11       0.20       ----

> <Gold.Chemscore.Fitness>
11.8787

> <Gold.Chemscore.DG>
-12.1844

> <Gold.Chemscore.ZeroCoef>
-5.4800

> <Gold.Chemscore.Hbond>
1.9961

> <Gold.Chemscore.Metal>
0.0000

> <Gold.Chemscore.Lipo>
43.3563

> <Gold.Chemscore.Internal_Hbond>
0.0000

> <Gold.Chemscore.DEClash>
0.1082

> <Gold.Chemscore.DEInternal>
0.1975

> <Gold.Chemscore.Rot>
1.9669

> <Gold.Chemscore.Internal.Correction>
   9.000000E+99

> <Gold.Chemscore.Hbonds>
donor molecule, donor type, donor heavy atom, donor atom, acceptor molecule, acceptor atom, score
      L1  H     9    28       P1  7948  0.99
      P1  H  7997  8008       L1    15  1.00

> <Gold.Chemscore.Hbond.Weighted>
-6.6669

> <Gold.Chemscore.Metal.Weighted>
-0.0000

> <Gold.Chemscore.Lipo.Weighted>
-5.0727

> <Gold.Chemscore.Internal_Hbond.Weighted>
0.0000

> <Gold.Chemscore.DEClash.Weighted>
0.1082

> <Gold.Chemscore.DEInternal.Weighted>
0.1975

> <Gold.Chemscore.Rot.Weighted>
5.0352

> <Gold.Chemscore.Internal.Correction.Weighted>
   9.000000E+99

> <Gold.Protein.RotatedTorsions>
[ 6907 6896 6895 6894 ] final  107.94 input  -60.11 | X-H torsion
[ 7974 7965 7964 7962 ] final   60.62 input  175.53 | X-H torsion
[ 8008 7997 7996 7995 ] final  -34.03 input   59.86 | X-H torsion
[ 10167 10162 10161 10158 ] final -168.12 input  -65.29 | X-H torsion
[ 10718 10713 10712 10709 ] final   77.23 input   66.30 | X-H torsion
[ 10763 10752 10751 10750 ] final  170.01 input  -60.55 | X-H torsion
[ 11005 11000 10999 10996 ] final  107.60 input  -57.11 | X-H torsion

> <Gold.Protein.ActiveResidues>
 VAL166  LYS551  ARG553  GLY616  TRP617  ASP618  TYR619  PRO620  LYS621  CYS622 
 ASP623  PHE694  ASN695  SER759  ASP760  ASP761  ALA762  ILE779  LEU786  VAL792 
 PHE793  MET794  SER795  GLU796  ALA797  LYS798  CYS799  TRP800  GLU811  SER814 

> <Gold.Protein.RotatedAtoms>
  152.5133  133.9161  159.7511 H   0  0  0  0  0  0  0  0  0  0  0  0  # atno 6907 bound_to 6896
  150.9543  133.6506  159.2773 H   0  0  0  0  0  0  0  0  0  0  0  0  # atno 6908 bound_to 6896
  151.3773  135.0939  159.9537 H   0  0  0  0  0  0  0  0  0  0  0  0  # atno 6909 bound_to 6896
  145.8940  139.3532  143.0632 H   0  0  0  0  0  0  0  0  0  0  0  0  # atno 7974 bound_to 7965
  154.4132  140.1695  156.1984 H   0  0  0  0  0  0  0  0  0  0  0  0  # atno 8008 bound_to 7997
  155.9545  140.3398  155.6413 H   0  0  0  0  0  0  0  0  0  0  0  0  # atno 8009 bound_to 7997
  155.6828  140.0724  157.2469 H   0  0  0  0  0  0  0  0  0  0  0  0  # atno 8010 bound_to 7997
  139.6005  144.1020  152.1738 H   0  0  0  0  0  0  0  0  0  0  0  0  # atno 10167 bound_to 10162
  157.6703  130.9812  150.1611 H   0  0  0  0  0  0  0  0  0  0  0  0  # atno 10718 bound_to 10713
  154.3914  135.2754  155.2152 H   0  0  0  0  0  0  0  0  0  0  0  0  # atno 10763 bound_to 10752
  154.4217  135.5998  153.6017 H   0  0  0  0  0  0  0  0  0  0  0  0  # atno 10764 bound_to 10752
  152.9832  135.5974  154.4170 H   0  0  0  0  0  0  0  0  0  0  0  0  # atno 10765 bound_to 10752
  139.8830  134.9405  156.5844 H   0  0  0  0  0  0  0  0  0  0  0  0  # atno 11005 bound_to 11000
  145.8874  140.9325  143.0570 LP  0  0  0  0  0  0  0  0  0  0  0  0  # atno 17320 bound_to 7965
  144.6732  140.0860  143.7467 LP  0  0  0  0  0  0  0  0  0  0  0  0  # atno 17321 bound_to 7965
  140.0615  144.5852  150.7259 LP  0  0  0  0  0  0  0  0  0  0  0  0  # atno 17342 bound_to 10162
  140.7246  143.2623  151.4164 LP  0  0  0  0  0  0  0  0  0  0  0  0  # atno 17343 bound_to 10162
  156.2387  130.3689  149.8361 LP  0  0  0  0  0  0  0  0  0  0  0  0  # atno 17370 bound_to 10713
  156.6167  130.8609  151.3466 LP  0  0  0  0  0  0  0  0  0  0  0  0  # atno 17371 bound_to 10713
  140.8003  133.8511  155.8721 LP  0  0  0  0  0  0  0  0  0  0  0  0  # atno 17394 bound_to 11000
  140.9599  134.1669  157.4662 LP  0  0  0  0  0  0  0  0  0  0  0  0  # atno 17395 bound_to 11000

$$$$
