AV-unprocessed.smi:2470|AV-procd|sdf|9735|dock4
  -GOLD-   2272013373D 1   1.00000     0.00000
 Structure written by MMmdl.
 33 34  0  0  0  0  0  0  0  0  1 V2000
  147.0002  140.4027  152.7318 C   0  0  0  0  0  0  0  0  0  0  0  0
  147.7567  139.2705  153.1457 O   0  0  0  0  0  0  0  0  0  0  0  0
  148.7505  139.4588  154.0836 C   0  0  0  0  0  0  0  0  0  0  0  0
  148.8506  140.7005  154.7441 C   0  0  0  0  0  0  0  0  0  0  0  0
  149.8797  140.8506  155.7005 C   0  0  0  0  0  0  0  0  0  0  0  0
  149.9452  142.1155  156.3425 N   0  0  0  0  0  0  0  0  0  0  0  0
  150.8158  142.5242  157.2821 C   0  0  0  0  0  0  0  0  0  0  0  0
  151.7119  141.8335  157.7681 O   0  0  0  0  0  0  0  0  0  0  0  0
  150.5829  143.7975  157.6352 N   0  0  0  0  0  0  0  0  0  0  0  0
  151.3344  144.5627  158.6266 C   0  0  2  0  0  0  0  0  0  0  0  0
  152.7923  144.6923  158.1633 C   0  0  0  0  0  0  0  0  0  0  0  0
  151.2546  143.9545  160.0138 C   0  0  0  0  0  0  0  0  0  0  0  0
  152.1434  144.4452  161.1311 C   0  0  0  0  0  0  0  0  0  0  0  0
  152.3595  143.0698  160.5401 C   0  0  0  0  0  0  0  0  0  0  0  0
  150.7263  139.8212  155.9504 N   0  0  0  0  0  0  0  0  0  0  0  0
  150.5490  138.6866  155.2709 C   0  0  0  0  0  0  0  0  0  0  0  0
  149.6109  138.4474  154.3537 N   0  0  0  0  0  0  0  0  0  0  0  0
  146.2718  140.0952  151.9817 H   0  0  0  0  0  0  0  0  0  0  0  0
  147.6369  141.1653  152.2809 H   0  0  0  0  0  0  0  0  0  0  0  0
  146.4515  140.8414  153.5664 H   0  0  0  0  0  0  0  0  0  0  0  0
  148.1609  141.5019  154.5227 H   0  0  0  0  0  0  0  0  0  0  0  0
  149.2520  142.7876  156.0497 H   0  0  0  0  0  0  0  0  0  0  0  0
  149.8225  144.2803  157.1796 H   0  0  0  0  0  0  0  0  0  0  0  0
  150.9245  145.5719  158.6971 H   0  0  0  0  0  0  0  0  0  0  0  0
  153.3742  145.2926  158.8635 H   0  0  0  0  0  0  0  0  0  0  0  0
  152.8535  145.1762  157.1879 H   0  0  0  0  0  0  0  0  0  0  0  0
  153.2724  143.7163  158.0831 H   0  0  0  0  0  0  0  0  0  0  0  0
  150.2458  143.6666  160.3051 H   0  0  0  0  0  0  0  0  0  0  0  0
  152.8753  145.2151  160.8947 H   0  0  0  0  0  0  0  0  0  0  0  0
  151.7108  144.5029  162.1279 H   0  0  0  0  0  0  0  0  0  0  0  0
  152.0713  142.2113  161.1429 H   0  0  0  0  0  0  0  0  0  0  0  0
  153.2380  142.9266  159.9138 H   0  0  0  0  0  0  0  0  0  0  0  0
  151.2350  137.8807  155.4853 H   0  0  0  0  0  0  0  0  0  0  0  0
  1  2  1  0  0  0  0
  1 18  1  0  0  0  0
  1 19  1  0  0  0  0
  1 20  1  0  0  0  0
  2  3  1  0  0  0  0
  3 17  1  0  0  0  0
  3  4  2  0  0  0  0
  4  5  1  0  0  0  0
  4 21  1  0  0  0  0
  5  6  1  0  0  0  0
  5 15  2  0  0  0  0
  6  7  1  0  0  0  0
  6 22  1  0  0  0  0
  7  8  2  0  0  0  0
  7  9  1  0  0  0  0
  9 10  1  0  0  0  0
  9 23  1  0  0  0  0
 10 11  1  0  0  0  0
 10 12  1  0  0  0  0
 10 24  1  0  0  0  0
 11 25  1  0  0  0  0
 11 26  1  0  0  0  0
 11 27  1  0  0  0  0
 12 14  1  0  0  0  0
 12 13  1  0  0  0  0
 12 28  1  0  0  0  0
 13 14  1  0  0  0  0
 13 29  1  0  0  0  0
 13 30  1  0  0  0  0
 14 31  1  0  0  0  0
 14 32  1  0  0  0  0
 15 16  1  0  0  0  0
 16 17  2  0  0  0  0
 16 33  1  0  0  0  0
M  END
> <s_m_source_file>
AV-unprocessed.smi

> <i_m_source_file_index>
2470

> <i_lp_mmshare_version>
43012

> <i_f3d_flags>
0

> <s_epik_input>
W0NIM11PYzFbY0hdYyhuW2NIXW4xKVtOSF1DKD1PKVtOSF1bQ0BIXShbQ0gzXSlbQ0hdMltDSDJdW0NIMl0y

> <s_epik_cmdline>
J2VwaWtfcHl0aG9uJywgJy1waCcsICc3LjAnLCAnLXRuJywgJzgnLCAnLW1hJywgJzIwMCcsICctbWV0YWxfYmluZGluZycsICctaW1hZScsICc8aW5maWxlLm1hZT4nLCAnLW9tYWUnLCAnPG91dGZpbGUubWFlPic=

> <r_lp_tautomer_probability>
1

> <r_epik_Ionization_Penalty>
2.81207e-05

> <r_epik_Ionization_Penalty_Charging>
0

> <r_epik_Ionization_Penalty_Neutral>
2.81207e-05

> <r_epik_State_Penalty>
-0

> <r_epik_Charging_Adjusted_Penalty>
0

> <i_epik_Tot_Q>
0

> <i_epik_Tot_abs_Q>
0

> <r_epik_Metal_State_Penalty>
-0

> <b_epik_Metal_Only>
0

> <s_lp_Force_Field>
OPLS_2005

> <r_lp_Energy>
11.3699

> <b_lp_Chiralities_Consistent>
1

> <s_lp_Variant>
AV-unprocessed.smi:2470-1

> <Gold.Version>
5.8.1

> <Gold.Id.Protein>
6NUR|6NUR_protein|mol2

> <Gold.PLP.Fitness>
39.2053

> <Gold.PLP.PLP>
-33.7140

> <Gold.PLP.part.hbond>
-2.0000

> <Gold.PLP.part.metal>
0.0000

> <Gold.PLP.part.buried>
-4.1108

> <Gold.PLP.part.nonpolar>
-29.6131

> <Gold.PLP.part.repulsive>
2.2420

> <Gold.PLP.ligand.clash>
0.0030

> <Gold.PLP.ligand.torsion>
0.6613

> <Gold.PLP.Chemscore.Hbond>
1.9120

> <Gold.PLP.Chemscore.CHOScore>
0.0000

> <Gold.PLP.Chemscore.Metal>
0.0000

> <Gold.Chemscore.Hbonds>
donor molecule, donor type, donor heavy atom, donor atom, acceptor molecule, acceptor atom, score
      L1  H     6    22       P1  8028  0.91
      L1  H     9    23       P1  8028  1.00

> <Gold.PLP.Chemscore.Internal.Correction>
1.0809

> <Gold.Rescore>
     Score         DG    S(hbond)    S(metal)    S(lipo)     H(rot)  DE(clash)    DE(int)     intcor
     13.78     -16.48       1.75        0.00      79.16       1.61       0.72       1.97       ----

> <Gold.Chemscore.Fitness>
13.7811

> <Gold.Chemscore.DG>
-16.4785

> <Gold.Chemscore.ZeroCoef>
-5.4800

> <Gold.Chemscore.Hbond>
1.7548

> <Gold.Chemscore.Metal>
0.0000

> <Gold.Chemscore.Lipo>
79.1562

> <Gold.Chemscore.Internal_Hbond>
0.0000

> <Gold.Chemscore.DEClash>
0.7237

> <Gold.Chemscore.DEInternal>
1.9737

> <Gold.Chemscore.Rot>
1.6109

> <Gold.Chemscore.Internal.Correction>
   9.000000E+99

> <Gold.Chemscore.Hbonds>
donor molecule, donor type, donor heavy atom, donor atom, acceptor molecule, acceptor atom, score
      L1  H     6    22       P1  8028  0.86
      L1  H     9    23       P1  8028  0.48

> <Gold.Chemscore.Hbond.Weighted>
-5.8612

> <Gold.Chemscore.Metal.Weighted>
-0.0000

> <Gold.Chemscore.Lipo.Weighted>
-9.2613

> <Gold.Chemscore.Internal_Hbond.Weighted>
0.0000

> <Gold.Chemscore.DEClash.Weighted>
0.7237

> <Gold.Chemscore.DEInternal.Weighted>
1.9737

> <Gold.Chemscore.Rot.Weighted>
4.1240

> <Gold.Chemscore.Internal.Correction.Weighted>
   9.000000E+99

> <Gold.Protein.RotatedTorsions>
[ 6907 6896 6895 6894 ] final  119.32 input  -60.11 | X-H torsion
[ 7974 7965 7964 7962 ] final   26.75 input  175.53 | X-H torsion
[ 8008 7997 7996 7995 ] final  -57.37 input   59.86 | X-H torsion
[ 10167 10162 10161 10158 ] final  -92.65 input  -65.29 | X-H torsion
[ 10718 10713 10712 10709 ] final   59.75 input   66.30 | X-H torsion
[ 10763 10752 10751 10750 ] final -143.37 input  -60.55 | X-H torsion
[ 11005 11000 10999 10996 ] final -137.55 input  -57.11 | X-H torsion

> <Gold.Protein.ActiveResidues>
 VAL166  LYS551  ARG553  GLY616  TRP617  ASP618  TYR619  PRO620  LYS621  CYS622 
 ASP623  PHE694  ASN695  SER759  ASP760  ASP761  ALA762  ILE779  LEU786  VAL792 
 PHE793  MET794  SER795  GLU796  ALA797  LYS798  CYS799  TRP800  GLU811  SER814 

> <Gold.Protein.RotatedAtoms>
  152.4480  133.7574  159.6727 H   0  0  0  0  0  0  0  0  0  0  0  0  # atno 6907 bound_to 6896
  150.8385  133.7964  159.3076 H   0  0  0  0  0  0  0  0  0  0  0  0  # atno 6908 bound_to 6896
  151.5596  135.1068  160.0021 H   0  0  0  0  0  0  0  0  0  0  0  0  # atno 6909 bound_to 6896
  146.1821  139.7286  142.8893 H   0  0  0  0  0  0  0  0  0  0  0  0  # atno 7974 bound_to 7965
  154.4265  140.1108  156.5787 H   0  0  0  0  0  0  0  0  0  0  0  0  # atno 8008 bound_to 7997
  155.6135  140.3494  155.4611 H   0  0  0  0  0  0  0  0  0  0  0  0  # atno 8009 bound_to 7997
  156.0080  140.1213  157.0471 H   0  0  0  0  0  0  0  0  0  0  0  0  # atno 8010 bound_to 7997
  140.3326  143.2986  151.9924 H   0  0  0  0  0  0  0  0  0  0  0  0  # atno 10167 bound_to 10162
  157.5700  130.8900  149.9251 H   0  0  0  0  0  0  0  0  0  0  0  0  # atno 10718 bound_to 10713
  154.8473  135.3470  154.6176 H   0  0  0  0  0  0  0  0  0  0  0  0  # atno 10763 bound_to 10752
  153.6784  135.6981  153.5130 H   0  0  0  0  0  0  0  0  0  0  0  0  # atno 10764 bound_to 10752
  153.2687  135.4300  155.0922 H   0  0  0  0  0  0  0  0  0  0  0  0  # atno 10765 bound_to 10752
  140.8700  134.2062  157.4656 H   0  0  0  0  0  0  0  0  0  0  0  0  # atno 11005 bound_to 11000
  145.4046  141.0389  143.3051 LP  0  0  0  0  0  0  0  0  0  0  0  0  # atno 17320 bound_to 7965
  144.8333  139.5592  143.6934 LP  0  0  0  0  0  0  0  0  0  0  0  0  # atno 17321 bound_to 7965
  139.4854  144.6222  151.7233 LP  0  0  0  0  0  0  0  0  0  0  0  0  # atno 17342 bound_to 10162
  140.5383  144.0621  150.6078 LP  0  0  0  0  0  0  0  0  0  0  0  0  # atno 17343 bound_to 10162
  156.0746  130.3680  150.0704 LP  0  0  0  0  0  0  0  0  0  0  0  0  # atno 17370 bound_to 10713
  156.8858  130.9572  151.3594 LP  0  0  0  0  0  0  0  0  0  0  0  0  # atno 17371 bound_to 10713
  139.8711  134.9770  156.4941 LP  0  0  0  0  0  0  0  0  0  0  0  0  # atno 17394 bound_to 11000
  140.8584  133.8078  155.9240 LP  0  0  0  0  0  0  0  0  0  0  0  0  # atno 17395 bound_to 11000

$$$$
