AV-unprocessed.smi:1884|AV-procd|sdf|7649|dock4
  -GOLD-   22720 9373D 1   1.00000     0.00000
 Structure written by MMmdl.
 41 43  0  0  0  0  0  0  0  0  2 V2000
  149.7246  141.3425  155.1667 C   0  0  0  0  0  0  0  0  0  0  0  0
  150.4654  141.7000  156.4113 C   0  0  0  0  0  0  0  0  0  0  0  0
  150.4195  142.9000  157.0557 N   0  3  0  0  0  0  0  0  0  0  0  0
  151.2415  142.8623  158.1830 C   0  0  0  0  0  0  0  0  0  0  0  0
  151.5170  143.8323  159.1419 C   0  0  0  0  0  0  0  0  0  0  0  0
  152.4136  143.4702  160.1687 C   0  0  0  0  0  0  0  0  0  0  0  0
  152.9973  142.1875  160.2154 C   0  0  0  0  0  0  0  0  0  0  0  0
  152.7067  141.2110  159.2398 C   0  0  0  0  0  0  0  0  0  0  0  0
  151.8190  141.5765  158.2280 C   0  0  0  0  0  0  0  0  0  0  0  0
  151.3086  140.8935  157.1171 N   0  0  0  0  0  0  0  0  0  0  0  0
  151.7071  139.4986  156.8713 C   0  0  0  0  0  0  0  0  0  0  0  0
  151.8140  139.1620  155.3703 C   0  0  1  0  0  0  0  0  0  0  0  0
  153.1581  139.1230  154.9350 O   0  0  0  0  0  0  0  0  0  0  0  0
  151.1172  137.8472  154.9839 C   0  0  0  0  0  0  0  0  0  0  0  0
  151.5812  136.7872  155.8115 O   0  0  0  0  0  0  0  0  0  0  0  0
  151.0866  135.5200  155.5897 C   0  0  0  0  0  0  0  0  0  0  0  0
  151.5240  134.5008  156.4606 C   0  0  0  0  0  0  0  0  0  0  0  0
  151.0697  133.1765  156.3086 C   0  0  0  0  0  0  0  0  0  0  0  0
  150.1660  132.8555  155.2767 C   0  0  0  0  0  0  0  0  0  0  0  0
  149.6947  131.4902  155.1165 C   0  0  0  0  0  0  0  0  0  0  0  0
  149.3194  130.4031  154.9887 N   0  0  0  0  0  0  0  0  0  0  0  0
  149.7210  133.8649  154.4003 C   0  0  0  0  0  0  0  0  0  0  0  0
  150.1768  135.1890  154.5538 C   0  0  0  0  0  0  0  0  0  0  0  0
  149.1474  142.1940  154.8057 H   0  0  0  0  0  0  0  0  0  0  0  0
  149.0404  140.5163  155.3604 H   0  0  0  0  0  0  0  0  0  0  0  0
  150.4228  141.0411  154.3858 H   0  0  0  0  0  0  0  0  0  0  0  0
  151.0719  144.8159  159.1075 H   0  0  0  0  0  0  0  0  0  0  0  0
  152.6598  144.1913  160.9347 H   0  0  0  0  0  0  0  0  0  0  0  0
  153.6825  141.9468  161.0154 H   0  0  0  0  0  0  0  0  0  0  0  0
  153.1629  140.2329  159.2836 H   0  0  0  0  0  0  0  0  0  0  0  0
  152.6413  139.2973  157.3957 H   0  0  0  0  0  0  0  0  0  0  0  0
  150.9565  138.8608  157.3393 H   0  0  0  0  0  0  0  0  0  0  0  0
  151.3399  139.9638  154.8031 H   0  0  0  0  0  0  0  0  0  0  0  0
  153.3867  138.2254  154.7486 H   0  0  0  0  0  0  0  0  0  0  0  0
  150.0426  137.9671  155.1302 H   0  0  0  0  0  0  0  0  0  0  0  0
  151.2859  137.6250  153.9285 H   0  0  0  0  0  0  0  0  0  0  0  0
  152.2169  134.7370  157.2548 H   0  0  0  0  0  0  0  0  0  0  0  0
  151.4191  132.4118  156.9877 H   0  0  0  0  0  0  0  0  0  0  0  0
  149.0277  133.6306  153.6051 H   0  0  0  0  0  0  0  0  0  0  0  0
  149.8115  135.9331  153.8626 H   0  0  0  0  0  0  0  0  0  0  0  0
  149.8643  143.6869  156.7451 H   0  0  0  0  0  0  0  0  0  0  0  0
  1  2  1  0  0  0  0
  1 24  1  0  0  0  0
  1 25  1  0  0  0  0
  1 26  1  0  0  0  0
  2 10  1  0  0  0  0
  2  3  2  0  0  0  0
  3  4  1  0  0  0  0
  3 41  1  0  0  0  0
  4  9  2  0  0  0  0
  4  5  1  0  0  0  0
  5  6  2  0  0  0  0
  5 27  1  0  0  0  0
  6  7  1  0  0  0  0
  6 28  1  0  0  0  0
  7  8  2  0  0  0  0
  7 29  1  0  0  0  0
  8  9  1  0  0  0  0
  8 30  1  0  0  0  0
  9 10  1  0  0  0  0
 10 11  1  0  0  0  0
 11 12  1  0  0  0  0
 11 31  1  0  0  0  0
 11 32  1  0  0  0  0
 12 13  1  0  0  0  0
 12 14  1  0  0  0  0
 12 33  1  0  0  0  0
 13 34  1  0  0  0  0
 14 15  1  0  0  0  0
 14 35  1  0  0  0  0
 14 36  1  0  0  0  0
 15 16  1  0  0  0  0
 16 23  1  0  0  0  0
 16 17  2  0  0  0  0
 17 18  1  0  0  0  0
 17 37  1  0  0  0  0
 18 19  2  0  0  0  0
 18 38  1  0  0  0  0
 19 20  1  0  0  0  0
 19 22  1  0  0  0  0
 20 21  3  0  0  0  0
 22 23  2  0  0  0  0
 22 39  1  0  0  0  0
 23 40  1  0  0  0  0
M  CHG  1   3   1
M  END
> <s_m_source_file>
AV-unprocessed.smi

> <i_m_source_file_index>
1884

> <i_lp_mmshare_version>
43012

> <i_f3d_flags>
0

> <s_epik_input>
W2NIXTFbY0hdW2NIXVtjSF1jKGMxMiluKGMobjIpW0NIM10pW0NIMl1bQ0BIXShbT0hdKVtDSDJdT2MzW2NIXVtjSF1jKEMjTilbY0hdW2NIXTM=

> <s_epik_cmdline>
J2VwaWtfcHl0aG9uJywgJy1waCcsICc3LjAnLCAnLXRuJywgJzgnLCAnLW1hJywgJzIwMCcsICctbWV0YWxfYmluZGluZycsICctaW1hZScsICc8aW5maWxlLm1hZT4nLCAnLW9tYWUnLCAnPG91dGZpbGUubWFlPic=

> <r_epik_Ionization_Penalty>
1.04791

> <r_epik_Ionization_Penalty_Charging>
1.04791

> <r_epik_Ionization_Penalty_Neutral>
2.3993e-06

> <r_epik_State_Penalty>
1.10051

> <r_epik_Charging_Adjusted_Penalty>
2.14841

> <i_epik_Tot_Q>
1

> <i_epik_Tot_abs_Q>
1

> <r_epik_Metal_State_Penalty>
5.09283

> <b_epik_Metal_Only>
0

> <s_lp_Force_Field>
OPLS_2005

> <r_lp_Energy>
19.6719

> <b_lp_Chiralities_Consistent>
1

> <s_lp_Variant>
AV-unprocessed.smi:1884-4

> <Gold.Version>
5.8.1

> <Gold.Id.Protein>
6NUR|6NUR_protein|mol2

> <Gold.PLP.Fitness>
54.5330

> <Gold.PLP.PLP>
-47.5724

> <Gold.PLP.part.hbond>
-2.6094

> <Gold.PLP.part.metal>
0.0000

> <Gold.PLP.part.buried>
-3.8760

> <Gold.PLP.part.nonpolar>
-41.3367

> <Gold.PLP.part.repulsive>
0.0587

> <Gold.PLP.ligand.clash>
0.0000

> <Gold.PLP.ligand.torsion>
1.0515

> <Gold.PLP.Chemscore.Hbond>
3.0000

> <Gold.PLP.Chemscore.CHOScore>
0.0000

> <Gold.PLP.Chemscore.Metal>
0.0000

> <Gold.Chemscore.Hbonds>
donor molecule, donor type, donor heavy atom, donor atom, acceptor molecule, acceptor atom, score
      L1  H     3    41       P1  8028  2.00
      P1  H  7997  8008       L1    13  1.00

> <Gold.PLP.Chemscore.Internal.Correction>
0.0636

> <Gold.Rescore>
     Score         DG    S(hbond)    S(metal)    S(lipo)     H(rot)  DE(clash)    DE(int)     intcor
     19.37     -20.34       1.95        0.00     123.72       2.39       0.00       0.96       ----

> <Gold.Chemscore.Fitness>
19.3733

> <Gold.Chemscore.DG>
-20.3355

> <Gold.Chemscore.ZeroCoef>
-5.4800

> <Gold.Chemscore.Hbond>
1.9470

> <Gold.Chemscore.Metal>
0.0000

> <Gold.Chemscore.Lipo>
123.7210

> <Gold.Chemscore.Internal_Hbond>
0.0000

> <Gold.Chemscore.DEClash>
0.0021

> <Gold.Chemscore.DEInternal>
0.9600

> <Gold.Chemscore.Rot>
2.3917

> <Gold.Chemscore.Internal.Correction>
   9.000000E+99

> <Gold.Chemscore.Hbonds>
donor molecule, donor type, donor heavy atom, donor atom, acceptor molecule, acceptor atom, score
      L1  H     3    41       P1  8028  0.99
      P1  H  7997  8008       L1    13  0.91

> <Gold.Chemscore.Hbond.Weighted>
-6.5030

> <Gold.Chemscore.Metal.Weighted>
-0.0000

> <Gold.Chemscore.Lipo.Weighted>
-14.4754

> <Gold.Chemscore.Internal_Hbond.Weighted>
0.0000

> <Gold.Chemscore.DEClash.Weighted>
0.0021

> <Gold.Chemscore.DEInternal.Weighted>
0.9600

> <Gold.Chemscore.Rot.Weighted>
6.1229

> <Gold.Chemscore.Internal.Correction.Weighted>
   9.000000E+99

> <Gold.Protein.RotatedTorsions>
[ 6907 6896 6895 6894 ] final   83.04 input  -60.11 | X-H torsion
[ 7974 7965 7964 7962 ] final  -76.19 input  175.53 | X-H torsion
[ 8008 7997 7996 7995 ] final  -13.45 input   59.86 | X-H torsion
[ 10167 10162 10161 10158 ] final  172.51 input  -65.29 | X-H torsion
[ 10718 10713 10712 10709 ] final   30.75 input   66.30 | X-H torsion
[ 10763 10752 10751 10750 ] final   57.33 input  -60.55 | X-H torsion
[ 11005 11000 10999 10996 ] final   51.17 input  -57.11 | X-H torsion

> <Gold.Protein.ActiveResidues>
 VAL166  LYS551  ARG553  GLY616  TRP617  ASP618  TYR619  PRO620  LYS621  CYS622 
 ASP623  PHE694  ASN695  SER759  ASP760  ASP761  ALA762  ILE779  LEU786  VAL792 
 PHE793  MET794  SER795  GLU796  ALA797  LYS798  CYS799  TRP800  GLU811  SER814 

> <Gold.Protein.RotatedAtoms>
  152.5316  134.2956  159.9059 H   0  0  0  0  0  0  0  0  0  0  0  0  # atno 6907 bound_to 6896
  151.2908  133.4160  159.2640 H   0  0  0  0  0  0  0  0  0  0  0  0  # atno 6908 bound_to 6896
  151.0203  134.9480  159.8113 H   0  0  0  0  0  0  0  0  0  0  0  0  # atno 6909 bound_to 6896
  145.6161  140.9374  143.1163 H   0  0  0  0  0  0  0  0  0  0  0  0  # atno 7974 bound_to 7965
  154.5291  140.2249  155.8836 H   0  0  0  0  0  0  0  0  0  0  0  0  # atno 8008 bound_to 7997
  156.1745  140.3114  155.8997 H   0  0  0  0  0  0  0  0  0  0  0  0  # atno 8009 bound_to 7997
  155.3489  140.0454  157.3036 H   0  0  0  0  0  0  0  0  0  0  0  0  # atno 8010 bound_to 7997
  139.5079  144.3366  152.0059 H   0  0  0  0  0  0  0  0  0  0  0  0  # atno 10167 bound_to 10162
  157.2637  130.7173  149.6467 H   0  0  0  0  0  0  0  0  0  0  0  0  # atno 10718 bound_to 10713
  152.9848  135.5645  154.5373 H   0  0  0  0  0  0  0  0  0  0  0  0  # atno 10763 bound_to 10752
  154.4834  135.2789  155.1555 H   0  0  0  0  0  0  0  0  0  0  0  0  # atno 10764 bound_to 10752
  154.3054  135.6299  153.5496 H   0  0  0  0  0  0  0  0  0  0  0  0  # atno 10765 bound_to 10752
  140.0955  134.5151  155.8811 H   0  0  0  0  0  0  0  0  0  0  0  0  # atno 11005 bound_to 11000
  144.7250  139.7905  143.7368 LP  0  0  0  0  0  0  0  0  0  0  0  0  # atno 17320 bound_to 7965
  146.1467  139.4538  143.0074 LP  0  0  0  0  0  0  0  0  0  0  0  0  # atno 17321 bound_to 7965
  140.2804  144.3865  150.6121 LP  0  0  0  0  0  0  0  0  0  0  0  0  # atno 17342 bound_to 10162
  140.6022  143.2167  151.7050 LP  0  0  0  0  0  0  0  0  0  0  0  0  # atno 17343 bound_to 10162
  155.9664  130.4389  150.5238 LP  0  0  0  0  0  0  0  0  0  0  0  0  # atno 17370 bound_to 10713
  157.3148  131.0670  151.1975 LP  0  0  0  0  0  0  0  0  0  0  0  0  # atno 17371 bound_to 10713
  141.2091  133.6680  156.6414 LP  0  0  0  0  0  0  0  0  0  0  0  0  # atno 17394 bound_to 11000
  140.3292  134.7943  157.4313 LP  0  0  0  0  0  0  0  0  0  0  0  0  # atno 17395 bound_to 11000

$$$$
