AV-unprocessed.smi:2715|AV-procd|sdf|10482|dock5
  -GOLD-   2272014523D 1   1.00000     0.00000
 Structure written by MMmdl.
 38 39  0  0  0  0  0  0  0  0  1 V2000
  150.5252  133.5388  156.4773 C   0  0  0  0  0  0  0  0  0  0  0  0
  150.2361  134.9592  156.1317 C   0  0  0  0  0  0  0  0  0  0  0  0
  150.9766  135.6783  155.2844 N   0  0  0  0  0  0  0  0  0  0  0  0
  150.5026  136.9858  155.1294 C   0  0  0  0  0  0  0  0  0  0  0  0
  151.2167  137.9399  154.2159 C   0  0  0  0  0  0  0  0  0  0  0  0
  151.6368  139.1979  154.9777 C   0  0  0  0  0  0  0  0  0  0  0  0
  152.8310  139.4582  155.1207 O   0  0  0  0  0  0  0  0  0  0  0  0
  150.6456  139.9588  155.4696 N   0  0  0  0  0  0  0  0  0  0  0  0
  150.8117  141.1847  156.2452 C   0  0  0  0  0  0  0  0  0  0  0  0
  151.4458  140.9075  157.6206 C   0  0  0  0  0  0  0  0  0  0  0  0
  151.8248  142.1687  158.3813 C   0  0  0  0  0  0  0  0  0  0  0  0
  151.6566  143.3973  157.8542 C   0  0  0  0  0  0  0  0  0  0  0  0
  151.9784  144.6890  158.5847 C   0  0  0  0  0  0  0  0  0  0  0  0
  152.1776  144.4703  160.0937 C   0  0  0  0  0  0  0  0  0  0  0  0
  153.0391  143.2303  160.3624 C   0  0  0  0  0  0  0  0  0  0  0  0
  152.3899  141.9610  159.7824 C   0  0  0  0  0  0  0  0  0  0  0  0
  149.3766  137.2431  155.8724 C   0  0  0  0  0  0  0  0  0  0  0  0
  148.8775  135.8554  156.7997 S   0  0  0  0  0  0  0  0  0  0  0  0
  151.5269  133.2596  156.1486 H   0  0  0  0  0  0  0  0  0  0  0  0
  149.8016  132.8835  155.9923 H   0  0  0  0  0  0  0  0  0  0  0  0
  150.4601  133.3960  157.5561 H   0  0  0  0  0  0  0  0  0  0  0  0
  152.1013  137.4757  153.7777 H   0  0  0  0  0  0  0  0  0  0  0  0
  150.5733  138.2222  153.3815 H   0  0  0  0  0  0  0  0  0  0  0  0
  149.6969  139.6598  155.2950 H   0  0  0  0  0  0  0  0  0  0  0  0
  151.3883  141.9301  155.6953 H   0  0  0  0  0  0  0  0  0  0  0  0
  149.8219  141.6183  156.3879 H   0  0  0  0  0  0  0  0  0  0  0  0
  150.7546  140.3294  158.2346 H   0  0  0  0  0  0  0  0  0  0  0  0
  152.3289  140.2803  157.4905 H   0  0  0  0  0  0  0  0  0  0  0  0
  151.2669  143.5036  156.8522 H   0  0  0  0  0  0  0  0  0  0  0  0
  152.8790  145.1142  158.1408 H   0  0  0  0  0  0  0  0  0  0  0  0
  151.1731  145.4048  158.4183 H   0  0  0  0  0  0  0  0  0  0  0  0
  152.6310  145.3544  160.5428 H   0  0  0  0  0  0  0  0  0  0  0  0
  151.2067  144.3413  160.5744 H   0  0  0  0  0  0  0  0  0  0  0  0
  154.0227  143.3739  159.9130 H   0  0  0  0  0  0  0  0  0  0  0  0
  153.2047  143.1066  161.4329 H   0  0  0  0  0  0  0  0  0  0  0  0
  151.5804  141.6334  160.4344 H   0  0  0  0  0  0  0  0  0  0  0  0
  153.1234  141.1545  159.7644 H   0  0  0  0  0  0  0  0  0  0  0  0
  148.8151  138.1637  155.9322 H   0  0  0  0  0  0  0  0  0  0  0  0
  1  2  1  0  0  0  0
  1 19  1  0  0  0  0
  1 20  1  0  0  0  0
  1 21  1  0  0  0  0
  2 18  1  0  0  0  0
  2  3  2  0  0  0  0
  3  4  1  0  0  0  0
  4  5  1  0  0  0  0
  4 17  2  0  0  0  0
  5  6  1  0  0  0  0
  5 22  1  0  0  0  0
  5 23  1  0  0  0  0
  6  7  2  0  0  0  0
  6  8  1  0  0  0  0
  8  9  1  0  0  0  0
  8 24  1  0  0  0  0
  9 10  1  0  0  0  0
  9 25  1  0  0  0  0
  9 26  1  0  0  0  0
 10 11  1  0  0  0  0
 10 27  1  0  0  0  0
 10 28  1  0  0  0  0
 11 16  1  0  0  0  0
 11 12  2  0  0  0  0
 12 13  1  0  0  0  0
 12 29  1  0  0  0  0
 13 14  1  0  0  0  0
 13 30  1  0  0  0  0
 13 31  1  0  0  0  0
 14 15  1  0  0  0  0
 14 32  1  0  0  0  0
 14 33  1  0  0  0  0
 15 16  1  0  0  0  0
 15 34  1  0  0  0  0
 15 35  1  0  0  0  0
 16 36  1  0  0  0  0
 16 37  1  0  0  0  0
 17 18  1  0  0  0  0
 17 38  1  0  0  0  0
M  END
> <s_m_source_file>
AV-unprocessed.smi

> <i_m_source_file_index>
2715

> <i_lp_mmshare_version>
43012

> <i_f3d_flags>
0

> <s_epik_input>
W0NIM11jMW5jKFtjSF1zMSlbQ0gyXUMoPU8pW05IXVtDSDJdW0NIMl1DMj1bQ0hdW0NIMl1bQ0gyXVtDSDJdW0NIMl0y

> <s_epik_cmdline>
J2VwaWtfcHl0aG9uJywgJy1waCcsICc3LjAnLCAnLXRuJywgJzgnLCAnLW1hJywgJzIwMCcsICctbWV0YWxfYmluZGluZycsICctaW1hZScsICc8aW5maWxlLm1hZT4nLCAnLW9tYWUnLCAnPG91dGZpbGUubWFlPic=

> <r_lp_tautomer_probability>
1

> <r_epik_Ionization_Penalty>
5.73492e-05

> <r_epik_Ionization_Penalty_Charging>
0

> <r_epik_Ionization_Penalty_Neutral>
5.73492e-05

> <r_epik_State_Penalty>
-0

> <r_epik_Charging_Adjusted_Penalty>
0

> <i_epik_Tot_Q>
0

> <i_epik_Tot_abs_Q>
0

> <r_epik_Metal_State_Penalty>
-0

> <b_epik_Metal_Only>
0

> <s_lp_Force_Field>
OPLS_2005

> <r_lp_Energy>
6.36926

> <b_lp_Chiralities_Consistent>
1

> <s_lp_Variant>
AV-unprocessed.smi:2715-1

> <Gold.Version>
5.8.1

> <Gold.Id.Protein>
6NUR|6NUR_protein|mol2

> <Gold.PLP.Fitness>
46.3770

> <Gold.PLP.PLP>
-40.5079

> <Gold.PLP.part.hbond>
-3.0000

> <Gold.PLP.part.metal>
0.0000

> <Gold.PLP.part.buried>
-5.0726

> <Gold.PLP.part.nonpolar>
-32.8777

> <Gold.PLP.part.repulsive>
0.2515

> <Gold.PLP.ligand.clash>
0.0000

> <Gold.PLP.ligand.torsion>
0.0754

> <Gold.PLP.Chemscore.Hbond>
2.0000

> <Gold.PLP.Chemscore.CHOScore>
0.0000

> <Gold.PLP.Chemscore.Metal>
0.0000

> <Gold.Chemscore.Hbonds>
donor molecule, donor type, donor heavy atom, donor atom, acceptor molecule, acceptor atom, score
      P1  H  7997  8010       L1     7  1.00
      P1  H 10752 10765       L1     3  0.81

> <Gold.PLP.Chemscore.Internal.Correction>
0.0200

> <Gold.Rescore>
     Score         DG    S(hbond)    S(metal)    S(lipo)     H(rot)  DE(clash)    DE(int)     intcor
     20.96     -21.12       1.97        0.00     110.10       1.50       0.03       0.13       ----

> <Gold.Chemscore.Fitness>
20.9625

> <Gold.Chemscore.DG>
-21.1196

> <Gold.Chemscore.ZeroCoef>
-5.4800

> <Gold.Chemscore.Hbond>
1.9726

> <Gold.Chemscore.Metal>
0.0000

> <Gold.Chemscore.Lipo>
110.1035

> <Gold.Chemscore.Internal_Hbond>
0.0000

> <Gold.Chemscore.DEClash>
0.0269

> <Gold.Chemscore.DEInternal>
0.1302

> <Gold.Chemscore.Rot>
1.4965

> <Gold.Chemscore.Internal.Correction>
   9.000000E+99

> <Gold.Chemscore.Hbonds>
donor molecule, donor type, donor heavy atom, donor atom, acceptor molecule, acceptor atom, score
      P1  H  7997  8010       L1     7  0.97
      P1  H 10752 10765       L1     3  0.51

> <Gold.Chemscore.Hbond.Weighted>
-6.5886

> <Gold.Chemscore.Metal.Weighted>
-0.0000

> <Gold.Chemscore.Lipo.Weighted>
-12.8821

> <Gold.Chemscore.Internal_Hbond.Weighted>
0.0000

> <Gold.Chemscore.DEClash.Weighted>
0.0269

> <Gold.Chemscore.DEInternal.Weighted>
0.1302

> <Gold.Chemscore.Rot.Weighted>
3.8311

> <Gold.Chemscore.Internal.Correction.Weighted>
   9.000000E+99

> <Gold.Protein.RotatedTorsions>
[ 6907 6896 6895 6894 ] final  -70.23 input  -60.11 | X-H torsion
[ 7974 7965 7964 7962 ] final  -69.34 input  175.53 | X-H torsion
[ 8008 7997 7996 7995 ] final  114.61 input   59.86 | X-H torsion
[ 10167 10162 10161 10158 ] final  -14.99 input  -65.29 | X-H torsion
[ 10718 10713 10712 10709 ] final   -8.23 input   66.30 | X-H torsion
[ 10763 10752 10751 10750 ] final  172.09 input  -60.55 | X-H torsion
[ 11005 11000 10999 10996 ] final  -95.53 input  -57.11 | X-H torsion

> <Gold.Protein.ActiveResidues>
 VAL166  LYS551  ARG553  GLY616  TRP617  ASP618  TYR619  PRO620  LYS621  CYS622 
 ASP623  PHE694  ASN695  SER759  ASP760  ASP761  ALA762  ILE779  LEU786  VAL792 
 PHE793  MET794  SER795  GLU796  ALA797  LYS798  CYS799  TRP800  GLU811  SER814 

> <Gold.Protein.RotatedAtoms>
  150.7267  134.5483  159.5781 H   0  0  0  0  0  0  0  0  0  0  0  0  # atno 6907 bound_to 6896
  152.2976  134.7645  160.0373 H   0  0  0  0  0  0  0  0  0  0  0  0  # atno 6908 bound_to 6896
  151.8237  133.3363  159.3628 H   0  0  0  0  0  0  0  0  0  0  0  0  # atno 6909 bound_to 6896
  145.7050  140.9101  143.0711 H   0  0  0  0  0  0  0  0  0  0  0  0  # atno 7974 bound_to 7965
  156.2331  140.2955  156.0241 H   0  0  0  0  0  0  0  0  0  0  0  0  # atno 8008 bound_to 7997
  155.2168  140.0414  157.2959 H   0  0  0  0  0  0  0  0  0  0  0  0  # atno 8009 bound_to 7997
  154.6031  140.2432  155.7774 H   0  0  0  0  0  0  0  0  0  0  0  0  # atno 8010 bound_to 7997
  140.7211  143.5264  150.9572 H   0  0  0  0  0  0  0  0  0  0  0  0  # atno 10167 bound_to 10162
  156.7057  130.5106  149.5905 H   0  0  0  0  0  0  0  0  0  0  0  0  # atno 10718 bound_to 10713
  154.4211  135.2758  155.1975 H   0  0  0  0  0  0  0  0  0  0  0  0  # atno 10763 bound_to 10752
  154.3920  135.6064  153.5852 H   0  0  0  0  0  0  0  0  0  0  0  0  # atno 10764 bound_to 10752
  152.9833  135.5905  154.4507 H   0  0  0  0  0  0  0  0  0  0  0  0  # atno 10765 bound_to 10752
  141.1439  133.8033  157.0448 H   0  0  0  0  0  0  0  0  0  0  0  0  # atno 11005 bound_to 11000
  144.6958  139.8999  143.7458 LP  0  0  0  0  0  0  0  0  0  0  0  0  # atno 17320 bound_to 7965
  146.0763  139.3751  143.0492 LP  0  0  0  0  0  0  0  0  0  0  0  0  # atno 17321 bound_to 7965
  139.8983  143.6868  152.3135 LP  0  0  0  0  0  0  0  0  0  0  0  0  # atno 17342 bound_to 10162
  139.7208  144.7603  151.0959 LP  0  0  0  0  0  0  0  0  0  0  0  0  # atno 17343 bound_to 10162
  156.1697  130.6429  151.0822 LP  0  0  0  0  0  0  0  0  0  0  0  0  # atno 17370 bound_to 10713
  157.6956  131.0795  150.6979 LP  0  0  0  0  0  0  0  0  0  0  0  0  # atno 17371 bound_to 10713
  140.0670  134.9723  157.1402 LP  0  0  0  0  0  0  0  0  0  0  0  0  # atno 17394 bound_to 11000
  140.3766  134.2333  155.7174 LP  0  0  0  0  0  0  0  0  0  0  0  0  # atno 17395 bound_to 11000

$$$$
