AV-unprocessed.smi:21|AV-procd|sdf|159|dock9
  -GOLD-   2262015393D 1   1.00000     0.00000
 Structure written by MMmdl.
 61 64  0  0  0  0  0  0  0  0  1 V2000
  153.6957  132.0852  158.1703 C   0  0  0  0  0  0  0  0  0  0  0  0
  152.8619  131.3710  157.2724 O   0  0  0  0  0  0  0  0  0  0  0  0
  151.5382  131.8822  157.2008 C   0  0  1  0  0  0  0  0  0  0  0  0
  151.5623  133.3811  156.8643 C   0  0  0  0  0  0  0  0  0  0  0  0
  150.8289  133.4917  155.5175 C   0  0  2  0  0  0  0  0  0  0  0  0
  150.1278  134.8514  155.3031 C   0  0  0  0  0  0  0  0  0  0  0  0
  150.2504  135.7376  156.4610 N   0  0  0  0  0  0  0  0  0  0  0  0
  149.1907  135.7281  157.4609 C   0  0  0  0  0  0  0  0  0  0  0  0
  151.0734  136.8161  156.3735 C   0  0  0  0  0  0  0  0  0  0  0  0
  152.0171  136.8180  155.3957 N   0  0  0  0  0  0  0  0  0  0  0  0
  152.8527  137.8509  155.2588 C   0  0  0  0  0  0  0  0  0  0  0  0
  152.9181  138.9710  155.9790 N   0  0  0  0  0  0  0  0  0  0  0  0
  151.9711  138.9828  156.9594 C   0  0  0  0  0  0  0  0  0  0  0  0
  151.0162  137.9593  157.2262 C   0  0  0  0  0  0  0  0  0  0  0  0
  150.2056  138.3471  158.2884 N   0  0  0  0  0  0  0  0  0  0  0  0
  150.6582  139.5210  158.6323 C   0  0  0  0  0  0  0  0  0  0  0  0
  151.7324  139.9699  157.8995 N   0  0  0  0  0  0  0  0  0  0  0  0
  152.4266  141.2348  158.0618 C   0  0  0  0  0  0  0  0  0  0  0  0
  152.5710  141.7170  159.5324 C   0  0  1  0  0  0  0  0  0  0  0  0
  154.0675  141.6885  159.9283 C   0  0  0  0  0  0  0  0  0  0  0  0
  154.6918  140.4969  159.4966 O   0  0  0  0  0  0  0  0  0  0  0  0
  151.9387  143.1201  159.7797 C   0  0  2  0  0  0  0  0  0  0  0  0
  152.3123  144.1888  158.7621 C   0  0  0  0  0  0  0  0  0  0  0  0
  151.9753  145.4741  159.5018 C   0  0  0  0  0  0  0  0  0  0  0  0
  152.3930  145.2217  160.8326 O   0  0  0  0  0  0  0  0  0  0  0  0
  152.3557  143.8205  161.0865 C   0  0  0  0  0  0  0  0  0  0  0  0
  149.9400  132.3412  155.4904 N   0  0  0  0  0  0  0  0  0  0  0  0
  149.4306  132.0212  154.1634 C   0  0  0  0  0  0  0  0  0  0  0  0
  150.7459  131.2681  156.0389 C   0  0  0  0  0  0  0  0  0  0  0  0
  151.0142  131.7377  158.1475 H   0  0  0  0  0  0  0  0  0  0  0  0
  151.5736  133.3594  154.7303 H   0  0  0  0  0  0  0  0  0  0  0  0
  154.6959  131.6523  158.1608 H   0  0  0  0  0  0  0  0  0  0  0  0
  153.3203  132.0358  159.1929 H   0  0  0  0  0  0  0  0  0  0  0  0
  153.7816  133.1329  157.8794 H   0  0  0  0  0  0  0  0  0  0  0  0
  151.0340  133.9361  157.6408 H   0  0  0  0  0  0  0  0  0  0  0  0
  152.5749  133.7824  156.8049 H   0  0  0  0  0  0  0  0  0  0  0  0
  150.5781  135.3691  154.4565 H   0  0  0  0  0  0  0  0  0  0  0  0
  149.0855  134.6945  155.0247 H   0  0  0  0  0  0  0  0  0  0  0  0
  149.5468  136.1240  158.4125 H   0  0  0  0  0  0  0  0  0  0  0  0
  148.8422  134.7101  157.6353 H   0  0  0  0  0  0  0  0  0  0  0  0
  148.3396  136.3230  157.1292 H   0  0  0  0  0  0  0  0  0  0  0  0
  153.5722  137.7671  154.4577 H   0  0  0  0  0  0  0  0  0  0  0  0
  150.2248  140.0889  159.4427 H   0  0  0  0  0  0  0  0  0  0  0  0
  153.4071  141.1151  157.6004 H   0  0  0  0  0  0  0  0  0  0  0  0
  151.9062  141.9919  157.4737 H   0  0  0  0  0  0  0  0  0  0  0  0
  152.0586  141.0066  160.1824 H   0  0  0  0  0  0  0  0  0  0  0  0
  154.5966  142.5456  159.5109 H   0  0  0  0  0  0  0  0  0  0  0  0
  154.1971  141.7270  161.0088 H   0  0  0  0  0  0  0  0  0  0  0  0
  154.0974  139.7767  159.6409 H   0  0  0  0  0  0  0  0  0  0  0  0
  150.8515  143.0249  159.7707 H   0  0  0  0  0  0  0  0  0  0  0  0
  153.3805  144.1551  158.5425 H   0  0  0  0  0  0  0  0  0  0  0  0
  151.7631  144.1010  157.8243 H   0  0  0  0  0  0  0  0  0  0  0  0
  152.4734  146.3481  159.0820 H   0  0  0  0  0  0  0  0  0  0  0  0
  150.8990  145.6521  159.4920 H   0  0  0  0  0  0  0  0  0  0  0  0
  151.6597  143.6145  161.8986 H   0  0  0  0  0  0  0  0  0  0  0  0
  153.3508  143.5117  161.4078 H   0  0  0  0  0  0  0  0  0  0  0  0
  148.8227  131.1167  154.1954 H   0  0  0  0  0  0  0  0  0  0  0  0
  150.2435  131.8577  153.4550 H   0  0  0  0  0  0  0  0  0  0  0  0
  148.8017  132.8246  153.7805 H   0  0  0  0  0  0  0  0  0  0  0  0
  151.4412  130.9049  155.2799 H   0  0  0  0  0  0  0  0  0  0  0  0
  150.1313  130.4247  156.3549 H   0  0  0  0  0  0  0  0  0  0  0  0
  1  2  1  0  0  0  0
  1 32  1  0  0  0  0
  1 33  1  0  0  0  0
  1 34  1  0  0  0  0
  2  3  1  0  0  0  0
  3 30  1  0  0  0  0
  3 29  1  0  0  0  0
  3  4  1  0  0  0  0
  4  5  1  0  0  0  0
  4 35  1  0  0  0  0
  4 36  1  0  0  0  0
  5 31  1  0  0  0  0
  5  6  1  0  0  0  0
  5 27  1  0  0  0  0
  6  7  1  0  0  0  0
  6 37  1  0  0  0  0
  6 38  1  0  0  0  0
  7  8  1  0  0  0  0
  7  9  1  0  0  0  0
  8 39  1  0  0  0  0
  8 40  1  0  0  0  0
  8 41  1  0  0  0  0
  9 14  1  0  0  0  0
  9 10  2  0  0  0  0
 10 11  1  0  0  0  0
 11 12  2  0  0  0  0
 11 42  1  0  0  0  0
 12 13  1  0  0  0  0
 13 17  1  0  0  0  0
 13 14  2  0  0  0  0
 14 15  1  0  0  0  0
 15 16  2  0  0  0  0
 16 17  1  0  0  0  0
 16 43  1  0  0  0  0
 17 18  1  0  0  0  0
 18 19  1  0  0  0  0
 18 44  1  0  0  0  0
 18 45  1  0  0  0  0
 19 20  1  0  0  0  0
 19 22  1  0  0  0  0
 19 46  1  0  0  0  0
 20 21  1  0  0  0  0
 20 47  1  0  0  0  0
 20 48  1  0  0  0  0
 21 49  1  0  0  0  0
 22 26  1  0  0  0  0
 22 23  1  0  0  0  0
 22 50  1  0  0  0  0
 23 24  1  0  0  0  0
 23 51  1  0  0  0  0
 23 52  1  0  0  0  0
 24 25  1  0  0  0  0
 24 53  1  0  0  0  0
 24 54  1  0  0  0  0
 25 26  1  0  0  0  0
 26 55  1  0  0  0  0
 26 56  1  0  0  0  0
 27 28  1  0  0  0  0
 27 29  1  0  0  0  0
 28 57  1  0  0  0  0
 28 58  1  0  0  0  0
 28 59  1  0  0  0  0
 29 60  1  0  0  0  0
 29 61  1  0  0  0  0
M  END
> <s_m_source_file>
AV-unprocessed.smi

> <i_m_source_file_index>
21

> <i_lp_mmshare_version>
43012

> <i_f3d_flags>
0

> <s_epik_input>
W0NIM11PW0NASF0xW0NIMl1bQ0BIXShOKFtDSDNdKVtDSDJdMSlbQ0gyXU4oW0NIM10pYyhuW2NIXW4yKWMoYzIzKW5bY0hdbjNbQ0gyXVtDQEhdKFtDSDJdW09IXSlbQ0BASF00W0NIMl1bQ0gyXU9bQ0gyXTQ=

> <s_epik_cmdline>
J2VwaWtfcHl0aG9uJywgJy1waCcsICc3LjAnLCAnLXRuJywgJzgnLCAnLW1hJywgJzIwMCcsICctbWV0YWxfYmluZGluZycsICctaW1hZScsICc8aW5maWxlLm1hZT4nLCAnLW9tYWUnLCAnPG91dGZpbGUubWFlPic=

> <r_lp_tautomer_probability>
1

> <r_epik_Ionization_Penalty>
2.17574

> <r_epik_Ionization_Penalty_Charging>
0

> <r_epik_Ionization_Penalty_Neutral>
2.17574

> <r_epik_State_Penalty>
2.31336

> <r_epik_Charging_Adjusted_Penalty>
2.31336

> <i_epik_Tot_Q>
0

> <i_epik_Tot_abs_Q>
0

> <r_epik_Metal_State_Penalty>
2.31025

> <b_epik_Metal_Only>
0

> <s_lp_Force_Field>
OPLS_2005

> <r_lp_Energy>
70.5477

> <b_lp_Chiralities_Consistent>
1

> <s_lp_Variant>
AV-unprocessed.smi:21-39

> <Gold.Version>
5.8.1

> <Gold.Id.Protein>
6NUR|6NUR_protein|mol2

> <Gold.PLP.Fitness>
48.1229

> <Gold.PLP.PLP>
-45.6517

> <Gold.PLP.part.hbond>
-3.0000

> <Gold.PLP.part.metal>
0.0000

> <Gold.PLP.part.buried>
-3.7900

> <Gold.PLP.part.nonpolar>
-38.0017

> <Gold.PLP.part.repulsive>
0.3392

> <Gold.PLP.ligand.clash>
0.0000

> <Gold.PLP.ligand.torsion>
2.5078

> <Gold.PLP.Chemscore.Hbond>
2.2845

> <Gold.PLP.Chemscore.CHOScore>
0.0000

> <Gold.PLP.Chemscore.Metal>
0.0000

> <Gold.Chemscore.Hbonds>
donor molecule, donor type, donor heavy atom, donor atom, acceptor molecule, acceptor atom, score
      P1  H  7997  8008       L1    12  0.75
      P1  H  7997  8010       L1    21  0.33
      P1  H 10752 10765       L1    10  0.85

> <Gold.PLP.Chemscore.Internal.Correction>
0.6334

> <Gold.Rescore>
     Score         DG    S(hbond)    S(metal)    S(lipo)     H(rot)  DE(clash)    DE(int)     intcor
      9.49     -13.77       0.88        0.00     111.29       3.00       0.51       3.77       ----

> <Gold.Chemscore.Fitness>
9.4901

> <Gold.Chemscore.DG>
-13.7668

> <Gold.Chemscore.ZeroCoef>
-5.4800

> <Gold.Chemscore.Hbond>
0.8844

> <Gold.Chemscore.Metal>
0.0000

> <Gold.Chemscore.Lipo>
111.2889

> <Gold.Chemscore.Internal_Hbond>
0.0000

> <Gold.Chemscore.DEClash>
0.5074

> <Gold.Chemscore.DEInternal>
3.7694

> <Gold.Chemscore.Rot>
3.0031

> <Gold.Chemscore.Internal.Correction>
   9.000000E+99

> <Gold.Chemscore.Hbonds>
donor molecule, donor type, donor heavy atom, donor atom, acceptor molecule, acceptor atom, score
      P1  H  7997  8008       L1    12  0.69
      P1  H  7997  8010       L1    21  0.07
      P1  H 10752 10765       L1    10  0.16

> <Gold.Chemscore.Hbond.Weighted>
-2.9540

> <Gold.Chemscore.Metal.Weighted>
-0.0000

> <Gold.Chemscore.Lipo.Weighted>
-13.0208

> <Gold.Chemscore.Internal_Hbond.Weighted>
0.0000

> <Gold.Chemscore.DEClash.Weighted>
0.5074

> <Gold.Chemscore.DEInternal.Weighted>
3.7694

> <Gold.Chemscore.Rot.Weighted>
7.6880

> <Gold.Chemscore.Internal.Correction.Weighted>
   9.000000E+99

> <Gold.Protein.RotatedTorsions>
[ 6907 6896 6895 6894 ] final -163.71 input  -60.11 | X-H torsion
[ 7974 7965 7964 7962 ] final  -97.45 input  175.53 | X-H torsion
[ 8008 7997 7996 7995 ] final   -9.57 input   59.86 | X-H torsion
[ 10167 10162 10161 10158 ] final  116.07 input  -65.29 | X-H torsion
[ 10718 10713 10712 10709 ] final  172.15 input   66.30 | X-H torsion
[ 10763 10752 10751 10750 ] final  175.43 input  -60.55 | X-H torsion
[ 11005 11000 10999 10996 ] final -103.57 input  -57.11 | X-H torsion

> <Gold.Protein.ActiveResidues>
 VAL166  LYS551  ARG553  GLY616  TRP617  ASP618  TYR619  PRO620  LYS621  CYS622 
 ASP623  PHE694  ASN695  SER759  ASP760  ASP761  ALA762  ILE779  LEU786  VAL792 
 PHE793  MET794  SER795  GLU796  ALA797  LYS798  CYS799  TRP800  GLU811  SER814 

> <Gold.Protein.RotatedAtoms>
  151.4003  133.3759  159.2731 H   0  0  0  0  0  0  0  0  0  0  0  0  # atno 6907 bound_to 6896
  150.9438  134.8846  159.7639 H   0  0  0  0  0  0  0  0  0  0  0  0  # atno 6908 bound_to 6896
  152.5083  134.3955  159.9451 H   0  0  0  0  0  0  0  0  0  0  0  0  # atno 6909 bound_to 6896
  145.3335  140.9446  143.2648 H   0  0  0  0  0  0  0  0  0  0  0  0  # atno 7974 bound_to 7965
  154.5635  140.2351  155.8300 H   0  0  0  0  0  0  0  0  0  0  0  0  # atno 8008 bound_to 7997
  156.2049  140.3042  155.9564 H   0  0  0  0  0  0  0  0  0  0  0  0  # atno 8009 bound_to 7997
  155.2845  140.0424  157.3009 H   0  0  0  0  0  0  0  0  0  0  0  0  # atno 8010 bound_to 7997
  139.6273  144.7110  151.2506 H   0  0  0  0  0  0  0  0  0  0  0  0  # atno 10167 bound_to 10162
  156.9831  131.0125  151.2876 H   0  0  0  0  0  0  0  0  0  0  0  0  # atno 10718 bound_to 10713
  154.4675  135.2770  155.1667 H   0  0  0  0  0  0  0  0  0  0  0  0  # atno 10763 bound_to 10752
  154.3430  135.6166  153.5609 H   0  0  0  0  0  0  0  0  0  0  0  0  # atno 10764 bound_to 10752
  152.9861  135.5793  154.5050 H   0  0  0  0  0  0  0  0  0  0  0  0  # atno 10765 bound_to 10752
  141.1140  133.8651  157.1503 H   0  0  0  0  0  0  0  0  0  0  0  0  # atno 11005 bound_to 11000
  144.8845  139.4858  143.6707 LP  0  0  0  0  0  0  0  0  0  0  0  0  # atno 17320 bound_to 7965
  146.3036  139.7506  142.9073 LP  0  0  0  0  0  0  0  0  0  0  0  0  # atno 17321 bound_to 7965
  140.7418  143.6545  150.8219 LP  0  0  0  0  0  0  0  0  0  0  0  0  # atno 17342 bound_to 10162
  140.0164  143.5588  152.2818 LP  0  0  0  0  0  0  0  0  0  0  0  0  # atno 17343 bound_to 10162
  157.5512  130.8183  149.8147 LP  0  0  0  0  0  0  0  0  0  0  0  0  # atno 17370 bound_to 10713
  156.0236  130.3787  150.1887 LP  0  0  0  0  0  0  0  0  0  0  0  0  # atno 17371 bound_to 10713
  140.0050  135.0012  157.0273 LP  0  0  0  0  0  0  0  0  0  0  0  0  # atno 17394 bound_to 11000
  140.4698  134.1398  155.7201 LP  0  0  0  0  0  0  0  0  0  0  0  0  # atno 17395 bound_to 11000

$$$$
