AV-unprocessed.smi:91|AV-procd|sdf|838|dock6
  -GOLD-   2262017273D 1   1.00000     0.00000
 Structure written by MMmdl.
 60 63  0  0  0  0  0  0  0  0  1 V2000
  152.9602  131.1890  158.1290 C   0  0  0  0  0  0  0  0  0  0  0  0
  152.3183  132.4095  157.7953 O   0  0  0  0  0  0  0  0  0  0  0  0
  151.3593  132.2997  156.7510 C   0  0  0  0  0  0  0  0  0  0  0  0
  150.4875  133.5601  156.6129 C   0  0  1  0  0  0  0  0  0  0  0  0
  151.3220  134.7993  156.2418 C   0  0  0  0  0  0  0  0  0  0  0  0
  150.4431  135.9227  155.9602 N   0  0  0  0  0  0  0  0  0  0  0  0
  151.0902  137.1056  155.8875 C   0  0  0  0  0  0  0  0  0  0  0  0
  151.9199  137.2814  154.8297 N   0  0  0  0  0  0  0  0  0  0  0  0
  152.5848  138.4313  154.6839 C   0  0  0  0  0  0  0  0  0  0  0  0
  152.5554  139.5165  155.4599 N   0  0  0  0  0  0  0  0  0  0  0  0
  151.7096  139.3487  156.5165 C   0  0  0  0  0  0  0  0  0  0  0  0
  150.9436  138.1839  156.8068 C   0  0  0  0  0  0  0  0  0  0  0  0
  150.1909  138.3906  157.9573 N   0  0  0  0  0  0  0  0  0  0  0  0
  150.4960  139.6043  158.3267 C   0  0  0  0  0  0  0  0  0  0  0  0
  151.3950  140.2550  157.5140 N   0  0  0  0  0  0  0  0  0  0  0  0
  151.8931  141.6088  157.6859 C   0  0  0  0  0  0  0  0  0  0  0  0
  151.4334  142.2609  159.0137 C   0  0  2  0  0  0  0  0  0  0  0  0
  150.6509  143.5786  158.7925 C   0  0  0  0  0  0  0  0  0  0  0  0
  149.4820  143.3634  158.0290 O   0  0  0  0  0  0  0  0  0  0  0  0
  152.6155  142.4352  160.0005 C   0  0  1  0  0  0  0  0  0  0  0  0
  152.2306  142.9404  161.3798 C   0  0  0  0  0  0  0  0  0  0  0  0
  153.4515  142.5629  162.2105 C   0  0  0  0  0  0  0  0  0  0  0  0
  153.9385  141.3527  161.6430 O   0  0  0  0  0  0  0  0  0  0  0  0
  153.3352  141.1335  160.3714 C   0  0  0  0  0  0  0  0  0  0  0  0
  149.4746  135.6343  154.9112 C   0  0  0  0  0  0  0  0  0  0  0  0
  148.6380  134.3879  155.2738 C   0  0  0  0  0  0  0  0  0  0  0  0
  147.6628  134.6620  156.4388 C   0  0  0  0  0  0  0  0  0  0  0  0
  147.8390  133.9227  154.0466 C   0  0  0  0  0  0  0  0  0  0  0  0
  149.5271  133.3073  155.5843 O   0  0  0  0  0  0  0  0  0  0  0  0
  153.7194  131.3766  158.8882 H   0  0  0  0  0  0  0  0  0  0  0  0
  153.4568  130.7521  157.2618 H   0  0  0  0  0  0  0  0  0  0  0  0
  152.2608  130.4599  158.5375 H   0  0  0  0  0  0  0  0  0  0  0  0
  151.9044  132.1400  155.8202 H   0  0  0  0  0  0  0  0  0  0  0  0
  150.7393  131.4138  156.8969 H   0  0  0  0  0  0  0  0  0  0  0  0
  149.9634  133.7353  157.5510 H   0  0  0  0  0  0  0  0  0  0  0  0
  152.0029  135.0486  157.0571 H   0  0  0  0  0  0  0  0  0  0  0  0
  151.9340  134.5946  155.3620 H   0  0  0  0  0  0  0  0  0  0  0  0
  153.2312  138.4912  153.8209 H   0  0  0  0  0  0  0  0  0  0  0  0
  150.0644  140.0650  159.2035 H   0  0  0  0  0  0  0  0  0  0  0  0
  152.9811  141.5655  157.6358 H   0  0  0  0  0  0  0  0  0  0  0  0
  151.5714  142.2116  156.8359 H   0  0  0  0  0  0  0  0  0  0  0  0
  150.7317  141.5655  159.4767 H   0  0  0  0  0  0  0  0  0  0  0  0
  150.3693  144.0319  159.7428 H   0  0  0  0  0  0  0  0  0  0  0  0
  151.2693  144.3174  158.2834 H   0  0  0  0  0  0  0  0  0  0  0  0
  149.5907  143.7799  157.1875 H   0  0  0  0  0  0  0  0  0  0  0  0
  153.3485  143.1231  159.5752 H   0  0  0  0  0  0  0  0  0  0  0  0
  152.0260  144.0111  161.4060 H   0  0  0  0  0  0  0  0  0  0  0  0
  151.3492  142.4135  161.7485 H   0  0  0  0  0  0  0  0  0  0  0  0
  154.2252  143.3260  162.1172 H   0  0  0  0  0  0  0  0  0  0  0  0
  153.2177  142.4440  163.2687 H   0  0  0  0  0  0  0  0  0  0  0  0
  152.6245  140.3120  160.4708 H   0  0  0  0  0  0  0  0  0  0  0  0
  154.0811  140.8448  159.6304 H   0  0  0  0  0  0  0  0  0  0  0  0
  148.8277  136.4976  154.7481 H   0  0  0  0  0  0  0  0  0  0  0  0
  150.0041  135.4474  153.9768 H   0  0  0  0  0  0  0  0  0  0  0  0
  146.9125  135.3995  156.1527 H   0  0  0  0  0  0  0  0  0  0  0  0
  148.1662  135.0519  157.3231 H   0  0  0  0  0  0  0  0  0  0  0  0
  147.1362  133.7534  156.7316 H   0  0  0  0  0  0  0  0  0  0  0  0
  147.1408  134.6909  153.7126 H   0  0  0  0  0  0  0  0  0  0  0  0
  147.2623  133.0242  154.2687 H   0  0  0  0  0  0  0  0  0  0  0  0
  148.4990  133.6894  153.2103 H   0  0  0  0  0  0  0  0  0  0  0  0
  1  2  1  0  0  0  0
  1 30  1  0  0  0  0
  1 31  1  0  0  0  0
  1 32  1  0  0  0  0
  2  3  1  0  0  0  0
  3  4  1  0  0  0  0
  3 33  1  0  0  0  0
  3 34  1  0  0  0  0
  4 29  1  0  0  0  0
  4  5  1  0  0  0  0
  4 35  1  0  0  0  0
  5  6  1  0  0  0  0
  5 36  1  0  0  0  0
  5 37  1  0  0  0  0
  6  7  1  0  0  0  0
  6 25  1  0  0  0  0
  7 12  1  0  0  0  0
  7  8  2  0  0  0  0
  8  9  1  0  0  0  0
  9 10  2  0  0  0  0
  9 38  1  0  0  0  0
 10 11  1  0  0  0  0
 11 15  1  0  0  0  0
 11 12  2  0  0  0  0
 12 13  1  0  0  0  0
 13 14  2  0  0  0  0
 14 15  1  0  0  0  0
 14 39  1  0  0  0  0
 15 16  1  0  0  0  0
 16 17  1  0  0  0  0
 16 40  1  0  0  0  0
 16 41  1  0  0  0  0
 17 18  1  0  0  0  0
 17 20  1  0  0  0  0
 17 42  1  0  0  0  0
 18 19  1  0  0  0  0
 18 43  1  0  0  0  0
 18 44  1  0  0  0  0
 19 45  1  0  0  0  0
 20 24  1  0  0  0  0
 20 21  1  0  0  0  0
 20 46  1  0  0  0  0
 21 22  1  0  0  0  0
 21 47  1  0  0  0  0
 21 48  1  0  0  0  0
 22 23  1  0  0  0  0
 22 49  1  0  0  0  0
 22 50  1  0  0  0  0
 23 24  1  0  0  0  0
 24 51  1  0  0  0  0
 24 52  1  0  0  0  0
 25 26  1  0  0  0  0
 25 53  1  0  0  0  0
 25 54  1  0  0  0  0
 26 27  1  0  0  0  0
 26 28  1  0  0  0  0
 26 29  1  0  0  0  0
 27 55  1  0  0  0  0
 27 56  1  0  0  0  0
 27 57  1  0  0  0  0
 28 58  1  0  0  0  0
 28 59  1  0  0  0  0
 28 60  1  0  0  0  0
M  END
> <s_m_source_file>
AV-unprocessed.smi

> <i_m_source_file_index>
91

> <i_lp_mmshare_version>
43012

> <i_f3d_flags>
0

> <s_epik_input>
W0NIM11PW0NIMl1bQ0BASF0oTzEpW0NIMl1OKFtDSDJdQzEoW0NIM10pW0NIM10pYyhuW2NIXW4yKWMoYzIzKW5bY0hdbjNbQ0gyXVtDQEhdKFtDSDJdW09IXSlbQ0BASF00W0NIMl1bQ0gyXU9bQ0gyXTQ=

> <s_epik_cmdline>
J2VwaWtfcHl0aG9uJywgJy1waCcsICc3LjAnLCAnLXRuJywgJzgnLCAnLW1hJywgJzIwMCcsICctbWV0YWxfYmluZGluZycsICctaW1hZScsICc8aW5maWxlLm1hZT4nLCAnLW9tYWUnLCAnPG91dGZpbGUubWFlPic=

> <r_lp_tautomer_probability>
1

> <r_epik_Ionization_Penalty>
8.63591e-05

> <r_epik_Ionization_Penalty_Charging>
0

> <r_epik_Ionization_Penalty_Neutral>
8.63591e-05

> <r_epik_State_Penalty>
-0

> <r_epik_Charging_Adjusted_Penalty>
0

> <i_epik_Tot_Q>
0

> <i_epik_Tot_abs_Q>
0

> <r_epik_Metal_State_Penalty>
-0

> <b_epik_Metal_Only>
0

> <s_lp_Force_Field>
OPLS_2005

> <r_lp_Energy>
49.535

> <b_lp_Chiralities_Consistent>
1

> <s_lp_Variant>
AV-unprocessed.smi:91-6

> <Gold.Version>
5.8.1

> <Gold.Id.Protein>
6NUR|6NUR_protein|mol2

> <Gold.PLP.Fitness>
53.8509

> <Gold.PLP.PLP>
-43.4924

> <Gold.PLP.part.hbond>
-4.7928

> <Gold.PLP.part.metal>
0.0000

> <Gold.PLP.part.buried>
-6.5054

> <Gold.PLP.part.nonpolar>
-31.9850

> <Gold.PLP.part.repulsive>
0.1678

> <Gold.PLP.ligand.clash>
0.0000

> <Gold.PLP.ligand.torsion>
0.9387

> <Gold.PLP.Chemscore.Hbond>
3.9280

> <Gold.PLP.Chemscore.CHOScore>
0.0000

> <Gold.PLP.Chemscore.Metal>
0.0000

> <Gold.Chemscore.Hbonds>
donor molecule, donor type, donor heavy atom, donor atom, acceptor molecule, acceptor atom, score
      L1  H    19    45       P1  8028  1.00
      P1  H  6896  6907       L1     2  1.00
      P1  H  7997  8009       L1    10  0.99
      P1  H 10752 10763       L1     8  0.93

> <Gold.PLP.Chemscore.Internal.Correction>
0.4519

> <Gold.Rescore>
     Score         DG    S(hbond)    S(metal)    S(lipo)     H(rot)  DE(clash)    DE(int)     intcor
     19.96     -20.96       3.40        0.00     101.56       3.03       0.04       0.97       ----

> <Gold.Chemscore.Fitness>
19.9559

> <Gold.Chemscore.DG>
-20.9640

> <Gold.Chemscore.ZeroCoef>
-5.4800

> <Gold.Chemscore.Hbond>
3.3995

> <Gold.Chemscore.Metal>
0.0000

> <Gold.Chemscore.Lipo>
101.5592

> <Gold.Chemscore.Internal_Hbond>
0.0000

> <Gold.Chemscore.DEClash>
0.0425

> <Gold.Chemscore.DEInternal>
0.9656

> <Gold.Chemscore.Rot>
3.0284

> <Gold.Chemscore.Internal.Correction>
   9.000000E+99

> <Gold.Chemscore.Hbonds>
donor molecule, donor type, donor heavy atom, donor atom, acceptor molecule, acceptor atom, score
      L1  H    19    45       P1  8028  0.71
      P1  H  6896  6907       L1     2  0.68
      P1  H  7997  8009       L1    10  0.56
      P1  H 10752 10763       L1     8  0.62

> <Gold.Chemscore.Hbond.Weighted>
-11.3544

> <Gold.Chemscore.Metal.Weighted>
-0.0000

> <Gold.Chemscore.Lipo.Weighted>
-11.8824

> <Gold.Chemscore.Internal_Hbond.Weighted>
0.0000

> <Gold.Chemscore.DEClash.Weighted>
0.0425

> <Gold.Chemscore.DEInternal.Weighted>
0.9656

> <Gold.Chemscore.Rot.Weighted>
7.7528

> <Gold.Chemscore.Internal.Correction.Weighted>
   9.000000E+99

> <Gold.Protein.RotatedTorsions>
[ 6907 6896 6895 6894 ] final -176.06 input  -60.11 | X-H torsion
[ 7974 7965 7964 7962 ] final -143.11 input  175.53 | X-H torsion
[ 8008 7997 7996 7995 ] final -155.28 input   59.86 | X-H torsion
[ 10167 10162 10161 10158 ] final   69.58 input  -65.29 | X-H torsion
[ 10718 10713 10712 10709 ] final   88.09 input   66.30 | X-H torsion
[ 10763 10752 10751 10750 ] final   53.01 input  -60.55 | X-H torsion
[ 11005 11000 10999 10996 ] final    8.28 input  -57.11 | X-H torsion

> <Gold.Protein.ActiveResidues>
 VAL166  LYS551  ARG553  GLY616  TRP617  ASP618  TYR619  PRO620  LYS621  CYS622 
 ASP623  PHE694  ASN695  SER759  ASP760  ASP761  ALA762  ILE779  LEU786  VAL792 
 PHE793  MET794  SER795  GLU796  ALA797  LYS798  CYS799  TRP800  GLU811  SER814 

> <Gold.Protein.RotatedAtoms>
  151.5987  133.3358  159.3042 H   0  0  0  0  0  0  0  0  0  0  0  0  # atno 6907 bound_to 6896
  150.8220  134.7436  159.6792 H   0  0  0  0  0  0  0  0  0  0  0  0  # atno 6908 bound_to 6896
  152.4313  134.5779  159.9991 H   0  0  0  0  0  0  0  0  0  0  0  0  # atno 6909 bound_to 6896
  144.8393  140.5875  143.5463 H   0  0  0  0  0  0  0  0  0  0  0  0  # atno 7974 bound_to 7965
  155.6995  140.0765  157.2416 H   0  0  0  0  0  0  0  0  0  0  0  0  # atno 8008 bound_to 7997
  154.4075  140.1650  156.2228 H   0  0  0  0  0  0  0  0  0  0  0  0  # atno 8009 bound_to 7997
  155.9381  140.3386  155.6307 H   0  0  0  0  0  0  0  0  0  0  0  0  # atno 8010 bound_to 7997
  140.0662  144.5191  150.7259 H   0  0  0  0  0  0  0  0  0  0  0  0  # atno 10167 bound_to 10162
  157.6946  131.0281  150.3222 H   0  0  0  0  0  0  0  0  0  0  0  0  # atno 10718 bound_to 10713
  152.9792  135.5793  154.4672 H   0  0  0  0  0  0  0  0  0  0  0  0  # atno 10763 bound_to 10752
  154.4240  135.2772  155.1959 H   0  0  0  0  0  0  0  0  0  0  0  0  # atno 10764 bound_to 10752
  154.3696  135.6171  153.5787 H   0  0  0  0  0  0  0  0  0  0  0  0  # atno 10765 bound_to 10752
  140.5388  134.0395  155.7897 H   0  0  0  0  0  0  0  0  0  0  0  0  # atno 11005 bound_to 11000
  145.4727  139.1502  143.3805 LP  0  0  0  0  0  0  0  0  0  0  0  0  # atno 17320 bound_to 7965
  146.2688  140.4861  142.8823 LP  0  0  0  0  0  0  0  0  0  0  0  0  # atno 17321 bound_to 7965
  140.7148  143.2535  151.4469 LP  0  0  0  0  0  0  0  0  0  0  0  0  # atno 17342 bound_to 10162
  139.5863  144.1596  152.2033 LP  0  0  0  0  0  0  0  0  0  0  0  0  # atno 17343 bound_to 10162
  156.3707  130.3863  149.7177 LP  0  0  0  0  0  0  0  0  0  0  0  0  # atno 17370 bound_to 10713
  156.4593  130.7944  151.2964 LP  0  0  0  0  0  0  0  0  0  0  0  0  # atno 17371 bound_to 10713
  141.1239  133.9415  157.2674 LP  0  0  0  0  0  0  0  0  0  0  0  0  # atno 17394 bound_to 11000
  139.9515  135.0174  156.9007 LP  0  0  0  0  0  0  0  0  0  0  0  0  # atno 17395 bound_to 11000

$$$$
