AV-unprocessed.smi:33|AV-procd|sdf|212|dock9
  -GOLD-   2262015513D 1   1.00000     0.00000
 Structure written by MMmdl.
 67 72  0  0  0  0  0  0  0  0  1 V2000
  149.2252  140.7287  157.5901 O   0  0  0  0  0  0  0  0  0  0  0  0
  150.1138  141.4529  157.1368 C   0  0  0  0  0  0  0  0  0  0  0  0
  150.2051  141.7975  155.8376 O   0  0  0  0  0  0  0  0  0  0  0  0
  149.0328  141.9041  155.0470 C   0  0  0  0  0  0  0  0  0  0  0  0
  148.8530  140.6148  154.2366 C   0  0  1  0  0  0  0  0  0  0  0  0
  148.8807  139.4763  155.0837 O   0  0  0  0  0  0  0  0  0  0  0  0
  148.2786  138.4110  154.4172 C   0  0  1  0  0  0  0  0  0  0  0  0
  147.5211  137.6014  155.4180 N   0  0  0  0  0  0  0  0  0  0  0  0
  147.4254  137.8221  156.7740 C   0  0  0  0  0  0  0  0  0  0  0  0
  146.7164  136.9476  157.4354 N   0  0  0  0  0  0  0  0  0  0  0  0
  146.2840  136.0597  156.4586 C   0  0  0  0  0  0  0  0  0  0  0  0
  145.4900  134.8812  156.4762 C   0  0  0  0  0  0  0  0  0  0  0  0
  144.9638  134.3655  157.6123 N   0  0  0  0  0  0  0  0  0  0  0  0
  144.8473  132.9024  157.6932 C   0  0  0  0  0  0  0  0  0  0  0  0
  145.6072  132.1939  157.0303 O   0  0  0  0  0  0  0  0  0  0  0  0
  143.8426  132.2689  158.6134 C   0  0  0  0  0  0  0  0  0  0  0  0
  144.1278  131.0289  159.2261 C   0  0  0  0  0  0  0  0  0  0  0  0
  143.1832  130.4242  160.0780 C   0  0  0  0  0  0  0  0  0  0  0  0
  141.9410  131.0458  160.3079 C   0  0  0  0  0  0  0  0  0  0  0  0
  141.6391  132.2680  159.6778 C   0  0  0  0  0  0  0  0  0  0  0  0
  142.5829  132.8734  158.8259 C   0  0  0  0  0  0  0  0  0  0  0  0
  144.5548  135.3161  158.6577 C   0  0  0  0  0  0  0  0  0  0  0  0
  144.2638  136.4727  158.3459 O   0  0  0  0  0  0  0  0  0  0  0  0
  144.4332  134.8741  160.0889 C   0  0  0  0  0  0  0  0  0  0  0  0
  143.3070  135.2547  160.8514 C   0  0  0  0  0  0  0  0  0  0  0  0
  143.1941  134.8586  162.1982 C   0  0  0  0  0  0  0  0  0  0  0  0
  144.2145  134.0953  162.7966 C   0  0  0  0  0  0  0  0  0  0  0  0
  145.3529  133.7358  162.0504 C   0  0  0  0  0  0  0  0  0  0  0  0
  145.4664  134.1309  160.7034 C   0  0  0  0  0  0  0  0  0  0  0  0
  145.2650  134.2461  155.2967 N   0  0  0  0  0  0  0  0  0  0  0  0
  145.7900  134.7344  154.1694 C   0  0  0  0  0  0  0  0  0  0  0  0
  146.5535  135.8169  154.0048 N   0  0  0  0  0  0  0  0  0  0  0  0
  146.7798  136.4599  155.1873 C   0  0  0  0  0  0  0  0  0  0  0  0
  147.3254  138.9939  153.3586 C   0  0  2  0  0  0  0  0  0  0  0  0
  147.6970  138.6141  152.0489 O   0  0  0  0  0  0  0  0  0  0  0  0
  147.4998  140.4965  153.5337 C   0  0  1  0  0  0  0  0  0  0  0  0
  146.5182  140.9706  154.3030 F   0  0  0  0  0  0  0  0  0  0  0  0
  151.2042  142.0374  157.9699 C   0  0  0  0  0  0  0  0  0  0  0  0
  151.5859  143.3841  157.7658 C   0  0  0  0  0  0  0  0  0  0  0  0
  152.6097  143.9646  158.5396 C   0  0  0  0  0  0  0  0  0  0  0  0
  153.2656  143.2052  159.5258 C   0  0  0  0  0  0  0  0  0  0  0  0
  152.8967  141.8639  159.7372 C   0  0  0  0  0  0  0  0  0  0  0  0
  151.8722  141.2820  158.9653 C   0  0  0  0  0  0  0  0  0  0  0  0
  148.1565  142.0848  155.6717 H   0  0  0  0  0  0  0  0  0  0  0  0
  149.1411  142.7560  154.3745 H   0  0  0  0  0  0  0  0  0  0  0  0
  149.6472  140.5188  153.4939 H   0  0  0  0  0  0  0  0  0  0  0  0
  149.0297  137.7321  154.0102 H   0  0  0  0  0  0  0  0  0  0  0  0
  147.9104  138.6545  157.2630 H   0  0  0  0  0  0  0  0  0  0  0  0
  145.0779  130.5427  159.0571 H   0  0  0  0  0  0  0  0  0  0  0  0
  143.4118  129.4822  160.5544 H   0  0  0  0  0  0  0  0  0  0  0  0
  141.2173  130.5818  160.9617 H   0  0  0  0  0  0  0  0  0  0  0  0
  140.6829  132.7409  159.8462 H   0  0  0  0  0  0  0  0  0  0  0  0
  142.3377  133.8085  158.3430 H   0  0  0  0  0  0  0  0  0  0  0  0
  142.5179  135.8410  160.4029 H   0  0  0  0  0  0  0  0  0  0  0  0
  142.3245  135.1421  162.7725 H   0  0  0  0  0  0  0  0  0  0  0  0
  144.1273  133.7919  163.8294 H   0  0  0  0  0  0  0  0  0  0  0  0
  146.1402  133.1581  162.5114 H   0  0  0  0  0  0  0  0  0  0  0  0
  146.3473  133.8531  160.1423 H   0  0  0  0  0  0  0  0  0  0  0  0
  145.5694  134.1774  153.2709 H   0  0  0  0  0  0  0  0  0  0  0  0
  146.2951  138.6815  153.5380 H   0  0  0  0  0  0  0  0  0  0  0  0
  148.2612  137.8579  152.1047 H   0  0  0  0  0  0  0  0  0  0  0  0
  147.4592  141.0565  152.5985 H   0  0  0  0  0  0  0  0  0  0  0  0
  151.0959  143.9873  157.0150 H   0  0  0  0  0  0  0  0  0  0  0  0
  152.8910  144.9944  158.3761 H   0  0  0  0  0  0  0  0  0  0  0  0
  154.0505  143.6506  160.1193 H   0  0  0  0  0  0  0  0  0  0  0  0
  153.3996  141.2795  160.4936 H   0  0  0  0  0  0  0  0  0  0  0  0
  151.6137  140.2503  159.1538 H   0  0  0  0  0  0  0  0  0  0  0  0
  1  2  2  0  0  0  0
  2  3  1  0  0  0  0
  2 38  1  0  0  0  0
  3  4  1  0  0  0  0
  4  5  1  0  0  0  0
  4 44  1  0  0  0  0
  4 45  1  0  0  0  0
  5 36  1  0  0  0  0
  5  6  1  0  0  0  0
  5 46  1  0  0  0  0
  6  7  1  0  0  0  0
  7  8  1  0  0  0  0
  7 34  1  0  0  0  0
  7 47  1  0  0  0  0
  8 33  1  0  0  0  0
  8  9  1  0  0  0  0
  9 10  2  0  0  0  0
  9 48  1  0  0  0  0
 10 11  1  0  0  0  0
 11 33  2  0  0  0  0
 11 12  1  0  0  0  0
 12 13  1  0  0  0  0
 12 30  2  0  0  0  0
 13 14  1  0  0  0  0
 13 22  1  0  0  0  0
 14 15  2  0  0  0  0
 14 16  1  0  0  0  0
 16 21  1  0  0  0  0
 16 17  2  0  0  0  0
 17 18  1  0  0  0  0
 17 49  1  0  0  0  0
 18 19  2  0  0  0  0
 18 50  1  0  0  0  0
 19 20  1  0  0  0  0
 19 51  1  0  0  0  0
 20 21  2  0  0  0  0
 20 52  1  0  0  0  0
 21 53  1  0  0  0  0
 22 23  2  0  0  0  0
 22 24  1  0  0  0  0
 24 29  1  0  0  0  0
 24 25  2  0  0  0  0
 25 26  1  0  0  0  0
 25 54  1  0  0  0  0
 26 27  2  0  0  0  0
 26 55  1  0  0  0  0
 27 28  1  0  0  0  0
 27 56  1  0  0  0  0
 28 29  2  0  0  0  0
 28 57  1  0  0  0  0
 29 58  1  0  0  0  0
 30 31  1  0  0  0  0
 31 32  2  0  0  0  0
 31 59  1  0  0  0  0
 32 33  1  0  0  0  0
 34 35  1  0  0  0  0
 34 36  1  0  0  0  0
 34 60  1  0  0  0  0
 35 61  1  0  0  0  0
 36 37  1  0  0  0  0
 36 62  1  0  0  0  0
 38 43  1  0  0  0  0
 38 39  2  0  0  0  0
 39 40  1  0  0  0  0
 39 63  1  0  0  0  0
 40 41  2  0  0  0  0
 40 64  1  0  0  0  0
 41 42  1  0  0  0  0
 41 65  1  0  0  0  0
 42 43  2  0  0  0  0
 42 66  1  0  0  0  0
 43 67  1  0  0  0  0
M  END
> <s_m_source_file>
AV-unprocessed.smi

> <i_m_source_file_index>
33

> <i_lp_mmshare_version>
43012

> <i_f3d_flags>
0

> <s_epik_input>
W2NIXTFbY0hdW2NIXVtjSF1bY0hdYzFDKD1PKU9bQ0gyXVtDQEBIXTJPW0NASF0oW0NAQEhdKFtPSF0pW0NAQEhdMkYpbihbY0hdbjMpYyhjMzQpbltjSF1uYzROKEMoPU8pYzVbY0hdW2NIXVtjSF1bY0hdW2NIXTUpQyg9TyljNltjSF1bY0hdW2NIXVtjSF1bY0hdNg==

> <s_epik_cmdline>
J2VwaWtfcHl0aG9uJywgJy1waCcsICc3LjAnLCAnLXRuJywgJzgnLCAnLW1hJywgJzIwMCcsICctbWV0YWxfYmluZGluZycsICctaW1hZScsICc8aW5maWxlLm1hZT4nLCAnLW9tYWUnLCAnPG91dGZpbGUubWFlPic=

> <r_lp_tautomer_probability>
1

> <r_epik_Ionization_Penalty>
0.00067664

> <r_epik_Ionization_Penalty_Charging>
0

> <r_epik_Ionization_Penalty_Neutral>
0.00067664

> <r_epik_State_Penalty>
0.000428095

> <r_epik_Charging_Adjusted_Penalty>
0.000428095

> <i_epik_Tot_Q>
0

> <i_epik_Tot_abs_Q>
0

> <r_epik_Metal_State_Penalty>
-0

> <b_epik_Metal_Only>
0

> <s_epik_Chemistry_Notes>
This compound has an ester and may undergo hydrolysis at high or low pH. This compound contains an acetal/aminal-like group ( X-CH(R)-Y where X, Y are N, S, or O) that may be acid/base labile, releasing an aldehyde.

> <s_lp_Force_Field>
OPLS_2005

> <r_lp_Energy>
68.7921

> <b_lp_Chiralities_Consistent>
1

> <s_lp_Variant>
AV-unprocessed.smi:33-14

> <Gold.Version>
5.8.1

> <Gold.Id.Protein>
6NUR|6NUR_protein|mol2

> <Gold.PLP.Fitness>
51.7224

> <Gold.PLP.PLP>
-51.6265

> <Gold.PLP.part.hbond>
-2.4210

> <Gold.PLP.part.metal>
0.0000

> <Gold.PLP.part.buried>
-5.4533

> <Gold.PLP.part.nonpolar>
-44.9949

> <Gold.PLP.part.repulsive>
0.4718

> <Gold.PLP.ligand.clash>
0.0000

> <Gold.PLP.ligand.torsion>
3.5198

> <Gold.PLP.Chemscore.Hbond>
1.0000

> <Gold.PLP.Chemscore.CHOScore>
0.0000

> <Gold.PLP.Chemscore.Metal>
0.0000

> <Gold.Chemscore.Hbonds>
donor molecule, donor type, donor heavy atom, donor atom, acceptor molecule, acceptor atom, score
      L1  H    35    61       P1  7948  1.00

> <Gold.PLP.Chemscore.Internal.Correction>
4.1355

> <Gold.Rescore>
     Score         DG    S(hbond)    S(metal)    S(lipo)     H(rot)  DE(clash)    DE(int)     intcor
      8.15     -19.68       1.00        0.00     148.17       2.52       0.83      10.69       ----

> <Gold.Chemscore.Fitness>
8.1496

> <Gold.Chemscore.DG>
-19.6780

> <Gold.Chemscore.ZeroCoef>
-5.4800

> <Gold.Chemscore.Hbond>
0.9955

> <Gold.Chemscore.Metal>
0.0000

> <Gold.Chemscore.Lipo>
148.1735

> <Gold.Chemscore.Internal_Hbond>
0.0000

> <Gold.Chemscore.DEClash>
0.8344

> <Gold.Chemscore.DEInternal>
10.6939

> <Gold.Chemscore.Rot>
2.5247

> <Gold.Chemscore.Internal.Correction>
   9.000000E+99

> <Gold.Chemscore.Hbonds>
donor molecule, donor type, donor heavy atom, donor atom, acceptor molecule, acceptor atom, score
      L1  H    35    61       P1  7948  1.00

> <Gold.Chemscore.Hbond.Weighted>
-3.3249

> <Gold.Chemscore.Metal.Weighted>
-0.0000

> <Gold.Chemscore.Lipo.Weighted>
-17.3363

> <Gold.Chemscore.Internal_Hbond.Weighted>
0.0000

> <Gold.Chemscore.DEClash.Weighted>
0.8344

> <Gold.Chemscore.DEInternal.Weighted>
10.6939

> <Gold.Chemscore.Rot.Weighted>
6.4633

> <Gold.Chemscore.Internal.Correction.Weighted>
   9.000000E+99

> <Gold.Protein.RotatedTorsions>
[ 6907 6896 6895 6894 ] final  -11.78 input  -60.11 | X-H torsion
[ 7974 7965 7964 7962 ] final  -69.94 input  175.53 | X-H torsion
[ 8008 7997 7996 7995 ] final  -92.56 input   59.86 | X-H torsion
[ 10167 10162 10161 10158 ] final -158.05 input  -65.29 | X-H torsion
[ 10718 10713 10712 10709 ] final   29.71 input   66.30 | X-H torsion
[ 10763 10752 10751 10750 ] final -136.85 input  -60.55 | X-H torsion
[ 11005 11000 10999 10996 ] final  -52.10 input  -57.11 | X-H torsion

> <Gold.Protein.ActiveResidues>
 VAL166  LYS551  ARG553  GLY616  TRP617  ASP618  TYR619  PRO620  LYS621  CYS622 
 ASP623  PHE694  ASN695  SER759  ASP760  ASP761  ALA762  ILE779  LEU786  VAL792 
 PHE793  MET794  SER795  GLU796  ALA797  LYS798  CYS799  TRP800  GLU811  SER814 

> <Gold.Protein.RotatedAtoms>
  151.3808  135.0939  159.9495 H   0  0  0  0  0  0  0  0  0  0  0  0  # atno 6907 bound_to 6896
  152.5108  133.9073  159.7481 H   0  0  0  0  0  0  0  0  0  0  0  0  # atno 6908 bound_to 6896
  150.9506  133.6498  159.2801 H   0  0  0  0  0  0  0  0  0  0  0  0  # atno 6909 bound_to 6896
  145.6973  140.9130  143.0749 H   0  0  0  0  0  0  0  0  0  0  0  0  # atno 7974 bound_to 7965
  154.7247  140.0508  157.0671 H   0  0  0  0  0  0  0  0  0  0  0  0  # atno 8008 bound_to 7997
  155.0381  140.3165  155.4715 H   0  0  0  0  0  0  0  0  0  0  0  0  # atno 8009 bound_to 7997
  156.2826  140.2138  156.5504 H   0  0  0  0  0  0  0  0  0  0  0  0  # atno 8010 bound_to 7997
  139.6722  143.9725  152.2290 H   0  0  0  0  0  0  0  0  0  0  0  0  # atno 10167 bound_to 10162
  157.2502  130.7111  149.6401 H   0  0  0  0  0  0  0  0  0  0  0  0  # atno 10718 bound_to 10713
  154.8675  135.3660  154.5128 H   0  0  0  0  0  0  0  0  0  0  0  0  # atno 10763 bound_to 10752
  153.5762  135.7019  153.5488 H   0  0  0  0  0  0  0  0  0  0  0  0  # atno 10764 bound_to 10752
  153.3498  135.4075  155.1599 H   0  0  0  0  0  0  0  0  0  0  0  0  # atno 10765 bound_to 10752
  141.0906  133.6633  156.3974 H   0  0  0  0  0  0  0  0  0  0  0  0  # atno 11005 bound_to 11000
  144.6979  139.8901  143.7452 LP  0  0  0  0  0  0  0  0  0  0  0  0  # atno 17320 bound_to 7965
  146.0829  139.3817  143.0453 LP  0  0  0  0  0  0  0  0  0  0  0  0  # atno 17321 bound_to 7965
  139.9492  144.6631  150.8188 LP  0  0  0  0  0  0  0  0  0  0  0  0  # atno 17342 bound_to 10162
  140.7622  143.3193  151.2659 LP  0  0  0  0  0  0  0  0  0  0  0  0  # atno 17343 bound_to 10162
  155.9666  130.4430  150.5404 LP  0  0  0  0  0  0  0  0  0  0  0  0  # atno 17370 bound_to 10713
  157.3286  131.0695  151.1878 LP  0  0  0  0  0  0  0  0  0  0  0  0  # atno 17371 bound_to 10713
  140.5260  134.6258  157.5334 LP  0  0  0  0  0  0  0  0  0  0  0  0  # atno 17394 bound_to 11000
  139.9731  134.7259  156.0002 LP  0  0  0  0  0  0  0  0  0  0  0  0  # atno 17395 bound_to 11000

$$$$
