AV-unprocessed.smi:3231|AV-procd|sdf|12335|dock3
  -GOLD-   2272018193D 1   1.00000     0.00000
 Structure written by MMmdl.
 42 43  0  0  0  0  0  0  0  0  3 V2000
  146.9360  140.4016  153.1248 O   0  0  0  0  0  0  0  0  0  0  0  0
  147.3494  139.0589  152.9568 C   0  0  2  0  0  0  0  0  0  0  0  0
  146.2302  138.3084  152.2121 C   0  0  0  0  0  0  0  0  0  0  0  0
  146.5508  136.8748  152.0543 N   0  3  0  0  0  0  0  0  0  0  0  0
  145.7295  136.1820  151.0428 C   0  0  0  0  0  0  0  0  0  0  0  0
  144.9226  135.0398  151.6774 C   0  0  0  0  0  0  0  0  0  0  0  0
  145.0713  133.8002  150.9397 N   0  0  0  0  0  0  0  0  0  0  0  0
  144.0875  132.9890  150.4137 C   0  0  0  0  0  0  0  0  0  0  0  0
  144.7109  131.9331  149.8128 C   0  0  0  0  0  0  0  0  0  0  0  0
  146.0940  132.1887  150.0293 C   0  0  0  0  0  0  0  0  0  0  0  0
  146.3063  133.3067  150.7050 N   0  0  0  0  0  0  0  0  0  0  0  0
  147.6157  138.4424  154.3478 C   0  0  0  0  0  0  0  0  0  0  0  0
  148.8970  137.6927  154.4292 N   0  3  0  0  0  0  0  0  0  0  0  0
  150.0608  138.5926  154.6171 C   0  0  0  0  0  0  0  0  0  0  0  0
  151.3713  137.7875  154.6435 C   0  0  0  0  0  0  0  0  0  0  0  0
  151.3070  136.8084  155.6722 O   0  0  0  0  0  0  0  0  0  0  0  0
  150.2515  135.8806  155.4571 C   0  0  0  0  0  0  0  0  0  0  0  0
  148.9025  136.6213  155.4571 C   0  0  0  0  0  0  0  0  0  0  0  0
  147.6978  140.9448  153.2597 H   0  0  0  0  0  0  0  0  0  0  0  0
  148.2521  139.0382  152.3471 H   0  0  0  0  0  0  0  0  0  0  0  0
  145.2962  138.3894  152.7699 H   0  0  0  0  0  0  0  0  0  0  0  0
  146.0558  138.7577  151.2329 H   0  0  0  0  0  0  0  0  0  0  0  0
  147.5212  136.7964  151.7838 H   0  0  0  0  0  0  0  0  0  0  0  0
  145.0551  136.8985  150.5717 H   0  0  0  0  0  0  0  0  0  0  0  0
  146.3834  135.7915  150.2616 H   0  0  0  0  0  0  0  0  0  0  0  0
  145.2431  134.8693  152.7063 H   0  0  0  0  0  0  0  0  0  0  0  0
  143.8630  135.2971  151.7136 H   0  0  0  0  0  0  0  0  0  0  0  0
  143.0379  133.2267  150.5090 H   0  0  0  0  0  0  0  0  0  0  0  0
  144.2495  131.1031  149.2984 H   0  0  0  0  0  0  0  0  0  0  0  0
  146.9438  131.5991  149.7183 H   0  0  0  0  0  0  0  0  0  0  0  0
  147.6201  139.2463  155.0861 H   0  0  0  0  0  0  0  0  0  0  0  0
  146.7982  137.7773  154.6311 H   0  0  0  0  0  0  0  0  0  0  0  0
  150.0993  139.3235  153.8086 H   0  0  0  0  0  0  0  0  0  0  0  0
  149.9470  139.1500  155.5484 H   0  0  0  0  0  0  0  0  0  0  0  0
  151.5566  137.3106  153.6796 H   0  0  0  0  0  0  0  0  0  0  0  0
  152.2151  138.4496  154.8381 H   0  0  0  0  0  0  0  0  0  0  0  0
  150.4045  135.3480  154.5170 H   0  0  0  0  0  0  0  0  0  0  0  0
  150.2704  135.1344  156.2516 H   0  0  0  0  0  0  0  0  0  0  0  0
  148.7186  137.0556  156.4411 H   0  0  0  0  0  0  0  0  0  0  0  0
  148.1045  135.9041  155.2700 H   0  0  0  0  0  0  0  0  0  0  0  0
  146.4252  136.4136  152.9439 H   0  0  0  0  0  0  0  0  0  0  0  0
  149.0318  137.2464  153.5332 H   0  0  0  0  0  0  0  0  0  0  0  0
  1  2  1  0  0  0  0
  1 19  1  0  0  0  0
  2  3  1  0  0  0  0
  2 12  1  0  0  0  0
  2 20  1  0  0  0  0
  3  4  1  0  0  0  0
  3 21  1  0  0  0  0
  3 22  1  0  0  0  0
  4  5  1  0  0  0  0
  4 23  1  0  0  0  0
  4 41  1  0  0  0  0
  5  6  1  0  0  0  0
  5 24  1  0  0  0  0
  5 25  1  0  0  0  0
  6  7  1  0  0  0  0
  6 26  1  0  0  0  0
  6 27  1  0  0  0  0
  7 11  1  0  0  0  0
  7  8  1  0  0  0  0
  8  9  2  0  0  0  0
  8 28  1  0  0  0  0
  9 10  1  0  0  0  0
  9 29  1  0  0  0  0
 10 11  2  0  0  0  0
 10 30  1  0  0  0  0
 12 13  1  0  0  0  0
 12 31  1  0  0  0  0
 12 32  1  0  0  0  0
 13 18  1  0  0  0  0
 13 14  1  0  0  0  0
 13 42  1  0  0  0  0
 14 15  1  0  0  0  0
 14 33  1  0  0  0  0
 14 34  1  0  0  0  0
 15 16  1  0  0  0  0
 15 35  1  0  0  0  0
 15 36  1  0  0  0  0
 16 17  1  0  0  0  0
 17 18  1  0  0  0  0
 17 37  1  0  0  0  0
 17 38  1  0  0  0  0
 18 39  1  0  0  0  0
 18 40  1  0  0  0  0
M  CHG  1   4   1
M  CHG  1  13   1
M  END
> <s_m_source_file>
AV-unprocessed.smi

> <i_m_source_file_index>
3231

> <i_lp_mmshare_version>
43012

> <i_f3d_flags>
0

> <s_epik_input>
W0NIMl0xW0NIMl1PW0NIMl1bQ0gyXU4xW0NIMl1bQ0BIXShbT0hdKVtDSDJdW05IXVtDSDJdW0NIMl1uMltjSF1bY0hdW2NIXW4y

> <s_epik_cmdline>
J2VwaWtfcHl0aG9uJywgJy1waCcsICc3LjAnLCAnLXRuJywgJzgnLCAnLW1hJywgJzIwMCcsICctbWV0YWxfYmluZGluZycsICctaW1hZScsICc8aW5maWxlLm1hZT4nLCAnLW9tYWUnLCAnPG91dGZpbGUubWFlPic=

> <r_lp_tautomer_probability>
1

> <r_epik_Ionization_Penalty>
2.09881

> <r_epik_Ionization_Penalty_Charging>
2.09628

> <r_epik_Ionization_Penalty_Neutral>
0.0025303

> <r_epik_State_Penalty>
1.58657

> <r_epik_Charging_Adjusted_Penalty>
3.68285

> <i_epik_Tot_Q>
2

> <i_epik_Tot_abs_Q>
2

> <r_epik_Metal_State_Penalty>
1.58685

> <b_epik_Metal_Only>
0

> <s_lp_Force_Field>
OPLS_2005

> <r_lp_Energy>
26.6316

> <b_lp_Chiralities_Consistent>
1

> <s_lp_Variant>
AV-unprocessed.smi:3231-5

> <Gold.Version>
5.8.1

> <Gold.Id.Protein>
6NUR|6NUR_protein|mol2

> <Gold.PLP.Fitness>
51.8427

> <Gold.PLP.PLP>
-34.0698

> <Gold.PLP.part.hbond>
-3.0369

> <Gold.PLP.part.metal>
0.0000

> <Gold.PLP.part.buried>
-4.5483

> <Gold.PLP.part.nonpolar>
-28.8201

> <Gold.PLP.part.repulsive>
0.3441

> <Gold.PLP.ligand.clash>
0.0000

> <Gold.PLP.ligand.torsion>
1.7355

> <Gold.PLP.Chemscore.Hbond>
5.0000

> <Gold.PLP.Chemscore.CHOScore>
2.0000

> <Gold.PLP.Chemscore.Metal>
0.0000

> <Gold.Chemscore.Hbonds>
donor molecule, donor type, donor heavy atom, donor atom, acceptor molecule, acceptor atom, score
      L1  H     4    23       P1  7948  1.92
      L1  H    13    42       P1  7948  2.00
      P1  H 10752 10763       L1    16  0.25
      L1  C     8    28       P1 10186  0.97
      L1  C    10    30       P1 10747  1.00

> <Gold.PLP.Chemscore.Internal.Correction>
0.2439

> <Gold.Rescore>
     Score         DG    S(hbond)    S(metal)    S(lipo)     H(rot)  DE(clash)    DE(int)     intcor
     14.59     -16.44       2.45        0.00      88.22       2.94       0.09       1.77       ----

> <Gold.Chemscore.Fitness>
14.5857

> <Gold.Chemscore.DG>
-16.4408

> <Gold.Chemscore.ZeroCoef>
-5.4800

> <Gold.Chemscore.Hbond>
2.4474

> <Gold.Chemscore.Metal>
0.0000

> <Gold.Chemscore.Lipo>
88.2241

> <Gold.Chemscore.Internal_Hbond>
0.0000

> <Gold.Chemscore.DEClash>
0.0875

> <Gold.Chemscore.DEInternal>
1.7676

> <Gold.Chemscore.Rot>
2.9437

> <Gold.Chemscore.Internal.Correction>
   9.000000E+99

> <Gold.Chemscore.Hbonds>
donor molecule, donor type, donor heavy atom, donor atom, acceptor molecule, acceptor atom, score
      L1  H     4    23       P1  7948  0.90
      L1  H    13    42       P1  7948  0.99
      P1  H 10752 10763       L1    16  0.01

> <Gold.Chemscore.Hbond.Weighted>
-8.1744

> <Gold.Chemscore.Metal.Weighted>
-0.0000

> <Gold.Chemscore.Lipo.Weighted>
-10.3222

> <Gold.Chemscore.Internal_Hbond.Weighted>
0.0000

> <Gold.Chemscore.DEClash.Weighted>
0.0875

> <Gold.Chemscore.DEInternal.Weighted>
1.7676

> <Gold.Chemscore.Rot.Weighted>
7.5359

> <Gold.Chemscore.Internal.Correction.Weighted>
   9.000000E+99

> <Gold.Protein.RotatedTorsions>
[ 6907 6896 6895 6894 ] final  -26.79 input  -60.11 | X-H torsion
[ 7974 7965 7964 7962 ] final -172.65 input  175.53 | X-H torsion
[ 8008 7997 7996 7995 ] final  146.48 input   59.86 | X-H torsion
[ 10167 10162 10161 10158 ] final   64.85 input  -65.29 | X-H torsion
[ 10718 10713 10712 10709 ] final  -38.65 input   66.30 | X-H torsion
[ 10763 10752 10751 10750 ] final   80.10 input  -60.55 | X-H torsion
[ 11005 11000 10999 10996 ] final -164.55 input  -57.11 | X-H torsion

> <Gold.Protein.ActiveResidues>
 VAL166  LYS551  ARG553  GLY616  TRP617  ASP618  TYR619  PRO620  LYS621  CYS622 
 ASP623  PHE694  ASN695  SER759  ASP760  ASP761  ALA762  ILE779  LEU786  VAL792 
 PHE793  MET794  SER795  GLU796  ALA797  LYS798  CYS799  TRP800  GLU811  SER814 

> <Gold.Protein.RotatedAtoms>
  151.1560  135.0250  159.8688 H   0  0  0  0  0  0  0  0  0  0  0  0  # atno 6907 bound_to 6896
  152.5452  134.1334  159.8459 H   0  0  0  0  0  0  0  0  0  0  0  0  # atno 6908 bound_to 6896
  151.1424  133.4916  159.2629 H   0  0  0  0  0  0  0  0  0  0  0  0  # atno 6909 bound_to 6896
  144.7144  140.1741  143.6364 H   0  0  0  0  0  0  0  0  0  0  0  0  # atno 7974 bound_to 7965
  156.2854  140.2181  156.5383 H   0  0  0  0  0  0  0  0  0  0  0  0  # atno 8008 bound_to 7997
  154.7391  140.0489  157.0817 H   0  0  0  0  0  0  0  0  0  0  0  0  # atno 8009 bound_to 7997
  155.0254  140.3129  155.4781 H   0  0  0  0  0  0  0  0  0  0  0  0  # atno 8010 bound_to 7997
  140.1177  144.4760  150.6939 H   0  0  0  0  0  0  0  0  0  0  0  0  # atno 10167 bound_to 10162
  156.3013  130.4240  149.8140 H   0  0  0  0  0  0  0  0  0  0  0  0  # atno 10718 bound_to 10713
  153.1006  135.4815  154.8859 H   0  0  0  0  0  0  0  0  0  0  0  0  # atno 10763 bound_to 10752
  154.7374  135.3074  154.8790 H   0  0  0  0  0  0  0  0  0  0  0  0  # atno 10764 bound_to 10752
  153.9408  135.6834  153.4798 H   0  0  0  0  0  0  0  0  0  0  0  0  # atno 10765 bound_to 10752
  140.5856  134.5097  157.5185 H   0  0  0  0  0  0  0  0  0  0  0  0  # atno 11005 bound_to 11000
  145.8917  139.2379  143.1546 LP  0  0  0  0  0  0  0  0  0  0  0  0  # atno 17320 bound_to 7965
  145.9897  140.8613  143.0072 LP  0  0  0  0  0  0  0  0  0  0  0  0  # atno 17321 bound_to 7965
  140.6890  143.2365  151.5183 LP  0  0  0  0  0  0  0  0  0  0  0  0  # atno 17342 bound_to 10162
  139.5585  144.2215  152.1653 LP  0  0  0  0  0  0  0  0  0  0  0  0  # atno 17343 bound_to 10162
  156.5517  130.8345  151.3301 LP  0  0  0  0  0  0  0  0  0  0  0  0  # atno 17370 bound_to 10713
  157.7368  130.9786  150.2160 LP  0  0  0  0  0  0  0  0  0  0  0  0  # atno 17371 bound_to 10713
  139.9297  134.7987  156.0966 LP  0  0  0  0  0  0  0  0  0  0  0  0  # atno 17394 bound_to 11000
  141.0968  133.6692  156.2663 LP  0  0  0  0  0  0  0  0  0  0  0  0  # atno 17395 bound_to 11000

$$$$
