AV-unprocessed.smi:1815|AV-procd|sdf|7355|dock8
  -GOLD-   22720 9 13D 1   1.00000     0.00000
 Structure written by MMmdl.
 40 41  0  0  0  0  0  0  0  0  2 V2000
  146.7339  133.4414  154.6339 C   0  0  0  0  0  0  0  0  0  0  0  0
  146.7149  134.2095  153.3078 C   0  0  2  0  0  0  0  0  0  0  0  0
  146.0658  135.5988  153.4509 C   0  0  0  0  0  0  0  0  0  0  0  0
  145.9967  136.2808  152.1367 N   0  3  2  0  0  0  0  0  0  0  0  0
  145.4340  137.6502  152.2420 C   0  0  0  0  0  0  0  0  0  0  0  0
  146.4837  138.7425  151.9599 C   0  0  0  0  0  0  0  0  0  0  0  0
  147.7988  138.3656  152.4658 N   0  0  0  0  0  0  0  0  0  0  0  0
  148.4639  139.0211  153.4282 C   0  0  0  0  0  0  0  0  0  0  0  0
  148.0258  140.0281  153.9855 O   0  0  0  0  0  0  0  0  0  0  0  0
  149.6474  138.4391  153.6890 N   0  0  0  0  0  0  0  0  0  0  0  0
  150.6349  138.8421  154.6261 C   0  0  0  0  0  0  0  0  0  0  0  0
  150.8123  140.1018  155.0412 N   0  0  0  0  0  0  0  0  0  0  0  0
  151.8567  140.2077  155.9634 C   0  0  0  0  0  0  0  0  0  0  0  0
  152.4684  139.0104  156.2397 C   0  0  0  0  0  0  0  0  0  0  0  0
  151.7521  137.6941  155.3492 S   0  0  0  0  0  0  0  0  0  0  0  0
  145.2990  135.4234  151.1472 C   0  0  0  0  0  0  0  0  0  0  0  0
  145.9677  134.0377  151.0671 C   0  0  2  0  0  0  0  0  0  0  0  0
  145.2275  133.0930  150.1139 C   0  0  0  0  0  0  0  0  0  0  0  0
  145.9731  133.4470  152.3622 O   0  0  0  0  0  0  0  0  0  0  0  0
  147.3049  133.9793  155.3911 H   0  0  0  0  0  0  0  0  0  0  0  0
  147.1917  132.4598  154.5089 H   0  0  0  0  0  0  0  0  0  0  0  0
  145.7247  133.2917  155.0188 H   0  0  0  0  0  0  0  0  0  0  0  0
  147.7424  134.3174  152.9556 H   0  0  0  0  0  0  0  0  0  0  0  0
  145.0603  135.5064  153.8654 H   0  0  0  0  0  0  0  0  0  0  0  0
  146.6465  136.2031  154.1491 H   0  0  0  0  0  0  0  0  0  0  0  0
  144.5786  137.7527  151.5723 H   0  0  0  0  0  0  0  0  0  0  0  0
  145.0509  137.7909  153.2538 H   0  0  0  0  0  0  0  0  0  0  0  0
  146.5425  138.9503  150.8900 H   0  0  0  0  0  0  0  0  0  0  0  0
  146.2088  139.6788  152.4441 H   0  0  0  0  0  0  0  0  0  0  0  0
  148.2283  137.5465  152.0605 H   0  0  0  0  0  0  0  0  0  0  0  0
  149.8712  137.6133  153.1539 H   0  0  0  0  0  0  0  0  0  0  0  0
  152.0981  141.1770  156.3740 H   0  0  0  0  0  0  0  0  0  0  0  0
  153.2936  138.8240  156.9110 H   0  0  0  0  0  0  0  0  0  0  0  0
  144.2502  135.3196  151.4310 H   0  0  0  0  0  0  0  0  0  0  0  0
  145.3192  135.8876  150.1619 H   0  0  0  0  0  0  0  0  0  0  0  0
  146.9961  134.1455  150.7176 H   0  0  0  0  0  0  0  0  0  0  0  0
  145.2014  133.4976  149.1017 H   0  0  0  0  0  0  0  0  0  0  0  0
  144.1985  132.9319  150.4367 H   0  0  0  0  0  0  0  0  0  0  0  0
  145.7186  132.1207  150.0699 H   0  0  0  0  0  0  0  0  0  0  0  0
  146.9507  136.3841  151.8212 H   0  0  0  0  0  0  0  0  0  0  0  0
  1  2  1  0  0  0  0
  1 20  1  0  0  0  0
  1 21  1  0  0  0  0
  1 22  1  0  0  0  0
  2 19  1  0  0  0  0
  2  3  1  0  0  0  0
  2 23  1  0  0  0  0
  3  4  1  0  0  0  0
  3 24  1  0  0  0  0
  3 25  1  0  0  0  0
  4  5  1  0  0  0  0
  4 16  1  0  0  0  0
  4 40  1  0  0  0  0
  5  6  1  0  0  0  0
  5 26  1  0  0  0  0
  5 27  1  0  0  0  0
  6  7  1  0  0  0  0
  6 28  1  0  0  0  0
  6 29  1  0  0  0  0
  7  8  1  0  0  0  0
  7 30  1  0  0  0  0
  8  9  2  0  0  0  0
  8 10  1  0  0  0  0
 10 11  1  0  0  0  0
 10 31  1  0  0  0  0
 11 15  1  0  0  0  0
 11 12  2  0  0  0  0
 12 13  1  0  0  0  0
 13 14  2  0  0  0  0
 13 32  1  0  0  0  0
 14 15  1  0  0  0  0
 14 33  1  0  0  0  0
 16 17  1  0  0  0  0
 16 34  1  0  0  0  0
 16 35  1  0  0  0  0
 17 18  1  0  0  0  0
 17 19  1  0  0  0  0
 17 36  1  0  0  0  0
 18 37  1  0  0  0  0
 18 38  1  0  0  0  0
 18 39  1  0  0  0  0
M  CHG  1   4   1
M  END
> <s_m_source_file>
AV-unprocessed.smi

> <i_m_source_file_index>
1815

> <i_lp_mmshare_version>
43012

> <i_f3d_flags>
0

> <s_epik_input>
W0NIM11bQ0BASF0xW0NIMl1OKFtDSDJdW0NASF0oTzEpW0NIM10pW0NIMl1bQ0gyXVtOSF1DKD1PKVtOSF1jMm5bY0hdW2NIXXMy

> <s_epik_cmdline>
J2VwaWtfcHl0aG9uJywgJy1waCcsICc3LjAnLCAnLXRuJywgJzgnLCAnLW1hJywgJzIwMCcsICctbWV0YWxfYmluZGluZycsICctaW1hZScsICc8aW5maWxlLm1hZT4nLCAnLW9tYWUnLCAnPG91dGZpbGUubWFlPic=

> <r_lp_tautomer_probability>
0.999

> <r_epik_Ionization_Penalty>
0.695838

> <r_epik_Ionization_Penalty_Charging>
0.695697

> <r_epik_Ionization_Penalty_Neutral>
0.000141198

> <r_epik_State_Penalty>
0.717972

> <r_epik_Charging_Adjusted_Penalty>
1.41367

> <i_epik_Tot_Q>
1

> <i_epik_Tot_abs_Q>
1

> <r_epik_Metal_State_Penalty>
0.756405

> <b_epik_Metal_Only>
0

> <s_lp_Force_Field>
OPLS_2005

> <r_lp_Energy>
12.0644

> <b_lp_Chiralities_Consistent>
1

> <s_lp_Variant>
AV-unprocessed.smi:1815-6

> <Gold.Version>
5.8.1

> <Gold.Id.Protein>
6NUR|6NUR_protein|mol2

> <Gold.PLP.Fitness>
42.0277

> <Gold.PLP.PLP>
-29.9396

> <Gold.PLP.part.hbond>
-5.8023

> <Gold.PLP.part.metal>
0.0000

> <Gold.PLP.part.buried>
1.3062

> <Gold.PLP.part.nonpolar>
-26.5795

> <Gold.PLP.part.repulsive>
0.4729

> <Gold.PLP.ligand.clash>
0.0000

> <Gold.PLP.ligand.torsion>
1.0191

> <Gold.PLP.Chemscore.Hbond>
4.7050

> <Gold.PLP.Chemscore.CHOScore>
0.0000

> <Gold.PLP.Chemscore.Metal>
0.0000

> <Gold.Chemscore.Hbonds>
donor molecule, donor type, donor heavy atom, donor atom, acceptor molecule, acceptor atom, score
      L1  H     4    40       P1  7948  2.00
      L1  H     7    30       P1  7948  0.89
      L1  H    10    31       P1  7948  0.77
      P1  H  7989  7998       L1    12  1.00

> <Gold.PLP.Chemscore.Internal.Correction>
0.0115

> <Gold.Rescore>
     Score         DG    S(hbond)    S(metal)    S(lipo)     H(rot)  DE(clash)    DE(int)     intcor
     14.38     -16.72       2.36        0.00      64.41       1.64       0.19       2.15       ----

> <Gold.Chemscore.Fitness>
14.3753

> <Gold.Chemscore.DG>
-16.7182

> <Gold.Chemscore.ZeroCoef>
-5.4800

> <Gold.Chemscore.Hbond>
2.3643

> <Gold.Chemscore.Metal>
0.0000

> <Gold.Chemscore.Lipo>
64.4098

> <Gold.Chemscore.Internal_Hbond>
0.0000

> <Gold.Chemscore.DEClash>
0.1929

> <Gold.Chemscore.DEInternal>
2.1501

> <Gold.Chemscore.Rot>
1.6385

> <Gold.Chemscore.Internal.Correction>
   9.000000E+99

> <Gold.Chemscore.Hbonds>
donor molecule, donor type, donor heavy atom, donor atom, acceptor molecule, acceptor atom, score
      L1  H     4    40       P1  7948  0.97
      L1  H     7    30       P1  7948  0.86
      L1  H    10    31       P1  7948  0.32
      P1  H  7989  7998       L1    12  0.08

> <Gold.Chemscore.Hbond.Weighted>
-7.8968

> <Gold.Chemscore.Metal.Weighted>
-0.0000

> <Gold.Chemscore.Lipo.Weighted>
-7.5359

> <Gold.Chemscore.Internal_Hbond.Weighted>
0.0000

> <Gold.Chemscore.DEClash.Weighted>
0.1929

> <Gold.Chemscore.DEInternal.Weighted>
2.1501

> <Gold.Chemscore.Rot.Weighted>
4.1945

> <Gold.Chemscore.Internal.Correction.Weighted>
   9.000000E+99

> <Gold.Protein.RotatedTorsions>
[ 6907 6896 6895 6894 ] final   64.09 input  -60.11 | X-H torsion
[ 7974 7965 7964 7962 ] final   47.92 input  175.53 | X-H torsion
[ 8008 7997 7996 7995 ] final  -12.93 input   59.86 | X-H torsion
[ 10167 10162 10161 10158 ] final   60.79 input  -65.29 | X-H torsion
[ 10718 10713 10712 10709 ] final  162.37 input   66.30 | X-H torsion
[ 10763 10752 10751 10750 ] final   84.46 input  -60.55 | X-H torsion
[ 11005 11000 10999 10996 ] final    5.43 input  -57.11 | X-H torsion

> <Gold.Protein.ActiveResidues>
 VAL166  LYS551  ARG553  GLY616  TRP617  ASP618  TYR619  PRO620  LYS621  CYS622 
 ASP623  PHE694  ASN695  SER759  ASP760  ASP761  ALA762  ILE779  LEU786  VAL792 
 PHE793  MET794  SER795  GLU796  ALA797  LYS798  CYS799  TRP800  GLU811  SER814 

> <Gold.Protein.RotatedAtoms>
  152.4305  134.5787  159.9941 H   0  0  0  0  0  0  0  0  0  0  0  0  # atno 6907 bound_to 6896
  151.5912  133.3360  159.3036 H   0  0  0  0  0  0  0  0  0  0  0  0  # atno 6908 bound_to 6896
  150.8197  134.7434  159.6826 H   0  0  0  0  0  0  0  0  0  0  0  0  # atno 6909 bound_to 6896
  146.0252  139.4698  142.9872 H   0  0  0  0  0  0  0  0  0  0  0  0  # atno 7974 bound_to 7965
  154.5335  140.2263  155.8762 H   0  0  0  0  0  0  0  0  0  0  0  0  # atno 8008 bound_to 7997
  156.1788  140.3105  155.9073 H   0  0  0  0  0  0  0  0  0  0  0  0  # atno 8009 bound_to 7997
  155.3402  140.0450  157.3035 H   0  0  0  0  0  0  0  0  0  0  0  0  # atno 8010 bound_to 7997
  140.1617  144.4363  150.6706 H   0  0  0  0  0  0  0  0  0  0  0  0  # atno 10167 bound_to 10162
  157.1235  131.0498  151.2404 H   0  0  0  0  0  0  0  0  0  0  0  0  # atno 10718 bound_to 10713
  153.1384  135.4653  154.9458 H   0  0  0  0  0  0  0  0  0  0  0  0  # atno 10763 bound_to 10752
  154.7726  135.3163  154.8161 H   0  0  0  0  0  0  0  0  0  0  0  0  # atno 10764 bound_to 10752
  153.8689  135.6905  153.4830 H   0  0  0  0  0  0  0  0  0  0  0  0  # atno 10765 bound_to 10752
  140.5708  134.0104  155.8008 H   0  0  0  0  0  0  0  0  0  0  0  0  # atno 11005 bound_to 11000
  145.7129  141.0100  143.1443 LP  0  0  0  0  0  0  0  0  0  0  0  0  # atno 17320 bound_to 7965
  144.7006  139.8779  143.7445 LP  0  0  0  0  0  0  0  0  0  0  0  0  # atno 17321 bound_to 7965
  140.6638  143.2261  151.5791 LP  0  0  0  0  0  0  0  0  0  0  0  0  # atno 17342 bound_to 10162
  139.5378  144.2732  152.1288 LP  0  0  0  0  0  0  0  0  0  0  0  0  # atno 17343 bound_to 10162
  157.4455  130.7568  149.7106 LP  0  0  0  0  0  0  0  0  0  0  0  0  # atno 17370 bound_to 10713
  155.9823  130.4011  150.3423 LP  0  0  0  0  0  0  0  0  0  0  0  0  # atno 17371 bound_to 10713
  141.1057  133.9697  157.3001 LP  0  0  0  0  0  0  0  0  0  0  0  0  # atno 17394 bound_to 11000
  139.9363  135.0196  156.8565 LP  0  0  0  0  0  0  0  0  0  0  0  0  # atno 17395 bound_to 11000

$$$$
