AV-unprocessed.smi:2107|AV-procd|sdf|8603|dock5
  -GOLD-   2272011343D 1   1.00000     0.00000
 Structure written by MMmdl.
 46 47  0  0  0  0  0  0  0  0  3 V2000
  146.0363  134.0169  162.5317 C   0  0  0  0  0  0  0  0  0  0  0  0
  147.5128  134.4228  162.4330 C   0  0  0  0  0  0  0  0  0  0  0  0
  147.6505  135.7781  161.8754 N   0  0  0  0  0  0  0  0  0  0  0  0
  147.5040  136.8997  162.8189 C   0  0  0  0  0  0  0  0  0  0  0  0
  146.1667  137.6252  162.6194 C   0  0  0  0  0  0  0  0  0  0  0  0
  147.4865  136.0498  160.1620 S   0  0  0  0  0  0  0  0  0  0  0  0
  146.5561  135.0292  159.6487 O   0  0  0  0  0  0  0  0  0  0  0  0
  147.0849  137.4583  160.0290 O   0  0  0  0  0  0  0  0  0  0  0  0
  149.0414  135.8127  159.7352 N   0  5  0  0  0  0  0  0  0  0  0  0
  149.6418  136.5197  158.6111 C   0  0  0  0  0  0  0  0  0  0  0  0
  149.6589  135.6569  157.3429 C   0  0  0  0  0  0  0  0  0  0  0  0
  149.3971  134.2692  157.4708 C   0  0  0  0  0  0  0  0  0  0  0  0
  149.3868  133.4420  156.3306 C   0  0  0  0  0  0  0  0  0  0  0  0
  149.6395  134.0122  155.0713 C   0  0  0  0  0  0  0  0  0  0  0  0
  149.8893  135.3337  154.9738 N   0  3  0  0  0  0  0  0  0  0  0  0
  149.9143  136.1805  156.0344 C   0  0  0  0  0  0  0  0  0  0  0  0
  150.2162  137.5309  155.7604 N   0  0  0  0  0  0  0  0  0  0  0  0
  151.5677  137.7283  155.2510 C   0  0  0  0  0  0  0  0  0  0  0  0
  151.8758  139.2309  155.1330 C   0  0  0  0  0  0  0  0  0  0  0  0
  150.8776  139.8652  154.3376 O   0  0  0  0  0  0  0  0  0  0  0  0
  149.5777  139.7346  154.9064 C   0  0  0  0  0  0  0  0  0  0  0  0
  149.2060  138.2450  154.9912 C   0  0  0  0  0  0  0  0  0  0  0  0
  145.9399  133.0048  162.9243 H   0  0  0  0  0  0  0  0  0  0  0  0
  145.5548  134.0411  161.5538 H   0  0  0  0  0  0  0  0  0  0  0  0
  145.4793  134.6805  163.1928 H   0  0  0  0  0  0  0  0  0  0  0  0
  147.9833  134.3894  163.4161 H   0  0  0  0  0  0  0  0  0  0  0  0
  148.0487  133.7040  161.8122 H   0  0  0  0  0  0  0  0  0  0  0  0
  147.5587  136.5251  163.8417 H   0  0  0  0  0  0  0  0  0  0  0  0
  148.3405  137.5889  162.6996 H   0  0  0  0  0  0  0  0  0  0  0  0
  146.0507  138.4268  163.3488 H   0  0  0  0  0  0  0  0  0  0  0  0
  145.3270  136.9408  162.7434 H   0  0  0  0  0  0  0  0  0  0  0  0
  146.0940  138.0699  161.6270 H   0  0  0  0  0  0  0  0  0  0  0  0
  149.1136  137.4512  158.4058 H   0  0  0  0  0  0  0  0  0  0  0  0
  150.6720  136.8171  158.8066 H   0  0  0  0  0  0  0  0  0  0  0  0
  149.2008  133.8171  158.4340 H   0  0  0  0  0  0  0  0  0  0  0  0
  149.1883  132.3845  156.4239 H   0  0  0  0  0  0  0  0  0  0  0  0
  149.6534  133.4560  154.1456 H   0  0  0  0  0  0  0  0  0  0  0  0
  152.2879  137.2519  155.9174 H   0  0  0  0  0  0  0  0  0  0  0  0
  151.6650  137.2508  154.2751 H   0  0  0  0  0  0  0  0  0  0  0  0
  151.9224  139.6995  156.1168 H   0  0  0  0  0  0  0  0  0  0  0  0
  152.8499  139.3783  154.6667 H   0  0  0  0  0  0  0  0  0  0  0  0
  149.5514  140.1998  155.8936 H   0  0  0  0  0  0  0  0  0  0  0  0
  148.8602  140.2672  154.2823 H   0  0  0  0  0  0  0  0  0  0  0  0
  149.1353  137.8245  153.9874 H   0  0  0  0  0  0  0  0  0  0  0  0
  148.2306  138.1262  155.4640 H   0  0  0  0  0  0  0  0  0  0  0  0
  150.0773  135.7193  154.0485 H   0  0  0  0  0  0  0  0  0  0  0  0
  1  2  1  0  0  0  0
  1 23  1  0  0  0  0
  1 24  1  0  0  0  0
  1 25  1  0  0  0  0
  2  3  1  0  0  0  0
  2 26  1  0  0  0  0
  2 27  1  0  0  0  0
  3  4  1  0  0  0  0
  3  6  1  0  0  0  0
  4  5  1  0  0  0  0
  4 28  1  0  0  0  0
  4 29  1  0  0  0  0
  5 30  1  0  0  0  0
  5 31  1  0  0  0  0
  5 32  1  0  0  0  0
  6  7  2  0  0  0  0
  6  8  2  0  0  0  0
  6  9  1  0  0  0  0
  9 10  1  0  0  0  0
 10 11  1  0  0  0  0
 10 33  1  0  0  0  0
 10 34  1  0  0  0  0
 11 16  1  0  0  0  0
 11 12  2  0  0  0  0
 12 13  1  0  0  0  0
 12 35  1  0  0  0  0
 13 14  2  0  0  0  0
 13 36  1  0  0  0  0
 14 15  1  0  0  0  0
 14 37  1  0  0  0  0
 15 16  2  0  0  0  0
 15 46  1  0  0  0  0
 16 17  1  0  0  0  0
 17 22  1  0  0  0  0
 17 18  1  0  0  0  0
 18 19  1  0  0  0  0
 18 38  1  0  0  0  0
 18 39  1  0  0  0  0
 19 20  1  0  0  0  0
 19 40  1  0  0  0  0
 19 41  1  0  0  0  0
 20 21  1  0  0  0  0
 21 22  1  0  0  0  0
 21 42  1  0  0  0  0
 21 43  1  0  0  0  0
 22 44  1  0  0  0  0
 22 45  1  0  0  0  0
M  CHG  1   9  -1
M  CHG  1  15   1
M  END
> <s_m_source_file>
AV-unprocessed.smi

> <i_m_source_file_index>
2107

> <i_lp_mmshare_version>
43012

> <i_f3d_flags>
0

> <s_epik_input>
W0NIM11bQ0gyXU4oW0NIMl1bQ0gzXSlTKD1PKSg9TylbTkhdW0NIMl1jMVtjSF1bY0hdW2NIXW5jMU4yW0NIMl1bQ0gyXU9bQ0gyXVtDSDJdMg==

> <s_epik_cmdline>
J2VwaWtfcHl0aG9uJywgJy1waCcsICc3LjAnLCAnLXRuJywgJzgnLCAnLW1hJywgJzIwMCcsICctbWV0YWxfYmluZGluZycsICctaW1hZScsICc8aW5maWxlLm1hZT4nLCAnLW9tYWUnLCAnPG91dGZpbGUubWFlPic=

> <r_lp_tautomer_probability>
0.999994

> <r_epik_Ionization_Penalty>
2.67026

> <r_epik_Ionization_Penalty_Charging>
2.67026

> <r_epik_Ionization_Penalty_Neutral>
4.07977e-08

> <r_epik_State_Penalty>
4.05768

> <r_epik_Charging_Adjusted_Penalty>
6.72795

> <i_epik_Tot_Q>
0

> <i_epik_Tot_abs_Q>
2

> <r_epik_Metal_State_Penalty>
2.91237

> <b_epik_Metal_Only>
1

> <s_lp_Force_Field>
OPLS_2005

> <r_lp_Energy>
19.7011

> <b_lp_Chiralities_Consistent>
1

> <s_lp_Variant>
AV-unprocessed.smi:2107-4

> <Gold.Version>
5.8.1

> <Gold.Id.Protein>
6NUR|6NUR_protein|mol2

> <Gold.PLP.Fitness>
47.5230

> <Gold.PLP.PLP>
-36.8414

> <Gold.PLP.part.hbond>
-4.0000

> <Gold.PLP.part.metal>
0.0000

> <Gold.PLP.part.buried>
-4.2738

> <Gold.PLP.part.nonpolar>
-29.1451

> <Gold.PLP.part.repulsive>
0.2061

> <Gold.PLP.ligand.clash>
0.0000

> <Gold.PLP.ligand.torsion>
2.4662

> <Gold.PLP.Chemscore.Hbond>
3.9913

> <Gold.PLP.Chemscore.CHOScore>
0.0000

> <Gold.PLP.Chemscore.Metal>
0.0000

> <Gold.Chemscore.Hbonds>
donor molecule, donor type, donor heavy atom, donor atom, acceptor molecule, acceptor atom, score
      P1  H  6934  6947       L1     8  1.00
      P1  H  7989  7998       L1    20  0.94

> <Gold.PLP.Chemscore.Internal.Correction>
3.6402

> <Gold.Rescore>
     Score         DG    S(hbond)    S(metal)    S(lipo)     H(rot)  DE(clash)    DE(int)     intcor
     15.34     -19.05       2.67        0.00      77.27       1.72       0.15       3.55       ----

> <Gold.Chemscore.Fitness>
15.3396

> <Gold.Chemscore.DG>
-19.0470

> <Gold.Chemscore.ZeroCoef>
-5.4800

> <Gold.Chemscore.Hbond>
2.6702

> <Gold.Chemscore.Metal>
0.0000

> <Gold.Chemscore.Lipo>
77.2740

> <Gold.Chemscore.Internal_Hbond>
0.0000

> <Gold.Chemscore.DEClash>
0.1534

> <Gold.Chemscore.DEInternal>
3.5540

> <Gold.Chemscore.Rot>
1.7159

> <Gold.Chemscore.Internal.Correction>
   9.000000E+99

> <Gold.Chemscore.Hbonds>
donor molecule, donor type, donor heavy atom, donor atom, acceptor molecule, acceptor atom, score
      P1  H  6934  6947       L1     8  0.98
      P1  H  7989  7998       L1    20  0.45

> <Gold.Chemscore.Hbond.Weighted>
-8.9185

> <Gold.Chemscore.Metal.Weighted>
-0.0000

> <Gold.Chemscore.Lipo.Weighted>
-9.0411

> <Gold.Chemscore.Internal_Hbond.Weighted>
0.0000

> <Gold.Chemscore.DEClash.Weighted>
0.1534

> <Gold.Chemscore.DEInternal.Weighted>
3.5540

> <Gold.Chemscore.Rot.Weighted>
4.3926

> <Gold.Chemscore.Internal.Correction.Weighted>
   9.000000E+99

> <Gold.Protein.RotatedTorsions>
[ 6907 6896 6895 6894 ] final   -2.93 input  -60.11 | X-H torsion
[ 7974 7965 7964 7962 ] final  127.98 input  175.53 | X-H torsion
[ 8008 7997 7996 7995 ] final -151.62 input   59.86 | X-H torsion
[ 10167 10162 10161 10158 ] final   88.58 input  -65.29 | X-H torsion
[ 10718 10713 10712 10709 ] final  157.48 input   66.30 | X-H torsion
[ 10763 10752 10751 10750 ] final  -46.45 input  -60.55 | X-H torsion
[ 11005 11000 10999 10996 ] final  -96.85 input  -57.11 | X-H torsion

> <Gold.Protein.ActiveResidues>
 VAL166  LYS551  ARG553  GLY616  TRP617  ASP618  TYR619  PRO620  LYS621  CYS622 
 ASP623  PHE694  ASN695  SER759  ASP760  ASP761  ALA762  ILE779  LEU786  VAL792 
 PHE793  MET794  SER795  GLU796  ALA797  LYS798  CYS799  TRP800  GLU811  SER814 

> <Gold.Protein.RotatedAtoms>
  151.5220  135.1067  159.9880 H   0  0  0  0  0  0  0  0  0  0  0  0  # atno 6907 bound_to 6896
  152.4616  133.7830  159.6871 H   0  0  0  0  0  0  0  0  0  0  0  0  # atno 6908 bound_to 6896
  150.8581  133.7620  159.3027 H   0  0  0  0  0  0  0  0  0  0  0  0  # atno 6909 bound_to 6896
  145.0446  139.3934  143.5085 H   0  0  0  0  0  0  0  0  0  0  0  0  # atno 7974 bound_to 7965
  155.6422  140.0703  157.2614 H   0  0  0  0  0  0  0  0  0  0  0  0  # atno 8008 bound_to 7997
  154.4181  140.1748  156.1635 H   0  0  0  0  0  0  0  0  0  0  0  0  # atno 8009 bound_to 7997
  155.9846  140.3350  155.6698 H   0  0  0  0  0  0  0  0  0  0  0  0  # atno 8010 bound_to 7997
  139.8659  144.6519  150.9005 H   0  0  0  0  0  0  0  0  0  0  0  0  # atno 10167 bound_to 10162
  157.1908  131.0654  151.2080 H   0  0  0  0  0  0  0  0  0  0  0  0  # atno 10718 bound_to 10713
  154.0452  135.6638  153.4794 H   0  0  0  0  0  0  0  0  0  0  0  0  # atno 10763 bound_to 10752
  153.0485  135.5099  154.7804 H   0  0  0  0  0  0  0  0  0  0  0  0  # atno 10764 bound_to 10752
  154.6793  135.3042  154.9602 H   0  0  0  0  0  0  0  0  0  0  0  0  # atno 10765 bound_to 10752
  141.1398  133.8127  157.0626 H   0  0  0  0  0  0  0  0  0  0  0  0  # atno 11005 bound_to 11000
  146.3512  140.0064  142.8671 LP  0  0  0  0  0  0  0  0  0  0  0  0  # atno 17320 bound_to 7965
  145.1604  140.9670  143.4380 LP  0  0  0  0  0  0  0  0  0  0  0  0  # atno 17321 bound_to 7965
  140.7768  143.3705  151.1659 LP  0  0  0  0  0  0  0  0  0  0  0  0  # atno 17342 bound_to 10162
  139.7330  143.9043  152.3025 LP  0  0  0  0  0  0  0  0  0  0  0  0  # atno 17343 bound_to 10162
  157.3862  130.7257  149.6665 LP  0  0  0  0  0  0  0  0  0  0  0  0  # atno 17370 bound_to 10713
  155.9712  130.4159  150.4203 LP  0  0  0  0  0  0  0  0  0  0  0  0  # atno 17371 bound_to 10713
  140.0561  134.9779  157.1223 LP  0  0  0  0  0  0  0  0  0  0  0  0  # atno 17394 bound_to 11000
  140.3917  134.2177  155.7166 LP  0  0  0  0  0  0  0  0  0  0  0  0  # atno 17395 bound_to 11000

$$$$
