AV-unprocessed.smi:960|AV-procd|sdf|4273|dock1
  -GOLD-   22720 2183D 1   1.00000     0.00000
 Structure written by MMmdl.
 45 46  0  0  0  0  0  0  0  0  1 V2000
  150.2397  142.2154  156.4016 C   0  0  0  0  0  0  0  0  0  0  0  0
  151.0074  141.5534  157.2827 C   0  0  0  0  0  0  0  0  0  0  0  0
  150.9767  141.8633  158.7677 C   0  0  0  0  0  0  0  0  0  0  0  0
  151.9411  140.4317  156.8516 C   0  0  0  0  0  0  0  0  0  0  0  0
  151.2802  139.3943  156.0594 N   0  0  0  0  0  0  0  0  0  0  0  0
  150.3295  138.6233  156.8685 C   0  0  0  0  0  0  0  0  0  0  0  0
  149.5987  137.5881  155.9957 C   0  0  0  0  0  0  0  0  0  0  0  0
  150.5902  136.6356  155.3111 C   0  0  0  0  0  0  0  0  0  0  0  0
  149.8767  135.7596  154.3866 N   0  0  0  0  0  0  0  0  0  0  0  0
  149.6497  134.4529  154.5797 C   0  0  0  0  0  0  0  0  0  0  0  0
  150.0024  133.8399  155.5868 O   0  0  0  0  0  0  0  0  0  0  0  0
  148.9776  133.9164  153.5500 N   0  0  0  0  0  0  0  0  0  0  0  0
  148.5971  132.5599  153.3938 C   0  0  0  0  0  0  0  0  0  0  0  0
  149.2457  131.3755  153.8528 C   0  0  0  0  0  0  0  0  0  0  0  0
  150.5159  131.1820  154.6333 C   0  0  0  0  0  0  0  0  0  0  0  0
  148.5702  130.3085  153.4517 N   0  0  0  0  0  0  0  0  0  0  0  0
  147.4865  130.7778  152.6939 O   0  0  0  0  0  0  0  0  0  0  0  0
  147.5318  132.1350  152.6560 C   0  0  0  0  0  0  0  0  0  0  0  0
  146.4680  132.8267  151.8725 C   0  0  0  0  0  0  0  0  0  0  0  0
  151.6543  137.4639  154.5706 C   0  0  0  0  0  0  0  0  0  0  0  0
  152.2992  138.5010  155.5057 C   0  0  0  0  0  0  0  0  0  0  0  0
  149.5738  143.0044  156.7191 H   0  0  0  0  0  0  0  0  0  0  0  0
  150.2661  141.9787  155.3480 H   0  0  0  0  0  0  0  0  0  0  0  0
  150.6965  140.9746  159.3330 H   0  0  0  0  0  0  0  0  0  0  0  0
  150.2572  142.6504  158.9952 H   0  0  0  0  0  0  0  0  0  0  0  0
  151.9572  142.1937  159.1116 H   0  0  0  0  0  0  0  0  0  0  0  0
  152.7446  140.8774  156.2637 H   0  0  0  0  0  0  0  0  0  0  0  0
  152.4054  139.9823  157.7311 H   0  0  0  0  0  0  0  0  0  0  0  0
  150.8521  138.1280  157.6884 H   0  0  0  0  0  0  0  0  0  0  0  0
  149.5878  139.2842  157.3168 H   0  0  0  0  0  0  0  0  0  0  0  0
  148.8985  137.0198  156.6090 H   0  0  0  0  0  0  0  0  0  0  0  0
  149.0011  138.1087  155.2456 H   0  0  0  0  0  0  0  0  0  0  0  0
  151.0762  136.0324  156.0807 H   0  0  0  0  0  0  0  0  0  0  0  0
  149.5431  136.1788  153.5311 H   0  0  0  0  0  0  0  0  0  0  0  0
  148.6367  134.5557  152.8469 H   0  0  0  0  0  0  0  0  0  0  0  0
  151.2526  131.9459  154.3847 H   0  0  0  0  0  0  0  0  0  0  0  0
  150.9706  130.2134  154.4229 H   0  0  0  0  0  0  0  0  0  0  0  0
  150.3277  131.2312  155.7057 H   0  0  0  0  0  0  0  0  0  0  0  0
  146.6542  133.8994  151.8185 H   0  0  0  0  0  0  0  0  0  0  0  0
  145.4916  132.6765  152.3329 H   0  0  0  0  0  0  0  0  0  0  0  0
  146.4255  132.4403  150.8542 H   0  0  0  0  0  0  0  0  0  0  0  0
  152.4258  136.8093  154.1643 H   0  0  0  0  0  0  0  0  0  0  0  0
  151.2037  137.9764  153.7192 H   0  0  0  0  0  0  0  0  0  0  0  0
  153.0296  139.0839  154.9430 H   0  0  0  0  0  0  0  0  0  0  0  0
  152.8403  138.0011  156.3108 H   0  0  0  0  0  0  0  0  0  0  0  0
  1  2  2  0  0  0  0
  1 22  1  0  0  0  0
  1 23  1  0  0  0  0
  2  3  1  0  0  0  0
  2  4  1  0  0  0  0
  3 24  1  0  0  0  0
  3 25  1  0  0  0  0
  3 26  1  0  0  0  0
  4  5  1  0  0  0  0
  4 27  1  0  0  0  0
  4 28  1  0  0  0  0
  5 21  1  0  0  0  0
  5  6  1  0  0  0  0
  6  7  1  0  0  0  0
  6 29  1  0  0  0  0
  6 30  1  0  0  0  0
  7  8  1  0  0  0  0
  7 31  1  0  0  0  0
  7 32  1  0  0  0  0
  8  9  1  0  0  0  0
  8 20  1  0  0  0  0
  8 33  1  0  0  0  0
  9 10  1  0  0  0  0
  9 34  1  0  0  0  0
 10 11  2  0  0  0  0
 10 12  1  0  0  0  0
 12 13  1  0  0  0  0
 12 35  1  0  0  0  0
 13 18  2  0  0  0  0
 13 14  1  0  0  0  0
 14 15  1  0  0  0  0
 14 16  2  0  0  0  0
 15 36  1  0  0  0  0
 15 37  1  0  0  0  0
 15 38  1  0  0  0  0
 16 17  1  0  0  0  0
 17 18  1  0  0  0  0
 18 19  1  0  0  0  0
 19 39  1  0  0  0  0
 19 40  1  0  0  0  0
 19 41  1  0  0  0  0
 20 21  1  0  0  0  0
 20 42  1  0  0  0  0
 20 43  1  0  0  0  0
 21 44  1  0  0  0  0
 21 45  1  0  0  0  0
M  END
> <s_m_source_file>
AV-unprocessed.smi

> <i_m_source_file_index>
960

> <i_lp_mmshare_version>
43012

> <i_f3d_flags>
0

> <s_epik_input>
W0NIMl09QyhbQ0gzXSlbQ0gyXU4xW0NIMl1bQ0gyXVtDSF0oW0NIMl1bQ0gyXTEpW05IXUMoPU8pW05IXWMyYyhbQ0gzXSlub2MyW0NIM10=

> <s_epik_cmdline>
J2VwaWtfcHl0aG9uJywgJy1waCcsICc3LjAnLCAnLXRuJywgJzgnLCAnLW1hJywgJzIwMCcsICctbWV0YWxfYmluZGluZycsICctaW1hZScsICc8aW5maWxlLm1hZT4nLCAnLW9tYWUnLCAnPG91dGZpbGUubWFlPic=

> <r_epik_Ionization_Penalty>
2.03694

> <r_epik_Ionization_Penalty_Charging>
0

> <r_epik_Ionization_Penalty_Neutral>
2.03694

> <r_epik_State_Penalty>
2.16834

> <r_epik_Charging_Adjusted_Penalty>
2.16834

> <i_epik_Tot_Q>
0

> <i_epik_Tot_abs_Q>
0

> <r_epik_Metal_State_Penalty>
2.16834

> <b_epik_Metal_Only>
0

> <s_lp_Force_Field>
OPLS_2005

> <r_lp_Energy>
16.835

> <b_lp_Chiralities_Consistent>
1

> <s_lp_Variant>
AV-unprocessed.smi:960-3

> <Gold.Version>
5.8.1

> <Gold.Id.Protein>
6NUR|6NUR_protein|mol2

> <Gold.PLP.Fitness>
34.5219

> <Gold.PLP.PLP>
-29.0209

> <Gold.PLP.part.hbond>
-2.2564

> <Gold.PLP.part.metal>
0.0000

> <Gold.PLP.part.buried>
-0.7206

> <Gold.PLP.part.nonpolar>
-26.5162

> <Gold.PLP.part.repulsive>
0.2719

> <Gold.PLP.ligand.clash>
0.0000

> <Gold.PLP.ligand.torsion>
0.3919

> <Gold.PLP.Chemscore.Hbond>
1.9280

> <Gold.PLP.Chemscore.CHOScore>
0.0000

> <Gold.PLP.Chemscore.Metal>
0.0000

> <Gold.Chemscore.Hbonds>
donor molecule, donor type, donor heavy atom, donor atom, acceptor molecule, acceptor atom, score
      L1  H     9    34       P1  7948  1.00
      L1  H    12    35       P1  7948  0.74

> <Gold.PLP.Chemscore.Internal.Correction>
0.5008

> <Gold.Rescore>
     Score         DG    S(hbond)    S(metal)    S(lipo)     H(rot)  DE(clash)    DE(int)     intcor
     15.43     -16.17       1.47        0.00      78.25       1.32       0.26       0.48       ----

> <Gold.Chemscore.Fitness>
15.4281

> <Gold.Chemscore.DG>
-16.1664

> <Gold.Chemscore.ZeroCoef>
-5.4800

> <Gold.Chemscore.Hbond>
1.4721

> <Gold.Chemscore.Metal>
0.0000

> <Gold.Chemscore.Lipo>
78.2487

> <Gold.Chemscore.Internal_Hbond>
0.0000

> <Gold.Chemscore.DEClash>
0.2557

> <Gold.Chemscore.DEInternal>
0.4826

> <Gold.Chemscore.Rot>
1.3225

> <Gold.Chemscore.Internal.Correction>
   9.000000E+99

> <Gold.Chemscore.Hbonds>
donor molecule, donor type, donor heavy atom, donor atom, acceptor molecule, acceptor atom, score
      L1  H     9    34       P1  7948  0.49
      L1  H    12    35       P1  7948  0.11

> <Gold.Chemscore.Hbond.Weighted>
-4.9169

> <Gold.Chemscore.Metal.Weighted>
-0.0000

> <Gold.Chemscore.Lipo.Weighted>
-9.1551

> <Gold.Chemscore.Internal_Hbond.Weighted>
0.0000

> <Gold.Chemscore.DEClash.Weighted>
0.2557

> <Gold.Chemscore.DEInternal.Weighted>
0.4826

> <Gold.Chemscore.Rot.Weighted>
3.3856

> <Gold.Chemscore.Internal.Correction.Weighted>
   9.000000E+99

> <Gold.Protein.RotatedTorsions>
[ 6907 6896 6895 6894 ] final -110.54 input  -60.11 | X-H torsion
[ 7974 7965 7964 7962 ] final   -8.42 input  175.53 | X-H torsion
[ 8008 7997 7996 7995 ] final -110.33 input   59.86 | X-H torsion
[ 10167 10162 10161 10158 ] final   12.22 input  -65.29 | X-H torsion
[ 10718 10713 10712 10709 ] final   81.11 input   66.30 | X-H torsion
[ 10763 10752 10751 10750 ] final   -7.08 input  -60.55 | X-H torsion
[ 11005 11000 10999 10996 ] final   20.61 input  -57.11 | X-H torsion

> <Gold.Protein.ActiveResidues>
 VAL166  LYS551  ARG553  GLY616  TRP617  ASP618  TYR619  PRO620  LYS621  CYS622 
 ASP623  PHE694  ASN695  SER759  ASP760  ASP761  ALA762  ILE779  LEU786  VAL792 
 PHE793  MET794  SER795  GLU796  ALA797  LYS798  CYS799  TRP800  GLU811  SER814 

> <Gold.Protein.RotatedAtoms>
  150.7632  133.9366  159.3443 H   0  0  0  0  0  0  0  0  0  0  0  0  # atno 6907 bound_to 6896
  151.7270  135.0880  160.0303 H   0  0  0  0  0  0  0  0  0  0  0  0  # atno 6908 bound_to 6896
  152.3614  133.6263  159.6053 H   0  0  0  0  0  0  0  0  0  0  0  0  # atno 6909 bound_to 6896
  146.2281  140.2465  142.8345 H   0  0  0  0  0  0  0  0  0  0  0  0  # atno 7974 bound_to 7965
  154.9729  140.0397  157.2243 H   0  0  0  0  0  0  0  0  0  0  0  0  # atno 8008 bound_to 7997
  154.7784  140.2814  155.6060 H   0  0  0  0  0  0  0  0  0  0  0  0  # atno 8009 bound_to 7997
  156.2932  140.2596  156.2604 H   0  0  0  0  0  0  0  0  0  0  0  0  # atno 8010 bound_to 7997
  140.6082  143.8464  150.7036 H   0  0  0  0  0  0  0  0  0  0  0  0  # atno 10167 bound_to 10162
  157.6824  130.9989  150.2178 H   0  0  0  0  0  0  0  0  0  0  0  0  # atno 10718 bound_to 10713
  153.4213  135.7010  153.6292 H   0  0  0  0  0  0  0  0  0  0  0  0  # atno 10763 bound_to 10752
  153.4745  135.3707  155.2409 H   0  0  0  0  0  0  0  0  0  0  0  0  # atno 10764 bound_to 10752
  154.8722  135.4051  154.3582 H   0  0  0  0  0  0  0  0  0  0  0  0  # atno 10765 bound_to 10752
  140.4007  134.1721  155.7664 H   0  0  0  0  0  0  0  0  0  0  0  0  # atno 11005 bound_to 11000
  144.9444  140.8112  143.5610 LP  0  0  0  0  0  0  0  0  0  0  0  0  # atno 17320 bound_to 7965
  145.2420  139.2068  143.4987 LP  0  0  0  0  0  0  0  0  0  0  0  0  # atno 17321 bound_to 7965
  140.2026  143.3947  152.1780 LP  0  0  0  0  0  0  0  0  0  0  0  0  # atno 17342 bound_to 10162
  139.5341  144.7190  151.4955 LP  0  0  0  0  0  0  0  0  0  0  0  0  # atno 17343 bound_to 10162
  156.2836  130.3736  149.7911 LP  0  0  0  0  0  0  0  0  0  0  0  0  # atno 17370 bound_to 10713
  156.5592  130.8376  151.3323 LP  0  0  0  0  0  0  0  0  0  0  0  0  # atno 17371 bound_to 10713
  141.1857  133.8316  157.1093 LP  0  0  0  0  0  0  0  0  0  0  0  0  # atno 17394 bound_to 11000
  140.0338  134.9888  157.0832 LP  0  0  0  0  0  0  0  0  0  0  0  0  # atno 17395 bound_to 11000

$$$$
