AV-unprocessed.smi:1475|AV-procd|sdf|5979|dock9
  -GOLD-   22720 6 73D 1   1.00000     0.00000
 Structure written by MMmdl.
 50 51  0  0  0  0  0  0  0  0  2 V2000
  149.7805  133.1685  155.5361 C   0  0  0  0  0  0  0  0  0  0  0  0
  150.2577  131.8149  155.0988 C   0  0  0  0  0  0  0  0  0  0  0  0
  151.5366  131.2238  155.2986 C   0  0  0  0  0  0  0  0  0  0  0  0
  151.4381  129.9965  154.7063 C   0  0  0  0  0  0  0  0  0  0  0  0
  152.4512  128.9061  154.5806 C   0  0  0  0  0  0  0  0  0  0  0  0
  150.1563  129.9002  154.1925 N   0  0  0  0  0  0  0  0  0  0  0  0
  149.5366  128.8040  153.4589 C   0  0  0  0  0  0  0  0  0  0  0  0
  148.0276  129.0017  153.2714 C   0  0  0  0  0  0  0  0  0  0  0  0
  147.2648  128.8201  154.2195 O   0  0  0  0  0  0  0  0  0  0  0  0
  147.6017  129.3566  152.0492 N   0  0  0  0  0  0  0  0  0  0  0  0
  146.2112  129.6036  151.6981 C   0  0  0  0  0  0  0  0  0  0  0  0
  145.8415  131.0674  151.9860 C   0  0  0  0  0  0  0  0  0  0  0  0
  146.3990  132.0042  150.9737 N   0  3  1  0  0  0  0  0  0  0  0  0
  145.6442  132.0091  149.6931 C   0  0  0  0  0  0  0  0  0  0  0  0
  144.3077  132.7721  149.8082 C   0  0  2  0  0  0  0  0  0  0  0  0
  143.5418  132.7637  148.4777 C   0  0  0  0  0  0  0  0  0  0  0  0
  144.5616  134.2080  150.2997 C   0  0  0  0  0  0  0  0  0  0  0  0
  145.3523  134.2081  151.6199 C   0  0  2  0  0  0  0  0  0  0  0  0
  145.6496  135.6382  152.0920 C   0  0  0  0  0  0  0  0  0  0  0  0
  146.6513  133.3858  151.4681 C   0  0  0  0  0  0  0  0  0  0  0  0
  149.4370  131.0180  154.4348 N   0  0  0  0  0  0  0  0  0  0  0  0
  150.4649  133.6123  156.2593 H   0  0  0  0  0  0  0  0  0  0  0  0
  148.7975  133.1094  156.0044 H   0  0  0  0  0  0  0  0  0  0  0  0
  149.7055  133.8492  154.6880 H   0  0  0  0  0  0  0  0  0  0  0  0
  152.3970  131.6390  155.8025 H   0  0  0  0  0  0  0  0  0  0  0  0
  153.4025  129.2065  155.0201 H   0  0  0  0  0  0  0  0  0  0  0  0
  152.6293  128.6575  153.5342 H   0  0  0  0  0  0  0  0  0  0  0  0
  152.1166  128.0040  155.0929 H   0  0  0  0  0  0  0  0  0  0  0  0
  150.0116  128.7044  152.4830 H   0  0  0  0  0  0  0  0  0  0  0  0
  149.7234  127.8728  153.9962 H   0  0  0  0  0  0  0  0  0  0  0  0
  148.2928  129.4831  151.3239 H   0  0  0  0  0  0  0  0  0  0  0  0
  146.0781  129.3606  150.6441 H   0  0  0  0  0  0  0  0  0  0  0  0
  145.5629  128.9375  152.2702 H   0  0  0  0  0  0  0  0  0  0  0  0
  144.7531  131.1439  151.9757 H   0  0  0  0  0  0  0  0  0  0  0  0
  146.1544  131.3508  152.9907 H   0  0  0  0  0  0  0  0  0  0  0  0
  146.2685  132.4782  148.9312 H   0  0  0  0  0  0  0  0  0  0  0  0
  145.4764  130.9857  149.3547 H   0  0  0  0  0  0  0  0  0  0  0  0
  143.6814  132.2655  150.5439 H   0  0  0  0  0  0  0  0  0  0  0  0
  144.1060  133.2657  147.6910 H   0  0  0  0  0  0  0  0  0  0  0  0
  142.5819  133.2718  148.5742 H   0  0  0  0  0  0  0  0  0  0  0  0
  143.3418  131.7446  148.1456 H   0  0  0  0  0  0  0  0  0  0  0  0
  145.1135  134.7645  149.5405 H   0  0  0  0  0  0  0  0  0  0  0  0
  143.6125  134.7282  150.4353 H   0  0  0  0  0  0  0  0  0  0  0  0
  144.7315  133.7442  152.3863 H   0  0  0  0  0  0  0  0  0  0  0  0
  146.2741  136.1724  151.3751 H   0  0  0  0  0  0  0  0  0  0  0  0
  146.1707  135.6344  153.0499 H   0  0  0  0  0  0  0  0  0  0  0  0
  144.7293  136.2085  152.2207 H   0  0  0  0  0  0  0  0  0  0  0  0
  147.2012  133.3651  152.4079 H   0  0  0  0  0  0  0  0  0  0  0  0
  147.3090  133.8808  150.7523 H   0  0  0  0  0  0  0  0  0  0  0  0
  147.3055  131.6221  150.7443 H   0  0  0  0  0  0  0  0  0  0  0  0
  1  2  1  0  0  0  0
  1 22  1  0  0  0  0
  1 23  1  0  0  0  0
  1 24  1  0  0  0  0
  2 21  2  0  0  0  0
  2  3  1  0  0  0  0
  3  4  2  0  0  0  0
  3 25  1  0  0  0  0
  4  5  1  0  0  0  0
  4  6  1  0  0  0  0
  5 26  1  0  0  0  0
  5 27  1  0  0  0  0
  5 28  1  0  0  0  0
  6  7  1  0  0  0  0
  6 21  1  0  0  0  0
  7  8  1  0  0  0  0
  7 29  1  0  0  0  0
  7 30  1  0  0  0  0
  8  9  2  0  0  0  0
  8 10  1  0  0  0  0
 10 11  1  0  0  0  0
 10 31  1  0  0  0  0
 11 12  1  0  0  0  0
 11 32  1  0  0  0  0
 11 33  1  0  0  0  0
 12 13  1  0  0  0  0
 12 34  1  0  0  0  0
 12 35  1  0  0  0  0
 13 20  1  0  0  0  0
 13 14  1  0  0  0  0
 13 50  1  0  0  0  0
 14 15  1  0  0  0  0
 14 36  1  0  0  0  0
 14 37  1  0  0  0  0
 15 16  1  0  0  0  0
 15 17  1  0  0  0  0
 15 38  1  0  0  0  0
 16 39  1  0  0  0  0
 16 40  1  0  0  0  0
 16 41  1  0  0  0  0
 17 18  1  0  0  0  0
 17 42  1  0  0  0  0
 17 43  1  0  0  0  0
 18 19  1  0  0  0  0
 18 20  1  0  0  0  0
 18 44  1  0  0  0  0
 19 45  1  0  0  0  0
 19 46  1  0  0  0  0
 19 47  1  0  0  0  0
 20 48  1  0  0  0  0
 20 49  1  0  0  0  0
M  CHG  1  13   1
M  END
> <s_m_source_file>
AV-unprocessed.smi

> <i_m_source_file_index>
1475

> <i_lp_mmshare_version>
43012

> <i_f3d_flags>
0

> <s_epik_input>
W0NIM11jMVtjSF1jKFtDSDNdKW4objEpW0NIMl1DKD1PKVtOSF1bQ0gyXVtDSDJdTjJbQ0gyXVtDQEBIXShbQ0gzXSlbQ0gyXVtDQEBIXShbQ0gzXSlbQ0gyXTI=

> <s_epik_cmdline>
J2VwaWtfcHl0aG9uJywgJy1waCcsICc3LjAnLCAnLXRuJywgJzgnLCAnLW1hJywgJzIwMCcsICctbWV0YWxfYmluZGluZycsICctaW1hZScsICc8aW5maWxlLm1hZT4nLCAnLW9tYWUnLCAnPG91dGZpbGUubWFlPic=

> <r_lp_tautomer_probability>
1

> <r_epik_Ionization_Penalty>
0.00206431

> <r_epik_Ionization_Penalty_Charging>
0.00187095

> <r_epik_Ionization_Penalty_Neutral>
0.000193364

> <r_epik_State_Penalty>
-0

> <r_epik_Charging_Adjusted_Penalty>
0.00187095

> <i_epik_Tot_Q>
1

> <i_epik_Tot_abs_Q>
1

> <r_epik_Metal_State_Penalty>
-0

> <b_epik_Metal_Only>
0

> <s_lp_Force_Field>
OPLS_2005

> <r_lp_Energy>
18.0361

> <b_lp_Chiralities_Consistent>
1

> <s_lp_Variant>
AV-unprocessed.smi:1475-4

> <Gold.Version>
5.8.1

> <Gold.Id.Protein>
6NUR|6NUR_protein|mol2

> <Gold.PLP.Fitness>
48.1835

> <Gold.PLP.PLP>
-44.1337

> <Gold.PLP.part.hbond>
-2.0000

> <Gold.PLP.part.metal>
0.0000

> <Gold.PLP.part.buried>
-5.7042

> <Gold.PLP.part.nonpolar>
-36.9485

> <Gold.PLP.part.repulsive>
0.1616

> <Gold.PLP.ligand.clash>
0.0000

> <Gold.PLP.ligand.torsion>
0.7470

> <Gold.PLP.Chemscore.Hbond>
1.8320

> <Gold.PLP.Chemscore.CHOScore>
0.0000

> <Gold.PLP.Chemscore.Metal>
0.0000

> <Gold.Chemscore.Hbonds>
donor molecule, donor type, donor heavy atom, donor atom, acceptor molecule, acceptor atom, score
      L1  H    10    31       P1 10747  0.82
      L1  H    13    50       P1 10747  1.00

> <Gold.PLP.Chemscore.Internal.Correction>
0.0478

> <Gold.Rescore>
     Score         DG    S(hbond)    S(metal)    S(lipo)     H(rot)  DE(clash)    DE(int)     intcor
     17.66     -18.54       1.32        0.00     109.77       1.64       0.01       0.88       ----

> <Gold.Chemscore.Fitness>
17.6571

> <Gold.Chemscore.DG>
-18.5439

> <Gold.Chemscore.ZeroCoef>
-5.4800

> <Gold.Chemscore.Hbond>
1.3229

> <Gold.Chemscore.Metal>
0.0000

> <Gold.Chemscore.Lipo>
109.7736

> <Gold.Chemscore.Internal_Hbond>
0.0000

> <Gold.Chemscore.DEClash>
0.0086

> <Gold.Chemscore.DEInternal>
0.8781

> <Gold.Chemscore.Rot>
1.6399

> <Gold.Chemscore.Internal.Correction>
   9.000000E+99

> <Gold.Chemscore.Hbonds>
donor molecule, donor type, donor heavy atom, donor atom, acceptor molecule, acceptor atom, score
      L1  H    10    31       P1 10747  0.28
      L1  H    13    50       P1 10747  1.00

> <Gold.Chemscore.Hbond.Weighted>
-4.4185

> <Gold.Chemscore.Metal.Weighted>
-0.0000

> <Gold.Chemscore.Lipo.Weighted>
-12.8435

> <Gold.Chemscore.Internal_Hbond.Weighted>
0.0000

> <Gold.Chemscore.DEClash.Weighted>
0.0086

> <Gold.Chemscore.DEInternal.Weighted>
0.8781

> <Gold.Chemscore.Rot.Weighted>
4.1982

> <Gold.Chemscore.Internal.Correction.Weighted>
   9.000000E+99

> <Gold.Protein.RotatedTorsions>
[ 6907 6896 6895 6894 ] final  165.57 input  -60.11 | X-H torsion
[ 7974 7965 7964 7962 ] final -131.20 input  175.53 | X-H torsion
[ 8008 7997 7996 7995 ] final  122.90 input   59.86 | X-H torsion
[ 10167 10162 10161 10158 ] final   50.85 input  -65.29 | X-H torsion
[ 10718 10713 10712 10709 ] final -124.93 input   66.30 | X-H torsion
[ 10763 10752 10751 10750 ] final  170.81 input  -60.55 | X-H torsion
[ 11005 11000 10999 10996 ] final  115.09 input  -57.11 | X-H torsion

> <Gold.Protein.ActiveResidues>
 VAL166  LYS551  ARG553  GLY616  TRP617  ASP618  TYR619  PRO620  LYS621  CYS622 
 ASP623  PHE694  ASN695  SER759  ASP760  ASP761  ALA762  ILE779  LEU786  VAL792 
 PHE793  MET794  SER795  GLU796  ALA797  LYS798  CYS799  TRP800  GLU811  SER814 

> <Gold.Protein.RotatedAtoms>
  151.8924  133.3519  159.3802 H   0  0  0  0  0  0  0  0  0  0  0  0  # atno 6907 bound_to 6896
  150.7100  134.4911  159.5525 H   0  0  0  0  0  0  0  0  0  0  0  0  # atno 6908 bound_to 6896
  152.2483  134.8159  160.0501 H   0  0  0  0  0  0  0  0  0  0  0  0  # atno 6909 bound_to 6896
  144.9401  140.7229  143.4852 H   0  0  0  0  0  0  0  0  0  0  0  0  # atno 7974 bound_to 7965
  156.2745  140.2775  156.1542 H   0  0  0  0  0  0  0  0  0  0  0  0  # atno 8008 bound_to 7997
  155.0822  140.0388  157.2660 H   0  0  0  0  0  0  0  0  0  0  0  0  # atno 8009 bound_to 7997
  154.6955  140.2638  155.6776 H   0  0  0  0  0  0  0  0  0  0  0  0  # atno 8010 bound_to 7997
  140.2681  144.3297  150.6298 H   0  0  0  0  0  0  0  0  0  0  0  0  # atno 10167 bound_to 10162
  156.1630  130.6615  151.0076 H   0  0  0  0  0  0  0  0  0  0  0  0  # atno 10718 bound_to 10713
  154.4030  135.2755  155.2085 H   0  0  0  0  0  0  0  0  0  0  0  0  # atno 10763 bound_to 10752
  154.4103  135.6024  153.5952 H   0  0  0  0  0  0  0  0  0  0  0  0  # atno 10764 bound_to 10752
  152.9831  135.5948  154.4300 H   0  0  0  0  0  0  0  0  0  0  0  0  # atno 10765 bound_to 10752
  139.8999  134.9578  156.6992 H   0  0  0  0  0  0  0  0  0  0  0  0  # atno 11005 bound_to 11000
  145.3004  139.1852  143.4692 LP  0  0  0  0  0  0  0  0  0  0  0  0  # atno 17320 bound_to 7965
  146.3282  140.2994  142.8620 LP  0  0  0  0  0  0  0  0  0  0  0  0  # atno 17321 bound_to 7965
  140.5912  143.2168  151.7249 LP  0  0  0  0  0  0  0  0  0  0  0  0  # atno 17342 bound_to 10162
  139.4997  144.3936  152.0254 LP  0  0  0  0  0  0  0  0  0  0  0  0  # atno 17343 bound_to 10162
  157.6747  131.0853  150.7524 LP  0  0  0  0  0  0  0  0  0  0  0  0  # atno 17370 bound_to 10713
  156.7586  130.4791  149.5441 LP  0  0  0  0  0  0  0  0  0  0  0  0  # atno 17371 bound_to 10713
  140.7164  133.9179  155.8117 LP  0  0  0  0  0  0  0  0  0  0  0  0  # atno 17394 bound_to 11000
  141.0261  134.0821  157.4066 LP  0  0  0  0  0  0  0  0  0  0  0  0  # atno 17395 bound_to 11000

$$$$
