AV-unprocessed.smi:48|AV-procd|sdf|447|dock8
  -GOLD-   2262016313D 1   1.00000     0.00000
 Structure written by MMmdl.
 30 32  0  0  0  0  0  0  0  0  1 V2000
  149.1974  143.0718  157.9465 O   0  0  0  0  0  0  0  0  0  0  0  0
  150.0264  141.9480  157.7407 C   0  0  0  0  0  0  0  0  0  0  0  0
  150.0811  141.5995  156.2455 C   0  0  1  0  0  0  0  0  0  0  0  0
  150.9923  140.5280  156.0342 O   0  0  0  0  0  0  0  0  0  0  0  0
  150.6835  139.8846  154.8370 C   0  0  1  0  0  0  0  0  0  0  0  0
  150.8595  138.4162  155.0484 N   0  0  0  0  0  0  0  0  0  0  0  0
  151.9587  137.7792  155.5011 C   0  0  0  0  0  0  0  0  0  0  0  0
  151.8948  136.4537  155.6206 N   0  0  0  0  0  0  0  0  0  0  0  0
  150.5979  136.2011  155.2047 C   0  0  0  0  0  0  0  0  0  0  0  0
  149.8461  135.0079  155.0777 C   0  0  0  0  0  0  0  0  0  0  0  0
  150.5354  133.4769  155.4757 Cl  0  0  0  0  0  0  0  0  0  0  0  0
  148.5691  135.0943  154.6346 N   0  0  0  0  0  0  0  0  0  0  0  0
  148.0595  136.2947  154.3329 C   0  0  0  0  0  0  0  0  0  0  0  0
  148.6437  137.4965  154.3996 N   0  0  0  0  0  0  0  0  0  0  0  0
  149.9314  137.4074  154.8461 C   0  0  0  0  0  0  0  0  0  0  0  0
  149.2261  140.2248  154.4803 C   0  0  2  0  0  0  0  0  0  0  0  0
  149.1657  140.9887  153.2895 O   0  0  0  0  0  0  0  0  0  0  0  0
  148.7729  141.0209  155.7040 C   0  0  2  0  0  0  0  0  0  0  0  0
  147.8105  142.0162  155.4082 O   0  0  0  0  0  0  0  0  0  0  0  0
  150.3833  142.4594  155.6439 H   0  0  0  0  0  0  0  0  0  0  0  0
  151.4015  140.1484  154.0585 H   0  0  0  0  0  0  0  0  0  0  0  0
  148.6281  139.3219  154.3472 H   0  0  0  0  0  0  0  0  0  0  0  0
  148.3452  140.3372  156.4375 H   0  0  0  0  0  0  0  0  0  0  0  0
  148.7963  143.3039  157.1229 H   0  0  0  0  0  0  0  0  0  0  0  0
  151.0236  142.1307  158.1424 H   0  0  0  0  0  0  0  0  0  0  0  0
  149.5975  141.1185  158.3035 H   0  0  0  0  0  0  0  0  0  0  0  0
  152.8594  138.3184  155.7558 H   0  0  0  0  0  0  0  0  0  0  0  0
  147.0367  136.2933  153.9862 H   0  0  0  0  0  0  0  0  0  0  0  0
  149.4072  140.4349  152.5631 H   0  0  0  0  0  0  0  0  0  0  0  0
  148.1592  142.8557  155.6662 H   0  0  0  0  0  0  0  0  0  0  0  0
  1  2  1  0  0  0  0
  1 24  1  0  0  0  0
  2  3  1  0  0  0  0
  2 25  1  0  0  0  0
  2 26  1  0  0  0  0
  3 20  1  0  0  0  0
  3 18  1  0  0  0  0
  3  4  1  0  0  0  0
  4  5  1  0  0  0  0
  5 21  1  0  0  0  0
  5  6  1  0  0  0  0
  5 16  1  0  0  0  0
  6 15  1  0  0  0  0
  6  7  1  0  0  0  0
  7  8  2  0  0  0  0
  7 27  1  0  0  0  0
  8  9  1  0  0  0  0
  9 15  2  0  0  0  0
  9 10  1  0  0  0  0
 10 11  1  0  0  0  0
 10 12  2  0  0  0  0
 12 13  1  0  0  0  0
 13 14  2  0  0  0  0
 13 28  1  0  0  0  0
 14 15  1  0  0  0  0
 16 22  1  0  0  0  0
 16 17  1  0  0  0  0
 16 18  1  0  0  0  0
 17 29  1  0  0  0  0
 18 23  1  0  0  0  0
 18 19  1  0  0  0  0
 19 30  1  0  0  0  0
M  END
> <s_m_source_file>
AV-unprocessed.smi

> <i_m_source_file_index>
48

> <i_lp_mmshare_version>
43012

> <i_f3d_flags>
0

> <s_epik_input>
W09IXVtDSDJdW0NASF0xT1tDQEhdKFtDQEhdKFtPSF0pW0NAQEhdMVtPSF0pbihbY0hdbjIpYyhjMjMpbltjSF1uYzNDbA==

> <s_epik_cmdline>
J2VwaWtfcHl0aG9uJywgJy1waCcsICc3LjAnLCAnLXRuJywgJzgnLCAnLW1hJywgJzIwMCcsICctbWV0YWxfYmluZGluZycsICctaW1hZScsICc8aW5maWxlLm1hZT4nLCAnLW9tYWUnLCAnPG91dGZpbGUubWFlPic=

> <r_lp_tautomer_probability>
1

> <r_epik_Ionization_Penalty>
3.45505e-06

> <r_epik_Ionization_Penalty_Charging>
0

> <r_epik_Ionization_Penalty_Neutral>
3.45505e-06

> <r_epik_State_Penalty>
-0

> <r_epik_Charging_Adjusted_Penalty>
0

> <i_epik_Tot_Q>
0

> <i_epik_Tot_abs_Q>
0

> <r_epik_Metal_State_Penalty>
-0

> <b_epik_Metal_Only>
0

> <s_epik_Chemistry_Notes>
This compound contains an acetal/aminal-like group ( X-CH(R)-Y where X, Y are N, S, or O) that may be acid/base labile, releasing an aldehyde.

> <s_lp_Force_Field>
OPLS_2005

> <r_lp_Energy>
36.5243

> <b_lp_Chiralities_Consistent>
1

> <s_lp_Variant>
AV-unprocessed.smi:48-1

> <Gold.Version>
5.8.1

> <Gold.Id.Protein>
6NUR|6NUR_protein|mol2

> <Gold.PLP.Fitness>
43.1549

> <Gold.PLP.PLP>
-29.0561

> <Gold.PLP.part.hbond>
-6.2871

> <Gold.PLP.part.metal>
0.0000

> <Gold.PLP.part.buried>
-3.2367

> <Gold.PLP.part.nonpolar>
-21.5076

> <Gold.PLP.part.repulsive>
0.2729

> <Gold.PLP.ligand.clash>
0.0000

> <Gold.PLP.ligand.torsion>
0.0984

> <Gold.PLP.Chemscore.Hbond>
4.7600

> <Gold.PLP.Chemscore.CHOScore>
0.0000

> <Gold.PLP.Chemscore.Metal>
0.0000

> <Gold.Chemscore.Hbonds>
donor molecule, donor type, donor heavy atom, donor atom, acceptor molecule, acceptor atom, score
      L1  H     1    24       P1  8028  0.82
      L1  H    17    29       P1  7957  0.84
      L1  H    19    30       P1  8028  1.00
      P1  H  8011  8017       L1    17  0.40
      P1  H 10752 10765       L1     8  1.00

> <Gold.PLP.Chemscore.Internal.Correction>
0.0157

> <Gold.Rescore>
     Score         DG    S(hbond)    S(metal)    S(lipo)     H(rot)  DE(clash)    DE(int)     intcor
     10.74     -13.41       3.82        0.00      42.00       3.80       1.17       1.50       ----

> <Gold.Chemscore.Fitness>
10.7372

> <Gold.Chemscore.DG>
-13.4124

> <Gold.Chemscore.ZeroCoef>
-5.4800

> <Gold.Chemscore.Hbond>
3.8175

> <Gold.Chemscore.Metal>
0.0000

> <Gold.Chemscore.Lipo>
42.0030

> <Gold.Chemscore.Internal_Hbond>
0.0000

> <Gold.Chemscore.DEClash>
1.1711

> <Gold.Chemscore.DEInternal>
1.5042

> <Gold.Chemscore.Rot>
3.8017

> <Gold.Chemscore.Internal.Correction>
   9.000000E+99

> <Gold.Chemscore.Hbonds>
donor molecule, donor type, donor heavy atom, donor atom, acceptor molecule, acceptor atom, score
      L1  H     1    24       P1  8028  0.38
      L1  H    17    29       P1  7957  0.81
      L1  H    19    30       P1  8028  0.90
      P1  H  8011  8017       L1    17  0.01
      P1  H 10752 10765       L1     8  0.92

> <Gold.Chemscore.Hbond.Weighted>
-12.7505

> <Gold.Chemscore.Metal.Weighted>
-0.0000

> <Gold.Chemscore.Lipo.Weighted>
-4.9144

> <Gold.Chemscore.Internal_Hbond.Weighted>
0.0000

> <Gold.Chemscore.DEClash.Weighted>
1.1711

> <Gold.Chemscore.DEInternal.Weighted>
1.5042

> <Gold.Chemscore.Rot.Weighted>
9.7324

> <Gold.Chemscore.Internal.Correction.Weighted>
   9.000000E+99

> <Gold.Protein.RotatedTorsions>
[ 6907 6896 6895 6894 ] final  114.19 input  -60.11 | X-H torsion
[ 7974 7965 7964 7962 ] final   -2.54 input  175.53 | X-H torsion
[ 8008 7997 7996 7995 ] final  -83.33 input   59.86 | X-H torsion
[ 10167 10162 10161 10158 ] final -101.98 input  -65.29 | X-H torsion
[ 10718 10713 10712 10709 ] final   74.26 input   66.30 | X-H torsion
[ 10763 10752 10751 10750 ] final -146.08 input  -60.55 | X-H torsion
[ 11005 11000 10999 10996 ] final    7.81 input  -57.11 | X-H torsion

> <Gold.Protein.ActiveResidues>
 VAL166  LYS551  ARG553  GLY616  TRP617  ASP618  TYR619  PRO620  LYS621  CYS622 
 ASP623  PHE694  ASN695  SER759  ASP760  ASP761  ALA762  ILE779  LEU786  VAL792 
 PHE793  MET794  SER795  GLU796  ALA797  LYS798  CYS799  TRP800  GLU811  SER814 

> <Gold.Protein.RotatedAtoms>
  152.4817  133.8271  159.7083 H   0  0  0  0  0  0  0  0  0  0  0  0  # atno 6907 bound_to 6896
  150.8872  133.7282  159.2921 H   0  0  0  0  0  0  0  0  0  0  0  0  # atno 6908 bound_to 6896
  151.4767  135.1053  159.9818 H   0  0  0  0  0  0  0  0  0  0  0  0  # atno 6909 bound_to 6896
  146.2403  140.1586  142.8333 H   0  0  0  0  0  0  0  0  0  0  0  0  # atno 7974 bound_to 7965
  154.6180  140.0620  156.9578 H   0  0  0  0  0  0  0  0  0  0  0  0  # atno 8008 bound_to 7997
  155.1864  140.3303  155.4347 H   0  0  0  0  0  0  0  0  0  0  0  0  # atno 8009 bound_to 7997
  156.2415  140.1888  156.6957 H   0  0  0  0  0  0  0  0  0  0  0  0  # atno 8010 bound_to 7997
  140.2355  143.3576  152.0848 H   0  0  0  0  0  0  0  0  0  0  0  0  # atno 10167 bound_to 10162
  157.6584  130.9669  150.1186 H   0  0  0  0  0  0  0  0  0  0  0  0  # atno 10718 bound_to 10713
  154.8353  135.3396  154.6604 H   0  0  0  0  0  0  0  0  0  0  0  0  # atno 10763 bound_to 10752
  153.7220  135.6957  153.5015 H   0  0  0  0  0  0  0  0  0  0  0  0  # atno 10764 bound_to 10752
  153.2374  135.4396  155.0614 H   0  0  0  0  0  0  0  0  0  0  0  0  # atno 10765 bound_to 10752
  140.5441  134.0346  155.7914 H   0  0  0  0  0  0  0  0  0  0  0  0  # atno 11005 bound_to 11000
  145.0108  140.8712  143.5225 LP  0  0  0  0  0  0  0  0  0  0  0  0  # atno 17320 bound_to 7965
  145.1619  139.2453  143.5387 LP  0  0  0  0  0  0  0  0  0  0  0  0  # atno 17321 bound_to 7965
  139.5095  144.6868  151.5865 LP  0  0  0  0  0  0  0  0  0  0  0  0  # atno 17342 bound_to 10162
  140.6153  143.9360  150.6484 LP  0  0  0  0  0  0  0  0  0  0  0  0  # atno 17343 bound_to 10162
  156.2064  130.3663  149.8725 LP  0  0  0  0  0  0  0  0  0  0  0  0  # atno 17370 bound_to 10713
  156.6615  130.8784  151.3548 LP  0  0  0  0  0  0  0  0  0  0  0  0  # atno 17371 bound_to 10713
  141.1210  133.9461  157.2729 LP  0  0  0  0  0  0  0  0  0  0  0  0  # atno 17394 bound_to 11000
  139.9489  135.0179  156.8935 LP  0  0  0  0  0  0  0  0  0  0  0  0  # atno 17395 bound_to 11000

$$$$
