AV-unprocessed.smi:513|AV-procd|sdf|2774|dock7
  -GOLD-   2262023243D 1   1.00000     0.00000
 Structure written by MMmdl.
 42 44  0  0  0  0  0  0  0  0  3 V2000
  152.7618  138.3200  154.9330 C   0  0  0  0  0  0  0  0  0  0  0  0
  151.7972  139.2956  154.5800 O   0  0  0  0  0  0  0  0  0  0  0  0
  150.6487  139.2457  155.4087 C   0  0  0  0  0  0  0  0  0  0  0  0
  149.7580  138.0843  154.9531 C   0  0  0  0  0  0  0  0  0  0  0  0
  148.6758  137.8384  155.9036 N   0  0  0  0  0  0  0  0  0  0  0  0
  147.3642  138.1878  155.7975 C   0  0  0  0  0  0  0  0  0  0  0  0
  146.8535  138.8545  154.6817 N   0  0  0  0  0  0  0  0  0  0  0  0
  146.6287  140.2972  154.6403 C   0  0  0  0  0  0  0  0  0  0  0  0
  147.2326  140.9217  153.3691 C   0  0  0  0  0  0  0  0  0  0  0  0
  146.6942  140.2665  152.1587 N   0  3  0  0  0  0  0  0  0  0  0  0
  146.8288  138.7956  152.2008 C   0  0  0  0  0  0  0  0  0  0  0  0
  146.2349  138.2394  153.5082 C   0  0  0  0  0  0  0  0  0  0  0  0
  146.6227  137.8962  156.8672 N   0  0  0  0  0  0  0  0  0  0  0  0
  147.5310  137.2913  157.7218 C   0  0  0  0  0  0  0  0  0  0  0  0
  148.7754  137.2592  157.1737 C   0  0  0  0  0  0  0  0  0  0  0  0
  149.9662  136.7258  157.8729 C   0  0  0  0  0  0  0  0  0  0  0  0
  151.0776  136.7562  157.3492 O   0  0  0  0  0  0  0  0  0  0  0  0
  149.6605  136.2362  159.1160 N   0  5  0  0  0  0  0  0  0  0  0  0
  148.4142  136.2390  159.7043 C   0  0  0  0  0  0  0  0  0  0  0  0
  148.2266  135.7818  160.8326 O   0  0  0  0  0  0  0  0  0  0  0  0
  147.3441  136.7637  159.0284 N   0  0  0  0  0  0  0  0  0  0  0  0
  146.0091  136.7898  159.6330 C   0  0  0  0  0  0  0  0  0  0  0  0
  153.6209  138.3960  154.2668 H   0  0  0  0  0  0  0  0  0  0  0  0
  152.3544  137.3122  154.8433 H   0  0  0  0  0  0  0  0  0  0  0  0
  153.1140  138.4661  155.9550 H   0  0  0  0  0  0  0  0  0  0  0  0
  150.9390  139.1105  156.4518 H   0  0  0  0  0  0  0  0  0  0  0  0
  150.1024  140.1875  155.3366 H   0  0  0  0  0  0  0  0  0  0  0  0
  149.3521  138.2960  153.9699 H   0  0  0  0  0  0  0  0  0  0  0  0
  150.3436  137.1776  154.8146 H   0  0  0  0  0  0  0  0  0  0  0  0
  145.5573  140.4958  154.6908 H   0  0  0  0  0  0  0  0  0  0  0  0
  147.0728  140.7631  155.5209 H   0  0  0  0  0  0  0  0  0  0  0  0
  147.0170  141.9895  153.3272 H   0  0  0  0  0  0  0  0  0  0  0  0
  148.3182  140.8137  153.3785 H   0  0  0  0  0  0  0  0  0  0  0  0
  145.7116  140.4902  152.0913 H   0  0  0  0  0  0  0  0  0  0  0  0
  146.3241  138.3633  151.3369 H   0  0  0  0  0  0  0  0  0  0  0  0
  147.8846  138.5350  152.1186 H   0  0  0  0  0  0  0  0  0  0  0  0
  146.3283  137.1547  153.5486 H   0  0  0  0  0  0  0  0  0  0  0  0
  145.1630  138.4398  153.5376 H   0  0  0  0  0  0  0  0  0  0  0  0
  145.6948  135.7838  159.9148 H   0  0  0  0  0  0  0  0  0  0  0  0
  145.2502  137.1890  158.9610 H   0  0  0  0  0  0  0  0  0  0  0  0
  146.0114  137.4102  160.5302 H   0  0  0  0  0  0  0  0  0  0  0  0
  147.1685  140.6249  151.3422 H   0  0  0  0  0  0  0  0  0  0  0  0
  1  2  1  0  0  0  0
  1 23  1  0  0  0  0
  1 24  1  0  0  0  0
  1 25  1  0  0  0  0
  2  3  1  0  0  0  0
  3  4  1  0  0  0  0
  3 26  1  0  0  0  0
  3 27  1  0  0  0  0
  4  5  1  0  0  0  0
  4 28  1  0  0  0  0
  4 29  1  0  0  0  0
  5 15  1  0  0  0  0
  5  6  1  0  0  0  0
  6  7  1  0  0  0  0
  6 13  2  0  0  0  0
  7 12  1  0  0  0  0
  7  8  1  0  0  0  0
  8  9  1  0  0  0  0
  8 30  1  0  0  0  0
  8 31  1  0  0  0  0
  9 10  1  0  0  0  0
  9 32  1  0  0  0  0
  9 33  1  0  0  0  0
 10 11  1  0  0  0  0
 10 34  1  0  0  0  0
 10 42  1  0  0  0  0
 11 12  1  0  0  0  0
 11 35  1  0  0  0  0
 11 36  1  0  0  0  0
 12 37  1  0  0  0  0
 12 38  1  0  0  0  0
 13 14  1  0  0  0  0
 14 21  1  0  0  0  0
 14 15  2  0  0  0  0
 15 16  1  0  0  0  0
 16 17  2  0  0  0  0
 16 18  1  0  0  0  0
 18 19  1  0  0  0  0
 19 20  2  0  0  0  0
 19 21  1  0  0  0  0
 21 22  1  0  0  0  0
 22 39  1  0  0  0  0
 22 40  1  0  0  0  0
 22 41  1  0  0  0  0
M  CHG  1  10   1
M  CHG  1  18  -1
M  END
> <s_m_source_file>
AV-unprocessed.smi

> <i_m_source_file_index>
513

> <i_lp_mmshare_version>
43012

> <i_f3d_flags>
0

> <s_epik_input>
W0NIM11uMWMoPU8pW25IXWMoPU8pYyhjMTIpbihbQ0gyXVtDSDJdT1tDSDNdKWMobjIpTjNbQ0gyXVtDSDJdW05IXVtDSDJdW0NIMl0z

> <s_epik_cmdline>
J2VwaWtfcHl0aG9uJywgJy1waCcsICc3LjAnLCAnLXRuJywgJzgnLCAnLW1hJywgJzIwMCcsICctbWV0YWxfYmluZGluZycsICctaW1hZScsICc8aW5maWxlLm1hZT4nLCAnLW9tYWUnLCAnPG91dGZpbGUubWFlPic=

> <r_epik_Ionization_Penalty>
5.91573

> <r_epik_Ionization_Penalty_Charging>
0.0691516

> <r_epik_Ionization_Penalty_Neutral>
5.84657

> <r_epik_State_Penalty>
5.85298

> <r_epik_Charging_Adjusted_Penalty>
5.92213

> <i_epik_Tot_Q>
0

> <i_epik_Tot_abs_Q>
2

> <r_epik_Metal_State_Penalty>
1.81849

> <b_epik_Metal_Only>
1

> <s_lp_Force_Field>
OPLS_2005

> <r_lp_Energy>
49.8146

> <b_lp_Chiralities_Consistent>
1

> <s_lp_Variant>
AV-unprocessed.smi:513-3

> <Gold.Version>
5.8.1

> <Gold.Id.Protein>
6NUR|6NUR_protein|mol2

> <Gold.PLP.Fitness>
37.6022

> <Gold.PLP.PLP>
-24.7000

> <Gold.PLP.part.hbond>
-4.1666

> <Gold.PLP.part.metal>
0.0000

> <Gold.PLP.part.buried>
-3.8176

> <Gold.PLP.part.nonpolar>
-18.0534

> <Gold.PLP.part.repulsive>
0.1421

> <Gold.PLP.ligand.clash>
0.0000

> <Gold.PLP.ligand.torsion>
1.7615

> <Gold.PLP.Chemscore.Hbond>
5.2983

> <Gold.PLP.Chemscore.CHOScore>
0.0000

> <Gold.PLP.Chemscore.Metal>
0.0000

> <Gold.Chemscore.Hbonds>
donor molecule, donor type, donor heavy atom, donor atom, acceptor molecule, acceptor atom, score
      L1  H    10    34       P1 10175  1.73
      P1  H  6896  6907       L1    18  2.00
      P1  H  7989  7998       L1     2  1.00

> <Gold.PLP.Chemscore.Internal.Correction>
0.5302

> <Gold.Rescore>
     Score         DG    S(hbond)    S(metal)    S(lipo)     H(rot)  DE(clash)    DE(int)     intcor
     13.31     -15.31       2.62        0.00      43.26       1.55       0.25       1.76       ----

> <Gold.Chemscore.Fitness>
13.3079

> <Gold.Chemscore.DG>
-15.3108

> <Gold.Chemscore.ZeroCoef>
-5.4800

> <Gold.Chemscore.Hbond>
2.6179

> <Gold.Chemscore.Metal>
0.0000

> <Gold.Chemscore.Lipo>
43.2599

> <Gold.Chemscore.Internal_Hbond>
0.0000

> <Gold.Chemscore.DEClash>
0.2459

> <Gold.Chemscore.DEInternal>
1.7569

> <Gold.Chemscore.Rot>
1.5526

> <Gold.Chemscore.Internal.Correction>
   9.000000E+99

> <Gold.Chemscore.Hbonds>
donor molecule, donor type, donor heavy atom, donor atom, acceptor molecule, acceptor atom, score
      L1  H    10    34       P1 10175  0.16
      L1  H    10    42       P1  7957  0.01
      P1  H  6896  6907       L1    18  0.79
      P1  H  7989  7998       L1     2  0.62

> <Gold.Chemscore.Hbond.Weighted>
-8.7439

> <Gold.Chemscore.Metal.Weighted>
-0.0000

> <Gold.Chemscore.Lipo.Weighted>
-5.0614

> <Gold.Chemscore.Internal_Hbond.Weighted>
0.0000

> <Gold.Chemscore.DEClash.Weighted>
0.2459

> <Gold.Chemscore.DEInternal.Weighted>
1.7569

> <Gold.Chemscore.Rot.Weighted>
3.9745

> <Gold.Chemscore.Internal.Correction.Weighted>
   9.000000E+99

> <Gold.Protein.RotatedTorsions>
[ 6907 6896 6895 6894 ] final  -46.15 input  -60.11 | X-H torsion
[ 7974 7965 7964 7962 ] final -160.60 input  175.53 | X-H torsion
[ 8008 7997 7996 7995 ] final   -6.80 input   59.86 | X-H torsion
[ 10167 10162 10161 10158 ] final -117.37 input  -65.29 | X-H torsion
[ 10718 10713 10712 10709 ] final   56.37 input   66.30 | X-H torsion
[ 10763 10752 10751 10750 ] final -147.84 input  -60.55 | X-H torsion
[ 11005 11000 10999 10996 ] final  -27.77 input  -57.11 | X-H torsion

> <Gold.Protein.ActiveResidues>
 VAL166  LYS551  ARG553  GLY616  TRP617  ASP618  TYR619  PRO620  LYS621  CYS622 
 ASP623  PHE694  ASN695  SER759  ASP760  ASP761  ALA762  ILE779  LEU786  VAL792 
 PHE793  MET794  SER795  GLU796  ALA797  LYS798  CYS799  TRP800  GLU811  SER814 

> <Gold.Protein.RotatedAtoms>
  150.9143  134.8561  159.7446 H   0  0  0  0  0  0  0  0  0  0  0  0  # atno 6907 bound_to 6896
  152.4960  134.4312  159.9523 H   0  0  0  0  0  0  0  0  0  0  0  0  # atno 6908 bound_to 6896
  151.4351  133.3619  159.2809 H   0  0  0  0  0  0  0  0  0  0  0  0  # atno 6909 bound_to 6896
  144.7421  140.3518  143.6114 H   0  0  0  0  0  0  0  0  0  0  0  0  # atno 7974 bound_to 7965
  154.5902  140.2423  155.7932 H   0  0  0  0  0  0  0  0  0  0  0  0  # atno 8008 bound_to 7997
  156.2241  140.2988  155.9979 H   0  0  0  0  0  0  0  0  0  0  0  0  # atno 8009 bound_to 7997
  155.2388  140.0406  157.2962 H   0  0  0  0  0  0  0  0  0  0  0  0  # atno 8010 bound_to 7997
  140.0691  143.4894  152.1990 H   0  0  0  0  0  0  0  0  0  0  0  0  # atno 10167 bound_to 10162
  157.5425  130.8707  149.8843 H   0  0  0  0  0  0  0  0  0  0  0  0  # atno 10718 bound_to 10713
  154.8265  135.3350  154.6880 H   0  0  0  0  0  0  0  0  0  0  0  0  # atno 10763 bound_to 10752
  153.7506  135.6939  153.4951 H   0  0  0  0  0  0  0  0  0  0  0  0  # atno 10764 bound_to 10752
  153.2179  135.4459  155.0406 H   0  0  0  0  0  0  0  0  0  0  0  0  # atno 10765 bound_to 10752
  140.9149  133.7437  156.0721 H   0  0  0  0  0  0  0  0  0  0  0  0  # atno 11005 bound_to 11000
  145.7268  139.1725  143.2453 LP  0  0  0  0  0  0  0  0  0  0  0  0  # atno 17320 bound_to 7965
  146.1236  140.7277  142.9446 LP  0  0  0  0  0  0  0  0  0  0  0  0  # atno 17321 bound_to 7965
  139.5847  144.7526  151.3551 LP  0  0  0  0  0  0  0  0  0  0  0  0  # atno 17342 bound_to 10162
  140.7134  143.7330  150.7610 LP  0  0  0  0  0  0  0  0  0  0  0  0  # atno 17343 bound_to 10162
  156.0509  130.3718  150.1205 LP  0  0  0  0  0  0  0  0  0  0  0  0  # atno 17370 bound_to 10713
  156.9383  130.9736  151.3520 LP  0  0  0  0  0  0  0  0  0  0  0  0  # atno 17371 bound_to 10713
  140.8063  134.3451  157.5425 LP  0  0  0  0  0  0  0  0  0  0  0  0  # atno 17394 bound_to 11000
  139.8764  134.9227  156.3308 LP  0  0  0  0  0  0  0  0  0  0  0  0  # atno 17395 bound_to 11000

$$$$
