AV-unprocessed.smi:281|AV-procd|sdf|2112|dock10
  -GOLD-   2262021403D 1   1.00000     0.00000
 Structure written by MMmdl.
 55 59  0  0  0  0  0  0  0  0  1 V2000
  150.5693  138.4799  153.8253 C   0  0  0  0  0  0  0  0  0  0  0  0
  150.5795  137.6817  155.1328 C   0  0  1  0  0  0  0  0  0  0  0  0
  150.5335  136.1680  154.8819 C   0  0  0  0  0  0  0  0  0  0  0  0
  150.6312  135.4477  156.1474 N   0  0  0  0  0  0  0  0  0  0  0  0
  150.3667  134.1148  156.1338 C   0  0  0  0  0  0  0  0  0  0  0  0
  150.7396  133.3384  157.1874 N   0  0  0  0  0  0  0  0  0  0  0  0
  150.4768  132.0287  157.1918 C   0  0  0  0  0  0  0  0  0  0  0  0
  149.8620  131.2987  156.2603 N   0  0  0  0  0  0  0  0  0  0  0  0
  149.4876  132.0671  155.1981 C   0  0  0  0  0  0  0  0  0  0  0  0
  149.7024  133.4675  155.0524 C   0  0  0  0  0  0  0  0  0  0  0  0
  149.2024  133.8932  153.8274 N   0  0  0  0  0  0  0  0  0  0  0  0
  148.7133  132.8118  153.2860 C   0  0  0  0  0  0  0  0  0  0  0  0
  148.8302  131.6707  154.0462 N   0  0  0  0  0  0  0  0  0  0  0  0
  148.3763  130.3348  153.6918 C   0  0  0  0  0  0  0  0  0  0  0  0
  146.8336  130.1856  153.6489 C   0  0  2  0  0  0  0  0  0  0  0  0
  146.2967  130.3712  154.9450 O   0  0  0  0  0  0  0  0  0  0  0  0
  146.4049  128.8279  153.1164 C   0  0  0  0  0  0  0  0  0  0  0  0
  146.4168  129.0391  151.6049 C   0  0  0  0  0  0  0  0  0  0  0  0
  146.1193  130.4172  151.4022 O   0  0  0  0  0  0  0  0  0  0  0  0
  146.1376  131.1146  152.6445 C   0  0  0  0  0  0  0  0  0  0  0  0
  151.8090  135.8234  156.9240 C   0  0  0  0  0  0  0  0  0  0  0  0
  151.9156  137.3600  157.1107 C   0  0  2  0  0  0  0  0  0  0  0  0
  153.3009  137.7360  157.6291 C   0  0  0  0  0  0  0  0  0  0  0  0
  153.0480  138.9955  158.4399 C   0  0  0  0  0  0  0  0  0  0  0  0
  151.8358  138.6789  159.0960 O   0  0  0  0  0  0  0  0  0  0  0  0
  150.9788  138.0376  158.1575 C   0  0  2  0  0  0  0  0  0  0  0  0
  150.0116  137.1293  158.9298 C   0  0  0  0  0  0  0  0  0  0  0  0
  151.7776  138.0027  155.8387 O   0  0  0  0  0  0  0  0  0  0  0  0
  149.6662  138.2766  153.2490 H   0  0  0  0  0  0  0  0  0  0  0  0
  151.4281  138.2286  153.2022 H   0  0  0  0  0  0  0  0  0  0  0  0
  150.6029  139.5514  154.0229 H   0  0  0  0  0  0  0  0  0  0  0  0
  149.7083  137.9753  155.7190 H   0  0  0  0  0  0  0  0  0  0  0  0
  149.6029  135.9100  154.3747 H   0  0  0  0  0  0  0  0  0  0  0  0
  151.3558  135.8710  154.2290 H   0  0  0  0  0  0  0  0  0  0  0  0
  150.8050  131.4888  158.0677 H   0  0  0  0  0  0  0  0  0  0  0  0
  148.2471  132.8183  152.3114 H   0  0  0  0  0  0  0  0  0  0  0  0
  148.8127  130.0763  152.7263 H   0  0  0  0  0  0  0  0  0  0  0  0
  148.7992  129.6328  154.4120 H   0  0  0  0  0  0  0  0  0  0  0  0
  145.3686  130.5306  154.8659 H   0  0  0  0  0  0  0  0  0  0  0  0
  147.0474  128.0078  153.4392 H   0  0  0  0  0  0  0  0  0  0  0  0
  145.3868  128.5968  153.4346 H   0  0  0  0  0  0  0  0  0  0  0  0
  147.4062  128.8329  151.1953 H   0  0  0  0  0  0  0  0  0  0  0  0
  145.7000  128.3977  151.0917 H   0  0  0  0  0  0  0  0  0  0  0  0
  145.0984  131.2783  152.9345 H   0  0  0  0  0  0  0  0  0  0  0  0
  146.6012  132.0952  152.5488 H   0  0  0  0  0  0  0  0  0  0  0  0
  151.8358  135.3238  157.8913 H   0  0  0  0  0  0  0  0  0  0  0  0
  152.6848  135.4678  156.3792 H   0  0  0  0  0  0  0  0  0  0  0  0
  153.6802  136.9597  158.2954 H   0  0  0  0  0  0  0  0  0  0  0  0
  154.0359  137.8798  156.8362 H   0  0  0  0  0  0  0  0  0  0  0  0
  153.8474  139.2111  159.1490 H   0  0  0  0  0  0  0  0  0  0  0  0
  152.9091  139.8633  157.7929 H   0  0  0  0  0  0  0  0  0  0  0  0
  150.4034  138.8313  157.6798 H   0  0  0  0  0  0  0  0  0  0  0  0
  149.3113  136.6304  158.2605 H   0  0  0  0  0  0  0  0  0  0  0  0
  149.4230  137.7112  159.6392 H   0  0  0  0  0  0  0  0  0  0  0  0
  150.5464  136.3690  159.4987 H   0  0  0  0  0  0  0  0  0  0  0  0
  1  2  1  0  0  0  0
  1 29  1  0  0  0  0
  1 30  1  0  0  0  0
  1 31  1  0  0  0  0
  2 28  1  0  0  0  0
  2  3  1  0  0  0  0
  2 32  1  0  0  0  0
  3  4  1  0  0  0  0
  3 33  1  0  0  0  0
  3 34  1  0  0  0  0
  4  5  1  0  0  0  0
  4 21  1  0  0  0  0
  5 10  1  0  0  0  0
  5  6  2  0  0  0  0
  6  7  1  0  0  0  0
  7  8  2  0  0  0  0
  7 35  1  0  0  0  0
  8  9  1  0  0  0  0
  9 13  1  0  0  0  0
  9 10  2  0  0  0  0
 10 11  1  0  0  0  0
 11 12  2  0  0  0  0
 12 13  1  0  0  0  0
 12 36  1  0  0  0  0
 13 14  1  0  0  0  0
 14 15  1  0  0  0  0
 14 37  1  0  0  0  0
 14 38  1  0  0  0  0
 15 20  1  0  0  0  0
 15 16  1  0  0  0  0
 15 17  1  0  0  0  0
 16 39  1  0  0  0  0
 17 18  1  0  0  0  0
 17 40  1  0  0  0  0
 17 41  1  0  0  0  0
 18 19  1  0  0  0  0
 18 42  1  0  0  0  0
 18 43  1  0  0  0  0
 19 20  1  0  0  0  0
 20 44  1  0  0  0  0
 20 45  1  0  0  0  0
 21 22  1  0  0  0  0
 21 46  1  0  0  0  0
 21 47  1  0  0  0  0
 22 26  1  0  0  0  0
 22 23  1  0  0  0  0
 22 28  1  0  0  0  0
 23 24  1  0  0  0  0
 23 48  1  0  0  0  0
 23 49  1  0  0  0  0
 24 25  1  0  0  0  0
 24 50  1  0  0  0  0
 24 51  1  0  0  0  0
 25 26  1  0  0  0  0
 26 27  1  0  0  0  0
 26 52  1  0  0  0  0
 27 53  1  0  0  0  0
 27 54  1  0  0  0  0
 27 55  1  0  0  0  0
M  END
> <s_m_source_file>
AV-unprocessed.smi

> <i_m_source_file_index>
281

> <i_lp_mmshare_version>
43012

> <i_f3d_flags>
0

> <s_epik_input>
W0NIM11bQ0BASF0xT1tDSDJdW0NIMl1bQ0BAXTEyW0NIMl1OKFtDSDJdW0NASF0oTzIpW0NIM10pYyhuW2NIXW4zKWMoYzM0KW5bY0hdbjRbQ0gyXVtDQEBdNShbT0hdKVtDSDJdW0NIMl1PW0NIMl01

> <s_epik_cmdline>
J2VwaWtfcHl0aG9uJywgJy1waCcsICc3LjAnLCAnLXRuJywgJzgnLCAnLW1hJywgJzIwMCcsICctbWV0YWxfYmluZGluZycsICctaW1hZScsICc8aW5maWxlLm1hZT4nLCAnLW9tYWUnLCAnPG91dGZpbGUubWFlPic=

> <r_lp_tautomer_probability>
1

> <r_epik_Ionization_Penalty>
0.00571331

> <r_epik_Ionization_Penalty_Charging>
0

> <r_epik_Ionization_Penalty_Neutral>
0.00571331

> <r_epik_State_Penalty>
0.00399586

> <r_epik_Charging_Adjusted_Penalty>
0.00399586

> <i_epik_Tot_Q>
0

> <i_epik_Tot_abs_Q>
0

> <r_epik_Metal_State_Penalty>
-0

> <b_epik_Metal_Only>
0

> <s_lp_Force_Field>
OPLS_2005

> <r_lp_Energy>
53.9998

> <b_lp_Chiralities_Consistent>
1

> <s_lp_Variant>
AV-unprocessed.smi:281-12

> <Gold.Version>
5.8.1

> <Gold.Id.Protein>
6NUR|6NUR_protein|mol2

> <Gold.PLP.Fitness>
40.3200

> <Gold.PLP.PLP>
-35.4402

> <Gold.PLP.part.hbond>
-1.9497

> <Gold.PLP.part.metal>
0.0000

> <Gold.PLP.part.buried>
-5.9542

> <Gold.PLP.part.nonpolar>
-29.9851

> <Gold.PLP.part.repulsive>
0.8045

> <Gold.PLP.ligand.clash>
0.0000

> <Gold.PLP.ligand.torsion>
0.6552

> <Gold.PLP.Chemscore.Hbond>
1.6012

> <Gold.PLP.Chemscore.CHOScore>
0.3736

> <Gold.PLP.Chemscore.Metal>
0.0000

> <Gold.Chemscore.Hbonds>
donor molecule, donor type, donor heavy atom, donor atom, acceptor molecule, acceptor atom, score
      L1  H    16    39       P1 10956  0.30
      P1  H  6896  6907       L1     6  0.79
      L1  C    12    36       P1 10747  0.05

> <Gold.PLP.Chemscore.Internal.Correction>
0.2657

> <Gold.Rescore>
     Score         DG    S(hbond)    S(metal)    S(lipo)     H(rot)  DE(clash)    DE(int)     intcor
     11.54     -13.84       1.38        0.00      77.82       2.09       0.28       2.01       ----

> <Gold.Chemscore.Fitness>
11.5427

> <Gold.Chemscore.DG>
-13.8357

> <Gold.Chemscore.ZeroCoef>
-5.4800

> <Gold.Chemscore.Hbond>
1.3798

> <Gold.Chemscore.Metal>
0.0000

> <Gold.Chemscore.Lipo>
77.8165

> <Gold.Chemscore.Internal_Hbond>
0.0000

> <Gold.Chemscore.DEClash>
0.2802

> <Gold.Chemscore.DEInternal>
2.0129

> <Gold.Chemscore.Rot>
2.0927

> <Gold.Chemscore.Internal.Correction>
   9.000000E+99

> <Gold.Chemscore.Hbonds>
donor molecule, donor type, donor heavy atom, donor atom, acceptor molecule, acceptor atom, score
      L1  H    16    39       P1 10956  0.08
      P1  H  6896  6907       L1     6  0.17

> <Gold.Chemscore.Hbond.Weighted>
-4.6086

> <Gold.Chemscore.Metal.Weighted>
-0.0000

> <Gold.Chemscore.Lipo.Weighted>
-9.1045

> <Gold.Chemscore.Internal_Hbond.Weighted>
0.0000

> <Gold.Chemscore.DEClash.Weighted>
0.2802

> <Gold.Chemscore.DEInternal.Weighted>
2.0129

> <Gold.Chemscore.Rot.Weighted>
5.3573

> <Gold.Chemscore.Internal.Correction.Weighted>
   9.000000E+99

> <Gold.Protein.RotatedTorsions>
[ 6907 6896 6895 6894 ] final -134.42 input  -60.11 | X-H torsion
[ 7974 7965 7964 7962 ] final   49.50 input  175.53 | X-H torsion
[ 8008 7997 7996 7995 ] final   55.58 input   59.86 | X-H torsion
[ 10167 10162 10161 10158 ] final  133.09 input  -65.29 | X-H torsion
[ 10718 10713 10712 10709 ] final   28.12 input   66.30 | X-H torsion
[ 10763 10752 10751 10750 ] final   41.86 input  -60.55 | X-H torsion
[ 11005 11000 10999 10996 ] final   46.28 input  -57.11 | X-H torsion

> <Gold.Protein.ActiveResidues>
 VAL166  LYS551  ARG553  GLY616  TRP617  ASP618  TYR619  PRO620  LYS621  CYS622 
 ASP623  PHE694  ASN695  SER759  ASP760  ASP761  ALA762  ILE779  LEU786  VAL792 
 PHE793  MET794  SER795  GLU796  ALA797  LYS798  CYS799  TRP800  GLU811  SER814 

> <Gold.Protein.RotatedAtoms>
  150.9856  133.6201  159.2715 H   0  0  0  0  0  0  0  0  0  0  0  0  # atno 6907 bound_to 6896
  151.3440  135.0869  159.9390 H   0  0  0  0  0  0  0  0  0  0  0  0  # atno 6908 bound_to 6896
  152.5230  133.9462  159.7704 H   0  0  0  0  0  0  0  0  0  0  0  0  # atno 6909 bound_to 6896
  146.0103  139.4536  142.9960 H   0  0  0  0  0  0  0  0  0  0  0  0  # atno 7974 bound_to 7965
  155.5035  140.3475  155.4375 H   0  0  0  0  0  0  0  0  0  0  0  0  # atno 8008 bound_to 7997
  156.0898  140.1407  156.9634 H   0  0  0  0  0  0  0  0  0  0  0  0  # atno 8009 bound_to 7997
  154.4628  140.0928  156.6916 H   0  0  0  0  0  0  0  0  0  0  0  0  # atno 8010 bound_to 7997
  139.5311  144.6632  151.4946 H   0  0  0  0  0  0  0  0  0  0  0  0  # atno 10167 bound_to 10162
  157.2292  130.7015  149.6305 H   0  0  0  0  0  0  0  0  0  0  0  0  # atno 10718 bound_to 10713
  152.9897  135.6149  154.2856 H   0  0  0  0  0  0  0  0  0  0  0  0  # atno 10763 bound_to 10752
  154.2584  135.2783  155.2790 H   0  0  0  0  0  0  0  0  0  0  0  0  # atno 10764 bound_to 10752
  154.5227  135.5810  153.6751 H   0  0  0  0  0  0  0  0  0  0  0  0  # atno 10765 bound_to 10752
  140.1383  134.4616  155.8468 H   0  0  0  0  0  0  0  0  0  0  0  0  # atno 11005 bound_to 11000
  145.7352  141.0028  143.1330 LP  0  0  0  0  0  0  0  0  0  0  0  0  # atno 17320 bound_to 7965
  144.6950  139.9032  143.7459 LP  0  0  0  0  0  0  0  0  0  0  0  0  # atno 17321 bound_to 7965
  140.6490  143.8735  150.6766 LP  0  0  0  0  0  0  0  0  0  0  0  0  # atno 17342 bound_to 10162
  140.2094  143.3896  152.1730 LP  0  0  0  0  0  0  0  0  0  0  0  0  # atno 17343 bound_to 10162
  155.9676  130.4494  150.5658 LP  0  0  0  0  0  0  0  0  0  0  0  0  # atno 17370 bound_to 10713
  157.3496  131.0731  151.1724 LP  0  0  0  0  0  0  0  0  0  0  0  0  # atno 17371 bound_to 10713
  141.2182  133.6823  156.7199 LP  0  0  0  0  0  0  0  0  0  0  0  0  # atno 17394 bound_to 11000
  140.2754  134.8359  157.3885 LP  0  0  0  0  0  0  0  0  0  0  0  0  # atno 17395 bound_to 11000

$$$$
