AV-unprocessed.smi:301|AV-procd|sdf|2271|dock3
  -GOLD-   2262022163D 1   1.00000     0.00000
 Structure written by MMmdl.
 32 33  0  0  0  0  0  0  0  0  1 V2000
  154.2155  140.3429  161.5476 C   0  0  0  0  0  0  0  0  0  0  0  0
  153.4551  141.5702  161.1780 C   0  0  0  0  0  0  0  0  0  0  0  0
  153.1435  141.8943  159.9207 N   0  0  0  0  0  0  0  0  0  0  0  0
  152.4361  143.0981  159.8325 C   0  0  0  0  0  0  0  0  0  0  0  0
  152.0061  143.6186  158.4900 C   0  0  0  0  0  0  0  0  0  0  0  0
  151.0075  142.6698  157.8164 C   0  0  0  0  0  0  0  0  0  0  0  0
  149.9315  142.4028  158.3534 O   0  0  0  0  0  0  0  0  0  0  0  0
  151.3771  142.1683  156.6278 N   0  0  0  0  0  0  0  0  0  0  0  0
  150.5861  141.2402  155.8279 C   0  0  0  0  0  0  0  0  0  0  0  0
  151.1228  139.8036  155.9368 C   0  0  1  0  0  0  0  0  0  0  0  0
  150.5064  138.8397  154.9242 C   0  0  0  0  0  0  0  0  0  0  0  0
  151.5874  137.7904  154.8057 C   0  0  0  0  0  0  0  0  0  0  0  0
  152.8510  138.6427  154.8641 C   0  0  0  0  0  0  0  0  0  0  0  0
  152.5247  139.7704  155.6726 O   0  0  0  0  0  0  0  0  0  0  0  0
  152.2061  143.6791  161.0557 C   0  0  0  0  0  0  0  0  0  0  0  0
  152.8830  142.7417  162.3590 S   0  0  0  0  0  0  0  0  0  0  0  0
  154.1808  139.6128  160.7384 H   0  0  0  0  0  0  0  0  0  0  0  0
  153.7862  139.8914  162.4423 H   0  0  0  0  0  0  0  0  0  0  0  0
  155.2566  140.5967  161.7467 H   0  0  0  0  0  0  0  0  0  0  0  0
  151.5384  144.5992  158.5856 H   0  0  0  0  0  0  0  0  0  0  0  0
  152.8765  143.7542  157.8463 H   0  0  0  0  0  0  0  0  0  0  0  0
  152.2768  142.4369  156.2563 H   0  0  0  0  0  0  0  0  0  0  0  0
  149.5411  141.2780  156.1398 H   0  0  0  0  0  0  0  0  0  0  0  0
  150.6107  141.5722  154.7897 H   0  0  0  0  0  0  0  0  0  0  0  0
  150.9608  139.4080  156.9410 H   0  0  0  0  0  0  0  0  0  0  0  0
  149.5489  138.4336  155.2516 H   0  0  0  0  0  0  0  0  0  0  0  0
  150.3584  139.3318  153.9618 H   0  0  0  0  0  0  0  0  0  0  0  0
  151.5485  137.1145  155.6611 H   0  0  0  0  0  0  0  0  0  0  0  0
  151.5138  137.1963  153.8945 H   0  0  0  0  0  0  0  0  0  0  0  0
  153.7038  138.0957  155.2667 H   0  0  0  0  0  0  0  0  0  0  0  0
  153.1167  138.9983  153.8678 H   0  0  0  0  0  0  0  0  0  0  0  0
  151.6868  144.6022  161.2669 H   0  0  0  0  0  0  0  0  0  0  0  0
  1  2  1  0  0  0  0
  1 17  1  0  0  0  0
  1 18  1  0  0  0  0
  1 19  1  0  0  0  0
  2 16  1  0  0  0  0
  2  3  2  0  0  0  0
  3  4  1  0  0  0  0
  4  5  1  0  0  0  0
  4 15  2  0  0  0  0
  5  6  1  0  0  0  0
  5 20  1  0  0  0  0
  5 21  1  0  0  0  0
  6  7  2  0  0  0  0
  6  8  1  0  0  0  0
  8  9  1  0  0  0  0
  8 22  1  0  0  0  0
  9 10  1  0  0  0  0
  9 23  1  0  0  0  0
  9 24  1  0  0  0  0
 10 14  1  0  0  0  0
 10 11  1  0  0  0  0
 10 25  1  0  0  0  0
 11 12  1  0  0  0  0
 11 26  1  0  0  0  0
 11 27  1  0  0  0  0
 12 13  1  0  0  0  0
 12 28  1  0  0  0  0
 12 29  1  0  0  0  0
 13 14  1  0  0  0  0
 13 30  1  0  0  0  0
 13 31  1  0  0  0  0
 15 16  1  0  0  0  0
 15 32  1  0  0  0  0
M  END
> <s_m_source_file>
AV-unprocessed.smi

> <i_m_source_file_index>
301

> <i_lp_mmshare_version>
43012

> <i_f3d_flags>
0

> <s_epik_input>
W0NIM11jMW5jKFtjSF1zMSlbQ0gyXUMoPU8pW05IXVtDSDJdW0NAQEhdMltDSDJdW0NIMl1bQ0gyXU8y

> <s_epik_cmdline>
J2VwaWtfcHl0aG9uJywgJy1waCcsICc3LjAnLCAnLXRuJywgJzgnLCAnLW1hJywgJzIwMCcsICctbWV0YWxfYmluZGluZycsICctaW1hZScsICc8aW5maWxlLm1hZT4nLCAnLW9tYWUnLCAnPG91dGZpbGUubWFlPic=

> <r_lp_tautomer_probability>
1

> <r_epik_Ionization_Penalty>
6.06873e-05

> <r_epik_Ionization_Penalty_Charging>
0

> <r_epik_Ionization_Penalty_Neutral>
6.06873e-05

> <r_epik_State_Penalty>
-0

> <r_epik_Charging_Adjusted_Penalty>
0

> <i_epik_Tot_Q>
0

> <i_epik_Tot_abs_Q>
0

> <r_epik_Metal_State_Penalty>
-0

> <b_epik_Metal_Only>
0

> <s_lp_Force_Field>
OPLS_2005

> <r_lp_Energy>
16.0562

> <b_lp_Chiralities_Consistent>
1

> <s_lp_Variant>
AV-unprocessed.smi:301-2

> <Gold.Version>
5.8.1

> <Gold.Id.Protein>
6NUR|6NUR_protein|mol2

> <Gold.PLP.Fitness>
43.2878

> <Gold.PLP.PLP>
-40.7771

> <Gold.PLP.part.hbond>
-1.5073

> <Gold.PLP.part.metal>
0.0000

> <Gold.PLP.part.buried>
-3.6798

> <Gold.PLP.part.nonpolar>
-36.3577

> <Gold.PLP.part.repulsive>
0.2059

> <Gold.PLP.ligand.clash>
0.0000

> <Gold.PLP.ligand.torsion>
0.1762

> <Gold.PLP.Chemscore.Hbond>
0.9506

> <Gold.PLP.Chemscore.CHOScore>
0.0000

> <Gold.PLP.Chemscore.Metal>
0.0000

> <Gold.Chemscore.Hbonds>
donor molecule, donor type, donor heavy atom, donor atom, acceptor molecule, acceptor atom, score
      P1  H  7997  8009       L1    14  0.85

> <Gold.PLP.Chemscore.Internal.Correction>
0.0113

> <Gold.Rescore>
     Score         DG    S(hbond)    S(metal)    S(lipo)     H(rot)  DE(clash)    DE(int)     intcor
     13.72     -14.29       0.00        0.00     108.31       1.51       0.04       0.53       ----

> <Gold.Chemscore.Fitness>
13.7187

> <Gold.Chemscore.DG>
-14.2867

> <Gold.Chemscore.ZeroCoef>
-5.4800

> <Gold.Chemscore.Hbond>
0.0005

> <Gold.Chemscore.Metal>
0.0000

> <Gold.Chemscore.Lipo>
108.3091

> <Gold.Chemscore.Internal_Hbond>
0.0000

> <Gold.Chemscore.DEClash>
0.0414

> <Gold.Chemscore.DEInternal>
0.5266

> <Gold.Chemscore.Rot>
1.5106

> <Gold.Chemscore.Internal.Correction>
   9.000000E+99

> <Gold.Chemscore.Hbonds>
donor molecule, donor type, donor heavy atom, donor atom, acceptor molecule, acceptor atom, score
      P1  H  7997  8009       L1    14  0.14

> <Gold.Chemscore.Hbond.Weighted>
-0.0015

> <Gold.Chemscore.Metal.Weighted>
-0.0000

> <Gold.Chemscore.Lipo.Weighted>
-12.6722

> <Gold.Chemscore.Internal_Hbond.Weighted>
0.0000

> <Gold.Chemscore.DEClash.Weighted>
0.0414

> <Gold.Chemscore.DEInternal.Weighted>
0.5266

> <Gold.Chemscore.Rot.Weighted>
3.8670

> <Gold.Chemscore.Internal.Correction.Weighted>
   9.000000E+99

> <Gold.Protein.RotatedTorsions>
[ 6907 6896 6895 6894 ] final  -15.31 input  -60.11 | X-H torsion
[ 7974 7965 7964 7962 ] final   40.85 input  175.53 | X-H torsion
[ 8008 7997 7996 7995 ] final -163.36 input   59.86 | X-H torsion
[ 10167 10162 10161 10158 ] final  102.93 input  -65.29 | X-H torsion
[ 10718 10713 10712 10709 ] final  -92.29 input   66.30 | X-H torsion
[ 10763 10752 10751 10750 ] final  172.52 input  -60.55 | X-H torsion
[ 11005 11000 10999 10996 ] final  169.88 input  -57.11 | X-H torsion

> <Gold.Protein.ActiveResidues>
 VAL166  LYS551  ARG553  GLY616  TRP617  ASP618  TYR619  PRO620  LYS621  CYS622 
 ASP623  PHE694  ASN695  SER759  ASP760  ASP761  ALA762  ILE779  LEU786  VAL792 
 PHE793  MET794  SER795  GLU796  ALA797  LYS798  CYS799  TRP800  GLU811  SER814 

> <Gold.Protein.RotatedAtoms>
  151.3259  135.0830  159.9321 H   0  0  0  0  0  0  0  0  0  0  0  0  # atno 6907 bound_to 6896
  152.5246  133.9592  159.7719 H   0  0  0  0  0  0  0  0  0  0  0  0  # atno 6908 bound_to 6896
  150.9922  133.6086  159.2737 H   0  0  0  0  0  0  0  0  0  0  0  0  # atno 6909 bound_to 6896
  146.0871  139.5484  142.9500 H   0  0  0  0  0  0  0  0  0  0  0  0  # atno 7974 bound_to 7965
  155.8202  140.0918  157.1853 H   0  0  0  0  0  0  0  0  0  0  0  0  # atno 8008 bound_to 7997
  154.3979  140.1438  156.3551 H   0  0  0  0  0  0  0  0  0  0  0  0  # atno 8009 bound_to 7997
  155.8274  140.3444  155.5554 H   0  0  0  0  0  0  0  0  0  0  0  0  # atno 8010 bound_to 7997
  139.7307  144.7036  151.0727 H   0  0  0  0  0  0  0  0  0  0  0  0  # atno 10167 bound_to 10162
  156.0001  130.4981  150.5603 H   0  0  0  0  0  0  0  0  0  0  0  0  # atno 10718 bound_to 10713
  154.4272  135.2759  155.1936 H   0  0  0  0  0  0  0  0  0  0  0  0  # atno 10763 bound_to 10752
  154.3857  135.6077  153.5819 H   0  0  0  0  0  0  0  0  0  0  0  0  # atno 10764 bound_to 10752
  152.9835  135.5891  154.4578 H   0  0  0  0  0  0  0  0  0  0  0  0  # atno 10765 bound_to 10752
  140.3024  134.7584  157.3927 H   0  0  0  0  0  0  0  0  0  0  0  0  # atno 11005 bound_to 11000
  145.6109  141.0339  143.1967 LP  0  0  0  0  0  0  0  0  0  0  0  0  # atno 17320 bound_to 7965
  144.7333  139.7659  143.7339 LP  0  0  0  0  0  0  0  0  0  0  0  0  # atno 17321 bound_to 7965
  140.7770  143.5047  150.9727 LP  0  0  0  0  0  0  0  0  0  0  0  0  # atno 17342 bound_to 10162
  139.8735  143.7162  152.3164 LP  0  0  0  0  0  0  0  0  0  0  0  0  # atno 17343 bound_to 10162
  157.3513  131.0734  151.1711 LP  0  0  0  0  0  0  0  0  0  0  0  0  # atno 17370 bound_to 10713
  157.2526  130.6621  149.5938 LP  0  0  0  0  0  0  0  0  0  0  0  0  # atno 17371 bound_to 10713
  140.1097  134.5362  155.8277 LP  0  0  0  0  0  0  0  0  0  0  0  0  # atno 17394 bound_to 11000
  141.2125  133.6720  156.6666 LP  0  0  0  0  0  0  0  0  0  0  0  0  # atno 17395 bound_to 11000

$$$$
