AV-unprocessed.smi:1947|AV-procd|sdf|7865|dock7
  -GOLD-   2272010 13D 1   1.00000     0.00000
 Structure written by MMmdl.
 39 40  0  0  0  0  0  0  0  0  1 V2000
  154.1419  140.1093  159.2640 C   0  0  0  0  0  0  0  0  0  0  0  0
  153.3790  141.3874  158.8757 C   0  0  2  0  0  0  0  0  0  0  0  0
  153.0052  142.2023  160.1302 C   0  0  0  0  0  0  0  0  0  0  0  0
  152.2316  143.4801  159.7705 C   0  0  0  0  0  0  0  0  0  0  0  0
  150.9782  143.1533  158.9463 C   0  0  0  0  0  0  0  0  0  0  0  0
  151.3404  142.3513  157.6874 C   0  0  0  0  0  0  0  0  0  0  0  0
  152.1199  141.0676  158.0392 C   0  0  1  0  0  0  0  0  0  0  0  0
  152.5474  140.4287  156.8436 O   0  0  0  0  0  0  0  0  0  0  0  0
  151.5008  139.8608  156.0700 C   0  0  0  0  0  0  0  0  0  0  0  0
  152.1021  139.2861  154.7785 C   0  0  0  0  0  0  0  0  0  0  0  0
  151.4160  138.0671  154.3622 N   0  0  0  0  0  0  0  0  0  0  0  0
  151.6944  136.8333  154.8050 C   0  0  0  0  0  0  0  0  0  0  0  0
  152.5414  136.5967  155.6663 O   0  0  0  0  0  0  0  0  0  0  0  0
  150.9396  135.9137  154.1829 N   0  0  0  0  0  0  0  0  0  0  0  0
  150.9718  134.5060  154.3439 C   0  0  0  0  0  0  0  0  0  0  0  0
  151.6678  134.0068  155.3720 N   0  0  0  0  0  0  0  0  0  0  0  0
  151.6116  132.6188  155.4136 N   0  0  0  0  0  0  0  0  0  0  0  0
  150.8746  132.1253  154.4138 C   0  0  0  0  0  0  0  0  0  0  0  0
  150.1756  133.3065  153.3209 S   0  0  0  0  0  0  0  0  0  0  0  0
  153.5219  139.4446  159.8663 H   0  0  0  0  0  0  0  0  0  0  0  0
  155.0351  140.3462  159.8427 H   0  0  0  0  0  0  0  0  0  0  0  0
  154.4633  139.5537  158.3824 H   0  0  0  0  0  0  0  0  0  0  0  0
  154.0455  141.9994  158.2657 H   0  0  0  0  0  0  0  0  0  0  0  0
  152.4003  141.5896  160.8005 H   0  0  0  0  0  0  0  0  0  0  0  0
  153.9064  142.4666  160.6850 H   0  0  0  0  0  0  0  0  0  0  0  0
  151.9504  144.0132  160.6790 H   0  0  0  0  0  0  0  0  0  0  0  0
  152.8775  144.1525  159.2042 H   0  0  0  0  0  0  0  0  0  0  0  0
  150.2770  142.5817  159.5558 H   0  0  0  0  0  0  0  0  0  0  0  0
  150.4664  144.0745  158.6663 H   0  0  0  0  0  0  0  0  0  0  0  0
  150.4295  142.1069  157.1411 H   0  0  0  0  0  0  0  0  0  0  0  0
  151.9416  142.9729  157.0225 H   0  0  0  0  0  0  0  0  0  0  0  0
  151.4827  140.4001  158.6228 H   0  0  0  0  0  0  0  0  0  0  0  0
  150.9944  139.0729  156.6296 H   0  0  0  0  0  0  0  0  0  0  0  0
  150.7545  140.6174  155.8277 H   0  0  0  0  0  0  0  0  0  0  0  0
  152.0627  140.0273  153.9788 H   0  0  0  0  0  0  0  0  0  0  0  0
  153.1550  139.0502  154.9340 H   0  0  0  0  0  0  0  0  0  0  0  0
  150.7042  138.1694  153.6537 H   0  0  0  0  0  0  0  0  0  0  0  0
  150.2792  136.2578  153.5016 H   0  0  0  0  0  0  0  0  0  0  0  0
  150.7418  131.0576  154.3196 H   0  0  0  0  0  0  0  0  0  0  0  0
  1  2  1  0  0  0  0
  1 20  1  0  0  0  0
  1 21  1  0  0  0  0
  1 22  1  0  0  0  0
  2  7  1  0  0  0  0
  2  3  1  0  0  0  0
  2 23  1  0  0  0  0
  3  4  1  0  0  0  0
  3 24  1  0  0  0  0
  3 25  1  0  0  0  0
  4  5  1  0  0  0  0
  4 26  1  0  0  0  0
  4 27  1  0  0  0  0
  5  6  1  0  0  0  0
  5 28  1  0  0  0  0
  5 29  1  0  0  0  0
  6  7  1  0  0  0  0
  6 30  1  0  0  0  0
  6 31  1  0  0  0  0
  7  8  1  0  0  0  0
  7 32  1  0  0  0  0
  8  9  1  0  0  0  0
  9 10  1  0  0  0  0
  9 33  1  0  0  0  0
  9 34  1  0  0  0  0
 10 11  1  0  0  0  0
 10 35  1  0  0  0  0
 10 36  1  0  0  0  0
 11 12  1  0  0  0  0
 11 37  1  0  0  0  0
 12 13  2  0  0  0  0
 12 14  1  0  0  0  0
 14 15  1  0  0  0  0
 14 38  1  0  0  0  0
 15 19  1  0  0  0  0
 15 16  2  0  0  0  0
 16 17  1  0  0  0  0
 17 18  2  0  0  0  0
 18 19  1  0  0  0  0
 18 39  1  0  0  0  0
M  END
> <s_m_source_file>
AV-unprocessed.smi

> <i_m_source_file_index>
1947

> <i_lp_mmshare_version>
43012

> <i_f3d_flags>
0

> <s_epik_input>
W0NIM11bQ0BASF0xW0NIMl1bQ0gyXVtDSDJdW0NIMl1bQ0BIXTFPW0NIMl1bQ0gyXVtOSF1DKD1PKVtOSF1jMm5uW2NIXXMy

> <s_epik_cmdline>
J2VwaWtfcHl0aG9uJywgJy1waCcsICc3LjAnLCAnLXRuJywgJzgnLCAnLW1hJywgJzIwMCcsICctbWV0YWxfYmluZGluZycsICctaW1hZScsICc8aW5maWxlLm1hZT4nLCAnLW9tYWUnLCAnPG91dGZpbGUubWFlPic=

> <r_lp_tautomer_probability>
1

> <r_epik_Ionization_Penalty>
0.00220897

> <r_epik_Ionization_Penalty_Charging>
0

> <r_epik_Ionization_Penalty_Neutral>
0.00220897

> <r_epik_State_Penalty>
-0

> <r_epik_Charging_Adjusted_Penalty>
0

> <i_epik_Tot_Q>
0

> <i_epik_Tot_abs_Q>
0

> <r_epik_Metal_State_Penalty>
0.345002

> <b_epik_Metal_Only>
0

> <s_lp_Force_Field>
OPLS_2005

> <r_lp_Energy>
7.38762

> <b_lp_Chiralities_Consistent>
1

> <s_lp_Variant>
AV-unprocessed.smi:1947-1

> <Gold.Version>
5.8.1

> <Gold.Id.Protein>
6NUR|6NUR_protein|mol2

> <Gold.PLP.Fitness>
44.4138

> <Gold.PLP.PLP>
-36.3958

> <Gold.PLP.part.hbond>
-4.0000

> <Gold.PLP.part.metal>
0.0000

> <Gold.PLP.part.buried>
-2.1406

> <Gold.PLP.part.nonpolar>
-29.2193

> <Gold.PLP.part.repulsive>
0.2265

> <Gold.PLP.ligand.clash>
0.0000

> <Gold.PLP.ligand.torsion>
0.4967

> <Gold.PLP.Chemscore.Hbond>
3.0000

> <Gold.PLP.Chemscore.CHOScore>
0.0000

> <Gold.PLP.Chemscore.Metal>
0.0000

> <Gold.Chemscore.Hbonds>
donor molecule, donor type, donor heavy atom, donor atom, acceptor molecule, acceptor atom, score
      L1  H    14    38       P1  7948  0.33
      P1  H  7997  8010       L1     8  0.91
      P1  H 10752 10763       L1    13  0.61

> <Gold.PLP.Chemscore.Internal.Correction>
0.0114

> <Gold.Rescore>
     Score         DG    S(hbond)    S(metal)    S(lipo)     H(rot)  DE(clash)    DE(int)     intcor
     14.38     -16.30       1.63        0.00      88.52       1.94       0.01       1.91       ----

> <Gold.Chemscore.Fitness>
14.3806

> <Gold.Chemscore.DG>
-16.3049

> <Gold.Chemscore.ZeroCoef>
-5.4800

> <Gold.Chemscore.Hbond>
1.6260

> <Gold.Chemscore.Metal>
0.0000

> <Gold.Chemscore.Lipo>
88.5171

> <Gold.Chemscore.Internal_Hbond>
0.0000

> <Gold.Chemscore.DEClash>
0.0126

> <Gold.Chemscore.DEInternal>
1.9117

> <Gold.Chemscore.Rot>
1.9385

> <Gold.Chemscore.Internal.Correction>
   9.000000E+99

> <Gold.Chemscore.Hbonds>
donor molecule, donor type, donor heavy atom, donor atom, acceptor molecule, acceptor atom, score
      L1  H    14    38       P1  7948  0.01
      P1  H  7997  8010       L1     8  0.86
      P1  H 10752 10763       L1    13  0.31

> <Gold.Chemscore.Hbond.Weighted>
-5.4309

> <Gold.Chemscore.Metal.Weighted>
-0.0000

> <Gold.Chemscore.Lipo.Weighted>
-10.3565

> <Gold.Chemscore.Internal_Hbond.Weighted>
0.0000

> <Gold.Chemscore.DEClash.Weighted>
0.0126

> <Gold.Chemscore.DEInternal.Weighted>
1.9117

> <Gold.Chemscore.Rot.Weighted>
4.9625

> <Gold.Chemscore.Internal.Correction.Weighted>
   9.000000E+99

> <Gold.Protein.RotatedTorsions>
[ 6907 6896 6895 6894 ] final   57.07 input  -60.11 | X-H torsion
[ 7974 7965 7964 7962 ] final  -24.41 input  175.53 | X-H torsion
[ 8008 7997 7996 7995 ] final   62.28 input   59.86 | X-H torsion
[ 10167 10162 10161 10158 ] final   -8.77 input  -65.29 | X-H torsion
[ 10718 10713 10712 10709 ] final  104.81 input   66.30 | X-H torsion
[ 10763 10752 10751 10750 ] final  100.95 input  -60.55 | X-H torsion
[ 11005 11000 10999 10996 ] final  -81.62 input  -57.11 | X-H torsion

> <Gold.Protein.ActiveResidues>
 VAL166  LYS551  ARG553  GLY616  TRP617  ASP618  TYR619  PRO620  LYS621  CYS622 
 ASP623  PHE694  ASN695  SER759  ASP760  ASP761  ALA762  ILE779  LEU786  VAL792 
 PHE793  MET794  SER795  GLU796  ALA797  LYS798  CYS799  TRP800  GLU811  SER814 

> <Gold.Protein.RotatedAtoms>
  152.3696  134.6753  160.0180 H   0  0  0  0  0  0  0  0  0  0  0  0  # atno 6907 bound_to 6896
  151.7051  133.3306  159.3284 H   0  0  0  0  0  0  0  0  0  0  0  0  # atno 6908 bound_to 6896
  150.7664  134.6517  159.6336 H   0  0  0  0  0  0  0  0  0  0  0  0  # atno 6909 bound_to 6896
  146.1556  140.4748  142.8593 H   0  0  0  0  0  0  0  0  0  0  0  0  # atno 7974 bound_to 7965
  155.6119  140.3495  155.4625 H   0  0  0  0  0  0  0  0  0  0  0  0  # atno 8008 bound_to 7997
  156.0148  140.1241  157.0442 H   0  0  0  0  0  0  0  0  0  0  0  0  # atno 8009 bound_to 7997
  154.4293  140.1074  156.5866 H   0  0  0  0  0  0  0  0  0  0  0  0  # atno 8010 bound_to 7997
  140.7068  143.5932  150.8872 H   0  0  0  0  0  0  0  0  0  0  0  0  # atno 10167 bound_to 10162
  157.6727  131.0813  150.5763 H   0  0  0  0  0  0  0  0  0  0  0  0  # atno 10718 bound_to 10713
  153.3205  135.4061  155.1412 H   0  0  0  0  0  0  0  0  0  0  0  0  # atno 10763 bound_to 10752
  154.8599  135.3586  154.5603 H   0  0  0  0  0  0  0  0  0  0  0  0  # atno 10764 bound_to 10752
  153.6036  135.7070  153.5433 H   0  0  0  0  0  0  0  0  0  0  0  0  # atno 10765 bound_to 10752
  141.1666  133.7205  156.8450 H   0  0  0  0  0  0  0  0  0  0  0  0  # atno 11005 bound_to 11000
  144.7959  140.6122  143.6510 LP  0  0  0  0  0  0  0  0  0  0  0  0  # atno 17320 bound_to 7965
  145.4716  139.1503  143.3811 LP  0  0  0  0  0  0  0  0  0  0  0  0  # atno 17321 bound_to 7965
  139.9657  143.6113  152.2989 LP  0  0  0  0  0  0  0  0  0  0  0  0  # atno 17342 bound_to 10162
  139.6682  144.7661  151.1834 LP  0  0  0  0  0  0  0  0  0  0  0  0  # atno 17343 bound_to 10162
  156.6064  130.4368  149.5876 LP  0  0  0  0  0  0  0  0  0  0  0  0  # atno 17370 bound_to 10713
  156.2465  130.6882  151.1605 LP  0  0  0  0  0  0  0  0  0  0  0  0  # atno 17371 bound_to 10713
  140.1956  134.8934  157.3110 LP  0  0  0  0  0  0  0  0  0  0  0  0  # atno 17394 bound_to 11000
  140.2243  134.3986  155.7551 LP  0  0  0  0  0  0  0  0  0  0  0  0  # atno 17395 bound_to 11000

$$$$
