AV-unprocessed.smi:1786|AV-procd|sdf|7204|dock2
  -GOLD-   22720 8443D 1   1.00000     0.00000
 Structure written by MMmdl.
 44 45  0  0  0  0  0  0  0  0  2 V2000
  144.6637  134.7931  153.7906 C   0  0  0  0  0  0  0  0  0  0  0  0
  145.8041  135.2773  152.8685 C   0  0  2  0  0  0  0  0  0  0  0  0
  145.5046  135.0162  151.3771 C   0  0  0  0  0  0  0  0  0  0  0  0
  145.6260  133.5284  151.0153 C   0  0  0  0  0  0  0  0  0  0  0  0
  147.0002  132.9947  151.4373 C   0  0  0  0  0  0  0  0  0  0  0  0
  147.2708  133.2695  152.9256 C   0  0  0  0  0  0  0  0  0  0  0  0
  147.1410  134.7202  153.2345 N   0  3  2  0  0  0  0  0  0  0  0  0
  147.5802  135.0743  154.6083 C   0  0  0  0  0  0  0  0  0  0  0  0
  149.1068  134.9618  154.7774 C   0  0  0  0  0  0  0  0  0  0  0  0
  149.7707  136.2192  154.4582 N   0  0  0  0  0  0  0  0  0  0  0  0
  150.7378  136.7902  155.1970 C   0  0  0  0  0  0  0  0  0  0  0  0
  151.1559  136.2887  156.2400 O   0  0  0  0  0  0  0  0  0  0  0  0
  151.3349  138.1260  154.7205 C   0  0  0  0  0  0  0  0  0  0  0  0
  151.1441  139.2605  155.6422 N   0  0  0  0  0  0  0  0  0  0  0  0
  151.6363  139.1062  156.9535 C   0  0  0  0  0  0  0  0  0  0  0  0
  151.5177  140.0748  157.8752 C   0  0  0  0  0  0  0  0  0  0  0  0
  150.8663  141.3049  157.4923 C   0  0  0  0  0  0  0  0  0  0  0  0
  150.3883  141.4616  156.2417 C   0  0  0  0  0  0  0  0  0  0  0  0
  150.5087  140.4022  155.2332 C   0  0  0  0  0  0  0  0  0  0  0  0
  150.0591  140.5290  154.0943 O   0  0  0  0  0  0  0  0  0  0  0  0
  143.7157  135.2454  153.4978 H   0  0  0  0  0  0  0  0  0  0  0  0
  144.8377  135.0702  154.8302 H   0  0  0  0  0  0  0  0  0  0  0  0
  144.5296  133.7125  153.7550 H   0  0  0  0  0  0  0  0  0  0  0  0
  145.8686  136.3599  152.9870 H   0  0  0  0  0  0  0  0  0  0  0  0
  144.5111  135.3849  151.1193 H   0  0  0  0  0  0  0  0  0  0  0  0
  146.2058  135.5868  150.7664 H   0  0  0  0  0  0  0  0  0  0  0  0
  144.8384  132.9558  151.5062 H   0  0  0  0  0  0  0  0  0  0  0  0
  145.4838  133.3906  149.9430 H   0  0  0  0  0  0  0  0  0  0  0  0
  147.0613  131.9243  151.2385 H   0  0  0  0  0  0  0  0  0  0  0  0
  147.7764  133.4656  150.8326 H   0  0  0  0  0  0  0  0  0  0  0  0
  146.5896  132.6896  153.5489 H   0  0  0  0  0  0  0  0  0  0  0  0
  148.2749  132.9222  153.1665 H   0  0  0  0  0  0  0  0  0  0  0  0
  147.2938  136.1040  154.8277 H   0  0  0  0  0  0  0  0  0  0  0  0
  147.0577  134.4474  155.3325 H   0  0  0  0  0  0  0  0  0  0  0  0
  149.3782  134.6590  155.7892 H   0  0  0  0  0  0  0  0  0  0  0  0
  149.4985  134.1943  154.1094 H   0  0  0  0  0  0  0  0  0  0  0  0
  149.4809  136.6889  153.6122 H   0  0  0  0  0  0  0  0  0  0  0  0
  152.3995  137.9712  154.5392 H   0  0  0  0  0  0  0  0  0  0  0  0
  150.9179  138.3591  153.7393 H   0  0  0  0  0  0  0  0  0  0  0  0
  152.1065  138.1554  157.1594 H   0  0  0  0  0  0  0  0  0  0  0  0
  151.8988  139.9375  158.8766 H   0  0  0  0  0  0  0  0  0  0  0  0
  150.7628  142.1039  158.2117 H   0  0  0  0  0  0  0  0  0  0  0  0
  149.9048  142.3894  155.9731 H   0  0  0  0  0  0  0  0  0  0  0  0
  147.7909  135.1889  152.6197 H   0  0  0  0  0  0  0  0  0  0  0  0
  1  2  1  0  0  0  0
  1 21  1  0  0  0  0
  1 22  1  0  0  0  0
  1 23  1  0  0  0  0
  2  7  1  0  0  0  0
  2  3  1  0  0  0  0
  2 24  1  0  0  0  0
  3  4  1  0  0  0  0
  3 25  1  0  0  0  0
  3 26  1  0  0  0  0
  4  5  1  0  0  0  0
  4 27  1  0  0  0  0
  4 28  1  0  0  0  0
  5  6  1  0  0  0  0
  5 29  1  0  0  0  0
  5 30  1  0  0  0  0
  6  7  1  0  0  0  0
  6 31  1  0  0  0  0
  6 32  1  0  0  0  0
  7  8  1  0  0  0  0
  7 44  1  0  0  0  0
  8  9  1  0  0  0  0
  8 33  1  0  0  0  0
  8 34  1  0  0  0  0
  9 10  1  0  0  0  0
  9 35  1  0  0  0  0
  9 36  1  0  0  0  0
 10 11  1  0  0  0  0
 10 37  1  0  0  0  0
 11 12  2  0  0  0  0
 11 13  1  0  0  0  0
 13 14  1  0  0  0  0
 13 38  1  0  0  0  0
 13 39  1  0  0  0  0
 14 19  1  0  0  0  0
 14 15  1  0  0  0  0
 15 16  2  0  0  0  0
 15 40  1  0  0  0  0
 16 17  1  0  0  0  0
 16 41  1  0  0  0  0
 17 18  2  0  0  0  0
 17 42  1  0  0  0  0
 18 19  1  0  0  0  0
 18 43  1  0  0  0  0
 19 20  2  0  0  0  0
M  CHG  1   7   1
M  END
> <s_m_source_file>
AV-unprocessed.smi

> <i_m_source_file_index>
1786

> <i_lp_mmshare_version>
43012

> <i_f3d_flags>
0

> <s_epik_input>
W0NIM11bQ0BASF0xW0NIMl1bQ0gyXVtDSDJdW0NIMl1OMVtDSDJdW0NIMl1bTkhdQyg9TylbQ0gyXW4yW2NIXVtjSF1bY0hdW2NIXWMyPU8=

> <s_epik_cmdline>
J2VwaWtfcHl0aG9uJywgJy1waCcsICc3LjAnLCAnLXRuJywgJzgnLCAnLW1hJywgJzIwMCcsICctbWV0YWxfYmluZGluZycsICctaW1hZScsICc8aW5maWxlLm1hZT4nLCAnLW9tYWUnLCAnPG91dGZpbGUubWFlPic=

> <r_lp_tautomer_probability>
1

> <r_epik_Ionization_Penalty>
0.00237247

> <r_epik_Ionization_Penalty_Charging>
0.00237238

> <r_epik_Ionization_Penalty_Neutral>
8.2065e-08

> <r_epik_State_Penalty>
0.00163922

> <r_epik_Charging_Adjusted_Penalty>
0.0040116

> <i_epik_Tot_Q>
1

> <i_epik_Tot_abs_Q>
1

> <r_epik_Metal_State_Penalty>
-0

> <b_epik_Metal_Only>
0

> <s_lp_Force_Field>
OPLS_2005

> <r_lp_Energy>
28.5406

> <b_lp_Chiralities_Consistent>
1

> <s_lp_Variant>
AV-unprocessed.smi:1786-3

> <Gold.Version>
5.8.1

> <Gold.Id.Protein>
6NUR|6NUR_protein|mol2

> <Gold.PLP.Fitness>
45.9360

> <Gold.PLP.PLP>
-33.0811

> <Gold.PLP.part.hbond>
-4.8826

> <Gold.PLP.part.metal>
0.0000

> <Gold.PLP.part.buried>
-0.8592

> <Gold.PLP.part.nonpolar>
-27.0431

> <Gold.PLP.part.repulsive>
0.1934

> <Gold.PLP.ligand.clash>
0.0000

> <Gold.PLP.ligand.torsion>
0.4204

> <Gold.PLP.Chemscore.Hbond>
4.5052

> <Gold.PLP.Chemscore.CHOScore>
0.0000

> <Gold.PLP.Chemscore.Metal>
0.0000

> <Gold.Chemscore.Hbonds>
donor molecule, donor type, donor heavy atom, donor atom, acceptor molecule, acceptor atom, score
      L1  H     7    44       P1  7948  2.00
      L1  H    10    37       P1  7948  0.75
      P1  H  7989  7998       L1    20  0.45

> <Gold.PLP.Chemscore.Internal.Correction>
0.1802

> <Gold.Rescore>
     Score         DG    S(hbond)    S(metal)    S(lipo)     H(rot)  DE(clash)    DE(int)     intcor
     15.30     -16.11       2.55        0.00      58.57       1.86       0.01       0.79       ----

> <Gold.Chemscore.Fitness>
15.3044

> <Gold.Chemscore.DG>
-16.1076

> <Gold.Chemscore.ZeroCoef>
-5.4800

> <Gold.Chemscore.Hbond>
2.5547

> <Gold.Chemscore.Metal>
0.0000

> <Gold.Chemscore.Lipo>
58.5718

> <Gold.Chemscore.Internal_Hbond>
0.0000

> <Gold.Chemscore.DEClash>
0.0109

> <Gold.Chemscore.DEInternal>
0.7923

> <Gold.Chemscore.Rot>
1.8586

> <Gold.Chemscore.Internal.Correction>
   9.000000E+99

> <Gold.Chemscore.Hbonds>
donor molecule, donor type, donor heavy atom, donor atom, acceptor molecule, acceptor atom, score
      L1  H     7    44       P1  7948  0.99
      L1  H    10    37       P1  7948  0.62
      P1  H  7989  7998       L1    20  0.03

> <Gold.Chemscore.Hbond.Weighted>
-8.5328

> <Gold.Chemscore.Metal.Weighted>
-0.0000

> <Gold.Chemscore.Lipo.Weighted>
-6.8529

> <Gold.Chemscore.Internal_Hbond.Weighted>
0.0000

> <Gold.Chemscore.DEClash.Weighted>
0.0109

> <Gold.Chemscore.DEInternal.Weighted>
0.7923

> <Gold.Chemscore.Rot.Weighted>
4.7581

> <Gold.Chemscore.Internal.Correction.Weighted>
   9.000000E+99

> <Gold.Protein.RotatedTorsions>
[ 6907 6896 6895 6894 ] final   94.70 input  -60.11 | X-H torsion
[ 7974 7965 7964 7962 ] final  -20.01 input  175.53 | X-H torsion
[ 8008 7997 7996 7995 ] final -171.49 input   59.86 | X-H torsion
[ 10167 10162 10161 10158 ] final -112.01 input  -65.29 | X-H torsion
[ 10718 10713 10712 10709 ] final   98.80 input   66.30 | X-H torsion
[ 10763 10752 10751 10750 ] final   86.60 input  -60.55 | X-H torsion
[ 11005 11000 10999 10996 ] final  -57.52 input  -57.11 | X-H torsion

> <Gold.Protein.ActiveResidues>
 VAL166  LYS551  ARG553  GLY616  TRP617  ASP618  TYR619  PRO620  LYS621  CYS622 
 ASP623  PHE694  ASN695  SER759  ASP760  ASP761  ALA762  ILE779  LEU786  VAL792 
 PHE793  MET794  SER795  GLU796  ALA797  LYS798  CYS799  TRP800  GLU811  SER814 

> <Gold.Protein.RotatedAtoms>
  152.5448  134.1153  159.8375 H   0  0  0  0  0  0  0  0  0  0  0  0  # atno 6907 bound_to 6896
  151.1215  133.5093  159.2609 H   0  0  0  0  0  0  0  0  0  0  0  0  # atno 6908 bound_to 6896
  151.1774  135.0355  159.8832 H   0  0  0  0  0  0  0  0  0  0  0  0  # atno 6909 bound_to 6896
  146.1811  140.4142  142.8494 H   0  0  0  0  0  0  0  0  0  0  0  0  # atno 7974 bound_to 7965
  155.9322  140.1093  157.1123 H   0  0  0  0  0  0  0  0  0  0  0  0  # atno 8008 bound_to 7997
  154.4073  140.1235  156.4883 H   0  0  0  0  0  0  0  0  0  0  0  0  # atno 8009 bound_to 7997
  155.7066  140.3471  155.4958 H   0  0  0  0  0  0  0  0  0  0  0  0  # atno 8010 bound_to 7997
  140.1273  143.4391  152.1651 H   0  0  0  0  0  0  0  0  0  0  0  0  # atno 10167 bound_to 10162
  157.6888  131.0651  150.4852 H   0  0  0  0  0  0  0  0  0  0  0  0  # atno 10718 bound_to 10713
  153.1586  135.4574  154.9739 H   0  0  0  0  0  0  0  0  0  0  0  0  # atno 10763 bound_to 10752
  154.7880  135.3210  154.7844 H   0  0  0  0  0  0  0  0  0  0  0  0  # atno 10764 bound_to 10752
  153.8338  135.6936  153.4865 H   0  0  0  0  0  0  0  0  0  0  0  0  # atno 10765 bound_to 10752
  141.1168  133.6610  156.4782 H   0  0  0  0  0  0  0  0  0  0  0  0  # atno 11005 bound_to 11000
  144.8317  140.6717  143.6287 LP  0  0  0  0  0  0  0  0  0  0  0  0  # atno 17320 bound_to 7965
  145.4073  139.1586  143.4145 LP  0  0  0  0  0  0  0  0  0  0  0  0  # atno 17321 bound_to 7965
  139.5537  144.7357  151.4357 LP  0  0  0  0  0  0  0  0  0  0  0  0  # atno 17342 bound_to 10162
  140.6837  143.8023  150.7156 LP  0  0  0  0  0  0  0  0  0  0  0  0  # atno 17343 bound_to 10162
  156.5181  130.4155  149.6265 LP  0  0  0  0  0  0  0  0  0  0  0  0  # atno 17370 bound_to 10713
  156.3179  130.7264  151.2170 LP  0  0  0  0  0  0  0  0  0  0  0  0  # atno 17371 bound_to 10713
  140.4623  134.6830  157.5091 LP  0  0  0  0  0  0  0  0  0  0  0  0  # atno 17394 bound_to 11000
  140.0096  134.6711  155.9401 LP  0  0  0  0  0  0  0  0  0  0  0  0  # atno 17395 bound_to 11000

$$$$
