AV-unprocessed.smi:3316|AV-procd|sdf|12755|dock2
  -GOLD-   2272019 93D 1   1.00000     0.00000
 Structure written by MMmdl.
 41 43  0  0  0  0  0  0  0  0  2 V2000
  149.9391  140.9428  154.3627 C   0  0  0  0  0  0  0  0  0  0  0  0
  150.8629  140.7057  155.5674 C   0  0  2  0  0  0  0  0  0  0  0  0
  151.5269  142.0157  156.0353 C   0  0  0  0  0  0  0  0  0  0  0  0
  150.6527  142.7691  156.9581 N   0  3  0  0  0  0  0  0  0  0  0  0
  151.3607  143.7709  157.7789 C   0  0  0  0  0  0  0  0  0  0  0  0
  151.3723  143.3687  159.2727 C   0  0  1  0  0  0  0  0  0  0  0  0
  151.9333  141.9333  159.5428 C   0  0  0  0  0  0  0  0  0  0  0  0
  153.0851  142.1850  160.5421 C   0  0  2  0  0  0  0  0  0  0  0  0
  152.4837  142.7034  161.8305 C   0  0  0  0  0  0  0  0  0  0  0  0
  152.0313  143.9348  161.5891 C   0  0  0  0  0  0  0  0  0  0  0  0
  152.3209  144.2442  160.1347 C   0  0  1  0  0  0  0  0  0  0  0  0
  153.6439  143.4873  159.9624 C   0  0  0  0  0  0  0  0  0  0  0  0
  151.8886  139.6181  155.2693 C   0  0  0  0  0  0  0  0  0  0  0  0
  153.2658  139.8595  155.4594 C   0  0  0  0  0  0  0  0  0  0  0  0
  154.1794  138.8285  155.1613 C   0  0  0  0  0  0  0  0  0  0  0  0
  153.8046  137.6174  154.6972 N   0  0  0  0  0  0  0  0  0  0  0  0
  152.4863  137.3896  154.5187 C   0  0  0  0  0  0  0  0  0  0  0  0
  151.4920  138.3514  154.7875 C   0  0  0  0  0  0  0  0  0  0  0  0
  149.4298  140.0229  154.0734 H   0  0  0  0  0  0  0  0  0  0  0  0
  150.4931  141.3028  153.4952 H   0  0  0  0  0  0  0  0  0  0  0  0
  149.1724  141.6824  154.5950 H   0  0  0  0  0  0  0  0  0  0  0  0
  150.2327  140.3502  156.3842 H   0  0  0  0  0  0  0  0  0  0  0  0
  152.4766  141.8048  156.5285 H   0  0  0  0  0  0  0  0  0  0  0  0
  151.7516  142.6464  155.1742 H   0  0  0  0  0  0  0  0  0  0  0  0
  149.9397  143.2387  156.4183 H   0  0  0  0  0  0  0  0  0  0  0  0
  152.3734  143.8811  157.3907 H   0  0  0  0  0  0  0  0  0  0  0  0
  150.8754  144.7387  157.6448 H   0  0  0  0  0  0  0  0  0  0  0  0
  150.3600  143.4415  159.6760 H   0  0  0  0  0  0  0  0  0  0  0  0
  151.1740  141.2694  159.9583 H   0  0  0  0  0  0  0  0  0  0  0  0
  152.3195  141.4598  158.6396 H   0  0  0  0  0  0  0  0  0  0  0  0
  153.8065  141.3767  160.6639 H   0  0  0  0  0  0  0  0  0  0  0  0
  152.4194  142.1426  162.7514 H   0  0  0  0  0  0  0  0  0  0  0  0
  151.5158  144.5956  162.2702 H   0  0  0  0  0  0  0  0  0  0  0  0
  152.3530  145.3086  159.9005 H   0  0  0  0  0  0  0  0  0  0  0  0
  154.4559  143.9056  160.5611 H   0  0  0  0  0  0  0  0  0  0  0  0
  153.9789  143.4031  158.9268 H   0  0  0  0  0  0  0  0  0  0  0  0
  153.6219  140.8109  155.8269 H   0  0  0  0  0  0  0  0  0  0  0  0
  155.2397  138.9820  155.2967 H   0  0  0  0  0  0  0  0  0  0  0  0
  152.2145  136.4124  154.1479 H   0  0  0  0  0  0  0  0  0  0  0  0
  150.4506  138.1147  154.6261 H   0  0  0  0  0  0  0  0  0  0  0  0
  150.2047  142.1099  157.5790 H   0  0  0  0  0  0  0  0  0  0  0  0
  1  2  1  0  0  0  0
  1 19  1  0  0  0  0
  1 20  1  0  0  0  0
  1 21  1  0  0  0  0
  2  3  1  0  0  0  0
  2 13  1  0  0  0  0
  2 22  1  0  0  0  0
  3  4  1  0  0  0  0
  3 23  1  0  0  0  0
  3 24  1  0  0  0  0
  4  5  1  0  0  0  0
  4 25  1  0  0  0  0
  4 41  1  0  0  0  0
  5  6  1  0  0  0  0
  5 26  1  0  0  0  0
  5 27  1  0  0  0  0
  6 11  1  0  0  0  0
  6  7  1  0  0  0  0
  6 28  1  0  0  0  0
  7  8  1  0  0  0  0
  7 29  1  0  0  0  0
  7 30  1  0  0  0  0
  8 12  1  0  0  0  0
  8  9  1  0  0  0  0
  8 31  1  0  0  0  0
  9 10  2  0  0  0  0
  9 32  1  0  0  0  0
 10 11  1  0  0  0  0
 10 33  1  0  0  0  0
 11 12  1  0  0  0  0
 11 34  1  0  0  0  0
 12 35  1  0  0  0  0
 12 36  1  0  0  0  0
 13 18  1  0  0  0  0
 13 14  2  0  0  0  0
 14 15  1  0  0  0  0
 14 37  1  0  0  0  0
 15 16  2  0  0  0  0
 15 38  1  0  0  0  0
 16 17  1  0  0  0  0
 17 18  2  0  0  0  0
 17 39  1  0  0  0  0
 18 40  1  0  0  0  0
M  CHG  1   4   1
M  END
> <s_m_source_file>
AV-unprocessed.smi

> <i_m_source_file_index>
3316

> <i_lp_mmshare_version>
43012

> <i_f3d_flags>
0

> <s_epik_input>
W2NIXTFbY0hdbltjSF1bY0hdYzFbQ0BIXShbQ0gzXSlbQ0gyXVtOSF1bQ0gyXVtDQEhdKFtDSDJdW0NASF0yMylbQ0BIXShbQ0gyXTMpW0NIXT1bQ0hdMg==

> <s_epik_cmdline>
J2VwaWtfcHl0aG9uJywgJy1waCcsICc3LjAnLCAnLXRuJywgJzgnLCAnLW1hJywgJzIwMCcsICctbWV0YWxfYmluZGluZycsICctaW1hZScsICc8aW5maWxlLm1hZT4nLCAnLW9tYWUnLCAnPG91dGZpbGUubWFlPic=

> <r_lp_tautomer_probability>
1

> <r_epik_Ionization_Penalty>
0.00280406

> <r_epik_Ionization_Penalty_Charging>
0.000446589

> <r_epik_Ionization_Penalty_Neutral>
0.00235747

> <r_epik_State_Penalty>
-0

> <r_epik_Charging_Adjusted_Penalty>
0.000446589

> <i_epik_Tot_Q>
1

> <i_epik_Tot_abs_Q>
1

> <r_epik_Metal_State_Penalty>
-0

> <b_epik_Metal_Only>
0

> <s_lp_Force_Field>
OPLS_2005

> <r_lp_Energy>
68.7939

> <b_lp_Chiralities_Consistent>
1

> <s_lp_Variant>
AV-unprocessed.smi:3316-3

> <Gold.Version>
5.8.1

> <Gold.Id.Protein>
6NUR|6NUR_protein|mol2

> <Gold.PLP.Fitness>
57.3401

> <Gold.PLP.PLP>
-47.7425

> <Gold.PLP.part.hbond>
-2.0000

> <Gold.PLP.part.metal>
0.0000

> <Gold.PLP.part.buried>
-3.8421

> <Gold.PLP.part.nonpolar>
-42.2541

> <Gold.PLP.part.repulsive>
0.1439

> <Gold.PLP.ligand.clash>
0.0000

> <Gold.PLP.ligand.torsion>
0.8620

> <Gold.PLP.Chemscore.Hbond>
2.8800

> <Gold.PLP.Chemscore.CHOScore>
0.8636

> <Gold.PLP.Chemscore.Metal>
0.0000

> <Gold.Chemscore.Hbonds>
donor molecule, donor type, donor heavy atom, donor atom, acceptor molecule, acceptor atom, score
      L1  H     4    25       P1  8028  2.00
      L1  C    17    39       P1  7949  0.11

> <Gold.PLP.Chemscore.Internal.Correction>
0.0908

> <Gold.Rescore>
     Score         DG    S(hbond)    S(metal)    S(lipo)     H(rot)  DE(clash)    DE(int)     intcor
     24.74     -25.54       1.88        0.00     147.70       1.36       0.06       0.74       ----

> <Gold.Chemscore.Fitness>
24.7356

> <Gold.Chemscore.DG>
-25.5393

> <Gold.Chemscore.ZeroCoef>
-5.4800

> <Gold.Chemscore.Hbond>
1.8773

> <Gold.Chemscore.Metal>
0.0000

> <Gold.Chemscore.Lipo>
147.7009

> <Gold.Chemscore.Internal_Hbond>
0.0000

> <Gold.Chemscore.DEClash>
0.0595

> <Gold.Chemscore.DEInternal>
0.7442

> <Gold.Chemscore.Rot>
1.3640

> <Gold.Chemscore.Internal.Correction>
   9.000000E+99

> <Gold.Chemscore.Hbonds>
donor molecule, donor type, donor heavy atom, donor atom, acceptor molecule, acceptor atom, score
      L1  H     4    25       P1  8028  0.97

> <Gold.Chemscore.Hbond.Weighted>
-6.2703

> <Gold.Chemscore.Metal.Weighted>
-0.0000

> <Gold.Chemscore.Lipo.Weighted>
-17.2810

> <Gold.Chemscore.Internal_Hbond.Weighted>
0.0000

> <Gold.Chemscore.DEClash.Weighted>
0.0595

> <Gold.Chemscore.DEInternal.Weighted>
0.7442

> <Gold.Chemscore.Rot.Weighted>
3.4919

> <Gold.Chemscore.Internal.Correction.Weighted>
   9.000000E+99

> <Gold.Protein.RotatedTorsions>
[ 6907 6896 6895 6894 ] final   12.78 input  -60.11 | X-H torsion
[ 7974 7965 7964 7962 ] final    4.09 input  175.53 | X-H torsion
[ 8008 7997 7996 7995 ] final   16.40 input   59.86 | X-H torsion
[ 10167 10162 10161 10158 ] final  142.56 input  -65.29 | X-H torsion
[ 10718 10713 10712 10709 ] final  159.82 input   66.30 | X-H torsion
[ 10763 10752 10751 10750 ] final  165.45 input  -60.55 | X-H torsion
[ 11005 11000 10999 10996 ] final    7.07 input  -57.11 | X-H torsion

> <Gold.Protein.ActiveResidues>
 VAL166  LYS551  ARG553  GLY616  TRP617  ASP618  TYR619  PRO620  LYS621  CYS622 
 ASP623  PHE694  ASN695  SER759  ASP760  ASP761  ALA762  ILE779  LEU786  VAL792 
 PHE793  MET794  SER795  GLU796  ALA797  LYS798  CYS799  TRP800  GLU811  SER814 

> <Gold.Protein.RotatedAtoms>
  151.7758  135.0774  160.0366 H   0  0  0  0  0  0  0  0  0  0  0  0  # atno 6907 bound_to 6896
  152.3257  133.5898  159.5783 H   0  0  0  0  0  0  0  0  0  0  0  0  # atno 6908 bound_to 6896
  150.7394  133.9860  159.3633 H   0  0  0  0  0  0  0  0  0  0  0  0  # atno 6909 bound_to 6896
  146.2444  140.0587  142.8370 H   0  0  0  0  0  0  0  0  0  0  0  0  # atno 7974 bound_to 7965
  154.8763  140.2966  155.5451 H   0  0  0  0  0  0  0  0  0  0  0  0  # atno 8008 bound_to 7997
  156.3022  140.2450  156.3693 H   0  0  0  0  0  0  0  0  0  0  0  0  # atno 8009 bound_to 7997
  154.8763  140.0399  157.1744 H   0  0  0  0  0  0  0  0  0  0  0  0  # atno 8010 bound_to 7997
  139.4991  144.6099  151.6295 H   0  0  0  0  0  0  0  0  0  0  0  0  # atno 10167 bound_to 10162
  157.1589  131.0582  151.2242 H   0  0  0  0  0  0  0  0  0  0  0  0  # atno 10718 bound_to 10713
  154.3241  135.2755  155.2505 H   0  0  0  0  0  0  0  0  0  0  0  0  # atno 10763 bound_to 10752
  154.4845  135.5850  153.6417 H   0  0  0  0  0  0  0  0  0  0  0  0  # atno 10764 bound_to 10752
  152.9873  135.6119  154.3428 H   0  0  0  0  0  0  0  0  0  0  0  0  # atno 10765 bound_to 10752
  140.5524  134.0271  155.7941 H   0  0  0  0  0  0  0  0  0  0  0  0  # atno 11005 bound_to 11000
  145.0919  140.9290  143.4764 LP  0  0  0  0  0  0  0  0  0  0  0  0  # atno 17320 bound_to 7965
  145.0761  139.2994  143.5807 LP  0  0  0  0  0  0  0  0  0  0  0  0  # atno 17321 bound_to 7965
  140.5771  144.0010  150.6247 LP  0  0  0  0  0  0  0  0  0  0  0  0  # atno 17342 bound_to 10162
  140.3147  143.3175  152.0844 LP  0  0  0  0  0  0  0  0  0  0  0  0  # atno 17343 bound_to 10162
  157.4151  130.7406  149.6869 LP  0  0  0  0  0  0  0  0  0  0  0  0  # atno 17370 bound_to 10713
  155.9757  130.4085  150.3829 LP  0  0  0  0  0  0  0  0  0  0  0  0  # atno 17371 bound_to 10713
  141.1164  133.9533  157.2814 LP  0  0  0  0  0  0  0  0  0  0  0  0  # atno 17394 bound_to 11000
  139.9449  135.0185  156.8820 LP  0  0  0  0  0  0  0  0  0  0  0  0  # atno 17395 bound_to 11000

$$$$
