AV-unprocessed.smi:625|AV-procd|sdf|3105|dock2
  -GOLD-   22720 0 23D 1   1.00000     0.00000
 Structure written by MMmdl.
 49 51  0  0  0  0  0  0  0  0  1 V2000
  145.9408  132.0747  149.8234 C   0  0  0  0  0  0  0  0  0  0  0  0
  146.7592  132.3994  150.9812 N   0  0  0  0  0  0  0  0  0  0  0  0
  146.3991  133.2486  151.9596 C   0  0  0  0  0  0  0  0  0  0  0  0
  145.3190  133.8399  151.9368 O   0  0  0  0  0  0  0  0  0  0  0  0
  147.3883  133.3814  153.0328 C   0  0  0  0  0  0  0  0  0  0  0  0
  148.6879  132.7558  152.8858 C   0  0  0  0  0  0  0  0  0  0  0  0
  149.6333  132.8987  153.8358 C   0  0  0  0  0  0  0  0  0  0  0  0
  149.3944  133.6838  155.0510 C   0  0  0  0  0  0  0  0  0  0  0  0
  150.2641  133.8391  155.9081 O   0  0  0  0  0  0  0  0  0  0  0  0
  148.1471  134.2317  155.1664 N   0  0  0  0  0  0  0  0  0  0  0  0
  147.7776  135.0763  156.3132 C   0  0  0  0  0  0  0  0  0  0  0  0
  148.0126  134.3319  157.6316 C   0  0  0  0  0  0  0  0  0  0  0  0
  149.1449  134.2572  158.1090 O   0  0  0  0  0  0  0  0  0  0  0  0
  146.9210  133.8140  158.2151 N   0  0  0  0  0  0  0  0  0  0  0  0
  146.8572  133.2359  159.5558 C   0  0  2  0  0  0  0  0  0  0  0  0
  145.3924  132.8889  159.8681 C   0  0  0  0  0  0  0  0  0  0  0  0
  147.4729  134.2358  160.5684 C   0  0  2  0  0  0  0  0  0  0  0  0
  147.5075  133.7169  162.0304 C   0  0  0  0  0  0  0  0  0  0  0  0
  146.8245  134.8422  162.8248 C   0  0  1  0  0  0  0  0  0  0  0  0
  147.7302  136.0866  162.8412 C   0  0  0  0  0  0  0  0  0  0  0  0
  147.6145  136.6066  161.3959 C   0  0  0  0  0  0  0  0  0  0  0  0
  146.6936  135.5651  160.7304 C   0  0  2  0  0  0  0  0  0  0  0  0
  145.7193  135.2597  161.8642 C   0  0  0  0  0  0  0  0  0  0  0  0
  147.1648  134.0796  154.1669 C   0  0  0  0  0  0  0  0  0  0  0  0
  146.4596  131.3512  149.1946 H   0  0  0  0  0  0  0  0  0  0  0  0
  145.7409  132.9658  149.2269 H   0  0  0  0  0  0  0  0  0  0  0  0
  144.9893  131.6389  150.1304 H   0  0  0  0  0  0  0  0  0  0  0  0
  147.6548  131.9392  151.0552 H   0  0  0  0  0  0  0  0  0  0  0  0
  148.9151  132.1671  152.0085 H   0  0  0  0  0  0  0  0  0  0  0  0
  150.5937  132.4238  153.6994 H   0  0  0  0  0  0  0  0  0  0  0  0
  148.3675  135.9944  156.2872 H   0  0  0  0  0  0  0  0  0  0  0  0
  146.7368  135.4014  156.2770 H   0  0  0  0  0  0  0  0  0  0  0  0
  146.0419  133.9104  157.7279 H   0  0  0  0  0  0  0  0  0  0  0  0
  147.4332  132.3099  159.5908 H   0  0  0  0  0  0  0  0  0  0  0  0
  145.2916  132.3851  160.8287 H   0  0  0  0  0  0  0  0  0  0  0  0
  144.9810  132.2192  159.1120 H   0  0  0  0  0  0  0  0  0  0  0  0
  144.7685  133.7830  159.8933 H   0  0  0  0  0  0  0  0  0  0  0  0
  148.4918  134.4517  160.2424 H   0  0  0  0  0  0  0  0  0  0  0  0
  146.9353  132.7958  162.1482 H   0  0  0  0  0  0  0  0  0  0  0  0
  148.5224  133.5191  162.3765 H   0  0  0  0  0  0  0  0  0  0  0  0
  146.4844  134.5336  163.8137 H   0  0  0  0  0  0  0  0  0  0  0  0
  147.3586  136.8304  163.5473 H   0  0  0  0  0  0  0  0  0  0  0  0
  148.7574  135.8449  163.1170 H   0  0  0  0  0  0  0  0  0  0  0  0
  147.1519  137.5944  161.3823 H   0  0  0  0  0  0  0  0  0  0  0  0
  148.5837  136.6875  160.9020 H   0  0  0  0  0  0  0  0  0  0  0  0
  146.2279  135.9358  159.8181 H   0  0  0  0  0  0  0  0  0  0  0  0
  145.0182  134.4559  161.6338 H   0  0  0  0  0  0  0  0  0  0  0  0
  145.1604  136.1343  162.2022 H   0  0  0  0  0  0  0  0  0  0  0  0
  146.2401  134.5927  154.3910 H   0  0  0  0  0  0  0  0  0  0  0  0
  1  2  1  0  0  0  0
  1 25  1  0  0  0  0
  1 26  1  0  0  0  0
  1 27  1  0  0  0  0
  2  3  1  0  0  0  0
  2 28  1  0  0  0  0
  3  4  2  0  0  0  0
  3  5  1  0  0  0  0
  5 24  2  0  0  0  0
  5  6  1  0  0  0  0
  6  7  2  0  0  0  0
  6 29  1  0  0  0  0
  7  8  1  0  0  0  0
  7 30  1  0  0  0  0
  8  9  2  0  0  0  0
  8 10  1  0  0  0  0
 10 11  1  0  0  0  0
 10 24  1  0  0  0  0
 11 12  1  0  0  0  0
 11 31  1  0  0  0  0
 11 32  1  0  0  0  0
 12 13  2  0  0  0  0
 12 14  1  0  0  0  0
 14 15  1  0  0  0  0
 14 33  1  0  0  0  0
 15 16  1  0  0  0  0
 15 17  1  0  0  0  0
 15 34  1  0  0  0  0
 16 35  1  0  0  0  0
 16 36  1  0  0  0  0
 16 37  1  0  0  0  0
 17 22  1  0  0  0  0
 17 18  1  0  0  0  0
 17 38  1  0  0  0  0
 18 19  1  0  0  0  0
 18 39  1  0  0  0  0
 18 40  1  0  0  0  0
 19 23  1  0  0  0  0
 19 20  1  0  0  0  0
 19 41  1  0  0  0  0
 20 21  1  0  0  0  0
 20 42  1  0  0  0  0
 20 43  1  0  0  0  0
 21 22  1  0  0  0  0
 21 44  1  0  0  0  0
 21 45  1  0  0  0  0
 22 23  1  0  0  0  0
 22 46  1  0  0  0  0
 23 47  1  0  0  0  0
 23 48  1  0  0  0  0
 24 49  1  0  0  0  0
M  END
> <s_m_source_file>
AV-unprocessed.smi

> <i_m_source_file_index>
625

> <i_lp_mmshare_version>
43012

> <i_f3d_flags>
0

> <s_epik_input>
W0NIM11bTkhdQyg9TyljMVtjSF1bY0hdYyg9TyluKFtjSF0xKVtDSDJdQyg9TylbTkhdW0NASF0oW0NIM10pW0NASF0oW0NIMl1bQ0BIXTIzKVtDQEhdKFtDSDJdMylbQ0gyXVtDSDJdMg==

> <s_epik_cmdline>
J2VwaWtfcHl0aG9uJywgJy1waCcsICc3LjAnLCAnLXRuJywgJzgnLCAnLW1hJywgJzIwMCcsICctbWV0YWxfYmluZGluZycsICctaW1hZScsICc8aW5maWxlLm1hZT4nLCAnLW9tYWUnLCAnPG91dGZpbGUubWFlPic=

> <r_lp_tautomer_probability>
1

> <r_epik_Ionization_Penalty>
3.7129e-07

> <r_epik_Ionization_Penalty_Charging>
5.04114e-08

> <r_epik_Ionization_Penalty_Neutral>
3.20879e-07

> <r_epik_State_Penalty>
-0

> <r_epik_Charging_Adjusted_Penalty>
5.04114e-08

> <i_epik_Tot_Q>
0

> <i_epik_Tot_abs_Q>
0

> <r_epik_Metal_State_Penalty>
-0

> <b_epik_Metal_Only>
0

> <s_lp_Force_Field>
OPLS_2005

> <r_lp_Energy>
64.2087

> <b_lp_Chiralities_Consistent>
1

> <s_lp_Variant>
AV-unprocessed.smi:625-5

> <Gold.Version>
5.8.1

> <Gold.Id.Protein>
6NUR|6NUR_protein|mol2

> <Gold.PLP.Fitness>
43.4456

> <Gold.PLP.PLP>
-38.7184

> <Gold.PLP.part.hbond>
-2.0000

> <Gold.PLP.part.metal>
0.0000

> <Gold.PLP.part.buried>
-4.5094

> <Gold.PLP.part.nonpolar>
-32.3715

> <Gold.PLP.part.repulsive>
0.1404

> <Gold.PLP.ligand.clash>
0.5815

> <Gold.PLP.ligand.torsion>
0.3895

> <Gold.PLP.Chemscore.Hbond>
2.0000

> <Gold.PLP.Chemscore.CHOScore>
0.0000

> <Gold.PLP.Chemscore.Metal>
0.0000

> <Gold.Chemscore.Hbonds>
donor molecule, donor type, donor heavy atom, donor atom, acceptor molecule, acceptor atom, score
      L1  H     2    28       P1 10747  0.98
      P1  H  6896  6909       L1    13  1.00

> <Gold.PLP.Chemscore.Internal.Correction>
0.0876

> <Gold.Rescore>
     Score         DG    S(hbond)    S(metal)    S(lipo)     H(rot)  DE(clash)    DE(int)     intcor
     15.45     -18.51       1.90        0.00      93.80       1.67       0.04       3.02       ----

> <Gold.Chemscore.Fitness>
15.4534

> <Gold.Chemscore.DG>
-18.5078

> <Gold.Chemscore.ZeroCoef>
-5.4800

> <Gold.Chemscore.Hbond>
1.8955

> <Gold.Chemscore.Metal>
0.0000

> <Gold.Chemscore.Lipo>
93.7956

> <Gold.Chemscore.Internal_Hbond>
0.0000

> <Gold.Chemscore.DEClash>
0.0351

> <Gold.Chemscore.DEInternal>
3.0192

> <Gold.Chemscore.Rot>
1.6709

> <Gold.Chemscore.Internal.Correction>
   9.000000E+99

> <Gold.Chemscore.Hbonds>
donor molecule, donor type, donor heavy atom, donor atom, acceptor molecule, acceptor atom, score
      L1  H     2    28       P1 10747  0.93
      P1  H  6896  6909       L1    13  0.98

> <Gold.Chemscore.Hbond.Weighted>
-6.3311

> <Gold.Chemscore.Metal.Weighted>
-0.0000

> <Gold.Chemscore.Lipo.Weighted>
-10.9741

> <Gold.Chemscore.Internal_Hbond.Weighted>
0.0000

> <Gold.Chemscore.DEClash.Weighted>
0.0351

> <Gold.Chemscore.DEInternal.Weighted>
3.0192

> <Gold.Chemscore.Rot.Weighted>
4.2774

> <Gold.Chemscore.Internal.Correction.Weighted>
   9.000000E+99

> <Gold.Protein.RotatedTorsions>
[ 6907 6896 6895 6894 ] final   14.38 input  -60.11 | X-H torsion
[ 7974 7965 7964 7962 ] final   41.94 input  175.53 | X-H torsion
[ 8008 7997 7996 7995 ] final -131.05 input   59.86 | X-H torsion
[ 10167 10162 10161 10158 ] final  148.05 input  -65.29 | X-H torsion
[ 10718 10713 10712 10709 ] final  117.86 input   66.30 | X-H torsion
[ 10763 10752 10751 10750 ] final  174.15 input  -60.55 | X-H torsion
[ 11005 11000 10999 10996 ] final  -35.26 input  -57.11 | X-H torsion

> <Gold.Protein.ActiveResidues>
 VAL166  LYS551  ARG553  GLY616  TRP617  ASP618  TYR619  PRO620  LYS621  CYS622 
 ASP623  PHE694  ASN695  SER759  ASP760  ASP761  ALA762  ILE779  LEU786  VAL792 
 PHE793  MET794  SER795  GLU796  ALA797  LYS798  CYS799  TRP800  GLU811  SER814 

> <Gold.Protein.RotatedAtoms>
  151.8014  135.0708  160.0400 H   0  0  0  0  0  0  0  0  0  0  0  0  # atno 6907 bound_to 6896
  152.3086  133.5725  159.5674 H   0  0  0  0  0  0  0  0  0  0  0  0  # atno 6908 bound_to 6896
  150.7308  134.0101  159.3709 H   0  0  0  0  0  0  0  0  0  0  0  0  # atno 6909 bound_to 6896
  146.0782  139.5357  142.9554 H   0  0  0  0  0  0  0  0  0  0  0  0  # atno 7974 bound_to 7965
  155.3059  140.0455  157.3032 H   0  0  0  0  0  0  0  0  0  0  0  0  # atno 8008 bound_to 7997
  154.5460  140.2302  155.8529 H   0  0  0  0  0  0  0  0  0  0  0  0  # atno 8009 bound_to 7997
  156.1924  140.3047  155.9366 H   0  0  0  0  0  0  0  0  0  0  0  0  # atno 8010 bound_to 7997
  139.4880  144.5709  151.7057 H   0  0  0  0  0  0  0  0  0  0  0  0  # atno 10167 bound_to 10162
  157.6068  131.1042  150.7675 H   0  0  0  0  0  0  0  0  0  0  0  0  # atno 10718 bound_to 10713
  154.4500  135.2764  155.1788 H   0  0  0  0  0  0  0  0  0  0  0  0  # atno 10763 bound_to 10752
  154.3619  135.6127  153.5698 H   0  0  0  0  0  0  0  0  0  0  0  0  # atno 10764 bound_to 10752
  152.9846  135.5836  154.4843 H   0  0  0  0  0  0  0  0  0  0  0  0  # atno 10765 bound_to 10752
  140.9782  133.7071  156.1639 H   0  0  0  0  0  0  0  0  0  0  0  0  # atno 11005 bound_to 11000
  145.6267  141.0312  143.1885 LP  0  0  0  0  0  0  0  0  0  0  0  0  # atno 17320 bound_to 7965
  144.7275  139.7828  143.7359 LP  0  0  0  0  0  0  0  0  0  0  0  0  # atno 17321 bound_to 7965
  140.5295  144.0752  150.6049 LP  0  0  0  0  0  0  0  0  0  0  0  0  # atno 17342 bound_to 10162
  140.3737  143.2840  152.0249 LP  0  0  0  0  0  0  0  0  0  0  0  0  # atno 17343 bound_to 10162
  156.8061  130.4937  149.5362 LP  0  0  0  0  0  0  0  0  0  0  0  0  # atno 17370 bound_to 10713
  156.1157  130.6073  151.0117 LP  0  0  0  0  0  0  0  0  0  0  0  0  # atno 17371 bound_to 10713
  140.7226  134.4341  157.5573 LP  0  0  0  0  0  0  0  0  0  0  0  0  # atno 17394 bound_to 11000
  139.8939  134.8719  156.2201 LP  0  0  0  0  0  0  0  0  0  0  0  0  # atno 17395 bound_to 11000

$$$$
