AV-unprocessed.smi:1166|AV-procd|sdf|4934|dock6
  -GOLD-   22720 3523D 1   1.00000     0.00000
 Structure written by MMmdl.
 47 48  0  0  0  0  0  0  0  0  2 V2000
  145.7140  131.9365  152.6557 C   0  0  0  0  0  0  0  0  0  0  0  0
  144.7967  132.5961  151.7330 N   0  0  0  0  0  0  0  0  0  0  0  0
  144.3558  131.9161  150.5223 C   0  0  0  0  0  0  0  0  0  0  0  0
  144.3074  133.8862  152.0315 C   0  0  0  0  0  0  0  0  0  0  0  0
  144.6751  135.0434  151.3019 C   0  0  0  0  0  0  0  0  0  0  0  0
  144.1432  136.2985  151.6622 C   0  0  0  0  0  0  0  0  0  0  0  0
  143.2535  136.3985  152.7518 C   0  0  0  0  0  0  0  0  0  0  0  0
  142.7340  137.6838  153.0664 N   0  0  0  0  0  0  0  0  0  0  0  0
  141.6154  137.9943  153.7441 C   0  0  0  0  0  0  0  0  0  0  0  0
  140.8373  137.1823  154.2439 O   0  0  0  0  0  0  0  0  0  0  0  0
  141.4529  139.3224  153.8277 N   0  0  0  0  0  0  0  0  0  0  0  0
  140.3563  139.9956  154.5166 C   0  0  2  0  0  0  0  0  0  0  0  0
  138.9995  139.4201  154.0782 C   0  0  0  0  0  0  0  0  0  0  0  0
  137.8651  140.1817  154.7725 C   0  0  0  0  0  0  0  0  0  0  0  0
  137.9572  141.6931  154.4991 C   0  0  0  0  0  0  0  0  0  0  0  0
  139.2895  142.2298  154.8445 N   0  0  0  0  0  0  0  0  0  0  0  0
  139.5195  143.1003  156.3339 S   0  0  0  0  0  0  0  0  0  0  0  0
  139.3418  144.8680  155.8568 C   0  0  0  0  0  0  0  0  0  0  0  0
  138.4075  142.7548  157.2325 O   0  0  0  0  0  0  0  0  0  0  0  0
  140.9063  142.8808  156.7724 O   0  0  0  0  0  0  0  0  0  0  0  0
  140.4223  141.5088  154.2307 C   0  0  0  0  0  0  0  0  0  0  0  0
  142.9081  135.2127  153.4430 C   0  0  0  0  0  0  0  0  0  0  0  0
  143.4405  134.0310  153.0634 N   0  3  0  0  0  0  0  0  0  0  0  0
  146.6035  132.5469  152.8161 H   0  0  0  0  0  0  0  0  0  0  0  0
  146.0395  130.9706  152.2689 H   0  0  0  0  0  0  0  0  0  0  0  0
  145.2308  131.7662  153.6186 H   0  0  0  0  0  0  0  0  0  0  0  0
  143.2703  131.8128  150.5134 H   0  0  0  0  0  0  0  0  0  0  0  0
  144.7844  130.9162  150.4499 H   0  0  0  0  0  0  0  0  0  0  0  0
  144.6605  132.4747  149.6369 H   0  0  0  0  0  0  0  0  0  0  0  0
  145.3592  134.9906  150.4681 H   0  0  0  0  0  0  0  0  0  0  0  0
  144.4242  137.1794  151.1036 H   0  0  0  0  0  0  0  0  0  0  0  0
  143.3064  138.4639  152.7782 H   0  0  0  0  0  0  0  0  0  0  0  0
  142.1426  139.9154  153.3895 H   0  0  0  0  0  0  0  0  0  0  0  0
  140.4729  139.8397  155.5891 H   0  0  0  0  0  0  0  0  0  0  0  0
  138.8887  139.5009  152.9959 H   0  0  0  0  0  0  0  0  0  0  0  0
  138.9353  138.3591  154.3225 H   0  0  0  0  0  0  0  0  0  0  0  0
  136.9021  139.8038  154.4283 H   0  0  0  0  0  0  0  0  0  0  0  0
  137.8993  139.9910  155.8444 H   0  0  0  0  0  0  0  0  0  0  0  0
  137.7753  141.8831  153.4408 H   0  0  0  0  0  0  0  0  0  0  0  0
  137.1788  142.2262  155.0440 H   0  0  0  0  0  0  0  0  0  0  0  0
  139.4984  145.4905  156.7375 H   0  0  0  0  0  0  0  0  0  0  0  0
  138.3403  145.0507  155.4715 H   0  0  0  0  0  0  0  0  0  0  0  0
  140.0854  145.1272  155.1052 H   0  0  0  0  0  0  0  0  0  0  0  0
  141.3667  141.9228  154.5838 H   0  0  0  0  0  0  0  0  0  0  0  0
  140.3943  141.6841  153.1543 H   0  0  0  0  0  0  0  0  0  0  0  0
  142.2224  135.1516  154.2744 H   0  0  0  0  0  0  0  0  0  0  0  0
  143.1703  133.1967  153.5844 H   0  0  0  0  0  0  0  0  0  0  0  0
  1  2  1  0  0  0  0
  1 24  1  0  0  0  0
  1 25  1  0  0  0  0
  1 26  1  0  0  0  0
  2  3  1  0  0  0  0
  2  4  1  0  0  0  0
  3 27  1  0  0  0  0
  3 28  1  0  0  0  0
  3 29  1  0  0  0  0
  4 23  1  0  0  0  0
  4  5  2  0  0  0  0
  5  6  1  0  0  0  0
  5 30  1  0  0  0  0
  6  7  2  0  0  0  0
  6 31  1  0  0  0  0
  7  8  1  0  0  0  0
  7 22  1  0  0  0  0
  8  9  1  0  0  0  0
  8 32  1  0  0  0  0
  9 10  2  0  0  0  0
  9 11  1  0  0  0  0
 11 12  1  0  0  0  0
 11 33  1  0  0  0  0
 12 21  1  0  0  0  0
 12 13  1  0  0  0  0
 12 34  1  0  0  0  0
 13 14  1  0  0  0  0
 13 35  1  0  0  0  0
 13 36  1  0  0  0  0
 14 15  1  0  0  0  0
 14 37  1  0  0  0  0
 14 38  1  0  0  0  0
 15 16  1  0  0  0  0
 15 39  1  0  0  0  0
 15 40  1  0  0  0  0
 16 17  1  0  0  0  0
 16 21  1  0  0  0  0
 17 18  1  0  0  0  0
 17 19  2  0  0  0  0
 17 20  2  0  0  0  0
 18 41  1  0  0  0  0
 18 42  1  0  0  0  0
 18 43  1  0  0  0  0
 21 44  1  0  0  0  0
 21 45  1  0  0  0  0
 22 23  2  0  0  0  0
 22 46  1  0  0  0  0
 23 47  1  0  0  0  0
M  CHG  1  23   1
M  END
> <s_m_source_file>
AV-unprocessed.smi

> <i_m_source_file_index>
1166

> <i_lp_mmshare_version>
43012

> <i_f3d_flags>
0

> <s_epik_input>
W0NIM11OKFtDSDNdKWMxW2NIXVtjSF1jKFtjSF1uMSlbTkhdQyg9TylbTkhdW0NAQEhdMltDSDJdW0NIMl1bQ0gyXU4oW0NIMl0yKVMoPU8pKD1PKVtDSDNd

> <s_epik_cmdline>
J2VwaWtfcHl0aG9uJywgJy1waCcsICc3LjAnLCAnLXRuJywgJzgnLCAnLW1hJywgJzIwMCcsICctbWV0YWxfYmluZGluZycsICctaW1hZScsICc8aW5maWxlLm1hZT4nLCAnLW9tYWUnLCAnPG91dGZpbGUubWFlPic=

> <r_lp_tautomer_probability>
0.999994

> <r_epik_Ionization_Penalty>
0.276583

> <r_epik_Ionization_Penalty_Charging>
0.276565

> <r_epik_Ionization_Penalty_Neutral>
1.87575e-05

> <r_epik_State_Penalty>
0.268949

> <r_epik_Charging_Adjusted_Penalty>
0.545513

> <i_epik_Tot_Q>
1

> <i_epik_Tot_abs_Q>
1

> <r_epik_Metal_State_Penalty>
0.551815

> <b_epik_Metal_Only>
0

> <s_lp_Force_Field>
OPLS_2005

> <r_lp_Energy>
7.52153

> <b_lp_Chiralities_Consistent>
1

> <s_lp_Variant>
AV-unprocessed.smi:1166-1

> <Gold.Version>
5.8.1

> <Gold.Id.Protein>
6NUR|6NUR_protein|mol2

> <Gold.PLP.Fitness>
42.7849

> <Gold.PLP.PLP>
-33.7704

> <Gold.PLP.part.hbond>
-4.0000

> <Gold.PLP.part.metal>
0.0000

> <Gold.PLP.part.buried>
-2.3566

> <Gold.PLP.part.nonpolar>
-27.3197

> <Gold.PLP.part.repulsive>
0.1482

> <Gold.PLP.ligand.clash>
0.0000

> <Gold.PLP.ligand.torsion>
2.5221

> <Gold.PLP.Chemscore.Hbond>
4.0000

> <Gold.PLP.Chemscore.CHOScore>
0.0000

> <Gold.PLP.Chemscore.Metal>
0.0000

> <Gold.Chemscore.Hbonds>
donor molecule, donor type, donor heavy atom, donor atom, acceptor molecule, acceptor atom, score
      L1  H     8    32       P1 10175  1.00
      L1  H    11    33       P1 10175  1.00
      L1  H    23    47       P1 10957  2.00

> <Gold.PLP.Chemscore.Internal.Correction>
2.0587

> <Gold.Rescore>
     Score         DG    S(hbond)    S(metal)    S(lipo)     H(rot)  DE(clash)    DE(int)     intcor
     14.29     -19.21       2.62        0.00      64.39       1.00       0.07       4.86       ----

> <Gold.Chemscore.Fitness>
14.2857

> <Gold.Chemscore.DG>
-19.2128

> <Gold.Chemscore.ZeroCoef>
-5.4800

> <Gold.Chemscore.Hbond>
2.6226

> <Gold.Chemscore.Metal>
0.0000

> <Gold.Chemscore.Lipo>
64.3868

> <Gold.Chemscore.Internal_Hbond>
0.0000

> <Gold.Chemscore.DEClash>
0.0664

> <Gold.Chemscore.DEInternal>
4.8608

> <Gold.Chemscore.Rot>
1.0000

> <Gold.Chemscore.Internal.Correction>
   9.000000E+99

> <Gold.Chemscore.Hbonds>
donor molecule, donor type, donor heavy atom, donor atom, acceptor molecule, acceptor atom, score
      L1  H     8    32       P1 10175  0.91
      L1  H    11    33       P1 10175  0.74
      L1  H    23    47       P1 10957  0.97

> <Gold.Chemscore.Hbond.Weighted>
-8.7596

> <Gold.Chemscore.Metal.Weighted>
-0.0000

> <Gold.Chemscore.Lipo.Weighted>
-7.5333

> <Gold.Chemscore.Internal_Hbond.Weighted>
0.0000

> <Gold.Chemscore.DEClash.Weighted>
0.0664

> <Gold.Chemscore.DEInternal.Weighted>
4.8608

> <Gold.Chemscore.Rot.Weighted>
2.5600

> <Gold.Chemscore.Internal.Correction.Weighted>
   9.000000E+99

> <Gold.Protein.RotatedTorsions>
[ 6907 6896 6895 6894 ] final   -5.03 input  -60.11 | X-H torsion
[ 7974 7965 7964 7962 ] final  130.06 input  175.53 | X-H torsion
[ 8008 7997 7996 7995 ] final  -84.76 input   59.86 | X-H torsion
[ 10167 10162 10161 10158 ] final   68.20 input  -65.29 | X-H torsion
[ 10718 10713 10712 10709 ] final   37.77 input   66.30 | X-H torsion
[ 10763 10752 10751 10750 ] final   92.17 input  -60.55 | X-H torsion
[ 11005 11000 10999 10996 ] final -128.70 input  -57.11 | X-H torsion

> <Gold.Protein.ActiveResidues>
 VAL166  LYS551  ARG553  GLY616  TRP617  ASP618  TYR619  PRO620  LYS621  CYS622 
 ASP623  PHE694  ASN695  SER759  ASP760  ASP761  ALA762  ILE779  LEU786  VAL792 
 PHE793  MET794  SER795  GLU796  ALA797  LYS798  CYS799  TRP800  GLU811  SER814 

> <Gold.Protein.RotatedAtoms>
  151.4881  135.1056  159.9795 H   0  0  0  0  0  0  0  0  0  0  0  0  # atno 6907 bound_to 6896
  152.4752  133.8117  159.7017 H   0  0  0  0  0  0  0  0  0  0  0  0  # atno 6908 bound_to 6896
  150.8785  133.7343  159.2965 H   0  0  0  0  0  0  0  0  0  0  0  0  # atno 6909 bound_to 6896
  145.0219  139.4124  143.5193 H   0  0  0  0  0  0  0  0  0  0  0  0  # atno 7974 bound_to 7965
  154.6333  140.0600  156.9759 H   0  0  0  0  0  0  0  0  0  0  0  0  # atno 8008 bound_to 7997
  155.1631  140.3284  155.4389 H   0  0  0  0  0  0  0  0  0  0  0  0  # atno 8009 bound_to 7997
  156.2494  140.1927  156.6737 H   0  0  0  0  0  0  0  0  0  0  0  0  # atno 8010 bound_to 7997
  140.0812  144.5069  150.7160 H   0  0  0  0  0  0  0  0  0  0  0  0  # atno 10167 bound_to 10162
  157.3509  130.7598  149.6978 H   0  0  0  0  0  0  0  0  0  0  0  0  # atno 10718 bound_to 10713
  153.2163  135.4371  155.0438 H   0  0  0  0  0  0  0  0  0  0  0  0  # atno 10763 bound_to 10752
  154.8227  135.3345  154.6994 H   0  0  0  0  0  0  0  0  0  0  0  0  # atno 10764 bound_to 10752
  153.7428  135.7003  153.5019 H   0  0  0  0  0  0  0  0  0  0  0  0  # atno 10765 bound_to 10752
  140.9494  134.1086  157.4076 H   0  0  0  0  0  0  0  0  0  0  0  0  # atno 11005 bound_to 11000
  146.3486  139.9722  142.8705 LP  0  0  0  0  0  0  0  0  0  0  0  0  # atno 17320 bound_to 7965
  145.1884  140.9800  143.4225 LP  0  0  0  0  0  0  0  0  0  0  0  0  # atno 17321 bound_to 7965
  140.7076  143.2480  151.4678 LP  0  0  0  0  0  0  0  0  0  0  0  0  # atno 17342 bound_to 10162
  139.5778  144.1778  152.1927 LP  0  0  0  0  0  0  0  0  0  0  0  0  # atno 17343 bound_to 10162
  155.9721  130.4141  150.4115 LP  0  0  0  0  0  0  0  0  0  0  0  0  # atno 17370 bound_to 10713
  157.2177  131.0475  151.2564 LP  0  0  0  0  0  0  0  0  0  0  0  0  # atno 17371 bound_to 10713
  139.8843  135.0061  156.6359 LP  0  0  0  0  0  0  0  0  0  0  0  0  # atno 17394 bound_to 11000
  140.7623  133.8807  155.8428 LP  0  0  0  0  0  0  0  0  0  0  0  0  # atno 17395 bound_to 11000

$$$$
