AV-unprocessed.smi:1803|AV-procd|sdf|7285|dock3
  -GOLD-   22720 8543D 1   1.00000     0.00000
 Structure written by MMmdl.
 36 38  0  0  0  0  0  0  0  0  2 V2000
  148.5635  134.0824  155.9714 O   0  0  0  0  0  0  0  0  0  0  0  0
  148.6912  134.6284  154.8770 C   0  0  0  0  0  0  0  0  0  0  0  0
  149.6374  135.5687  154.6697 N   0  0  0  0  0  0  0  0  0  0  0  0
  150.6200  136.1207  155.5424 C   0  0  0  0  0  0  0  0  0  0  0  0
  151.7853  136.6494  155.1337 N   0  0  0  0  0  0  0  0  0  0  0  0
  152.5396  137.1345  156.1930 N   0  0  0  0  0  0  0  0  0  0  0  0
  151.9105  136.9665  157.3593 C   0  0  0  0  0  0  0  0  0  0  0  0
  150.3350  136.1981  157.2757 S   0  0  0  0  0  0  0  0  0  0  0  0
  147.9111  134.3304  153.8250 N   0  0  0  0  0  0  0  0  0  0  0  0
  146.8006  133.3838  153.8425 C   0  0  2  0  0  0  0  0  0  0  0  0
  147.1394  132.0465  153.1967 C   0  0  0  0  0  0  0  0  0  0  0  0
  145.7611  131.4501  152.8948 C   0  0  0  0  0  0  0  0  0  0  0  0
  144.8255  132.5901  152.7312 N   0  3  2  0  0  0  0  0  0  0  0  0
  144.0978  132.5932  151.4336 C   0  0  0  0  0  0  0  0  0  0  0  0
  143.4675  133.9666  151.1592 C   0  0  0  0  0  0  0  0  0  0  0  0
  144.5385  135.0690  151.0552 C   0  0  0  0  0  0  0  0  0  0  0  0
  145.8382  134.7001  151.7956 C   0  0  0  0  0  0  0  0  0  0  0  0
  145.5585  133.8464  153.0574 C   0  0  2  0  0  0  0  0  0  0  0  0
  149.7039  135.8910  153.7150 H   0  0  0  0  0  0  0  0  0  0  0  0
  152.3758  137.3009  158.2747 H   0  0  0  0  0  0  0  0  0  0  0  0
  148.0828  134.8198  152.9579 H   0  0  0  0  0  0  0  0  0  0  0  0
  146.5120  133.1889  154.8778 H   0  0  0  0  0  0  0  0  0  0  0  0
  147.6861  132.2036  152.2655 H   0  0  0  0  0  0  0  0  0  0  0  0
  147.7453  131.4055  153.8381 H   0  0  0  0  0  0  0  0  0  0  0  0
  145.7919  130.7901  152.0268 H   0  0  0  0  0  0  0  0  0  0  0  0
  145.4180  130.8553  153.7420 H   0  0  0  0  0  0  0  0  0  0  0  0
  144.7791  132.3432  150.6183 H   0  0  0  0  0  0  0  0  0  0  0  0
  143.3330  131.8163  151.4545 H   0  0  0  0  0  0  0  0  0  0  0  0
  142.8711  133.9388  150.2467 H   0  0  0  0  0  0  0  0  0  0  0  0
  142.7754  134.2063  151.9678 H   0  0  0  0  0  0  0  0  0  0  0  0
  144.7723  135.2683  150.0087 H   0  0  0  0  0  0  0  0  0  0  0  0
  144.1308  135.9979  151.4559 H   0  0  0  0  0  0  0  0  0  0  0  0
  146.4920  134.1441  151.1222 H   0  0  0  0  0  0  0  0  0  0  0  0
  146.3735  135.6158  152.0475 H   0  0  0  0  0  0  0  0  0  0  0  0
  144.9278  134.4410  153.7199 H   0  0  0  0  0  0  0  0  0  0  0  0
  144.1264  132.4876  153.4531 H   0  0  0  0  0  0  0  0  0  0  0  0
  1  2  2  0  0  0  0
  2  3  1  0  0  0  0
  2  9  1  0  0  0  0
  3  4  1  0  0  0  0
  3 19  1  0  0  0  0
  4  8  1  0  0  0  0
  4  5  2  0  0  0  0
  5  6  1  0  0  0  0
  6  7  2  0  0  0  0
  7  8  1  0  0  0  0
  7 20  1  0  0  0  0
  9 10  1  0  0  0  0
  9 21  1  0  0  0  0
 10 18  1  0  0  0  0
 10 11  1  0  0  0  0
 10 22  1  0  0  0  0
 11 12  1  0  0  0  0
 11 23  1  0  0  0  0
 11 24  1  0  0  0  0
 12 13  1  0  0  0  0
 12 25  1  0  0  0  0
 12 26  1  0  0  0  0
 13 18  1  0  0  0  0
 13 14  1  0  0  0  0
 13 36  1  0  0  0  0
 14 15  1  0  0  0  0
 14 27  1  0  0  0  0
 14 28  1  0  0  0  0
 15 16  1  0  0  0  0
 15 29  1  0  0  0  0
 15 30  1  0  0  0  0
 16 17  1  0  0  0  0
 16 31  1  0  0  0  0
 16 32  1  0  0  0  0
 17 18  1  0  0  0  0
 17 33  1  0  0  0  0
 17 34  1  0  0  0  0
 18 35  1  0  0  0  0
M  CHG  1  13   1
M  END
> <s_m_source_file>
AV-unprocessed.smi

> <i_m_source_file_index>
1803

> <i_lp_mmshare_version>
43012

> <i_f3d_flags>
0

> <s_epik_input>
czFbY0hdbm5jMVtOSF1DKD1PKVtOSF1bQ0BIXShbQ0gyXVtDSDJdMilbQ0BASF0oTjIzKVtDSDJdW0NIMl1bQ0gyXVtDSDJdMw==

> <s_epik_cmdline>
J2VwaWtfcHl0aG9uJywgJy1waCcsICc3LjAnLCAnLXRuJywgJzgnLCAnLW1hJywgJzIwMCcsICctbWV0YWxfYmluZGluZycsICctaW1hZScsICc8aW5maWxlLm1hZT4nLCAnLW9tYWUnLCAnPG91dGZpbGUubWFlPic=

> <r_lp_tautomer_probability>
1

> <r_epik_Ionization_Penalty>
0.00213286

> <r_epik_Ionization_Penalty_Charging>
0.00107044

> <r_epik_Ionization_Penalty_Neutral>
0.00106242

> <r_epik_State_Penalty>
-0

> <r_epik_Charging_Adjusted_Penalty>
0.00107044

> <i_epik_Tot_Q>
1

> <i_epik_Tot_abs_Q>
1

> <r_epik_Metal_State_Penalty>
0.292783

> <b_epik_Metal_Only>
0

> <s_lp_Force_Field>
OPLS_2005

> <r_lp_Energy>
41.7848

> <b_lp_Chiralities_Consistent>
1

> <s_lp_Variant>
AV-unprocessed.smi:1803-7

> <Gold.Version>
5.8.1

> <Gold.Id.Protein>
6NUR|6NUR_protein|mol2

> <Gold.PLP.Fitness>
34.0856

> <Gold.PLP.PLP>
-20.8767

> <Gold.PLP.part.hbond>
-4.8591

> <Gold.PLP.part.metal>
0.0000

> <Gold.PLP.part.buried>
-3.4516

> <Gold.PLP.part.nonpolar>
-15.2932

> <Gold.PLP.part.repulsive>
0.1587

> <Gold.PLP.ligand.clash>
0.0000

> <Gold.PLP.ligand.torsion>
0.4059

> <Gold.PLP.Chemscore.Hbond>
4.6725

> <Gold.PLP.Chemscore.CHOScore>
0.0000

> <Gold.PLP.Chemscore.Metal>
0.0000

> <Gold.Chemscore.Hbonds>
donor molecule, donor type, donor heavy atom, donor atom, acceptor molecule, acceptor atom, score
      L1  H     3    19       P1  7948  0.95
      L1  H     9    21       P1  7948  1.00
      L1  H    13    36       P1 10957  1.72
      P1  H 10752 10765       L1     5  1.00

> <Gold.PLP.Chemscore.Internal.Correction>
0.0032

> <Gold.Rescore>
     Score         DG    S(hbond)    S(metal)    S(lipo)     H(rot)  DE(clash)    DE(int)     intcor
     14.67     -15.14       1.83        0.00      52.05       1.00       0.03       0.44       ----

> <Gold.Chemscore.Fitness>
14.6654

> <Gold.Chemscore.DG>
-15.1378

> <Gold.Chemscore.ZeroCoef>
-5.4800

> <Gold.Chemscore.Hbond>
1.8348

> <Gold.Chemscore.Metal>
0.0000

> <Gold.Chemscore.Lipo>
52.0463

> <Gold.Chemscore.Internal_Hbond>
0.0000

> <Gold.Chemscore.DEClash>
0.0329

> <Gold.Chemscore.DEInternal>
0.4395

> <Gold.Chemscore.Rot>
1.0000

> <Gold.Chemscore.Internal.Correction>
   9.000000E+99

> <Gold.Chemscore.Hbonds>
donor molecule, donor type, donor heavy atom, donor atom, acceptor molecule, acceptor atom, score
      L1  H     3    19       P1  7948  0.20
      L1  H     9    21       P1  7948  0.82
      L1  H    13    36       P1 10957  0.21
      P1  H 10752 10765       L1     5  0.24

> <Gold.Chemscore.Hbond.Weighted>
-6.1283

> <Gold.Chemscore.Metal.Weighted>
-0.0000

> <Gold.Chemscore.Lipo.Weighted>
-6.0894

> <Gold.Chemscore.Internal_Hbond.Weighted>
0.0000

> <Gold.Chemscore.DEClash.Weighted>
0.0329

> <Gold.Chemscore.DEInternal.Weighted>
0.4395

> <Gold.Chemscore.Rot.Weighted>
2.5600

> <Gold.Chemscore.Internal.Correction.Weighted>
   9.000000E+99

> <Gold.Protein.RotatedTorsions>
[ 6907 6896 6895 6894 ] final  -32.14 input  -60.11 | X-H torsion
[ 7974 7965 7964 7962 ] final   86.54 input  175.53 | X-H torsion
[ 8008 7997 7996 7995 ] final  -99.83 input   59.86 | X-H torsion
[ 10167 10162 10161 10158 ] final  -12.73 input  -65.29 | X-H torsion
[ 10718 10713 10712 10709 ] final   14.41 input   66.30 | X-H torsion
[ 10763 10752 10751 10750 ] final  165.47 input  -60.55 | X-H torsion
[ 11005 11000 10999 10996 ] final  139.52 input  -57.11 | X-H torsion

> <Gold.Protein.ActiveResidues>
 VAL166  LYS551  ARG553  GLY616  TRP617  ASP618  TYR619  PRO620  LYS621  CYS622 
 ASP623  PHE694  ASN695  SER759  ASP760  ASP761  ALA762  ILE779  LEU786  VAL792 
 PHE793  MET794  SER795  GLU796  ALA797  LYS798  CYS799  TRP800  GLU811  SER814 

> <Gold.Protein.RotatedAtoms>
  151.0827  134.9868  159.8363 H   0  0  0  0  0  0  0  0  0  0  0  0  # atno 6907 bound_to 6896
  152.5421  134.2161  159.8779 H   0  0  0  0  0  0  0  0  0  0  0  0  # atno 6908 bound_to 6896
  151.2193  133.4468  159.2633 H   0  0  0  0  0  0  0  0  0  0  0  0  # atno 6909 bound_to 6896
  145.5709  139.2313  143.2407 H   0  0  0  0  0  0  0  0  0  0  0  0  # atno 7974 bound_to 7965
  154.8203  140.0445  157.1405 H   0  0  0  0  0  0  0  0  0  0  0  0  # atno 8008 bound_to 7997
  154.9268  140.3034  155.5168 H   0  0  0  0  0  0  0  0  0  0  0  0  # atno 8009 bound_to 7997
  156.2979  140.2330  156.4323 H   0  0  0  0  0  0  0  0  0  0  0  0  # atno 8010 bound_to 7997
  140.7167  143.5502  150.9310 H   0  0  0  0  0  0  0  0  0  0  0  0  # atno 10167 bound_to 10162
  157.0388  130.6222  149.5747 H   0  0  0  0  0  0  0  0  0  0  0  0  # atno 10718 bound_to 10713
  154.3245  135.2755  155.2503 H   0  0  0  0  0  0  0  0  0  0  0  0  # atno 10763 bound_to 10752
  154.4841  135.5850  153.6415 H   0  0  0  0  0  0  0  0  0  0  0  0  # atno 10764 bound_to 10752
  152.9873  135.6118  154.3433 H   0  0  0  0  0  0  0  0  0  0  0  0  # atno 10765 bound_to 10752
  140.0261  134.9374  157.0570 H   0  0  0  0  0  0  0  0  0  0  0  0  # atno 11005 bound_to 11000
  146.1785  140.6535  142.9200 LP  0  0  0  0  0  0  0  0  0  0  0  0  # atno 17320 bound_to 7965
  144.7438  140.5014  143.6850 LP  0  0  0  0  0  0  0  0  0  0  0  0  # atno 17321 bound_to 7965
  139.9226  143.6588  152.3093 LP  0  0  0  0  0  0  0  0  0  0  0  0  # atno 17342 bound_to 10162
  139.7010  144.7635  151.1273 LP  0  0  0  0  0  0  0  0  0  0  0  0  # atno 17343 bound_to 10162
  156.0045  130.5129  150.7781 LP  0  0  0  0  0  0  0  0  0  0  0  0  # atno 17370 bound_to 10713
  157.5121  131.0926  151.0185 LP  0  0  0  0  0  0  0  0  0  0  0  0  # atno 17371 bound_to 10713
  140.4305  134.1786  155.7168 LP  0  0  0  0  0  0  0  0  0  0  0  0  # atno 17394 bound_to 11000
  141.1803  133.8427  157.1280 LP  0  0  0  0  0  0  0  0  0  0  0  0  # atno 17395 bound_to 11000

$$$$
