AV-unprocessed.smi:2188|AV-procd|sdf|8880|dock8
  -GOLD-   2272012 83D 1   1.00000     0.00000
 Structure written by MMmdl.
 39 41  0  0  0  0  0  0  0  0  1 V2000
  146.6523  136.8158  154.3850 O   0  0  0  0  0  0  0  0  0  0  0  0
  146.7930  137.7492  153.5930 C   0  0  0  0  0  0  0  0  0  0  0  0
  146.2632  137.7138  152.3548 N   0  0  0  0  0  0  0  0  0  0  0  0
  145.4480  136.6363  151.7998 C   0  0  0  0  0  0  0  0  0  0  0  0
  146.0735  135.2508  152.0482 C   0  0  0  0  0  0  0  0  0  0  0  0
  145.2513  134.1041  151.4865 C   0  0  0  0  0  0  0  0  0  0  0  0
  145.8361  133.1292  150.6516 C   0  0  0  0  0  0  0  0  0  0  0  0
  145.0247  132.0980  150.1412 C   0  0  0  0  0  0  0  0  0  0  0  0
  143.6596  132.0838  150.4912 C   0  0  0  0  0  0  0  0  0  0  0  0
  143.0895  133.0094  151.2923 N   0  0  0  0  0  0  0  0  0  0  0  0
  143.8741  133.9968  151.7746 C   0  0  0  0  0  0  0  0  0  0  0  0
  147.5266  138.9934  153.8779 C   0  0  0  0  0  0  0  0  0  0  0  0
  146.9438  140.1827  153.5740 C   0  0  0  0  0  0  0  0  0  0  0  0
  147.6109  141.4378  153.8171 C   0  0  0  0  0  0  0  0  0  0  0  0
  148.8228  141.4067  154.3817 C   0  0  0  0  0  0  0  0  0  0  0  0
  149.4659  140.2249  154.7468 N   0  0  0  0  0  0  0  0  0  0  0  0
  150.7471  140.3567  155.4335 C   0  0  0  0  0  0  0  0  0  0  0  0
  151.7155  139.2846  154.9671 C   0  0  0  0  0  0  0  0  0  0  0  0
  150.9675  137.6899  155.4579 S   0  0  0  0  0  0  0  0  0  0  0  0
  151.7396  136.6088  154.8269 O   0  0  0  0  0  0  0  0  0  0  0  0
  150.7941  137.6964  156.9190 O   0  0  0  0  0  0  0  0  0  0  0  0
  149.4685  137.8238  154.7235 N   0  0  0  0  0  0  0  0  0  0  0  0
  148.8716  138.9576  154.4859 C   0  0  0  0  0  0  0  0  0  0  0  0
  146.4255  138.5097  151.7555 H   0  0  0  0  0  0  0  0  0  0  0  0
  144.4661  136.6813  152.2710 H   0  0  0  0  0  0  0  0  0  0  0  0
  145.2773  136.7863  150.7325 H   0  0  0  0  0  0  0  0  0  0  0  0
  147.0748  135.2162  151.6166 H   0  0  0  0  0  0  0  0  0  0  0  0
  146.2019  135.0946  153.1199 H   0  0  0  0  0  0  0  0  0  0  0  0
  146.8851  133.1747  150.3978 H   0  0  0  0  0  0  0  0  0  0  0  0
  145.4371  131.3375  149.4950 H   0  0  0  0  0  0  0  0  0  0  0  0
  143.0082  131.3077  150.1175 H   0  0  0  0  0  0  0  0  0  0  0  0
  143.3877  134.7259  152.4060 H   0  0  0  0  0  0  0  0  0  0  0  0
  145.9518  140.2262  153.1474 H   0  0  0  0  0  0  0  0  0  0  0  0
  147.1458  142.3754  153.5505 H   0  0  0  0  0  0  0  0  0  0  0  0
  149.3714  142.3138  154.5903 H   0  0  0  0  0  0  0  0  0  0  0  0
  151.1883  141.3348  155.2382 H   0  0  0  0  0  0  0  0  0  0  0  0
  150.5877  140.2962  156.5105 H   0  0  0  0  0  0  0  0  0  0  0  0
  151.8594  139.3014  153.8862 H   0  0  0  0  0  0  0  0  0  0  0  0
  152.6882  139.3790  155.4492 H   0  0  0  0  0  0  0  0  0  0  0  0
  1  2  2  0  0  0  0
  2  3  1  0  0  0  0
  2 12  1  0  0  0  0
  3  4  1  0  0  0  0
  3 24  1  0  0  0  0
  4  5  1  0  0  0  0
  4 25  1  0  0  0  0
  4 26  1  0  0  0  0
  5  6  1  0  0  0  0
  5 27  1  0  0  0  0
  5 28  1  0  0  0  0
  6 11  1  0  0  0  0
  6  7  2  0  0  0  0
  7  8  1  0  0  0  0
  7 29  1  0  0  0  0
  8  9  2  0  0  0  0
  8 30  1  0  0  0  0
  9 10  1  0  0  0  0
  9 31  1  0  0  0  0
 10 11  2  0  0  0  0
 11 32  1  0  0  0  0
 12 23  1  0  0  0  0
 12 13  2  0  0  0  0
 13 14  1  0  0  0  0
 13 33  1  0  0  0  0
 14 15  2  0  0  0  0
 14 34  1  0  0  0  0
 15 16  1  0  0  0  0
 15 35  1  0  0  0  0
 16 23  1  0  0  0  0
 16 17  1  0  0  0  0
 17 18  1  0  0  0  0
 17 36  1  0  0  0  0
 17 37  1  0  0  0  0
 18 19  1  0  0  0  0
 18 38  1  0  0  0  0
 18 39  1  0  0  0  0
 19 20  2  0  0  0  0
 19 21  2  0  0  0  0
 19 22  1  0  0  0  0
 22 23  2  0  0  0  0
M  END
> <s_m_source_file>
AV-unprocessed.smi

> <i_m_source_file_index>
2188

> <i_lp_mmshare_version>
43012

> <i_f3d_flags>
0

> <s_epik_input>
W0NIMl0xW0NIMl1TKD1PKSg9TylOPUMoTjEyKUMoPVtDSF1bQ0hdPVtDSF0yKUMoPU8pW05IXVtDSDJdW0NIMl1jM1tjSF1bY0hdW2NIXW5bY0hdMw==

> <s_epik_cmdline>
J2VwaWtfcHl0aG9uJywgJy1waCcsICc3LjAnLCAnLXRuJywgJzgnLCAnLW1hJywgJzIwMCcsICctbWV0YWxfYmluZGluZycsICctaW1hZScsICc8aW5maWxlLm1hZT4nLCAnLW9tYWUnLCAnPG91dGZpbGUubWFlPic=

> <r_epik_Ionization_Penalty>
0.00945125

> <r_epik_Ionization_Penalty_Charging>
8.06468e-09

> <r_epik_Ionization_Penalty_Neutral>
0.00945124

> <r_epik_State_Penalty>
0.0071398

> <r_epik_Charging_Adjusted_Penalty>
0.0071398

> <i_epik_Tot_Q>
0

> <i_epik_Tot_abs_Q>
0

> <r_epik_Metal_State_Penalty>
0.0479458

> <b_epik_Metal_Only>
0

> <s_lp_Force_Field>
OPLS_2005

> <r_lp_Energy>
29.0495

> <b_lp_Chiralities_Consistent>
1

> <s_lp_Variant>
AV-unprocessed.smi:2188-1

> <Gold.Version>
5.8.1

> <Gold.Id.Protein>
6NUR|6NUR_protein|mol2

> <Gold.PLP.Fitness>
45.2799

> <Gold.PLP.PLP>
-39.0528

> <Gold.PLP.part.hbond>
-2.0000

> <Gold.PLP.part.metal>
0.0000

> <Gold.PLP.part.buried>
-2.1952

> <Gold.PLP.part.nonpolar>
-36.1502

> <Gold.PLP.part.repulsive>
1.2297

> <Gold.PLP.ligand.clash>
0.0000

> <Gold.PLP.ligand.torsion>
0.9609

> <Gold.PLP.Chemscore.Hbond>
1.0000

> <Gold.PLP.Chemscore.CHOScore>
1.6288

> <Gold.PLP.Chemscore.Metal>
0.0000

> <Gold.Chemscore.Hbonds>
donor molecule, donor type, donor heavy atom, donor atom, acceptor molecule, acceptor atom, score
      P1  H 10752 10765       L1    20  1.00
      L1  C     9    31       P1 10952  1.00
      L1  C    15    35       P1  8028  0.67

> <Gold.PLP.Chemscore.Internal.Correction>
0.2625

> <Gold.Rescore>
     Score         DG    S(hbond)    S(metal)    S(lipo)     H(rot)  DE(clash)    DE(int)     intcor
     12.19     -15.53       1.00        0.00      89.44       1.47       0.04       3.29       ----

> <Gold.Chemscore.Fitness>
12.1948

> <Gold.Chemscore.DG>
-15.5267

> <Gold.Chemscore.ZeroCoef>
-5.4800

> <Gold.Chemscore.Hbond>
1.0000

> <Gold.Chemscore.Metal>
0.0000

> <Gold.Chemscore.Lipo>
89.4402

> <Gold.Chemscore.Internal_Hbond>
0.0000

> <Gold.Chemscore.DEClash>
0.0416

> <Gold.Chemscore.DEInternal>
3.2903

> <Gold.Chemscore.Rot>
1.4679

> <Gold.Chemscore.Internal.Correction>
   9.000000E+99

> <Gold.Chemscore.Hbonds>
donor molecule, donor type, donor heavy atom, donor atom, acceptor molecule, acceptor atom, score
      P1  H 10752 10765       L1    20  0.97

> <Gold.Chemscore.Hbond.Weighted>
-3.3400

> <Gold.Chemscore.Metal.Weighted>
-0.0000

> <Gold.Chemscore.Lipo.Weighted>
-10.4645

> <Gold.Chemscore.Internal_Hbond.Weighted>
0.0000

> <Gold.Chemscore.DEClash.Weighted>
0.0416

> <Gold.Chemscore.DEInternal.Weighted>
3.2903

> <Gold.Chemscore.Rot.Weighted>
3.7578

> <Gold.Chemscore.Internal.Correction.Weighted>
   9.000000E+99

> <Gold.Protein.RotatedTorsions>
[ 6907 6896 6895 6894 ] final   93.40 input  -60.11 | X-H torsion
[ 7974 7965 7964 7962 ] final  141.63 input  175.53 | X-H torsion
[ 8008 7997 7996 7995 ] final -131.17 input   59.86 | X-H torsion
[ 10167 10162 10161 10158 ] final   40.23 input  -65.29 | X-H torsion
[ 10718 10713 10712 10709 ] final  144.75 input   66.30 | X-H torsion
[ 10763 10752 10751 10750 ] final  176.61 input  -60.55 | X-H torsion
[ 11005 11000 10999 10996 ] final   36.89 input  -57.11 | X-H torsion

> <Gold.Protein.ActiveResidues>
 VAL166  LYS551  ARG553  GLY616  TRP617  ASP618  TYR619  PRO620  LYS621  CYS622 
 ASP623  PHE694  ASN695  SER759  ASP760  ASP761  ALA762  ILE779  LEU786  VAL792 
 PHE793  MET794  SER795  GLU796  ALA797  LYS798  CYS799  TRP800  GLU811  SER814 

> <Gold.Protein.RotatedAtoms>
  152.5452  134.1354  159.8456 H   0  0  0  0  0  0  0  0  0  0  0  0  # atno 6907 bound_to 6896
  151.1395  133.4974  159.2604 H   0  0  0  0  0  0  0  0  0  0  0  0  # atno 6908 bound_to 6896
  151.1588  135.0273  159.8756 H   0  0  0  0  0  0  0  0  0  0  0  0  # atno 6909 bound_to 6896
  144.9079  139.5333  143.5722 H   0  0  0  0  0  0  0  0  0  0  0  0  # atno 7974 bound_to 7965
  155.3079  140.0456  157.3033 H   0  0  0  0  0  0  0  0  0  0  0  0  # atno 8008 bound_to 7997
  154.5449  140.2299  155.8546 H   0  0  0  0  0  0  0  0  0  0  0  0  # atno 8009 bound_to 7997
  156.1915  140.3049  155.9349 H   0  0  0  0  0  0  0  0  0  0  0  0  # atno 8010 bound_to 7997
  140.3762  144.2040  150.6131 H   0  0  0  0  0  0  0  0  0  0  0  0  # atno 10167 bound_to 10162
  157.3534  131.0954  151.0980 H   0  0  0  0  0  0  0  0  0  0  0  0  # atno 10718 bound_to 10713
  154.4834  135.2776  155.1553 H   0  0  0  0  0  0  0  0  0  0  0  0  # atno 10763 bound_to 10752
  154.3254  135.6201  153.5530 H   0  0  0  0  0  0  0  0  0  0  0  0  # atno 10764 bound_to 10752
  152.9878  135.5752  154.5240 H   0  0  0  0  0  0  0  0  0  0  0  0  # atno 10765 bound_to 10752
  140.2280  134.3561  155.7976 H   0  0  0  0  0  0  0  0  0  0  0  0  # atno 11005 bound_to 11000
  146.3143  139.7862  142.8995 LP  0  0  0  0  0  0  0  0  0  0  0  0  # atno 17320 bound_to 7965
  145.3504  141.0306  143.3342 LP  0  0  0  0  0  0  0  0  0  0  0  0  # atno 17321 bound_to 7965
  140.4984  143.2325  151.8716 LP  0  0  0  0  0  0  0  0  0  0  0  0  # atno 17342 bound_to 10162
  139.4799  144.5088  151.8961 LP  0  0  0  0  0  0  0  0  0  0  0  0  # atno 17343 bound_to 10162
  157.2147  130.6454  149.5787 LP  0  0  0  0  0  0  0  0  0  0  0  0  # atno 17370 bound_to 10713
  155.9725  130.4648  150.6233 LP  0  0  0  0  0  0  0  0  0  0  0  0  # atno 17371 bound_to 10713
  141.2219  133.7230  156.8685 LP  0  0  0  0  0  0  0  0  0  0  0  0  # atno 17394 bound_to 11000
  140.1780  134.9053  157.2914 LP  0  0  0  0  0  0  0  0  0  0  0  0  # atno 17395 bound_to 11000

$$$$
