AV-unprocessed.smi:1878|AV-procd|sdf|7630|dock7
  -GOLD-   22720 9353D 1   1.00000     0.00000
 Structure written by MMmdl.
 35 36  0  0  0  0  0  0  0  0  3 V2000
  147.1314  140.4965  153.4271 O   0  0  0  0  0  0  0  0  0  0  0  0
  147.9511  139.5829  153.3303 C   0  0  0  0  0  0  0  0  0  0  0  0
  147.6114  138.4698  152.6676 N   0  0  0  0  0  0  0  0  0  0  0  0
  146.3205  138.2293  152.0331 C   0  0  0  0  0  0  0  0  0  0  0  0
  145.5079  137.1824  152.8086 C   0  0  0  0  0  0  0  0  0  0  0  0
  144.2565  137.1682  152.3509 F   0  0  0  0  0  0  0  0  0  0  0  0
  146.0370  135.9695  152.6454 F   0  0  0  0  0  0  0  0  0  0  0  0
  145.4849  137.4809  154.1078 F   0  0  0  0  0  0  0  0  0  0  0  0
  149.2145  139.5396  153.8247 N   0  5  0  0  0  0  0  0  0  0  0  0
  149.7578  140.3657  154.7448 C   0  0  0  0  0  0  0  0  0  0  0  0
  150.8563  139.8681  155.4851 C   0  0  0  0  0  0  0  0  0  0  0  0
  151.4901  140.6525  156.4691 C   0  0  0  0  0  0  0  0  0  0  0  0
  151.0194  141.9594  156.7160 C   0  0  0  0  0  0  0  0  0  0  0  0
  151.5727  142.8245  157.6703 N   0  0  0  0  0  0  0  0  0  0  0  0
  150.7339  143.0831  158.8289 C   0  0  0  0  0  0  0  0  0  0  0  0
  151.3226  144.3318  159.4903 C   0  0  0  0  0  0  0  0  0  0  0  0
  152.1200  145.0268  158.3803 C   0  0  0  0  0  0  0  0  0  0  0  0
  151.9526  144.1280  157.1523 C   0  0  0  0  0  0  0  0  0  0  0  0
  149.9707  142.4168  156.0037 N   0  3  0  0  0  0  0  0  0  0  0  0
  149.3413  141.6893  155.0555 C   0  0  0  0  0  0  0  0  0  0  0  0
  148.2992  137.7341  152.5991 H   0  0  0  0  0  0  0  0  0  0  0  0
  145.7644  139.1666  151.9807 H   0  0  0  0  0  0  0  0  0  0  0  0
  146.4791  137.8913  151.0079 H   0  0  0  0  0  0  0  0  0  0  0  0
  151.2214  138.8680  155.2994 H   0  0  0  0  0  0  0  0  0  0  0  0
  152.3237  140.2469  157.0228 H   0  0  0  0  0  0  0  0  0  0  0  0
  149.7028  143.2713  158.5272 H   0  0  0  0  0  0  0  0  0  0  0  0
  150.7340  142.2317  159.5103 H   0  0  0  0  0  0  0  0  0  0  0  0
  150.5437  144.9715  159.9061 H   0  0  0  0  0  0  0  0  0  0  0  0
  151.9905  144.0495  160.3052 H   0  0  0  0  0  0  0  0  0  0  0  0
  151.7655  146.0396  158.1865 H   0  0  0  0  0  0  0  0  0  0  0  0
  153.1714  145.0915  158.6632 H   0  0  0  0  0  0  0  0  0  0  0  0
  152.8744  144.0656  156.5731 H   0  0  0  0  0  0  0  0  0  0  0  0
  151.1721  144.5237  156.5007 H   0  0  0  0  0  0  0  0  0  0  0  0
  148.5228  142.2114  154.5864 H   0  0  0  0  0  0  0  0  0  0  0  0
  149.6336  143.3615  156.1888 H   0  0  0  0  0  0  0  0  0  0  0  0
  1  2  2  0  0  0  0
  2  3  1  0  0  0  0
  2  9  1  0  0  0  0
  3  4  1  0  0  0  0
  3 21  1  0  0  0  0
  4  5  1  0  0  0  0
  4 22  1  0  0  0  0
  4 23  1  0  0  0  0
  5  6  1  0  0  0  0
  5  7  1  0  0  0  0
  5  8  1  0  0  0  0
  9 10  1  0  0  0  0
 10 20  1  0  0  0  0
 10 11  2  0  0  0  0
 11 12  1  0  0  0  0
 11 24  1  0  0  0  0
 12 13  2  0  0  0  0
 12 25  1  0  0  0  0
 13 14  1  0  0  0  0
 13 19  1  0  0  0  0
 14 18  1  0  0  0  0
 14 15  1  0  0  0  0
 15 16  1  0  0  0  0
 15 26  1  0  0  0  0
 15 27  1  0  0  0  0
 16 17  1  0  0  0  0
 16 28  1  0  0  0  0
 16 29  1  0  0  0  0
 17 18  1  0  0  0  0
 17 30  1  0  0  0  0
 17 31  1  0  0  0  0
 18 32  1  0  0  0  0
 18 33  1  0  0  0  0
 19 20  2  0  0  0  0
 19 35  1  0  0  0  0
 20 34  1  0  0  0  0
M  CHG  1   9  -1
M  CHG  1  19   1
M  END
> <s_m_source_file>
AV-unprocessed.smi

> <i_m_source_file_index>
1878

> <i_lp_mmshare_version>
43012

> <i_f3d_flags>
0

> <s_epik_input>
RkMoRikoRilbQ0gyXVtOSF1DKD1PKVtOSF1jMVtjSF1bY0hdYyhuW2NIXTEpTjJbQ0gyXVtDSDJdW0NIMl1bQ0gyXTI=

> <s_epik_cmdline>
J2VwaWtfcHl0aG9uJywgJy1waCcsICc3LjAnLCAnLXRuJywgJzgnLCAnLW1hJywgJzIwMCcsICctbWV0YWxfYmluZGluZycsICctaW1hZScsICc8aW5maWxlLm1hZT4nLCAnLW9tYWUnLCAnPG91dGZpbGUubWFlPic=

> <r_lp_tautomer_probability>
0.999994

> <r_epik_Ionization_Penalty>
6.00991

> <r_epik_Ionization_Penalty_Charging>
6.00991

> <r_epik_Ionization_Penalty_Neutral>
1.33916e-07

> <r_epik_State_Penalty>
7.27363

> <r_epik_Charging_Adjusted_Penalty>
13.2835

> <i_epik_Tot_Q>
0

> <i_epik_Tot_abs_Q>
2

> <r_epik_Metal_State_Penalty>
3.28277

> <b_epik_Metal_Only>
1

> <s_lp_Force_Field>
OPLS_2005

> <r_lp_Energy>
31.9355

> <b_lp_Chiralities_Consistent>
1

> <s_lp_Variant>
AV-unprocessed.smi:1878-5

> <Gold.Version>
5.8.1

> <Gold.Id.Protein>
6NUR|6NUR_protein|mol2

> <Gold.PLP.Fitness>
43.3544

> <Gold.PLP.PLP>
-35.1960

> <Gold.PLP.part.hbond>
-2.5614

> <Gold.PLP.part.metal>
0.0000

> <Gold.PLP.part.buried>
-2.9531

> <Gold.PLP.part.nonpolar>
-30.9954

> <Gold.PLP.part.repulsive>
1.9329

> <Gold.PLP.ligand.clash>
0.0000

> <Gold.PLP.ligand.torsion>
0.4462

> <Gold.PLP.Chemscore.Hbond>
2.9920

> <Gold.PLP.Chemscore.CHOScore>
0.0000

> <Gold.PLP.Chemscore.Metal>
0.0000

> <Gold.Chemscore.Hbonds>
donor molecule, donor type, donor heavy atom, donor atom, acceptor molecule, acceptor atom, score
      L1  H     3    21       P1  7948  1.00
      L1  H    19    35       P1  8028  1.98

> <Gold.PLP.Chemscore.Internal.Correction>
0.0748

> <Gold.Rescore>
     Score         DG    S(hbond)    S(metal)    S(lipo)     H(rot)  DE(clash)    DE(int)     intcor
     16.27     -18.08       1.83        0.00      84.59       1.33       0.30       1.51       ----

> <Gold.Chemscore.Fitness>
16.2728

> <Gold.Chemscore.DG>
-18.0803

> <Gold.Chemscore.ZeroCoef>
-5.4800

> <Gold.Chemscore.Hbond>
1.8301

> <Gold.Chemscore.Metal>
0.0000

> <Gold.Chemscore.Lipo>
84.5894

> <Gold.Chemscore.Internal_Hbond>
0.0000

> <Gold.Chemscore.DEClash>
0.2986

> <Gold.Chemscore.DEInternal>
1.5089

> <Gold.Chemscore.Rot>
1.3317

> <Gold.Chemscore.Internal.Correction>
   9.000000E+99

> <Gold.Chemscore.Hbonds>
donor molecule, donor type, donor heavy atom, donor atom, acceptor molecule, acceptor atom, score
      L1  H     3    21       P1  7948  0.96
      L1  H    19    35       P1  8028  0.94

> <Gold.Chemscore.Hbond.Weighted>
-6.1126

> <Gold.Chemscore.Metal.Weighted>
-0.0000

> <Gold.Chemscore.Lipo.Weighted>
-9.8970

> <Gold.Chemscore.Internal_Hbond.Weighted>
0.0000

> <Gold.Chemscore.DEClash.Weighted>
0.2986

> <Gold.Chemscore.DEInternal.Weighted>
1.5089

> <Gold.Chemscore.Rot.Weighted>
3.4092

> <Gold.Chemscore.Internal.Correction.Weighted>
   9.000000E+99

> <Gold.Protein.RotatedTorsions>
[ 6907 6896 6895 6894 ] final   -5.13 input  -60.11 | X-H torsion
[ 7974 7965 7964 7962 ] final -157.37 input  175.53 | X-H torsion
[ 8008 7997 7996 7995 ] final   22.16 input   59.86 | X-H torsion
[ 10167 10162 10161 10158 ] final  -83.99 input  -65.29 | X-H torsion
[ 10718 10713 10712 10709 ] final   29.21 input   66.30 | X-H torsion
[ 10763 10752 10751 10750 ] final  117.01 input  -60.55 | X-H torsion
[ 11005 11000 10999 10996 ] final   -8.14 input  -57.11 | X-H torsion

> <Gold.Protein.ActiveResidues>
 VAL166  LYS551  ARG553  GLY616  TRP617  ASP618  TYR619  PRO620  LYS621  CYS622 
 ASP623  PHE694  ASN695  SER759  ASP760  ASP761  ALA762  ILE779  LEU786  VAL792 
 PHE793  MET794  SER795  GLU796  ALA797  LYS798  CYS799  TRP800  GLU811  SER814 

> <Gold.Protein.RotatedAtoms>
  151.4865  135.1055  159.9791 H   0  0  0  0  0  0  0  0  0  0  0  0  # atno 6907 bound_to 6896
  152.4758  133.8132  159.7025 H   0  0  0  0  0  0  0  0  0  0  0  0  # atno 6908 bound_to 6896
  150.8796  133.7329  159.2962 H   0  0  0  0  0  0  0  0  0  0  0  0  # atno 6909 bound_to 6896
  144.7551  140.3979  143.6018 H   0  0  0  0  0  0  0  0  0  0  0  0  # atno 7974 bound_to 7965
  154.9615  140.3078  155.5028 H   0  0  0  0  0  0  0  0  0  0  0  0  # atno 8008 bound_to 7997
  156.2976  140.2300  156.4640 H   0  0  0  0  0  0  0  0  0  0  0  0  # atno 8009 bound_to 7997
  154.7960  140.0437  157.1225 H   0  0  0  0  0  0  0  0  0  0  0  0  # atno 8010 bound_to 7997
  140.4175  143.2598  151.8935 H   0  0  0  0  0  0  0  0  0  0  0  0  # atno 10167 bound_to 10162
  157.2435  130.7081  149.6370 H   0  0  0  0  0  0  0  0  0  0  0  0  # atno 10718 bound_to 10713
  153.5459  135.3549  155.2739 H   0  0  0  0  0  0  0  0  0  0  0  0  # atno 10763 bound_to 10752
  154.8712  135.4102  154.2991 H   0  0  0  0  0  0  0  0  0  0  0  0  # atno 10764 bound_to 10752
  153.3708  135.7064  153.6708 H   0  0  0  0  0  0  0  0  0  0  0  0  # atno 10765 bound_to 10752
  140.7203  133.8834  155.8815 H   0  0  0  0  0  0  0  0  0  0  0  0  # atno 11005 bound_to 11000
  145.6806  139.1617  143.2703 LP  0  0  0  0  0  0  0  0  0  0  0  0  # atno 17320 bound_to 7965
  146.1552  140.6868  142.9303 LP  0  0  0  0  0  0  0  0  0  0  0  0  # atno 17321 bound_to 7965
  139.4782  144.5472  151.8440 LP  0  0  0  0  0  0  0  0  0  0  0  0  # atno 17342 bound_to 10162
  140.4570  144.1775  150.5902 LP  0  0  0  0  0  0  0  0  0  0  0  0  # atno 17343 bound_to 10162
  155.9669  130.4450  150.5485 LP  0  0  0  0  0  0  0  0  0  0  0  0  # atno 17370 bound_to 10713
  157.3353  131.0707  151.1829 LP  0  0  0  0  0  0  0  0  0  0  0  0  # atno 17371 bound_to 10713
  141.0009  134.1151  157.4318 LP  0  0  0  0  0  0  0  0  0  0  0  0  # atno 17394 bound_to 11000
  139.8850  135.0068  156.6405 LP  0  0  0  0  0  0  0  0  0  0  0  0  # atno 17395 bound_to 11000

$$$$
