AV-unprocessed.smi:83|AV-procd|sdf|800|dock4
  -GOLD-   2262017183D 1   1.00000     0.00000
 Structure written by MMmdl.
 56 59  0  0  0  0  0  0  0  0  1 V2000
  152.0204  144.6129  158.1613 C   0  0  0  0  0  0  0  0  0  0  0  0
  151.8630  144.1924  159.6237 C   0  0  0  0  0  0  0  0  0  0  0  0
  151.0043  144.7424  160.3128 O   0  0  0  0  0  0  0  0  0  0  0  0
  152.6744  143.2308  160.1090 N   0  0  0  0  0  0  0  0  0  0  0  0
  152.6263  142.7445  161.4851 C   0  0  0  0  0  0  0  0  0  0  0  0
  153.7637  141.7248  161.5980 C   0  0  0  0  0  0  0  0  0  0  0  0
  153.9712  141.2246  160.1688 C   0  0  1  0  0  0  0  0  0  0  0  0
  153.0203  140.0381  159.8758 C   0  0  0  0  0  0  0  0  0  0  0  0
  153.5918  138.7232  160.1718 N   0  0  0  0  0  0  0  0  0  0  0  0
  154.4195  138.6149  161.3720 C   0  0  0  0  0  0  0  0  0  0  0  0
  153.6999  137.7590  159.2085 C   0  0  0  0  0  0  0  0  0  0  0  0
  153.0023  137.9298  158.0518 N   0  0  0  0  0  0  0  0  0  0  0  0
  153.0278  137.0084  157.0864 C   0  0  0  0  0  0  0  0  0  0  0  0
  153.6768  135.8456  157.0641 N   0  0  0  0  0  0  0  0  0  0  0  0
  154.3941  135.6619  158.2073 C   0  0  0  0  0  0  0  0  0  0  0  0
  154.4730  136.5584  159.3149 C   0  0  0  0  0  0  0  0  0  0  0  0
  155.3221  136.0148  160.2749 N   0  0  0  0  0  0  0  0  0  0  0  0
  155.6987  134.8691  159.7805 C   0  0  0  0  0  0  0  0  0  0  0  0
  155.1858  134.5772  158.5406 N   0  0  0  0  0  0  0  0  0  0  0  0
  155.4345  133.3763  157.7629 C   0  0  0  0  0  0  0  0  0  0  0  0
  154.1329  132.6581  157.3586 C   0  0  2  0  0  0  0  0  0  0  0  0
  153.2407  132.5871  158.4547 O   0  0  0  0  0  0  0  0  0  0  0  0
  154.3849  131.2561  156.7666 C   0  0  2  0  0  0  0  0  0  0  0  0
  155.3155  131.1823  155.5526 C   0  0  0  0  0  0  0  0  0  0  0  0
  154.8760  129.8792  154.9236 C   0  0  0  0  0  0  0  0  0  0  0  0
  153.3667  129.9192  155.1490 C   0  0  0  0  0  0  0  0  0  0  0  0
  153.1736  130.6108  156.3799 O   0  0  0  0  0  0  0  0  0  0  0  0
  153.6821  142.4935  159.3509 C   0  0  0  0  0  0  0  0  0  0  0  0
  153.0518  144.8932  157.9471 H   0  0  0  0  0  0  0  0  0  0  0  0
  151.3855  145.4707  157.9374 H   0  0  0  0  0  0  0  0  0  0  0  0
  151.7329  143.8008  157.4939 H   0  0  0  0  0  0  0  0  0  0  0  0
  152.7411  143.5543  162.2071 H   0  0  0  0  0  0  0  0  0  0  0  0
  151.6620  142.2654  161.6616 H   0  0  0  0  0  0  0  0  0  0  0  0
  154.6686  142.2296  161.9393 H   0  0  0  0  0  0  0  0  0  0  0  0
  153.5467  140.9280  162.3103 H   0  0  0  0  0  0  0  0  0  0  0  0
  155.0020  140.8996  160.0229 H   0  0  0  0  0  0  0  0  0  0  0  0
  152.1398  140.1470  160.5097 H   0  0  0  0  0  0  0  0  0  0  0  0
  152.6206  140.1013  158.8695 H   0  0  0  0  0  0  0  0  0  0  0  0
  154.2764  137.6486  161.8570 H   0  0  0  0  0  0  0  0  0  0  0  0
  154.1619  139.3875  162.0967 H   0  0  0  0  0  0  0  0  0  0  0  0
  155.4754  138.7283  161.1240 H   0  0  0  0  0  0  0  0  0  0  0  0
  152.4395  137.2331  156.2088 H   0  0  0  0  0  0  0  0  0  0  0  0
  156.3633  134.2024  160.3105 H   0  0  0  0  0  0  0  0  0  0  0  0
  155.9991  133.6595  156.8738 H   0  0  0  0  0  0  0  0  0  0  0  0
  156.0786  132.7124  158.3406 H   0  0  0  0  0  0  0  0  0  0  0  0
  153.6337  133.2554  156.5945 H   0  0  0  0  0  0  0  0  0  0  0  0
  153.3335  131.7397  158.8624 H   0  0  0  0  0  0  0  0  0  0  0  0
  154.8139  130.6288  157.5498 H   0  0  0  0  0  0  0  0  0  0  0  0
  155.1353  132.0008  154.8552 H   0  0  0  0  0  0  0  0  0  0  0  0
  156.3711  131.1928  155.8247 H   0  0  0  0  0  0  0  0  0  0  0  0
  155.1480  129.7958  153.8711 H   0  0  0  0  0  0  0  0  0  0  0  0
  155.3148  129.0367  155.4597 H   0  0  0  0  0  0  0  0  0  0  0  0
  152.8800  130.4862  154.3548 H   0  0  0  0  0  0  0  0  0  0  0  0
  152.9218  128.9243  155.1761 H   0  0  0  0  0  0  0  0  0  0  0  0
  153.3841  142.2827  158.3269 H   0  0  0  0  0  0  0  0  0  0  0  0
  154.5797  143.1112  159.2963 H   0  0  0  0  0  0  0  0  0  0  0  0
  1  2  1  0  0  0  0
  1 29  1  0  0  0  0
  1 30  1  0  0  0  0
  1 31  1  0  0  0  0
  2  3  2  0  0  0  0
  2  4  1  0  0  0  0
  4 28  1  0  0  0  0
  4  5  1  0  0  0  0
  5  6  1  0  0  0  0
  5 32  1  0  0  0  0
  5 33  1  0  0  0  0
  6  7  1  0  0  0  0
  6 34  1  0  0  0  0
  6 35  1  0  0  0  0
  7  8  1  0  0  0  0
  7 28  1  0  0  0  0
  7 36  1  0  0  0  0
  8  9  1  0  0  0  0
  8 37  1  0  0  0  0
  8 38  1  0  0  0  0
  9 10  1  0  0  0  0
  9 11  1  0  0  0  0
 10 39  1  0  0  0  0
 10 40  1  0  0  0  0
 10 41  1  0  0  0  0
 11 16  1  0  0  0  0
 11 12  2  0  0  0  0
 12 13  1  0  0  0  0
 13 14  2  0  0  0  0
 13 42  1  0  0  0  0
 14 15  1  0  0  0  0
 15 19  1  0  0  0  0
 15 16  2  0  0  0  0
 16 17  1  0  0  0  0
 17 18  2  0  0  0  0
 18 19  1  0  0  0  0
 18 43  1  0  0  0  0
 19 20  1  0  0  0  0
 20 21  1  0  0  0  0
 20 44  1  0  0  0  0
 20 45  1  0  0  0  0
 21 22  1  0  0  0  0
 21 23  1  0  0  0  0
 21 46  1  0  0  0  0
 22 47  1  0  0  0  0
 23 27  1  0  0  0  0
 23 24  1  0  0  0  0
 23 48  1  0  0  0  0
 24 25  1  0  0  0  0
 24 49  1  0  0  0  0
 24 50  1  0  0  0  0
 25 26  1  0  0  0  0
 25 51  1  0  0  0  0
 25 52  1  0  0  0  0
 26 27  1  0  0  0  0
 26 53  1  0  0  0  0
 26 54  1  0  0  0  0
 28 55  1  0  0  0  0
 28 56  1  0  0  0  0
M  END
> <s_m_source_file>
AV-unprocessed.smi

> <i_m_source_file_index>
83

> <i_lp_mmshare_version>
43012

> <i_f3d_flags>
0

> <s_epik_input>
W0NIM11DKD1PKU4xW0NIMl1bQ0gyXVtDQEhdKFtDSDJdMSlbQ0gyXU4oW0NIM10pYyhuW2NIXW4yKWMoYzIzKW5bY0hdbjNbQ0gyXVtDQEhdKFtPSF0pW0NAQEhdNFtDSDJdW0NIMl1bQ0gyXU80

> <s_epik_cmdline>
J2VwaWtfcHl0aG9uJywgJy1waCcsICc3LjAnLCAnLXRuJywgJzgnLCAnLW1hJywgJzIwMCcsICctbWV0YWxfYmluZGluZycsICctaW1hZScsICc8aW5maWxlLm1hZT4nLCAnLW9tYWUnLCAnPG91dGZpbGUubWFlPic=

> <r_lp_tautomer_probability>
1

> <r_epik_Ionization_Penalty>
0.00109752

> <r_epik_Ionization_Penalty_Charging>
0

> <r_epik_Ionization_Penalty_Neutral>
0.00109752

> <r_epik_State_Penalty>
0.000634803

> <r_epik_Charging_Adjusted_Penalty>
0.000634803

> <i_epik_Tot_Q>
0

> <i_epik_Tot_abs_Q>
0

> <r_epik_Metal_State_Penalty>
-0

> <b_epik_Metal_Only>
0

> <s_lp_Force_Field>
OPLS_2005

> <r_lp_Energy>
57.114

> <b_lp_Chiralities_Consistent>
1

> <s_lp_Variant>
AV-unprocessed.smi:83-1

> <Gold.Version>
5.8.1

> <Gold.Id.Protein>
6NUR|6NUR_protein|mol2

> <Gold.PLP.Fitness>
53.8278

> <Gold.PLP.PLP>
-48.7331

> <Gold.PLP.part.hbond>
-2.0000

> <Gold.PLP.part.metal>
0.0000

> <Gold.PLP.part.buried>
-6.9831

> <Gold.PLP.part.nonpolar>
-39.6249

> <Gold.PLP.part.repulsive>
0.1512

> <Gold.PLP.ligand.clash>
0.0000

> <Gold.PLP.ligand.torsion>
0.6555

> <Gold.PLP.Chemscore.Hbond>
2.0000

> <Gold.PLP.Chemscore.CHOScore>
0.0000

> <Gold.PLP.Chemscore.Metal>
0.0000

> <Gold.Chemscore.Hbonds>
donor molecule, donor type, donor heavy atom, donor atom, acceptor molecule, acceptor atom, score
      P1  H  6896  6907       L1    22  1.00
      P1  H 10752 10765       L1    14  1.00

> <Gold.PLP.Chemscore.Internal.Correction>
0.4057

> <Gold.Rescore>
     Score         DG    S(hbond)    S(metal)    S(lipo)     H(rot)  DE(clash)    DE(int)     intcor
     14.64     -16.52       1.73        0.00     102.30       2.62       0.06       1.83       ----

> <Gold.Chemscore.Fitness>
14.6390

> <Gold.Chemscore.DG>
-16.5223

> <Gold.Chemscore.ZeroCoef>
-5.4800

> <Gold.Chemscore.Hbond>
1.7269

> <Gold.Chemscore.Metal>
0.0000

> <Gold.Chemscore.Lipo>
102.3032

> <Gold.Chemscore.Internal_Hbond>
0.0000

> <Gold.Chemscore.DEClash>
0.0551

> <Gold.Chemscore.DEInternal>
1.8282

> <Gold.Chemscore.Rot>
2.6152

> <Gold.Chemscore.Internal.Correction>
   9.000000E+99

> <Gold.Chemscore.Hbonds>
donor molecule, donor type, donor heavy atom, donor atom, acceptor molecule, acceptor atom, score
      P1  H  6896  6907       L1    22  0.50
      P1  H 10752 10765       L1    14  0.70

> <Gold.Chemscore.Hbond.Weighted>
-5.7678

> <Gold.Chemscore.Metal.Weighted>
-0.0000

> <Gold.Chemscore.Lipo.Weighted>
-11.9695

> <Gold.Chemscore.Internal_Hbond.Weighted>
0.0000

> <Gold.Chemscore.DEClash.Weighted>
0.0551

> <Gold.Chemscore.DEInternal.Weighted>
1.8282

> <Gold.Chemscore.Rot.Weighted>
6.6949

> <Gold.Chemscore.Internal.Correction.Weighted>
   9.000000E+99

> <Gold.Protein.RotatedTorsions>
[ 6907 6896 6895 6894 ] final  147.61 input  -60.11 | X-H torsion
[ 7974 7965 7964 7962 ] final   14.25 input  175.53 | X-H torsion
[ 8008 7997 7996 7995 ] final -104.67 input   59.86 | X-H torsion
[ 10167 10162 10161 10158 ] final  -77.83 input  -65.29 | X-H torsion
[ 10718 10713 10712 10709 ] final  131.91 input   66.30 | X-H torsion
[ 10763 10752 10751 10750 ] final -102.31 input  -60.55 | X-H torsion
[ 11005 11000 10999 10996 ] final   56.43 input  -57.11 | X-H torsion

> <Gold.Protein.ActiveResidues>
 VAL166  LYS551  ARG553  GLY616  TRP617  ASP618  TYR619  PRO620  LYS621  CYS622 
 ASP623  PHE694  ASN695  SER759  ASP760  ASP761  ALA762  ILE779  LEU786  VAL792 
 PHE793  MET794  SER795  GLU796  ALA797  LYS798  CYS799  TRP800  GLU811  SER814 

> <Gold.Protein.RotatedAtoms>
  152.1524  133.4530  159.4819 H   0  0  0  0  0  0  0  0  0  0  0  0  # atno 6907 bound_to 6896
  150.6897  134.2172  159.4391 H   0  0  0  0  0  0  0  0  0  0  0  0  # atno 6908 bound_to 6896
  152.0070  134.9897  160.0617 H   0  0  0  0  0  0  0  0  0  0  0  0  # atno 6909 bound_to 6896
  146.2310  139.9069  142.8530 H   0  0  0  0  0  0  0  0  0  0  0  0  # atno 7974 bound_to 7965
  154.8886  140.0416  157.1825 H   0  0  0  0  0  0  0  0  0  0  0  0  # atno 8008 bound_to 7997
  154.8564  140.2937  155.5545 H   0  0  0  0  0  0  0  0  0  0  0  0  # atno 8009 bound_to 7997
  156.2997  140.2455  156.3531 H   0  0  0  0  0  0  0  0  0  0  0  0  # atno 8010 bound_to 7997
  140.4736  143.2420  151.8167 H   0  0  0  0  0  0  0  0  0  0  0  0  # atno 10167 bound_to 10162
  157.4923  131.1091  150.9540 H   0  0  0  0  0  0  0  0  0  0  0  0  # atno 10718 bound_to 10713
  154.7724  135.4865  153.9676 H   0  0  0  0  0  0  0  0  0  0  0  0  # atno 10763 bound_to 10752
  153.1385  135.6767  153.9072 H   0  0  0  0  0  0  0  0  0  0  0  0  # atno 10764 bound_to 10752
  153.8754  135.3138  155.3422 H   0  0  0  0  0  0  0  0  0  0  0  0  # atno 10765 bound_to 10752
  140.0529  134.5711  155.9242 H   0  0  0  0  0  0  0  0  0  0  0  0  # atno 11005 bound_to 11000
  145.2268  140.9957  143.4014 LP  0  0  0  0  0  0  0  0  0  0  0  0  # atno 17320 bound_to 7965
  144.9564  139.4027  143.6377 LP  0  0  0  0  0  0  0  0  0  0  0  0  # atno 17321 bound_to 7965
  139.4822  144.4861  151.9245 LP  0  0  0  0  0  0  0  0  0  0  0  0  # atno 17342 bound_to 10162
  140.3946  144.2571  150.5897 LP  0  0  0  0  0  0  0  0  0  0  0  0  # atno 17343 bound_to 10162
  157.0238  130.5684  149.5334 LP  0  0  0  0  0  0  0  0  0  0  0  0  # atno 17370 bound_to 10713
  156.0180  130.5275  150.8192 LP  0  0  0  0  0  0  0  0  0  0  0  0  # atno 17371 bound_to 10713
  141.1939  133.6580  156.5568 LP  0  0  0  0  0  0  0  0  0  0  0  0  # atno 17394 bound_to 11000
  140.3889  134.7458  157.4709 LP  0  0  0  0  0  0  0  0  0  0  0  0  # atno 17395 bound_to 11000

$$$$
