AV-unprocessed.smi:33|AV-procd|sdf|211|dock5
  -GOLD-   2262015513D 1   1.00000     0.00000
 Structure written by MMmdl.
 67 72  0  0  0  0  0  0  0  0  1 V2000
  153.6613  140.5665  160.2302 O   0  0  0  0  0  0  0  0  0  0  0  0
  152.9022  141.1932  159.4882 C   0  0  0  0  0  0  0  0  0  0  0  0
  152.2820  140.6477  158.4237 O   0  0  0  0  0  0  0  0  0  0  0  0
  152.1050  139.2424  158.3505 C   0  0  0  0  0  0  0  0  0  0  0  0
  151.5040  138.8699  156.9853 C   0  0  2  0  0  0  0  0  0  0  0  0
  150.5280  137.8549  157.1716 O   0  0  0  0  0  0  0  0  0  0  0  0
  151.1287  136.5974  157.0978 C   0  0  1  0  0  0  0  0  0  0  0  0
  150.2098  135.7216  156.3144 N   0  0  0  0  0  0  0  0  0  0  0  0
  149.2787  136.0877  155.3663 C   0  0  0  0  0  0  0  0  0  0  0  0
  148.5974  135.1033  154.8442 N   0  0  0  0  0  0  0  0  0  0  0  0
  149.0938  133.9755  155.4853 C   0  0  0  0  0  0  0  0  0  0  0  0
  148.8044  132.5868  155.4104 C   0  0  0  0  0  0  0  0  0  0  0  0
  147.8677  132.0756  154.5780 N   0  0  0  0  0  0  0  0  0  0  0  0
  146.9755  131.0461  155.1311 C   0  0  0  0  0  0  0  0  0  0  0  0
  146.4372  130.2371  154.3728 O   0  0  0  0  0  0  0  0  0  0  0  0
  146.7524  130.9451  156.6136 C   0  0  0  0  0  0  0  0  0  0  0  0
  146.6344  129.6778  157.2252 C   0  0  0  0  0  0  0  0  0  0  0  0
  146.4107  129.5767  158.6119 C   0  0  0  0  0  0  0  0  0  0  0  0
  146.2848  130.7415  159.3925 C   0  0  0  0  0  0  0  0  0  0  0  0
  146.3728  132.0082  158.7845 C   0  0  0  0  0  0  0  0  0  0  0  0
  146.5969  132.1103  157.3981 C   0  0  0  0  0  0  0  0  0  0  0  0
  147.8313  132.5978  153.2039 C   0  0  0  0  0  0  0  0  0  0  0  0
  148.8484  133.0948  152.7162 O   0  0  0  0  0  0  0  0  0  0  0  0
  146.5849  132.4801  152.3727 C   0  0  0  0  0  0  0  0  0  0  0  0
  145.7518  133.6052  152.1874 C   0  0  0  0  0  0  0  0  0  0  0  0
  144.5753  133.4995  151.4206 C   0  0  0  0  0  0  0  0  0  0  0  0
  144.2143  132.2640  150.8506 C   0  0  0  0  0  0  0  0  0  0  0  0
  145.0254  131.1316  151.0547 C   0  0  0  0  0  0  0  0  0  0  0  0
  146.2026  131.2366  151.8206 C   0  0  0  0  0  0  0  0  0  0  0  0
  149.5032  131.7447  156.2151 N   0  0  0  0  0  0  0  0  0  0  0  0
  150.4325  132.2349  157.0413 C   0  0  0  0  0  0  0  0  0  0  0  0
  150.8099  133.5040  157.2159 N   0  0  0  0  0  0  0  0  0  0  0  0
  150.1054  134.3514  156.4108 C   0  0  0  0  0  0  0  0  0  0  0  0
  152.4729  136.7537  156.3646 C   0  0  2  0  0  0  0  0  0  0  0  0
  153.5699  136.4194  157.1908 O   0  0  0  0  0  0  0  0  0  0  0  0
  152.5042  138.2361  156.0173 C   0  0  1  0  0  0  0  0  0  0  0  0
  152.0736  138.4071  154.7663 F   0  0  0  0  0  0  0  0  0  0  0  0
  152.5754  142.6364  159.6753 C   0  0  0  0  0  0  0  0  0  0  0  0
  152.4021  143.4600  158.5385 C   0  0  0  0  0  0  0  0  0  0  0  0
  152.0957  144.8271  158.6825 C   0  0  0  0  0  0  0  0  0  0  0  0
  151.9603  145.3878  159.9657 C   0  0  0  0  0  0  0  0  0  0  0  0
  152.1305  144.5795  161.1049 C   0  0  0  0  0  0  0  0  0  0  0  0
  152.4354  143.2116  160.9626 C   0  0  0  0  0  0  0  0  0  0  0  0
  153.0530  138.7279  158.5121 H   0  0  0  0  0  0  0  0  0  0  0  0
  151.4277  138.9324  159.1474 H   0  0  0  0  0  0  0  0  0  0  0  0
  151.0288  139.7497  156.5494 H   0  0  0  0  0  0  0  0  0  0  0  0
  151.2102  136.1427  158.0859 H   0  0  0  0  0  0  0  0  0  0  0  0
  149.1185  137.1152  155.0741 H   0  0  0  0  0  0  0  0  0  0  0  0
  146.7295  128.7772  156.6360 H   0  0  0  0  0  0  0  0  0  0  0  0
  146.3341  128.6046  159.0761 H   0  0  0  0  0  0  0  0  0  0  0  0
  146.1135  130.6634  160.4561 H   0  0  0  0  0  0  0  0  0  0  0  0
  146.2670  132.9021  159.3811 H   0  0  0  0  0  0  0  0  0  0  0  0
  146.6574  133.0879  156.9418 H   0  0  0  0  0  0  0  0  0  0  0  0
  146.0196  134.5587  152.6198 H   0  0  0  0  0  0  0  0  0  0  0  0
  143.9495  134.3667  151.2708 H   0  0  0  0  0  0  0  0  0  0  0  0
  143.3118  132.1835  150.2627 H   0  0  0  0  0  0  0  0  0  0  0  0
  144.7444  130.1816  150.6249 H   0  0  0  0  0  0  0  0  0  0  0  0
  146.8148  130.3597  151.9747 H   0  0  0  0  0  0  0  0  0  0  0  0
  150.9464  131.5061  157.6503 H   0  0  0  0  0  0  0  0  0  0  0  0
  152.5135  136.1281  155.4711 H   0  0  0  0  0  0  0  0  0  0  0  0
  153.2372  136.0943  158.0137 H   0  0  0  0  0  0  0  0  0  0  0  0
  153.4990  138.6813  156.0662 H   0  0  0  0  0  0  0  0  0  0  0  0
  152.5012  143.0522  157.5428 H   0  0  0  0  0  0  0  0  0  0  0  0
  151.9650  145.4454  157.8068 H   0  0  0  0  0  0  0  0  0  0  0  0
  151.7266  146.4364  160.0763 H   0  0  0  0  0  0  0  0  0  0  0  0
  152.0278  145.0093  162.0903 H   0  0  0  0  0  0  0  0  0  0  0  0
  152.5612  142.6203  161.8579 H   0  0  0  0  0  0  0  0  0  0  0  0
  1  2  2  0  0  0  0
  2  3  1  0  0  0  0
  2 38  1  0  0  0  0
  3  4  1  0  0  0  0
  4  5  1  0  0  0  0
  4 44  1  0  0  0  0
  4 45  1  0  0  0  0
  5 36  1  0  0  0  0
  5  6  1  0  0  0  0
  5 46  1  0  0  0  0
  6  7  1  0  0  0  0
  7  8  1  0  0  0  0
  7 34  1  0  0  0  0
  7 47  1  0  0  0  0
  8 33  1  0  0  0  0
  8  9  1  0  0  0  0
  9 10  2  0  0  0  0
  9 48  1  0  0  0  0
 10 11  1  0  0  0  0
 11 33  2  0  0  0  0
 11 12  1  0  0  0  0
 12 13  1  0  0  0  0
 12 30  2  0  0  0  0
 13 14  1  0  0  0  0
 13 22  1  0  0  0  0
 14 15  2  0  0  0  0
 14 16  1  0  0  0  0
 16 21  1  0  0  0  0
 16 17  2  0  0  0  0
 17 18  1  0  0  0  0
 17 49  1  0  0  0  0
 18 19  2  0  0  0  0
 18 50  1  0  0  0  0
 19 20  1  0  0  0  0
 19 51  1  0  0  0  0
 20 21  2  0  0  0  0
 20 52  1  0  0  0  0
 21 53  1  0  0  0  0
 22 23  2  0  0  0  0
 22 24  1  0  0  0  0
 24 29  1  0  0  0  0
 24 25  2  0  0  0  0
 25 26  1  0  0  0  0
 25 54  1  0  0  0  0
 26 27  2  0  0  0  0
 26 55  1  0  0  0  0
 27 28  1  0  0  0  0
 27 56  1  0  0  0  0
 28 29  2  0  0  0  0
 28 57  1  0  0  0  0
 29 58  1  0  0  0  0
 30 31  1  0  0  0  0
 31 32  2  0  0  0  0
 31 59  1  0  0  0  0
 32 33  1  0  0  0  0
 34 35  1  0  0  0  0
 34 36  1  0  0  0  0
 34 60  1  0  0  0  0
 35 61  1  0  0  0  0
 36 37  1  0  0  0  0
 36 62  1  0  0  0  0
 38 43  1  0  0  0  0
 38 39  2  0  0  0  0
 39 40  1  0  0  0  0
 39 63  1  0  0  0  0
 40 41  2  0  0  0  0
 40 64  1  0  0  0  0
 41 42  1  0  0  0  0
 41 65  1  0  0  0  0
 42 43  2  0  0  0  0
 42 66  1  0  0  0  0
 43 67  1  0  0  0  0
M  END
> <s_m_source_file>
AV-unprocessed.smi

> <i_m_source_file_index>
33

> <i_lp_mmshare_version>
43012

> <i_f3d_flags>
0

> <s_epik_input>
W2NIXTFbY0hdW2NIXVtjSF1bY0hdYzFDKD1PKU9bQ0gyXVtDQEBIXTJPW0NASF0oW0NAQEhdKFtPSF0pW0NAQEhdMkYpbihbY0hdbjMpYyhjMzQpbltjSF1uYzROKEMoPU8pYzVbY0hdW2NIXVtjSF1bY0hdW2NIXTUpQyg9TyljNltjSF1bY0hdW2NIXVtjSF1bY0hdNg==

> <s_epik_cmdline>
J2VwaWtfcHl0aG9uJywgJy1waCcsICc3LjAnLCAnLXRuJywgJzgnLCAnLW1hJywgJzIwMCcsICctbWV0YWxfYmluZGluZycsICctaW1hZScsICc8aW5maWxlLm1hZT4nLCAnLW9tYWUnLCAnPG91dGZpbGUubWFlPic=

> <r_lp_tautomer_probability>
1

> <r_epik_Ionization_Penalty>
0.00067664

> <r_epik_Ionization_Penalty_Charging>
0

> <r_epik_Ionization_Penalty_Neutral>
0.00067664

> <r_epik_State_Penalty>
0.000428095

> <r_epik_Charging_Adjusted_Penalty>
0.000428095

> <i_epik_Tot_Q>
0

> <i_epik_Tot_abs_Q>
0

> <r_epik_Metal_State_Penalty>
-0

> <b_epik_Metal_Only>
0

> <s_epik_Chemistry_Notes>
This compound has an ester and may undergo hydrolysis at high or low pH. This compound contains an acetal/aminal-like group ( X-CH(R)-Y where X, Y are N, S, or O) that may be acid/base labile, releasing an aldehyde.

> <s_lp_Force_Field>
OPLS_2005

> <r_lp_Energy>
69.3236

> <b_lp_Chiralities_Consistent>
1

> <s_lp_Variant>
AV-unprocessed.smi:33-13

> <Gold.Version>
5.8.1

> <Gold.Id.Protein>
6NUR|6NUR_protein|mol2

> <Gold.PLP.Fitness>
56.9278

> <Gold.PLP.PLP>
-60.6531

> <Gold.PLP.part.hbond>
-2.0000

> <Gold.PLP.part.metal>
0.0000

> <Gold.PLP.part.buried>
-6.6299

> <Gold.PLP.part.nonpolar>
-53.7579

> <Gold.PLP.part.repulsive>
0.5217

> <Gold.PLP.ligand.clash>
0.0000

> <Gold.PLP.ligand.torsion>
5.3620

> <Gold.PLP.Chemscore.Hbond>
0.7210

> <Gold.PLP.Chemscore.CHOScore>
0.0000

> <Gold.PLP.Chemscore.Metal>
0.0000

> <Gold.Chemscore.Hbonds>
donor molecule, donor type, donor heavy atom, donor atom, acceptor molecule, acceptor atom, score
      P1  H  6896  6908       L1    32  0.78

> <Gold.PLP.Chemscore.Internal.Correction>
4.8358

> <Gold.Rescore>
     Score         DG    S(hbond)    S(metal)    S(lipo)     H(rot)  DE(clash)    DE(int)     intcor
      6.47     -17.11       0.36        0.00     144.23       2.52       0.41      10.23       ----

> <Gold.Chemscore.Fitness>
6.4686

> <Gold.Chemscore.DG>
-17.1063

> <Gold.Chemscore.ZeroCoef>
-5.4800

> <Gold.Chemscore.Hbond>
0.3637

> <Gold.Chemscore.Metal>
0.0000

> <Gold.Chemscore.Lipo>
144.2297

> <Gold.Chemscore.Internal_Hbond>
0.0000

> <Gold.Chemscore.DEClash>
0.4095

> <Gold.Chemscore.DEInternal>
10.2283

> <Gold.Chemscore.Rot>
2.5247

> <Gold.Chemscore.Internal.Correction>
   9.000000E+99

> <Gold.Chemscore.Hbonds>
donor molecule, donor type, donor heavy atom, donor atom, acceptor molecule, acceptor atom, score
      P1  H  6896  6908       L1    32  0.23

> <Gold.Chemscore.Hbond.Weighted>
-1.2147

> <Gold.Chemscore.Metal.Weighted>
-0.0000

> <Gold.Chemscore.Lipo.Weighted>
-16.8749

> <Gold.Chemscore.Internal_Hbond.Weighted>
0.0000

> <Gold.Chemscore.DEClash.Weighted>
0.4095

> <Gold.Chemscore.DEInternal.Weighted>
10.2283

> <Gold.Chemscore.Rot.Weighted>
6.4633

> <Gold.Chemscore.Internal.Correction.Weighted>
   9.000000E+99

> <Gold.Protein.RotatedTorsions>
[ 6907 6896 6895 6894 ] final  100.46 input  -60.11 | X-H torsion
[ 7974 7965 7964 7962 ] final    3.35 input  175.53 | X-H torsion
[ 8008 7997 7996 7995 ] final  -49.98 input   59.86 | X-H torsion
[ 10167 10162 10161 10158 ] final -121.17 input  -65.29 | X-H torsion
[ 10718 10713 10712 10709 ] final -114.28 input   66.30 | X-H torsion
[ 10763 10752 10751 10750 ] final -105.63 input  -60.55 | X-H torsion
[ 11005 11000 10999 10996 ] final  134.18 input  -57.11 | X-H torsion

> <Gold.Protein.ActiveResidues>
 VAL166  LYS551  ARG553  GLY616  TRP617  ASP618  TYR619  PRO620  LYS621  CYS622 
 ASP623  PHE694  ASN695  SER759  ASP760  ASP761  ALA762  ILE779  LEU786  VAL792 
 PHE793  MET794  SER795  GLU796  ALA797  LYS798  CYS799  TRP800  GLU811  SER814 

> <Gold.Protein.RotatedAtoms>
  152.5371  134.0274  159.8008 H   0  0  0  0  0  0  0  0  0  0  0  0  # atno 6907 bound_to 6896
  151.0450  133.5665  159.2654 H   0  0  0  0  0  0  0  0  0  0  0  0  # atno 6908 bound_to 6896
  151.2620  135.0664  159.9155 H   0  0  0  0  0  0  0  0  0  0  0  0  # atno 6909 bound_to 6896
  146.2445  140.0699  142.8363 H   0  0  0  0  0  0  0  0  0  0  0  0  # atno 7974 bound_to 7965
  154.4053  140.1283  156.4591 H   0  0  0  0  0  0  0  0  0  0  0  0  # atno 8008 bound_to 7997
  155.7291  140.3491  155.5031 H   0  0  0  0  0  0  0  0  0  0  0  0  # atno 8009 bound_to 7997
  155.9144  140.1041  157.1245 H   0  0  0  0  0  0  0  0  0  0  0  0  # atno 8010 bound_to 7997
  140.0280  143.5277  152.2190 H   0  0  0  0  0  0  0  0  0  0  0  0  # atno 10167 bound_to 10162
  156.0820  130.6018  150.8754 H   0  0  0  0  0  0  0  0  0  0  0  0  # atno 10718 bound_to 10713
  154.7959  135.4742  154.0161 H   0  0  0  0  0  0  0  0  0  0  0  0  # atno 10763 bound_to 10752
  153.1703  135.6824  153.8624 H   0  0  0  0  0  0  0  0  0  0  0  0  # atno 10764 bound_to 10752
  153.8208  135.3204  155.3388 H   0  0  0  0  0  0  0  0  0  0  0  0  # atno 10765 bound_to 10752
  139.9899  134.9519  156.9831 H   0  0  0  0  0  0  0  0  0  0  0  0  # atno 11005 bound_to 11000
  145.0825  140.9230  143.4817 LP  0  0  0  0  0  0  0  0  0  0  0  0  # atno 17320 bound_to 7965
  145.0855  139.2928  143.5761 LP  0  0  0  0  0  0  0  0  0  0  0  0  # atno 17321 bound_to 7965
  139.6095  144.7605  151.2984 LP  0  0  0  0  0  0  0  0  0  0  0  0  # atno 17342 bound_to 10162
  140.7314  143.6852  150.7968 LP  0  0  0  0  0  0  0  0  0  0  0  0  # atno 17343 bound_to 10162
  157.5940  131.0943  150.9071 LP  0  0  0  0  0  0  0  0  0  0  0  0  # atno 17370 bound_to 10713
  156.9241  130.5326  149.5279 LP  0  0  0  0  0  0  0  0  0  0  0  0  # atno 17371 bound_to 10713
  140.4929  134.1174  155.7236 LP  0  0  0  0  0  0  0  0  0  0  0  0  # atno 17394 bound_to 11000
  141.1557  133.8888  157.1984 LP  0  0  0  0  0  0  0  0  0  0  0  0  # atno 17395 bound_to 11000

$$$$
