AV-unprocessed.smi:167|AV-procd|sdf|1392|dock7
  -GOLD-   2262019133D 1   1.00000     0.00000
 Structure written by MMmdl.
 51 55  0  0  0  0  0  0  0  0  1 V2000
  146.8279  138.5614  157.6211 O   0  0  0  0  0  0  0  0  0  0  0  0
  147.8200  139.5511  157.7953 C   0  0  0  0  0  0  0  0  0  0  0  0
  147.6825  140.6423  156.7176 C   0  0  2  0  0  0  0  0  0  0  0  0
  146.2503  141.2024  156.6107 C   0  0  0  0  0  0  0  0  0  0  0  0
  145.9158  140.9314  155.1342 C   0  0  1  0  0  0  0  0  0  0  0  0
  146.7070  141.9112  154.2452 C   0  0  0  0  0  0  0  0  0  0  0  0
  148.1248  141.3259  154.3435 C   0  0  0  0  0  0  0  0  0  0  0  0
  147.8898  140.1199  155.2788 C   0  0  2  0  0  0  0  0  0  0  0  0
  146.5611  139.6486  154.9058 N   0  0  0  0  0  0  0  0  0  0  0  0
  146.3806  138.9690  153.7386 C   0  0  0  0  0  0  0  0  0  0  0  0
  146.8629  139.5166  152.5909 N   0  0  0  0  0  0  0  0  0  0  0  0
  146.7144  138.8893  151.4215 C   0  0  0  0  0  0  0  0  0  0  0  0
  146.1267  137.7189  151.1727 N   0  0  0  0  0  0  0  0  0  0  0  0
  145.6503  137.1532  152.3179 C   0  0  0  0  0  0  0  0  0  0  0  0
  145.7420  137.6972  153.6323 C   0  0  0  0  0  0  0  0  0  0  0  0
  145.1706  136.8112  154.5394 N   0  0  0  0  0  0  0  0  0  0  0  0
  144.7596  135.8133  153.8068 C   0  0  0  0  0  0  0  0  0  0  0  0
  144.9810  135.9498  152.4562 N   0  0  0  0  0  0  0  0  0  0  0  0
  144.6682  134.9980  151.4308 C   0  0  0  0  0  0  0  0  0  0  0  0
  144.1215  133.6118  151.7850 C   0  0  0  0  0  0  0  0  0  0  0  0
  144.8495  133.0234  150.5538 C   0  0  0  0  0  0  0  0  0  0  0  0
  145.5233  131.6466  150.7194 C   0  0  0  0  0  0  0  0  0  0  0  0
  146.6291  131.6855  151.5992 O   0  0  0  0  0  0  0  0  0  0  0  0
  144.0185  132.9700  149.2577 C   0  0  0  0  0  0  0  0  0  0  0  0
  142.8858  132.1368  149.4006 O   0  0  0  0  0  0  0  0  0  0  0  0
  145.7706  134.2606  150.6629 C   0  0  0  0  0  0  0  0  0  0  0  0
  146.6583  138.1551  158.4574 H   0  0  0  0  0  0  0  0  0  0  0  0
  147.7372  139.9741  158.7971 H   0  0  0  0  0  0  0  0  0  0  0  0
  148.7975  139.0730  157.7257 H   0  0  0  0  0  0  0  0  0  0  0  0
  148.3855  141.4458  156.9430 H   0  0  0  0  0  0  0  0  0  0  0  0
  145.5619  140.6606  157.2610 H   0  0  0  0  0  0  0  0  0  0  0  0
  146.1896  142.2603  156.8684 H   0  0  0  0  0  0  0  0  0  0  0  0
  144.8424  140.9609  154.9591 H   0  0  0  0  0  0  0  0  0  0  0  0
  146.3493  141.8831  153.2150 H   0  0  0  0  0  0  0  0  0  0  0  0
  146.6460  142.9415  154.5975 H   0  0  0  0  0  0  0  0  0  0  0  0
  148.4747  141.0014  153.3627 H   0  0  0  0  0  0  0  0  0  0  0  0
  148.8514  142.0359  154.7401 H   0  0  0  0  0  0  0  0  0  0  0  0
  148.6803  139.3712  155.2139 H   0  0  0  0  0  0  0  0  0  0  0  0
  147.1245  139.3988  150.5621 H   0  0  0  0  0  0  0  0  0  0  0  0
  144.2758  134.9483  154.2369 H   0  0  0  0  0  0  0  0  0  0  0  0
  143.9955  135.5112  150.7418 H   0  0  0  0  0  0  0  0  0  0  0  0
  144.5088  133.2482  152.7382 H   0  0  0  0  0  0  0  0  0  0  0  0
  143.0338  133.5405  151.7597 H   0  0  0  0  0  0  0  0  0  0  0  0
  144.8214  130.9095  151.1100 H   0  0  0  0  0  0  0  0  0  0  0  0
  145.8741  131.2684  149.7587 H   0  0  0  0  0  0  0  0  0  0  0  0
  147.3924  131.3766  151.1356 H   0  0  0  0  0  0  0  0  0  0  0  0
  143.6681  133.9610  148.9685 H   0  0  0  0  0  0  0  0  0  0  0  0
  144.6175  132.6047  148.4228 H   0  0  0  0  0  0  0  0  0  0  0  0
  142.1233  132.6842  149.5118 H   0  0  0  0  0  0  0  0  0  0  0  0
  146.0375  134.7191  149.7103 H   0  0  0  0  0  0  0  0  0  0  0  0
  146.6595  134.0936  151.2731 H   0  0  0  0  0  0  0  0  0  0  0  0
  1  2  1  0  0  0  0
  1 27  1  0  0  0  0
  2  3  1  0  0  0  0
  2 28  1  0  0  0  0
  2 29  1  0  0  0  0
  3  8  1  0  0  0  0
  3  4  1  0  0  0  0
  3 30  1  0  0  0  0
  4  5  1  0  0  0  0
  4 31  1  0  0  0  0
  4 32  1  0  0  0  0
  5  9  1  0  0  0  0
  5  6  1  0  0  0  0
  5 33  1  0  0  0  0
  6  7  1  0  0  0  0
  6 34  1  0  0  0  0
  6 35  1  0  0  0  0
  7  8  1  0  0  0  0
  7 36  1  0  0  0  0
  7 37  1  0  0  0  0
  8  9  1  0  0  0  0
  8 38  1  0  0  0  0
  9 10  1  0  0  0  0
 10 15  1  0  0  0  0
 10 11  2  0  0  0  0
 11 12  1  0  0  0  0
 12 13  2  0  0  0  0
 12 39  1  0  0  0  0
 13 14  1  0  0  0  0
 14 18  1  0  0  0  0
 14 15  2  0  0  0  0
 15 16  1  0  0  0  0
 16 17  2  0  0  0  0
 17 18  1  0  0  0  0
 17 40  1  0  0  0  0
 18 19  1  0  0  0  0
 19 26  1  0  0  0  0
 19 20  1  0  0  0  0
 19 41  1  0  0  0  0
 20 21  1  0  0  0  0
 20 42  1  0  0  0  0
 20 43  1  0  0  0  0
 21 22  1  0  0  0  0
 21 24  1  0  0  0  0
 21 26  1  0  0  0  0
 22 23  1  0  0  0  0
 22 44  1  0  0  0  0
 22 45  1  0  0  0  0
 23 46  1  0  0  0  0
 24 25  1  0  0  0  0
 24 47  1  0  0  0  0
 24 48  1  0  0  0  0
 25 49  1  0  0  0  0
 26 50  1  0  0  0  0
 26 51  1  0  0  0  0
M  END
> <s_m_source_file>
AV-unprocessed.smi

> <i_m_source_file_index>
167

> <i_lp_mmshare_version>
43012

> <i_f3d_flags>
0

> <s_epik_input>
W09IXVtDSDJdW0NASF0oW0NIMl1bQ0BASF0xMilbQ0BIXShbQ0gyXVtDSDJdMSlOMmMobltjSF1uMyljKGMzNCluW2NIXW40W0NIXShbQ0gyXTUpW0NIMl1DNShbQ0gyXVtPSF0pW0NIMl1bT0hd

> <s_epik_cmdline>
J2VwaWtfcHl0aG9uJywgJy1waCcsICc3LjAnLCAnLXRuJywgJzgnLCAnLW1hJywgJzIwMCcsICctbWV0YWxfYmluZGluZycsICctaW1hZScsICc8aW5maWxlLm1hZT4nLCAnLW9tYWUnLCAnPG91dGZpbGUubWFlPic=

> <r_lp_tautomer_probability>
1

> <r_epik_Ionization_Penalty>
0.0047903

> <r_epik_Ionization_Penalty_Charging>
0

> <r_epik_Ionization_Penalty_Neutral>
0.0047903

> <r_epik_State_Penalty>
0.00341021

> <r_epik_Charging_Adjusted_Penalty>
0.00341021

> <i_epik_Tot_Q>
0

> <i_epik_Tot_abs_Q>
0

> <r_epik_Metal_State_Penalty>
-0

> <b_epik_Metal_Only>
0

> <s_lp_Force_Field>
OPLS_2005

> <r_lp_Energy>
90.0047

> <b_lp_Chiralities_Consistent>
1

> <s_lp_Variant>
AV-unprocessed.smi:167-1

> <Gold.Version>
5.8.1

> <Gold.Id.Protein>
6NUR|6NUR_protein|mol2

> <Gold.PLP.Fitness>
45.1263

> <Gold.PLP.PLP>
-36.0063

> <Gold.PLP.part.hbond>
-3.9172

> <Gold.PLP.part.metal>
0.0000

> <Gold.PLP.part.buried>
-5.7210

> <Gold.PLP.part.nonpolar>
-30.6247

> <Gold.PLP.part.repulsive>
3.3332

> <Gold.PLP.ligand.clash>
0.0000

> <Gold.PLP.ligand.torsion>
0.6163

> <Gold.PLP.Chemscore.Hbond>
2.7063

> <Gold.PLP.Chemscore.CHOScore>
0.5807

> <Gold.PLP.Chemscore.Metal>
0.0000

> <Gold.Chemscore.Hbonds>
donor molecule, donor type, donor heavy atom, donor atom, acceptor molecule, acceptor atom, score
      L1  H    23    46       P1 10747  1.00
      L1  H    25    49       P1 10186  0.94
      P1  H 10785 10796       L1    25  0.76
      L1  C    12    39       P1  7957  0.52

> <Gold.PLP.Chemscore.Internal.Correction>
0.4919

> <Gold.Rescore>
     Score         DG    S(hbond)    S(metal)    S(lipo)     H(rot)  DE(clash)    DE(int)     intcor
      5.73     -11.33       2.44        0.00      72.29       4.20       1.36       4.24       ----

> <Gold.Chemscore.Fitness>
5.7299

> <Gold.Chemscore.DG>
-11.3316

> <Gold.Chemscore.ZeroCoef>
-5.4800

> <Gold.Chemscore.Hbond>
2.4417

> <Gold.Chemscore.Metal>
0.0000

> <Gold.Chemscore.Lipo>
72.2897

> <Gold.Chemscore.Internal_Hbond>
0.0000

> <Gold.Chemscore.DEClash>
1.3590

> <Gold.Chemscore.DEInternal>
4.2427

> <Gold.Chemscore.Rot>
4.2038

> <Gold.Chemscore.Internal.Correction>
   9.000000E+99

> <Gold.Chemscore.Hbonds>
donor molecule, donor type, donor heavy atom, donor atom, acceptor molecule, acceptor atom, score
      L1  H    23    46       P1 10747  1.00
      L1  H    25    49       P1 10186  0.89
      P1  H 10785 10796       L1    25  0.68

> <Gold.Chemscore.Hbond.Weighted>
-8.1554

> <Gold.Chemscore.Metal.Weighted>
-0.0000

> <Gold.Chemscore.Lipo.Weighted>
-8.4579

> <Gold.Chemscore.Internal_Hbond.Weighted>
0.0000

> <Gold.Chemscore.DEClash.Weighted>
1.3590

> <Gold.Chemscore.DEInternal.Weighted>
4.2427

> <Gold.Chemscore.Rot.Weighted>
10.7617

> <Gold.Chemscore.Internal.Correction.Weighted>
   9.000000E+99

> <Gold.Protein.RotatedTorsions>
[ 6907 6896 6895 6894 ] final -122.46 input  -60.11 | X-H torsion
[ 7974 7965 7964 7962 ] final  104.46 input  175.53 | X-H torsion
[ 8008 7997 7996 7995 ] final  -36.72 input   59.86 | X-H torsion
[ 10167 10162 10161 10158 ] final    4.97 input  -65.29 | X-H torsion
[ 10718 10713 10712 10709 ] final  156.62 input   66.30 | X-H torsion
[ 10763 10752 10751 10750 ] final   73.75 input  -60.55 | X-H torsion
[ 11005 11000 10999 10996 ] final  111.99 input  -57.11 | X-H torsion

> <Gold.Protein.ActiveResidues>
 VAL166  LYS551  ARG553  GLY616  TRP617  ASP618  TYR619  PRO620  LYS621  CYS622 
 ASP623  PHE694  ASN695  SER759  ASP760  ASP761  ALA762  ILE779  LEU786  VAL792 
 PHE793  MET794  SER795  GLU796  ALA797  LYS798  CYS799  TRP800  GLU811  SER814 

> <Gold.Protein.RotatedAtoms>
  150.8578  133.7688  159.3002 H   0  0  0  0  0  0  0  0  0  0  0  0  # atno 6907 bound_to 6896
  151.5340  135.1067  159.9919 H   0  0  0  0  0  0  0  0  0  0  0  0  # atno 6908 bound_to 6896
  152.4603  133.7765  159.6883 H   0  0  0  0  0  0  0  0  0  0  0  0  # atno 6909 bound_to 6896
  145.3325  139.2483  143.3653 H   0  0  0  0  0  0  0  0  0  0  0  0  # atno 7974 bound_to 7965
  154.4067  140.1623  156.2421 H   0  0  0  0  0  0  0  0  0  0  0  0  # atno 8008 bound_to 7997
  155.9192  140.3422  155.6137 H   0  0  0  0  0  0  0  0  0  0  0  0  # atno 8009 bound_to 7997
  155.7242  140.0772  157.2308 H   0  0  0  0  0  0  0  0  0  0  0  0  # atno 8010 bound_to 7997
  140.6507  143.7552  150.7570 H   0  0  0  0  0  0  0  0  0  0  0  0  # atno 10167 bound_to 10162
  157.2025  131.0679  151.2017 H   0  0  0  0  0  0  0  0  0  0  0  0  # atno 10718 bound_to 10713
  153.0542  135.5051  154.7941 H   0  0  0  0  0  0  0  0  0  0  0  0  # atno 10763 bound_to 10752
  154.6779  135.2963  154.9655 H   0  0  0  0  0  0  0  0  0  0  0  0  # atno 10764 bound_to 10752
  154.0451  135.6711  153.4847 H   0  0  0  0  0  0  0  0  0  0  0  0  # atno 10765 bound_to 10752
  139.8916  134.9520  156.6517 H   0  0  0  0  0  0  0  0  0  0  0  0  # atno 11005 bound_to 11000
  146.3040  140.3905  142.8694 LP  0  0  0  0  0  0  0  0  0  0  0  0  # atno 17320 bound_to 7965
  144.8853  140.7454  143.5961 LP  0  0  0  0  0  0  0  0  0  0  0  0  # atno 17321 bound_to 7965
  140.1202  143.4619  152.2317 LP  0  0  0  0  0  0  0  0  0  0  0  0  # atno 17342 bound_to 10162
  139.5722  144.7468  151.3861 LP  0  0  0  0  0  0  0  0  0  0  0  0  # atno 17343 bound_to 10162
  157.3753  130.7202  149.6592 LP  0  0  0  0  0  0  0  0  0  0  0  0  # atno 17370 bound_to 10713
  155.9699  130.4187  150.4342 LP  0  0  0  0  0  0  0  0  0  0  0  0  # atno 17371 bound_to 10713
  140.7515  133.8893  155.8351 LP  0  0  0  0  0  0  0  0  0  0  0  0  # atno 17394 bound_to 11000
  140.9996  134.1168  157.4330 LP  0  0  0  0  0  0  0  0  0  0  0  0  # atno 17395 bound_to 11000

$$$$
