AV-unprocessed.smi:2538|AV-procd|sdf|9984|dock5
  -GOLD-   2272014 33D 1   1.00000     0.00000
 Structure written by MMmdl.
 49 50  0  0  0  0  0  0  0  0  2 V2000
  152.1305  144.2416  160.9858 C   0  0  0  0  0  0  0  0  0  0  0  0
  152.0260  143.2329  159.8549 C   0  0  0  0  0  0  0  0  0  0  0  0
  151.2277  143.5563  158.7344 C   0  0  0  0  0  0  0  0  0  0  0  0
  151.1515  142.6135  157.7162 C   0  0  0  0  0  0  0  0  0  0  0  0
  150.4609  142.6290  156.5021 N   0  3  0  0  0  0  0  0  0  0  0  0
  150.6929  141.4659  155.8323 C   0  0  0  0  0  0  0  0  0  0  0  0
  151.5214  140.7088  156.6016 N   0  0  0  0  0  0  0  0  0  0  0  0
  152.0764  139.3700  156.3633 C   0  0  0  0  0  0  0  0  0  0  0  0
  151.0087  138.3580  155.9015 C   0  0  1  0  0  0  0  0  0  0  0  0
  151.6116  137.0801  155.8472 O   0  0  0  0  0  0  0  0  0  0  0  0
  149.8075  138.3045  156.8704 C   0  0  0  0  0  0  0  0  0  0  0  0
  149.9263  137.2423  157.8876 N   0  0  0  0  0  0  0  0  0  0  0  0
  150.8103  137.5329  159.0247 C   0  0  0  0  0  0  0  0  0  0  0  0
  148.6477  136.0854  158.1022 S   0  0  0  0  0  0  0  0  0  0  0  0
  147.7281  136.2253  156.9620 O   0  0  0  0  0  0  0  0  0  0  0  0
  149.2875  134.7871  158.3667 O   0  0  0  0  0  0  0  0  0  0  0  0
  147.7935  136.6537  159.6534 C   0  0  0  0  0  0  0  0  0  0  0  0
  147.9004  135.5895  160.7550 C   0  0  0  0  0  0  0  0  0  0  0  0
  146.3303  137.0167  159.3619 C   0  0  0  0  0  0  0  0  0  0  0  0
  151.8355  141.3848  157.7850 C   0  0  0  0  0  0  0  0  0  0  0  0
  152.6272  141.0497  158.8805 C   0  0  0  0  0  0  0  0  0  0  0  0
  152.7168  141.9953  159.9269 C   0  0  0  0  0  0  0  0  0  0  0  0
  153.5711  141.6572  161.1369 C   0  0  0  0  0  0  0  0  0  0  0  0
  151.5324  145.1307  160.7844 H   0  0  0  0  0  0  0  0  0  0  0  0
  153.1645  144.5594  161.1210 H   0  0  0  0  0  0  0  0  0  0  0  0
  151.7760  143.8073  161.9207 H   0  0  0  0  0  0  0  0  0  0  0  0
  150.6988  144.4963  158.6729 H   0  0  0  0  0  0  0  0  0  0  0  0
  150.2882  141.1918  154.8685 H   0  0  0  0  0  0  0  0  0  0  0  0
  152.8637  139.4657  155.6140 H   0  0  0  0  0  0  0  0  0  0  0  0
  152.5608  139.0356  157.2818 H   0  0  0  0  0  0  0  0  0  0  0  0
  150.6875  138.6325  154.8980 H   0  0  0  0  0  0  0  0  0  0  0  0
  151.8288  136.8880  154.9478 H   0  0  0  0  0  0  0  0  0  0  0  0
  149.6351  139.2697  157.3479 H   0  0  0  0  0  0  0  0  0  0  0  0
  148.8956  138.1068  156.3055 H   0  0  0  0  0  0  0  0  0  0  0  0
  151.6737  138.1185  158.7080 H   0  0  0  0  0  0  0  0  0  0  0  0
  151.1764  136.6054  159.4649 H   0  0  0  0  0  0  0  0  0  0  0  0
  150.2749  138.0881  159.7948 H   0  0  0  0  0  0  0  0  0  0  0  0
  148.2991  137.5519  160.0001 H   0  0  0  0  0  0  0  0  0  0  0  0
  147.4398  135.9359  161.6804 H   0  0  0  0  0  0  0  0  0  0  0  0
  148.9426  135.3555  160.9744 H   0  0  0  0  0  0  0  0  0  0  0  0
  147.4028  134.6642  160.4631 H   0  0  0  0  0  0  0  0  0  0  0  0
  145.8229  137.3558  160.2654 H   0  0  0  0  0  0  0  0  0  0  0  0
  145.7813  136.1585  158.9729 H   0  0  0  0  0  0  0  0  0  0  0  0
  146.2588  137.8192  158.6275 H   0  0  0  0  0  0  0  0  0  0  0  0
  153.1513  140.1068  158.9343 H   0  0  0  0  0  0  0  0  0  0  0  0
  154.0456  140.6811  161.0304 H   0  0  0  0  0  0  0  0  0  0  0  0
  152.9619  141.6345  162.0406 H   0  0  0  0  0  0  0  0  0  0  0  0
  154.3603  142.3976  161.2686 H   0  0  0  0  0  0  0  0  0  0  0  0
  149.8726  143.3755  156.1547 H   0  0  0  0  0  0  0  0  0  0  0  0
  1  2  1  0  0  0  0
  1 24  1  0  0  0  0
  1 25  1  0  0  0  0
  1 26  1  0  0  0  0
  2 22  1  0  0  0  0
  2  3  2  0  0  0  0
  3  4  1  0  0  0  0
  3 27  1  0  0  0  0
  4 20  2  0  0  0  0
  4  5  1  0  0  0  0
  5  6  2  0  0  0  0
  5 49  1  0  0  0  0
  6  7  1  0  0  0  0
  6 28  1  0  0  0  0
  7  8  1  0  0  0  0
  7 20  1  0  0  0  0
  8  9  1  0  0  0  0
  8 29  1  0  0  0  0
  8 30  1  0  0  0  0
  9 10  1  0  0  0  0
  9 11  1  0  0  0  0
  9 31  1  0  0  0  0
 10 32  1  0  0  0  0
 11 12  1  0  0  0  0
 11 33  1  0  0  0  0
 11 34  1  0  0  0  0
 12 13  1  0  0  0  0
 12 14  1  0  0  0  0
 13 35  1  0  0  0  0
 13 36  1  0  0  0  0
 13 37  1  0  0  0  0
 14 15  2  0  0  0  0
 14 16  2  0  0  0  0
 14 17  1  0  0  0  0
 17 18  1  0  0  0  0
 17 19  1  0  0  0  0
 17 38  1  0  0  0  0
 18 39  1  0  0  0  0
 18 40  1  0  0  0  0
 18 41  1  0  0  0  0
 19 42  1  0  0  0  0
 19 43  1  0  0  0  0
 19 44  1  0  0  0  0
 20 21  1  0  0  0  0
 21 22  2  0  0  0  0
 21 45  1  0  0  0  0
 22 23  1  0  0  0  0
 23 46  1  0  0  0  0
 23 47  1  0  0  0  0
 23 48  1  0  0  0  0
M  CHG  1   5   1
M  END
> <s_m_source_file>
AV-unprocessed.smi

> <i_m_source_file_index>
2538

> <i_lp_mmshare_version>
43012

> <i_f3d_flags>
0

> <s_epik_input>
W0NIM11jKFtjSF0xKWMoW0NIM10pW2NIXWMoYzEyKW4oW2NIXW4yKVtDSDJdW0NASF0oW09IXSlbQ0gyXU4oW0NIM10pUyg9TykoPU8pW0NIXShbQ0gzXSlbQ0gzXQ==

> <s_epik_cmdline>
J2VwaWtfcHl0aG9uJywgJy1waCcsICc3LjAnLCAnLXRuJywgJzgnLCAnLW1hJywgJzIwMCcsICctbWV0YWxfYmluZGluZycsICctaW1hZScsICc8aW5maWxlLm1hZT4nLCAnLW9tYWUnLCAnPG91dGZpbGUubWFlPic=

> <r_epik_Ionization_Penalty>
1.07686

> <r_epik_Ionization_Penalty_Charging>
1.07685

> <r_epik_Ionization_Penalty_Neutral>
1.40866e-06

> <r_epik_State_Penalty>
1.13193

> <r_epik_Charging_Adjusted_Penalty>
2.20879

> <i_epik_Tot_Q>
1

> <i_epik_Tot_abs_Q>
1

> <r_epik_Metal_State_Penalty>
5.12988

> <b_epik_Metal_Only>
0

> <s_lp_Force_Field>
OPLS_2005

> <r_lp_Energy>
10.053

> <b_lp_Chiralities_Consistent>
1

> <s_lp_Variant>
AV-unprocessed.smi:2538-4

> <Gold.Version>
5.8.1

> <Gold.Id.Protein>
6NUR|6NUR_protein|mol2

> <Gold.PLP.Fitness>
49.9326

> <Gold.PLP.PLP>
-42.1986

> <Gold.PLP.part.hbond>
-2.0000

> <Gold.PLP.part.metal>
0.0000

> <Gold.PLP.part.buried>
-6.5499

> <Gold.PLP.part.nonpolar>
-33.9576

> <Gold.PLP.part.repulsive>
0.0671

> <Gold.PLP.ligand.clash>
0.0000

> <Gold.PLP.ligand.torsion>
1.9167

> <Gold.PLP.Chemscore.Hbond>
3.0000

> <Gold.PLP.Chemscore.CHOScore>
0.0000

> <Gold.PLP.Chemscore.Metal>
0.0000

> <Gold.Chemscore.Hbonds>
donor molecule, donor type, donor heavy atom, donor atom, acceptor molecule, acceptor atom, score
      L1  H     5    49       P1  8028  2.00
      P1  H  6896  6907       L1    16  1.00

> <Gold.PLP.Chemscore.Internal.Correction>
2.5674

> <Gold.Rescore>
     Score         DG    S(hbond)    S(metal)    S(lipo)     H(rot)  DE(clash)    DE(int)     intcor
     17.43     -19.34       2.00        0.00     113.06       2.36       0.03       1.88       ----

> <Gold.Chemscore.Fitness>
17.4330

> <Gold.Chemscore.DG>
-19.3442

> <Gold.Chemscore.ZeroCoef>
-5.4800

> <Gold.Chemscore.Hbond>
1.9988

> <Gold.Chemscore.Metal>
0.0000

> <Gold.Chemscore.Lipo>
113.0628

> <Gold.Chemscore.Internal_Hbond>
0.0000

> <Gold.Chemscore.DEClash>
0.0310

> <Gold.Chemscore.DEInternal>
1.8802

> <Gold.Chemscore.Rot>
2.3595

> <Gold.Chemscore.Internal.Correction>
   9.000000E+99

> <Gold.Chemscore.Hbonds>
donor molecule, donor type, donor heavy atom, donor atom, acceptor molecule, acceptor atom, score
      L1  H     5    49       P1  8028  1.00
      P1  H  6896  6907       L1    16  1.00

> <Gold.Chemscore.Hbond.Weighted>
-6.6761

> <Gold.Chemscore.Metal.Weighted>
-0.0000

> <Gold.Chemscore.Lipo.Weighted>
-13.2284

> <Gold.Chemscore.Internal_Hbond.Weighted>
0.0000

> <Gold.Chemscore.DEClash.Weighted>
0.0310

> <Gold.Chemscore.DEInternal.Weighted>
1.8802

> <Gold.Chemscore.Rot.Weighted>
6.0403

> <Gold.Chemscore.Internal.Correction.Weighted>
   9.000000E+99

> <Gold.Protein.RotatedTorsions>
[ 6907 6896 6895 6894 ] final  -91.63 input  -60.11 | X-H torsion
[ 7974 7965 7964 7962 ] final   -1.51 input  175.53 | X-H torsion
[ 8008 7997 7996 7995 ] final -171.33 input   59.86 | X-H torsion
[ 10167 10162 10161 10158 ] final  177.87 input  -65.29 | X-H torsion
[ 10718 10713 10712 10709 ] final  -50.85 input   66.30 | X-H torsion
[ 10763 10752 10751 10750 ] final -130.98 input  -60.55 | X-H torsion
[ 11005 11000 10999 10996 ] final  -32.67 input  -57.11 | X-H torsion

> <Gold.Protein.ActiveResidues>
 VAL166  LYS551  ARG553  GLY616  TRP617  ASP618  TYR619  PRO620  LYS621  CYS622 
 ASP623  PHE694  ASN695  SER759  ASP760  ASP761  ALA762  ILE779  LEU786  VAL792 
 PHE793  MET794  SER795  GLU796  ALA797  LYS798  CYS799  TRP800  GLU811  SER814 

> <Gold.Protein.RotatedAtoms>
  150.6895  134.2248  159.4410 H   0  0  0  0  0  0  0  0  0  0  0  0  # atno 6907 bound_to 6896
  152.0202  134.9824  160.0579 H   0  0  0  0  0  0  0  0  0  0  0  0  # atno 6908 bound_to 6896
  152.1405  133.4426  159.4801 H   0  0  0  0  0  0  0  0  0  0  0  0  # atno 6909 bound_to 6896
  146.2416  140.1431  142.8335 H   0  0  0  0  0  0  0  0  0  0  0  0  # atno 7974 bound_to 7965
  155.9301  140.1089  157.1139 H   0  0  0  0  0  0  0  0  0  0  0  0  # atno 8008 bound_to 7997
  154.4069  140.1239  156.4857 H   0  0  0  0  0  0  0  0  0  0  0  0  # atno 8009 bound_to 7997
  155.7091  140.3471  155.4968 H   0  0  0  0  0  0  0  0  0  0  0  0  # atno 8010 bound_to 7997
  139.5271  144.2747  152.0598 H   0  0  0  0  0  0  0  0  0  0  0  0  # atno 10167 bound_to 10162
  156.1763  130.4150  149.9572 H   0  0  0  0  0  0  0  0  0  0  0  0  # atno 10718 bound_to 10713
  154.8753  135.3845  154.4171 H   0  0  0  0  0  0  0  0  0  0  0  0  # atno 10763 bound_to 10752
  153.4879  135.7030  153.5906 H   0  0  0  0  0  0  0  0  0  0  0  0  # atno 10764 bound_to 10752
  153.4293  135.3882  155.2127 H   0  0  0  0  0  0  0  0  0  0  0  0  # atno 10765 bound_to 10752
  140.9571  133.7186  156.1310 H   0  0  0  0  0  0  0  0  0  0  0  0  # atno 11005 bound_to 11000
  145.0230  140.8809  143.5155 LP  0  0  0  0  0  0  0  0  0  0  0  0  # atno 17320 bound_to 7965
  145.1482  139.2530  143.5454 LP  0  0  0  0  0  0  0  0  0  0  0  0  # atno 17321 bound_to 7965
  140.2205  144.4471  150.6344 LP  0  0  0  0  0  0  0  0  0  0  0  0  # atno 17342 bound_to 10162
  140.6422  143.2206  151.6266 LP  0  0  0  0  0  0  0  0  0  0  0  0  # atno 17343 bound_to 10162
  156.7356  130.9060  151.3629 LP  0  0  0  0  0  0  0  0  0  0  0  0  # atno 17370 bound_to 10713
  157.6838  130.9165  150.0334 LP  0  0  0  0  0  0  0  0  0  0  0  0  # atno 17371 bound_to 10713
  140.7520  134.4034  157.5540 LP  0  0  0  0  0  0  0  0  0  0  0  0  # atno 17394 bound_to 11000
  139.8866  134.8906  156.2577 LP  0  0  0  0  0  0  0  0  0  0  0  0  # atno 17395 bound_to 11000

$$$$
