AV-unprocessed.smi:1568|AV-procd|sdf|6310|dock5
  -GOLD-   22720 6513D 1   1.00000     0.00000
 Structure written by MMmdl.
 43 44  0  0  0  0  0  0  0  0  1 V2000
  154.4800  136.4545  159.8894 C   0  0  0  0  0  0  0  0  0  0  0  0
  153.1220  136.7845  159.6559 O   0  0  0  0  0  0  0  0  0  0  0  0
  152.7985  138.0851  160.1164 C   0  0  0  0  0  0  0  0  0  0  0  0
  153.7402  139.1021  159.4666 C   0  0  0  0  0  0  0  0  0  0  0  0
  153.2293  139.4206  158.1770 O   0  0  0  0  0  0  0  0  0  0  0  0
  152.3745  140.4972  158.0431 C   0  0  0  0  0  0  0  0  0  0  0  0
  152.2830  141.3794  159.0702 N   0  0  0  0  0  0  0  0  0  0  0  0
  151.4772  142.4524  158.9276 C   0  0  0  0  0  0  0  0  0  0  0  0
  150.7300  142.7072  157.7621 C   0  0  0  0  0  0  0  0  0  0  0  0
  150.8210  141.7921  156.6969 C   0  0  0  0  0  0  0  0  0  0  0  0
  151.6435  140.6554  156.8399 C   0  0  0  0  0  0  0  0  0  0  0  0
  151.7629  139.6701  155.7142 C   0  0  0  0  0  0  0  0  0  0  0  0
  152.7087  139.7838  154.9342 O   0  0  0  0  0  0  0  0  0  0  0  0
  150.8326  138.6866  155.6223 N   0  0  0  0  0  0  0  0  0  0  0  0
  150.9618  137.5747  154.6716 C   0  0  0  0  0  0  0  0  0  0  0  0
  150.9698  136.2447  155.4454 C   0  0  0  0  0  0  0  0  0  0  0  0
  149.6891  136.0911  156.2943 C   0  0  0  0  0  0  0  0  0  0  0  0
  149.7302  134.8073  157.1339 C   0  0  0  0  0  0  0  0  0  0  0  0
  149.8550  133.6532  156.4741 N   0  0  0  0  0  0  0  0  0  0  0  0
  149.6533  134.8529  158.3602 O   0  0  0  0  0  0  0  0  0  0  0  0
  149.4833  137.3345  157.1864 C   0  0  0  0  0  0  0  0  0  0  0  0
  149.5618  138.6336  156.3635 C   0  0  0  0  0  0  0  0  0  0  0  0
  154.6823  135.4495  159.5194 H   0  0  0  0  0  0  0  0  0  0  0  0
  154.7127  136.4739  160.9548 H   0  0  0  0  0  0  0  0  0  0  0  0
  155.1487  137.1449  159.3730 H   0  0  0  0  0  0  0  0  0  0  0  0
  151.7631  138.3241  159.8684 H   0  0  0  0  0  0  0  0  0  0  0  0
  152.8957  138.1299  161.2011 H   0  0  0  0  0  0  0  0  0  0  0  0
  153.7988  139.9997  160.0845 H   0  0  0  0  0  0  0  0  0  0  0  0
  154.7421  138.6773  159.3858 H   0  0  0  0  0  0  0  0  0  0  0  0
  151.4311  143.1319  159.7659 H   0  0  0  0  0  0  0  0  0  0  0  0
  150.1026  143.5828  157.6877 H   0  0  0  0  0  0  0  0  0  0  0  0
  150.2595  141.9585  155.7889 H   0  0  0  0  0  0  0  0  0  0  0  0
  150.1260  137.6001  153.9709 H   0  0  0  0  0  0  0  0  0  0  0  0
  151.8655  137.6390  154.0642 H   0  0  0  0  0  0  0  0  0  0  0  0
  151.0572  135.4132  154.7449 H   0  0  0  0  0  0  0  0  0  0  0  0
  151.8551  136.2075  156.0829 H   0  0  0  0  0  0  0  0  0  0  0  0
  148.8422  136.0280  155.6085 H   0  0  0  0  0  0  0  0  0  0  0  0
  149.8873  132.7816  156.9826 H   0  0  0  0  0  0  0  0  0  0  0  0
  149.9172  133.6572  155.4661 H   0  0  0  0  0  0  0  0  0  0  0  0
  148.5161  137.2783  157.6875 H   0  0  0  0  0  0  0  0  0  0  0  0
  150.2329  137.3614  157.9760 H   0  0  0  0  0  0  0  0  0  0  0  0
  149.4004  139.4898  157.0171 H   0  0  0  0  0  0  0  0  0  0  0  0
  148.7413  138.6617  155.6451 H   0  0  0  0  0  0  0  0  0  0  0  0
  1  2  1  0  0  0  0
  1 23  1  0  0  0  0
  1 24  1  0  0  0  0
  1 25  1  0  0  0  0
  2  3  1  0  0  0  0
  3  4  1  0  0  0  0
  3 26  1  0  0  0  0
  3 27  1  0  0  0  0
  4  5  1  0  0  0  0
  4 28  1  0  0  0  0
  4 29  1  0  0  0  0
  5  6  1  0  0  0  0
  6 11  1  0  0  0  0
  6  7  2  0  0  0  0
  7  8  1  0  0  0  0
  8  9  2  0  0  0  0
  8 30  1  0  0  0  0
  9 10  1  0  0  0  0
  9 31  1  0  0  0  0
 10 11  2  0  0  0  0
 10 32  1  0  0  0  0
 11 12  1  0  0  0  0
 12 13  2  0  0  0  0
 12 14  1  0  0  0  0
 14 22  1  0  0  0  0
 14 15  1  0  0  0  0
 15 16  1  0  0  0  0
 15 33  1  0  0  0  0
 15 34  1  0  0  0  0
 16 17  1  0  0  0  0
 16 35  1  0  0  0  0
 16 36  1  0  0  0  0
 17 18  1  0  0  0  0
 17 21  1  0  0  0  0
 17 37  1  0  0  0  0
 18 19  1  0  0  0  0
 18 20  2  0  0  0  0
 19 38  1  0  0  0  0
 19 39  1  0  0  0  0
 21 22  1  0  0  0  0
 21 40  1  0  0  0  0
 21 41  1  0  0  0  0
 22 42  1  0  0  0  0
 22 43  1  0  0  0  0
M  END
> <s_m_source_file>
AV-unprocessed.smi

> <i_m_source_file_index>
1568

> <i_lp_mmshare_version>
43012

> <i_f3d_flags>
0

> <s_epik_input>
W0NIM11PW0NIMl1bQ0gyXU9jMW5bY0hdW2NIXVtjSF1jMUMoPU8pTjJbQ0gyXVtDSDJdW0NIXShDKD1PKVtOSDJdKVtDSDJdW0NIMl0y

> <s_epik_cmdline>
J2VwaWtfcHl0aG9uJywgJy1waCcsICc3LjAnLCAnLXRuJywgJzgnLCAnLW1hJywgJzIwMCcsICctbWV0YWxfYmluZGluZycsICctaW1hZScsICc8aW5maWxlLm1hZT4nLCAnLW9tYWUnLCAnPG91dGZpbGUubWFlPic=

> <r_lp_tautomer_probability>
1

> <r_epik_Ionization_Penalty>
2.36279e-06

> <r_epik_Ionization_Penalty_Charging>
0

> <r_epik_Ionization_Penalty_Neutral>
2.36279e-06

> <r_epik_State_Penalty>
-0

> <r_epik_Charging_Adjusted_Penalty>
0

> <i_epik_Tot_Q>
0

> <i_epik_Tot_abs_Q>
0

> <r_epik_Metal_State_Penalty>
-0

> <b_epik_Metal_Only>
0

> <s_lp_Force_Field>
OPLS_2005

> <r_lp_Energy>
28.0257

> <b_lp_Chiralities_Consistent>
1

> <s_lp_Variant>
AV-unprocessed.smi:1568-1

> <Gold.Version>
5.8.1

> <Gold.Id.Protein>
6NUR|6NUR_protein|mol2

> <Gold.PLP.Fitness>
38.2009

> <Gold.PLP.PLP>
-29.5188

> <Gold.PLP.part.hbond>
-4.3242

> <Gold.PLP.part.metal>
0.0000

> <Gold.PLP.part.buried>
-4.9055

> <Gold.PLP.part.nonpolar>
-21.3641

> <Gold.PLP.part.repulsive>
0.0906

> <Gold.PLP.ligand.clash>
0.0000

> <Gold.PLP.ligand.torsion>
2.0323

> <Gold.PLP.Chemscore.Hbond>
3.5600

> <Gold.PLP.Chemscore.CHOScore>
0.0000

> <Gold.PLP.Chemscore.Metal>
0.0000

> <Gold.Chemscore.Hbonds>
donor molecule, donor type, donor heavy atom, donor atom, acceptor molecule, acceptor atom, score
      P1  H  6896  6907       L1    20  1.00
      P1  H  6896  6908       L1     2  0.86
      P1  H  7989  7998       L1    13  0.40
      P1  H  7997  8010       L1     5  0.85

> <Gold.PLP.Chemscore.Internal.Correction>
2.0667

> <Gold.Rescore>
     Score         DG    S(hbond)    S(metal)    S(lipo)     H(rot)  DE(clash)    DE(int)     intcor
     13.60     -15.70       2.78        0.00      56.41       2.21       0.00       2.11       ----

> <Gold.Chemscore.Fitness>
13.5975

> <Gold.Chemscore.DG>
-15.7033

> <Gold.Chemscore.ZeroCoef>
-5.4800

> <Gold.Chemscore.Hbond>
2.7824

> <Gold.Chemscore.Metal>
0.0000

> <Gold.Chemscore.Lipo>
56.4089

> <Gold.Chemscore.Internal_Hbond>
0.0000

> <Gold.Chemscore.DEClash>
0.0000

> <Gold.Chemscore.DEInternal>
2.1059

> <Gold.Chemscore.Rot>
2.2148

> <Gold.Chemscore.Internal.Correction>
   9.000000E+99

> <Gold.Chemscore.Hbonds>
donor molecule, donor type, donor heavy atom, donor atom, acceptor molecule, acceptor atom, score
      P1  H  6896  6907       L1    20  0.95
      P1  H  6896  6908       L1     2  0.50
      P1  H  7989  7998       L1    13  0.07
      P1  H  7997  8010       L1     5  0.12

> <Gold.Chemscore.Hbond.Weighted>
-9.2932

> <Gold.Chemscore.Metal.Weighted>
-0.0000

> <Gold.Chemscore.Lipo.Weighted>
-6.5998

> <Gold.Chemscore.Internal_Hbond.Weighted>
0.0000

> <Gold.Chemscore.DEClash.Weighted>
0.0000

> <Gold.Chemscore.DEInternal.Weighted>
2.1059

> <Gold.Chemscore.Rot.Weighted>
5.6698

> <Gold.Chemscore.Internal.Correction.Weighted>
   9.000000E+99

> <Gold.Protein.RotatedTorsions>
[ 6907 6896 6895 6894 ] final  -95.08 input  -60.11 | X-H torsion
[ 7974 7965 7964 7962 ] final  -80.55 input  175.53 | X-H torsion
[ 8008 7997 7996 7995 ] final   36.47 input   59.86 | X-H torsion
[ 10167 10162 10161 10158 ] final   74.08 input  -65.29 | X-H torsion
[ 10718 10713 10712 10709 ] final   38.20 input   66.30 | X-H torsion
[ 10763 10752 10751 10750 ] final    6.33 input  -60.55 | X-H torsion
[ 11005 11000 10999 10996 ] final  -61.45 input  -57.11 | X-H torsion

> <Gold.Protein.ActiveResidues>
 VAL166  LYS551  ARG553  GLY616  TRP617  ASP618  TYR619  PRO620  LYS621  CYS622 
 ASP623  PHE694  ASN695  SER759  ASP760  ASP761  ALA762  ILE779  LEU786  VAL792 
 PHE793  MET794  SER795  GLU796  ALA797  LYS798  CYS799  TRP800  GLU811  SER814 

> <Gold.Protein.RotatedAtoms>
  150.6956  134.1713  159.4212 H   0  0  0  0  0  0  0  0  0  0  0  0  # atno 6907 bound_to 6896
  151.9690  135.0083  160.0561 H   0  0  0  0  0  0  0  0  0  0  0  0  # atno 6908 bound_to 6896
  152.1858  133.4704  159.5019 H   0  0  0  0  0  0  0  0  0  0  0  0  # atno 6909 bound_to 6896
  145.5584  140.9486  143.1461 H   0  0  0  0  0  0  0  0  0  0  0  0  # atno 7974 bound_to 7965
  155.1879  140.3305  155.4363 H   0  0  0  0  0  0  0  0  0  0  0  0  # atno 8008 bound_to 7997
  156.2453  140.1915  156.6923 H   0  0  0  0  0  0  0  0  0  0  0  0  # atno 8009 bound_to 7997
  154.6226  140.0593  156.9620 H   0  0  0  0  0  0  0  0  0  0  0  0  # atno 8010 bound_to 7997
  140.0175  144.5566  150.7608 H   0  0  0  0  0  0  0  0  0  0  0  0  # atno 10167 bound_to 10162
  157.3560  130.7624  149.7013 H   0  0  0  0  0  0  0  0  0  0  0  0  # atno 10718 bound_to 10713
  153.2490  135.6911  153.7700 H   0  0  0  0  0  0  0  0  0  0  0  0  # atno 10763 bound_to 10752
  153.6801  135.3330  155.3177 H   0  0  0  0  0  0  0  0  0  0  0  0  # atno 10764 bound_to 10752
  154.8386  135.4520  154.1440 H   0  0  0  0  0  0  0  0  0  0  0  0  # atno 10765 bound_to 10752
  141.1325  133.6630  156.5377 H   0  0  0  0  0  0  0  0  0  0  0  0  # atno 11005 bound_to 11000
  144.7495  139.7231  143.7279 LP  0  0  0  0  0  0  0  0  0  0  0  0  # atno 17320 bound_to 7965
  146.1868  139.5088  142.9831 LP  0  0  0  0  0  0  0  0  0  0  0  0  # atno 17321 bound_to 7965
  140.7356  143.2743  151.3791 LP  0  0  0  0  0  0  0  0  0  0  0  0  # atno 17342 bound_to 10162
  139.6162  144.0998  152.2348 LP  0  0  0  0  0  0  0  0  0  0  0  0  # atno 17343 bound_to 10162
  155.9729  130.4127  150.4045 LP  0  0  0  0  0  0  0  0  0  0  0  0  # atno 17370 bound_to 10713
  157.2115  131.0461  151.2596 LP  0  0  0  0  0  0  0  0  0  0  0  0  # atno 17371 bound_to 10713
  140.4164  134.7226  157.4865 LP  0  0  0  0  0  0  0  0  0  0  0  0  # atno 17394 bound_to 11000
  140.0390  134.6294  155.9005 LP  0  0  0  0  0  0  0  0  0  0  0  0  # atno 17395 bound_to 11000

$$$$
