AV-unprocessed.smi:937|AV-procd|sdf|4209|dock4
  -GOLD-   22720 2113D 1   1.00000     0.00000
 Structure written by MMmdl.
 45 46  0  0  0  0  0  0  0  0  1 V2000
  152.6780  141.5639  159.4822 C   0  0  0  0  0  0  0  0  0  0  0  0
  152.0957  140.9988  158.2036 C   0  0  0  0  0  0  0  0  0  0  0  0
  151.0305  141.6515  157.5485 C   0  0  0  0  0  0  0  0  0  0  0  0
  150.5225  141.0833  156.3647 C   0  0  0  0  0  0  0  0  0  0  0  0
  151.0962  139.8888  155.8834 C   0  0  0  0  0  0  0  0  0  0  0  0
  150.5803  139.2367  154.6164 C   0  0  0  0  0  0  0  0  0  0  0  0
  149.0658  138.9823  154.6742 C   0  0  0  0  0  0  0  0  0  0  0  0
  148.7247  137.6770  154.1230 N   0  0  0  0  0  0  0  0  0  0  0  0
  148.1326  136.6838  154.8075 C   0  0  0  0  0  0  0  0  0  0  0  0
  147.8264  136.7691  155.9954 O   0  0  0  0  0  0  0  0  0  0  0  0
  147.8909  135.5703  154.0931 N   0  0  0  0  0  0  0  0  0  0  0  0
  147.2655  134.3182  154.5310 C   0  0  2  0  0  0  0  0  0  0  0  0
  148.3167  133.2169  154.7880 C   0  0  0  0  0  0  0  0  0  0  0  0
  148.9718  132.7289  153.4859 C   0  0  0  0  0  0  0  0  0  0  0  0
  147.9168  132.2568  152.4734 C   0  0  0  0  0  0  0  0  0  0  0  0
  146.8799  133.3596  152.1733 C   0  0  1  0  0  0  0  0  0  0  0  0
  145.8251  132.8984  151.1464 C   0  0  0  0  0  0  0  0  0  0  0  0
  144.9966  133.8957  150.8352 F   0  0  0  0  0  0  0  0  0  0  0  0
  146.4264  132.4749  150.0346 F   0  0  0  0  0  0  0  0  0  0  0  0
  145.1140  131.8870  151.6447 F   0  0  0  0  0  0  0  0  0  0  0  0
  146.2302  133.8519  153.4876 C   0  0  0  0  0  0  0  0  0  0  0  0
  152.1567  139.3143  156.6153 C   0  0  0  0  0  0  0  0  0  0  0  0
  152.6499  139.8518  157.7519 N   0  0  0  0  0  0  0  0  0  0  0  0
  152.5203  142.6414  159.5377 H   0  0  0  0  0  0  0  0  0  0  0  0
  153.7511  141.3774  159.5381 H   0  0  0  0  0  0  0  0  0  0  0  0
  152.2025  141.1024  160.3478 H   0  0  0  0  0  0  0  0  0  0  0  0
  150.6108  142.5656  157.9422 H   0  0  0  0  0  0  0  0  0  0  0  0
  149.7059  141.5558  155.8382 H   0  0  0  0  0  0  0  0  0  0  0  0
  150.8255  139.8772  153.7679 H   0  0  0  0  0  0  0  0  0  0  0  0
  151.1123  138.2979  154.4562 H   0  0  0  0  0  0  0  0  0  0  0  0
  148.7211  139.0159  155.7081 H   0  0  0  0  0  0  0  0  0  0  0  0
  148.5246  139.7658  154.1405 H   0  0  0  0  0  0  0  0  0  0  0  0
  148.9443  137.5194  153.1504 H   0  0  0  0  0  0  0  0  0  0  0  0
  148.1908  135.5901  153.1290 H   0  0  0  0  0  0  0  0  0  0  0  0
  146.7240  134.5091  155.4589 H   0  0  0  0  0  0  0  0  0  0  0  0
  149.0825  133.5666  155.4812 H   0  0  0  0  0  0  0  0  0  0  0  0
  147.8331  132.3712  155.2786 H   0  0  0  0  0  0  0  0  0  0  0  0
  149.5680  133.5307  153.0486 H   0  0  0  0  0  0  0  0  0  0  0  0
  149.6649  131.9159  153.7036 H   0  0  0  0  0  0  0  0  0  0  0  0
  148.4136  131.9485  151.5531 H   0  0  0  0  0  0  0  0  0  0  0  0
  147.4126  131.3711  152.8618 H   0  0  0  0  0  0  0  0  0  0  0  0
  147.4133  134.2005  151.7272 H   0  0  0  0  0  0  0  0  0  0  0  0
  145.6370  133.0438  153.9176 H   0  0  0  0  0  0  0  0  0  0  0  0
  145.5286  134.6609  153.2813 H   0  0  0  0  0  0  0  0  0  0  0  0
  152.6209  138.3974  156.2826 H   0  0  0  0  0  0  0  0  0  0  0  0
  1  2  1  0  0  0  0
  1 24  1  0  0  0  0
  1 25  1  0  0  0  0
  1 26  1  0  0  0  0
  2 23  1  0  0  0  0
  2  3  2  0  0  0  0
  3  4  1  0  0  0  0
  3 27  1  0  0  0  0
  4  5  2  0  0  0  0
  4 28  1  0  0  0  0
  5  6  1  0  0  0  0
  5 22  1  0  0  0  0
  6  7  1  0  0  0  0
  6 29  1  0  0  0  0
  6 30  1  0  0  0  0
  7  8  1  0  0  0  0
  7 31  1  0  0  0  0
  7 32  1  0  0  0  0
  8  9  1  0  0  0  0
  8 33  1  0  0  0  0
  9 10  2  0  0  0  0
  9 11  1  0  0  0  0
 11 12  1  0  0  0  0
 11 34  1  0  0  0  0
 12 21  1  0  0  0  0
 12 13  1  0  0  0  0
 12 35  1  0  0  0  0
 13 14  1  0  0  0  0
 13 36  1  0  0  0  0
 13 37  1  0  0  0  0
 14 15  1  0  0  0  0
 14 38  1  0  0  0  0
 14 39  1  0  0  0  0
 15 16  1  0  0  0  0
 15 40  1  0  0  0  0
 15 41  1  0  0  0  0
 16 17  1  0  0  0  0
 16 21  1  0  0  0  0
 16 42  1  0  0  0  0
 17 18  1  0  0  0  0
 17 19  1  0  0  0  0
 17 20  1  0  0  0  0
 21 43  1  0  0  0  0
 21 44  1  0  0  0  0
 22 23  2  0  0  0  0
 22 45  1  0  0  0  0
M  END
> <s_m_source_file>
AV-unprocessed.smi

> <i_m_source_file_index>
937

> <i_lp_mmshare_version>
43012

> <i_f3d_flags>
0

> <s_epik_input>
W0NIM11jMVtjSF1bY0hdYyhbY0hdbjEpW0NIMl1bQ0gyXVtOSF1DKD1PKVtOSF1bQ0BASF0yW0NIMl1bQ0gyXVtDSDJdW0NAQEhdKEMoRikoRilGKVtDSDJdMg==

> <s_epik_cmdline>
J2VwaWtfcHl0aG9uJywgJy1waCcsICc3LjAnLCAnLXRuJywgJzgnLCAnLW1hJywgJzIwMCcsICctbWV0YWxfYmluZGluZycsICctaW1hZScsICc8aW5maWxlLm1hZT4nLCAnLW9tYWUnLCAnPG91dGZpbGUubWFlPic=

> <r_epik_Ionization_Penalty>
0.0563445

> <r_epik_Ionization_Penalty_Charging>
0

> <r_epik_Ionization_Penalty_Neutral>
0.0563445

> <r_epik_State_Penalty>
0.0485409

> <r_epik_Charging_Adjusted_Penalty>
0.0485409

> <i_epik_Tot_Q>
0

> <i_epik_Tot_abs_Q>
0

> <r_epik_Metal_State_Penalty>
0.0443056

> <b_epik_Metal_Only>
0

> <s_lp_Force_Field>
OPLS_2005

> <r_lp_Energy>
16.8022

> <b_lp_Chiralities_Consistent>
1

> <s_lp_Variant>
AV-unprocessed.smi:937-1

> <Gold.Version>
5.8.1

> <Gold.Id.Protein>
6NUR|6NUR_protein|mol2

> <Gold.PLP.Fitness>
46.5156

> <Gold.PLP.PLP>
-39.5851

> <Gold.PLP.part.hbond>
-2.9998

> <Gold.PLP.part.metal>
0.0000

> <Gold.PLP.part.buried>
-2.0733

> <Gold.PLP.part.nonpolar>
-34.1818

> <Gold.PLP.part.repulsive>
0.0383

> <Gold.PLP.ligand.clash>
0.0000

> <Gold.PLP.ligand.torsion>
0.5558

> <Gold.PLP.Chemscore.Hbond>
2.6576

> <Gold.PLP.Chemscore.CHOScore>
0.0000

> <Gold.PLP.Chemscore.Metal>
0.0000

> <Gold.Chemscore.Hbonds>
donor molecule, donor type, donor heavy atom, donor atom, acceptor molecule, acceptor atom, score
      L1  H     8    33       P1  7948  0.88
      L1  H    11    34       P1  7948  1.00
      P1  H  7997  8009       L1    23  0.64

> <Gold.PLP.Chemscore.Internal.Correction>
0.0693

> <Gold.Rescore>
     Score         DG    S(hbond)    S(metal)    S(lipo)     H(rot)  DE(clash)    DE(int)     intcor
     18.51     -19.33       2.34        0.00      86.32       1.58       0.07       0.74       ----

> <Gold.Chemscore.Fitness>
18.5145

> <Gold.Chemscore.DG>
-19.3312

> <Gold.Chemscore.ZeroCoef>
-5.4800

> <Gold.Chemscore.Hbond>
2.3380

> <Gold.Chemscore.Metal>
0.0000

> <Gold.Chemscore.Lipo>
86.3215

> <Gold.Chemscore.Internal_Hbond>
0.0000

> <Gold.Chemscore.DEClash>
0.0750

> <Gold.Chemscore.DEInternal>
0.7418

> <Gold.Chemscore.Rot>
1.5849

> <Gold.Chemscore.Internal.Correction>
   9.000000E+99

> <Gold.Chemscore.Hbonds>
donor molecule, donor type, donor heavy atom, donor atom, acceptor molecule, acceptor atom, score
      L1  H     8    33       P1  7948  0.87
      L1  H    11    34       P1  7948  0.97
      P1  H  7997  8009       L1    23  0.06

> <Gold.Chemscore.Hbond.Weighted>
-7.8090

> <Gold.Chemscore.Metal.Weighted>
-0.0000

> <Gold.Chemscore.Lipo.Weighted>
-10.0996

> <Gold.Chemscore.Internal_Hbond.Weighted>
0.0000

> <Gold.Chemscore.DEClash.Weighted>
0.0750

> <Gold.Chemscore.DEInternal.Weighted>
0.7418

> <Gold.Chemscore.Rot.Weighted>
4.0574

> <Gold.Chemscore.Internal.Correction.Weighted>
   9.000000E+99

> <Gold.Protein.RotatedTorsions>
[ 6907 6896 6895 6894 ] final  115.23 input  -60.11 | X-H torsion
[ 7974 7965 7964 7962 ] final  101.88 input  175.53 | X-H torsion
[ 8008 7997 7996 7995 ] final  155.41 input   59.86 | X-H torsion
[ 10167 10162 10161 10158 ] final  -70.55 input  -65.29 | X-H torsion
[ 10718 10713 10712 10709 ] final -171.97 input   66.30 | X-H torsion
[ 10763 10752 10751 10750 ] final  177.35 input  -60.55 | X-H torsion
[ 11005 11000 10999 10996 ] final  -48.72 input  -57.11 | X-H torsion

> <Gold.Protein.ActiveResidues>
 VAL166  LYS551  ARG553  GLY616  TRP617  ASP618  TYR619  PRO620  LYS621  CYS622 
 ASP623  PHE694  ASN695  SER759  ASP760  ASP761  ALA762  ILE779  LEU786  VAL792 
 PHE793  MET794  SER795  GLU796  ALA797  LYS798  CYS799  TRP800  GLU811  SER814 

> <Gold.Protein.RotatedAtoms>
  152.4754  133.8127  159.7011 H   0  0  0  0  0  0  0  0  0  0  0  0  # atno 6907 bound_to 6896
  150.8768  133.7417  159.2950 H   0  0  0  0  0  0  0  0  0  0  0  0  # atno 6908 bound_to 6896
  151.4934  135.1062  159.9862 H   0  0  0  0  0  0  0  0  0  0  0  0  # atno 6909 bound_to 6896
  145.3665  139.2407  143.3478 H   0  0  0  0  0  0  0  0  0  0  0  0  # atno 7974 bound_to 7965
  156.2479  140.1940  156.6798 H   0  0  0  0  0  0  0  0  0  0  0  0  # atno 8008 bound_to 7997
  154.6331  140.0593  156.9782 H   0  0  0  0  0  0  0  0  0  0  0  0  # atno 8009 bound_to 7997
  155.1680  140.3265  155.4401 H   0  0  0  0  0  0  0  0  0  0  0  0  # atno 8010 bound_to 7997
  140.5343  143.2319  151.7205 H   0  0  0  0  0  0  0  0  0  0  0  0  # atno 10167 bound_to 10162
  156.7487  130.9370  151.3113 H   0  0  0  0  0  0  0  0  0  0  0  0  # atno 10718 bound_to 10713
  154.4933  135.2780  155.1479 H   0  0  0  0  0  0  0  0  0  0  0  0  # atno 10763 bound_to 10752
  154.3142  135.6223  153.5482 H   0  0  0  0  0  0  0  0  0  0  0  0  # atno 10764 bound_to 10752
  152.9891  135.5727  154.5360 H   0  0  0  0  0  0  0  0  0  0  0  0  # atno 10765 bound_to 10752
  141.0717  133.6677  156.3482 H   0  0  0  0  0  0  0  0  0  0  0  0  # atno 11005 bound_to 11000
  146.2904  140.4308  142.8741 LP  0  0  0  0  0  0  0  0  0  0  0  0  # atno 17320 bound_to 7965
  144.8608  140.7136  143.6109 LP  0  0  0  0  0  0  0  0  0  0  0  0  # atno 17321 bound_to 7965
  139.4965  144.4066  152.0125 LP  0  0  0  0  0  0  0  0  0  0  0  0  # atno 17342 bound_to 10162
  140.3170  144.3472  150.6019 LP  0  0  0  0  0  0  0  0  0  0  0  0  # atno 17343 bound_to 10162
  157.6787  130.9119  150.0213 LP  0  0  0  0  0  0  0  0  0  0  0  0  # atno 17370 bound_to 10713
  156.1416  130.3642  149.9574 LP  0  0  0  0  0  0  0  0  0  0  0  0  # atno 17371 bound_to 10713
  140.5659  134.5888  157.5445 LP  0  0  0  0  0  0  0  0  0  0  0  0  # atno 17394 bound_to 11000
  139.9530  134.7583  156.0404 LP  0  0  0  0  0  0  0  0  0  0  0  0  # atno 17395 bound_to 11000

$$$$
