AV-unprocessed.smi:3090|AV-procd|sdf|11774|dock2
  -GOLD-   2272017153D 1   1.00000     0.00000
 Structure written by MMmdl.
 22 22  0  0  0  0  0  0  0  0  2 V2000
  145.9578  130.4691  151.3201 C   0  0  0  0  0  0  0  0  0  0  0  0
  145.2556  131.6543  150.8769 N   0  0  0  0  0  0  0  0  0  0  0  0
  145.5232  132.9736  151.1711 C   0  0  0  0  0  0  0  0  0  0  0  0
  144.5911  133.7376  150.5240 C   0  0  0  0  0  0  0  0  0  0  0  0
  144.4236  135.2342  150.5130 C   0  0  2  0  0  0  0  0  0  0  0  0
  144.6663  135.7710  149.2275 O   0  0  0  0  0  0  0  0  0  0  0  0
  145.3932  135.8958  151.5080 C   0  0  0  0  0  0  0  0  0  0  0  0
  146.1971  136.9525  150.8695 N   0  3  0  0  0  0  0  0  0  0  0  0
  143.7865  132.7721  149.8530 C   0  0  0  0  0  0  0  0  0  0  0  0
  144.1858  131.5292  150.0659 N   0  0  0  0  0  0  0  0  0  0  0  0
  146.7902  130.7470  151.9674 H   0  0  0  0  0  0  0  0  0  0  0  0
  146.3459  129.9257  150.4581 H   0  0  0  0  0  0  0  0  0  0  0  0
  145.2779  129.8227  151.8758 H   0  0  0  0  0  0  0  0  0  0  0  0
  146.3459  133.2580  151.8109 H   0  0  0  0  0  0  0  0  0  0  0  0
  143.4003  135.4958  150.7852 H   0  0  0  0  0  0  0  0  0  0  0  0
  144.4702  136.6959  149.2461 H   0  0  0  0  0  0  0  0  0  0  0  0
  144.8350  136.3499  152.3277 H   0  0  0  0  0  0  0  0  0  0  0  0
  146.0614  135.1552  151.9498 H   0  0  0  0  0  0  0  0  0  0  0  0
  145.9820  136.9928  149.8835 H   0  0  0  0  0  0  0  0  0  0  0  0
  147.1789  136.7515  150.9941 H   0  0  0  0  0  0  0  0  0  0  0  0
  142.9264  132.9386  149.2211 H   0  0  0  0  0  0  0  0  0  0  0  0
  145.9787  137.8402  151.2996 H   0  0  0  0  0  0  0  0  0  0  0  0
  1  2  1  0  0  0  0
  1 11  1  0  0  0  0
  1 12  1  0  0  0  0
  1 13  1  0  0  0  0
  2 10  1  0  0  0  0
  2  3  1  0  0  0  0
  3  4  2  0  0  0  0
  3 14  1  0  0  0  0
  4  5  1  0  0  0  0
  4  9  1  0  0  0  0
  5  6  1  0  0  0  0
  5  7  1  0  0  0  0
  5 15  1  0  0  0  0
  6 16  1  0  0  0  0
  7  8  1  0  0  0  0
  7 17  1  0  0  0  0
  7 18  1  0  0  0  0
  8 19  1  0  0  0  0
  8 20  1  0  0  0  0
  8 22  1  0  0  0  0
  9 10  2  0  0  0  0
  9 21  1  0  0  0  0
M  CHG  1   8   1
M  END
> <s_m_source_file>
AV-unprocessed.smi

> <i_m_source_file_index>
3090

> <i_lp_mmshare_version>
43012

> <i_f3d_flags>
0

> <s_epik_input>
W0NIM11uMVtjSF1jKFtjSF1uMSlbQ0BIXShbT0hdKVtDSDJdW05IMl0=

> <s_epik_cmdline>
J2VwaWtfcHl0aG9uJywgJy1waCcsICc3LjAnLCAnLXRuJywgJzgnLCAnLW1hJywgJzIwMCcsICctbWV0YWxfYmluZGluZycsICctaW1hZScsICc8aW5maWxlLm1hZT4nLCAnLW9tYWUnLCAnPG91dGZpbGUubWFlPic=

> <r_lp_tautomer_probability>
1

> <r_epik_Ionization_Penalty>
0.014056

> <r_epik_Ionization_Penalty_Charging>
0.0140431

> <r_epik_Ionization_Penalty_Neutral>
1.29738e-05

> <r_epik_State_Penalty>
0.0109628

> <r_epik_Charging_Adjusted_Penalty>
0.0250059

> <i_epik_Tot_Q>
1

> <i_epik_Tot_abs_Q>
1

> <r_epik_Metal_State_Penalty>
0.0109636

> <b_epik_Metal_Only>
0

> <s_lp_Force_Field>
OPLS_2005

> <r_lp_Energy>
1.35566

> <b_lp_Chiralities_Consistent>
1

> <s_lp_Variant>
AV-unprocessed.smi:3090-1

> <Gold.Version>
5.8.1

> <Gold.Id.Protein>
6NUR|6NUR_protein|mol2

> <Gold.PLP.Fitness>
36.5481

> <Gold.PLP.PLP>
-24.9260

> <Gold.PLP.part.hbond>
-4.4049

> <Gold.PLP.part.metal>
0.0000

> <Gold.PLP.part.buried>
-4.7651

> <Gold.PLP.part.nonpolar>
-16.5815

> <Gold.PLP.part.repulsive>
0.2613

> <Gold.PLP.ligand.clash>
0.0000

> <Gold.PLP.ligand.torsion>
0.8154

> <Gold.PLP.Chemscore.Hbond>
3.4177

> <Gold.PLP.Chemscore.CHOScore>
0.9992

> <Gold.PLP.Chemscore.Metal>
0.0000

> <Gold.Chemscore.Hbonds>
donor molecule, donor type, donor heavy atom, donor atom, acceptor molecule, acceptor atom, score
      L1  H     6    16       P1 10171  1.00
      L1  H     8    20       P1  7948  2.00
      P1  H 10785 10796       L1    10  0.45
      L1  C     9    21       P1 10186  1.00

> <Gold.PLP.Chemscore.Internal.Correction>
0.0024

> <Gold.Rescore>
     Score         DG    S(hbond)    S(metal)    S(lipo)     H(rot)  DE(clash)    DE(int)     intcor
     13.29     -14.18       2.51        0.00      45.44       1.96       0.00       0.89       ----

> <Gold.Chemscore.Fitness>
13.2917

> <Gold.Chemscore.DG>
-14.1779

> <Gold.Chemscore.ZeroCoef>
-5.4800

> <Gold.Chemscore.Hbond>
2.5110

> <Gold.Chemscore.Metal>
0.0000

> <Gold.Chemscore.Lipo>
45.4379

> <Gold.Chemscore.Internal_Hbond>
0.0000

> <Gold.Chemscore.DEClash>
0.0009

> <Gold.Chemscore.DEInternal>
0.8853

> <Gold.Chemscore.Rot>
1.9551

> <Gold.Chemscore.Internal.Correction>
   9.000000E+99

> <Gold.Chemscore.Hbonds>
donor molecule, donor type, donor heavy atom, donor atom, acceptor molecule, acceptor atom, score
      L1  H     6    16       P1 10171  0.93
      L1  H     8    20       P1  7948  0.96
      P1  H 10785 10796       L1    10  0.37

> <Gold.Chemscore.Hbond.Weighted>
-8.3867

> <Gold.Chemscore.Metal.Weighted>
-0.0000

> <Gold.Chemscore.Lipo.Weighted>
-5.3162

> <Gold.Chemscore.Internal_Hbond.Weighted>
0.0000

> <Gold.Chemscore.DEClash.Weighted>
0.0009

> <Gold.Chemscore.DEInternal.Weighted>
0.8853

> <Gold.Chemscore.Rot.Weighted>
5.0051

> <Gold.Chemscore.Internal.Correction.Weighted>
   9.000000E+99

> <Gold.Protein.RotatedTorsions>
[ 6907 6896 6895 6894 ] final  113.15 input  -60.11 | X-H torsion
[ 7974 7965 7964 7962 ] final  -15.30 input  175.53 | X-H torsion
[ 8008 7997 7996 7995 ] final -137.80 input   59.86 | X-H torsion
[ 10167 10162 10161 10158 ] final -114.47 input  -65.29 | X-H torsion
[ 10718 10713 10712 10709 ] final  135.52 input   66.30 | X-H torsion
[ 10763 10752 10751 10750 ] final  144.61 input  -60.55 | X-H torsion
[ 11005 11000 10999 10996 ] final   32.06 input  -57.11 | X-H torsion

> <Gold.Protein.ActiveResidues>
 VAL166  LYS551  ARG553  GLY616  TRP617  ASP618  TYR619  PRO620  LYS621  CYS622 
 ASP623  PHE694  ASN695  SER759  ASP760  ASP761  ALA762  ILE779  LEU786  VAL792 
 PHE793  MET794  SER795  GLU796  ALA797  LYS798  CYS799  TRP800  GLU811  SER814 

> <Gold.Protein.RotatedAtoms>
  152.4877  133.8416  159.7154 H   0  0  0  0  0  0  0  0  0  0  0  0  # atno 6907 bound_to 6896
  150.8977  133.7149  159.2894 H   0  0  0  0  0  0  0  0  0  0  0  0  # atno 6908 bound_to 6896
  151.4601  135.1041  159.9774 H   0  0  0  0  0  0  0  0  0  0  0  0  # atno 6909 bound_to 6896
  146.2038  140.3472  142.8414 H   0  0  0  0  0  0  0  0  0  0  0  0  # atno 7974 bound_to 7965
  155.4177  140.0516  157.3027 H   0  0  0  0  0  0  0  0  0  0  0  0  # atno 8008 bound_to 7997
  154.4917  140.2122  155.9494 H   0  0  0  0  0  0  0  0  0  0  0  0  # atno 8009 bound_to 7997
  156.1351  140.3165  155.8413 H   0  0  0  0  0  0  0  0  0  0  0  0  # atno 8010 bound_to 7997
  140.1006  143.4617  152.1814 H   0  0  0  0  0  0  0  0  0  0  0  0  # atno 10167 bound_to 10162
  157.4562  131.1070  150.9975 H   0  0  0  0  0  0  0  0  0  0  0  0  # atno 10718 bound_to 10713
  153.9918  135.2931  155.3411 H   0  0  0  0  0  0  0  0  0  0  0  0  # atno 10763 bound_to 10752
  154.7210  135.5109  153.8815 H   0  0  0  0  0  0  0  0  0  0  0  0  # atno 10764 bound_to 10752
  153.0806  135.6678  154.0169 H   0  0  0  0  0  0  0  0  0  0  0  0  # atno 10765 bound_to 10752
  140.2774  134.3013  155.7810 H   0  0  0  0  0  0  0  0  0  0  0  0  # atno 11005 bound_to 11000
  144.8744  140.7316  143.6026 LP  0  0  0  0  0  0  0  0  0  0  0  0  # atno 17320 bound_to 7965
  145.3392  139.1737  143.4495 LP  0  0  0  0  0  0  0  0  0  0  0  0  # atno 17321 bound_to 7965
  139.5673  144.7443  151.3986 LP  0  0  0  0  0  0  0  0  0  0  0  0  # atno 17342 bound_to 10162
  140.6980  143.7702  150.7357 LP  0  0  0  0  0  0  0  0  0  0  0  0  # atno 17343 bound_to 10162
  157.0788  130.5894  149.5416 LP  0  0  0  0  0  0  0  0  0  0  0  0  # atno 17370 bound_to 10713
  156.0008  130.5087  150.7656 LP  0  0  0  0  0  0  0  0  0  0  0  0  # atno 17371 bound_to 10713
  141.2168  133.7504  156.9427 LP  0  0  0  0  0  0  0  0  0  0  0  0  # atno 17394 bound_to 11000
  140.1316  134.9352  157.2345 LP  0  0  0  0  0  0  0  0  0  0  0  0  # atno 17395 bound_to 11000

$$$$
