AV-unprocessed.smi:3307|AV-procd|sdf|12706|dock1
  -GOLD-   2272019 43D 1   1.00000     0.00000
 Structure written by MMmdl.
 31 32  0  0  0  0  0  0  0  0  2 V2000
  154.3323  140.3658  161.3511 C   0  0  0  0  0  0  0  0  0  0  0  0
  153.5558  141.5784  160.9299 C   0  0  0  0  0  0  0  0  0  0  0  0
  153.0717  142.6420  161.7410 C   0  0  0  0  0  0  0  0  0  0  0  0
  152.4384  143.4759  160.8631 C   0  0  0  0  0  0  0  0  0  0  0  0
  151.7298  144.7673  161.1092 C   0  0  0  0  0  0  0  0  0  0  0  0
  152.5553  142.9020  159.6091 N   0  0  0  0  0  0  0  0  0  0  0  0
  152.0693  143.3823  158.3241 C   0  0  0  0  0  0  0  0  0  0  0  0
  150.9665  142.4821  157.7357 C   0  0  2  0  0  0  0  0  0  0  0  0
  151.3237  140.9945  157.7277 C   0  0  0  0  0  0  0  0  0  0  0  0
  150.4165  140.4365  156.6373 C   0  0  0  0  0  0  0  0  0  0  0  0
  150.3751  141.5612  155.5999 C   0  0  0  0  0  0  0  0  0  0  0  0
  150.6562  142.8141  156.3298 N   0  3  0  0  0  0  0  0  0  0  0  0
  153.2469  141.7429  159.6544 N   0  0  0  0  0  0  0  0  0  0  0  0
  154.5193  140.3708  162.4251 H   0  0  0  0  0  0  0  0  0  0  0  0
  155.2981  140.3230  160.8471 H   0  0  0  0  0  0  0  0  0  0  0  0
  153.7902  139.4503  161.1134 H   0  0  0  0  0  0  0  0  0  0  0  0
  153.1759  142.7741  162.8079 H   0  0  0  0  0  0  0  0  0  0  0  0
  151.7107  145.0037  162.1734 H   0  0  0  0  0  0  0  0  0  0  0  0
  150.6988  144.7196  160.7591 H   0  0  0  0  0  0  0  0  0  0  0  0
  152.2289  145.5880  160.5937 H   0  0  0  0  0  0  0  0  0  0  0  0
  151.7062  144.4045  158.4324 H   0  0  0  0  0  0  0  0  0  0  0  0
  152.9169  143.4281  157.6391 H   0  0  0  0  0  0  0  0  0  0  0  0
  150.0436  142.6036  158.3053 H   0  0  0  0  0  0  0  0  0  0  0  0
  152.3682  140.8529  157.4462 H   0  0  0  0  0  0  0  0  0  0  0  0
  151.1672  140.5164  158.6953 H   0  0  0  0  0  0  0  0  0  0  0  0
  150.7761  139.4927  156.2261 H   0  0  0  0  0  0  0  0  0  0  0  0
  149.4170  140.2679  157.0411 H   0  0  0  0  0  0  0  0  0  0  0  0
  151.1548  141.4171  154.8514 H   0  0  0  0  0  0  0  0  0  0  0  0
  149.4162  141.6090  155.0832 H   0  0  0  0  0  0  0  0  0  0  0  0
  149.8626  143.4379  156.2930 H   0  0  0  0  0  0  0  0  0  0  0  0
  151.4570  143.2607  155.9064 H   0  0  0  0  0  0  0  0  0  0  0  0
  1  2  1  0  0  0  0
  1 14  1  0  0  0  0
  1 15  1  0  0  0  0
  1 16  1  0  0  0  0
  2 13  2  0  0  0  0
  2  3  1  0  0  0  0
  3  4  2  0  0  0  0
  3 17  1  0  0  0  0
  4  5  1  0  0  0  0
  4  6  1  0  0  0  0
  5 18  1  0  0  0  0
  5 19  1  0  0  0  0
  5 20  1  0  0  0  0
  6  7  1  0  0  0  0
  6 13  1  0  0  0  0
  7  8  1  0  0  0  0
  7 21  1  0  0  0  0
  7 22  1  0  0  0  0
  8 12  1  0  0  0  0
  8  9  1  0  0  0  0
  8 23  1  0  0  0  0
  9 10  1  0  0  0  0
  9 24  1  0  0  0  0
  9 25  1  0  0  0  0
 10 11  1  0  0  0  0
 10 26  1  0  0  0  0
 10 27  1  0  0  0  0
 11 12  1  0  0  0  0
 11 28  1  0  0  0  0
 11 29  1  0  0  0  0
 12 30  1  0  0  0  0
 12 31  1  0  0  0  0
M  CHG  1  12   1
M  END
> <s_m_source_file>
AV-unprocessed.smi

> <i_m_source_file_index>
3307

> <i_lp_mmshare_version>
43012

> <i_f3d_flags>
0

> <s_epik_input>
W0NIM11jMVtjSF1jKFtDSDNdKW4objEpW0NIMl1bQ0BASF0yW0NIMl1bQ0gyXVtDSDJdW05IXTI=

> <s_epik_cmdline>
J2VwaWtfcHl0aG9uJywgJy1waCcsICc3LjAnLCAnLXRuJywgJzgnLCAnLW1hJywgJzIwMCcsICctbWV0YWxfYmluZGluZycsICctaW1hZScsICc8aW5maWxlLm1hZT4nLCAnLW9tYWUnLCAnPG91dGZpbGUubWFlPic=

> <r_lp_tautomer_probability>
1

> <r_epik_Ionization_Penalty>
0.000974324

> <r_epik_Ionization_Penalty_Charging>
0.000863359

> <r_epik_Ionization_Penalty_Neutral>
0.000110964

> <r_epik_State_Penalty>
-0

> <r_epik_Charging_Adjusted_Penalty>
0.000863359

> <i_epik_Tot_Q>
1

> <i_epik_Tot_abs_Q>
1

> <r_epik_Metal_State_Penalty>
-0

> <b_epik_Metal_Only>
0

> <s_lp_Force_Field>
OPLS_2005

> <r_lp_Energy>
23.4337

> <b_lp_Chiralities_Consistent>
1

> <s_lp_Variant>
AV-unprocessed.smi:3307-1

> <Gold.Version>
5.8.1

> <Gold.Id.Protein>
6NUR|6NUR_protein|mol2

> <Gold.PLP.Fitness>
40.1866

> <Gold.PLP.PLP>
-34.3978

> <Gold.PLP.part.hbond>
-1.0000

> <Gold.PLP.part.metal>
0.0000

> <Gold.PLP.part.buried>
-2.8416

> <Gold.PLP.part.nonpolar>
-29.4991

> <Gold.PLP.part.repulsive>
0.0972

> <Gold.PLP.ligand.clash>
0.0000

> <Gold.PLP.ligand.torsion>
0.1061

> <Gold.PLP.Chemscore.Hbond>
2.0000

> <Gold.PLP.Chemscore.CHOScore>
0.0000

> <Gold.PLP.Chemscore.Metal>
0.0000

> <Gold.Chemscore.Hbonds>
donor molecule, donor type, donor heavy atom, donor atom, acceptor molecule, acceptor atom, score
      L1  H    12    30       P1  8028  2.00

> <Gold.PLP.Chemscore.Internal.Correction>
0.0010

> <Gold.Rescore>
     Score         DG    S(hbond)    S(metal)    S(lipo)     H(rot)  DE(clash)    DE(int)     intcor
     15.26     -16.73       0.99        0.00      93.28       1.16       0.05       1.42       ----

> <Gold.Chemscore.Fitness>
15.2611

> <Gold.Chemscore.DG>
-16.7311

> <Gold.Chemscore.ZeroCoef>
-5.4800

> <Gold.Chemscore.Hbond>
0.9922

> <Gold.Chemscore.Metal>
0.0000

> <Gold.Chemscore.Lipo>
93.2831

> <Gold.Chemscore.Internal_Hbond>
0.0000

> <Gold.Chemscore.DEClash>
0.0486

> <Gold.Chemscore.DEInternal>
1.4215

> <Gold.Chemscore.Rot>
1.1628

> <Gold.Chemscore.Internal.Correction>
   9.000000E+99

> <Gold.Chemscore.Hbonds>
donor molecule, donor type, donor heavy atom, donor atom, acceptor molecule, acceptor atom, score
      L1  H    12    30       P1  8028  0.99

> <Gold.Chemscore.Hbond.Weighted>
-3.3138

> <Gold.Chemscore.Metal.Weighted>
-0.0000

> <Gold.Chemscore.Lipo.Weighted>
-10.9141

> <Gold.Chemscore.Internal_Hbond.Weighted>
0.0000

> <Gold.Chemscore.DEClash.Weighted>
0.0486

> <Gold.Chemscore.DEInternal.Weighted>
1.4215

> <Gold.Chemscore.Rot.Weighted>
2.9768

> <Gold.Chemscore.Internal.Correction.Weighted>
   9.000000E+99

> <Gold.Protein.RotatedTorsions>
[ 6907 6896 6895 6894 ] final  128.07 input  -60.11 | X-H torsion
[ 7974 7965 7964 7962 ] final   10.41 input  175.53 | X-H torsion
[ 8008 7997 7996 7995 ] final  142.02 input   59.86 | X-H torsion
[ 10167 10162 10161 10158 ] final -163.22 input  -65.29 | X-H torsion
[ 10718 10713 10712 10709 ] final   -9.40 input   66.30 | X-H torsion
[ 10763 10752 10751 10750 ] final   93.55 input  -60.55 | X-H torsion
[ 11005 11000 10999 10996 ] final  -38.69 input  -57.11 | X-H torsion

> <Gold.Protein.ActiveResidues>
 VAL166  LYS551  ARG553  GLY616  TRP617  ASP618  TYR619  PRO620  LYS621  CYS622 
 ASP623  PHE694  ASN695  SER759  ASP760  ASP761  ALA762  ILE779  LEU786  VAL792 
 PHE793  MET794  SER795  GLU796  ALA797  LYS798  CYS799  TRP800  GLU811  SER814 

> <Gold.Protein.RotatedAtoms>
  152.3754  133.6474  159.6118 H   0  0  0  0  0  0  0  0  0  0  0  0  # atno 6907 bound_to 6896
  150.7700  133.9202  159.3404 H   0  0  0  0  0  0  0  0  0  0  0  0  # atno 6908 bound_to 6896
  151.7018  135.0930  160.0303 H   0  0  0  0  0  0  0  0  0  0  0  0  # atno 6909 bound_to 6896
  146.2389  139.9638  142.8455 H   0  0  0  0  0  0  0  0  0  0  0  0  # atno 7974 bound_to 7965
  156.2956  140.2300  156.4660 H   0  0  0  0  0  0  0  0  0  0  0  0  # atno 8008 bound_to 7997
  154.7977  140.0450  157.1270 H   0  0  0  0  0  0  0  0  0  0  0  0  # atno 8009 bound_to 7997
  154.9570  140.3049  155.5052 H   0  0  0  0  0  0  0  0  0  0  0  0  # atno 8010 bound_to 7997
  139.6336  144.0392  152.2036 H   0  0  0  0  0  0  0  0  0  0  0  0  # atno 10167 bound_to 10162
  156.6885  130.5058  149.5950 H   0  0  0  0  0  0  0  0  0  0  0  0  # atno 10718 bound_to 10713
  153.2315  135.4321  155.0600 H   0  0  0  0  0  0  0  0  0  0  0  0  # atno 10763 bound_to 10752
  154.8299  135.3380  154.6780 H   0  0  0  0  0  0  0  0  0  0  0  0  # atno 10764 bound_to 10752
  153.7207  135.7017  153.5070 H   0  0  0  0  0  0  0  0  0  0  0  0  # atno 10765 bound_to 10752
  141.0046  133.6938  156.2087 H   0  0  0  0  0  0  0  0  0  0  0  0  # atno 11005 bound_to 11000
  145.1745  140.9737  143.4302 LP  0  0  0  0  0  0  0  0  0  0  0  0  # atno 17320 bound_to 7965
  144.9998  139.3609  143.6173 LP  0  0  0  0  0  0  0  0  0  0  0  0  # atno 17321 bound_to 7965
  140.0064  144.6256  150.7685 LP  0  0  0  0  0  0  0  0  0  0  0  0  # atno 17342 bound_to 10162
  140.7453  143.2873  151.3427 LP  0  0  0  0  0  0  0  0  0  0  0  0  # atno 17343 bound_to 10162
  156.1815  130.6502  151.0956 LP  0  0  0  0  0  0  0  0  0  0  0  0  # atno 17370 bound_to 10713
  157.7017  131.0773  150.6797 LP  0  0  0  0  0  0  0  0  0  0  0  0  # atno 17371 bound_to 10713
  140.6833  134.4744  157.5589 LP  0  0  0  0  0  0  0  0  0  0  0  0  # atno 17394 bound_to 11000
  139.9057  134.8455  156.1717 LP  0  0  0  0  0  0  0  0  0  0  0  0  # atno 17395 bound_to 11000

$$$$
