AV-unprocessed.smi:1408|AV-procd|sdf|5726|dock5
  -GOLD-   22720 5363D 1   1.00000     0.00000
 Structure written by MMmdl.
 41 42  0  0  0  0  0  0  0  0  1 V2000
  145.5601  134.7041  151.1704 C   0  0  0  0  0  0  0  0  0  0  0  0
  145.7858  133.2339  151.4851 C   0  0  0  0  0  0  0  0  0  0  0  0
  144.8993  132.2712  150.9570 C   0  0  0  0  0  0  0  0  0  0  0  0
  145.1087  130.9126  151.2490 C   0  0  0  0  0  0  0  0  0  0  0  0
  146.2032  130.5720  152.0620 C   0  0  0  0  0  0  0  0  0  0  0  0
  147.0553  131.4853  152.5704 N   0  0  0  0  0  0  0  0  0  0  0  0
  146.8674  132.8012  152.2986 C   0  0  0  0  0  0  0  0  0  0  0  0
  147.7257  133.8200  152.8018 N   0  0  0  0  0  0  0  0  0  0  0  0
  148.2351  133.9504  154.0398 C   0  0  0  0  0  0  0  0  0  0  0  0
  148.0469  133.1719  154.9751 O   0  0  0  0  0  0  0  0  0  0  0  0
  148.9905  135.0542  154.1392 N   0  0  0  0  0  0  0  0  0  0  0  0
  149.6737  135.5001  155.3505 C   0  0  0  0  0  0  0  0  0  0  0  0
  149.7379  137.0339  155.3794 C   0  0  0  0  0  0  0  0  0  0  0  0
  150.4971  137.5397  156.6188 C   0  0  0  0  0  0  0  0  0  0  0  0
  151.8386  136.9311  156.7248 N   0  0  0  0  0  0  0  0  0  0  0  0
  153.2452  137.8375  156.2462 S   0  0  0  0  0  0  0  0  0  0  0  0
  152.8301  138.4504  154.5623 C   0  0  0  0  0  0  0  0  0  0  0  0
  153.3590  138.9986  157.1420 O   0  0  0  0  0  0  0  0  0  0  0  0
  154.3686  136.8953  156.1273 O   0  0  0  0  0  0  0  0  0  0  0  0
  151.8530  135.4557  156.6570 C   0  0  0  0  0  0  0  0  0  0  0  0
  151.1016  134.9330  155.4195 C   0  0  0  0  0  0  0  0  0  0  0  0
  144.6831  134.8451  150.5378 H   0  0  0  0  0  0  0  0  0  0  0  0
  146.4215  135.1188  150.6462 H   0  0  0  0  0  0  0  0  0  0  0  0
  145.4056  135.2717  152.0885 H   0  0  0  0  0  0  0  0  0  0  0  0
  144.0673  132.5674  150.3351 H   0  0  0  0  0  0  0  0  0  0  0  0
  144.4480  130.1520  150.8604 H   0  0  0  0  0  0  0  0  0  0  0  0
  146.4009  129.5397  152.3108 H   0  0  0  0  0  0  0  0  0  0  0  0
  147.9738  134.5394  152.1393 H   0  0  0  0  0  0  0  0  0  0  0  0
  149.0927  135.6356  153.3205 H   0  0  0  0  0  0  0  0  0  0  0  0
  149.1109  135.1629  156.2234 H   0  0  0  0  0  0  0  0  0  0  0  0
  150.2175  137.4035  154.4735 H   0  0  0  0  0  0  0  0  0  0  0  0
  148.7289  137.4480  155.3797 H   0  0  0  0  0  0  0  0  0  0  0  0
  150.5728  138.6266  156.5998 H   0  0  0  0  0  0  0  0  0  0  0  0
  149.9338  137.2873  157.5178 H   0  0  0  0  0  0  0  0  0  0  0  0
  153.6669  139.0348  154.1805 H   0  0  0  0  0  0  0  0  0  0  0  0
  151.9466  139.0849  154.6057 H   0  0  0  0  0  0  0  0  0  0  0  0
  152.6530  137.6090  153.8945 H   0  0  0  0  0  0  0  0  0  0  0  0
  152.8776  135.0849  156.6627 H   0  0  0  0  0  0  0  0  0  0  0  0
  151.3812  135.0661  157.5597 H   0  0  0  0  0  0  0  0  0  0  0  0
  151.0714  133.8433  155.4514 H   0  0  0  0  0  0  0  0  0  0  0  0
  151.6485  135.1943  154.5141 H   0  0  0  0  0  0  0  0  0  0  0  0
  1  2  1  0  0  0  0
  1 22  1  0  0  0  0
  1 23  1  0  0  0  0
  1 24  1  0  0  0  0
  2  7  1  0  0  0  0
  2  3  2  0  0  0  0
  3  4  1  0  0  0  0
  3 25  1  0  0  0  0
  4  5  2  0  0  0  0
  4 26  1  0  0  0  0
  5  6  1  0  0  0  0
  5 27  1  0  0  0  0
  6  7  2  0  0  0  0
  7  8  1  0  0  0  0
  8  9  1  0  0  0  0
  8 28  1  0  0  0  0
  9 10  2  0  0  0  0
  9 11  1  0  0  0  0
 11 12  1  0  0  0  0
 11 29  1  0  0  0  0
 12 21  1  0  0  0  0
 12 13  1  0  0  0  0
 12 30  1  0  0  0  0
 13 14  1  0  0  0  0
 13 31  1  0  0  0  0
 13 32  1  0  0  0  0
 14 15  1  0  0  0  0
 14 33  1  0  0  0  0
 14 34  1  0  0  0  0
 15 16  1  0  0  0  0
 15 20  1  0  0  0  0
 16 17  1  0  0  0  0
 16 18  2  0  0  0  0
 16 19  2  0  0  0  0
 17 35  1  0  0  0  0
 17 36  1  0  0  0  0
 17 37  1  0  0  0  0
 20 21  1  0  0  0  0
 20 38  1  0  0  0  0
 20 39  1  0  0  0  0
 21 40  1  0  0  0  0
 21 41  1  0  0  0  0
M  END
> <s_m_source_file>
AV-unprocessed.smi

> <i_m_source_file_index>
1408

> <i_lp_mmshare_version>
43012

> <i_f3d_flags>
0

> <s_epik_input>
W0NIM11jMVtjSF1bY0hdW2NIXW5jMVtOSF1DKD1PKVtOSF1bQ0hdMltDSDJdW0NIMl1OKFMoPU8pKD1PKVtDSDNdKVtDSDJdW0NIMl0y

> <s_epik_cmdline>
J2VwaWtfcHl0aG9uJywgJy1waCcsICc3LjAnLCAnLXRuJywgJzgnLCAnLW1hJywgJzIwMCcsICctbWV0YWxfYmluZGluZycsICctaW1hZScsICc8aW5maWxlLm1hZT4nLCAnLW9tYWUnLCAnPG91dGZpbGUubWFlPic=

> <r_lp_tautomer_probability>
1

> <r_epik_Ionization_Penalty>
5.70787e-05

> <r_epik_Ionization_Penalty_Charging>
0

> <r_epik_Ionization_Penalty_Neutral>
5.70787e-05

> <r_epik_State_Penalty>
-0

> <r_epik_Charging_Adjusted_Penalty>
0

> <i_epik_Tot_Q>
0

> <i_epik_Tot_abs_Q>
0

> <r_epik_Metal_State_Penalty>
-0

> <b_epik_Metal_Only>
0

> <s_lp_Force_Field>
OPLS_2005

> <r_lp_Energy>
5.75517

> <b_lp_Chiralities_Consistent>
1

> <s_lp_Variant>
AV-unprocessed.smi:1408-1

> <Gold.Version>
5.8.1

> <Gold.Id.Protein>
6NUR|6NUR_protein|mol2

> <Gold.PLP.Fitness>
39.1297

> <Gold.PLP.PLP>
-30.0451

> <Gold.PLP.part.hbond>
-4.0000

> <Gold.PLP.part.metal>
0.0000

> <Gold.PLP.part.buried>
-4.1271

> <Gold.PLP.part.nonpolar>
-21.9295

> <Gold.PLP.part.repulsive>
0.1465

> <Gold.PLP.ligand.clash>
0.0000

> <Gold.PLP.ligand.torsion>
1.7870

> <Gold.PLP.Chemscore.Hbond>
3.5360

> <Gold.PLP.Chemscore.CHOScore>
0.0000

> <Gold.PLP.Chemscore.Metal>
0.0000

> <Gold.Chemscore.Hbonds>
donor molecule, donor type, donor heavy atom, donor atom, acceptor molecule, acceptor atom, score
      L1  H     8    28       P1  7948  0.93
      L1  H    11    29       P1  7948  1.00
      P1  H  7997  8010       L1    18  1.00
      P1  H 10752 10765       L1    19  0.48

> <Gold.PLP.Chemscore.Internal.Correction>
2.0506

> <Gold.Rescore>
     Score         DG    S(hbond)    S(metal)    S(lipo)     H(rot)  DE(clash)    DE(int)     intcor
     18.75     -20.58       3.11        0.00      62.25       1.00       0.00       1.83       ----

> <Gold.Chemscore.Fitness>
18.7493

> <Gold.Chemscore.DG>
-20.5849

> <Gold.Chemscore.ZeroCoef>
-5.4800

> <Gold.Chemscore.Hbond>
3.1084

> <Gold.Chemscore.Metal>
0.0000

> <Gold.Chemscore.Lipo>
62.2474

> <Gold.Chemscore.Internal_Hbond>
0.0000

> <Gold.Chemscore.DEClash>
0.0021

> <Gold.Chemscore.DEInternal>
1.8334

> <Gold.Chemscore.Rot>
1.0000

> <Gold.Chemscore.Internal.Correction>
   9.000000E+99

> <Gold.Chemscore.Hbonds>
donor molecule, donor type, donor heavy atom, donor atom, acceptor molecule, acceptor atom, score
      L1  H     8    28       P1  7948  0.23
      L1  H    11    29       P1  7948  0.62
      P1  H  7997  8010       L1    18  0.79
      P1  H 10752 10765       L1    19  0.42

> <Gold.Chemscore.Hbond.Weighted>
-10.3819

> <Gold.Chemscore.Metal.Weighted>
-0.0000

> <Gold.Chemscore.Lipo.Weighted>
-7.2829

> <Gold.Chemscore.Internal_Hbond.Weighted>
0.0000

> <Gold.Chemscore.DEClash.Weighted>
0.0021

> <Gold.Chemscore.DEInternal.Weighted>
1.8334

> <Gold.Chemscore.Rot.Weighted>
2.5600

> <Gold.Chemscore.Internal.Correction.Weighted>
   9.000000E+99

> <Gold.Protein.RotatedTorsions>
[ 6907 6896 6895 6894 ] final  -58.80 input  -60.11 | X-H torsion
[ 7974 7965 7964 7962 ] final  -57.84 input  175.53 | X-H torsion
[ 8008 7997 7996 7995 ] final   62.98 input   59.86 | X-H torsion
[ 10167 10162 10161 10158 ] final  155.20 input  -65.29 | X-H torsion
[ 10718 10713 10712 10709 ] final   59.92 input   66.30 | X-H torsion
[ 10763 10752 10751 10750 ] final  -99.00 input  -60.55 | X-H torsion
[ 11005 11000 10999 10996 ] final  113.93 input  -57.11 | X-H torsion

> <Gold.Protein.ActiveResidues>
 VAL166  LYS551  ARG553  GLY616  TRP617  ASP618  TYR619  PRO620  LYS621  CYS622 
 ASP623  PHE694  ASN695  SER759  ASP760  ASP761  ALA762  ILE779  LEU786  VAL792 
 PHE793  MET794  SER795  GLU796  ALA797  LYS798  CYS799  TRP800  GLU811  SER814 

> <Gold.Protein.RotatedAtoms>
  150.7979  134.7051  159.6571 H   0  0  0  0  0  0  0  0  0  0  0  0  # atno 6907 bound_to 6896
  152.4093  134.6149  160.0045 H   0  0  0  0  0  0  0  0  0  0  0  0  # atno 6908 bound_to 6896
  151.6397  133.3290  159.3163 H   0  0  0  0  0  0  0  0  0  0  0  0  # atno 6909 bound_to 6896
  145.8463  140.8383  143.0008 H   0  0  0  0  0  0  0  0  0  0  0  0  # atno 7974 bound_to 7965
  155.6230  140.3496  155.4658 H   0  0  0  0  0  0  0  0  0  0  0  0  # atno 8008 bound_to 7997
  156.0064  140.1224  157.0521 H   0  0  0  0  0  0  0  0  0  0  0  0  # atno 8009 bound_to 7997
  154.4266  140.1090  156.5755 H   0  0  0  0  0  0  0  0  0  0  0  0  # atno 8010 bound_to 7997
  139.4821  144.5120  151.8010 H   0  0  0  0  0  0  0  0  0  0  0  0  # atno 10167 bound_to 10162
  157.5713  130.8910  149.9272 H   0  0  0  0  0  0  0  0  0  0  0  0  # atno 10718 bound_to 10713
  154.7461  135.4988  153.9207 H   0  0  0  0  0  0  0  0  0  0  0  0  # atno 10763 bound_to 10752
  153.1093  135.6705  153.9536 H   0  0  0  0  0  0  0  0  0  0  0  0  # atno 10764 bound_to 10752
  153.9300  135.3079  155.3425 H   0  0  0  0  0  0  0  0  0  0  0  0  # atno 10765 bound_to 10752
  139.8966  134.9559  156.6814 H   0  0  0  0  0  0  0  0  0  0  0  0  # atno 11005 bound_to 11000
  144.6731  140.0887  143.7466 LP  0  0  0  0  0  0  0  0  0  0  0  0  # atno 17320 bound_to 7965
  145.9408  139.2668  143.1270 LP  0  0  0  0  0  0  0  0  0  0  0  0  # atno 17321 bound_to 7965
  140.4624  144.1703  150.5908 LP  0  0  0  0  0  0  0  0  0  0  0  0  # atno 17342 bound_to 10162
  140.4470  143.2502  151.9398 LP  0  0  0  0  0  0  0  0  0  0  0  0  # atno 17343 bound_to 10162
  156.0758  130.3679  150.0680 LP  0  0  0  0  0  0  0  0  0  0  0  0  # atno 17370 bound_to 10713
  156.8832  130.9563  151.3597 LP  0  0  0  0  0  0  0  0  0  0  0  0  # atno 17371 bound_to 10713
  140.7296  133.9070  155.8202 LP  0  0  0  0  0  0  0  0  0  0  0  0  # atno 17394 bound_to 11000
  141.0164  134.0950  157.4168 LP  0  0  0  0  0  0  0  0  0  0  0  0  # atno 17395 bound_to 11000

$$$$
