AV-unprocessed.smi:1676|AV-procd|sdf|6719|dock5
  -GOLD-   22720 7463D 1   1.00000     0.00000
 Structure written by MMmdl.
 42 43  0  0  0  0  0  0  0  0  2 V2000
  149.6344  134.0023  154.7022 C   0  0  0  0  0  0  0  0  0  0  0  0
  150.0823  135.0058  155.7257 C   0  0  0  0  0  0  0  0  0  0  0  0
  151.2986  135.5177  155.6389 N   0  0  0  0  0  0  0  0  0  0  0  0
  151.4127  136.4173  156.7031 O   0  0  0  0  0  0  0  0  0  0  0  0
  150.2460  136.4124  157.3965 C   0  0  0  0  0  0  0  0  0  0  0  0
  150.1649  137.3235  158.5739 C   0  0  0  0  0  0  0  0  0  0  0  0
  149.3603  135.5343  156.8349 C   0  0  0  0  0  0  0  0  0  0  0  0
  147.9527  135.2100  157.2753 C   0  0  0  0  0  0  0  0  0  0  0  0
  147.8256  135.1559  158.8033 C   0  0  0  0  0  0  0  0  0  0  0  0
  148.7769  134.7973  159.4980 O   0  0  0  0  0  0  0  0  0  0  0  0
  146.6172  135.5169  159.2750 N   0  0  0  0  0  0  0  0  0  0  0  0
  146.0601  135.6208  160.6372 C   0  0  0  0  0  0  0  0  0  0  0  0
  146.5373  137.0085  161.1457 C   0  0  0  0  0  0  0  0  0  0  0  0
  146.0005  138.0397  160.6820 O   0  0  0  0  0  0  0  0  0  0  0  0
  147.4729  137.0223  161.9784 O   0  5  0  0  0  0  0  0  0  0  0  0
  144.4992  135.5145  160.6946 C   0  0  0  0  0  0  0  0  0  0  0  0
  143.8858  135.3826  162.1021 C   0  0  0  0  0  0  0  0  0  0  0  0
  143.6979  133.9157  162.5228 C   0  0  0  0  0  0  0  0  0  0  0  0
  145.0039  133.1539  162.7943 C   0  0  0  0  0  0  0  0  0  0  0  0
  146.0213  133.1732  161.6380 C   0  0  0  0  0  0  0  0  0  0  0  0
  146.7550  134.5215  161.5025 C   0  0  0  0  0  0  0  0  0  0  0  0
  148.7479  133.4621  155.0333 H   0  0  0  0  0  0  0  0  0  0  0  0
  150.4129  133.2652  154.5036 H   0  0  0  0  0  0  0  0  0  0  0  0
  149.3892  134.4917  153.7595 H   0  0  0  0  0  0  0  0  0  0  0  0
  149.1291  137.5789  158.7985 H   0  0  0  0  0  0  0  0  0  0  0  0
  150.7055  138.2514  158.3857 H   0  0  0  0  0  0  0  0  0  0  0  0
  150.5969  136.8520  159.4563 H   0  0  0  0  0  0  0  0  0  0  0  0
  147.2435  135.9463  156.8962 H   0  0  0  0  0  0  0  0  0  0  0  0
  147.6310  134.2496  156.8705 H   0  0  0  0  0  0  0  0  0  0  0  0
  145.9459  135.7560  158.5597 H   0  0  0  0  0  0  0  0  0  0  0  0
  144.0511  136.3801  160.2039 H   0  0  0  0  0  0  0  0  0  0  0  0
  144.1548  134.6650  160.1058 H   0  0  0  0  0  0  0  0  0  0  0  0
  144.4637  135.9312  162.8461 H   0  0  0  0  0  0  0  0  0  0  0  0
  142.9013  135.8512  162.0876 H   0  0  0  0  0  0  0  0  0  0  0  0
  143.0886  133.8860  163.4265 H   0  0  0  0  0  0  0  0  0  0  0  0
  143.1207  133.3885  161.7624 H   0  0  0  0  0  0  0  0  0  0  0  0
  145.4708  133.5397  163.7014 H   0  0  0  0  0  0  0  0  0  0  0  0
  144.7494  132.1170  163.0157 H   0  0  0  0  0  0  0  0  0  0  0  0
  146.7712  132.4117  161.8556 H   0  0  0  0  0  0  0  0  0  0  0  0
  145.5646  132.8711  160.6953 H   0  0  0  0  0  0  0  0  0  0  0  0
  147.7478  134.3225  161.0944 H   0  0  0  0  0  0  0  0  0  0  0  0
  146.9514  134.8897  162.5113 H   0  0  0  0  0  0  0  0  0  0  0  0
  1  2  1  0  0  0  0
  1 22  1  0  0  0  0
  1 23  1  0  0  0  0
  1 24  1  0  0  0  0
  2  7  1  0  0  0  0
  2  3  2  0  0  0  0
  3  4  1  0  0  0  0
  4  5  1  0  0  0  0
  5  6  1  0  0  0  0
  5  7  2  0  0  0  0
  6 25  1  0  0  0  0
  6 26  1  0  0  0  0
  6 27  1  0  0  0  0
  7  8  1  0  0  0  0
  8  9  1  0  0  0  0
  8 28  1  0  0  0  0
  8 29  1  0  0  0  0
  9 10  2  0  0  0  0
  9 11  1  0  0  0  0
 11 12  1  0  0  0  0
 11 30  1  0  0  0  0
 12 21  1  0  0  0  0
 12 13  1  0  0  0  0
 12 16  1  0  0  0  0
 13 14  2  0  0  0  0
 13 15  1  0  0  0  0
 16 17  1  0  0  0  0
 16 31  1  0  0  0  0
 16 32  1  0  0  0  0
 17 18  1  0  0  0  0
 17 33  1  0  0  0  0
 17 34  1  0  0  0  0
 18 19  1  0  0  0  0
 18 35  1  0  0  0  0
 18 36  1  0  0  0  0
 19 20  1  0  0  0  0
 19 37  1  0  0  0  0
 19 38  1  0  0  0  0
 20 21  1  0  0  0  0
 20 39  1  0  0  0  0
 20 40  1  0  0  0  0
 21 41  1  0  0  0  0
 21 42  1  0  0  0  0
M  CHG  1  15  -1
M  END
> <s_m_source_file>
AV-unprocessed.smi

> <i_m_source_file_index>
1676

> <i_lp_mmshare_version>
43012

> <i_f3d_flags>
0

> <s_epik_input>
W0NIM11jMW5vYyhbQ0gzXSljMVtDSDJdQyg9TylbTkhdQzIoQyg9TylbT0hdKVtDSDJdW0NIMl1bQ0gyXVtDSDJdW0NIMl1bQ0gyXTI=

> <s_epik_cmdline>
J2VwaWtfcHl0aG9uJywgJy1waCcsICc3LjAnLCAnLXRuJywgJzgnLCAnLW1hJywgJzIwMCcsICctbWV0YWxfYmluZGluZycsICctaW1hZScsICc8aW5maWxlLm1hZT4nLCAnLW9tYWUnLCAnPG91dGZpbGUubWFlPic=

> <r_epik_Ionization_Penalty>
0.000392727

> <r_epik_Ionization_Penalty_Charging>
0.000392708

> <r_epik_Ionization_Penalty_Neutral>
1.90763e-08

> <r_epik_State_Penalty>
0.000240388

> <r_epik_Charging_Adjusted_Penalty>
0.000633096

> <i_epik_Tot_Q>
-1

> <i_epik_Tot_abs_Q>
1

> <r_epik_Metal_State_Penalty>
-0

> <b_epik_Metal_Only>
0

> <s_lp_Force_Field>
OPLS_2005

> <r_lp_Energy>
9.66029

> <b_lp_Chiralities_Consistent>
1

> <s_lp_Variant>
AV-unprocessed.smi:1676-1

> <Gold.Version>
5.8.1

> <Gold.Id.Protein>
6NUR|6NUR_protein|mol2

> <Gold.PLP.Fitness>
37.7362

> <Gold.PLP.PLP>
-22.7581

> <Gold.PLP.part.hbond>
-4.6105

> <Gold.PLP.part.metal>
0.0000

> <Gold.PLP.part.buried>
-1.5930

> <Gold.PLP.part.nonpolar>
-17.3686

> <Gold.PLP.part.repulsive>
0.0720

> <Gold.PLP.ligand.clash>
0.0000

> <Gold.PLP.ligand.torsion>
1.5463

> <Gold.PLP.Chemscore.Hbond>
6.0000

> <Gold.PLP.Chemscore.CHOScore>
0.0000

> <Gold.PLP.Chemscore.Metal>
0.0000

> <Gold.Chemscore.Hbonds>
donor molecule, donor type, donor heavy atom, donor atom, acceptor molecule, acceptor atom, score
      P1  H  6896  6908       L1    10  1.00
      P1  H  6931  6943       L1    15  2.00
      P1  H  6934  6947       L1    14  2.00
      P1  H 10752 10764       L1     3  1.00

> <Gold.PLP.Chemscore.Internal.Correction>
0.0705

> <Gold.Rescore>
     Score         DG    S(hbond)    S(metal)    S(lipo)     H(rot)  DE(clash)    DE(int)     intcor
     16.25     -19.04       3.42        0.00      59.70       1.89       0.17       2.62       ----

> <Gold.Chemscore.Fitness>
16.2487

> <Gold.Chemscore.DG>
-19.0403

> <Gold.Chemscore.ZeroCoef>
-5.4800

> <Gold.Chemscore.Hbond>
3.4190

> <Gold.Chemscore.Metal>
0.0000

> <Gold.Chemscore.Lipo>
59.7038

> <Gold.Chemscore.Internal_Hbond>
0.0000

> <Gold.Chemscore.DEClash>
0.1730

> <Gold.Chemscore.DEInternal>
2.6187

> <Gold.Chemscore.Rot>
1.8924

> <Gold.Chemscore.Internal.Correction>
   9.000000E+99

> <Gold.Chemscore.Hbonds>
donor molecule, donor type, donor heavy atom, donor atom, acceptor molecule, acceptor atom, score
      P1  H  6896  6908       L1    10  0.96
      P1  H  6931  6943       L1    15  0.92
      P1  H  6934  6947       L1    14  0.23
      P1  H 10752 10764       L1     3  0.24

> <Gold.Chemscore.Hbond.Weighted>
-11.4195

> <Gold.Chemscore.Metal.Weighted>
-0.0000

> <Gold.Chemscore.Lipo.Weighted>
-6.9853

> <Gold.Chemscore.Internal_Hbond.Weighted>
0.0000

> <Gold.Chemscore.DEClash.Weighted>
0.1730

> <Gold.Chemscore.DEInternal.Weighted>
2.6187

> <Gold.Chemscore.Rot.Weighted>
4.8445

> <Gold.Chemscore.Internal.Correction.Weighted>
   9.000000E+99

> <Gold.Protein.RotatedTorsions>
[ 6907 6896 6895 6894 ] final  156.01 input  -60.11 | X-H torsion
[ 7974 7965 7964 7962 ] final  127.68 input  175.53 | X-H torsion
[ 8008 7997 7996 7995 ] final   56.07 input   59.86 | X-H torsion
[ 10167 10162 10161 10158 ] final   -4.84 input  -65.29 | X-H torsion
[ 10718 10713 10712 10709 ] final -131.10 input   66.30 | X-H torsion
[ 10763 10752 10751 10750 ] final  -28.77 input  -60.55 | X-H torsion
[ 11005 11000 10999 10996 ] final -160.41 input  -57.11 | X-H torsion

> <Gold.Protein.ActiveResidues>
 VAL166  LYS551  ARG553  GLY616  TRP617  ASP618  TYR619  PRO620  LYS621  CYS622 
 ASP623  PHE694  ASN695  SER759  ASP760  ASP761  ALA762  ILE779  LEU786  VAL792 
 PHE793  MET794  SER795  GLU796  ALA797  LYS798  CYS799  TRP800  GLU811  SER814 

> <Gold.Protein.RotatedAtoms>
  152.0358  133.3956  159.4316 H   0  0  0  0  0  0  0  0  0  0  0  0  # atno 6907 bound_to 6896
  150.6879  134.3469  159.4901 H   0  0  0  0  0  0  0  0  0  0  0  0  # atno 6908 bound_to 6896
  152.1262  134.9169  160.0611 H   0  0  0  0  0  0  0  0  0  0  0  0  # atno 6909 bound_to 6896
  145.0479  139.3907  143.5069 H   0  0  0  0  0  0  0  0  0  0  0  0  # atno 7974 bound_to 7965
  155.5114  140.3477  155.4389 H   0  0  0  0  0  0  0  0  0  0  0  0  # atno 8008 bound_to 7997
  156.0847  140.1395  156.9696 H   0  0  0  0  0  0  0  0  0  0  0  0  # atno 8009 bound_to 7997
  154.4600  140.0938  156.6842 H   0  0  0  0  0  0  0  0  0  0  0  0  # atno 8010 bound_to 7997
  140.6942  143.6377  150.8464 H   0  0  0  0  0  0  0  0  0  0  0  0  # atno 10167 bound_to 10162
  156.2210  130.6978  151.0756 H   0  0  0  0  0  0  0  0  0  0  0  0  # atno 10718 bound_to 10713
  153.7538  135.6924  153.4940 H   0  0  0  0  0  0  0  0  0  0  0  0  # atno 10763 bound_to 10752
  153.1985  135.4445  155.0236 H   0  0  0  0  0  0  0  0  0  0  0  0  # atno 10764 bound_to 10752
  154.8178  135.3407  154.7057 H   0  0  0  0  0  0  0  0  0  0  0  0  # atno 10765 bound_to 10752
  140.6319  134.4642  157.5230 H   0  0  0  0  0  0  0  0  0  0  0  0  # atno 11005 bound_to 11000
  146.3515  140.0114  142.8667 LP  0  0  0  0  0  0  0  0  0  0  0  0  # atno 17320 bound_to 7965
  145.1564  140.9650  143.4403 LP  0  0  0  0  0  0  0  0  0  0  0  0  # atno 17321 bound_to 7965
  140.0093  143.5660  152.2845 LP  0  0  0  0  0  0  0  0  0  0  0  0  # atno 17342 bound_to 10162
  139.6378  144.7652  151.2402 LP  0  0  0  0  0  0  0  0  0  0  0  0  # atno 17343 bound_to 10162
  157.7087  131.0744  150.6576 LP  0  0  0  0  0  0  0  0  0  0  0  0  # atno 17370 bound_to 10713
  156.6639  130.4520  149.5679 LP  0  0  0  0  0  0  0  0  0  0  0  0  # atno 17371 bound_to 10713
  139.9113  134.8339  156.1519 LP  0  0  0  0  0  0  0  0  0  0  0  0  # atno 17394 bound_to 11000
  141.0669  133.6815  156.2063 LP  0  0  0  0  0  0  0  0  0  0  0  0  # atno 17395 bound_to 11000

$$$$
