AV-unprocessed.smi:1978|AV-procd|sdf|8010|dock10
  -GOLD-   2272010203D 1   1.00000     0.00000
 Structure written by MMmdl.
 44 45  0  0  0  0  0  0  0  0  3 V2000
  153.4517  141.5529  159.6918 C   0  0  0  0  0  0  0  0  0  0  0  0
  152.9414  140.3367  158.9985 C   0  0  0  0  0  0  0  0  0  0  0  0
  151.6826  139.8752  158.7340 C   0  0  0  0  0  0  0  0  0  0  0  0
  151.9253  138.6550  158.0489 C   0  0  0  0  0  0  0  0  0  0  0  0
  150.8452  137.8514  157.5975 N   0  0  0  0  0  0  0  0  0  0  0  0
  150.8243  136.9552  156.5945 C   0  0  0  0  0  0  0  0  0  0  0  0
  151.8441  136.7378  155.9295 O   0  0  0  0  0  0  0  0  0  0  0  0
  149.5993  136.3801  156.4417 N   0  5  0  0  0  0  0  0  0  0  0  0
  149.1806  135.6027  155.2743 C   0  0  0  0  0  0  0  0  0  0  0  0
  147.6474  135.7728  155.0027 C   0  0  2  0  0  0  0  0  0  0  0  0
  146.7622  135.1424  156.1060 C   0  0  0  0  0  0  0  0  0  0  0  0
  147.1783  135.3364  153.6355 N   0  3  2  0  0  0  0  0  0  0  0  0
  145.9575  136.0357  153.1220 C   0  0  0  0  0  0  0  0  0  0  0  0
  145.7744  135.8113  151.6152 C   0  0  0  0  0  0  0  0  0  0  0  0
  145.6857  134.3163  151.3045 C   0  0  0  0  0  0  0  0  0  0  0  0
  146.9290  133.6047  151.8456 C   0  0  0  0  0  0  0  0  0  0  0  0
  147.1348  133.8571  153.3557 C   0  0  1  0  0  0  0  0  0  0  0  0
  148.3983  133.0976  153.8110 C   0  0  0  0  0  0  0  0  0  0  0  0
  153.2171  138.3994  157.9020 N   0  0  0  0  0  0  0  0  0  0  0  0
  153.8743  139.4753  158.5102 O   0  0  0  0  0  0  0  0  0  0  0  0
  152.6360  142.1118  160.1503 H   0  0  0  0  0  0  0  0  0  0  0  0
  153.9615  142.2123  158.9893 H   0  0  0  0  0  0  0  0  0  0  0  0
  154.1582  141.2817  160.4764 H   0  0  0  0  0  0  0  0  0  0  0  0
  150.7406  140.3351  158.9934 H   0  0  0  0  0  0  0  0  0  0  0  0
  149.9772  137.9661  158.0993 H   0  0  0  0  0  0  0  0  0  0  0  0
  149.7361  135.8975  154.3833 H   0  0  0  0  0  0  0  0  0  0  0  0
  149.4001  134.5431  155.4050 H   0  0  0  0  0  0  0  0  0  0  0  0
  147.4200  136.8343  155.0755 H   0  0  0  0  0  0  0  0  0  0  0  0
  146.9050  135.6346  157.0698 H   0  0  0  0  0  0  0  0  0  0  0  0
  146.9564  134.0800  156.2594 H   0  0  0  0  0  0  0  0  0  0  0  0
  145.7055  135.2484  155.8591 H   0  0  0  0  0  0  0  0  0  0  0  0
  145.0698  135.6813  153.6479 H   0  0  0  0  0  0  0  0  0  0  0  0
  146.0181  137.1082  153.2987 H   0  0  0  0  0  0  0  0  0  0  0  0
  144.8723  136.3171  151.2698 H   0  0  0  0  0  0  0  0  0  0  0  0
  146.6084  136.2559  151.0706 H   0  0  0  0  0  0  0  0  0  0  0  0
  144.7881  133.8939  151.7582 H   0  0  0  0  0  0  0  0  0  0  0  0
  145.5984  134.1587  150.2292 H   0  0  0  0  0  0  0  0  0  0  0  0
  146.8409  132.5346  151.6538 H   0  0  0  0  0  0  0  0  0  0  0  0
  147.8071  133.9437  151.2938 H   0  0  0  0  0  0  0  0  0  0  0  0
  146.2798  133.4306  153.8823 H   0  0  0  0  0  0  0  0  0  0  0  0
  148.3784  132.0646  153.4625 H   0  0  0  0  0  0  0  0  0  0  0  0
  148.4804  133.0482  154.8961 H   0  0  0  0  0  0  0  0  0  0  0  0
  149.3053  133.5593  153.4193 H   0  0  0  0  0  0  0  0  0  0  0  0
  147.9195  135.6654  153.0343 H   0  0  0  0  0  0  0  0  0  0  0  0
  1  2  1  0  0  0  0
  1 21  1  0  0  0  0
  1 22  1  0  0  0  0
  1 23  1  0  0  0  0
  2 20  1  0  0  0  0
  2  3  2  0  0  0  0
  3  4  1  0  0  0  0
  3 24  1  0  0  0  0
  4  5  1  0  0  0  0
  4 19  2  0  0  0  0
  5  6  1  0  0  0  0
  5 25  1  0  0  0  0
  6  7  2  0  0  0  0
  6  8  1  0  0  0  0
  8  9  1  0  0  0  0
  9 10  1  0  0  0  0
  9 26  1  0  0  0  0
  9 27  1  0  0  0  0
 10 11  1  0  0  0  0
 10 12  1  0  0  0  0
 10 28  1  0  0  0  0
 11 29  1  0  0  0  0
 11 30  1  0  0  0  0
 11 31  1  0  0  0  0
 12 17  1  0  0  0  0
 12 13  1  0  0  0  0
 12 44  1  0  0  0  0
 13 14  1  0  0  0  0
 13 32  1  0  0  0  0
 13 33  1  0  0  0  0
 14 15  1  0  0  0  0
 14 34  1  0  0  0  0
 14 35  1  0  0  0  0
 15 16  1  0  0  0  0
 15 36  1  0  0  0  0
 15 37  1  0  0  0  0
 16 17  1  0  0  0  0
 16 38  1  0  0  0  0
 16 39  1  0  0  0  0
 17 18  1  0  0  0  0
 17 40  1  0  0  0  0
 18 41  1  0  0  0  0
 18 42  1  0  0  0  0
 18 43  1  0  0  0  0
 19 20  1  0  0  0  0
M  CHG  1   8  -1
M  CHG  1  12   1
M  END
> <s_m_source_file>
AV-unprocessed.smi

> <i_m_source_file_index>
1978

> <i_lp_mmshare_version>
43012

> <i_f3d_flags>
0

> <s_epik_input>
W0NIM11jMVtjSF1jKG5vMSlbTkhdQyg9TylbTkhdW0NIMl1bQ0BIXShbQ0gzXSlOMltDSDJdW0NIMl1bQ0gyXVtDSDJdW0NASF0yW0NIM10=

> <s_epik_cmdline>
J2VwaWtfcHl0aG9uJywgJy1waCcsICc3LjAnLCAnLXRuJywgJzgnLCAnLW1hJywgJzIwMCcsICctbWV0YWxfYmluZGluZycsICctaW1hZScsICc8aW5maWxlLm1hZT4nLCAnLW9tYWUnLCAnPG91dGZpbGUubWFlPic=

> <r_epik_Ionization_Penalty>
6.7666

> <r_epik_Ionization_Penalty_Charging>
6.7666

> <r_epik_Ionization_Penalty_Neutral>
5.77131e-06

> <r_epik_State_Penalty>
6.79217

> <r_epik_Charging_Adjusted_Penalty>
13.5588

> <i_epik_Tot_Q>
0

> <i_epik_Tot_abs_Q>
2

> <r_epik_Metal_State_Penalty>
2.72569

> <b_epik_Metal_Only>
1

> <s_lp_Force_Field>
OPLS_2005

> <r_lp_Energy>
22.3249

> <b_lp_Chiralities_Consistent>
1

> <s_lp_Variant>
AV-unprocessed.smi:1978-19

> <Gold.Version>
5.8.1

> <Gold.Id.Protein>
6NUR|6NUR_protein|mol2

> <Gold.PLP.Fitness>
37.5500

> <Gold.PLP.PLP>
-26.7652

> <Gold.PLP.part.hbond>
-3.8626

> <Gold.PLP.part.metal>
0.0000

> <Gold.PLP.part.buried>
-1.7193

> <Gold.PLP.part.nonpolar>
-19.9098

> <Gold.PLP.part.repulsive>
0.0987

> <Gold.PLP.ligand.clash>
0.0000

> <Gold.PLP.ligand.torsion>
0.7062

> <Gold.PLP.Chemscore.Hbond>
4.0000

> <Gold.PLP.Chemscore.CHOScore>
0.0000

> <Gold.PLP.Chemscore.Metal>
0.0000

> <Gold.Chemscore.Hbonds>
donor molecule, donor type, donor heavy atom, donor atom, acceptor molecule, acceptor atom, score
      L1  H    12    44       P1  7948  2.00
      P1  H  7997  8009       L1    20  1.00
      P1  H 10752 10763       L1     7  1.00

> <Gold.PLP.Chemscore.Internal.Correction>
0.1972

> <Gold.Rescore>
     Score         DG    S(hbond)    S(metal)    S(lipo)     H(rot)  DE(clash)    DE(int)     intcor
     15.41     -17.38       2.68        0.00      58.60       1.52       0.01       1.97       ----

> <Gold.Chemscore.Fitness>
15.4103

> <Gold.Chemscore.DG>
-17.3846

> <Gold.Chemscore.ZeroCoef>
-5.4800

> <Gold.Chemscore.Hbond>
2.6759

> <Gold.Chemscore.Metal>
0.0000

> <Gold.Chemscore.Lipo>
58.5956

> <Gold.Chemscore.Internal_Hbond>
0.0000

> <Gold.Chemscore.DEClash>
0.0081

> <Gold.Chemscore.DEInternal>
1.9663

> <Gold.Chemscore.Rot>
1.5190

> <Gold.Chemscore.Internal.Correction>
   9.000000E+99

> <Gold.Chemscore.Hbonds>
donor molecule, donor type, donor heavy atom, donor atom, acceptor molecule, acceptor atom, score
      L1  H    12    44       P1  7948  1.00
      P1  H  7997  8009       L1    20  0.46
      P1  H 10752 10763       L1     7  0.95

> <Gold.Chemscore.Hbond.Weighted>
-8.9376

> <Gold.Chemscore.Metal.Weighted>
-0.0000

> <Gold.Chemscore.Lipo.Weighted>
-6.8557

> <Gold.Chemscore.Internal_Hbond.Weighted>
0.0000

> <Gold.Chemscore.DEClash.Weighted>
0.0081

> <Gold.Chemscore.DEInternal.Weighted>
1.9663

> <Gold.Chemscore.Rot.Weighted>
3.8886

> <Gold.Chemscore.Internal.Correction.Weighted>
   9.000000E+99

> <Gold.Protein.RotatedTorsions>
[ 6907 6896 6895 6894 ] final  -20.94 input  -60.11 | X-H torsion
[ 7974 7965 7964 7962 ] final  159.32 input  175.53 | X-H torsion
[ 8008 7997 7996 7995 ] final  121.44 input   59.86 | X-H torsion
[ 10167 10162 10161 10158 ] final   39.96 input  -65.29 | X-H torsion
[ 10718 10713 10712 10709 ] final -160.79 input   66.30 | X-H torsion
[ 10763 10752 10751 10750 ] final   73.45 input  -60.55 | X-H torsion
[ 11005 11000 10999 10996 ] final  138.79 input  -57.11 | X-H torsion

> <Gold.Protein.ActiveResidues>
 VAL166  LYS551  ARG553  GLY616  TRP617  ASP618  TYR619  PRO620  LYS621  CYS622 
 ASP623  PHE694  ASN695  SER759  ASP760  ASP761  ALA762  ILE779  LEU786  VAL792 
 PHE793  MET794  SER795  GLU796  ALA797  LYS798  CYS799  TRP800  GLU811  SER814 

> <Gold.Protein.RotatedAtoms>
  151.2407  135.0588  159.9023 H   0  0  0  0  0  0  0  0  0  0  0  0  # atno 6907 bound_to 6896
  152.5393  134.0437  159.8089 H   0  0  0  0  0  0  0  0  0  0  0  0  # atno 6908 bound_to 6896
  151.0631  133.5479  159.2664 H   0  0  0  0  0  0  0  0  0  0  0  0  # atno 6909 bound_to 6896
  144.7797  139.7600  143.6265 H   0  0  0  0  0  0  0  0  0  0  0  0  # atno 7974 bound_to 7965
  156.2686  140.2808  156.1309 H   0  0  0  0  0  0  0  0  0  0  0  0  # atno 8008 bound_to 7997
  155.1055  140.0390  157.2727 H   0  0  0  0  0  0  0  0  0  0  0  0  # atno 8009 bound_to 7997
  154.6782  140.2603  155.6941 H   0  0  0  0  0  0  0  0  0  0  0  0  # atno 8010 bound_to 7997
  140.3789  144.2007  150.6131 H   0  0  0  0  0  0  0  0  0  0  0  0  # atno 10167 bound_to 10162
  156.5872  130.8754  151.2880 H   0  0  0  0  0  0  0  0  0  0  0  0  # atno 10718 bound_to 10713
  153.0523  135.5062  154.7896 H   0  0  0  0  0  0  0  0  0  0  0  0  # atno 10763 bound_to 10752
  154.6749  135.2959  154.9694 H   0  0  0  0  0  0  0  0  0  0  0  0  # atno 10764 bound_to 10752
  154.0500  135.6705  153.4852 H   0  0  0  0  0  0  0  0  0  0  0  0  # atno 10765 bound_to 10752
  140.0209  134.9397  157.0471 H   0  0  0  0  0  0  0  0  0  0  0  0  # atno 11005 bound_to 11000
  146.1998  139.5285  142.9751 LP  0  0  0  0  0  0  0  0  0  0  0  0  # atno 17320 bound_to 7965
  145.6085  141.0343  143.1979 LP  0  0  0  0  0  0  0  0  0  0  0  0  # atno 17321 bound_to 7965
  140.4958  143.2333  151.8751 LP  0  0  0  0  0  0  0  0  0  0  0  0  # atno 17342 bound_to 10162
  139.4797  144.5115  151.8926 LP  0  0  0  0  0  0  0  0  0  0  0  0  # atno 17343 bound_to 10162
  157.7312  130.9697  150.1871 LP  0  0  0  0  0  0  0  0  0  0  0  0  # atno 17370 bound_to 10713
  156.2581  130.3708  149.8160 LP  0  0  0  0  0  0  0  0  0  0  0  0  # atno 17371 bound_to 10713
  140.4390  134.1701  155.7172 LP  0  0  0  0  0  0  0  0  0  0  0  0  # atno 17394 bound_to 11000
  141.1773  133.8488  157.1379 LP  0  0  0  0  0  0  0  0  0  0  0  0  # atno 17395 bound_to 11000

$$$$
