AV-unprocessed.smi:99|AV-procd|sdf|893|dock9
  -GOLD-   2262017383D 1   1.00000     0.00000
 Structure written by MMmdl.
 52 55  0  0  0  0  0  0  0  0  2 V2000
  146.8110  132.0947  159.1996 O   0  0  0  0  0  0  0  0  0  0  0  0
  147.3178  133.2185  159.1810 C   0  0  0  0  0  0  0  0  0  0  0  0
  148.0297  133.6979  158.1420 O   0  0  0  0  0  0  0  0  0  0  0  0
  148.3940  132.8359  157.0766 C   0  0  0  0  0  0  0  0  0  0  0  0
  149.4343  133.5385  156.1869 C   0  0  2  0  0  0  0  0  0  0  0  0
  150.0463  134.5783  156.9509 O   0  0  0  0  0  0  0  0  0  0  0  0
  149.5519  135.8413  156.5933 C   0  0  1  0  0  0  0  0  0  0  0  0
  150.6796  136.6761  156.0255 N   0  0  0  0  0  0  0  0  0  0  0  0
  150.6297  137.1561  154.7272 C   0  0  0  0  0  0  0  0  0  0  0  0
  151.6241  137.9129  154.2194 C   0  0  0  0  0  0  0  0  0  0  0  0
  152.7768  138.2360  155.0546 C   0  0  0  0  0  0  0  0  0  0  0  0
  153.6840  138.9164  154.5797 O   0  0  0  0  0  0  0  0  0  0  0  0
  152.7941  137.7661  156.3351 N   0  5  0  0  0  0  0  0  0  0  0  0
  151.7861  137.0067  156.8545 C   0  0  0  0  0  0  0  0  0  0  0  0
  151.7823  136.5966  158.0153 O   0  0  0  0  0  0  0  0  0  0  0  0
  148.4618  135.6420  155.5319 C   0  0  2  0  0  0  0  0  0  0  0  0
  147.1786  135.6622  156.1285 O   0  0  0  0  0  0  0  0  0  0  0  0
  148.8446  134.2755  154.9829 C   0  0  2  0  0  0  0  0  0  0  0  0
  147.7822  133.5948  154.3246 O   0  0  0  0  0  0  0  0  0  0  0  0
  147.9432  132.3360  153.8645 C   0  0  0  0  0  0  0  0  0  0  0  0
  148.7005  131.5102  154.3779 O   0  0  0  0  0  0  0  0  0  0  0  0
  147.1046  132.0500  152.6651 C   0  0  0  0  0  0  0  0  0  0  0  0
  146.9305  133.0545  151.6847 C   0  0  0  0  0  0  0  0  0  0  0  0
  146.1463  132.8116  150.5404 C   0  0  0  0  0  0  0  0  0  0  0  0
  145.5265  131.5609  150.3628 C   0  0  0  0  0  0  0  0  0  0  0  0
  145.6907  130.5539  151.3316 C   0  0  0  0  0  0  0  0  0  0  0  0
  146.4744  130.7950  152.4766 C   0  0  0  0  0  0  0  0  0  0  0  0
  147.2032  134.1904  160.3067 C   0  0  0  0  0  0  0  0  0  0  0  0
  147.5258  135.5497  160.0841 C   0  0  0  0  0  0  0  0  0  0  0  0
  147.4296  136.4906  161.1278 C   0  0  0  0  0  0  0  0  0  0  0  0
  147.0076  136.0842  162.4068 C   0  0  0  0  0  0  0  0  0  0  0  0
  146.6824  134.7355  162.6410 C   0  0  0  0  0  0  0  0  0  0  0  0
  146.7794  133.7927  161.5988 C   0  0  0  0  0  0  0  0  0  0  0  0
  148.8146  131.9239  157.5019 H   0  0  0  0  0  0  0  0  0  0  0  0
  147.5141  132.5539  156.4975 H   0  0  0  0  0  0  0  0  0  0  0  0
  150.1817  132.8172  155.8549 H   0  0  0  0  0  0  0  0  0  0  0  0
  149.2174  136.3632  157.4916 H   0  0  0  0  0  0  0  0  0  0  0  0
  149.7810  136.9334  154.0984 H   0  0  0  0  0  0  0  0  0  0  0  0
  151.5674  138.2808  153.2056 H   0  0  0  0  0  0  0  0  0  0  0  0
  148.5013  136.4192  154.7674 H   0  0  0  0  0  0  0  0  0  0  0  0
  146.9467  134.7792  156.3714 H   0  0  0  0  0  0  0  0  0  0  0  0
  149.6645  134.4171  154.2765 H   0  0  0  0  0  0  0  0  0  0  0  0
  147.3970  134.0223  151.7997 H   0  0  0  0  0  0  0  0  0  0  0  0
  146.0211  133.5864  149.7982 H   0  0  0  0  0  0  0  0  0  0  0  0
  144.9256  131.3738  149.4851 H   0  0  0  0  0  0  0  0  0  0  0  0
  145.2151  129.5936  151.1971 H   0  0  0  0  0  0  0  0  0  0  0  0
  146.5791  130.0002  153.2006 H   0  0  0  0  0  0  0  0  0  0  0  0
  147.8524  135.8857  159.1103 H   0  0  0  0  0  0  0  0  0  0  0  0
  147.6804  137.5254  160.9464 H   0  0  0  0  0  0  0  0  0  0  0  0
  146.9332  136.8060  163.2069 H   0  0  0  0  0  0  0  0  0  0  0  0
  146.3576  134.4224  163.6224 H   0  0  0  0  0  0  0  0  0  0  0  0
  146.5221  132.7655  161.8127 H   0  0  0  0  0  0  0  0  0  0  0  0
  1  2  2  0  0  0  0
  2  3  1  0  0  0  0
  2 28  1  0  0  0  0
  3  4  1  0  0  0  0
  4  5  1  0  0  0  0
  4 34  1  0  0  0  0
  4 35  1  0  0  0  0
  5 18  1  0  0  0  0
  5  6  1  0  0  0  0
  5 36  1  0  0  0  0
  6  7  1  0  0  0  0
  7  8  1  0  0  0  0
  7 16  1  0  0  0  0
  7 37  1  0  0  0  0
  8 14  1  0  0  0  0
  8  9  1  0  0  0  0
  9 10  2  0  0  0  0
  9 38  1  0  0  0  0
 10 11  1  0  0  0  0
 10 39  1  0  0  0  0
 11 12  2  0  0  0  0
 11 13  1  0  0  0  0
 13 14  1  0  0  0  0
 14 15  2  0  0  0  0
 16 17  1  0  0  0  0
 16 18  1  0  0  0  0
 16 40  1  0  0  0  0
 17 41  1  0  0  0  0
 18 19  1  0  0  0  0
 18 42  1  0  0  0  0
 19 20  1  0  0  0  0
 20 21  2  0  0  0  0
 20 22  1  0  0  0  0
 22 27  1  0  0  0  0
 22 23  2  0  0  0  0
 23 24  1  0  0  0  0
 23 43  1  0  0  0  0
 24 25  2  0  0  0  0
 24 44  1  0  0  0  0
 25 26  1  0  0  0  0
 25 45  1  0  0  0  0
 26 27  2  0  0  0  0
 26 46  1  0  0  0  0
 27 47  1  0  0  0  0
 28 33  1  0  0  0  0
 28 29  2  0  0  0  0
 29 30  1  0  0  0  0
 29 48  1  0  0  0  0
 30 31  2  0  0  0  0
 30 49  1  0  0  0  0
 31 32  1  0  0  0  0
 31 50  1  0  0  0  0
 32 33  2  0  0  0  0
 32 51  1  0  0  0  0
 33 52  1  0  0  0  0
M  CHG  1  13  -1
M  END
> <s_m_source_file>
AV-unprocessed.smi

> <i_m_source_file_index>
99

> <i_lp_mmshare_version>
43012

> <i_f3d_flags>
0

> <s_epik_input>
W2NIXTFbY0hdW2NIXVtjSF1bY0hdYzFDKD1PKU9bQ0gyXVtDQEBIXTJPW0NAQEhdKG4zW2NIXVtjSF1jKD1PKVtuSF1jMz1PKVtDQEBIXShbT0hdKVtDQEhdMk9DKD1PKWM0W2NIXVtjSF1bY0hdW2NIXVtjSF00

> <s_epik_cmdline>
J2VwaWtfcHl0aG9uJywgJy1waCcsICc3LjAnLCAnLXRuJywgJzgnLCAnLW1hJywgJzIwMCcsICctbWV0YWxfYmluZGluZycsICctaW1hZScsICc8aW5maWxlLm1hZT4nLCAnLW9tYWUnLCAnPG91dGZpbGUubWFlPic=

> <r_lp_tautomer_probability>
1

> <r_epik_Ionization_Penalty>
2.89159

> <r_epik_Ionization_Penalty_Charging>
2.1077e-08

> <r_epik_Ionization_Penalty_Neutral>
2.89159

> <r_epik_State_Penalty>
2.88671

> <r_epik_Charging_Adjusted_Penalty>
2.88671

> <i_epik_Tot_Q>
-1

> <i_epik_Tot_abs_Q>
1

> <r_epik_Metal_State_Penalty>
0.0727308

> <b_epik_Metal_Only>
1

> <s_epik_Chemistry_Notes>
This compound has an ester and may undergo hydrolysis at high or low pH. This compound contains an acetal/aminal-like group ( X-CH(R)-Y where X, Y are N, S, or O) that may be acid/base labile, releasing an aldehyde.

> <s_lp_Force_Field>
OPLS_2005

> <r_lp_Energy>
46.9153

> <b_lp_Chiralities_Consistent>
1

> <s_lp_Variant>
AV-unprocessed.smi:99-29

> <Gold.Version>
5.8.1

> <Gold.Id.Protein>
6NUR|6NUR_protein|mol2

> <Gold.PLP.Fitness>
56.7260

> <Gold.PLP.PLP>
-54.2884

> <Gold.PLP.part.hbond>
-1.6279

> <Gold.PLP.part.metal>
0.0000

> <Gold.PLP.part.buried>
-7.0166

> <Gold.PLP.part.nonpolar>
-45.6436

> <Gold.PLP.part.repulsive>
0.1387

> <Gold.PLP.ligand.clash>
0.0000

> <Gold.PLP.ligand.torsion>
1.6858

> <Gold.PLP.Chemscore.Hbond>
0.9920

> <Gold.PLP.Chemscore.CHOScore>
0.9043

> <Gold.PLP.Chemscore.Metal>
0.0000

> <Gold.Chemscore.Hbonds>
donor molecule, donor type, donor heavy atom, donor atom, acceptor molecule, acceptor atom, score
      P1  H  6896  6907       L1    15  0.02
      P1  H  7997  8010       L1    12  0.99
      L1  C     9    38       P1  7948  1.00

> <Gold.PLP.Chemscore.Internal.Correction>
0.1203

> <Gold.Rescore>
     Score         DG    S(hbond)    S(metal)    S(lipo)     H(rot)  DE(clash)    DE(int)     intcor
     12.14     -18.35       2.26        0.00     113.96       3.13       0.05       6.16       ----

> <Gold.Chemscore.Fitness>
12.1373

> <Gold.Chemscore.DG>
-18.3516

> <Gold.Chemscore.ZeroCoef>
-5.4800

> <Gold.Chemscore.Hbond>
2.2643

> <Gold.Chemscore.Metal>
0.0000

> <Gold.Chemscore.Lipo>
113.9609

> <Gold.Chemscore.Internal_Hbond>
0.0000

> <Gold.Chemscore.DEClash>
0.0515

> <Gold.Chemscore.DEInternal>
6.1628

> <Gold.Chemscore.Rot>
3.1346

> <Gold.Chemscore.Internal.Correction>
   9.000000E+99

> <Gold.Chemscore.Hbonds>
donor molecule, donor type, donor heavy atom, donor atom, acceptor molecule, acceptor atom, score
      P1  H  6896  6907       L1    15  0.05
      P1  H  7997  8010       L1    12  0.82

> <Gold.Chemscore.Hbond.Weighted>
-7.5627

> <Gold.Chemscore.Metal.Weighted>
-0.0000

> <Gold.Chemscore.Lipo.Weighted>
-13.3334

> <Gold.Chemscore.Internal_Hbond.Weighted>
0.0000

> <Gold.Chemscore.DEClash.Weighted>
0.0515

> <Gold.Chemscore.DEInternal.Weighted>
6.1628

> <Gold.Chemscore.Rot.Weighted>
8.0246

> <Gold.Chemscore.Internal.Correction.Weighted>
   9.000000E+99

> <Gold.Protein.RotatedTorsions>
[ 6907 6896 6895 6894 ] final  -11.01 input  -60.11 | X-H torsion
[ 7974 7965 7964 7962 ] final   81.29 input  175.53 | X-H torsion
[ 8008 7997 7996 7995 ] final  106.58 input   59.86 | X-H torsion
[ 10167 10162 10161 10158 ] final   41.26 input  -65.29 | X-H torsion
[ 10718 10713 10712 10709 ] final -145.20 input   66.30 | X-H torsion
[ 10763 10752 10751 10750 ] final  -95.26 input  -60.55 | X-H torsion
[ 11005 11000 10999 10996 ] final   75.30 input  -57.11 | X-H torsion

> <Gold.Protein.ActiveResidues>
 VAL166  LYS551  ARG553  GLY616  TRP617  ASP618  TYR619  PRO620  LYS621  CYS622 
 ASP623  PHE694  ASN695  SER759  ASP760  ASP761  ALA762  ILE779  LEU786  VAL792 
 PHE793  MET794  SER795  GLU796  ALA797  LYS798  CYS799  TRP800  GLU811  SER814 

> <Gold.Protein.RotatedAtoms>
  151.3929  135.0959  159.9531 H   0  0  0  0  0  0  0  0  0  0  0  0  # atno 6907 bound_to 6896
  152.5074  133.8963  159.7429 H   0  0  0  0  0  0  0  0  0  0  0  0  # atno 6908 bound_to 6896
  150.9420  133.6590  159.2817 H   0  0  0  0  0  0  0  0  0  0  0  0  # atno 6909 bound_to 6896
  145.6400  139.2423  143.2036 H   0  0  0  0  0  0  0  0  0  0  0  0  # atno 7974 bound_to 7965
  156.1755  140.3110  155.9051 H   0  0  0  0  0  0  0  0  0  0  0  0  # atno 8008 bound_to 7997
  155.3497  140.0470  157.3063 H   0  0  0  0  0  0  0  0  0  0  0  0  # atno 8009 bound_to 7997
  154.5286  140.2222  155.8856 H   0  0  0  0  0  0  0  0  0  0  0  0  # atno 8010 bound_to 7997
  140.3661  144.2166  150.6135 H   0  0  0  0  0  0  0  0  0  0  0  0  # atno 10167 bound_to 10162
  156.3796  130.7830  151.2020 H   0  0  0  0  0  0  0  0  0  0  0  0  # atno 10718 bound_to 10713
  154.7132  135.5127  153.8697 H   0  0  0  0  0  0  0  0  0  0  0  0  # atno 10763 bound_to 10752
  153.0798  135.6627  154.0078 H   0  0  0  0  0  0  0  0  0  0  0  0  # atno 10764 bound_to 10752
  153.9916  135.3019  155.3391 H   0  0  0  0  0  0  0  0  0  0  0  0  # atno 10765 bound_to 10752
  139.9350  134.7506  156.1254 H   0  0  0  0  0  0  0  0  0  0  0  0  # atno 11005 bound_to 11000
  146.1288  140.7213  142.9422 LP  0  0  0  0  0  0  0  0  0  0  0  0  # atno 17320 bound_to 7965
  144.7161  140.4213  143.7043 LP  0  0  0  0  0  0  0  0  0  0  0  0  # atno 17321 bound_to 7965
  140.5079  143.2299  151.8579 LP  0  0  0  0  0  0  0  0  0  0  0  0  # atno 17342 bound_to 10162
  139.4808  144.4983  151.9094 LP  0  0  0  0  0  0  0  0  0  0  0  0  # atno 17343 bound_to 10162
  157.7491  131.0348  150.4334 LP  0  0  0  0  0  0  0  0  0  0  0  0  # atno 17370 bound_to 10713
  156.4576  130.4025  149.6597 LP  0  0  0  0  0  0  0  0  0  0  0  0  # atno 17371 bound_to 10713
  141.0959  133.6696  156.2644 LP  0  0  0  0  0  0  0  0  0  0  0  0  # atno 17394 bound_to 11000
  140.6099  134.5469  157.5532 LP  0  0  0  0  0  0  0  0  0  0  0  0  # atno 17395 bound_to 11000

$$$$
