AV-unprocessed.smi:192|AV-procd|sdf|1495|dock7
  -GOLD-   2262019323D 1   1.00000     0.00000
 Structure written by MMmdl.
 58 60  0  0  0  0  0  0  0  0  1 V2000
  146.8116  142.0484  154.5308 C   0  0  0  0  0  0  0  0  0  0  0  0
  148.2147  141.4406  154.3890 C   0  0  0  0  0  0  0  0  0  0  0  0
  148.4464  140.1672  155.2364 C   0  0  0  0  0  0  0  0  0  0  0  0
  149.7058  139.4011  154.7732 C   0  0  0  0  0  0  0  0  0  0  0  0
  150.9866  139.7904  155.5266 C   0  0  0  0  0  0  0  0  0  0  0  0
  147.1979  139.2485  155.1929 C   0  0  0  0  0  0  0  0  0  0  0  0
  147.3680  137.9712  155.8880 N   0  0  0  0  0  0  0  0  0  0  0  0
  147.1510  137.9240  157.3325 C   0  0  0  0  0  0  0  0  0  0  0  0
  148.4042  137.5337  158.1369 C   0  0  0  0  0  0  0  0  0  0  0  0
  148.1561  137.3197  159.5710 C   0  0  0  0  0  0  0  0  0  0  0  0
  147.9617  137.1512  160.6990 N   0  0  0  0  0  0  0  0  0  0  0  0
  147.0300  136.8299  155.2403 C   0  0  0  0  0  0  0  0  0  0  0  0
  147.3403  135.6579  155.8493 N   0  0  0  0  0  0  0  0  0  0  0  0
  147.0589  134.4960  155.2528 C   0  0  0  0  0  0  0  0  0  0  0  0
  146.4709  134.2839  154.0742 N   0  0  0  0  0  0  0  0  0  0  0  0
  146.1347  135.4587  153.4682 C   0  0  0  0  0  0  0  0  0  0  0  0
  146.3760  136.7671  153.9753 C   0  0  0  0  0  0  0  0  0  0  0  0
  145.8947  137.7140  153.0787 N   0  0  0  0  0  0  0  0  0  0  0  0
  145.4164  137.0082  152.0916 C   0  0  0  0  0  0  0  0  0  0  0  0
  145.4949  135.6441  152.2551 N   0  0  0  0  0  0  0  0  0  0  0  0
  145.0877  134.6450  151.3116 C   0  0  0  0  0  0  0  0  0  0  0  0
  144.3359  133.3910  151.7622 C   0  0  0  0  0  0  0  0  0  0  0  0
  145.0063  132.5902  150.6224 C   0  0  0  0  0  0  0  0  0  0  0  0
  145.4995  131.1768  150.9786 C   0  0  0  0  0  0  0  0  0  0  0  0
  146.6178  131.2091  151.8412 O   0  0  0  0  0  0  0  0  0  0  0  0
  144.2489  132.5420  149.2781 C   0  0  0  0  0  0  0  0  0  0  0  0
  142.9578  131.9842  149.4092 O   0  0  0  0  0  0  0  0  0  0  0  0
  146.0986  133.6815  150.6853 C   0  0  0  0  0  0  0  0  0  0  0  0
  146.6907  142.8926  153.8518 H   0  0  0  0  0  0  0  0  0  0  0  0
  146.6224  142.4155  155.5387 H   0  0  0  0  0  0  0  0  0  0  0  0
  146.0400  141.3175  154.2874 H   0  0  0  0  0  0  0  0  0  0  0  0
  148.3559  141.2079  153.3333 H   0  0  0  0  0  0  0  0  0  0  0  0
  148.9685  142.1906  154.6311 H   0  0  0  0  0  0  0  0  0  0  0  0
  148.6237  140.4818  156.2651 H   0  0  0  0  0  0  0  0  0  0  0  0
  149.5405  138.3265  154.8599 H   0  0  0  0  0  0  0  0  0  0  0  0
  149.8861  139.5905  153.7161 H   0  0  0  0  0  0  0  0  0  0  0  0
  151.8534  139.2917  155.0926 H   0  0  0  0  0  0  0  0  0  0  0  0
  150.9453  139.5087  156.5781 H   0  0  0  0  0  0  0  0  0  0  0  0
  151.1632  140.8651  155.4732 H   0  0  0  0  0  0  0  0  0  0  0  0
  146.3532  139.7767  155.6366 H   0  0  0  0  0  0  0  0  0  0  0  0
  146.9065  139.0450  154.1655 H   0  0  0  0  0  0  0  0  0  0  0  0
  146.7931  138.8972  157.6705 H   0  0  0  0  0  0  0  0  0  0  0  0
  146.3454  137.2212  157.5467 H   0  0  0  0  0  0  0  0  0  0  0  0
  148.8707  136.6360  157.7311 H   0  0  0  0  0  0  0  0  0  0  0  0
  149.1442  138.3306  158.0634 H   0  0  0  0  0  0  0  0  0  0  0  0
  147.3482  133.6089  155.7966 H   0  0  0  0  0  0  0  0  0  0  0  0
  144.9845  137.4682  151.2146 H   0  0  0  0  0  0  0  0  0  0  0  0
  144.5271  135.1738  150.5391 H   0  0  0  0  0  0  0  0  0  0  0  0
  144.6437  133.0518  152.7532 H   0  0  0  0  0  0  0  0  0  0  0  0
  143.2502  133.4690  151.6981 H   0  0  0  0  0  0  0  0  0  0  0  0
  144.7098  130.5870  151.4452 H   0  0  0  0  0  0  0  0  0  0  0  0
  145.7978  130.6324  150.0822 H   0  0  0  0  0  0  0  0  0  0  0  0
  147.3607  130.8446  151.3853 H   0  0  0  0  0  0  0  0  0  0  0  0
  144.1299  133.5406  148.8573 H   0  0  0  0  0  0  0  0  0  0  0  0
  144.8032  131.9676  148.5353 H   0  0  0  0  0  0  0  0  0  0  0  0
  142.3496  132.6781  149.6123 H   0  0  0  0  0  0  0  0  0  0  0  0
  146.4862  134.0018  149.7175 H   0  0  0  0  0  0  0  0  0  0  0  0
  146.9149  133.4382  151.3682 H   0  0  0  0  0  0  0  0  0  0  0  0
  1  2  1  0  0  0  0
  1 29  1  0  0  0  0
  1 30  1  0  0  0  0
  1 31  1  0  0  0  0
  2  3  1  0  0  0  0
  2 32  1  0  0  0  0
  2 33  1  0  0  0  0
  3  4  1  0  0  0  0
  3  6  1  0  0  0  0
  3 34  1  0  0  0  0
  4  5  1  0  0  0  0
  4 35  1  0  0  0  0
  4 36  1  0  0  0  0
  5 37  1  0  0  0  0
  5 38  1  0  0  0  0
  5 39  1  0  0  0  0
  6  7  1  0  0  0  0
  6 40  1  0  0  0  0
  6 41  1  0  0  0  0
  7  8  1  0  0  0  0
  7 12  1  0  0  0  0
  8  9  1  0  0  0  0
  8 42  1  0  0  0  0
  8 43  1  0  0  0  0
  9 10  1  0  0  0  0
  9 44  1  0  0  0  0
  9 45  1  0  0  0  0
 10 11  3  0  0  0  0
 12 17  1  0  0  0  0
 12 13  2  0  0  0  0
 13 14  1  0  0  0  0
 14 15  2  0  0  0  0
 14 46  1  0  0  0  0
 15 16  1  0  0  0  0
 16 20  1  0  0  0  0
 16 17  2  0  0  0  0
 17 18  1  0  0  0  0
 18 19  2  0  0  0  0
 19 20  1  0  0  0  0
 19 47  1  0  0  0  0
 20 21  1  0  0  0  0
 21 28  1  0  0  0  0
 21 22  1  0  0  0  0
 21 48  1  0  0  0  0
 22 23  1  0  0  0  0
 22 49  1  0  0  0  0
 22 50  1  0  0  0  0
 23 24  1  0  0  0  0
 23 26  1  0  0  0  0
 23 28  1  0  0  0  0
 24 25  1  0  0  0  0
 24 51  1  0  0  0  0
 24 52  1  0  0  0  0
 25 53  1  0  0  0  0
 26 27  1  0  0  0  0
 26 54  1  0  0  0  0
 26 55  1  0  0  0  0
 27 56  1  0  0  0  0
 28 57  1  0  0  0  0
 28 58  1  0  0  0  0
M  END
> <s_m_source_file>
AV-unprocessed.smi

> <i_m_source_file_index>
192

> <i_lp_mmshare_version>
43012

> <i_f3d_flags>
0

> <s_epik_input>
W0NIM11bQ0gyXVtDSF0oW0NIMl1bQ0gzXSlbQ0gyXU4oW0NIMl1bQ0gyXUMjTiljKG5bY0hdbjEpYyhjMTIpbltjSF1uMltDSF0oW0NIMl0zKVtDSDJdQzMoW0NIMl1bT0hdKVtDSDJdW09IXQ==

> <s_epik_cmdline>
J2VwaWtfcHl0aG9uJywgJy1waCcsICc3LjAnLCAnLXRuJywgJzgnLCAnLW1hJywgJzIwMCcsICctbWV0YWxfYmluZGluZycsICctaW1hZScsICc8aW5maWxlLm1hZT4nLCAnLW9tYWUnLCAnPG91dGZpbGUubWFlPic=

> <r_lp_tautomer_probability>
1

> <r_epik_Ionization_Penalty>
0.000545077

> <r_epik_Ionization_Penalty_Charging>
0

> <r_epik_Ionization_Penalty_Neutral>
0.000545077

> <r_epik_State_Penalty>
0.000259443

> <r_epik_Charging_Adjusted_Penalty>
0.000259443

> <i_epik_Tot_Q>
0

> <i_epik_Tot_abs_Q>
0

> <r_epik_Metal_State_Penalty>
-0

> <b_epik_Metal_Only>
0

> <s_lp_Force_Field>
OPLS_2005

> <r_lp_Energy>
36.5324

> <b_lp_Chiralities_Consistent>
1

> <s_lp_Variant>
AV-unprocessed.smi:192-1

> <Gold.Version>
5.8.1

> <Gold.Id.Protein>
6NUR|6NUR_protein|mol2

> <Gold.PLP.Fitness>
57.1952

> <Gold.PLP.PLP>
-43.2296

> <Gold.PLP.part.hbond>
-6.0000

> <Gold.PLP.part.metal>
0.0000

> <Gold.PLP.part.buried>
-1.8608

> <Gold.PLP.part.nonpolar>
-33.7040

> <Gold.PLP.part.repulsive>
0.3703

> <Gold.PLP.ligand.clash>
0.0000

> <Gold.PLP.ligand.torsion>
2.1284

> <Gold.PLP.Chemscore.Hbond>
4.3905

> <Gold.PLP.Chemscore.CHOScore>
1.0000

> <Gold.PLP.Chemscore.Metal>
0.0000

> <Gold.Chemscore.Hbonds>
donor molecule, donor type, donor heavy atom, donor atom, acceptor molecule, acceptor atom, score
      L1  H    25    53       P1 10747  1.00
      L1  H    27    56       P1 10186  0.60
      P1  H  6931  6943       L1    11  0.85
      P1  H  6934  6947       L1    11  0.47
      P1  H 10785 10796       L1    27  1.00
      L1  C    19    47       P1 10171  1.00

> <Gold.PLP.Chemscore.Internal.Correction>
2.0509

> <Gold.Rescore>
     Score         DG    S(hbond)    S(metal)    S(lipo)     H(rot)  DE(clash)    DE(int)     intcor
     11.05     -15.76       3.44        0.00      82.99       4.27       1.64       3.07       ----

> <Gold.Chemscore.Fitness>
11.0472

> <Gold.Chemscore.DG>
-15.7576

> <Gold.Chemscore.ZeroCoef>
-5.4800

> <Gold.Chemscore.Hbond>
3.4400

> <Gold.Chemscore.Metal>
0.0000

> <Gold.Chemscore.Lipo>
82.9896

> <Gold.Chemscore.Internal_Hbond>
0.0000

> <Gold.Chemscore.DEClash>
1.6379

> <Gold.Chemscore.DEInternal>
3.0726

> <Gold.Chemscore.Rot>
4.2663

> <Gold.Chemscore.Internal.Correction>
   9.000000E+99

> <Gold.Chemscore.Hbonds>
donor molecule, donor type, donor heavy atom, donor atom, acceptor molecule, acceptor atom, score
      L1  H    25    53       P1 10747  0.98
      L1  H    27    56       P1 10186  0.58
      P1  H  6931  6943       L1    11  0.75
      P1  H  6934  6947       L1    11  0.03
      P1  H 10785 10796       L1    27  0.39

> <Gold.Chemscore.Hbond.Weighted>
-11.4897

> <Gold.Chemscore.Metal.Weighted>
-0.0000

> <Gold.Chemscore.Lipo.Weighted>
-9.7098

> <Gold.Chemscore.Internal_Hbond.Weighted>
0.0000

> <Gold.Chemscore.DEClash.Weighted>
1.6379

> <Gold.Chemscore.DEInternal.Weighted>
3.0726

> <Gold.Chemscore.Rot.Weighted>
10.9218

> <Gold.Chemscore.Internal.Correction.Weighted>
   9.000000E+99

> <Gold.Protein.RotatedTorsions>
[ 6907 6896 6895 6894 ] final -145.52 input  -60.11 | X-H torsion
[ 7974 7965 7964 7962 ] final -174.08 input  175.53 | X-H torsion
[ 8008 7997 7996 7995 ] final   -5.35 input   59.86 | X-H torsion
[ 10167 10162 10161 10158 ] final  166.16 input  -65.29 | X-H torsion
[ 10718 10713 10712 10709 ] final   76.97 input   66.30 | X-H torsion
[ 10763 10752 10751 10750 ] final   27.84 input  -60.55 | X-H torsion
[ 11005 11000 10999 10996 ] final   33.31 input  -57.11 | X-H torsion

> <Gold.Protein.ActiveResidues>
 VAL166  LYS551  ARG553  GLY616  TRP617  ASP618  TYR619  PRO620  LYS621  CYS622 
 ASP623  PHE694  ASN695  SER759  ASP760  ASP761  ALA762  ILE779  LEU786  VAL792 
 PHE793  MET794  SER795  GLU796  ALA797  LYS798  CYS799  TRP800  GLU811  SER814 

> <Gold.Protein.RotatedAtoms>
  151.1290  133.5050  159.2599 H   0  0  0  0  0  0  0  0  0  0  0  0  # atno 6907 bound_to 6896
  151.1779  135.0347  159.8789 H   0  0  0  0  0  0  0  0  0  0  0  0  # atno 6908 bound_to 6896
  152.5459  134.1145  159.8426 H   0  0  0  0  0  0  0  0  0  0  0  0  # atno 6909 bound_to 6896
  144.7134  140.1526  143.6383 H   0  0  0  0  0  0  0  0  0  0  0  0  # atno 7974 bound_to 7965
  154.6048  140.2461  155.7745 H   0  0  0  0  0  0  0  0  0  0  0  0  # atno 8008 bound_to 7997
  156.2334  140.2958  156.0199 H   0  0  0  0  0  0  0  0  0  0  0  0  # atno 8009 bound_to 7997
  155.2150  140.0398  157.2930 H   0  0  0  0  0  0  0  0  0  0  0  0  # atno 8010 bound_to 7997
  139.4919  144.4057  151.9358 H   0  0  0  0  0  0  0  0  0  0  0  0  # atno 10167 bound_to 10162
  157.6693  130.9799  150.1574 H   0  0  0  0  0  0  0  0  0  0  0  0  # atno 10718 bound_to 10713
  153.0529  135.6527  154.0648 H   0  0  0  0  0  0  0  0  0  0  0  0  # atno 10763 bound_to 10752
  154.0332  135.2910  155.3367 H   0  0  0  0  0  0  0  0  0  0  0  0  # atno 10764 bound_to 10752
  154.6829  135.5313  153.8353 H   0  0  0  0  0  0  0  0  0  0  0  0  # atno 10765 bound_to 10752
  140.2644  134.3155  155.7847 H   0  0  0  0  0  0  0  0  0  0  0  0  # atno 11005 bound_to 11000
  145.9103  139.2483  143.1442 LP  0  0  0  0  0  0  0  0  0  0  0  0  # atno 17320 bound_to 7965
  145.9723  140.8750  143.0156 LP  0  0  0  0  0  0  0  0  0  0  0  0  # atno 17321 bound_to 7965
  140.3497  144.3104  150.5951 LP  0  0  0  0  0  0  0  0  0  0  0  0  # atno 17342 bound_to 10162
  140.5496  143.2209  151.7950 LP  0  0  0  0  0  0  0  0  0  0  0  0  # atno 17343 bound_to 10162
  156.2358  130.3686  149.8392 LP  0  0  0  0  0  0  0  0  0  0  0  0  # atno 17370 bound_to 10713
  156.6206  130.8625  151.3474 LP  0  0  0  0  0  0  0  0  0  0  0  0  # atno 17371 bound_to 10713
  141.2186  133.7429  156.9237 LP  0  0  0  0  0  0  0  0  0  0  0  0  # atno 17394 bound_to 11000
  140.1433  134.9279  157.2496 LP  0  0  0  0  0  0  0  0  0  0  0  0  # atno 17395 bound_to 11000

$$$$
