AV-unprocessed.smi:2906|AV-procd|sdf|11163|dock5
  -GOLD-   2272016 53D 1   1.00000     0.00000
 Structure written by MMmdl.
 40 41  0  0  0  0  0  0  0  0  1 V2000
  145.5609  129.5755  151.6523 C   0  0  0  0  0  0  0  0  0  0  0  0
  145.8715  131.0696  151.8369 C   0  0  0  0  0  0  0  0  0  0  0  0
  144.8769  132.0018  151.1243 C   0  0  0  0  0  0  0  0  0  0  0  0
  144.0404  131.5311  150.3519 O   0  0  0  0  0  0  0  0  0  0  0  0
  144.9553  133.3259  151.3720 N   0  0  0  0  0  0  0  0  0  0  0  0
  144.0803  134.3157  150.7496 C   0  0  0  0  0  0  0  0  0  0  0  0
  144.6630  135.6811  151.1145 C   0  0  0  0  0  0  0  0  0  0  0  0
  145.4553  135.4323  152.3950 C   0  0  2  0  0  0  0  0  0  0  0  0
  146.5847  136.3484  152.5174 N   0  0  0  0  0  0  0  0  0  0  0  0
  146.5575  137.5088  153.1881 C   0  0  0  0  0  0  0  0  0  0  0  0
  145.5619  137.9244  153.7820 O   0  0  0  0  0  0  0  0  0  0  0  0
  147.7439  138.1379  153.1227 N   0  0  0  0  0  0  0  0  0  0  0  0
  148.1118  139.3785  153.7062 C   0  0  0  0  0  0  0  0  0  0  0  0
  149.1888  139.5580  154.4788 N   0  0  0  0  0  0  0  0  0  0  0  0
  149.3122  140.8804  154.9163 C   0  0  0  0  0  0  0  0  0  0  0  0
  150.4644  141.2728  155.7902 C   0  0  0  0  0  0  0  0  0  0  0  0
  150.0135  141.6987  157.1919 C   0  0  0  0  0  0  0  0  0  0  0  0
  148.3069  141.6984  154.4606 C   0  0  0  0  0  0  0  0  0  0  0  0
  147.1656  140.8385  153.4618 S   0  0  0  0  0  0  0  0  0  0  0  0
  145.9021  133.9680  152.2815 C   0  0  0  0  0  0  0  0  0  0  0  0
  146.3025  128.9627  152.1649 H   0  0  0  0  0  0  0  0  0  0  0  0
  145.5726  129.2933  150.5989 H   0  0  0  0  0  0  0  0  0  0  0  0
  144.5833  129.3175  152.0615 H   0  0  0  0  0  0  0  0  0  0  0  0
  145.8738  131.3059  152.9014 H   0  0  0  0  0  0  0  0  0  0  0  0
  146.8766  131.2694  151.4637 H   0  0  0  0  0  0  0  0  0  0  0  0
  144.0188  134.1869  149.6677 H   0  0  0  0  0  0  0  0  0  0  0  0
  143.0757  134.2073  151.1611 H   0  0  0  0  0  0  0  0  0  0  0  0
  145.3311  136.0059  150.3153 H   0  0  0  0  0  0  0  0  0  0  0  0
  143.8962  136.4468  151.2355 H   0  0  0  0  0  0  0  0  0  0  0  0
  144.7835  135.5410  153.2487 H   0  0  0  0  0  0  0  0  0  0  0  0
  147.4427  136.0801  152.0583 H   0  0  0  0  0  0  0  0  0  0  0  0
  148.4693  137.6756  152.5949 H   0  0  0  0  0  0  0  0  0  0  0  0
  151.1672  140.4435  155.8771 H   0  0  0  0  0  0  0  0  0  0  0  0
  151.0213  142.0889  155.3286 H   0  0  0  0  0  0  0  0  0  0  0  0
  150.8692  141.9754  157.8080 H   0  0  0  0  0  0  0  0  0  0  0  0
  149.4859  140.8898  157.6978 H   0  0  0  0  0  0  0  0  0  0  0  0
  149.3446  142.5586  157.1467 H   0  0  0  0  0  0  0  0  0  0  0  0
  148.1703  142.7528  154.6499 H   0  0  0  0  0  0  0  0  0  0  0  0
  145.9192  133.4912  153.2626 H   0  0  0  0  0  0  0  0  0  0  0  0
  146.9026  133.8939  151.8515 H   0  0  0  0  0  0  0  0  0  0  0  0
  1  2  1  0  0  0  0
  1 21  1  0  0  0  0
  1 22  1  0  0  0  0
  1 23  1  0  0  0  0
  2  3  1  0  0  0  0
  2 24  1  0  0  0  0
  2 25  1  0  0  0  0
  3  4  2  0  0  0  0
  3  5  1  0  0  0  0
  5 20  1  0  0  0  0
  5  6  1  0  0  0  0
  6  7  1  0  0  0  0
  6 26  1  0  0  0  0
  6 27  1  0  0  0  0
  7  8  1  0  0  0  0
  7 28  1  0  0  0  0
  7 29  1  0  0  0  0
  8  9  1  0  0  0  0
  8 20  1  0  0  0  0
  8 30  1  0  0  0  0
  9 10  1  0  0  0  0
  9 31  1  0  0  0  0
 10 11  2  0  0  0  0
 10 12  1  0  0  0  0
 12 13  1  0  0  0  0
 12 32  1  0  0  0  0
 13 19  1  0  0  0  0
 13 14  2  0  0  0  0
 14 15  1  0  0  0  0
 15 16  1  0  0  0  0
 15 18  2  0  0  0  0
 16 17  1  0  0  0  0
 16 33  1  0  0  0  0
 16 34  1  0  0  0  0
 17 35  1  0  0  0  0
 17 36  1  0  0  0  0
 17 37  1  0  0  0  0
 18 19  1  0  0  0  0
 18 38  1  0  0  0  0
 20 39  1  0  0  0  0
 20 40  1  0  0  0  0
M  END
> <s_m_source_file>
AV-unprocessed.smi

> <i_m_source_file_index>
2906

> <i_lp_mmshare_version>
43012

> <i_f3d_flags>
0

> <s_epik_input>
W0NIM11bQ0gyXUMoPU8pTjFbQ0gyXVtDSDJdW0NASF0oW0NIMl0xKVtOSF1DKD1PKVtOSF1jMm5jKFtjSF1zMilbQ0gyXVtDSDNd

> <s_epik_cmdline>
J2VwaWtfcHl0aG9uJywgJy1waCcsICc3LjAnLCAnLXRuJywgJzgnLCAnLW1hJywgJzIwMCcsICctbWV0YWxfYmluZGluZycsICctaW1hZScsICc8aW5maWxlLm1hZT4nLCAnLW9tYWUnLCAnPG91dGZpbGUubWFlPic=

> <r_lp_tautomer_probability>
1

> <r_epik_Ionization_Penalty>
0.000174744

> <r_epik_Ionization_Penalty_Charging>
0

> <r_epik_Ionization_Penalty_Neutral>
0.000174744

> <r_epik_State_Penalty>
-0

> <r_epik_Charging_Adjusted_Penalty>
0

> <i_epik_Tot_Q>
0

> <i_epik_Tot_abs_Q>
0

> <r_epik_Metal_State_Penalty>
0.0273865

> <b_epik_Metal_Only>
0

> <s_lp_Force_Field>
OPLS_2005

> <r_lp_Energy>
21.1229

> <b_lp_Chiralities_Consistent>
1

> <s_lp_Variant>
AV-unprocessed.smi:2906-2

> <Gold.Version>
5.8.1

> <Gold.Id.Protein>
6NUR|6NUR_protein|mol2

> <Gold.PLP.Fitness>
43.0534

> <Gold.PLP.PLP>
-35.2374

> <Gold.PLP.part.hbond>
-3.0310

> <Gold.PLP.part.metal>
0.0000

> <Gold.PLP.part.buried>
-2.7109

> <Gold.PLP.part.nonpolar>
-29.8885

> <Gold.PLP.part.repulsive>
0.5278

> <Gold.PLP.ligand.clash>
0.0000

> <Gold.PLP.ligand.torsion>
0.9397

> <Gold.PLP.Chemscore.Hbond>
2.2279

> <Gold.PLP.Chemscore.CHOScore>
1.0000

> <Gold.PLP.Chemscore.Metal>
0.0000

> <Gold.Chemscore.Hbonds>
donor molecule, donor type, donor heavy atom, donor atom, acceptor molecule, acceptor atom, score
      L1  H     9    31       P1  7948  0.94
      L1  H    12    32       P1  7948  0.94
      P1  H 10785 10796       L1     4  0.27
      L1  C    18    38       P1  8028  1.00

> <Gold.PLP.Chemscore.Internal.Correction>
0.0115

> <Gold.Rescore>
     Score         DG    S(hbond)    S(metal)    S(lipo)     H(rot)  DE(clash)    DE(int)     intcor
     17.70     -18.57       2.49        0.00      71.78       1.41       0.06       0.81       ----

> <Gold.Chemscore.Fitness>
17.7040

> <Gold.Chemscore.DG>
-18.5677

> <Gold.Chemscore.ZeroCoef>
-5.4800

> <Gold.Chemscore.Hbond>
2.4851

> <Gold.Chemscore.Metal>
0.0000

> <Gold.Chemscore.Lipo>
71.7751

> <Gold.Chemscore.Internal_Hbond>
0.0000

> <Gold.Chemscore.DEClash>
0.0581

> <Gold.Chemscore.DEInternal>
0.8056

> <Gold.Chemscore.Rot>
1.4102

> <Gold.Chemscore.Internal.Correction>
   9.000000E+99

> <Gold.Chemscore.Hbonds>
donor molecule, donor type, donor heavy atom, donor atom, acceptor molecule, acceptor atom, score
      L1  H     9    31       P1  7948  0.87
      L1  H    12    32       P1  7948  0.91
      P1  H 10785 10796       L1     4  0.27

> <Gold.Chemscore.Hbond.Weighted>
-8.3001

> <Gold.Chemscore.Metal.Weighted>
-0.0000

> <Gold.Chemscore.Lipo.Weighted>
-8.3977

> <Gold.Chemscore.Internal_Hbond.Weighted>
0.0000

> <Gold.Chemscore.DEClash.Weighted>
0.0581

> <Gold.Chemscore.DEInternal.Weighted>
0.8056

> <Gold.Chemscore.Rot.Weighted>
3.6101

> <Gold.Chemscore.Internal.Correction.Weighted>
   9.000000E+99

> <Gold.Protein.RotatedTorsions>
[ 6907 6896 6895 6894 ] final   84.23 input  -60.11 | X-H torsion
[ 7974 7965 7964 7962 ] final -146.02 input  175.53 | X-H torsion
[ 8008 7997 7996 7995 ] final  143.18 input   59.86 | X-H torsion
[ 10167 10162 10161 10158 ] final  171.30 input  -65.29 | X-H torsion
[ 10718 10713 10712 10709 ] final   75.78 input   66.30 | X-H torsion
[ 10763 10752 10751 10750 ] final -129.74 input  -60.55 | X-H torsion
[ 11005 11000 10999 10996 ] final   59.71 input  -57.11 | X-H torsion

> <Gold.Protein.ActiveResidues>
 VAL166  LYS551  ARG553  GLY616  TRP617  ASP618  TYR619  PRO620  LYS621  CYS622 
 ASP623  PHE694  ASN695  SER759  ASP760  ASP761  ALA762  ILE779  LEU786  VAL792 
 PHE793  MET794  SER795  GLU796  ALA797  LYS798  CYS799  TRP800  GLU811  SER814 

> <Gold.Protein.RotatedAtoms>
  152.5347  134.2772  159.8993 H   0  0  0  0  0  0  0  0  0  0  0  0  # atno 6907 bound_to 6896
  151.2727  133.4241  159.2630 H   0  0  0  0  0  0  0  0  0  0  0  0  # atno 6908 bound_to 6896
  151.0353  134.9583  159.8189 H   0  0  0  0  0  0  0  0  0  0  0  0  # atno 6909 bound_to 6896
  144.8187  140.5509  143.5593 H   0  0  0  0  0  0  0  0  0  0  0  0  # atno 7974 bound_to 7965
  156.2935  140.2269  156.4849 H   0  0  0  0  0  0  0  0  0  0  0  0  # atno 8008 bound_to 7997
  154.7821  140.0459  157.1156 H   0  0  0  0  0  0  0  0  0  0  0  0  # atno 8009 bound_to 7997
  154.9746  140.3071  155.4976 H   0  0  0  0  0  0  0  0  0  0  0  0  # atno 8010 bound_to 7997
  139.5042  144.3501  151.9931 H   0  0  0  0  0  0  0  0  0  0  0  0  # atno 10167 bound_to 10162
  157.6648  130.9743  150.1402 H   0  0  0  0  0  0  0  0  0  0  0  0  # atno 10718 bound_to 10713
  154.8757  135.3885  154.3970 H   0  0  0  0  0  0  0  0  0  0  0  0  # atno 10763 bound_to 10752
  153.4699  135.7030  153.6005 H   0  0  0  0  0  0  0  0  0  0  0  0  # atno 10764 bound_to 10752
  153.4466  135.3843  155.2228 H   0  0  0  0  0  0  0  0  0  0  0  0  # atno 10765 bound_to 10752
  140.0284  134.6048  155.9541 H   0  0  0  0  0  0  0  0  0  0  0  0  # atno 11005 bound_to 11000
  145.5154  139.1478  143.3582 LP  0  0  0  0  0  0  0  0  0  0  0  0  # atno 17320 bound_to 7965
  146.2492  140.5295  142.8901 LP  0  0  0  0  0  0  0  0  0  0  0  0  # atno 17321 bound_to 7965
  140.2938  144.3724  150.6080 LP  0  0  0  0  0  0  0  0  0  0  0  0  # atno 17342 bound_to 10162
  140.5926  143.2167  151.7224 LP  0  0  0  0  0  0  0  0  0  0  0  0  # atno 17343 bound_to 10162
  156.2227  130.3675  149.8537 LP  0  0  0  0  0  0  0  0  0  0  0  0  # atno 17370 bound_to 10713
  156.6385  130.8695  151.3509 LP  0  0  0  0  0  0  0  0  0  0  0  0  # atno 17371 bound_to 10713
  141.1816  133.6547  156.5045 LP  0  0  0  0  0  0  0  0  0  0  0  0  # atno 17394 bound_to 11000
  140.4267  134.7138  157.4920 LP  0  0  0  0  0  0  0  0  0  0  0  0  # atno 17395 bound_to 11000

$$$$
