AV-unprocessed.smi:2971|AV-procd|sdf|11334|dock2
  -GOLD-   2272016243D 1   1.00000     0.00000
 Structure written by MMmdl.
 37 39  0  0  0  0  0  0  0  0  2 V2000
  146.4723  137.7863  150.7601 O   0  0  0  0  0  0  0  0  0  0  0  0
  146.0432  137.8908  152.1036 C   0  0  2  0  0  0  0  0  0  0  0  0
  146.9892  138.8505  152.8425 C   0  0  0  0  0  0  0  0  0  0  0  0
  146.4332  139.1556  154.1148 O   0  0  0  0  0  0  0  0  0  0  0  0
  146.3066  140.4813  154.4733 C   0  0  0  0  0  0  0  0  0  0  0  0
  146.7639  141.5665  153.6825 C   0  0  0  0  0  0  0  0  0  0  0  0
  146.5948  142.8931  154.1244 C   0  0  0  0  0  0  0  0  0  0  0  0
  145.9697  143.1530  155.3577 C   0  0  0  0  0  0  0  0  0  0  0  0
  145.5134  142.0833  156.1496 C   0  0  0  0  0  0  0  0  0  0  0  0
  145.6811  140.7563  155.7084 C   0  0  0  0  0  0  0  0  0  0  0  0
  145.2367  139.7360  156.4807 F   0  0  0  0  0  0  0  0  0  0  0  0
  146.0348  136.4890  152.7455 C   0  0  0  0  0  0  0  0  0  0  0  0
  145.2194  135.5206  151.9977 N   0  0  0  0  0  0  0  0  0  0  0  0
  144.0262  135.6963  151.3678 C   0  0  0  0  0  0  0  0  0  0  0  0
  143.6673  134.5007  150.8237 N   0  3  0  0  0  0  0  0  0  0  0  0
  144.6466  133.5465  151.1073 C   0  0  0  0  0  0  0  0  0  0  0  0
  144.7295  132.1991  150.7698 C   0  0  0  0  0  0  0  0  0  0  0  0
  145.8730  131.5042  151.2153 C   0  0  0  0  0  0  0  0  0  0  0  0
  146.8786  132.1489  151.9645 C   0  0  0  0  0  0  0  0  0  0  0  0
  146.7832  133.5149  152.3026 C   0  0  0  0  0  0  0  0  0  0  0  0
  145.6488  134.1952  151.8599 C   0  0  0  0  0  0  0  0  0  0  0  0
  145.7278  137.9358  150.1970 H   0  0  0  0  0  0  0  0  0  0  0  0
  145.0289  138.2921  152.1203 H   0  0  0  0  0  0  0  0  0  0  0  0
  147.9504  138.3576  152.9975 H   0  0  0  0  0  0  0  0  0  0  0  0
  147.1674  139.7514  152.2526 H   0  0  0  0  0  0  0  0  0  0  0  0
  147.2492  141.4087  152.7316 H   0  0  0  0  0  0  0  0  0  0  0  0
  146.9462  143.7127  153.5152 H   0  0  0  0  0  0  0  0  0  0  0  0
  145.8407  144.1708  155.6958 H   0  0  0  0  0  0  0  0  0  0  0  0
  145.0337  142.2801  157.0971 H   0  0  0  0  0  0  0  0  0  0  0  0
  147.0463  136.0985  152.8613 H   0  0  0  0  0  0  0  0  0  0  0  0
  145.6145  136.5456  153.7503 H   0  0  0  0  0  0  0  0  0  0  0  0
  143.4645  136.6175  151.3115 H   0  0  0  0  0  0  0  0  0  0  0  0
  143.9614  131.7032  150.1945 H   0  0  0  0  0  0  0  0  0  0  0  0
  145.9821  130.4562  150.9762 H   0  0  0  0  0  0  0  0  0  0  0  0
  147.7424  131.5852  152.2857 H   0  0  0  0  0  0  0  0  0  0  0  0
  147.5628  133.9996  152.8713 H   0  0  0  0  0  0  0  0  0  0  0  0
  142.8162  134.3502  150.2976 H   0  0  0  0  0  0  0  0  0  0  0  0
  1  2  1  0  0  0  0
  1 22  1  0  0  0  0
  2  3  1  0  0  0  0
  2 12  1  0  0  0  0
  2 23  1  0  0  0  0
  3  4  1  0  0  0  0
  3 24  1  0  0  0  0
  3 25  1  0  0  0  0
  4  5  1  0  0  0  0
  5 10  1  0  0  0  0
  5  6  2  0  0  0  0
  6  7  1  0  0  0  0
  6 26  1  0  0  0  0
  7  8  2  0  0  0  0
  7 27  1  0  0  0  0
  8  9  1  0  0  0  0
  8 28  1  0  0  0  0
  9 10  2  0  0  0  0
  9 29  1  0  0  0  0
 10 11  1  0  0  0  0
 12 13  1  0  0  0  0
 12 30  1  0  0  0  0
 12 31  1  0  0  0  0
 13 21  1  0  0  0  0
 13 14  1  0  0  0  0
 14 15  2  0  0  0  0
 14 32  1  0  0  0  0
 15 16  1  0  0  0  0
 15 37  1  0  0  0  0
 16 21  2  0  0  0  0
 16 17  1  0  0  0  0
 17 18  2  0  0  0  0
 17 33  1  0  0  0  0
 18 19  1  0  0  0  0
 18 34  1  0  0  0  0
 19 20  2  0  0  0  0
 19 35  1  0  0  0  0
 20 21  1  0  0  0  0
 20 36  1  0  0  0  0
M  CHG  1  15   1
M  END
> <s_m_source_file>
AV-unprocessed.smi

> <i_m_source_file_index>
2971

> <i_lp_mmshare_version>
43012

> <i_f3d_flags>
0

> <s_epik_input>
W2NIXTFbY0hdW2NIXVtjSF1jKGMxMiluKFtjSF1uMilbQ0gyXVtDQEhdKFtPSF0pW0NIMl1PYzNbY0hdW2NIXVtjSF1bY0hdYzNG

> <s_epik_cmdline>
J2VwaWtfcHl0aG9uJywgJy1waCcsICc3LjAnLCAnLXRuJywgJzgnLCAnLW1hJywgJzIwMCcsICctbWV0YWxfYmluZGluZycsICctaW1hZScsICc8aW5maWxlLm1hZT4nLCAnLW9tYWUnLCAnPG91dGZpbGUubWFlPic=

> <r_lp_tautomer_probability>
1

> <r_epik_Ionization_Penalty>
1.38569

> <r_epik_Ionization_Penalty_Charging>
1.38568

> <r_epik_Ionization_Penalty_Neutral>
2.3993e-06

> <r_epik_State_Penalty>
1.46659

> <r_epik_Charging_Adjusted_Penalty>
2.85227

> <i_epik_Tot_Q>
1

> <i_epik_Tot_abs_Q>
1

> <r_epik_Metal_State_Penalty>
5.50731

> <b_epik_Metal_Only>
0

> <s_lp_Force_Field>
OPLS_2005

> <r_lp_Energy>
22.099

> <b_lp_Chiralities_Consistent>
1

> <s_lp_Variant>
AV-unprocessed.smi:2971-3

> <Gold.Version>
5.8.1

> <Gold.Id.Protein>
6NUR|6NUR_protein|mol2

> <Gold.PLP.Fitness>
50.1523

> <Gold.PLP.PLP>
-36.6319

> <Gold.PLP.part.hbond>
-3.9621

> <Gold.PLP.part.metal>
0.0000

> <Gold.PLP.part.buried>
-4.2389

> <Gold.PLP.part.nonpolar>
-29.7830

> <Gold.PLP.part.repulsive>
0.1393

> <Gold.PLP.ligand.clash>
0.0000

> <Gold.PLP.ligand.torsion>
0.7381

> <Gold.PLP.Chemscore.Hbond>
3.9913

> <Gold.PLP.Chemscore.CHOScore>
1.0000

> <Gold.PLP.Chemscore.Metal>
0.0000

> <Gold.Chemscore.Hbonds>
donor molecule, donor type, donor heavy atom, donor atom, acceptor molecule, acceptor atom, score
      L1  H     1    22       P1 10171  1.00
      L1  H    15    37       P1 10186  2.00
      P1  H  7954  7966       L1     1  1.00
      L1  C    14    32       P1 10171  0.97

> <Gold.PLP.Chemscore.Internal.Correction>
0.0229

> <Gold.Rescore>
     Score         DG    S(hbond)    S(metal)    S(lipo)     H(rot)  DE(clash)    DE(int)     intcor
     16.93     -17.94       2.63        0.00      85.14       2.46       0.27       0.74       ----

> <Gold.Chemscore.Fitness>
16.9260

> <Gold.Chemscore.DG>
-17.9406

> <Gold.Chemscore.ZeroCoef>
-5.4800

> <Gold.Chemscore.Hbond>
2.6325

> <Gold.Chemscore.Metal>
0.0000

> <Gold.Chemscore.Lipo>
85.1423

> <Gold.Chemscore.Internal_Hbond>
0.0000

> <Gold.Chemscore.DEClash>
0.2713

> <Gold.Chemscore.DEInternal>
0.7433

> <Gold.Chemscore.Rot>
2.4584

> <Gold.Chemscore.Internal.Correction>
   9.000000E+99

> <Gold.Chemscore.Hbonds>
donor molecule, donor type, donor heavy atom, donor atom, acceptor molecule, acceptor atom, score
      L1  H     1    22       P1 10171  0.95
      L1  H    15    37       P1 10186  0.78
      P1  H  7954  7966       L1     1  0.86

> <Gold.Chemscore.Hbond.Weighted>
-8.7926

> <Gold.Chemscore.Metal.Weighted>
-0.0000

> <Gold.Chemscore.Lipo.Weighted>
-9.9617

> <Gold.Chemscore.Internal_Hbond.Weighted>
0.0000

> <Gold.Chemscore.DEClash.Weighted>
0.2713

> <Gold.Chemscore.DEInternal.Weighted>
0.7433

> <Gold.Chemscore.Rot.Weighted>
6.2936

> <Gold.Chemscore.Internal.Correction.Weighted>
   9.000000E+99

> <Gold.Protein.RotatedTorsions>
[ 6907 6896 6895 6894 ] final   38.72 input  -60.11 | X-H torsion
[ 7974 7965 7964 7962 ] final -156.87 input  175.53 | X-H torsion
[ 8008 7997 7996 7995 ] final  -32.74 input   59.86 | X-H torsion
[ 10167 10162 10161 10158 ] final  -32.58 input  -65.29 | X-H torsion
[ 10718 10713 10712 10709 ] final -131.07 input   66.30 | X-H torsion
[ 10763 10752 10751 10750 ] final -175.37 input  -60.55 | X-H torsion
[ 11005 11000 10999 10996 ] final  118.13 input  -57.11 | X-H torsion

> <Gold.Protein.ActiveResidues>
 VAL166  LYS551  ARG553  GLY616  TRP617  ASP618  TYR619  PRO620  LYS621  CYS622 
 ASP623  PHE694  ASN695  SER759  ASP760  ASP761  ALA762  ILE779  LEU786  VAL792 
 PHE793  MET794  SER795  GLU796  ALA797  LYS798  CYS799  TRP800  GLU811  SER814 

> <Gold.Protein.RotatedAtoms>
  152.1601  134.8919  160.0541 H   0  0  0  0  0  0  0  0  0  0  0  0  # atno 6907 bound_to 6896
  151.9918  133.3788  159.4155 H   0  0  0  0  0  0  0  0  0  0  0  0  # atno 6908 bound_to 6896
  150.6887  134.3851  159.5095 H   0  0  0  0  0  0  0  0  0  0  0  0  # atno 6909 bound_to 6896
  144.7573  140.4048  143.6002 H   0  0  0  0  0  0  0  0  0  0  0  0  # atno 7974 bound_to 7965
  154.4170  140.1729  156.1776 H   0  0  0  0  0  0  0  0  0  0  0  0  # atno 8008 bound_to 7997
  155.9709  140.3386  155.6551 H   0  0  0  0  0  0  0  0  0  0  0  0  # atno 8009 bound_to 7997
  155.6626  140.0702  157.2539 H   0  0  0  0  0  0  0  0  0  0  0  0  # atno 8010 bound_to 7997
  140.7219  143.3684  151.1825 H   0  0  0  0  0  0  0  0  0  0  0  0  # atno 10167 bound_to 10162
  156.2208  130.6977  151.0753 H   0  0  0  0  0  0  0  0  0  0  0  0  # atno 10718 bound_to 10713
  154.5852  135.2840  155.0692 H   0  0  0  0  0  0  0  0  0  0  0  0  # atno 10763 bound_to 10752
  154.2014  135.6424  153.5092 H   0  0  0  0  0  0  0  0  0  0  0  0  # atno 10764 bound_to 10752
  153.0102  135.5470  154.6519 H   0  0  0  0  0  0  0  0  0  0  0  0  # atno 10765 bound_to 10752
  139.9098  134.9617  156.7456 H   0  0  0  0  0  0  0  0  0  0  0  0  # atno 11005 bound_to 11000
  145.6735  139.1604  143.2741 LP  0  0  0  0  0  0  0  0  0  0  0  0  # atno 17320 bound_to 7965
  146.1598  140.6804  142.9283 LP  0  0  0  0  0  0  0  0  0  0  0  0  # atno 17321 bound_to 7965
  139.7251  143.9162  152.2999 LP  0  0  0  0  0  0  0  0  0  0  0  0  # atno 17342 bound_to 10162
  139.8932  144.6954  150.8747 LP  0  0  0  0  0  0  0  0  0  0  0  0  # atno 17343 bound_to 10162
  157.7086  131.0745  150.6580 LP  0  0  0  0  0  0  0  0  0  0  0  0  # atno 17370 bound_to 10713
  156.6643  130.4521  149.5677 LP  0  0  0  0  0  0  0  0  0  0  0  0  # atno 17371 bound_to 10713
  140.6814  133.9471  155.7913 LP  0  0  0  0  0  0  0  0  0  0  0  0  # atno 17394 bound_to 11000
  141.0507  134.0489  157.3787 LP  0  0  0  0  0  0  0  0  0  0  0  0  # atno 17395 bound_to 11000

$$$$
