AV-unprocessed.smi:403|AV-procd|sdf|2496|dock5
  -GOLD-   2262022443D 1   1.00000     0.00000
 Structure written by MMmdl.
 46 47  0  0  0  0  0  0  0  0  1 V2000
  152.1829  143.5322  161.0484 C   0  0  0  0  0  0  0  0  0  0  0  0
  152.4164  143.9456  159.5853 C   0  0  0  0  0  0  0  0  0  0  0  0
  151.8475  145.3499  159.3307 C   0  0  0  0  0  0  0  0  0  0  0  0
  151.8301  142.9300  158.5830 C   0  0  0  0  0  0  0  0  0  0  0  0
  152.2888  141.4763  158.8219 C   0  0  0  0  0  0  0  0  0  0  0  0
  152.1501  140.5738  157.5907 C   0  0  0  0  0  0  0  0  0  0  0  0
  152.7967  139.5303  157.4899 O   0  0  0  0  0  0  0  0  0  0  0  0
  151.2883  140.9955  156.6525 N   0  0  0  0  0  0  0  0  0  0  0  0
  150.9956  140.2900  155.4079 C   0  0  0  0  0  0  0  0  0  0  0  0
  149.5544  140.4248  154.9084 C   0  0  0  0  0  0  0  0  0  0  0  0
  149.0507  141.6699  154.4631 C   0  0  0  0  0  0  0  0  0  0  0  0
  147.7309  141.7517  153.9844 C   0  0  0  0  0  0  0  0  0  0  0  0
  146.9570  140.5785  153.9600 C   0  0  0  0  0  0  0  0  0  0  0  0
  147.4211  139.3816  154.3715 N   0  0  0  0  0  0  0  0  0  0  0  0
  148.6923  139.2976  154.8349 C   0  0  0  0  0  0  0  0  0  0  0  0
  149.1336  138.0366  155.2729 N   0  0  0  0  0  0  0  0  0  0  0  0
  148.0487  137.0706  155.3918 C   0  0  0  0  0  0  0  0  0  0  0  0
  148.5613  135.7884  156.0697 C   0  0  0  0  0  0  0  0  0  0  0  0
  149.6726  135.2726  155.3414 O   0  0  0  0  0  0  0  0  0  0  0  0
  150.7562  136.1969  155.2881 C   0  0  0  0  0  0  0  0  0  0  0  0
  150.2987  137.4878  154.5875 C   0  0  0  0  0  0  0  0  0  0  0  0
  151.1199  143.4190  161.2635 H   0  0  0  0  0  0  0  0  0  0  0  0
  152.5815  144.2804  161.7341 H   0  0  0  0  0  0  0  0  0  0  0  0
  152.6739  142.5888  161.2850 H   0  0  0  0  0  0  0  0  0  0  0  0
  153.4933  144.0001  159.4204 H   0  0  0  0  0  0  0  0  0  0  0  0
  150.7681  145.3732  159.4846 H   0  0  0  0  0  0  0  0  0  0  0  0
  152.0454  145.6776  158.3096 H   0  0  0  0  0  0  0  0  0  0  0  0
  152.2949  146.0840  160.0012 H   0  0  0  0  0  0  0  0  0  0  0  0
  150.7404  142.9844  158.6048 H   0  0  0  0  0  0  0  0  0  0  0  0
  152.1277  143.2272  157.5760 H   0  0  0  0  0  0  0  0  0  0  0  0
  153.3338  141.4690  159.1342 H   0  0  0  0  0  0  0  0  0  0  0  0
  151.7143  141.0280  159.6325 H   0  0  0  0  0  0  0  0  0  0  0  0
  150.7983  141.8638  156.8115 H   0  0  0  0  0  0  0  0  0  0  0  0
  151.6564  140.6840  154.6360 H   0  0  0  0  0  0  0  0  0  0  0  0
  151.2658  139.2405  155.5291 H   0  0  0  0  0  0  0  0  0  0  0  0
  149.6602  142.5609  154.4778 H   0  0  0  0  0  0  0  0  0  0  0  0
  147.3228  142.6908  153.6414 H   0  0  0  0  0  0  0  0  0  0  0  0
  145.9393  140.6008  153.5989 H   0  0  0  0  0  0  0  0  0  0  0  0
  147.2228  137.4935  155.9650 H   0  0  0  0  0  0  0  0  0  0  0  0
  147.6622  136.8384  154.3984 H   0  0  0  0  0  0  0  0  0  0  0  0
  148.8502  135.9852  157.1036 H   0  0  0  0  0  0  0  0  0  0  0  0
  147.7731  135.0359  156.0962 H   0  0  0  0  0  0  0  0  0  0  0  0
  151.1178  136.4075  156.2958 H   0  0  0  0  0  0  0  0  0  0  0  0
  151.5828  135.7444  154.7402 H   0  0  0  0  0  0  0  0  0  0  0  0
  150.0523  137.2712  153.5470 H   0  0  0  0  0  0  0  0  0  0  0  0
  151.1054  138.2215  154.5852 H   0  0  0  0  0  0  0  0  0  0  0  0
  1  2  1  0  0  0  0
  1 22  1  0  0  0  0
  1 23  1  0  0  0  0
  1 24  1  0  0  0  0
  2  3  1  0  0  0  0
  2  4  1  0  0  0  0
  2 25  1  0  0  0  0
  3 26  1  0  0  0  0
  3 27  1  0  0  0  0
  3 28  1  0  0  0  0
  4  5  1  0  0  0  0
  4 29  1  0  0  0  0
  4 30  1  0  0  0  0
  5  6  1  0  0  0  0
  5 31  1  0  0  0  0
  5 32  1  0  0  0  0
  6  7  2  0  0  0  0
  6  8  1  0  0  0  0
  8  9  1  0  0  0  0
  8 33  1  0  0  0  0
  9 10  1  0  0  0  0
  9 34  1  0  0  0  0
  9 35  1  0  0  0  0
 10 15  1  0  0  0  0
 10 11  2  0  0  0  0
 11 12  1  0  0  0  0
 11 36  1  0  0  0  0
 12 13  2  0  0  0  0
 12 37  1  0  0  0  0
 13 14  1  0  0  0  0
 13 38  1  0  0  0  0
 14 15  2  0  0  0  0
 15 16  1  0  0  0  0
 16 21  1  0  0  0  0
 16 17  1  0  0  0  0
 17 18  1  0  0  0  0
 17 39  1  0  0  0  0
 17 40  1  0  0  0  0
 18 19  1  0  0  0  0
 18 41  1  0  0  0  0
 18 42  1  0  0  0  0
 19 20  1  0  0  0  0
 20 21  1  0  0  0  0
 20 43  1  0  0  0  0
 20 44  1  0  0  0  0
 21 45  1  0  0  0  0
 21 46  1  0  0  0  0
M  END
> <s_m_source_file>
AV-unprocessed.smi

> <i_m_source_file_index>
403

> <i_lp_mmshare_version>
43012

> <i_f3d_flags>
0

> <s_epik_input>
W0NIM11bQ0hdKFtDSDNdKVtDSDJdW0NIMl1DKD1PKVtOSF1bQ0gyXWMxW2NIXVtjSF1bY0hdbmMxTjJbQ0gyXVtDSDJdT1tDSDJdW0NIMl0y

> <s_epik_cmdline>
J2VwaWtfcHl0aG9uJywgJy1waCcsICc3LjAnLCAnLXRuJywgJzgnLCAnLW1hJywgJzIwMCcsICctbWV0YWxfYmluZGluZycsICctaW1hZScsICc8aW5maWxlLm1hZT4nLCAnLW9tYWUnLCAnPG91dGZpbGUubWFlPic=

> <r_lp_tautomer_probability>
1

> <r_epik_Ionization_Penalty>
0.00581842

> <r_epik_Ionization_Penalty_Charging>
0

> <r_epik_Ionization_Penalty_Neutral>
0.00581842

> <r_epik_State_Penalty>
0.00427389

> <r_epik_Charging_Adjusted_Penalty>
0.00427389

> <i_epik_Tot_Q>
0

> <i_epik_Tot_abs_Q>
0

> <r_epik_Metal_State_Penalty>
-0

> <b_epik_Metal_Only>
0

> <s_lp_Force_Field>
OPLS_2005

> <r_lp_Energy>
20.7725

> <b_lp_Chiralities_Consistent>
1

> <s_lp_Variant>
AV-unprocessed.smi:403-1

> <Gold.Version>
5.8.1

> <Gold.Id.Protein>
6NUR|6NUR_protein|mol2

> <Gold.PLP.Fitness>
41.7802

> <Gold.PLP.PLP>
-37.0979

> <Gold.PLP.part.hbond>
-1.0000

> <Gold.PLP.part.metal>
0.0000

> <Gold.PLP.part.buried>
-2.2415

> <Gold.PLP.part.nonpolar>
-34.6204

> <Gold.PLP.part.repulsive>
0.4272

> <Gold.PLP.ligand.clash>
0.0000

> <Gold.PLP.ligand.torsion>
0.7532

> <Gold.PLP.Chemscore.Hbond>
1.0000

> <Gold.PLP.Chemscore.CHOScore>
0.9954

> <Gold.PLP.Chemscore.Metal>
0.0000

> <Gold.Chemscore.Hbonds>
donor molecule, donor type, donor heavy atom, donor atom, acceptor molecule, acceptor atom, score
      P1  H  7997  8009       L1     7  1.00
      L1  C    13    38       P1 10175  1.00

> <Gold.PLP.Chemscore.Internal.Correction>
0.2024

> <Gold.Rescore>
     Score         DG    S(hbond)    S(metal)    S(lipo)     H(rot)  DE(clash)    DE(int)     intcor
     14.49     -16.38       0.91        0.00     105.29       1.73       0.02       1.87       ----

> <Gold.Chemscore.Fitness>
14.4903

> <Gold.Chemscore.DG>
-16.3818

> <Gold.Chemscore.ZeroCoef>
-5.4800

> <Gold.Chemscore.Hbond>
0.9054

> <Gold.Chemscore.Metal>
0.0000

> <Gold.Chemscore.Lipo>
105.2882

> <Gold.Chemscore.Internal_Hbond>
0.0000

> <Gold.Chemscore.DEClash>
0.0221

> <Gold.Chemscore.DEInternal>
1.8693

> <Gold.Chemscore.Rot>
1.7347

> <Gold.Chemscore.Internal.Correction>
   9.000000E+99

> <Gold.Chemscore.Hbonds>
donor molecule, donor type, donor heavy atom, donor atom, acceptor molecule, acceptor atom, score
      P1  H  7997  8009       L1     7  0.40

> <Gold.Chemscore.Hbond.Weighted>
-3.0239

> <Gold.Chemscore.Metal.Weighted>
-0.0000

> <Gold.Chemscore.Lipo.Weighted>
-12.3187

> <Gold.Chemscore.Internal_Hbond.Weighted>
0.0000

> <Gold.Chemscore.DEClash.Weighted>
0.0221

> <Gold.Chemscore.DEInternal.Weighted>
1.8693

> <Gold.Chemscore.Rot.Weighted>
4.4409

> <Gold.Chemscore.Internal.Correction.Weighted>
   9.000000E+99

> <Gold.Protein.RotatedTorsions>
[ 6907 6896 6895 6894 ] final   36.03 input  -60.11 | X-H torsion
[ 7974 7965 7964 7962 ] final  169.29 input  175.53 | X-H torsion
[ 8008 7997 7996 7995 ] final -177.40 input   59.86 | X-H torsion
[ 10167 10162 10161 10158 ] final   74.84 input  -65.29 | X-H torsion
[ 10718 10713 10712 10709 ] final  -80.57 input   66.30 | X-H torsion
[ 10763 10752 10751 10750 ] final  -92.22 input  -60.55 | X-H torsion
[ 11005 11000 10999 10996 ] final   60.19 input  -57.11 | X-H torsion

> <Gold.Protein.ActiveResidues>
 VAL166  LYS551  ARG553  GLY616  TRP617  ASP618  TYR619  PRO620  LYS621  CYS622 
 ASP623  PHE694  ASN695  SER759  ASP760  ASP761  ALA762  ILE779  LEU786  VAL792 
 PHE793  MET794  SER795  GLU796  ALA797  LYS798  CYS799  TRP800  GLU811  SER814 

> <Gold.Protein.RotatedAtoms>
  152.1242  134.9183  160.0561 H   0  0  0  0  0  0  0  0  0  0  0  0  # atno 6907 bound_to 6896
  152.0312  133.3933  159.4306 H   0  0  0  0  0  0  0  0  0  0  0  0  # atno 6908 bound_to 6896
  150.6851  134.3440  159.4924 H   0  0  0  0  0  0  0  0  0  0  0  0  # atno 6909 bound_to 6896
  144.7360  139.9033  143.6410 H   0  0  0  0  0  0  0  0  0  0  0  0  # atno 7974 bound_to 7965
  156.0065  140.1231  157.0496 H   0  0  0  0  0  0  0  0  0  0  0  0  # atno 8008 bound_to 7997
  154.4260  140.1096  156.5838 H   0  0  0  0  0  0  0  0  0  0  0  0  # atno 8009 bound_to 7997
  155.6140  140.3472  155.4633 H   0  0  0  0  0  0  0  0  0  0  0  0  # atno 8010 bound_to 7997
  140.0094  144.5626  150.7671 H   0  0  0  0  0  0  0  0  0  0  0  0  # atno 10167 bound_to 10162
  156.0067  130.4578  150.3820 H   0  0  0  0  0  0  0  0  0  0  0  0  # atno 10718 bound_to 10713
  154.6839  135.5239  153.8300 H   0  0  0  0  0  0  0  0  0  0  0  0  # atno 10763 bound_to 10752
  153.0584  135.6559  154.0532 H   0  0  0  0  0  0  0  0  0  0  0  0  # atno 10764 bound_to 10752
  154.0415  135.2977  155.3334 H   0  0  0  0  0  0  0  0  0  0  0  0  # atno 10765 bound_to 10752
  140.0249  134.6097  155.9586 H   0  0  0  0  0  0  0  0  0  0  0  0  # atno 11005 bound_to 11000
  146.1056  139.4055  143.0320 LP  0  0  0  0  0  0  0  0  0  0  0  0  # atno 17320 bound_to 7965
  145.7517  140.9970  143.1247 LP  0  0  0  0  0  0  0  0  0  0  0  0  # atno 17321 bound_to 7965
  140.7387  143.2782  151.3677 LP  0  0  0  0  0  0  0  0  0  0  0  0  # atno 17342 bound_to 10162
  139.6216  144.0896  152.2396 LP  0  0  0  0  0  0  0  0  0  0  0  0  # atno 17343 bound_to 10162
  157.1899  131.0413  151.2705 LP  0  0  0  0  0  0  0  0  0  0  0  0  # atno 17370 bound_to 10713
  157.4070  130.7364  149.6810 LP  0  0  0  0  0  0  0  0  0  0  0  0  # atno 17371 bound_to 10713
  141.1797  133.6544  156.4969 LP  0  0  0  0  0  0  0  0  0  0  0  0  # atno 17394 bound_to 11000
  140.4323  134.7091  157.4948 LP  0  0  0  0  0  0  0  0  0  0  0  0  # atno 17395 bound_to 11000

$$$$
