AV-unprocessed.smi:3279|AV-procd|sdf|12549|dock1
  -GOLD-   2272018463D 1   1.00000     0.00000
 Structure written by MMmdl.
 35 35  0  0  0  0  0  0  0  0  2 V2000
  152.3939  143.0833  158.8972 C   0  0  0  0  0  0  0  0  0  0  0  0
  152.3855  141.5511  159.0172 C   0  0  1  0  0  0  0  0  0  0  0  0
  152.1100  140.8529  157.6679 C   0  0  0  0  0  0  0  0  0  0  0  0
  150.9575  141.4342  156.9823 N   0  0  0  0  0  0  0  0  0  0  0  0
  150.4884  141.0615  155.7811 C   0  0  0  0  0  0  0  0  0  0  0  0
  151.0353  140.2218  155.0654 O   0  0  0  0  0  0  0  0  0  0  0  0
  149.1983  141.7402  155.3230 C   0  0  0  0  0  0  0  0  0  0  0  0
  148.7917  141.1591  154.0874 O   0  0  0  0  0  0  0  0  0  0  0  0
  147.3923  141.0520  153.8159 C   0  0  0  0  0  0  0  0  0  0  0  0
  146.7051  142.4314  153.8583 C   0  0  0  0  0  0  0  0  0  0  0  0
  146.8520  140.1748  154.9568 C   0  0  0  0  0  0  0  0  0  0  0  0
  147.1504  140.3489  152.4657 C   0  0  0  0  0  0  0  0  0  0  0  0
  153.6301  141.0421  159.6918 C   0  0  0  0  0  0  0  0  0  0  0  0
  154.0797  141.5336  160.8566 N   0  0  0  0  0  0  0  0  0  0  0  0
  155.1648  140.7909  161.1127 N   0  0  0  0  0  0  0  0  0  0  0  0
  155.3431  139.8974  160.1325 N   0  0  0  0  0  0  0  0  0  0  0  0
  154.3787  140.0354  159.2129 N   0  5  0  0  0  0  0  0  0  0  0  0
  152.5072  143.5517  159.8753 H   0  0  0  0  0  0  0  0  0  0  0  0
  151.4636  143.4480  158.4616 H   0  0  0  0  0  0  0  0  0  0  0  0
  153.2130  143.4284  158.2655 H   0  0  0  0  0  0  0  0  0  0  0  0
  151.5235  141.3192  159.6452 H   0  0  0  0  0  0  0  0  0  0  0  0
  152.9784  140.9504  157.0159 H   0  0  0  0  0  0  0  0  0  0  0  0
  151.9712  139.7826  157.8296 H   0  0  0  0  0  0  0  0  0  0  0  0
  150.4344  142.1308  157.4925 H   0  0  0  0  0  0  0  0  0  0  0  0
  148.4329  141.6059  156.0878 H   0  0  0  0  0  0  0  0  0  0  0  0
  149.3932  142.8071  155.2196 H   0  0  0  0  0  0  0  0  0  0  0  0
  145.6210  142.3301  153.8002 H   0  0  0  0  0  0  0  0  0  0  0  0
  147.0085  143.0663  153.0260 H   0  0  0  0  0  0  0  0  0  0  0  0
  146.9382  142.9594  154.7836 H   0  0  0  0  0  0  0  0  0  0  0  0
  147.0291  140.6387  155.9280 H   0  0  0  0  0  0  0  0  0  0  0  0
  147.3370  139.1982  154.9678 H   0  0  0  0  0  0  0  0  0  0  0  0
  145.7784  140.0102  154.8598 H   0  0  0  0  0  0  0  0  0  0  0  0
  146.0919  140.1287  152.3242 H   0  0  0  0  0  0  0  0  0  0  0  0
  147.6937  139.4051  152.4099 H   0  0  0  0  0  0  0  0  0  0  0  0
  147.4619  140.9636  151.6214 H   0  0  0  0  0  0  0  0  0  0  0  0
  1  2  1  0  0  0  0
  1 18  1  0  0  0  0
  1 19  1  0  0  0  0
  1 20  1  0  0  0  0
  2  3  1  0  0  0  0
  2 13  1  0  0  0  0
  2 21  1  0  0  0  0
  3  4  1  0  0  0  0
  3 22  1  0  0  0  0
  3 23  1  0  0  0  0
  4  5  1  0  0  0  0
  4 24  1  0  0  0  0
  5  6  2  0  0  0  0
  5  7  1  0  0  0  0
  7  8  1  0  0  0  0
  7 25  1  0  0  0  0
  7 26  1  0  0  0  0
  8  9  1  0  0  0  0
  9 10  1  0  0  0  0
  9 11  1  0  0  0  0
  9 12  1  0  0  0  0
 10 27  1  0  0  0  0
 10 28  1  0  0  0  0
 10 29  1  0  0  0  0
 11 30  1  0  0  0  0
 11 31  1  0  0  0  0
 11 32  1  0  0  0  0
 12 33  1  0  0  0  0
 12 34  1  0  0  0  0
 12 35  1  0  0  0  0
 13 17  1  0  0  0  0
 13 14  2  0  0  0  0
 14 15  1  0  0  0  0
 15 16  2  0  0  0  0
 16 17  1  0  0  0  0
M  CHG  1  17  -1
M  END
> <s_m_source_file>
AV-unprocessed.smi

> <i_m_source_file_index>
3279

> <i_lp_mmshare_version>
43012

> <i_f3d_flags>
0

> <s_epik_input>
W25IXTFubm5jMVtDQEhdKFtDSDNdKVtDSDJdW05IXUMoPU8pW0NIMl1PQyhbQ0gzXSkoW0NIM10pW0NIM10=

> <s_epik_cmdline>
J2VwaWtfcHl0aG9uJywgJy1waCcsICc3LjAnLCAnLXRuJywgJzgnLCAnLW1hJywgJzIwMCcsICctbWV0YWxfYmluZGluZycsICctaW1hZScsICc8aW5maWxlLm1hZT4nLCAnLW9tYWUnLCAnPG91dGZpbGUubWFlPic=

> <r_epik_Ionization_Penalty>
0.054353

> <r_epik_Ionization_Penalty_Charging>
0.054353

> <r_epik_Ionization_Penalty_Neutral>
3.0997e-08

> <r_epik_State_Penalty>
0.0139445

> <r_epik_Charging_Adjusted_Penalty>
0.0682975

> <i_epik_Tot_Q>
-1

> <i_epik_Tot_abs_Q>
1

> <r_epik_Metal_State_Penalty>
0.0109703

> <b_epik_Metal_Only>
0

> <s_lp_Force_Field>
OPLS_2005

> <r_lp_Energy>
1.27922

> <b_lp_Chiralities_Consistent>
1

> <s_lp_Variant>
AV-unprocessed.smi:3279-2

> <Gold.Version>
5.8.1

> <Gold.Id.Protein>
6NUR|6NUR_protein|mol2

> <Gold.PLP.Fitness>
37.0566

> <Gold.PLP.PLP>
-28.1541

> <Gold.PLP.part.hbond>
-3.5268

> <Gold.PLP.part.metal>
0.0000

> <Gold.PLP.part.buried>
-2.0850

> <Gold.PLP.part.nonpolar>
-21.4857

> <Gold.PLP.part.repulsive>
0.2680

> <Gold.PLP.ligand.clash>
0.0000

> <Gold.PLP.ligand.torsion>
0.3941

> <Gold.PLP.Chemscore.Hbond>
3.1950

> <Gold.PLP.Chemscore.CHOScore>
0.0000

> <Gold.PLP.Chemscore.Metal>
0.0000

> <Gold.Chemscore.Hbonds>
donor molecule, donor type, donor heavy atom, donor atom, acceptor molecule, acceptor atom, score
      P1  H  7989  7998       L1     6  1.00
      P1  H  7997  8010       L1    17  2.00
      P1  H  8011  8017       L1     8  0.10

> <Gold.PLP.Chemscore.Internal.Correction>
0.1056

> <Gold.Rescore>
     Score         DG    S(hbond)    S(metal)    S(lipo)     H(rot)  DE(clash)    DE(int)     intcor
     10.38     -11.91       1.86        0.00      59.68       2.64       1.21       0.33       ----

> <Gold.Chemscore.Fitness>
10.3808

> <Gold.Chemscore.DG>
-11.9123

> <Gold.Chemscore.ZeroCoef>
-5.4800

> <Gold.Chemscore.Hbond>
1.8594

> <Gold.Chemscore.Metal>
0.0000

> <Gold.Chemscore.Lipo>
59.6792

> <Gold.Chemscore.Internal_Hbond>
0.0000

> <Gold.Chemscore.DEClash>
1.2053

> <Gold.Chemscore.DEInternal>
0.3262

> <Gold.Chemscore.Rot>
2.6409

> <Gold.Chemscore.Internal.Correction>
   9.000000E+99

> <Gold.Chemscore.Hbonds>
donor molecule, donor type, donor heavy atom, donor atom, acceptor molecule, acceptor atom, score
      P1  H  7989  7998       L1     6  0.87
      P1  H  7997  8010       L1    17  0.83
      P1  H  8011  8017       L1     8  0.05

> <Gold.Chemscore.Hbond.Weighted>
-6.2106

> <Gold.Chemscore.Metal.Weighted>
-0.0000

> <Gold.Chemscore.Lipo.Weighted>
-6.9825

> <Gold.Chemscore.Internal_Hbond.Weighted>
0.0000

> <Gold.Chemscore.DEClash.Weighted>
1.2053

> <Gold.Chemscore.DEInternal.Weighted>
0.3262

> <Gold.Chemscore.Rot.Weighted>
6.7607

> <Gold.Chemscore.Internal.Correction.Weighted>
   9.000000E+99

> <Gold.Protein.RotatedTorsions>
[ 6907 6896 6895 6894 ] final   33.81 input  -60.11 | X-H torsion
[ 7974 7965 7964 7962 ] final -148.84 input  175.53 | X-H torsion
[ 8008 7997 7996 7995 ] final    9.86 input   59.86 | X-H torsion
[ 10167 10162 10161 10158 ] final   28.20 input  -65.29 | X-H torsion
[ 10718 10713 10712 10709 ] final   27.21 input   66.30 | X-H torsion
[ 10763 10752 10751 10750 ] final   61.88 input  -60.55 | X-H torsion
[ 11005 11000 10999 10996 ] final  118.68 input  -57.11 | X-H torsion

> <Gold.Protein.ActiveResidues>
 VAL166  LYS551  ARG553  GLY616  TRP617  ASP618  TYR619  PRO620  LYS621  CYS622 
 ASP623  PHE694  ASN695  SER759  ASP760  ASP761  ALA762  ILE779  LEU786  VAL792 
 PHE793  MET794  SER795  GLU796  ALA797  LYS798  CYS799  TRP800  GLU811  SER814 

> <Gold.Protein.RotatedAtoms>
  152.0937  134.9390  160.0571 H   0  0  0  0  0  0  0  0  0  0  0  0  # atno 6907 bound_to 6896
  152.0631  133.4066  159.4435 H   0  0  0  0  0  0  0  0  0  0  0  0  # atno 6908 bound_to 6896
  150.6837  134.3097  159.4785 H   0  0  0  0  0  0  0  0  0  0  0  0  # atno 6909 bound_to 6896
  144.8004  140.5143  143.5711 H   0  0  0  0  0  0  0  0  0  0  0  0  # atno 7974 bound_to 7965
  154.7857  140.2826  155.6030 H   0  0  0  0  0  0  0  0  0  0  0  0  # atno 8008 bound_to 7997
  156.2957  140.2614  156.2621 H   0  0  0  0  0  0  0  0  0  0  0  0  # atno 8009 bound_to 7997
  154.9731  140.0376  157.2233 H   0  0  0  0  0  0  0  0  0  0  0  0  # atno 8010 bound_to 7997
  140.4873  144.0523  150.6285 H   0  0  0  0  0  0  0  0  0  0  0  0  # atno 10167 bound_to 10162
  157.2171  130.6961  149.6253 H   0  0  0  0  0  0  0  0  0  0  0  0  # atno 10718 bound_to 10713
  152.9964  135.5485  154.6104 H   0  0  0  0  0  0  0  0  0  0  0  0  # atno 10763 bound_to 10752
  154.5426  135.2821  155.1084 H   0  0  0  0  0  0  0  0  0  0  0  0  # atno 10764 bound_to 10752
  154.2355  135.6426  153.5242 H   0  0  0  0  0  0  0  0  0  0  0  0  # atno 10765 bound_to 10752
  139.9118  134.9622  156.7541 H   0  0  0  0  0  0  0  0  0  0  0  0  # atno 11005 bound_to 11000
  145.5567  139.1478  143.3364 LP  0  0  0  0  0  0  0  0  0  0  0  0  # atno 17320 bound_to 7965
  146.2284  140.5704  142.8986 LP  0  0  0  0  0  0  0  0  0  0  0  0  # atno 17321 bound_to 7965
  140.3782  143.2817  152.0201 LP  0  0  0  0  0  0  0  0  0  0  0  0  # atno 17342 bound_to 10162
  139.4844  144.6176  151.7316 LP  0  0  0  0  0  0  0  0  0  0  0  0  # atno 17343 bound_to 10162
  155.9685  130.4532  150.5803 LP  0  0  0  0  0  0  0  0  0  0  0  0  # atno 17370 bound_to 10713
  157.3614  131.0750  151.1634 LP  0  0  0  0  0  0  0  0  0  0  0  0  # atno 17371 bound_to 10713
  140.6750  133.9525  155.7878 LP  0  0  0  0  0  0  0  0  0  0  0  0  # atno 17394 bound_to 11000
  141.0551  134.0429  157.3733 LP  0  0  0  0  0  0  0  0  0  0  0  0  # atno 17395 bound_to 11000

$$$$
