AV-unprocessed.smi:3245|AV-procd|sdf|12409|dock3
  -GOLD-   2272018293D 1   1.00000     0.00000
 Structure written by MMmdl.
 34 35  0  0  0  0  0  0  0  0  2 V2000
  145.5517  135.4845  152.6187 C   0  0  0  0  0  0  0  0  0  0  0  0
  146.4033  134.3095  153.1411 C   0  0  1  0  0  0  0  0  0  0  0  0
  146.8781  133.3707  152.0125 C   0  0  0  0  0  0  0  0  0  0  0  0
  145.7846  132.8334  151.2227 N   0  0  0  0  0  0  0  0  0  0  0  0
  145.8486  131.9890  150.1341 C   0  0  0  0  0  0  0  0  0  0  0  0
  144.5666  131.7517  149.7280 C   0  0  0  0  0  0  0  0  0  0  0  0
  143.7775  132.4998  150.6460 C   0  0  0  0  0  0  0  0  0  0  0  0
  144.5090  133.1434  151.5415 N   0  0  0  0  0  0  0  0  0  0  0  0
  147.5932  134.8067  153.8208 N   0  0  0  0  0  0  0  0  0  0  0  0
  148.3592  133.7423  154.4546 C   0  0  0  0  0  0  0  0  0  0  0  0
  149.8511  134.1176  154.5061 C   0  0  0  0  0  0  0  0  0  0  0  0
  150.5709  133.3877  155.5577 N   0  0  0  0  0  0  0  0  0  0  0  0
  150.6635  132.0554  155.6150 C   0  0  0  0  0  0  0  0  0  0  0  0
  150.1913  131.2300  154.8330 O   0  0  0  0  0  0  0  0  0  0  0  0
  151.4704  131.7063  156.8436 C   0  0  0  0  0  0  0  0  0  0  0  0
  151.7701  133.0075  157.3964 N   0  5  0  0  0  0  0  0  0  0  0  0
  151.2128  133.9503  156.6004 C   0  0  0  0  0  0  0  0  0  0  0  0
  151.2585  135.1692  156.7653 O   0  0  0  0  0  0  0  0  0  0  0  0
  144.6615  135.1292  152.0997 H   0  0  0  0  0  0  0  0  0  0  0  0
  146.1176  136.1013  151.9198 H   0  0  0  0  0  0  0  0  0  0  0  0
  145.2044  136.1298  153.4246 H   0  0  0  0  0  0  0  0  0  0  0  0
  145.8135  133.7211  153.8455 H   0  0  0  0  0  0  0  0  0  0  0  0
  147.5561  133.8998  151.3406 H   0  0  0  0  0  0  0  0  0  0  0  0
  147.4415  132.5329  152.4265 H   0  0  0  0  0  0  0  0  0  0  0  0
  146.7905  131.6341  149.7422 H   0  0  0  0  0  0  0  0  0  0  0  0
  144.2419  131.1368  148.9020 H   0  0  0  0  0  0  0  0  0  0  0  0
  142.7023  132.5925  150.6887 H   0  0  0  0  0  0  0  0  0  0  0  0
  148.1873  135.2830  153.1570 H   0  0  0  0  0  0  0  0  0  0  0  0
  147.9891  133.5337  155.4578 H   0  0  0  0  0  0  0  0  0  0  0  0
  148.2394  132.8286  153.8715 H   0  0  0  0  0  0  0  0  0  0  0  0
  150.3093  133.8819  153.5443 H   0  0  0  0  0  0  0  0  0  0  0  0
  149.9695  135.1962  154.6226 H   0  0  0  0  0  0  0  0  0  0  0  0
  150.8773  131.0808  157.5116 H   0  0  0  0  0  0  0  0  0  0  0  0
  152.3600  131.1448  156.5563 H   0  0  0  0  0  0  0  0  0  0  0  0
  1  2  1  0  0  0  0
  1 19  1  0  0  0  0
  1 20  1  0  0  0  0
  1 21  1  0  0  0  0
  2  3  1  0  0  0  0
  2  9  1  0  0  0  0
  2 22  1  0  0  0  0
  3  4  1  0  0  0  0
  3 23  1  0  0  0  0
  3 24  1  0  0  0  0
  4  8  1  0  0  0  0
  4  5  1  0  0  0  0
  5  6  2  0  0  0  0
  5 25  1  0  0  0  0
  6  7  1  0  0  0  0
  6 26  1  0  0  0  0
  7  8  2  0  0  0  0
  7 27  1  0  0  0  0
  9 10  1  0  0  0  0
  9 28  1  0  0  0  0
 10 11  1  0  0  0  0
 10 29  1  0  0  0  0
 10 30  1  0  0  0  0
 11 12  1  0  0  0  0
 11 31  1  0  0  0  0
 11 32  1  0  0  0  0
 12 17  1  0  0  0  0
 12 13  1  0  0  0  0
 13 14  2  0  0  0  0
 13 15  1  0  0  0  0
 15 16  1  0  0  0  0
 15 33  1  0  0  0  0
 15 34  1  0  0  0  0
 16 17  1  0  0  0  0
 17 18  2  0  0  0  0
M  CHG  1  16  -1
M  END
> <s_m_source_file>
AV-unprocessed.smi

> <i_m_source_file_index>
3245

> <i_lp_mmshare_version>
43012

> <i_f3d_flags>
0

> <s_epik_input>
bjFbY0hdW2NIXVtjSF1uMVtDSDJdW0NAQEhdKFtDSDNdKVtOSF1bQ0gyXVtDSDJdTjJDKD1PKVtDSDJdW05IXUMyPU8=

> <s_epik_cmdline>
J2VwaWtfcHl0aG9uJywgJy1waCcsICc3LjAnLCAnLXRuJywgJzgnLCAnLW1hJywgJzIwMCcsICctbWV0YWxfYmluZGluZycsICctaW1hZScsICc8aW5maWxlLm1hZT4nLCAnLW9tYWUnLCAnPG91dGZpbGUubWFlPic=

> <r_lp_tautomer_probability>
1

> <r_epik_Ionization_Penalty>
8.62027

> <r_epik_Ionization_Penalty_Charging>
6.28132

> <r_epik_Ionization_Penalty_Neutral>
2.33895

> <r_epik_State_Penalty>
8.57043

> <r_epik_Charging_Adjusted_Penalty>
14.8517

> <i_epik_Tot_Q>
-1

> <i_epik_Tot_abs_Q>
1

> <r_epik_Metal_State_Penalty>
4.56785

> <b_epik_Metal_Only>
1

> <s_lp_Force_Field>
OPLS_2005

> <r_lp_Energy>
21.4513

> <b_lp_Chiralities_Consistent>
1

> <s_lp_Variant>
AV-unprocessed.smi:3245-8

> <Gold.Version>
5.8.1

> <Gold.Id.Protein>
6NUR|6NUR_protein|mol2

> <Gold.PLP.Fitness>
45.6638

> <Gold.PLP.PLP>
-31.1685

> <Gold.PLP.part.hbond>
-2.3988

> <Gold.PLP.part.metal>
0.0000

> <Gold.PLP.part.buried>
-4.6769

> <Gold.PLP.part.nonpolar>
-25.1438

> <Gold.PLP.part.repulsive>
0.1564

> <Gold.PLP.ligand.clash>
0.0000

> <Gold.PLP.ligand.torsion>
0.3138

> <Gold.PLP.Chemscore.Hbond>
3.0000

> <Gold.PLP.Chemscore.CHOScore>
2.0000

> <Gold.PLP.Chemscore.Metal>
0.0000

> <Gold.Chemscore.Hbonds>
donor molecule, donor type, donor heavy atom, donor atom, acceptor molecule, acceptor atom, score
      L1  H     9    28       P1  7948  1.00
      P1  H  6896  6908       L1    16  1.66
      L1  C     5    25       P1 10747  1.00
      L1  C     7    27       P1 10186  0.49

> <Gold.PLP.Chemscore.Internal.Correction>
0.1229

> <Gold.Rescore>
     Score         DG    S(hbond)    S(metal)    S(lipo)     H(rot)  DE(clash)    DE(int)     intcor
     10.49     -12.26       1.85        0.00      61.56       2.58       0.19       1.57       ----

> <Gold.Chemscore.Fitness>
10.4925

> <Gold.Chemscore.DG>
-12.2551

> <Gold.Chemscore.ZeroCoef>
-5.4800

> <Gold.Chemscore.Hbond>
1.8503

> <Gold.Chemscore.Metal>
0.0000

> <Gold.Chemscore.Lipo>
61.5609

> <Gold.Chemscore.Internal_Hbond>
0.0000

> <Gold.Chemscore.DEClash>
0.1889

> <Gold.Chemscore.DEInternal>
1.5737

> <Gold.Chemscore.Rot>
2.5811

> <Gold.Chemscore.Internal.Correction>
   9.000000E+99

> <Gold.Chemscore.Hbonds>
donor molecule, donor type, donor heavy atom, donor atom, acceptor molecule, acceptor atom, score
      L1  H     9    28       P1  7948  0.99
      P1  H  6896  6908       L1    16  0.70

> <Gold.Chemscore.Hbond.Weighted>
-6.1800

> <Gold.Chemscore.Metal.Weighted>
-0.0000

> <Gold.Chemscore.Lipo.Weighted>
-7.2026

> <Gold.Chemscore.Internal_Hbond.Weighted>
0.0000

> <Gold.Chemscore.DEClash.Weighted>
0.1889

> <Gold.Chemscore.DEInternal.Weighted>
1.5737

> <Gold.Chemscore.Rot.Weighted>
6.6076

> <Gold.Chemscore.Internal.Correction.Weighted>
   9.000000E+99

> <Gold.Protein.RotatedTorsions>
[ 6907 6896 6895 6894 ] final   68.29 input  -60.11 | X-H torsion
[ 7974 7965 7964 7962 ] final -145.42 input  175.53 | X-H torsion
[ 8008 7997 7996 7995 ] final  -67.43 input   59.86 | X-H torsion
[ 10167 10162 10161 10158 ] final   92.13 input  -65.29 | X-H torsion
[ 10718 10713 10712 10709 ] final  -47.44 input   66.30 | X-H torsion
[ 10763 10752 10751 10750 ] final  107.89 input  -60.55 | X-H torsion
[ 11005 11000 10999 10996 ] final -103.00 input  -57.11 | X-H torsion

> <Gold.Protein.ActiveResidues>
 VAL166  LYS551  ARG553  GLY616  TRP617  ASP618  TYR619  PRO620  LYS621  CYS622 
 ASP623  PHE694  ASN695  SER759  ASP760  ASP761  ALA762  ILE779  LEU786  VAL792 
 PHE793  MET794  SER795  GLU796  ALA797  LYS798  CYS799  TRP800  GLU811  SER814 

> <Gold.Protein.RotatedAtoms>
  152.4610  134.5184  159.9774 H   0  0  0  0  0  0  0  0  0  0  0  0  # atno 6907 bound_to 6896
  151.5233  133.3456  159.2913 H   0  0  0  0  0  0  0  0  0  0  0  0  # atno 6908 bound_to 6896
  150.8573  134.7945  159.7118 H   0  0  0  0  0  0  0  0  0  0  0  0  # atno 6909 bound_to 6896
  144.8229  140.5586  143.5566 H   0  0  0  0  0  0  0  0  0  0  0  0  # atno 7974 bound_to 7965
  154.4800  140.0893  156.7353 H   0  0  0  0  0  0  0  0  0  0  0  0  # atno 8008 bound_to 7997
  155.4496  140.3457  155.4281 H   0  0  0  0  0  0  0  0  0  0  0  0  # atno 8009 bound_to 7997
  156.1176  140.1465  156.9239 H   0  0  0  0  0  0  0  0  0  0  0  0  # atno 8010 bound_to 7997
  139.8307  144.6688  150.9404 H   0  0  0  0  0  0  0  0  0  0  0  0  # atno 10167 bound_to 10162
  156.2084  130.4159  149.9147 H   0  0  0  0  0  0  0  0  0  0  0  0  # atno 10718 bound_to 10713
  153.4130  135.3830  155.2062 H   0  0  0  0  0  0  0  0  0  0  0  0  # atno 10763 bound_to 10752
  154.8739  135.3799  154.4477 H   0  0  0  0  0  0  0  0  0  0  0  0  # atno 10764 bound_to 10752
  153.4988  135.7088  153.5905 H   0  0  0  0  0  0  0  0  0  0  0  0  # atno 10765 bound_to 10752
  141.1165  133.8604  157.1431 H   0  0  0  0  0  0  0  0  0  0  0  0  # atno 11005 bound_to 11000
  145.5065  139.1481  143.3628 LP  0  0  0  0  0  0  0  0  0  0  0  0  # atno 17320 bound_to 7965
  146.2534  140.5206  142.8884 LP  0  0  0  0  0  0  0  0  0  0  0  0  # atno 17321 bound_to 7965
  140.7807  143.4004  151.1159 LP  0  0  0  0  0  0  0  0  0  0  0  0  # atno 17342 bound_to 10162
  139.7658  143.8568  152.3110 LP  0  0  0  0  0  0  0  0  0  0  0  0  # atno 17343 bound_to 10162
  156.6833  130.8867  151.3579 LP  0  0  0  0  0  0  0  0  0  0  0  0  # atno 17370 bound_to 10713
  157.7025  130.9349  150.0829 LP  0  0  0  0  0  0  0  0  0  0  0  0  # atno 17371 bound_to 10713
  140.0090  134.9996  157.0355 LP  0  0  0  0  0  0  0  0  0  0  0  0  # atno 17394 bound_to 11000
  140.4631  134.1463  155.7194 LP  0  0  0  0  0  0  0  0  0  0  0  0  # atno 17395 bound_to 11000

$$$$
