AV-unprocessed.smi:184|AV-procd|sdf|1462|dock5
  -GOLD-   2262019273D 1   1.00000     0.00000
 Structure written by MMmdl.
 54 58  0  0  0  0  0  0  0  0  1 V2000
  153.3724  138.8452  158.9799 O   0  0  0  0  0  0  0  0  0  0  0  0
  152.8589  139.9423  158.7730 C   0  0  0  0  0  0  0  0  0  0  0  0
  151.8462  140.1003  157.6243 C   0  0  0  0  0  0  0  0  0  0  0  0
  151.2572  141.4427  157.4809 N   0  0  0  0  0  0  0  0  0  0  0  0
  150.1593  141.4028  156.6881 C   0  0  0  0  0  0  0  0  0  0  0  0
  150.2840  141.1178  155.3646 N   0  0  0  0  0  0  0  0  0  0  0  0
  149.2029  141.1009  154.5794 C   0  0  0  0  0  0  0  0  0  0  0  0
  147.9310  141.3423  154.9048 N   0  0  0  0  0  0  0  0  0  0  0  0
  147.8051  141.6396  156.2299 C   0  0  0  0  0  0  0  0  0  0  0  0
  148.8606  141.6967  157.1825 C   0  0  0  0  0  0  0  0  0  0  0  0
  148.3583  142.0363  158.4318 N   0  0  0  0  0  0  0  0  0  0  0  0
  147.0757  142.1708  158.2295 C   0  0  0  0  0  0  0  0  0  0  0  0
  146.6547  141.9410  156.9382 N   0  0  0  0  0  0  0  0  0  0  0  0
  145.2889  142.0193  156.4395 C   0  0  0  0  0  0  0  0  0  0  0  0
  144.6808  140.6478  156.0368 C   0  0  0  0  0  0  0  0  0  0  0  0
  145.3159  140.2340  154.8410 O   0  0  0  0  0  0  0  0  0  0  0  0
  144.9588  139.5644  157.0981 C   0  0  0  0  0  0  0  0  0  0  0  0
  144.0611  139.7371  158.3367 C   0  0  0  0  0  0  0  0  0  0  0  0
  142.6910  139.7423  157.9498 O   0  0  0  0  0  0  0  0  0  0  0  0
  142.3621  140.8161  157.0753 C   0  0  0  0  0  0  0  0  0  0  0  0
  143.1612  140.6880  155.7666 C   0  0  0  0  0  0  0  0  0  0  0  0
  151.2150  142.3015  158.6711 C   0  0  2  0  0  0  0  0  0  0  0  0
  150.7487  143.7504  158.3821 C   0  0  0  0  0  0  0  0  0  0  0  0
  150.7418  144.5976  159.6664 C   0  0  0  0  0  0  0  0  0  0  0  0
  152.1161  144.5955  160.3544 C   0  0  0  0  0  0  0  0  0  0  0  0
  152.6107  143.1633  160.6137 C   0  0  0  0  0  0  0  0  0  0  0  0
  152.6211  142.3473  159.3095 C   0  0  1  0  0  0  0  0  0  0  0  0
  153.1456  141.0069  159.5384 N   0  0  0  0  0  0  0  0  0  0  0  0
  152.3495  139.8354  156.6935 H   0  0  0  0  0  0  0  0  0  0  0  0
  151.0586  139.3597  157.7784 H   0  0  0  0  0  0  0  0  0  0  0  0
  149.3827  140.8614  153.5418 H   0  0  0  0  0  0  0  0  0  0  0  0
  146.3942  142.4375  159.0245 H   0  0  0  0  0  0  0  0  0  0  0  0
  144.6768  142.4876  157.2117 H   0  0  0  0  0  0  0  0  0  0  0  0
  145.2788  142.7090  155.5959 H   0  0  0  0  0  0  0  0  0  0  0  0
  144.7769  140.4945  154.1097 H   0  0  0  0  0  0  0  0  0  0  0  0
  144.7661  138.5772  156.6750 H   0  0  0  0  0  0  0  0  0  0  0  0
  146.0097  139.5708  157.3897 H   0  0  0  0  0  0  0  0  0  0  0  0
  144.2237  138.9114  159.0295 H   0  0  0  0  0  0  0  0  0  0  0  0
  144.3013  140.6520  158.8796 H   0  0  0  0  0  0  0  0  0  0  0  0
  141.2936  140.7796  156.8633 H   0  0  0  0  0  0  0  0  0  0  0  0
  142.5523  141.7699  157.5675 H   0  0  0  0  0  0  0  0  0  0  0  0
  142.8981  141.4923  155.0797 H   0  0  0  0  0  0  0  0  0  0  0  0
  142.8545  139.7640  155.2738 H   0  0  0  0  0  0  0  0  0  0  0  0
  150.5233  141.8488  159.3848 H   0  0  0  0  0  0  0  0  0  0  0  0
  151.4062  144.2092  157.6421 H   0  0  0  0  0  0  0  0  0  0  0  0
  149.7472  143.7687  157.9535 H   0  0  0  0  0  0  0  0  0  0  0  0
  150.4451  145.6210  159.4346 H   0  0  0  0  0  0  0  0  0  0  0  0
  149.9903  144.2072  160.3540 H   0  0  0  0  0  0  0  0  0  0  0  0
  152.8370  145.1207  159.7266 H   0  0  0  0  0  0  0  0  0  0  0  0
  152.0639  145.1484  161.2929 H   0  0  0  0  0  0  0  0  0  0  0  0
  153.6109  143.1943  161.0476 H   0  0  0  0  0  0  0  0  0  0  0  0
  151.9672  142.6797  161.3501 H   0  0  0  0  0  0  0  0  0  0  0  0
  153.3081  142.8281  158.6104 H   0  0  0  0  0  0  0  0  0  0  0  0
  153.7981  140.8875  160.2997 H   0  0  0  0  0  0  0  0  0  0  0  0
  1  2  2  0  0  0  0
  2 28  1  0  0  0  0
  2  3  1  0  0  0  0
  3  4  1  0  0  0  0
  3 29  1  0  0  0  0
  3 30  1  0  0  0  0
  4  5  1  0  0  0  0
  4 22  1  0  0  0  0
  5 10  1  0  0  0  0
  5  6  2  0  0  0  0
  6  7  1  0  0  0  0
  7  8  2  0  0  0  0
  7 31  1  0  0  0  0
  8  9  1  0  0  0  0
  9 13  1  0  0  0  0
  9 10  2  0  0  0  0
 10 11  1  0  0  0  0
 11 12  2  0  0  0  0
 12 13  1  0  0  0  0
 12 32  1  0  0  0  0
 13 14  1  0  0  0  0
 14 15  1  0  0  0  0
 14 33  1  0  0  0  0
 14 34  1  0  0  0  0
 15 21  1  0  0  0  0
 15 16  1  0  0  0  0
 15 17  1  0  0  0  0
 16 35  1  0  0  0  0
 17 18  1  0  0  0  0
 17 36  1  0  0  0  0
 17 37  1  0  0  0  0
 18 19  1  0  0  0  0
 18 38  1  0  0  0  0
 18 39  1  0  0  0  0
 19 20  1  0  0  0  0
 20 21  1  0  0  0  0
 20 40  1  0  0  0  0
 20 41  1  0  0  0  0
 21 42  1  0  0  0  0
 21 43  1  0  0  0  0
 22 27  1  0  0  0  0
 22 23  1  0  0  0  0
 22 44  1  0  0  0  0
 23 24  1  0  0  0  0
 23 45  1  0  0  0  0
 23 46  1  0  0  0  0
 24 25  1  0  0  0  0
 24 47  1  0  0  0  0
 24 48  1  0  0  0  0
 25 26  1  0  0  0  0
 25 49  1  0  0  0  0
 25 50  1  0  0  0  0
 26 27  1  0  0  0  0
 26 51  1  0  0  0  0
 26 52  1  0  0  0  0
 27 28  1  0  0  0  0
 27 53  1  0  0  0  0
 28 54  1  0  0  0  0
M  END
> <s_m_source_file>
AV-unprocessed.smi

> <i_m_source_file_index>
184

> <i_lp_mmshare_version>
43012

> <i_f3d_flags>
0

> <s_epik_input>
W0NIMl0xW0NIMl1bQ0gyXVtDSDJdW0NASF0oW0NASF0xMilbTkhdQyg9TylbQ0gyXU4yYyhuW2NIXW4zKWMoYzM0KW5bY0hdbjRbQ0gyXUM1KFtPSF0pW0NIMl1bQ0gyXU9bQ0gyXVtDSDJdNQ==

> <s_epik_cmdline>
J2VwaWtfcHl0aG9uJywgJy1waCcsICc3LjAnLCAnLXRuJywgJzgnLCAnLW1hJywgJzIwMCcsICctbWV0YWxfYmluZGluZycsICctaW1hZScsICc8aW5maWxlLm1hZT4nLCAnLW9tYWUnLCAnPG91dGZpbGUubWFlPic=

> <r_lp_tautomer_probability>
1

> <r_epik_Ionization_Penalty>
0.000822761

> <r_epik_Ionization_Penalty_Charging>
0

> <r_epik_Ionization_Penalty_Neutral>
0.000822761

> <r_epik_State_Penalty>
0.000403048

> <r_epik_Charging_Adjusted_Penalty>
0.000403048

> <i_epik_Tot_Q>
0

> <i_epik_Tot_abs_Q>
0

> <r_epik_Metal_State_Penalty>
-0

> <b_epik_Metal_Only>
0

> <s_lp_Force_Field>
OPLS_2005

> <r_lp_Energy>
34.5881

> <b_lp_Chiralities_Consistent>
1

> <s_lp_Variant>
AV-unprocessed.smi:184-2

> <Gold.Version>
5.8.1

> <Gold.Id.Protein>
6NUR|6NUR_protein|mol2

> <Gold.PLP.Fitness>
42.3447

> <Gold.PLP.PLP>
-36.8126

> <Gold.PLP.part.hbond>
-1.8270

> <Gold.PLP.part.metal>
0.0000

> <Gold.PLP.part.buried>
-7.4093

> <Gold.PLP.part.nonpolar>
-28.4096

> <Gold.PLP.part.repulsive>
0.4450

> <Gold.PLP.ligand.clash>
0.0000

> <Gold.PLP.ligand.torsion>
0.5968

> <Gold.PLP.Chemscore.Hbond>
1.1147

> <Gold.PLP.Chemscore.CHOScore>
1.0000

> <Gold.PLP.Chemscore.Metal>
0.0000

> <Gold.Chemscore.Hbonds>
donor molecule, donor type, donor heavy atom, donor atom, acceptor molecule, acceptor atom, score
      L1  H    16    35       P1 10175  1.00
      P1  H  7989  7998       L1     6  0.11
      L1  C     7    31       P1  7957  1.00

> <Gold.PLP.Chemscore.Internal.Correction>
0.3817

> <Gold.Rescore>
     Score         DG    S(hbond)    S(metal)    S(lipo)     H(rot)  DE(clash)    DE(int)     intcor
     10.89     -13.14       1.03        0.00      83.56       2.17       0.55       1.70       ----

> <Gold.Chemscore.Fitness>
10.8920

> <Gold.Chemscore.DG>
-13.1410

> <Gold.Chemscore.ZeroCoef>
-5.4800

> <Gold.Chemscore.Hbond>
1.0294

> <Gold.Chemscore.Metal>
0.0000

> <Gold.Chemscore.Lipo>
83.5567

> <Gold.Chemscore.Internal_Hbond>
0.0000

> <Gold.Chemscore.DEClash>
0.5464

> <Gold.Chemscore.DEInternal>
1.7025

> <Gold.Chemscore.Rot>
2.1693

> <Gold.Chemscore.Internal.Correction>
   9.000000E+99

> <Gold.Chemscore.Hbonds>
donor molecule, donor type, donor heavy atom, donor atom, acceptor molecule, acceptor atom, score
      L1  H    16    35       P1 10175  0.99
      P1  H  7989  7998       L1     6  0.01

> <Gold.Chemscore.Hbond.Weighted>
-3.4382

> <Gold.Chemscore.Metal.Weighted>
-0.0000

> <Gold.Chemscore.Lipo.Weighted>
-9.7761

> <Gold.Chemscore.Internal_Hbond.Weighted>
0.0000

> <Gold.Chemscore.DEClash.Weighted>
0.5464

> <Gold.Chemscore.DEInternal.Weighted>
1.7025

> <Gold.Chemscore.Rot.Weighted>
5.5533

> <Gold.Chemscore.Internal.Correction.Weighted>
   9.000000E+99

> <Gold.Protein.RotatedTorsions>
[ 6907 6896 6895 6894 ] final -128.30 input  -60.11 | X-H torsion
[ 7974 7965 7964 7962 ] final -106.99 input  175.53 | X-H torsion
[ 8008 7997 7996 7995 ] final  -28.54 input   59.86 | X-H torsion
[ 10167 10162 10161 10158 ] final  -62.72 input  -65.29 | X-H torsion
[ 10718 10713 10712 10709 ] final  -61.59 input   66.30 | X-H torsion
[ 10763 10752 10751 10750 ] final  -34.80 input  -60.55 | X-H torsion
[ 11005 11000 10999 10996 ] final  177.25 input  -57.11 | X-H torsion

> <Gold.Protein.ActiveResidues>
 VAL166  LYS551  ARG553  GLY616  TRP617  ASP618  TYR619  PRO620  LYS621  CYS622 
 ASP623  PHE694  ASN695  SER759  ASP760  ASP761  ALA762  ILE779  LEU786  VAL792 
 PHE793  MET794  SER795  GLU796  ALA797  LYS798  CYS799  TRP800  GLU811  SER814 

> <Gold.Protein.RotatedAtoms>
  150.9165  133.6933  159.2842 H   0  0  0  0  0  0  0  0  0  0  0  0  # atno 6907 bound_to 6896
  151.4402  135.1018  159.9678 H   0  0  0  0  0  0  0  0  0  0  0  0  # atno 6908 bound_to 6896
  152.4957  133.8574  159.7288 H   0  0  0  0  0  0  0  0  0  0  0  0  # atno 6909 bound_to 6896
  145.2109  140.9096  143.3315 H   0  0  0  0  0  0  0  0  0  0  0  0  # atno 7974 bound_to 7965
  154.4328  140.1842  156.1105 H   0  0  0  0  0  0  0  0  0  0  0  0  # atno 8008 bound_to 7997
  156.0221  140.3339  155.7025 H   0  0  0  0  0  0  0  0  0  0  0  0  # atno 8009 bound_to 7997
  155.5961  140.0635  157.2736 H   0  0  0  0  0  0  0  0  0  0  0  0  # atno 8010 bound_to 7997
  140.5920  143.2343  151.6119 H   0  0  0  0  0  0  0  0  0  0  0  0  # atno 10167 bound_to 10162
  156.0911  130.4200  150.1015 H   0  0  0  0  0  0  0  0  0  0  0  0  # atno 10718 bound_to 10713
  153.8527  135.6847  153.4791 H   0  0  0  0  0  0  0  0  0  0  0  0  # atno 10763 bound_to 10752
  153.1388  135.4666  154.9461 H   0  0  0  0  0  0  0  0  0  0  0  0  # atno 10764 bound_to 10752
  154.7795  135.3264  154.7969 H   0  0  0  0  0  0  0  0  0  0  0  0  # atno 10765 bound_to 10752
  140.3821  134.6937  157.4457 H   0  0  0  0  0  0  0  0  0  0  0  0  # atno 11005 bound_to 11000
  144.9857  139.3739  143.6240 LP  0  0  0  0  0  0  0  0  0  0  0  0  # atno 17320 bound_to 7965
  146.3398  139.9017  142.8793 LP  0  0  0  0  0  0  0  0  0  0  0  0  # atno 17321 bound_to 7965
  139.5233  144.3136  152.0972 LP  0  0  0  0  0  0  0  0  0  0  0  0  # atno 17342 bound_to 10162
  140.2302  144.4376  150.6303 LP  0  0  0  0  0  0  0  0  0  0  0  0  # atno 17343 bound_to 10162
  156.9025  130.9625  151.3574 LP  0  0  0  0  0  0  0  0  0  0  0  0  # atno 17370 bound_to 10713
  157.6061  130.8548  149.8877 LP  0  0  0  0  0  0  0  0  0  0  0  0  # atno 17371 bound_to 10713
  140.0471  134.6184  155.8908 LP  0  0  0  0  0  0  0  0  0  0  0  0  # atno 17394 bound_to 11000
  141.1920  133.6573  156.5482 LP  0  0  0  0  0  0  0  0  0  0  0  0  # atno 17395 bound_to 11000

$$$$
