AV-unprocessed.smi:110|AV-procd|sdf|1065|dock8
  -GOLD-   2262018143D 1   1.00000     0.00000
 Structure written by MMmdl.
 46 50  0  0  0  0  0  0  0  0  1 V2000
  143.6258  137.9586  152.6027 O   0  0  0  0  0  0  0  0  0  0  0  0
  144.3825  137.5392  153.7181 C   0  0  0  0  0  0  0  0  0  0  0  0
  145.6895  138.3423  153.8025 C   0  0  1  0  0  0  0  0  0  0  0  0
  146.5652  137.7409  154.7567 O   0  0  0  0  0  0  0  0  0  0  0  0
  147.9000  137.9253  154.3845 C   0  0  2  0  0  0  0  0  0  0  0  0
  148.6228  138.6843  155.4579 N   0  0  0  0  0  0  0  0  0  0  0  0
  148.0677  139.2749  156.5701 C   0  0  0  0  0  0  0  0  0  0  0  0
  148.9088  139.8849  157.3592 N   0  0  0  0  0  0  0  0  0  0  0  0
  150.1457  139.6967  156.7542 C   0  0  0  0  0  0  0  0  0  0  0  0
  151.4795  140.0907  157.0643 C   0  0  0  0  0  0  0  0  0  0  0  0
  151.8371  140.8152  158.1508 N   0  0  0  0  0  0  0  0  0  0  0  0
  152.6832  140.1906  159.1779 C   0  0  0  0  0  0  0  0  0  0  0  0
  153.3337  141.3217  159.9969 C   0  0  0  0  0  0  0  0  0  0  0  0
  152.6748  142.5221  159.3983 C   0  0  0  0  0  0  0  0  0  0  0  0
  152.8237  143.8621  159.7955 C   0  0  0  0  0  0  0  0  0  0  0  0
  152.0853  144.8465  159.1045 C   0  0  0  0  0  0  0  0  0  0  0  0
  151.2161  144.4794  158.0509 C   0  0  0  0  0  0  0  0  0  0  0  0
  151.0811  143.1261  157.6703 C   0  0  0  0  0  0  0  0  0  0  0  0
  151.8385  142.1502  158.3504 C   0  0  0  0  0  0  0  0  0  0  0  0
  152.4545  139.7599  156.1802 N   0  0  0  0  0  0  0  0  0  0  0  0
  152.1569  139.0556  155.0854 C   0  0  0  0  0  0  0  0  0  0  0  0
  150.9686  138.6037  154.6836 N   0  0  0  0  0  0  0  0  0  0  0  0
  149.9748  138.9561  155.5491 C   0  0  0  0  0  0  0  0  0  0  0  0
  147.9135  138.6352  153.0171 C   0  0  2  0  0  0  0  0  0  0  0  0
  148.1527  140.0317  153.1013 O   0  0  0  0  0  0  0  0  0  0  0  0
  146.5149  138.3059  152.5148 C   0  0  2  0  0  0  0  0  0  0  0  0
  146.0504  139.2037  151.5237 O   0  0  0  0  0  0  0  0  0  0  0  0
  145.4958  139.3798  154.0798 H   0  0  0  0  0  0  0  0  0  0  0  0
  148.3915  136.9519  154.3580 H   0  0  0  0  0  0  0  0  0  0  0  0
  148.6852  138.1941  152.3856 H   0  0  0  0  0  0  0  0  0  0  0  0
  146.5111  137.2944  152.1056 H   0  0  0  0  0  0  0  0  0  0  0  0
  144.2181  138.2865  151.9434 H   0  0  0  0  0  0  0  0  0  0  0  0
  143.7972  137.6349  154.6329 H   0  0  0  0  0  0  0  0  0  0  0  0
  144.6018  136.4797  153.5828 H   0  0  0  0  0  0  0  0  0  0  0  0
  147.0085  139.2401  156.7797 H   0  0  0  0  0  0  0  0  0  0  0  0
  152.0628  139.5637  159.8196 H   0  0  0  0  0  0  0  0  0  0  0  0
  153.4420  139.5529  158.7222 H   0  0  0  0  0  0  0  0  0  0  0  0
  153.1178  141.2396  161.0625 H   0  0  0  0  0  0  0  0  0  0  0  0
  154.4127  141.3664  159.8470 H   0  0  0  0  0  0  0  0  0  0  0  0
  153.4810  144.1305  160.6093 H   0  0  0  0  0  0  0  0  0  0  0  0
  152.1783  145.8847  159.3873 H   0  0  0  0  0  0  0  0  0  0  0  0
  150.6472  145.2392  157.5358 H   0  0  0  0  0  0  0  0  0  0  0  0
  150.4043  142.8517  156.8751 H   0  0  0  0  0  0  0  0  0  0  0  0
  152.9890  138.8216  154.4381 H   0  0  0  0  0  0  0  0  0  0  0  0
  148.5092  140.3250  152.2767 H   0  0  0  0  0  0  0  0  0  0  0  0
  145.4372  139.8016  151.9229 H   0  0  0  0  0  0  0  0  0  0  0  0
  1  2  1  0  0  0  0
  1 32  1  0  0  0  0
  2  3  1  0  0  0  0
  2 33  1  0  0  0  0
  2 34  1  0  0  0  0
  3 28  1  0  0  0  0
  3 26  1  0  0  0  0
  3  4  1  0  0  0  0
  4  5  1  0  0  0  0
  5 29  1  0  0  0  0
  5  6  1  0  0  0  0
  5 24  1  0  0  0  0
  6 23  1  0  0  0  0
  6  7  1  0  0  0  0
  7  8  2  0  0  0  0
  7 35  1  0  0  0  0
  8  9  1  0  0  0  0
  9 23  2  0  0  0  0
  9 10  1  0  0  0  0
 10 11  1  0  0  0  0
 10 20  2  0  0  0  0
 11 19  1  0  0  0  0
 11 12  1  0  0  0  0
 12 13  1  0  0  0  0
 12 36  1  0  0  0  0
 12 37  1  0  0  0  0
 13 14  1  0  0  0  0
 13 38  1  0  0  0  0
 13 39  1  0  0  0  0
 14 19  2  0  0  0  0
 14 15  1  0  0  0  0
 15 16  2  0  0  0  0
 15 40  1  0  0  0  0
 16 17  1  0  0  0  0
 16 41  1  0  0  0  0
 17 18  2  0  0  0  0
 17 42  1  0  0  0  0
 18 19  1  0  0  0  0
 18 43  1  0  0  0  0
 20 21  1  0  0  0  0
 21 22  2  0  0  0  0
 21 44  1  0  0  0  0
 22 23  1  0  0  0  0
 24 30  1  0  0  0  0
 24 25  1  0  0  0  0
 24 26  1  0  0  0  0
 25 45  1  0  0  0  0
 26 31  1  0  0  0  0
 26 27  1  0  0  0  0
 27 46  1  0  0  0  0
M  END
> <s_m_source_file>
AV-unprocessed.smi

> <i_m_source_file_index>
110

> <i_lp_mmshare_version>
43012

> <i_f3d_flags>
0

> <s_epik_input>
W09IXVtDSDJdW0NASF0xT1tDQEhdKFtDQEhdKFtPSF0pW0NAQEhdMVtPSF0pbihbY0hdbjIpYyhjMjMpbltjSF1uYzNOKFtDSDJdW0NIMl00KWMoYzQ1KVtjSF1bY0hdW2NIXVtjSF01

> <s_epik_cmdline>
J2VwaWtfcHl0aG9uJywgJy1waCcsICc3LjAnLCAnLXRuJywgJzgnLCAnLW1hJywgJzIwMCcsICctbWV0YWxfYmluZGluZycsICctaW1hZScsICc8aW5maWxlLm1hZT4nLCAnLW9tYWUnLCAnPG91dGZpbGUubWFlPic=

> <r_lp_tautomer_probability>
1

> <r_epik_Ionization_Penalty>
0.00068475

> <r_epik_Ionization_Penalty_Charging>
0

> <r_epik_Ionization_Penalty_Neutral>
0.00068475

> <r_epik_State_Penalty>
0.000417442

> <r_epik_Charging_Adjusted_Penalty>
0.000417442

> <i_epik_Tot_Q>
0

> <i_epik_Tot_abs_Q>
0

> <r_epik_Metal_State_Penalty>
-0

> <b_epik_Metal_Only>
0

> <s_epik_Chemistry_Notes>
This compound contains an acetal/aminal-like group ( X-CH(R)-Y where X, Y are N, S, or O) that may be acid/base labile, releasing an aldehyde.

> <s_lp_Force_Field>
OPLS_2005

> <r_lp_Energy>
69.6213

> <b_lp_Chiralities_Consistent>
1

> <s_lp_Variant>
AV-unprocessed.smi:110-3

> <Gold.Version>
5.8.1

> <Gold.Id.Protein>
6NUR|6NUR_protein|mol2

> <Gold.PLP.Fitness>
51.6335

> <Gold.PLP.PLP>
-44.5884

> <Gold.PLP.part.hbond>
-5.1642

> <Gold.PLP.part.metal>
0.0000

> <Gold.PLP.part.buried>
-1.2667

> <Gold.PLP.part.nonpolar>
-38.4720

> <Gold.PLP.part.repulsive>
0.2037

> <Gold.PLP.ligand.clash>
0.0000

> <Gold.PLP.ligand.torsion>
1.5244

> <Gold.PLP.Chemscore.Hbond>
3.3331

> <Gold.PLP.Chemscore.CHOScore>
0.0000

> <Gold.PLP.Chemscore.Metal>
0.0000

> <Gold.Chemscore.Hbonds>
donor molecule, donor type, donor heavy atom, donor atom, acceptor molecule, acceptor atom, score
      L1  H     1    32       P1 10171  0.37
      L1  H    25    45       P1  7957  0.91
      L1  H    27    46       P1 10175  1.00
      P1  H  7997  8010       L1    20  1.00

> <Gold.PLP.Chemscore.Internal.Correction>
0.0946

> <Gold.Rescore>
     Score         DG    S(hbond)    S(metal)    S(lipo)     H(rot)  DE(clash)    DE(int)     intcor
     18.19     -19.76       3.10        0.00     107.72       3.38       0.13       1.44       ----

> <Gold.Chemscore.Fitness>
18.1881

> <Gold.Chemscore.DG>
-19.7609

> <Gold.Chemscore.ZeroCoef>
-5.4800

> <Gold.Chemscore.Hbond>
3.0958

> <Gold.Chemscore.Metal>
0.0000

> <Gold.Chemscore.Lipo>
107.7178

> <Gold.Chemscore.Internal_Hbond>
0.0000

> <Gold.Chemscore.DEClash>
0.1295

> <Gold.Chemscore.DEInternal>
1.4433

> <Gold.Chemscore.Rot>
3.3837

> <Gold.Chemscore.Internal.Correction>
   9.000000E+99

> <Gold.Chemscore.Hbonds>
donor molecule, donor type, donor heavy atom, donor atom, acceptor molecule, acceptor atom, score
      L1  H     1    32       P1 10171  0.37
      L1  H    25    45       P1  7957  0.88
      L1  H    27    46       P1 10175  0.73
      P1  H  7997  8010       L1    20  0.91

> <Gold.Chemscore.Hbond.Weighted>
-10.3401

> <Gold.Chemscore.Metal.Weighted>
-0.0000

> <Gold.Chemscore.Lipo.Weighted>
-12.6030

> <Gold.Chemscore.Internal_Hbond.Weighted>
0.0000

> <Gold.Chemscore.DEClash.Weighted>
0.1295

> <Gold.Chemscore.DEInternal.Weighted>
1.4433

> <Gold.Chemscore.Rot.Weighted>
8.6622

> <Gold.Chemscore.Internal.Correction.Weighted>
   9.000000E+99

> <Gold.Protein.RotatedTorsions>
[ 6907 6896 6895 6894 ] final  -51.36 input  -60.11 | X-H torsion
[ 7974 7965 7964 7962 ] final   56.57 input  175.53 | X-H torsion
[ 8008 7997 7996 7995 ] final   66.76 input   59.86 | X-H torsion
[ 10167 10162 10161 10158 ] final -133.19 input  -65.29 | X-H torsion
[ 10718 10713 10712 10709 ] final  140.66 input   66.30 | X-H torsion
[ 10763 10752 10751 10750 ] final   -3.07 input  -60.55 | X-H torsion
[ 11005 11000 10999 10996 ] final -171.07 input  -57.11 | X-H torsion

> <Gold.Protein.ActiveResidues>
 VAL166  LYS551  ARG553  GLY616  TRP617  ASP618  TYR619  PRO620  LYS621  CYS622 
 ASP623  PHE694  ASN695  SER759  ASP760  ASP761  ALA762  ILE779  LEU786  VAL792 
 PHE793  MET794  SER795  GLU796  ALA797  LYS798  CYS799  TRP800  GLU811  SER814 

> <Gold.Protein.RotatedAtoms>
  150.8618  134.7972  159.7088 H   0  0  0  0  0  0  0  0  0  0  0  0  # atno 6907 bound_to 6896
  152.4653  134.5087  159.9757 H   0  0  0  0  0  0  0  0  0  0  0  0  # atno 6908 bound_to 6896
  151.5190  133.3432  159.2933 H   0  0  0  0  0  0  0  0  0  0  0  0  # atno 6909 bound_to 6896
  145.9384  139.3867  143.0379 H   0  0  0  0  0  0  0  0  0  0  0  0  # atno 7974 bound_to 7965
  155.6824  140.3496  155.4860 H   0  0  0  0  0  0  0  0  0  0  0  0  # atno 8008 bound_to 7997
  155.9595  140.1134  157.0930 H   0  0  0  0  0  0  0  0  0  0  0  0  # atno 8009 bound_to 7997
  154.4140  140.1178  156.5146 H   0  0  0  0  0  0  0  0  0  0  0  0  # atno 8010 bound_to 7997
  139.9008  143.6609  152.2595 H   0  0  0  0  0  0  0  0  0  0  0  0  # atno 10167 bound_to 10162
  157.4008  131.1016  151.0554 H   0  0  0  0  0  0  0  0  0  0  0  0  # atno 10718 bound_to 10713
  153.3664  135.6992  153.6671 H   0  0  0  0  0  0  0  0  0  0  0  0  # atno 10763 bound_to 10752
  153.5339  135.3586  155.2689 H   0  0  0  0  0  0  0  0  0  0  0  0  # atno 10764 bound_to 10752
  154.8675  135.4187  154.2933 H   0  0  0  0  0  0  0  0  0  0  0  0  # atno 10765 bound_to 10752
  140.5124  134.5789  157.5023 H   0  0  0  0  0  0  0  0  0  0  0  0  # atno 11005 bound_to 11000
  145.8333  140.9619  143.0837 LP  0  0  0  0  0  0  0  0  0  0  0  0  # atno 17320 bound_to 7965
  144.6775  140.0191  143.7484 LP  0  0  0  0  0  0  0  0  0  0  0  0  # atno 17321 bound_to 7965
  139.7027  144.7632  151.1246 LP  0  0  0  0  0  0  0  0  0  0  0  0  # atno 17342 bound_to 10162
  140.7707  143.5437  150.9284 LP  0  0  0  0  0  0  0  0  0  0  0  0  # atno 17343 bound_to 10162
  157.1553  130.6202  149.5594 LP  0  0  0  0  0  0  0  0  0  0  0  0  # atno 17370 bound_to 10713
  155.9823  130.4835  150.6872 LP  0  0  0  0  0  0  0  0  0  0  0  0  # atno 17371 bound_to 10713
  139.9651  134.7386  156.0154 LP  0  0  0  0  0  0  0  0  0  0  0  0  # atno 17394 bound_to 11000
  141.1378  133.6571  156.3644 LP  0  0  0  0  0  0  0  0  0  0  0  0  # atno 17395 bound_to 11000

$$$$
