AV-unprocessed.smi:3292|AV-procd|sdf|12624|dock7
  -GOLD-   2272018553D 1   1.00000     0.00000
 Structure written by MMmdl.
 39 40  0  0  0  0  0  0  0  0  2 V2000
  145.8713  133.2125  154.0540 C   0  0  0  0  0  0  0  0  0  0  0  0
  147.1519  133.0003  153.2303 C   0  0  1  0  0  0  0  0  0  0  0  0
  146.8778  132.8033  151.7234 C   0  0  0  0  0  0  0  0  0  0  0  0
  145.8018  133.6641  151.2241 N   0  0  0  0  0  0  0  0  0  0  0  0
  145.8106  135.0325  151.1390 C   0  0  0  0  0  0  0  0  0  0  0  0
  144.5960  135.3996  150.6197 C   0  0  0  0  0  0  0  0  0  0  0  0
  143.8964  134.2408  150.4134 N   0  3  0  0  0  0  0  0  0  0  0  0
  144.6301  133.1864  150.7845 C   0  0  0  0  0  0  0  0  0  0  0  0
  148.0494  134.1338  153.4337 N   0  0  0  0  0  0  0  0  0  0  0  0
  148.8233  134.3174  154.5132 C   0  0  0  0  0  0  0  0  0  0  0  0
  148.8615  133.5446  155.4709 O   0  0  0  0  0  0  0  0  0  0  0  0
  149.5582  135.4341  154.4163 N   0  0  0  0  0  0  0  0  0  0  0  0
  150.5168  135.9022  155.4124 C   0  0  0  0  0  0  0  0  0  0  0  0
  150.5564  137.4402  155.4933 C   0  0  1  0  0  0  0  0  0  0  0  0
  151.8022  137.9849  156.1609 C   0  0  0  0  0  0  0  0  0  0  0  0
  151.7958  139.4405  155.7033 C   0  0  0  0  0  0  0  0  0  0  0  0
  151.1839  139.4417  154.4168 O   0  0  0  0  0  0  0  0  0  0  0  0
  150.6127  138.1654  154.1468 C   0  0  0  0  0  0  0  0  0  0  0  0
  145.2135  132.3448  154.0014 H   0  0  0  0  0  0  0  0  0  0  0  0
  145.3107  134.0782  153.7002 H   0  0  0  0  0  0  0  0  0  0  0  0
  146.1053  133.3752  155.1065 H   0  0  0  0  0  0  0  0  0  0  0  0
  147.6403  132.1030  153.6156 H   0  0  0  0  0  0  0  0  0  0  0  0
  147.7780  133.0003  151.1387 H   0  0  0  0  0  0  0  0  0  0  0  0
  146.5863  131.7729  151.5148 H   0  0  0  0  0  0  0  0  0  0  0  0
  146.6597  135.6266  151.4458 H   0  0  0  0  0  0  0  0  0  0  0  0
  144.1876  136.3728  150.3889 H   0  0  0  0  0  0  0  0  0  0  0  0
  144.3348  132.1533  150.7348 H   0  0  0  0  0  0  0  0  0  0  0  0
  148.0869  134.8246  152.6982 H   0  0  0  0  0  0  0  0  0  0  0  0
  149.4535  136.0015  153.5876 H   0  0  0  0  0  0  0  0  0  0  0  0
  150.2126  135.4965  156.3775 H   0  0  0  0  0  0  0  0  0  0  0  0
  151.5119  135.5000  155.2136 H   0  0  0  0  0  0  0  0  0  0  0  0
  149.6860  137.7964  156.0473 H   0  0  0  0  0  0  0  0  0  0  0  0
  151.7874  137.8819  157.2463 H   0  0  0  0  0  0  0  0  0  0  0  0
  152.6909  137.4782  155.7814 H   0  0  0  0  0  0  0  0  0  0  0  0
  151.1882  140.0476  156.3753 H   0  0  0  0  0  0  0  0  0  0  0  0
  152.7969  139.8709  155.6700 H   0  0  0  0  0  0  0  0  0  0  0  0
  151.2674  137.6386  153.4513 H   0  0  0  0  0  0  0  0  0  0  0  0
  149.6316  138.2609  153.6813 H   0  0  0  0  0  0  0  0  0  0  0  0
  142.9586  134.1868  150.0360 H   0  0  0  0  0  0  0  0  0  0  0  0
  1  2  1  0  0  0  0
  1 19  1  0  0  0  0
  1 20  1  0  0  0  0
  1 21  1  0  0  0  0
  2  3  1  0  0  0  0
  2  9  1  0  0  0  0
  2 22  1  0  0  0  0
  3  4  1  0  0  0  0
  3 23  1  0  0  0  0
  3 24  1  0  0  0  0
  4  8  1  0  0  0  0
  4  5  1  0  0  0  0
  5  6  2  0  0  0  0
  5 25  1  0  0  0  0
  6  7  1  0  0  0  0
  6 26  1  0  0  0  0
  7  8  2  0  0  0  0
  7 39  1  0  0  0  0
  8 27  1  0  0  0  0
  9 10  1  0  0  0  0
  9 28  1  0  0  0  0
 10 11  2  0  0  0  0
 10 12  1  0  0  0  0
 12 13  1  0  0  0  0
 12 29  1  0  0  0  0
 13 14  1  0  0  0  0
 13 30  1  0  0  0  0
 13 31  1  0  0  0  0
 14 18  1  0  0  0  0
 14 15  1  0  0  0  0
 14 32  1  0  0  0  0
 15 16  1  0  0  0  0
 15 33  1  0  0  0  0
 15 34  1  0  0  0  0
 16 17  1  0  0  0  0
 16 35  1  0  0  0  0
 16 36  1  0  0  0  0
 17 18  1  0  0  0  0
 18 37  1  0  0  0  0
 18 38  1  0  0  0  0
M  CHG  1   7   1
M  END
> <s_m_source_file>
AV-unprocessed.smi

> <i_m_source_file_index>
3292

> <i_lp_mmshare_version>
43012

> <i_f3d_flags>
0

> <s_epik_input>
W2NIXTFuW2NIXVtjSF1uMVtDSDJdW0NAQEhdKFtDSDNdKVtOSF1DKD1PKVtOSF1bQ0gyXVtDQEBIXTJbQ0gyXVtDSDJdT1tDSDJdMg==

> <s_epik_cmdline>
J2VwaWtfcHl0aG9uJywgJy1waCcsICc3LjAnLCAnLXRuJywgJzgnLCAnLW1hJywgJzIwMCcsICctbWV0YWxfYmluZGluZycsICctaW1hZScsICc8aW5maWxlLm1hZT4nLCAnLW9tYWUnLCAnPG91dGZpbGUubWFlPic=

> <r_lp_tautomer_probability>
1

> <r_epik_Ionization_Penalty>
0.255703

> <r_epik_Ionization_Penalty_Charging>
0

> <r_epik_Ionization_Penalty_Neutral>
0.255703

> <r_epik_State_Penalty>
0.247169

> <r_epik_Charging_Adjusted_Penalty>
0.247169

> <i_epik_Tot_Q>
1

> <i_epik_Tot_abs_Q>
1

> <r_epik_Metal_State_Penalty>
0.536791

> <b_epik_Metal_Only>
0

> <s_lp_Force_Field>
OPLS_2005

> <r_lp_Energy>
19.2817

> <b_lp_Chiralities_Consistent>
1

> <s_lp_Variant>
AV-unprocessed.smi:3292-4

> <Gold.Version>
5.8.1

> <Gold.Id.Protein>
6NUR|6NUR_protein|mol2

> <Gold.PLP.Fitness>
47.6219

> <Gold.PLP.PLP>
-31.2927

> <Gold.PLP.part.hbond>
-4.2364

> <Gold.PLP.part.metal>
0.0000

> <Gold.PLP.part.buried>
-3.2536

> <Gold.PLP.part.nonpolar>
-23.2335

> <Gold.PLP.part.repulsive>
0.1996

> <Gold.PLP.ligand.clash>
0.0000

> <Gold.PLP.ligand.torsion>
0.8681

> <Gold.PLP.Chemscore.Hbond>
4.9920

> <Gold.PLP.Chemscore.CHOScore>
1.0000

> <Gold.PLP.Chemscore.Metal>
0.0000

> <Gold.Chemscore.Hbonds>
donor molecule, donor type, donor heavy atom, donor atom, acceptor molecule, acceptor atom, score
      L1  H     7    39       P1 10186  2.00
      L1  H     9    28       P1  7948  1.00
      L1  H    12    29       P1  7948  1.00
      P1  H  7989  7998       L1    17  1.00
      L1  C     5    25       P1  7948  1.00

> <Gold.PLP.Chemscore.Internal.Correction>
0.0894

> <Gold.Rescore>
     Score         DG    S(hbond)    S(metal)    S(lipo)     H(rot)  DE(clash)    DE(int)     intcor
     16.98     -17.78       3.54        0.00      52.95       2.24       0.00       0.80       ----

> <Gold.Chemscore.Fitness>
16.9755

> <Gold.Chemscore.DG>
-17.7817

> <Gold.Chemscore.ZeroCoef>
-5.4800

> <Gold.Chemscore.Hbond>
3.5426

> <Gold.Chemscore.Metal>
0.0000

> <Gold.Chemscore.Lipo>
52.9507

> <Gold.Chemscore.Internal_Hbond>
0.0000

> <Gold.Chemscore.DEClash>
0.0015

> <Gold.Chemscore.DEInternal>
0.8047

> <Gold.Chemscore.Rot>
2.2367

> <Gold.Chemscore.Internal.Correction>
   9.000000E+99

> <Gold.Chemscore.Hbonds>
donor molecule, donor type, donor heavy atom, donor atom, acceptor molecule, acceptor atom, score
      L1  H     7    39       P1 10186  0.92
      L1  H     9    28       P1  7948  0.70
      L1  H    12    29       P1  7948  0.48
      P1  H  7989  7998       L1    17  0.82

> <Gold.Chemscore.Hbond.Weighted>
-11.8324

> <Gold.Chemscore.Metal.Weighted>
-0.0000

> <Gold.Chemscore.Lipo.Weighted>
-6.1952

> <Gold.Chemscore.Internal_Hbond.Weighted>
0.0000

> <Gold.Chemscore.DEClash.Weighted>
0.0015

> <Gold.Chemscore.DEInternal.Weighted>
0.8047

> <Gold.Chemscore.Rot.Weighted>
5.7259

> <Gold.Chemscore.Internal.Correction.Weighted>
   9.000000E+99

> <Gold.Protein.RotatedTorsions>
[ 6907 6896 6895 6894 ] final   21.73 input  -60.11 | X-H torsion
[ 7974 7965 7964 7962 ] final -109.06 input  175.53 | X-H torsion
[ 8008 7997 7996 7995 ] final   82.73 input   59.86 | X-H torsion
[ 10167 10162 10161 10158 ] final  118.03 input  -65.29 | X-H torsion
[ 10718 10713 10712 10709 ] final  -32.07 input   66.30 | X-H torsion
[ 10763 10752 10751 10750 ] final -149.78 input  -60.55 | X-H torsion
[ 11005 11000 10999 10996 ] final  167.95 input  -57.11 | X-H torsion

> <Gold.Protein.ActiveResidues>
 VAL166  LYS551  ARG553  GLY616  TRP617  ASP618  TYR619  PRO620  LYS621  CYS622 
 ASP623  PHE694  ASN695  SER759  ASP760  ASP761  ALA762  ILE779  LEU786  VAL792 
 PHE793  MET794  SER795  GLU796  ALA797  LYS798  CYS799  TRP800  GLU811  SER814 

> <Gold.Protein.RotatedAtoms>
  151.9163  135.0317  160.0518 H   0  0  0  0  0  0  0  0  0  0  0  0  # atno 6907 bound_to 6896
  152.2237  133.4999  159.5185 H   0  0  0  0  0  0  0  0  0  0  0  0  # atno 6908 bound_to 6896
  150.7006  134.1225  159.4082 H   0  0  0  0  0  0  0  0  0  0  0  0  # atno 6909 bound_to 6896
  145.1851  140.8989  143.3457 H   0  0  0  0  0  0  0  0  0  0  0  0  # atno 7974 bound_to 7965
  155.9145  140.3425  155.6124 H   0  0  0  0  0  0  0  0  0  0  0  0  # atno 8008 bound_to 7997
  155.7348  140.0800  157.2291 H   0  0  0  0  0  0  0  0  0  0  0  0  # atno 8009 bound_to 7997
  154.4060  140.1581  156.2537 H   0  0  0  0  0  0  0  0  0  0  0  0  # atno 8010 bound_to 7997
  139.6139  144.7088  151.2783 H   0  0  0  0  0  0  0  0  0  0  0  0  # atno 10167 bound_to 10162
  156.3794  130.4353  149.7481 H   0  0  0  0  0  0  0  0  0  0  0  0  # atno 10718 bound_to 10713
  154.8157  135.3300  154.7182 H   0  0  0  0  0  0  0  0  0  0  0  0  # atno 10763 bound_to 10752
  153.7823  135.6917  153.4890 H   0  0  0  0  0  0  0  0  0  0  0  0  # atno 10764 bound_to 10752
  153.1972  135.4529  155.0169 H   0  0  0  0  0  0  0  0  0  0  0  0  # atno 10765 bound_to 10752
  140.2821  134.7742  157.3767 H   0  0  0  0  0  0  0  0  0  0  0  0  # atno 11005 bound_to 11000
  145.0097  139.3521  143.6126 LP  0  0  0  0  0  0  0  0  0  0  0  0  # atno 17320 bound_to 7965
  146.3446  139.9354  142.8748 LP  0  0  0  0  0  0  0  0  0  0  0  0  # atno 17321 bound_to 7965
  140.7338  143.6785  150.8021 LP  0  0  0  0  0  0  0  0  0  0  0  0  # atno 17342 bound_to 10162
  140.0385  143.5371  152.2729 LP  0  0  0  0  0  0  0  0  0  0  0  0  # atno 17343 bound_to 10162
  156.4578  130.7937  151.2958 LP  0  0  0  0  0  0  0  0  0  0  0  0  # atno 17370 bound_to 10713
  157.7491  131.0075  150.3194 LP  0  0  0  0  0  0  0  0  0  0  0  0  # atno 17371 bound_to 10713
  140.1273  134.5141  155.8134 LP  0  0  0  0  0  0  0  0  0  0  0  0  # atno 17394 bound_to 11000
  141.2161  133.6777  156.6976 LP  0  0  0  0  0  0  0  0  0  0  0  0  # atno 17395 bound_to 11000

$$$$
