AV-unprocessed.smi:2727|AV-procd|sdf|10523|dock1
  -GOLD-   2272014563D 1   1.00000     0.00000
 Structure written by MMmdl.
 40 41  0  0  0  0  0  0  0  0  1 V2000
  149.1458  141.2857  153.6895 O   0  0  0  0  0  0  0  0  0  0  0  0
  148.9912  140.4622  154.5975 C   0  0  0  0  0  0  0  0  0  0  0  0
  149.8039  140.4369  155.6649 N   0  0  0  0  0  0  0  0  0  0  0  0
  150.9248  141.3430  155.8936 C   0  0  0  0  0  0  0  0  0  0  0  0
  150.6910  142.2325  157.1318 C   0  0  0  0  0  0  0  0  0  0  0  0
  151.6893  141.9752  158.2749 C   0  0  0  0  0  0  0  0  0  0  0  0
  151.7235  140.8608  158.8002 O   0  0  0  0  0  0  0  0  0  0  0  0
  152.4986  142.9841  158.6818 N   0  0  0  0  0  0  0  0  0  0  0  0
  153.4139  142.8204  159.8179 C   0  0  0  0  0  0  0  0  0  0  0  0
  152.7012  143.0287  161.1699 C   0  0  0  0  0  0  0  0  0  0  0  0
  151.5890  144.1005  161.1871 C   0  0  0  0  0  0  0  0  0  0  0  0
  151.9042  145.3897  160.4029 C   0  0  0  0  0  0  0  0  0  0  0  0
  151.5896  145.2912  158.8949 C   0  0  0  0  0  0  0  0  0  0  0  0
  152.5106  144.3382  158.1096 C   0  0  0  0  0  0  0  0  0  0  0  0
  148.0251  139.4719  154.7100 N   0  0  0  0  0  0  0  0  0  0  0  0
  147.3718  139.0776  153.6596 C   0  0  0  0  0  0  0  0  0  0  0  0
  147.4151  139.4507  152.3185 N   0  0  0  0  0  0  0  0  0  0  0  0
  146.4938  138.7048  151.6381 C   0  0  0  0  0  0  0  0  0  0  0  0
  145.8954  137.8966  152.5079 C   0  0  0  0  0  0  0  0  0  0  0  0
  146.4120  138.1015  153.7521 O   0  0  0  0  0  0  0  0  0  0  0  0
  149.6268  139.7420  156.3759 H   0  0  0  0  0  0  0  0  0  0  0  0
  151.8470  140.7673  155.9939 H   0  0  0  0  0  0  0  0  0  0  0  0
  151.0411  141.9635  155.0044 H   0  0  0  0  0  0  0  0  0  0  0  0
  150.7485  143.2821  156.8415 H   0  0  0  0  0  0  0  0  0  0  0  0
  149.6822  142.0585  157.5054 H   0  0  0  0  0  0  0  0  0  0  0  0
  153.8952  141.8412  159.7945 H   0  0  0  0  0  0  0  0  0  0  0  0
  154.2373  143.5315  159.7454 H   0  0  0  0  0  0  0  0  0  0  0  0
  152.2663  142.0830  161.4954 H   0  0  0  0  0  0  0  0  0  0  0  0
  153.4538  143.2777  161.9188 H   0  0  0  0  0  0  0  0  0  0  0  0
  150.6589  143.6708  160.8122 H   0  0  0  0  0  0  0  0  0  0  0  0
  151.3873  144.3577  162.2274 H   0  0  0  0  0  0  0  0  0  0  0  0
  151.2922  146.1927  160.8146 H   0  0  0  0  0  0  0  0  0  0  0  0
  152.9393  145.6929  160.5637 H   0  0  0  0  0  0  0  0  0  0  0  0
  150.5484  144.9962  158.7622 H   0  0  0  0  0  0  0  0  0  0  0  0
  151.6708  146.2858  158.4553 H   0  0  0  0  0  0  0  0  0  0  0  0
  153.5252  144.7380  158.1069 H   0  0  0  0  0  0  0  0  0  0  0  0
  152.2256  144.3330  157.0577 H   0  0  0  0  0  0  0  0  0  0  0  0
  148.0046  140.1447  151.8816 H   0  0  0  0  0  0  0  0  0  0  0  0
  146.3613  138.8366  150.5743 H   0  0  0  0  0  0  0  0  0  0  0  0
  145.1191  137.1530  152.4038 H   0  0  0  0  0  0  0  0  0  0  0  0
  1  2  2  0  0  0  0
  2 15  1  0  0  0  0
  2  3  1  0  0  0  0
  3  4  1  0  0  0  0
  3 21  1  0  0  0  0
  4  5  1  0  0  0  0
  4 22  1  0  0  0  0
  4 23  1  0  0  0  0
  5  6  1  0  0  0  0
  5 24  1  0  0  0  0
  5 25  1  0  0  0  0
  6  7  2  0  0  0  0
  6  8  1  0  0  0  0
  8 14  1  0  0  0  0
  8  9  1  0  0  0  0
  9 10  1  0  0  0  0
  9 26  1  0  0  0  0
  9 27  1  0  0  0  0
 10 11  1  0  0  0  0
 10 28  1  0  0  0  0
 10 29  1  0  0  0  0
 11 12  1  0  0  0  0
 11 30  1  0  0  0  0
 11 31  1  0  0  0  0
 12 13  1  0  0  0  0
 12 32  1  0  0  0  0
 12 33  1  0  0  0  0
 13 14  1  0  0  0  0
 13 34  1  0  0  0  0
 13 35  1  0  0  0  0
 14 36  1  0  0  0  0
 14 37  1  0  0  0  0
 15 16  2  0  0  0  0
 16 20  1  0  0  0  0
 16 17  1  0  0  0  0
 17 38  1  0  0  0  0
 17 18  1  0  0  0  0
 18 39  1  0  0  0  0
 18 19  2  0  0  0  0
 19 40  1  0  0  0  0
 19 20  1  0  0  0  0
M  END
> <s_m_source_file>
AV-unprocessed.smi

> <i_m_source_file_index>
2727

> <i_lp_mmshare_version>
43012

> <i_f3d_flags>
0

> <s_epik_input>
bzFbY0hdW2NIXW5jMVtOSF1DKD1PKVtOSF1bQ0gyXVtDSDJdQyg9TylOMltDSDJdW0NIMl1bQ0gyXVtDSDJdW0NIMl1bQ0gyXTI=

> <s_epik_cmdline>
J2VwaWtfcHl0aG9uJywgJy1waCcsICc3LjAnLCAnLXRuJywgJzgnLCAnLW1hJywgJzIwMCcsICctbWV0YWxfYmluZGluZycsICctaW1hZScsICc8aW5maWxlLm1hZT4nLCAnLW9tYWUnLCAnPG91dGZpbGUubWFlPic=

> <r_lp_tautomer_probability>
0.107061

> <r_epik_Ionization_Penalty>
0.376272

> <r_epik_Ionization_Penalty_Charging>
0.375918

> <r_epik_Ionization_Penalty_Neutral>
0.000353756

> <r_epik_State_Penalty>
2.48665

> <r_epik_Charging_Adjusted_Penalty>
2.86256

> <i_epik_Tot_Q>
0

> <i_epik_Tot_abs_Q>
0

> <r_epik_Metal_State_Penalty>
4.1171

> <b_epik_Metal_Only>
0

> <s_lp_Force_Field>
OPLS_2005

> <r_lp_Energy>
47.9019

> <b_lp_Chiralities_Consistent>
1

> <s_lp_Variant>
AV-unprocessed.smi:2727-3

> <Gold.Version>
5.8.1

> <Gold.Id.Protein>
6NUR|6NUR_protein|mol2

> <Gold.PLP.Fitness>
53.2912

> <Gold.PLP.PLP>
-47.7928

> <Gold.PLP.part.hbond>
-2.9872

> <Gold.PLP.part.metal>
0.0000

> <Gold.PLP.part.buried>
-6.3467

> <Gold.PLP.part.nonpolar>
-41.5235

> <Gold.PLP.part.repulsive>
2.3494

> <Gold.PLP.ligand.clash>
0.0000

> <Gold.PLP.ligand.torsion>
0.4625

> <Gold.PLP.Chemscore.Hbond>
1.5520

> <Gold.PLP.Chemscore.CHOScore>
0.5736

> <Gold.PLP.Chemscore.Metal>
0.0000

> <Gold.Chemscore.Hbonds>
donor molecule, donor type, donor heavy atom, donor atom, acceptor molecule, acceptor atom, score
      L1  H    17    38       P1  7957  0.64
      P1  H  8011  8017       L1     1  0.88
      L1  C    18    39       P1 10171  0.58

> <Gold.PLP.Chemscore.Internal.Correction>
0.0466

> <Gold.Rescore>
     Score         DG    S(hbond)    S(metal)    S(lipo)     H(rot)  DE(clash)    DE(int)     intcor
     17.82     -19.87       1.86        0.00     107.13       1.70       1.59       0.46       ----

> <Gold.Chemscore.Fitness>
17.8239

> <Gold.Chemscore.DG>
-19.8716

> <Gold.Chemscore.ZeroCoef>
-5.4800

> <Gold.Chemscore.Hbond>
1.8609

> <Gold.Chemscore.Metal>
0.0000

> <Gold.Chemscore.Lipo>
107.1340

> <Gold.Chemscore.Internal_Hbond>
0.0000

> <Gold.Chemscore.DEClash>
1.5901

> <Gold.Chemscore.DEInternal>
0.4576

> <Gold.Chemscore.Rot>
1.7025

> <Gold.Chemscore.Internal.Correction>
   9.000000E+99

> <Gold.Chemscore.Hbonds>
donor molecule, donor type, donor heavy atom, donor atom, acceptor molecule, acceptor atom, score
      L1  H    17    38       P1  7957  0.64
      P1  H  8011  8017       L1     1  0.86

> <Gold.Chemscore.Hbond.Weighted>
-6.2153

> <Gold.Chemscore.Metal.Weighted>
-0.0000

> <Gold.Chemscore.Lipo.Weighted>
-12.5347

> <Gold.Chemscore.Internal_Hbond.Weighted>
0.0000

> <Gold.Chemscore.DEClash.Weighted>
1.5901

> <Gold.Chemscore.DEInternal.Weighted>
0.4576

> <Gold.Chemscore.Rot.Weighted>
4.3584

> <Gold.Chemscore.Internal.Correction.Weighted>
   9.000000E+99

> <Gold.Protein.RotatedTorsions>
[ 6907 6896 6895 6894 ] final  -30.21 input  -60.11 | X-H torsion
[ 7974 7965 7964 7962 ] final -110.94 input  175.53 | X-H torsion
[ 8008 7997 7996 7995 ] final  -80.36 input   59.86 | X-H torsion
[ 10167 10162 10161 10158 ] final  122.15 input  -65.29 | X-H torsion
[ 10718 10713 10712 10709 ] final  137.02 input   66.30 | X-H torsion
[ 10763 10752 10751 10750 ] final   60.79 input  -60.55 | X-H torsion
[ 11005 11000 10999 10996 ] final   -1.85 input  -57.11 | X-H torsion

> <Gold.Protein.ActiveResidues>
 VAL166  LYS551  ARG553  GLY616  TRP617  ASP618  TYR619  PRO620  LYS621  CYS622 
 ASP623  PHE694  ASN695  SER759  ASP760  ASP761  ALA762  ILE779  LEU786  VAL792 
 PHE793  MET794  SER795  GLU796  ALA797  LYS798  CYS799  TRP800  GLU811  SER814 

> <Gold.Protein.RotatedAtoms>
  151.1086  135.0014  159.8483 H   0  0  0  0  0  0  0  0  0  0  0  0  # atno 6907 bound_to 6896
  152.5442  134.1863  159.8666 H   0  0  0  0  0  0  0  0  0  0  0  0  # atno 6908 bound_to 6896
  151.1911  133.4622  159.2628 H   0  0  0  0  0  0  0  0  0  0  0  0  # atno 6909 bound_to 6896
  145.1621  140.8884  143.3584 H   0  0  0  0  0  0  0  0  0  0  0  0  # atno 7974 bound_to 7965
  154.5875  140.0664  156.9192 H   0  0  0  0  0  0  0  0  0  0  0  0  # atno 8008 bound_to 7997
  155.2354  140.3340  155.4280 H   0  0  0  0  0  0  0  0  0  0  0  0  # atno 8009 bound_to 7997
  156.2233  140.1808  156.7409 H   0  0  0  0  0  0  0  0  0  0  0  0  # atno 8010 bound_to 7997
  139.5876  144.7012  151.3370 H   0  0  0  0  0  0  0  0  0  0  0  0  # atno 10167 bound_to 10162
  157.4405  131.1057  151.0148 H   0  0  0  0  0  0  0  0  0  0  0  0  # atno 10718 bound_to 10713
  152.9931  135.5523  154.5931 H   0  0  0  0  0  0  0  0  0  0  0  0  # atno 10763 bound_to 10752
  154.5288  135.2812  155.1200 H   0  0  0  0  0  0  0  0  0  0  0  0  # atno 10764 bound_to 10752
  154.2524  135.6396  153.5298 H   0  0  0  0  0  0  0  0  0  0  0  0  # atno 10765 bound_to 10752
  140.6519  133.9397  155.8385 H   0  0  0  0  0  0  0  0  0  0  0  0  # atno 11005 bound_to 11000
  145.0320  139.3333  143.6020 LP  0  0  0  0  0  0  0  0  0  0  0  0  # atno 17320 bound_to 7965
  146.3481  139.9660  142.8711 LP  0  0  0  0  0  0  0  0  0  0  0  0  # atno 17321 bound_to 7965
  140.7145  143.7303  150.7629 LP  0  0  0  0  0  0  0  0  0  0  0  0  # atno 17342 bound_to 10162
  140.0851  143.4931  152.2509 LP  0  0  0  0  0  0  0  0  0  0  0  0  # atno 17343 bound_to 10162
  157.1013  130.5983  149.5461 LP  0  0  0  0  0  0  0  0  0  0  0  0  # atno 17370 bound_to 10713
  155.9947  130.5011  150.7430 LP  0  0  0  0  0  0  0  0  0  0  0  0  # atno 17371 bound_to 10713
  141.0530  134.0457  157.3759 LP  0  0  0  0  0  0  0  0  0  0  0  0  # atno 17394 bound_to 11000
  139.9043  135.0175  156.7413 LP  0  0  0  0  0  0  0  0  0  0  0  0  # atno 17395 bound_to 11000

$$$$
