AV-unprocessed.smi:2195|AV-procd|sdf|8904|dock3
  -GOLD-   2272012123D 1   1.00000     0.00000
 Structure written by MMmdl.
 39 41  0  0  0  0  0  0  0  0  1 V2000
  151.8894  144.9703  160.6158 C   0  0  0  0  0  0  0  0  0  0  0  0
  152.4463  143.5670  160.4939 C   0  0  0  0  0  0  0  0  0  0  0  0
  152.2756  142.8299  159.3052 C   0  0  0  0  0  0  0  0  0  0  0  0
  152.7988  141.5269  159.2017 C   0  0  0  0  0  0  0  0  0  0  0  0
  153.4985  140.9412  160.2764 C   0  0  0  0  0  0  0  0  0  0  0  0
  153.9773  139.6633  160.0858 O   0  0  0  0  0  0  0  0  0  0  0  0
  154.8821  139.1305  161.0451 C   0  0  0  0  0  0  0  0  0  0  0  0
  154.6352  137.6226  161.2164 C   0  0  2  0  0  0  0  0  0  0  0  0
  153.2703  137.4031  161.5140 O   0  0  0  0  0  0  0  0  0  0  0  0
  155.5538  136.9598  162.2614 C   0  0  0  0  0  0  0  0  0  0  0  0
  155.4309  135.5132  162.2652 N   0  0  0  0  0  0  0  0  0  0  0  0
  155.5992  134.6847  161.2167 C   0  0  0  0  0  0  0  0  0  0  0  0
  155.4393  133.3828  161.4364 N   0  0  0  0  0  0  0  0  0  0  0  0
  155.1332  133.3632  162.7863 C   0  0  0  0  0  0  0  0  0  0  0  0
  154.8470  132.2785  163.6457 C   0  0  0  0  0  0  0  0  0  0  0  0
  154.5568  132.5036  165.0076 C   0  0  0  0  0  0  0  0  0  0  0  0
  154.5477  133.8133  165.5301 C   0  0  0  0  0  0  0  0  0  0  0  0
  154.8297  134.9100  164.6932 C   0  0  0  0  0  0  0  0  0  0  0  0
  155.1195  134.6812  163.3352 C   0  0  0  0  0  0  0  0  0  0  0  0
  153.6650  141.6872  161.4705 C   0  0  0  0  0  0  0  0  0  0  0  0
  153.1411  142.9905  161.5751 C   0  0  0  0  0  0  0  0  0  0  0  0
  151.4281  145.2983  159.6837 H   0  0  0  0  0  0  0  0  0  0  0  0
  152.6855  145.6717  160.8664 H   0  0  0  0  0  0  0  0  0  0  0  0
  151.1356  145.0099  161.4023 H   0  0  0  0  0  0  0  0  0  0  0  0
  151.7444  143.2587  158.4681 H   0  0  0  0  0  0  0  0  0  0  0  0
  152.6639  140.9706  158.2857 H   0  0  0  0  0  0  0  0  0  0  0  0
  155.9182  139.3141  160.7549 H   0  0  0  0  0  0  0  0  0  0  0  0
  154.7138  139.6243  162.0036 H   0  0  0  0  0  0  0  0  0  0  0  0
  154.8127  137.1494  160.2498 H   0  0  0  0  0  0  0  0  0  0  0  0
  152.8932  136.8781  160.8246 H   0  0  0  0  0  0  0  0  0  0  0  0
  156.5954  137.2128  162.0591 H   0  0  0  0  0  0  0  0  0  0  0  0
  155.3326  137.3298  163.2631 H   0  0  0  0  0  0  0  0  0  0  0  0
  155.8516  135.0599  160.2356 H   0  0  0  0  0  0  0  0  0  0  0  0
  154.8503  131.2713  163.2562 H   0  0  0  0  0  0  0  0  0  0  0  0
  154.3393  131.6666  165.6546 H   0  0  0  0  0  0  0  0  0  0  0  0
  154.3234  133.9752  166.5744 H   0  0  0  0  0  0  0  0  0  0  0  0
  154.8218  135.9144  165.0899 H   0  0  0  0  0  0  0  0  0  0  0  0
  154.1904  141.2821  162.3217 H   0  0  0  0  0  0  0  0  0  0  0  0
  153.2751  143.5484  162.4904 H   0  0  0  0  0  0  0  0  0  0  0  0
  1  2  1  0  0  0  0
  1 22  1  0  0  0  0
  1 23  1  0  0  0  0
  1 24  1  0  0  0  0
  2 21  1  0  0  0  0
  2  3  2  0  0  0  0
  3  4  1  0  0  0  0
  3 25  1  0  0  0  0
  4  5  2  0  0  0  0
  4 26  1  0  0  0  0
  5  6  1  0  0  0  0
  5 20  1  0  0  0  0
  6  7  1  0  0  0  0
  7  8  1  0  0  0  0
  7 27  1  0  0  0  0
  7 28  1  0  0  0  0
  8  9  1  0  0  0  0
  8 10  1  0  0  0  0
  8 29  1  0  0  0  0
  9 30  1  0  0  0  0
 10 11  1  0  0  0  0
 10 31  1  0  0  0  0
 10 32  1  0  0  0  0
 11 19  1  0  0  0  0
 11 12  1  0  0  0  0
 12 13  2  0  0  0  0
 12 33  1  0  0  0  0
 13 14  1  0  0  0  0
 14 19  2  0  0  0  0
 14 15  1  0  0  0  0
 15 16  2  0  0  0  0
 15 34  1  0  0  0  0
 16 17  1  0  0  0  0
 16 35  1  0  0  0  0
 17 18  2  0  0  0  0
 17 36  1  0  0  0  0
 18 19  1  0  0  0  0
 18 37  1  0  0  0  0
 20 21  2  0  0  0  0
 20 38  1  0  0  0  0
 21 39  1  0  0  0  0
M  END
> <s_m_source_file>
AV-unprocessed.smi

> <i_m_source_file_index>
2195

> <i_lp_mmshare_version>
43012

> <i_f3d_flags>
0

> <s_epik_input>
W0NIM11jMVtjSF1bY0hdYyhbY0hdW2NIXTEpT1tDSDJdW0NASF0oW09IXSlbQ0gyXW4oW2NIXW4yKWMoYzIzKVtjSF1bY0hdW2NIXVtjSF0z

> <s_epik_cmdline>
J2VwaWtfcHl0aG9uJywgJy1waCcsICc3LjAnLCAnLXRuJywgJzgnLCAnLW1hJywgJzIwMCcsICctbWV0YWxfYmluZGluZycsICctaW1hZScsICc8aW5maWxlLm1hZT4nLCAnLW9tYWUnLCAnPG91dGZpbGUubWFlPic=

> <r_lp_tautomer_probability>
1

> <r_epik_Ionization_Penalty>
0.0609831

> <r_epik_Ionization_Penalty_Charging>
0

> <r_epik_Ionization_Penalty_Neutral>
0.0609831

> <r_epik_State_Penalty>
0.0529032

> <r_epik_Charging_Adjusted_Penalty>
0.0529032

> <i_epik_Tot_Q>
0

> <i_epik_Tot_abs_Q>
0

> <r_epik_Metal_State_Penalty>
5.53344e-05

> <b_epik_Metal_Only>
0

> <s_lp_Force_Field>
OPLS_2005

> <r_lp_Energy>
15.928

> <b_lp_Chiralities_Consistent>
1

> <s_lp_Variant>
AV-unprocessed.smi:2195-1

> <Gold.Version>
5.8.1

> <Gold.Id.Protein>
6NUR|6NUR_protein|mol2

> <Gold.PLP.Fitness>
43.0019

> <Gold.PLP.PLP>
-43.7325

> <Gold.PLP.part.hbond>
0.0000

> <Gold.PLP.part.metal>
0.0000

> <Gold.PLP.part.buried>
-3.9219

> <Gold.PLP.part.nonpolar>
-40.1380

> <Gold.PLP.part.repulsive>
0.0000

> <Gold.PLP.ligand.clash>
0.0000

> <Gold.PLP.ligand.torsion>
0.3983

> <Gold.PLP.Chemscore.Hbond>
0.0000

> <Gold.PLP.Chemscore.CHOScore>
0.0000

> <Gold.PLP.Chemscore.Metal>
0.0000

> <Gold.PLP.Chemscore.Internal.Correction>
0.0659

> <Gold.Rescore>
     Score         DG    S(hbond)    S(metal)    S(lipo)     H(rot)  DE(clash)    DE(int)     intcor
     15.95     -16.27       0.00        0.00     140.05       2.19       0.03       0.28       ----

> <Gold.Chemscore.Fitness>
15.9522

> <Gold.Chemscore.DG>
-16.2651

> <Gold.Chemscore.ZeroCoef>
-5.4800

> <Gold.Chemscore.Hbond>
0.0000

> <Gold.Chemscore.Metal>
0.0000

> <Gold.Chemscore.Lipo>
140.0478

> <Gold.Chemscore.Internal_Hbond>
0.0000

> <Gold.Chemscore.DEClash>
0.0339

> <Gold.Chemscore.DEInternal>
0.2790

> <Gold.Chemscore.Rot>
2.1877

> <Gold.Chemscore.Internal.Correction>
   9.000000E+99

> <Gold.Chemscore.Hbond.Weighted>
-0.0000

> <Gold.Chemscore.Metal.Weighted>
-0.0000

> <Gold.Chemscore.Lipo.Weighted>
-16.3856

> <Gold.Chemscore.Internal_Hbond.Weighted>
0.0000

> <Gold.Chemscore.DEClash.Weighted>
0.0339

> <Gold.Chemscore.DEInternal.Weighted>
0.2790

> <Gold.Chemscore.Rot.Weighted>
5.6005

> <Gold.Chemscore.Internal.Correction.Weighted>
   9.000000E+99

> <Gold.Protein.RotatedTorsions>
[ 6907 6896 6895 6894 ] final   17.25 input  -60.11 | X-H torsion
[ 7974 7965 7964 7962 ] final  -99.97 input  175.53 | X-H torsion
[ 8008 7997 7996 7995 ] final  152.87 input   59.86 | X-H torsion
[ 10167 10162 10161 10158 ] final  -14.56 input  -65.29 | X-H torsion
[ 10718 10713 10712 10709 ] final   37.67 input   66.30 | X-H torsion
[ 10763 10752 10751 10750 ] final  -48.68 input  -60.55 | X-H torsion
[ 11005 11000 10999 10996 ] final  -16.06 input  -57.11 | X-H torsion

> <Gold.Protein.ActiveResidues>
 VAL166  LYS551  ARG553  GLY616  TRP617  ASP618  TYR619  PRO620  LYS621  CYS622 
 ASP623  PHE694  ASN695  SER759  ASP760  ASP761  ALA762  ILE779  LEU786  VAL792 
 PHE793  MET794  SER795  GLU796  ALA797  LYS798  CYS799  TRP800  GLU811  SER814 

> <Gold.Protein.RotatedAtoms>
  151.8467  135.0572  160.0454 H   0  0  0  0  0  0  0  0  0  0  0  0  # atno 6907 bound_to 6896
  152.2768  133.5428  159.5481 H   0  0  0  0  0  0  0  0  0  0  0  0  # atno 6908 bound_to 6896
  150.7173  134.0537  159.3849 H   0  0  0  0  0  0  0  0  0  0  0  0  # atno 6909 bound_to 6896
  145.3006  140.9376  143.2825 H   0  0  0  0  0  0  0  0  0  0  0  0  # atno 7974 bound_to 7965
  156.2609  140.2009  156.6401 H   0  0  0  0  0  0  0  0  0  0  0  0  # atno 8008 bound_to 7997
  154.6616  140.0560  157.0093 H   0  0  0  0  0  0  0  0  0  0  0  0  # atno 8009 bound_to 7997
  155.1268  140.3230  155.4486 H   0  0  0  0  0  0  0  0  0  0  0  0  # atno 8010 bound_to 7997
  140.7203  143.5309  150.9521 H   0  0  0  0  0  0  0  0  0  0  0  0  # atno 10167 bound_to 10162
  157.3496  130.7591  149.6969 H   0  0  0  0  0  0  0  0  0  0  0  0  # atno 10718 bound_to 10713
  154.0818  135.6590  153.4839 H   0  0  0  0  0  0  0  0  0  0  0  0  # atno 10763 bound_to 10752
  153.0353  135.5181  154.7467 H   0  0  0  0  0  0  0  0  0  0  0  0  # atno 10764 bound_to 10752
  154.6564  135.3008  154.9891 H   0  0  0  0  0  0  0  0  0  0  0  0  # atno 10765 bound_to 10752
  140.8029  133.8200  155.9487 H   0  0  0  0  0  0  0  0  0  0  0  0  # atno 11005 bound_to 11000
  144.9096  139.4545  143.6593 LP  0  0  0  0  0  0  0  0  0  0  0  0  # atno 17320 bound_to 7965
  146.3153  139.7897  142.8988 LP  0  0  0  0  0  0  0  0  0  0  0  0  # atno 17321 bound_to 7965
  139.9029  143.6814  152.3128 LP  0  0  0  0  0  0  0  0  0  0  0  0  # atno 17342 bound_to 10162
  139.7170  144.7610  151.1018 LP  0  0  0  0  0  0  0  0  0  0  0  0  # atno 17343 bound_to 10162
  155.9719  130.4144  150.4131 LP  0  0  0  0  0  0  0  0  0  0  0  0  # atno 17370 bound_to 10713
  157.2192  131.0478  151.2556 LP  0  0  0  0  0  0  0  0  0  0  0  0  # atno 17371 bound_to 10713
  140.9276  134.2062  157.4885 LP  0  0  0  0  0  0  0  0  0  0  0  0  # atno 17394 bound_to 11000
  139.8720  134.9819  156.5135 LP  0  0  0  0  0  0  0  0  0  0  0  0  # atno 17395 bound_to 11000

$$$$
