AV-unprocessed.smi:2631|AV-procd|sdf|10249|dock7
  -GOLD-   2272014263D 1   1.00000     0.00000
 Structure written by MMmdl.
 34 35  0  0  0  0  0  0  0  0  2 V2000
  147.3272  140.6530  156.4007 C   0  0  0  0  0  0  0  0  0  0  0  0
  146.8905  139.8337  157.4697 O   0  0  0  0  0  0  0  0  0  0  0  0
  146.7673  138.4710  157.0979 C   0  0  0  0  0  0  0  0  0  0  0  0
  148.0818  137.9787  156.4686 C   0  0  0  0  0  0  0  0  0  0  0  0
  149.1368  137.7783  157.4853 N   0  0  0  0  0  0  0  0  0  0  0  0
  150.3808  138.4439  157.3230 C   0  0  0  0  0  0  0  0  0  0  0  0
  150.5940  139.2594  156.2234 N   0  0  0  0  0  0  0  0  0  0  0  0
  151.3472  138.2783  158.2538 C   0  0  0  0  0  0  0  0  0  0  0  0
  152.9515  139.0469  158.2382 S   0  0  0  0  0  0  0  0  0  0  0  0
  152.5399  140.6797  158.7592 C   0  0  0  0  0  0  0  0  0  0  0  0
  153.0471  141.1782  159.9754 C   0  0  0  0  0  0  0  0  0  0  0  0
  152.7260  142.4868  160.3858 C   0  0  0  0  0  0  0  0  0  0  0  0
  151.8980  143.2950  159.5814 C   0  0  0  0  0  0  0  0  0  0  0  0
  151.5077  144.8986  160.0839 Cl  0  0  0  0  0  0  0  0  0  0  0  0
  151.3889  142.7936  158.3668 C   0  0  0  0  0  0  0  0  0  0  0  0
  151.7087  141.4851  157.9555 C   0  0  0  0  0  0  0  0  0  0  0  0
  151.1209  137.4167  159.4159 C   0  0  0  0  0  0  0  0  0  0  0  0
  151.9960  137.2461  160.2659 O   0  0  0  0  0  0  0  0  0  0  0  0
  149.9001  136.8222  159.5046 N   0  5  0  0  0  0  0  0  0  0  0  0
  148.9075  136.9848  158.5794 C   0  0  0  0  0  0  0  0  0  0  0  0
  147.8127  136.4351  158.7071 O   0  0  0  0  0  0  0  0  0  0  0  0
  147.4051  141.6860  156.7400 H   0  0  0  0  0  0  0  0  0  0  0  0
  146.6232  140.6237  155.5681 H   0  0  0  0  0  0  0  0  0  0  0  0
  148.3092  140.3418  156.0421 H   0  0  0  0  0  0  0  0  0  0  0  0
  146.5441  137.8753  157.9840 H   0  0  0  0  0  0  0  0  0  0  0  0
  145.9362  138.3398  156.4034 H   0  0  0  0  0  0  0  0  0  0  0  0
  147.8908  137.0745  155.8888 H   0  0  0  0  0  0  0  0  0  0  0  0
  148.4186  138.6954  155.7195 H   0  0  0  0  0  0  0  0  0  0  0  0
  149.8804  139.3972  155.5225 H   0  0  0  0  0  0  0  0  0  0  0  0
  151.4125  139.8460  156.1513 H   0  0  0  0  0  0  0  0  0  0  0  0
  153.6843  140.5618  160.5921 H   0  0  0  0  0  0  0  0  0  0  0  0
  153.1169  142.8696  161.3171 H   0  0  0  0  0  0  0  0  0  0  0  0
  150.7544  143.4113  157.7485 H   0  0  0  0  0  0  0  0  0  0  0  0
  151.3200  141.1045  157.0221 H   0  0  0  0  0  0  0  0  0  0  0  0
  1  2  1  0  0  0  0
  1 22  1  0  0  0  0
  1 23  1  0  0  0  0
  1 24  1  0  0  0  0
  2  3  1  0  0  0  0
  3  4  1  0  0  0  0
  3 25  1  0  0  0  0
  3 26  1  0  0  0  0
  4  5  1  0  0  0  0
  4 27  1  0  0  0  0
  4 28  1  0  0  0  0
  5 20  1  0  0  0  0
  5  6  1  0  0  0  0
  6  7  1  0  0  0  0
  6  8  2  0  0  0  0
  7 29  1  0  0  0  0
  7 30  1  0  0  0  0
  8  9  1  0  0  0  0
  8 17  1  0  0  0  0
  9 10  1  0  0  0  0
 10 16  1  0  0  0  0
 10 11  2  0  0  0  0
 11 12  1  0  0  0  0
 11 31  1  0  0  0  0
 12 13  2  0  0  0  0
 12 32  1  0  0  0  0
 13 14  1  0  0  0  0
 13 15  1  0  0  0  0
 15 16  2  0  0  0  0
 15 33  1  0  0  0  0
 16 34  1  0  0  0  0
 17 18  2  0  0  0  0
 17 19  1  0  0  0  0
 19 20  1  0  0  0  0
 20 21  2  0  0  0  0
M  CHG  1  19  -1
M  END
> <s_m_source_file>
AV-unprocessed.smi

> <i_m_source_file_index>
2631

> <i_lp_mmshare_version>
43012

> <i_f3d_flags>
0

> <s_epik_input>
W0NIM11PW0NIMl1bQ0gyXW4xYyhbTkgyXSljKGMoPU8pW25IXWMxPU8pU2MyW2NIXVtjSF1jKENsKVtjSF1bY0hdMg==

> <s_epik_cmdline>
J2VwaWtfcHl0aG9uJywgJy1waCcsICc3LjAnLCAnLXRuJywgJzgnLCAnLW1hJywgJzIwMCcsICctbWV0YWxfYmluZGluZycsICctaW1hZScsICc8aW5maWxlLm1hZT4nLCAnLW9tYWUnLCAnPG91dGZpbGUubWFlPic=

> <r_lp_tautomer_probability>
1

> <r_epik_Ionization_Penalty>
5.35309

> <r_epik_Ionization_Penalty_Charging>
0.0281434

> <r_epik_Ionization_Penalty_Neutral>
5.32495

> <r_epik_State_Penalty>
5.32488

> <r_epik_Charging_Adjusted_Penalty>
5.35302

> <i_epik_Tot_Q>
-1

> <i_epik_Tot_abs_Q>
1

> <r_epik_Metal_State_Penalty>
1.30191

> <b_epik_Metal_Only>
1

> <s_epik_Chemistry_Notes>
This compound has an imine and may undergo hydrolysis.

> <s_lp_Force_Field>
OPLS_2005

> <r_lp_Energy>
29.1443

> <b_lp_Chiralities_Consistent>
1

> <s_lp_Variant>
AV-unprocessed.smi:2631-2

> <Gold.Version>
5.8.1

> <Gold.Id.Protein>
6NUR|6NUR_protein|mol2

> <Gold.PLP.Fitness>
37.7382

> <Gold.PLP.PLP>
-32.3503

> <Gold.PLP.part.hbond>
-2.2631

> <Gold.PLP.part.metal>
0.0000

> <Gold.PLP.part.buried>
-4.5109

> <Gold.PLP.part.nonpolar>
-26.2902

> <Gold.PLP.part.repulsive>
0.0174

> <Gold.PLP.ligand.clash>
0.0000

> <Gold.PLP.ligand.torsion>
0.3283

> <Gold.PLP.Chemscore.Hbond>
2.0000

> <Gold.PLP.Chemscore.CHOScore>
0.0000

> <Gold.PLP.Chemscore.Metal>
0.0000

> <Gold.Chemscore.Hbonds>
donor molecule, donor type, donor heavy atom, donor atom, acceptor molecule, acceptor atom, score
      P1  H  6896  6908       L1    19  0.56

> <Gold.PLP.Chemscore.Internal.Correction>
0.0445

> <Gold.Rescore>
     Score         DG    S(hbond)    S(metal)    S(lipo)     H(rot)  DE(clash)    DE(int)     intcor
      9.35     -11.07       0.39        0.00      80.81       2.02       0.07       1.65       ----

> <Gold.Chemscore.Fitness>
9.3462

> <Gold.Chemscore.DG>
-11.0680

> <Gold.Chemscore.ZeroCoef>
-5.4800

> <Gold.Chemscore.Hbond>
0.3931

> <Gold.Chemscore.Metal>
0.0000

> <Gold.Chemscore.Lipo>
80.8100

> <Gold.Chemscore.Internal_Hbond>
0.0000

> <Gold.Chemscore.DEClash>
0.0727

> <Gold.Chemscore.DEInternal>
1.6491

> <Gold.Chemscore.Rot>
2.0234

> <Gold.Chemscore.Internal.Correction>
   9.000000E+99

> <Gold.Chemscore.Hbonds>
donor molecule, donor type, donor heavy atom, donor atom, acceptor molecule, acceptor atom, score
      P1  H  6896  6908       L1    19  0.01

> <Gold.Chemscore.Hbond.Weighted>
-1.3130

> <Gold.Chemscore.Metal.Weighted>
-0.0000

> <Gold.Chemscore.Lipo.Weighted>
-9.4548

> <Gold.Chemscore.Internal_Hbond.Weighted>
0.0000

> <Gold.Chemscore.DEClash.Weighted>
0.0727

> <Gold.Chemscore.DEInternal.Weighted>
1.6491

> <Gold.Chemscore.Rot.Weighted>
5.1798

> <Gold.Chemscore.Internal.Correction.Weighted>
   9.000000E+99

> <Gold.Protein.RotatedTorsions>
[ 6907 6896 6895 6894 ] final -164.67 input  -60.11 | X-H torsion
[ 7974 7965 7964 7962 ] final  117.27 input  175.53 | X-H torsion
[ 8008 7997 7996 7995 ] final  120.03 input   59.86 | X-H torsion
[ 10167 10162 10161 10158 ] final   42.72 input  -65.29 | X-H torsion
[ 10718 10713 10712 10709 ] final  135.69 input   66.30 | X-H torsion
[ 10763 10752 10751 10750 ] final  -49.56 input  -60.55 | X-H torsion
[ 11005 11000 10999 10996 ] final -124.64 input  -57.11 | X-H torsion

> <Gold.Protein.ActiveResidues>
 VAL166  LYS551  ARG553  GLY616  TRP617  ASP618  TYR619  PRO620  LYS621  CYS622 
 ASP623  PHE694  ASN695  SER759  ASP760  ASP761  ALA762  ILE779  LEU786  VAL792 
 PHE793  MET794  SER795  GLU796  ALA797  LYS798  CYS799  TRP800  GLU811  SER814 

> <Gold.Protein.RotatedAtoms>
  151.4154  133.3714  159.2749 H   0  0  0  0  0  0  0  0  0  0  0  0  # atno 6907 bound_to 6896
  150.9332  134.8747  159.7575 H   0  0  0  0  0  0  0  0  0  0  0  0  # atno 6908 bound_to 6896
  152.5038  134.4100  159.9497 H   0  0  0  0  0  0  0  0  0  0  0  0  # atno 6909 bound_to 6896
  145.1694  139.3110  143.4475 H   0  0  0  0  0  0  0  0  0  0  0  0  # atno 7974 bound_to 7965
  156.2624  140.2840  156.1085 H   0  0  0  0  0  0  0  0  0  0  0  0  # atno 8008 bound_to 7997
  155.1282  140.0393  157.2785 H   0  0  0  0  0  0  0  0  0  0  0  0  # atno 8009 bound_to 7997
  154.6619  140.2568  155.7106 H   0  0  0  0  0  0  0  0  0  0  0  0  # atno 8010 bound_to 7997
  140.3515  144.2343  150.6145 H   0  0  0  0  0  0  0  0  0  0  0  0  # atno 10167 bound_to 10162
  157.4544  131.1068  150.9995 H   0  0  0  0  0  0  0  0  0  0  0  0  # atno 10718 bound_to 10713
  154.0961  135.6570  153.4860 H   0  0  0  0  0  0  0  0  0  0  0  0  # atno 10763 bound_to 10752
  153.0305  135.5214  154.7333 H   0  0  0  0  0  0  0  0  0  0  0  0  # atno 10764 bound_to 10752
  154.6471  135.2996  155.0002 H   0  0  0  0  0  0  0  0  0  0  0  0  # atno 10765 bound_to 10752
  140.9825  134.0653  157.3749 H   0  0  0  0  0  0  0  0  0  0  0  0  # atno 11005 bound_to 11000
  146.3471  140.1834  142.8589 LP  0  0  0  0  0  0  0  0  0  0  0  0  # atno 17320 bound_to 7965
  145.0248  140.8823  143.5145 LP  0  0  0  0  0  0  0  0  0  0  0  0  # atno 17321 bound_to 7965
  140.5214  143.2265  151.8383 LP  0  0  0  0  0  0  0  0  0  0  0  0  # atno 17342 bound_to 10162
  139.4826  144.4832  151.9280 LP  0  0  0  0  0  0  0  0  0  0  0  0  # atno 17343 bound_to 10162
  157.0814  130.5904  149.5421 LP  0  0  0  0  0  0  0  0  0  0  0  0  # atno 17370 bound_to 10713
  156.0001  130.5078  150.7630 LP  0  0  0  0  0  0  0  0  0  0  0  0  # atno 17371 bound_to 10713
  139.8956  135.0142  156.7011 LP  0  0  0  0  0  0  0  0  0  0  0  0  # atno 17394 bound_to 11000
  140.7165  133.9178  155.8118 LP  0  0  0  0  0  0  0  0  0  0  0  0  # atno 17395 bound_to 11000

$$$$
