AV-unprocessed.smi:2352|AV-procd|sdf|9379|dock7
  -GOLD-   2272013 03D 1   1.00000     0.00000
 Structure written by MMmdl.
 37 38  0  0  0  0  0  0  0  0  1 V2000
  145.9183  143.1533  154.2352 C   0  0  0  0  0  0  0  0  0  0  0  0
  146.8180  142.0470  154.7575 C   0  0  0  0  0  0  0  0  0  0  0  0
  147.5571  141.3620  153.7886 N   0  0  0  0  0  0  0  0  0  0  0  0
  148.3524  140.4056  154.1410 C   0  0  0  0  0  0  0  0  0  0  0  0
  148.5023  140.0283  155.4856 N   0  0  0  0  0  0  0  0  0  0  0  0
  149.4412  138.9255  155.7532 C   0  0  0  0  0  0  0  0  0  0  0  0
  150.9142  139.3910  155.7344 C   0  0  1  0  0  0  0  0  0  0  0  0
  151.2671  139.7233  154.4058 O   0  0  0  0  0  0  0  0  0  0  0  0
  151.1258  140.5683  156.6748 C   0  0  0  0  0  0  0  0  0  0  0  0
  150.7129  141.8603  156.2871 C   0  0  0  0  0  0  0  0  0  0  0  0
  150.9098  142.9576  157.1477 C   0  0  0  0  0  0  0  0  0  0  0  0
  151.5204  142.7775  158.4073 C   0  0  0  0  0  0  0  0  0  0  0  0
  151.7371  143.9681  159.3300 C   0  0  0  0  0  0  0  0  0  0  0  0
  152.4363  143.6190  160.4106 F   0  0  0  0  0  0  0  0  0  0  0  0
  152.4066  144.9148  158.6737 F   0  0  0  0  0  0  0  0  0  0  0  0
  150.5692  144.4691  159.7337 F   0  0  0  0  0  0  0  0  0  0  0  0
  151.9453  141.4864  158.7891 C   0  0  0  0  0  0  0  0  0  0  0  0
  151.7490  140.3887  157.9288 C   0  0  0  0  0  0  0  0  0  0  0  0
  147.8116  140.6372  156.4927 C   0  0  0  0  0  0  0  0  0  0  0  0
  147.9391  140.2875  157.6679 O   0  0  0  0  0  0  0  0  0  0  0  0
  146.9132  141.7264  156.0769 C   0  0  0  0  0  0  0  0  0  0  0  0
  146.1333  142.4371  157.1762 C   0  0  0  0  0  0  0  0  0  0  0  0
  146.1992  144.1124  154.6710 H   0  0  0  0  0  0  0  0  0  0  0  0
  144.8766  142.9481  154.4837 H   0  0  0  0  0  0  0  0  0  0  0  0
  145.9900  143.2455  153.1508 H   0  0  0  0  0  0  0  0  0  0  0  0
  148.9469  139.8368  153.4242 H   0  0  0  0  0  0  0  0  0  0  0  0
  149.2160  138.4027  156.6852 H   0  0  0  0  0  0  0  0  0  0  0  0
  149.2955  138.1683  154.9800 H   0  0  0  0  0  0  0  0  0  0  0  0
  151.5702  138.5804  156.0541 H   0  0  0  0  0  0  0  0  0  0  0  0
  151.0529  138.9914  153.8477 H   0  0  0  0  0  0  0  0  0  0  0  0
  150.2458  142.0163  155.3256 H   0  0  0  0  0  0  0  0  0  0  0  0
  150.5915  143.9411  156.8345 H   0  0  0  0  0  0  0  0  0  0  0  0
  152.4270  141.3305  159.7431 H   0  0  0  0  0  0  0  0  0  0  0  0
  152.0824  139.4078  158.2353 H   0  0  0  0  0  0  0  0  0  0  0  0
  145.4895  141.7286  157.6985 H   0  0  0  0  0  0  0  0  0  0  0  0
  145.5015  143.2415  156.8033 H   0  0  0  0  0  0  0  0  0  0  0  0
  146.8201  142.8708  157.9041 H   0  0  0  0  0  0  0  0  0  0  0  0
  1  2  1  0  0  0  0
  1 23  1  0  0  0  0
  1 24  1  0  0  0  0
  1 25  1  0  0  0  0
  2 21  2  0  0  0  0
  2  3  1  0  0  0  0
  3  4  2  0  0  0  0
  4  5  1  0  0  0  0
  4 26  1  0  0  0  0
  5  6  1  0  0  0  0
  5 19  1  0  0  0  0
  6  7  1  0  0  0  0
  6 27  1  0  0  0  0
  6 28  1  0  0  0  0
  7  8  1  0  0  0  0
  7  9  1  0  0  0  0
  7 29  1  0  0  0  0
  8 30  1  0  0  0  0
  9 18  1  0  0  0  0
  9 10  2  0  0  0  0
 10 11  1  0  0  0  0
 10 31  1  0  0  0  0
 11 12  2  0  0  0  0
 11 32  1  0  0  0  0
 12 13  1  0  0  0  0
 12 17  1  0  0  0  0
 13 14  1  0  0  0  0
 13 15  1  0  0  0  0
 13 16  1  0  0  0  0
 17 18  2  0  0  0  0
 17 33  1  0  0  0  0
 18 34  1  0  0  0  0
 19 20  2  0  0  0  0
 19 21  1  0  0  0  0
 21 22  1  0  0  0  0
 22 35  1  0  0  0  0
 22 36  1  0  0  0  0
 22 37  1  0  0  0  0
M  END
> <s_m_source_file>
AV-unprocessed.smi

> <i_m_source_file_index>
2352

> <i_lp_mmshare_version>
43012

> <i_f3d_flags>
0

> <s_epik_input>
W0NIM11jMW5bY0hdbihjKD1PKWMxW0NIM10pW0NIMl1bQ0BIXShbT0hdKWMyW2NIXVtjSF1jKEMoRikoRilGKVtjSF1bY0hdMg==

> <s_epik_cmdline>
J2VwaWtfcHl0aG9uJywgJy1waCcsICc3LjAnLCAnLXRuJywgJzgnLCAnLW1hJywgJzIwMCcsICctbWV0YWxfYmluZGluZycsICctaW1hZScsICc8aW5maWxlLm1hZT4nLCAnLW9tYWUnLCAnPG91dGZpbGUubWFlPic=

> <r_lp_tautomer_probability>
1

> <r_epik_Ionization_Penalty>
5.07001e-05

> <r_epik_Ionization_Penalty_Charging>
7.56727e-08

> <r_epik_Ionization_Penalty_Neutral>
5.06244e-05

> <r_epik_State_Penalty>
-0

> <r_epik_Charging_Adjusted_Penalty>
7.56727e-08

> <i_epik_Tot_Q>
0

> <i_epik_Tot_abs_Q>
0

> <r_epik_Metal_State_Penalty>
-0

> <b_epik_Metal_Only>
0

> <s_lp_Force_Field>
OPLS_2005

> <r_lp_Energy>
21.4472

> <b_lp_Chiralities_Consistent>
1

> <s_lp_Variant>
AV-unprocessed.smi:2352-2

> <Gold.Version>
5.8.1

> <Gold.Id.Protein>
6NUR|6NUR_protein|mol2

> <Gold.PLP.Fitness>
48.1440

> <Gold.PLP.PLP>
-43.6455

> <Gold.PLP.part.hbond>
-0.9941

> <Gold.PLP.part.metal>
0.0000

> <Gold.PLP.part.buried>
-4.3275

> <Gold.PLP.part.nonpolar>
-38.0667

> <Gold.PLP.part.repulsive>
0.1749

> <Gold.PLP.ligand.clash>
0.9521

> <Gold.PLP.ligand.torsion>
0.7967

> <Gold.PLP.Chemscore.Hbond>
1.0000

> <Gold.PLP.Chemscore.CHOScore>
1.0000

> <Gold.PLP.Chemscore.Metal>
0.0000

> <Gold.Chemscore.Hbonds>
donor molecule, donor type, donor heavy atom, donor atom, acceptor molecule, acceptor atom, score
      P1  H  7989  7998       L1     8  0.93
      L1  C     4    26       P1  7957  1.00

> <Gold.PLP.Chemscore.Internal.Correction>
1.0440

> <Gold.Rescore>
     Score         DG    S(hbond)    S(metal)    S(lipo)     H(rot)  DE(clash)    DE(int)     intcor
     10.49     -12.66       0.98        0.00      80.13       2.13       0.02       2.16       ----

> <Gold.Chemscore.Fitness>
10.4851

> <Gold.Chemscore.DG>
-12.6606

> <Gold.Chemscore.ZeroCoef>
-5.4800

> <Gold.Chemscore.Hbond>
0.9790

> <Gold.Chemscore.Metal>
0.0000

> <Gold.Chemscore.Lipo>
80.1337

> <Gold.Chemscore.Internal_Hbond>
0.0000

> <Gold.Chemscore.DEClash>
0.0171

> <Gold.Chemscore.DEInternal>
2.1584

> <Gold.Chemscore.Rot>
2.1347

> <Gold.Chemscore.Internal.Correction>
   9.000000E+99

> <Gold.Chemscore.Hbonds>
donor molecule, donor type, donor heavy atom, donor atom, acceptor molecule, acceptor atom, score
      P1  H  7989  7998       L1     8  0.49

> <Gold.Chemscore.Hbond.Weighted>
-3.2699

> <Gold.Chemscore.Metal.Weighted>
-0.0000

> <Gold.Chemscore.Lipo.Weighted>
-9.3756

> <Gold.Chemscore.Internal_Hbond.Weighted>
0.0000

> <Gold.Chemscore.DEClash.Weighted>
0.0171

> <Gold.Chemscore.DEInternal.Weighted>
2.1584

> <Gold.Chemscore.Rot.Weighted>
5.4649

> <Gold.Chemscore.Internal.Correction.Weighted>
   9.000000E+99

> <Gold.Protein.RotatedTorsions>
[ 6907 6896 6895 6894 ] final  -13.78 input  -60.11 | X-H torsion
[ 7974 7965 7964 7962 ] final  143.61 input  175.53 | X-H torsion
[ 8008 7997 7996 7995 ] final  132.13 input   59.86 | X-H torsion
[ 10167 10162 10161 10158 ] final  -80.10 input  -65.29 | X-H torsion
[ 10718 10713 10712 10709 ] final   72.68 input   66.30 | X-H torsion
[ 10763 10752 10751 10750 ] final  -73.30 input  -60.55 | X-H torsion
[ 11005 11000 10999 10996 ] final  162.78 input  -57.11 | X-H torsion

> <Gold.Protein.ActiveResidues>
 VAL166  LYS551  ARG553  GLY616  TRP617  ASP618  TYR619  PRO620  LYS621  CYS622 
 ASP623  PHE694  ASN695  SER759  ASP760  ASP761  ALA762  ILE779  LEU786  VAL792 
 PHE793  MET794  SER795  GLU796  ALA797  LYS798  CYS799  TRP800  GLU811  SER814 

> <Gold.Protein.RotatedAtoms>
  151.3495  135.0881  159.9398 H   0  0  0  0  0  0  0  0  0  0  0  0  # atno 6907 bound_to 6896
  152.5191  133.9366  159.7616 H   0  0  0  0  0  0  0  0  0  0  0  0  # atno 6908 bound_to 6896
  150.9739  133.6262  159.2763 H   0  0  0  0  0  0  0  0  0  0  0  0  # atno 6909 bound_to 6896
  144.8906  139.5564  143.5800 H   0  0  0  0  0  0  0  0  0  0  0  0  # atno 7974 bound_to 7965
  156.2979  140.2554  156.3038 H   0  0  0  0  0  0  0  0  0  0  0  0  # atno 8008 bound_to 7997
  154.9391  140.0396  157.2106 H   0  0  0  0  0  0  0  0  0  0  0  0  # atno 8009 bound_to 7997
  154.8143  140.2849  155.5835 H   0  0  0  0  0  0  0  0  0  0  0  0  # atno 8010 bound_to 7997
  140.4533  143.2476  151.8456 H   0  0  0  0  0  0  0  0  0  0  0  0  # atno 10167 bound_to 10162
  157.6512  130.9591  150.0963 H   0  0  0  0  0  0  0  0  0  0  0  0  # atno 10718 bound_to 10713
  154.4576  135.5901  153.6234 H   0  0  0  0  0  0  0  0  0  0  0  0  # atno 10763 bound_to 10752
  152.9820  135.6036  154.3526 H   0  0  0  0  0  0  0  0  0  0  0  0  # atno 10764 bound_to 10752
  154.3395  135.2842  155.2409 H   0  0  0  0  0  0  0  0  0  0  0  0  # atno 10765 bound_to 10752
  140.2292  134.8137  157.3299 H   0  0  0  0  0  0  0  0  0  0  0  0  # atno 11005 bound_to 11000
  146.3051  139.7554  142.9062 LP  0  0  0  0  0  0  0  0  0  0  0  0  # atno 17320 bound_to 7965
  145.3790  141.0355  143.3188 LP  0  0  0  0  0  0  0  0  0  0  0  0  # atno 17321 bound_to 7965
  139.4798  144.5094  151.8953 LP  0  0  0  0  0  0  0  0  0  0  0  0  # atno 17342 bound_to 10162
  140.4181  144.2280  150.5887 LP  0  0  0  0  0  0  0  0  0  0  0  0  # atno 17343 bound_to 10162
  156.1898  130.3654  149.8924 LP  0  0  0  0  0  0  0  0  0  0  0  0  # atno 17370 bound_to 10713
  156.6856  130.8875  151.3581 LP  0  0  0  0  0  0  0  0  0  0  0  0  # atno 17371 bound_to 10713
  140.1768  134.4539  155.7796 LP  0  0  0  0  0  0  0  0  0  0  0  0  # atno 17394 bound_to 11000
  141.2219  133.6966  156.7801 LP  0  0  0  0  0  0  0  0  0  0  0  0  # atno 17395 bound_to 11000

$$$$
