AV-unprocessed.smi:2195|AV-procd|sdf|8905|dock5
  -GOLD-   2272012123D 1   1.00000     0.00000
 Structure written by MMmdl.
 39 41  0  0  0  0  0  0  0  0  1 V2000
  143.6975  144.4364  153.9494 C   0  0  0  0  0  0  0  0  0  0  0  0
  144.6996  143.4136  154.4438 C   0  0  0  0  0  0  0  0  0  0  0  0
  144.6464  142.9429  155.7708 C   0  0  0  0  0  0  0  0  0  0  0  0
  145.5816  141.9907  156.2202 C   0  0  0  0  0  0  0  0  0  0  0  0
  146.5799  141.4943  155.3567 C   0  0  0  0  0  0  0  0  0  0  0  0
  147.4515  140.5624  155.8785 O   0  0  0  0  0  0  0  0  0  0  0  0
  148.2390  139.7957  154.9765 C   0  0  0  0  0  0  0  0  0  0  0  0
  149.5484  140.5508  154.6992 C   0  0  1  0  0  0  0  0  0  0  0  0
  149.4662  141.1319  153.4122 O   0  0  0  0  0  0  0  0  0  0  0  0
  149.8022  141.6647  155.7337 C   0  0  0  0  0  0  0  0  0  0  0  0
  150.8170  141.2982  156.7056 N   0  0  0  0  0  0  0  0  0  0  0  0
  151.6231  140.2196  156.6740 C   0  0  0  0  0  0  0  0  0  0  0  0
  152.4877  140.0750  157.6746 N   0  0  0  0  0  0  0  0  0  0  0  0
  152.2092  141.1896  158.4469 C   0  0  0  0  0  0  0  0  0  0  0  0
  152.7811  141.6300  159.6621 C   0  0  0  0  0  0  0  0  0  0  0  0
  152.3276  142.8157  160.2769 C   0  0  0  0  0  0  0  0  0  0  0  0
  151.2979  143.5783  159.6878 C   0  0  0  0  0  0  0  0  0  0  0  0
  150.7135  143.1604  158.4767 C   0  0  0  0  0  0  0  0  0  0  0  0
  151.1685  141.9764  157.8672 C   0  0  0  0  0  0  0  0  0  0  0  0
  146.6299  141.9751  154.0239 C   0  0  0  0  0  0  0  0  0  0  0  0
  145.6951  142.9277  153.5738 C   0  0  0  0  0  0  0  0  0  0  0  0
  142.9237  144.6278  154.6934 H   0  0  0  0  0  0  0  0  0  0  0  0
  143.2128  144.0822  153.0394 H   0  0  0  0  0  0  0  0  0  0  0  0
  144.1987  145.3788  153.7275 H   0  0  0  0  0  0  0  0  0  0  0  0
  143.8895  143.3085  156.4493 H   0  0  0  0  0  0  0  0  0  0  0  0
  145.5307  141.6362  157.2392 H   0  0  0  0  0  0  0  0  0  0  0  0
  148.4437  138.7964  155.3653 H   0  0  0  0  0  0  0  0  0  0  0  0
  147.6826  139.6839  154.0442 H   0  0  0  0  0  0  0  0  0  0  0  0
  150.3846  139.8504  154.7189 H   0  0  0  0  0  0  0  0  0  0  0  0
  149.6266  140.4574  152.7698 H   0  0  0  0  0  0  0  0  0  0  0  0
  150.1092  142.5863  155.2364 H   0  0  0  0  0  0  0  0  0  0  0  0
  148.8837  141.8940  156.2753 H   0  0  0  0  0  0  0  0  0  0  0  0
  151.5695  139.4976  155.8723 H   0  0  0  0  0  0  0  0  0  0  0  0
  153.5700  141.0540  160.1224 H   0  0  0  0  0  0  0  0  0  0  0  0
  152.7722  143.1413  161.2060 H   0  0  0  0  0  0  0  0  0  0  0  0
  150.9567  144.4845  160.1664 H   0  0  0  0  0  0  0  0  0  0  0  0
  149.9248  143.7411  158.0217 H   0  0  0  0  0  0  0  0  0  0  0  0
  147.3767  141.6294  153.3255 H   0  0  0  0  0  0  0  0  0  0  0  0
  145.7445  143.2851  152.5556 H   0  0  0  0  0  0  0  0  0  0  0  0
  1  2  1  0  0  0  0
  1 22  1  0  0  0  0
  1 23  1  0  0  0  0
  1 24  1  0  0  0  0
  2 21  1  0  0  0  0
  2  3  2  0  0  0  0
  3  4  1  0  0  0  0
  3 25  1  0  0  0  0
  4  5  2  0  0  0  0
  4 26  1  0  0  0  0
  5  6  1  0  0  0  0
  5 20  1  0  0  0  0
  6  7  1  0  0  0  0
  7  8  1  0  0  0  0
  7 27  1  0  0  0  0
  7 28  1  0  0  0  0
  8  9  1  0  0  0  0
  8 10  1  0  0  0  0
  8 29  1  0  0  0  0
  9 30  1  0  0  0  0
 10 11  1  0  0  0  0
 10 31  1  0  0  0  0
 10 32  1  0  0  0  0
 11 19  1  0  0  0  0
 11 12  1  0  0  0  0
 12 13  2  0  0  0  0
 12 33  1  0  0  0  0
 13 14  1  0  0  0  0
 14 19  2  0  0  0  0
 14 15  1  0  0  0  0
 15 16  2  0  0  0  0
 15 34  1  0  0  0  0
 16 17  1  0  0  0  0
 16 35  1  0  0  0  0
 17 18  2  0  0  0  0
 17 36  1  0  0  0  0
 18 19  1  0  0  0  0
 18 37  1  0  0  0  0
 20 21  2  0  0  0  0
 20 38  1  0  0  0  0
 21 39  1  0  0  0  0
M  END
> <s_m_source_file>
AV-unprocessed.smi

> <i_m_source_file_index>
2195

> <i_lp_mmshare_version>
43012

> <i_f3d_flags>
0

> <s_epik_input>
W0NIM11jMVtjSF1bY0hdYyhbY0hdW2NIXTEpT1tDSDJdW0NASF0oW09IXSlbQ0gyXW4oW2NIXW4yKWMoYzIzKVtjSF1bY0hdW2NIXVtjSF0z

> <s_epik_cmdline>
J2VwaWtfcHl0aG9uJywgJy1waCcsICc3LjAnLCAnLXRuJywgJzgnLCAnLW1hJywgJzIwMCcsICctbWV0YWxfYmluZGluZycsICctaW1hZScsICc8aW5maWxlLm1hZT4nLCAnLW9tYWUnLCAnPG91dGZpbGUubWFlPic=

> <r_lp_tautomer_probability>
1

> <r_epik_Ionization_Penalty>
0.0609831

> <r_epik_Ionization_Penalty_Charging>
0

> <r_epik_Ionization_Penalty_Neutral>
0.0609831

> <r_epik_State_Penalty>
0.0529032

> <r_epik_Charging_Adjusted_Penalty>
0.0529032

> <i_epik_Tot_Q>
0

> <i_epik_Tot_abs_Q>
0

> <r_epik_Metal_State_Penalty>
5.53344e-05

> <b_epik_Metal_Only>
0

> <s_lp_Force_Field>
OPLS_2005

> <r_lp_Energy>
16.3269

> <b_lp_Chiralities_Consistent>
1

> <s_lp_Variant>
AV-unprocessed.smi:2195-2

> <Gold.Version>
5.8.1

> <Gold.Id.Protein>
6NUR|6NUR_protein|mol2

> <Gold.PLP.Fitness>
52.8654

> <Gold.PLP.PLP>
-47.9651

> <Gold.PLP.part.hbond>
-3.7816

> <Gold.PLP.part.metal>
0.0000

> <Gold.PLP.part.buried>
-5.5486

> <Gold.PLP.part.nonpolar>
-37.6531

> <Gold.PLP.part.repulsive>
0.0536

> <Gold.PLP.ligand.clash>
0.0000

> <Gold.PLP.ligand.torsion>
1.7116

> <Gold.PLP.Chemscore.Hbond>
2.7632

> <Gold.PLP.Chemscore.CHOScore>
0.0000

> <Gold.PLP.Chemscore.Metal>
0.0000

> <Gold.Chemscore.Hbonds>
donor molecule, donor type, donor heavy atom, donor atom, acceptor molecule, acceptor atom, score
      L1  H     9    30       P1  7957  0.93
      P1  H  7997  8010       L1    13  0.73
      P1  H  8011  8017       L1     9  0.70

> <Gold.PLP.Chemscore.Internal.Correction>
0.0339

> <Gold.Rescore>
     Score         DG    S(hbond)    S(metal)    S(lipo)     H(rot)  DE(clash)    DE(int)     intcor
     17.25     -19.17       2.01        0.00     107.62       2.19       0.05       1.87       ----

> <Gold.Chemscore.Fitness>
17.2546

> <Gold.Chemscore.DG>
-19.1730

> <Gold.Chemscore.ZeroCoef>
-5.4800

> <Gold.Chemscore.Hbond>
2.0066

> <Gold.Chemscore.Metal>
0.0000

> <Gold.Chemscore.Lipo>
107.6201

> <Gold.Chemscore.Internal_Hbond>
0.0000

> <Gold.Chemscore.DEClash>
0.0488

> <Gold.Chemscore.DEInternal>
1.8697

> <Gold.Chemscore.Rot>
2.1877

> <Gold.Chemscore.Internal.Correction>
   9.000000E+99

> <Gold.Chemscore.Hbonds>
donor molecule, donor type, donor heavy atom, donor atom, acceptor molecule, acceptor atom, score
      L1  H     9    30       P1  7957  0.89
      P1  H  7997  8010       L1    13  0.29
      P1  H  8011  8017       L1     9  0.07

> <Gold.Chemscore.Hbond.Weighted>
-6.7019

> <Gold.Chemscore.Metal.Weighted>
-0.0000

> <Gold.Chemscore.Lipo.Weighted>
-12.5916

> <Gold.Chemscore.Internal_Hbond.Weighted>
0.0000

> <Gold.Chemscore.DEClash.Weighted>
0.0488

> <Gold.Chemscore.DEInternal.Weighted>
1.8697

> <Gold.Chemscore.Rot.Weighted>
5.6005

> <Gold.Chemscore.Internal.Correction.Weighted>
   9.000000E+99

> <Gold.Protein.RotatedTorsions>
[ 6907 6896 6895 6894 ] final -153.61 input  -60.11 | X-H torsion
[ 7974 7965 7964 7962 ] final   31.01 input  175.53 | X-H torsion
[ 8008 7997 7996 7995 ] final   56.81 input   59.86 | X-H torsion
[ 10167 10162 10161 10158 ] final   83.60 input  -65.29 | X-H torsion
[ 10718 10713 10712 10709 ] final -163.67 input   66.30 | X-H torsion
[ 10763 10752 10751 10750 ] final    8.06 input  -60.55 | X-H torsion
[ 11005 11000 10999 10996 ] final   32.80 input  -57.11 | X-H torsion

> <Gold.Protein.ActiveResidues>
 VAL166  LYS551  ARG553  GLY616  TRP617  ASP618  TYR619  PRO620  LYS621  CYS622 
 ASP623  PHE694  ASN695  SER759  ASP760  ASP761  ALA762  ILE779  LEU786  VAL792 
 PHE793  MET794  SER795  GLU796  ALA797  LYS798  CYS799  TRP800  GLU811  SER814 

> <Gold.Protein.RotatedAtoms>
  151.2452  133.4379  159.2608 H   0  0  0  0  0  0  0  0  0  0  0  0  # atno 6907 bound_to 6896
  151.0669  134.9773  159.8299 H   0  0  0  0  0  0  0  0  0  0  0  0  # atno 6908 bound_to 6896
  152.5406  134.2399  159.8910 H   0  0  0  0  0  0  0  0  0  0  0  0  # atno 6909 bound_to 6896
  146.1576  139.6713  142.9055 H   0  0  0  0  0  0  0  0  0  0  0  0  # atno 7974 bound_to 7965
  155.5236  140.3480  155.4412 H   0  0  0  0  0  0  0  0  0  0  0  0  # atno 8008 bound_to 7997
  156.0767  140.1376  156.9789 H   0  0  0  0  0  0  0  0  0  0  0  0  # atno 8009 bound_to 7997
  154.4557  140.0954  156.6726 H   0  0  0  0  0  0  0  0  0  0  0  0  # atno 8010 bound_to 7997
  139.9167  144.6238  150.8482 H   0  0  0  0  0  0  0  0  0  0  0  0  # atno 10167 bound_to 10162
  156.6280  130.8918  151.2971 H   0  0  0  0  0  0  0  0  0  0  0  0  # atno 10718 bound_to 10713
  153.2292  135.6890  153.7909 H   0  0  0  0  0  0  0  0  0  0  0  0  # atno 10763 bound_to 10752
  153.7080  135.3287  155.3240 H   0  0  0  0  0  0  0  0  0  0  0  0  # atno 10764 bound_to 10752
  154.8306  135.4583  154.1171 H   0  0  0  0  0  0  0  0  0  0  0  0  # atno 10765 bound_to 10752
  140.2698  134.3096  155.7831 H   0  0  0  0  0  0  0  0  0  0  0  0  # atno 11005 bound_to 11000
  145.4668  141.0435  143.2721 LP  0  0  0  0  0  0  0  0  0  0  0  0  # atno 17320 bound_to 7965
  144.7984  139.6188  143.7082 LP  0  0  0  0  0  0  0  0  0  0  0  0  # atno 17321 bound_to 7965
  140.7672  143.3326  151.2377 LP  0  0  0  0  0  0  0  0  0  0  0  0  # atno 17342 bound_to 10162
  139.6896  143.9714  152.2852 LP  0  0  0  0  0  0  0  0  0  0  0  0  # atno 17343 bound_to 10162
  157.7208  130.9556  150.1432 LP  0  0  0  0  0  0  0  0  0  0  0  0  # atno 17370 bound_to 10713
  156.2258  130.3678  149.8503 LP  0  0  0  0  0  0  0  0  0  0  0  0  # atno 17371 bound_to 10713
  141.2179  133.7459  156.9316 LP  0  0  0  0  0  0  0  0  0  0  0  0  # atno 17394 bound_to 11000
  140.1384  134.9309  157.2434 LP  0  0  0  0  0  0  0  0  0  0  0  0  # atno 17395 bound_to 11000

$$$$
