AV-unprocessed.smi:257|AV-procd|sdf|1964|dock1
  -GOLD-   2262021113D 1   1.00000     0.00000
 Structure written by MMmdl.
 50 53  0  0  0  0  0  0  0  0  1 V2000
  151.5563  145.5068  159.2606 C   0  0  0  0  0  0  0  0  0  0  0  0
  152.3068  144.2652  159.1552 N   0  0  0  0  0  0  0  0  0  0  0  0
  151.7466  143.0556  159.0136 C   0  0  0  0  0  0  0  0  0  0  0  0
  150.5282  142.8790  158.9695 O   0  0  0  0  0  0  0  0  0  0  0  0
  152.7142  141.8669  158.9234 C   0  0  1  0  0  0  0  0  0  0  0  0
  153.5130  141.6742  160.2194 C   0  0  0  0  0  0  0  0  0  0  0  0
  153.8892  140.1990  160.1729 C   0  0  0  0  0  0  0  0  0  0  0  0
  152.6572  139.5530  159.5401 C   0  0  0  0  0  0  0  0  0  0  0  0
  152.0127  140.5933  158.7430 N   0  0  0  0  0  0  0  0  0  0  0  0
  151.7320  140.2692  157.4614 C   0  0  0  0  0  0  0  0  0  0  0  0
  152.6909  139.6159  156.7615 N   0  0  0  0  0  0  0  0  0  0  0  0
  152.4638  139.2571  155.4943 C   0  0  0  0  0  0  0  0  0  0  0  0
  151.3680  139.4474  154.7556 N   0  0  0  0  0  0  0  0  0  0  0  0
  150.4010  140.1016  155.4610 C   0  0  0  0  0  0  0  0  0  0  0  0
  150.4989  140.5481  156.8081 C   0  0  0  0  0  0  0  0  0  0  0  0
  149.3174  141.1721  157.1899 N   0  0  0  0  0  0  0  0  0  0  0  0
  148.5635  141.0998  156.1270 C   0  0  0  0  0  0  0  0  0  0  0  0
  149.1308  140.4619  155.0465 N   0  0  0  0  0  0  0  0  0  0  0  0
  148.5147  140.2324  153.7487 C   0  0  0  0  0  0  0  0  0  0  0  0
  147.3479  139.2143  153.7802 C   0  0  0  0  0  0  0  0  0  0  0  0
  146.1549  139.9329  154.0449 O   0  0  0  0  0  0  0  0  0  0  0  0
  147.2029  138.5201  152.4112 C   0  0  0  0  0  0  0  0  0  0  0  0
  146.1671  137.3822  152.4444 C   0  0  0  0  0  0  0  0  0  0  0  0
  146.5036  136.4477  153.4627 O   0  0  0  0  0  0  0  0  0  0  0  0
  146.4722  137.0204  154.7643 C   0  0  0  0  0  0  0  0  0  0  0  0
  147.5231  138.1393  154.8756 C   0  0  0  0  0  0  0  0  0  0  0  0
  152.2418  146.3493  159.3499 H   0  0  0  0  0  0  0  0  0  0  0  0
  150.9113  145.4971  160.1402 H   0  0  0  0  0  0  0  0  0  0  0  0
  150.9371  145.6631  158.3763 H   0  0  0  0  0  0  0  0  0  0  0  0
  153.3140  144.3285  159.1889 H   0  0  0  0  0  0  0  0  0  0  0  0
  153.4114  142.0289  158.0985 H   0  0  0  0  0  0  0  0  0  0  0  0
  154.3861  142.3252  160.2749 H   0  0  0  0  0  0  0  0  0  0  0  0
  152.8932  141.8666  161.0974 H   0  0  0  0  0  0  0  0  0  0  0  0
  154.7550  140.0610  159.5238 H   0  0  0  0  0  0  0  0  0  0  0  0
  154.1309  139.7865  161.1527 H   0  0  0  0  0  0  0  0  0  0  0  0
  152.9205  138.6589  158.9725 H   0  0  0  0  0  0  0  0  0  0  0  0
  151.9545  139.2469  160.3156 H   0  0  0  0  0  0  0  0  0  0  0  0
  153.2755  138.7412  155.0030 H   0  0  0  0  0  0  0  0  0  0  0  0
  147.5624  141.5057  156.1038 H   0  0  0  0  0  0  0  0  0  0  0  0
  148.1695  141.1922  153.3614 H   0  0  0  0  0  0  0  0  0  0  0  0
  149.2902  139.8910  153.0617 H   0  0  0  0  0  0  0  0  0  0  0  0
  145.4774  139.6096  153.4709 H   0  0  0  0  0  0  0  0  0  0  0  0
  146.9376  139.2447  151.6401 H   0  0  0  0  0  0  0  0  0  0  0  0
  148.1654  138.1000  152.1162 H   0  0  0  0  0  0  0  0  0  0  0  0
  145.1604  137.7697  152.6079 H   0  0  0  0  0  0  0  0  0  0  0  0
  146.1526  136.8643  151.4853 H   0  0  0  0  0  0  0  0  0  0  0  0
  145.4721  137.3966  154.9849 H   0  0  0  0  0  0  0  0  0  0  0  0
  146.6823  136.2394  155.4952 H   0  0  0  0  0  0  0  0  0  0  0  0
  148.5139  137.6923  154.7839 H   0  0  0  0  0  0  0  0  0  0  0  0
  147.4784  138.5839  155.8705 H   0  0  0  0  0  0  0  0  0  0  0  0
  1  2  1  0  0  0  0
  1 27  1  0  0  0  0
  1 28  1  0  0  0  0
  1 29  1  0  0  0  0
  2  3  1  0  0  0  0
  2 30  1  0  0  0  0
  3  4  2  0  0  0  0
  3  5  1  0  0  0  0
  5  9  1  0  0  0  0
  5  6  1  0  0  0  0
  5 31  1  0  0  0  0
  6  7  1  0  0  0  0
  6 32  1  0  0  0  0
  6 33  1  0  0  0  0
  7  8  1  0  0  0  0
  7 34  1  0  0  0  0
  7 35  1  0  0  0  0
  8  9  1  0  0  0  0
  8 36  1  0  0  0  0
  8 37  1  0  0  0  0
  9 10  1  0  0  0  0
 10 15  1  0  0  0  0
 10 11  2  0  0  0  0
 11 12  1  0  0  0  0
 12 13  2  0  0  0  0
 12 38  1  0  0  0  0
 13 14  1  0  0  0  0
 14 18  1  0  0  0  0
 14 15  2  0  0  0  0
 15 16  1  0  0  0  0
 16 17  2  0  0  0  0
 17 18  1  0  0  0  0
 17 39  1  0  0  0  0
 18 19  1  0  0  0  0
 19 20  1  0  0  0  0
 19 40  1  0  0  0  0
 19 41  1  0  0  0  0
 20 26  1  0  0  0  0
 20 21  1  0  0  0  0
 20 22  1  0  0  0  0
 21 42  1  0  0  0  0
 22 23  1  0  0  0  0
 22 43  1  0  0  0  0
 22 44  1  0  0  0  0
 23 24  1  0  0  0  0
 23 45  1  0  0  0  0
 23 46  1  0  0  0  0
 24 25  1  0  0  0  0
 25 26  1  0  0  0  0
 25 47  1  0  0  0  0
 25 48  1  0  0  0  0
 26 49  1  0  0  0  0
 26 50  1  0  0  0  0
M  END
> <s_m_source_file>
AV-unprocessed.smi

> <i_m_source_file_index>
257

> <i_lp_mmshare_version>
43012

> <i_f3d_flags>
0

> <s_epik_input>
W0NIM11bTkhdQyg9TylbQ0BASF0xW0NIMl1bQ0gyXVtDSDJdTjFjKG5bY0hdbjIpYyhjMjMpbltjSF1uM1tDSDJdQzQoW09IXSlbQ0gyXVtDSDJdT1tDSDJdW0NIMl00

> <s_epik_cmdline>
J2VwaWtfcHl0aG9uJywgJy1waCcsICc3LjAnLCAnLXRuJywgJzgnLCAnLW1hJywgJzIwMCcsICctbWV0YWxfYmluZGluZycsICctaW1hZScsICc8aW5maWxlLm1hZT4nLCAnLW9tYWUnLCAnPG91dGZpbGUubWFlPic=

> <r_lp_tautomer_probability>
1

> <r_epik_Ionization_Penalty>
0.000951012

> <r_epik_Ionization_Penalty_Charging>
0

> <r_epik_Ionization_Penalty_Neutral>
0.000951012

> <r_epik_State_Penalty>
0.000495984

> <r_epik_Charging_Adjusted_Penalty>
0.000495984

> <i_epik_Tot_Q>
0

> <i_epik_Tot_abs_Q>
0

> <r_epik_Metal_State_Penalty>
-0

> <b_epik_Metal_Only>
0

> <s_lp_Force_Field>
OPLS_2005

> <r_lp_Energy>
37.7708

> <b_lp_Chiralities_Consistent>
1

> <s_lp_Variant>
AV-unprocessed.smi:257-2

> <Gold.Version>
5.8.1

> <Gold.Id.Protein>
6NUR|6NUR_protein|mol2

> <Gold.PLP.Fitness>
50.1298

> <Gold.PLP.PLP>
-43.3371

> <Gold.PLP.part.hbond>
-3.0647

> <Gold.PLP.part.metal>
0.0000

> <Gold.PLP.part.buried>
-3.2638

> <Gold.PLP.part.nonpolar>
-38.6121

> <Gold.PLP.part.repulsive>
0.3863

> <Gold.PLP.ligand.clash>
0.0000

> <Gold.PLP.ligand.torsion>
1.1761

> <Gold.PLP.Chemscore.Hbond>
3.0000

> <Gold.PLP.Chemscore.CHOScore>
0.0000

> <Gold.PLP.Chemscore.Metal>
0.0000

> <Gold.Chemscore.Hbonds>
donor molecule, donor type, donor heavy atom, donor atom, acceptor molecule, acceptor atom, score
      L1  H    21    42       P1 10175  0.36
      P1  H  7989  7998       L1    13  0.75
      P1  H  7997  8009       L1    11  0.90

> <Gold.PLP.Chemscore.Internal.Correction>
0.1450

> <Gold.Rescore>
     Score         DG    S(hbond)    S(metal)    S(lipo)     H(rot)  DE(clash)    DE(int)     intcor
     12.32     -14.98       2.05        0.00      80.57       2.65       0.06       2.61       ----

> <Gold.Chemscore.Fitness>
12.3178

> <Gold.Chemscore.DG>
-14.9830

> <Gold.Chemscore.ZeroCoef>
-5.4800

> <Gold.Chemscore.Hbond>
2.0528

> <Gold.Chemscore.Metal>
0.0000

> <Gold.Chemscore.Lipo>
80.5650

> <Gold.Chemscore.Internal_Hbond>
0.0000

> <Gold.Chemscore.DEClash>
0.0565

> <Gold.Chemscore.DEInternal>
2.6087

> <Gold.Chemscore.Rot>
2.6482

> <Gold.Chemscore.Internal.Correction>
   9.000000E+99

> <Gold.Chemscore.Hbonds>
donor molecule, donor type, donor heavy atom, donor atom, acceptor molecule, acceptor atom, score
      L1  H    21    42       P1 10175  0.36
      P1  H  7989  7998       L1    13  0.07
      P1  H  7997  8009       L1    11  0.18

> <Gold.Chemscore.Hbond.Weighted>
-6.8562

> <Gold.Chemscore.Metal.Weighted>
-0.0000

> <Gold.Chemscore.Lipo.Weighted>
-9.4261

> <Gold.Chemscore.Internal_Hbond.Weighted>
0.0000

> <Gold.Chemscore.DEClash.Weighted>
0.0565

> <Gold.Chemscore.DEInternal.Weighted>
2.6087

> <Gold.Chemscore.Rot.Weighted>
6.7793

> <Gold.Chemscore.Internal.Correction.Weighted>
   9.000000E+99

> <Gold.Protein.RotatedTorsions>
[ 6907 6896 6895 6894 ] final   46.38 input  -60.11 | X-H torsion
[ 7974 7965 7964 7962 ] final  -53.10 input  175.53 | X-H torsion
[ 8008 7997 7996 7995 ] final -176.83 input   59.86 | X-H torsion
[ 10167 10162 10161 10158 ] final  116.46 input  -65.29 | X-H torsion
[ 10718 10713 10712 10709 ] final -151.79 input   66.30 | X-H torsion
[ 10763 10752 10751 10750 ] final -152.44 input  -60.55 | X-H torsion
[ 11005 11000 10999 10996 ] final  -61.53 input  -57.11 | X-H torsion

> <Gold.Protein.ActiveResidues>
 VAL166  LYS551  ARG553  GLY616  TRP617  ASP618  TYR619  PRO620  LYS621  CYS622 
 ASP623  PHE694  ASN695  SER759  ASP760  ASP761  ALA762  ILE779  LEU786  VAL792 
 PHE793  MET794  SER795  GLU796  ALA797  LYS798  CYS799  TRP800  GLU811  SER814 

> <Gold.Protein.RotatedAtoms>
  152.2557  134.8086  160.0438 H   0  0  0  0  0  0  0  0  0  0  0  0  # atno 6907 bound_to 6896
  151.8750  133.3478  159.3755 H   0  0  0  0  0  0  0  0  0  0  0  0  # atno 6908 bound_to 6896
  150.7099  134.5002  159.5601 H   0  0  0  0  0  0  0  0  0  0  0  0  # atno 6909 bound_to 6896
  145.9006  140.7997  142.9745 H   0  0  0  0  0  0  0  0  0  0  0  0  # atno 7974 bound_to 7965
  155.9996  140.1218  157.0560 H   0  0  0  0  0  0  0  0  0  0  0  0  # atno 8008 bound_to 7997
  154.4238  140.1109  156.5748 H   0  0  0  0  0  0  0  0  0  0  0  0  # atno 8009 bound_to 7997
  155.6230  140.3472  155.4660 H   0  0  0  0  0  0  0  0  0  0  0  0  # atno 8010 bound_to 7997
  139.6246  144.7106  151.2561 H   0  0  0  0  0  0  0  0  0  0  0  0  # atno 10167 bound_to 10162
  156.4639  130.8226  151.2457 H   0  0  0  0  0  0  0  0  0  0  0  0  # atno 10718 bound_to 10713
  154.7994  135.3236  154.7588 H   0  0  0  0  0  0  0  0  0  0  0  0  # atno 10763 bound_to 10752
  153.8260  135.6883  153.4825 H   0  0  0  0  0  0  0  0  0  0  0  0  # atno 10764 bound_to 10752
  153.1702  135.4626  154.9834 H   0  0  0  0  0  0  0  0  0  0  0  0  # atno 10765 bound_to 10752
  141.1327  133.6631  156.5389 H   0  0  0  0  0  0  0  0  0  0  0  0  # atno 11005 bound_to 11000
  144.6735  140.1672  143.7417 LP  0  0  0  0  0  0  0  0  0  0  0  0  # atno 17320 bound_to 7965
  145.8795  139.2315  143.1613 LP  0  0  0  0  0  0  0  0  0  0  0  0  # atno 17321 bound_to 7965
  140.7403  143.6592  150.8179 LP  0  0  0  0  0  0  0  0  0  0  0  0  # atno 17342 bound_to 10162
  140.0208  143.5544  152.2801 LP  0  0  0  0  0  0  0  0  0  0  0  0  # atno 17343 bound_to 10162
  157.7496  131.0098  150.3281 LP  0  0  0  0  0  0  0  0  0  0  0  0  # atno 17370 bound_to 10713
  156.3687  130.3860  149.7192 LP  0  0  0  0  0  0  0  0  0  0  0  0  # atno 17371 bound_to 10713
  140.4156  134.7234  157.4861 LP  0  0  0  0  0  0  0  0  0  0  0  0  # atno 17394 bound_to 11000
  140.0396  134.6286  155.8998 LP  0  0  0  0  0  0  0  0  0  0  0  0  # atno 17395 bound_to 11000

$$$$
