AV-unprocessed.smi:1596|AV-procd|sdf|6417|dock4
  -GOLD-   22720 7 53D 1   1.00000     0.00000
 Structure written by MMmdl.
 49 50  0  0  0  0  0  0  0  0  2 V2000
  151.3912  144.5401  158.7219 C   0  0  0  0  0  0  0  0  0  0  0  0
  152.1845  143.3849  158.0930 C   0  0  0  0  0  0  0  0  0  0  0  0
  151.8384  142.0749  158.6505 N   0  0  0  0  0  0  0  0  0  0  0  0
  152.1405  141.7894  160.0533 C   0  0  0  0  0  0  0  0  0  0  0  0
  153.5666  142.1885  160.4614 C   0  0  0  0  0  0  0  0  0  0  0  0
  151.3846  141.0412  157.7946 C   0  0  0  0  0  0  0  0  0  0  0  0
  151.3495  141.1507  156.3815 C   0  0  0  0  0  0  0  0  0  0  0  0
  150.8832  140.0728  155.6011 C   0  0  0  0  0  0  0  0  0  0  0  0
  150.4626  138.8820  156.2278 C   0  0  0  0  0  0  0  0  0  0  0  0
  149.9860  137.8271  155.4030 N   0  0  0  0  0  0  0  0  0  0  0  0
  149.5377  136.6152  155.7737 C   0  0  0  0  0  0  0  0  0  0  0  0
  149.5092  136.1914  156.9290 O   0  0  0  0  0  0  0  0  0  0  0  0
  149.1330  135.9014  154.7133 N   0  0  0  0  0  0  0  0  0  0  0  0
  148.6035  134.5416  154.7650 C   0  0  2  0  0  0  0  0  0  0  0  0
  149.4664  133.6191  153.8847 C   0  0  0  0  0  0  0  0  0  0  0  0
  148.9217  132.1800  153.8681 C   0  0  0  0  0  0  0  0  0  0  0  0
  147.4410  132.1214  153.4477 C   0  0  2  0  0  0  0  0  0  0  0  0
  147.3144  132.4377  152.0753 O   0  0  0  0  0  0  0  0  0  0  0  0
  146.5751  133.0756  154.2915 C   0  0  0  0  0  0  0  0  0  0  0  0
  147.1312  134.5101  154.3059 C   0  0  0  0  0  0  0  0  0  0  0  0
  150.5057  138.8213  157.6401 C   0  0  0  0  0  0  0  0  0  0  0  0
  150.9575  139.8790  158.3475 N   0  3  0  0  0  0  0  0  0  0  0  0
  151.7061  145.4938  158.2984 H   0  0  0  0  0  0  0  0  0  0  0  0
  151.5442  144.5935  159.8000 H   0  0  0  0  0  0  0  0  0  0  0  0
  150.3221  144.4421  158.5392 H   0  0  0  0  0  0  0  0  0  0  0  0
  151.9985  143.3720  157.0187 H   0  0  0  0  0  0  0  0  0  0  0  0
  153.2549  143.5652  158.1960 H   0  0  0  0  0  0  0  0  0  0  0  0
  151.4319  142.3309  160.6807 H   0  0  0  0  0  0  0  0  0  0  0  0
  151.9612  140.7363  160.2687 H   0  0  0  0  0  0  0  0  0  0  0  0
  153.7540  141.9230  161.5018 H   0  0  0  0  0  0  0  0  0  0  0  0
  153.7255  143.2618  160.3684 H   0  0  0  0  0  0  0  0  0  0  0  0
  154.3182  141.6848  159.8535 H   0  0  0  0  0  0  0  0  0  0  0  0
  151.6674  142.0480  155.8732 H   0  0  0  0  0  0  0  0  0  0  0  0
  150.8552  140.1631  154.5249 H   0  0  0  0  0  0  0  0  0  0  0  0
  150.0258  138.0001  154.4091 H   0  0  0  0  0  0  0  0  0  0  0  0
  149.1949  136.3269  153.8000 H   0  0  0  0  0  0  0  0  0  0  0  0
  148.6611  134.1798  155.7936 H   0  0  0  0  0  0  0  0  0  0  0  0
  149.5006  134.0058  152.8651 H   0  0  0  0  0  0  0  0  0  0  0  0
  150.4956  133.6145  154.2452 H   0  0  0  0  0  0  0  0  0  0  0  0
  149.5268  131.5573  153.2083 H   0  0  0  0  0  0  0  0  0  0  0  0
  149.0242  131.7528  154.8664 H   0  0  0  0  0  0  0  0  0  0  0  0
  147.0753  131.1018  153.5737 H   0  0  0  0  0  0  0  0  0  0  0  0
  148.0540  132.0727  151.6138 H   0  0  0  0  0  0  0  0  0  0  0  0
  145.5467  133.0757  153.9285 H   0  0  0  0  0  0  0  0  0  0  0  0
  146.5346  132.7043  155.3164 H   0  0  0  0  0  0  0  0  0  0  0  0
  146.5176  135.1276  154.9626 H   0  0  0  0  0  0  0  0  0  0  0  0
  147.0451  134.9448  153.3090 H   0  0  0  0  0  0  0  0  0  0  0  0
  150.1878  137.9804  158.2379 H   0  0  0  0  0  0  0  0  0  0  0  0
  150.9749  139.7979  159.3644 H   0  0  0  0  0  0  0  0  0  0  0  0
  1  2  1  0  0  0  0
  1 23  1  0  0  0  0
  1 24  1  0  0  0  0
  1 25  1  0  0  0  0
  2  3  1  0  0  0  0
  2 26  1  0  0  0  0
  2 27  1  0  0  0  0
  3  4  1  0  0  0  0
  3  6  1  0  0  0  0
  4  5  1  0  0  0  0
  4 28  1  0  0  0  0
  4 29  1  0  0  0  0
  5 30  1  0  0  0  0
  5 31  1  0  0  0  0
  5 32  1  0  0  0  0
  6 22  1  0  0  0  0
  6  7  2  0  0  0  0
  7  8  1  0  0  0  0
  7 33  1  0  0  0  0
  8  9  2  0  0  0  0
  8 34  1  0  0  0  0
  9 10  1  0  0  0  0
  9 21  1  0  0  0  0
 10 11  1  0  0  0  0
 10 35  1  0  0  0  0
 11 12  2  0  0  0  0
 11 13  1  0  0  0  0
 13 14  1  0  0  0  0
 13 36  1  0  0  0  0
 14 20  1  0  0  0  0
 14 15  1  0  0  0  0
 14 37  1  0  0  0  0
 15 16  1  0  0  0  0
 15 38  1  0  0  0  0
 15 39  1  0  0  0  0
 16 17  1  0  0  0  0
 16 40  1  0  0  0  0
 16 41  1  0  0  0  0
 17 18  1  0  0  0  0
 17 19  1  0  0  0  0
 17 42  1  0  0  0  0
 18 43  1  0  0  0  0
 19 20  1  0  0  0  0
 19 44  1  0  0  0  0
 19 45  1  0  0  0  0
 20 46  1  0  0  0  0
 20 47  1  0  0  0  0
 21 22  2  0  0  0  0
 21 48  1  0  0  0  0
 22 49  1  0  0  0  0
M  CHG  1  22   1
M  END
> <s_m_source_file>
AV-unprocessed.smi

> <i_m_source_file_index>
1596

> <i_lp_mmshare_version>
43012

> <i_f3d_flags>
0

> <s_epik_input>
W0NIM11bQ0gyXU4oW0NIMl1bQ0gzXSljMVtjSF1bY0hdYyhbY0hdbjEpW05IXUMoPU8pW05IXVtDQEBIXTJbQ0gyXVtDSDJdW0NAQEhdKFtPSF0pW0NIMl1bQ0gyXTI=

> <s_epik_cmdline>
J2VwaWtfcHl0aG9uJywgJy1waCcsICc3LjAnLCAnLXRuJywgJzgnLCAnLW1hJywgJzIwMCcsICctbWV0YWxfYmluZGluZycsICctaW1hZScsICc8aW5maWxlLm1hZT4nLCAnLW9tYWUnLCAnPG91dGZpbGUubWFlPic=

> <r_lp_tautomer_probability>
0.999994

> <r_epik_Ionization_Penalty>
0.224167

> <r_epik_Ionization_Penalty_Charging>
0.224146

> <r_epik_Ionization_Penalty_Neutral>
2.1696e-05

> <r_epik_State_Penalty>
0.0144855

> <r_epik_Charging_Adjusted_Penalty>
0.238631

> <i_epik_Tot_Q>
1

> <i_epik_Tot_abs_Q>
1

> <r_epik_Metal_State_Penalty>
0.0446449

> <b_epik_Metal_Only>
0

> <s_lp_Force_Field>
OPLS_2005

> <r_lp_Energy>
23.6459

> <b_lp_Chiralities_Consistent>
1

> <s_lp_Variant>
AV-unprocessed.smi:1596-2

> <Gold.Version>
5.8.1

> <Gold.Id.Protein>
6NUR|6NUR_protein|mol2

> <Gold.PLP.Fitness>
42.5440

> <Gold.PLP.PLP>
-36.7704

> <Gold.PLP.part.hbond>
-2.0000

> <Gold.PLP.part.metal>
0.0000

> <Gold.PLP.part.buried>
-5.8817

> <Gold.PLP.part.nonpolar>
-28.9167

> <Gold.PLP.part.repulsive>
0.1647

> <Gold.PLP.ligand.clash>
0.0000

> <Gold.PLP.ligand.torsion>
0.1690

> <Gold.PLP.Chemscore.Hbond>
2.0000

> <Gold.PLP.Chemscore.CHOScore>
0.0000

> <Gold.PLP.Chemscore.Metal>
0.0000

> <Gold.Chemscore.Hbonds>
donor molecule, donor type, donor heavy atom, donor atom, acceptor molecule, acceptor atom, score
      L1  H    13    36       P1  7948  1.00
      L1  H    18    43       P1 10747  1.00

> <Gold.PLP.Chemscore.Internal.Correction>
0.1115

> <Gold.Rescore>
     Score         DG    S(hbond)    S(metal)    S(lipo)     H(rot)  DE(clash)    DE(int)     intcor
     16.32     -17.89       1.96        0.00      90.20       1.83       0.17       1.40       ----

> <Gold.Chemscore.Fitness>
16.3173

> <Gold.Chemscore.DG>
-17.8893

> <Gold.Chemscore.ZeroCoef>
-5.4800

> <Gold.Chemscore.Hbond>
1.9598

> <Gold.Chemscore.Metal>
0.0000

> <Gold.Chemscore.Lipo>
90.1955

> <Gold.Chemscore.Internal_Hbond>
0.0000

> <Gold.Chemscore.DEClash>
0.1739

> <Gold.Chemscore.DEInternal>
1.3982

> <Gold.Chemscore.Rot>
1.8317

> <Gold.Chemscore.Internal.Correction>
   9.000000E+99

> <Gold.Chemscore.Hbonds>
donor molecule, donor type, donor heavy atom, donor atom, acceptor molecule, acceptor atom, score
      L1  H    13    36       P1  7948  0.89
      L1  H    18    43       P1 10747  0.92

> <Gold.Chemscore.Hbond.Weighted>
-6.5456

> <Gold.Chemscore.Metal.Weighted>
-0.0000

> <Gold.Chemscore.Lipo.Weighted>
-10.5529

> <Gold.Chemscore.Internal_Hbond.Weighted>
0.0000

> <Gold.Chemscore.DEClash.Weighted>
0.1739

> <Gold.Chemscore.DEInternal.Weighted>
1.3982

> <Gold.Chemscore.Rot.Weighted>
4.6892

> <Gold.Chemscore.Internal.Correction.Weighted>
   9.000000E+99

> <Gold.Protein.RotatedTorsions>
[ 6907 6896 6895 6894 ] final  152.82 input  -60.11 | X-H torsion
[ 7974 7965 7964 7962 ] final  171.27 input  175.53 | X-H torsion
[ 8008 7997 7996 7995 ] final  123.44 input   59.86 | X-H torsion
[ 10167 10162 10161 10158 ] final  175.01 input  -65.29 | X-H torsion
[ 10718 10713 10712 10709 ] final   24.48 input   66.30 | X-H torsion
[ 10763 10752 10751 10750 ] final  -22.94 input  -60.55 | X-H torsion
[ 11005 11000 10999 10996 ] final   60.24 input  -57.11 | X-H torsion

> <Gold.Protein.ActiveResidues>
 VAL166  LYS551  ARG553  GLY616  TRP617  ASP618  TYR619  PRO620  LYS621  CYS622 
 ASP623  PHE694  ASN695  SER759  ASP760  ASP761  ALA762  ILE779  LEU786  VAL792 
 PHE793  MET794  SER795  GLU796  ALA797  LYS798  CYS799  TRP800  GLU811  SER814 

> <Gold.Protein.RotatedAtoms>
  152.0814  133.4155  159.4502 H   0  0  0  0  0  0  0  0  0  0  0  0  # atno 6907 bound_to 6896
  150.6862  134.2977  159.4702 H   0  0  0  0  0  0  0  0  0  0  0  0  # atno 6908 bound_to 6896
  152.0819  134.9465  160.0624 H   0  0  0  0  0  0  0  0  0  0  0  0  # atno 6909 bound_to 6896
  144.7300  139.9324  143.6425 H   0  0  0  0  0  0  0  0  0  0  0  0  # atno 7974 bound_to 7965
  156.2766  140.2762  156.1629 H   0  0  0  0  0  0  0  0  0  0  0  0  # atno 8008 bound_to 7997
  155.0735  140.0387  157.2634 H   0  0  0  0  0  0  0  0  0  0  0  0  # atno 8009 bound_to 7997
  154.7021  140.2651  155.6715 H   0  0  0  0  0  0  0  0  0  0  0  0  # atno 8010 bound_to 7997
  139.5162  144.3080  152.0318 H   0  0  0  0  0  0  0  0  0  0  0  0  # atno 10167 bound_to 10162
  157.1803  130.6800  149.6111 H   0  0  0  0  0  0  0  0  0  0  0  0  # atno 10718 bound_to 10713
  153.6599  135.6977  153.5181 H   0  0  0  0  0  0  0  0  0  0  0  0  # atno 10763 bound_to 10752
  153.2639  135.4236  155.0921 H   0  0  0  0  0  0  0  0  0  0  0  0  # atno 10764 bound_to 10752
  154.8454  135.3562  154.6144 H   0  0  0  0  0  0  0  0  0  0  0  0  # atno 10765 bound_to 10752
  140.0246  134.6102  155.9591 H   0  0  0  0  0  0  0  0  0  0  0  0  # atno 11005 bound_to 11000
  146.0847  139.3835  143.0443 LP  0  0  0  0  0  0  0  0  0  0  0  0  # atno 17320 bound_to 7965
  145.7793  140.9863  143.1108 LP  0  0  0  0  0  0  0  0  0  0  0  0  # atno 17321 bound_to 7965
  140.2526  144.4153  150.6216 LP  0  0  0  0  0  0  0  0  0  0  0  0  # atno 17342 bound_to 10162
  140.6214  143.2176  151.6686 LP  0  0  0  0  0  0  0  0  0  0  0  0  # atno 17343 bound_to 10162
  155.9725  130.4649  150.6234 LP  0  0  0  0  0  0  0  0  0  0  0  0  # atno 17370 bound_to 10713
  157.3959  131.0802  151.1352 LP  0  0  0  0  0  0  0  0  0  0  0  0  # atno 17371 bound_to 10713
  141.1795  133.6544  156.4961 LP  0  0  0  0  0  0  0  0  0  0  0  0  # atno 17394 bound_to 11000
  140.4329  134.7086  157.4951 LP  0  0  0  0  0  0  0  0  0  0  0  0  # atno 17395 bound_to 11000

$$$$
