AV-unprocessed.smi:3270|AV-procd|sdf|12512|dock6
  -GOLD-   2272018423D 1   1.00000     0.00000
 Structure written by MMmdl.
 38 39  0  0  0  0  0  0  0  0  1 V2000
  151.5358  145.3078  159.2808 C   0  0  0  0  0  0  0  0  0  0  0  0
  151.9595  143.8292  159.1600 C   0  0  2  0  0  0  0  0  0  0  0  0
  150.8337  142.9302  158.6244 C   0  0  0  0  0  0  0  0  0  0  0  0
  149.6805  143.0509  159.0398 O   0  0  0  0  0  0  0  0  0  0  0  0
  151.1863  142.0268  157.6958 N   0  0  0  0  0  0  0  0  0  0  0  0
  150.2830  141.0665  157.0740 C   0  0  0  0  0  0  0  0  0  0  0  0
  150.2920  141.1964  155.5391 C   0  0  0  0  0  0  0  0  0  0  0  0
  151.1354  140.2258  154.8433 N   0  0  0  0  0  0  0  0  0  0  0  0
  152.3978  140.0310  155.5490 C   0  0  0  0  0  0  0  0  0  0  0  0
  153.3051  139.0121  154.8380 C   0  0  0  0  0  0  0  0  0  0  0  0
  152.6123  137.7767  154.6947 O   0  0  0  0  0  0  0  0  0  0  0  0
  151.3951  137.9124  153.9689 C   0  0  0  0  0  0  0  0  0  0  0  0
  150.4812  138.9298  154.6748 C   0  0  0  0  0  0  0  0  0  0  0  0
  152.4776  143.2962  160.4151 N   0  0  0  0  0  0  0  0  0  0  0  0
  153.4043  142.2880  160.5893 C   0  0  0  0  0  0  0  0  0  0  0  0
  153.5552  142.0948  161.9324 C   0  0  0  0  0  0  0  0  0  0  0  0
  152.6576  143.0339  162.5111 C   0  0  0  0  0  0  0  0  0  0  0  0
  152.0086  143.7439  161.6033 N   0  0  0  0  0  0  0  0  0  0  0  0
  151.2039  145.7007  158.3193 H   0  0  0  0  0  0  0  0  0  0  0  0
  152.3710  145.9245  159.6137 H   0  0  0  0  0  0  0  0  0  0  0  0
  150.7200  145.4459  159.9921 H   0  0  0  0  0  0  0  0  0  0  0  0
  152.7756  143.7907  158.4363 H   0  0  0  0  0  0  0  0  0  0  0  0
  152.1536  141.9940  157.4087 H   0  0  0  0  0  0  0  0  0  0  0  0
  150.6097  140.0738  157.3813 H   0  0  0  0  0  0  0  0  0  0  0  0
  149.2719  141.1976  157.4631 H   0  0  0  0  0  0  0  0  0  0  0  0
  149.2662  141.0776  155.1878 H   0  0  0  0  0  0  0  0  0  0  0  0
  150.5877  142.2087  155.2594 H   0  0  0  0  0  0  0  0  0  0  0  0
  152.9247  140.9821  155.6337 H   0  0  0  0  0  0  0  0  0  0  0  0
  152.2041  139.6903  156.5674 H   0  0  0  0  0  0  0  0  0  0  0  0
  153.6098  139.3831  153.8584 H   0  0  0  0  0  0  0  0  0  0  0  0
  154.2148  138.8462  155.4152 H   0  0  0  0  0  0  0  0  0  0  0  0
  151.6072  138.2288  152.9464 H   0  0  0  0  0  0  0  0  0  0  0  0
  150.9053  136.9406  153.9086 H   0  0  0  0  0  0  0  0  0  0  0  0
  150.1853  138.5348  155.6480 H   0  0  0  0  0  0  0  0  0  0  0  0
  149.5686  139.0386  154.0901 H   0  0  0  0  0  0  0  0  0  0  0  0
  153.8747  141.7961  159.7509 H   0  0  0  0  0  0  0  0  0  0  0  0
  154.2042  141.3871  162.4265 H   0  0  0  0  0  0  0  0  0  0  0  0
  152.4562  143.2164  163.5563 H   0  0  0  0  0  0  0  0  0  0  0  0
  1  2  1  0  0  0  0
  1 19  1  0  0  0  0
  1 20  1  0  0  0  0
  1 21  1  0  0  0  0
  2  3  1  0  0  0  0
  2 14  1  0  0  0  0
  2 22  1  0  0  0  0
  3  4  2  0  0  0  0
  3  5  1  0  0  0  0
  5  6  1  0  0  0  0
  5 23  1  0  0  0  0
  6  7  1  0  0  0  0
  6 24  1  0  0  0  0
  6 25  1  0  0  0  0
  7  8  1  0  0  0  0
  7 26  1  0  0  0  0
  7 27  1  0  0  0  0
  8 13  1  0  0  0  0
  8  9  1  0  0  0  0
  9 10  1  0  0  0  0
  9 28  1  0  0  0  0
  9 29  1  0  0  0  0
 10 11  1  0  0  0  0
 10 30  1  0  0  0  0
 10 31  1  0  0  0  0
 11 12  1  0  0  0  0
 12 13  1  0  0  0  0
 12 32  1  0  0  0  0
 12 33  1  0  0  0  0
 13 34  1  0  0  0  0
 13 35  1  0  0  0  0
 14 18  1  0  0  0  0
 14 15  1  0  0  0  0
 15 16  2  0  0  0  0
 15 36  1  0  0  0  0
 16 17  1  0  0  0  0
 16 37  1  0  0  0  0
 17 18  2  0  0  0  0
 17 38  1  0  0  0  0
M  END
> <s_m_source_file>
AV-unprocessed.smi

> <i_m_source_file_index>
3270

> <i_lp_mmshare_version>
43012

> <i_f3d_flags>
0

> <s_epik_input>
bjFbY0hdW2NIXVtjSF1uMVtDQEhdKFtDSDNdKUMoPU8pW05IXVtDSDJdW0NIMl1OMltDSDJdW0NIMl1PW0NIMl1bQ0gyXTI=

> <s_epik_cmdline>
J2VwaWtfcHl0aG9uJywgJy1waCcsICc3LjAnLCAnLXRuJywgJzgnLCAnLW1hJywgJzIwMCcsICctbWV0YWxfYmluZGluZycsICctaW1hZScsICc8aW5maWxlLm1hZT4nLCAnLW9tYWUnLCAnPG91dGZpbGUubWFlPic=

> <r_lp_tautomer_probability>
1

> <r_epik_Ionization_Penalty>
0.203323

> <r_epik_Ionization_Penalty_Charging>
0

> <r_epik_Ionization_Penalty_Neutral>
0.203323

> <r_epik_State_Penalty>
0.193192

> <r_epik_Charging_Adjusted_Penalty>
0.193192

> <i_epik_Tot_Q>
0

> <i_epik_Tot_abs_Q>
0

> <r_epik_Metal_State_Penalty>
0.193187

> <b_epik_Metal_Only>
0

> <s_lp_Force_Field>
OPLS_2005

> <r_lp_Energy>
25.3297

> <b_lp_Chiralities_Consistent>
1

> <s_lp_Variant>
AV-unprocessed.smi:3270-1

> <Gold.Version>
5.8.1

> <Gold.Id.Protein>
6NUR|6NUR_protein|mol2

> <Gold.PLP.Fitness>
49.7048

> <Gold.PLP.PLP>
-47.7282

> <Gold.PLP.part.hbond>
-2.3598

> <Gold.PLP.part.metal>
0.0000

> <Gold.PLP.part.buried>
-4.9405

> <Gold.PLP.part.nonpolar>
-40.6284

> <Gold.PLP.part.repulsive>
0.4528

> <Gold.PLP.ligand.clash>
0.0000

> <Gold.PLP.ligand.torsion>
1.7164

> <Gold.PLP.Chemscore.Hbond>
1.7644

> <Gold.PLP.Chemscore.CHOScore>
0.0000

> <Gold.PLP.Chemscore.Metal>
0.0000

> <Gold.Chemscore.Hbonds>
donor molecule, donor type, donor heavy atom, donor atom, acceptor molecule, acceptor atom, score
      P1  H  7989  7998       L1     8  1.00
      P1  H 10752 10765       L1    11  0.33

> <Gold.PLP.Chemscore.Internal.Correction>
0.1162

> <Gold.Rescore>
     Score         DG    S(hbond)    S(metal)    S(lipo)     H(rot)  DE(clash)    DE(int)     intcor
     14.07     -15.94       0.99        0.00     101.26       1.83       0.09       1.77       ----

> <Gold.Chemscore.Fitness>
14.0746

> <Gold.Chemscore.DG>
-15.9365

> <Gold.Chemscore.ZeroCoef>
-5.4800

> <Gold.Chemscore.Hbond>
0.9854

> <Gold.Chemscore.Metal>
0.0000

> <Gold.Chemscore.Lipo>
101.2601

> <Gold.Chemscore.Internal_Hbond>
0.0000

> <Gold.Chemscore.DEClash>
0.0899

> <Gold.Chemscore.DEInternal>
1.7720

> <Gold.Chemscore.Rot>
1.8290

> <Gold.Chemscore.Internal.Correction>
   9.000000E+99

> <Gold.Chemscore.Hbonds>
donor molecule, donor type, donor heavy atom, donor atom, acceptor molecule, acceptor atom, score
      P1  H  7989  7998       L1     8  0.17
      P1  H 10752 10765       L1    11  0.09

> <Gold.Chemscore.Hbond.Weighted>
-3.2912

> <Gold.Chemscore.Metal.Weighted>
-0.0000

> <Gold.Chemscore.Lipo.Weighted>
-11.8474

> <Gold.Chemscore.Internal_Hbond.Weighted>
0.0000

> <Gold.Chemscore.DEClash.Weighted>
0.0899

> <Gold.Chemscore.DEInternal.Weighted>
1.7720

> <Gold.Chemscore.Rot.Weighted>
4.6821

> <Gold.Chemscore.Internal.Correction.Weighted>
   9.000000E+99

> <Gold.Protein.RotatedTorsions>
[ 6907 6896 6895 6894 ] final   64.01 input  -60.11 | X-H torsion
[ 7974 7965 7964 7962 ] final -119.63 input  175.53 | X-H torsion
[ 8008 7997 7996 7995 ] final  172.98 input   59.86 | X-H torsion
[ 10167 10162 10161 10158 ] final  -67.35 input  -65.29 | X-H torsion
[ 10718 10713 10712 10709 ] final -147.81 input   66.30 | X-H torsion
[ 10763 10752 10751 10750 ] final  172.22 input  -60.55 | X-H torsion
[ 11005 11000 10999 10996 ] final  -26.05 input  -57.11 | X-H torsion

> <Gold.Protein.ActiveResidues>
 VAL166  LYS551  ARG553  GLY616  TRP617  ASP618  TYR619  PRO620  LYS621  CYS622 
 ASP623  PHE694  ASN695  SER759  ASP760  ASP761  ALA762  ILE779  LEU786  VAL792 
 PHE793  MET794  SER795  GLU796  ALA797  LYS798  CYS799  TRP800  GLU811  SER814 

> <Gold.Protein.RotatedAtoms>
  152.4298  134.5799  159.9944 H   0  0  0  0  0  0  0  0  0  0  0  0  # atno 6907 bound_to 6896
  151.5926  133.3359  159.3038 H   0  0  0  0  0  0  0  0  0  0  0  0  # atno 6908 bound_to 6896
  150.8190  134.7424  159.6820 H   0  0  0  0  0  0  0  0  0  0  0  0  # atno 6909 bound_to 6896
  145.0604  140.8285  143.4156 H   0  0  0  0  0  0  0  0  0  0  0  0  # atno 7974 bound_to 7965
  156.1121  140.1472  156.9324 H   0  0  0  0  0  0  0  0  0  0  0  0  # atno 8008 bound_to 7997
  154.4774  140.0890  156.7339 H   0  0  0  0  0  0  0  0  0  0  0  0  # atno 8009 bound_to 7997
  155.4578  140.3437  155.4311 H   0  0  0  0  0  0  0  0  0  0  0  0  # atno 8010 bound_to 7997
  140.5589  143.2312  151.6767 H   0  0  0  0  0  0  0  0  0  0  0  0  # atno 10167 bound_to 10162
  156.4122  130.7987  151.2205 H   0  0  0  0  0  0  0  0  0  0  0  0  # atno 10718 bound_to 10713
  154.4230  135.2758  155.1963 H   0  0  0  0  0  0  0  0  0  0  0  0  # atno 10763 bound_to 10752
  154.3901  135.6068  153.5842 H   0  0  0  0  0  0  0  0  0  0  0  0  # atno 10764 bound_to 10752
  152.9833  135.5901  154.4529 H   0  0  0  0  0  0  0  0  0  0  0  0  # atno 10765 bound_to 10752
  140.8994  133.7534  156.0524 H   0  0  0  0  0  0  0  0  0  0  0  0  # atno 11005 bound_to 11000
  145.1416  139.2568  143.5487 LP  0  0  0  0  0  0  0  0  0  0  0  0  # atno 17320 bound_to 7965
  146.3524  140.1095  142.8604 LP  0  0  0  0  0  0  0  0  0  0  0  0  # atno 17321 bound_to 7965
  139.5061  144.3695  152.0484 LP  0  0  0  0  0  0  0  0  0  0  0  0  # atno 17342 bound_to 10162
  140.2819  144.3850  150.6116 LP  0  0  0  0  0  0  0  0  0  0  0  0  # atno 17343 bound_to 10162
  157.7507  131.0254  150.3917 LP  0  0  0  0  0  0  0  0  0  0  0  0  # atno 17370 bound_to 10713
  156.4218  130.3954  149.6820 LP  0  0  0  0  0  0  0  0  0  0  0  0  # atno 17371 bound_to 10713
  140.8249  134.3246  157.5369 LP  0  0  0  0  0  0  0  0  0  0  0  0  # atno 17394 bound_to 11000
  139.8740  134.9330  156.3569 LP  0  0  0  0  0  0  0  0  0  0  0  0  # atno 17395 bound_to 11000

$$$$
