AV-unprocessed.smi:1535|AV-procd|sdf|6179|dock3
  -GOLD-   22720 6333D 1   1.00000     0.00000
 Structure written by MMmdl.
 47 48  0  0  0  0  0  0  0  0  2 V2000
  152.4530  143.7979  160.3595 C   0  0  0  0  0  0  0  0  0  0  0  0
  152.2850  142.7563  159.2673 C   0  0  0  0  0  0  0  0  0  0  0  0
  151.3489  142.9890  158.2344 C   0  0  0  0  0  0  0  0  0  0  0  0
  151.1637  142.0468  157.1991 C   0  0  0  0  0  0  0  0  0  0  0  0
  150.3179  142.0686  156.1035 N   0  0  0  0  0  0  0  0  0  0  0  0
  150.6082  140.9109  155.5172 C   0  0  0  0  0  0  0  0  0  0  0  0
  151.5421  140.1389  156.1062 N   0  0  0  0  0  0  0  0  0  0  0  0
  152.0183  138.8406  155.6639 C   0  0  0  0  0  0  0  0  0  0  0  0
  151.0518  138.1741  154.6666 C   0  0  1  0  0  0  0  0  0  0  0  0
  151.6217  136.9655  154.2002 O   0  0  0  0  0  0  0  0  0  0  0  0
  149.6848  137.8629  155.3071 C   0  0  0  0  0  0  0  0  0  0  0  0
  148.6209  137.6504  154.2898 N   0  3  2  0  0  0  0  0  0  0  0  0
  148.1098  138.9244  153.7266 C   0  0  0  0  0  0  0  0  0  0  0  0
  147.5315  136.7649  154.7807 C   0  0  0  0  0  0  0  0  0  0  0  0
  148.0502  135.5757  155.6130 C   0  0  2  0  0  0  0  0  0  0  0  0
  149.0792  134.7504  154.8298 C   0  0  0  0  0  0  0  0  0  0  0  0
  146.9428  134.7229  156.0750 C   0  0  0  0  0  0  0  0  0  0  0  0
  146.0753  134.0495  156.4372 N   0  0  0  0  0  0  0  0  0  0  0  0
  151.9447  140.8546  157.2278 C   0  0  0  0  0  0  0  0  0  0  0  0
  152.8787  140.6111  158.2499 C   0  0  0  0  0  0  0  0  0  0  0  0
  153.0540  141.5647  159.2745 C   0  0  0  0  0  0  0  0  0  0  0  0
  154.0690  141.2958  160.3713 C   0  0  0  0  0  0  0  0  0  0  0  0
  151.7594  144.6287  160.2271 H   0  0  0  0  0  0  0  0  0  0  0  0
  153.4655  144.2015  160.3484 H   0  0  0  0  0  0  0  0  0  0  0  0
  152.2649  143.3597  161.3398 H   0  0  0  0  0  0  0  0  0  0  0  0
  150.7637  143.8967  158.2283 H   0  0  0  0  0  0  0  0  0  0  0  0
  150.1087  140.6033  154.6101 H   0  0  0  0  0  0  0  0  0  0  0  0
  153.0082  138.9611  155.2210 H   0  0  0  0  0  0  0  0  0  0  0  0
  152.1457  138.2097  156.5445 H   0  0  0  0  0  0  0  0  0  0  0  0
  150.9267  138.8386  153.8122 H   0  0  0  0  0  0  0  0  0  0  0  0
  151.1535  136.6856  153.4281 H   0  0  0  0  0  0  0  0  0  0  0  0
  149.7991  136.9768  155.9332 H   0  0  0  0  0  0  0  0  0  0  0  0
  149.3825  138.6675  155.9796 H   0  0  0  0  0  0  0  0  0  0  0  0
  147.5672  139.4949  154.4811 H   0  0  0  0  0  0  0  0  0  0  0  0
  147.4386  138.7465  152.8877 H   0  0  0  0  0  0  0  0  0  0  0  0
  148.9180  139.5503  153.3508 H   0  0  0  0  0  0  0  0  0  0  0  0
  146.8542  137.3393  155.4146 H   0  0  0  0  0  0  0  0  0  0  0  0
  146.9386  136.4134  153.9349 H   0  0  0  0  0  0  0  0  0  0  0  0
  148.5461  135.9436  156.5103 H   0  0  0  0  0  0  0  0  0  0  0  0
  149.4616  133.9279  155.4350 H   0  0  0  0  0  0  0  0  0  0  0  0
  149.9300  135.3625  154.5299 H   0  0  0  0  0  0  0  0  0  0  0  0
  148.6400  134.3221  153.9282 H   0  0  0  0  0  0  0  0  0  0  0  0
  153.4566  139.6990  158.2440 H   0  0  0  0  0  0  0  0  0  0  0  0
  154.5959  140.3558  160.2046 H   0  0  0  0  0  0  0  0  0  0  0  0
  153.5756  141.2361  161.3414 H   0  0  0  0  0  0  0  0  0  0  0  0
  154.8120  142.0930  160.4084 H   0  0  0  0  0  0  0  0  0  0  0  0
  149.0684  137.1488  153.5350 H   0  0  0  0  0  0  0  0  0  0  0  0
  1  2  1  0  0  0  0
  1 23  1  0  0  0  0
  1 24  1  0  0  0  0
  1 25  1  0  0  0  0
  2 21  1  0  0  0  0
  2  3  2  0  0  0  0
  3  4  1  0  0  0  0
  3 26  1  0  0  0  0
  4 19  2  0  0  0  0
  4  5  1  0  0  0  0
  5  6  2  0  0  0  0
  6  7  1  0  0  0  0
  6 27  1  0  0  0  0
  7  8  1  0  0  0  0
  7 19  1  0  0  0  0
  8  9  1  0  0  0  0
  8 28  1  0  0  0  0
  8 29  1  0  0  0  0
  9 10  1  0  0  0  0
  9 11  1  0  0  0  0
  9 30  1  0  0  0  0
 10 31  1  0  0  0  0
 11 12  1  0  0  0  0
 11 32  1  0  0  0  0
 11 33  1  0  0  0  0
 12 13  1  0  0  0  0
 12 14  1  0  0  0  0
 12 47  1  0  0  0  0
 13 34  1  0  0  0  0
 13 35  1  0  0  0  0
 13 36  1  0  0  0  0
 14 15  1  0  0  0  0
 14 37  1  0  0  0  0
 14 38  1  0  0  0  0
 15 16  1  0  0  0  0
 15 17  1  0  0  0  0
 15 39  1  0  0  0  0
 16 40  1  0  0  0  0
 16 41  1  0  0  0  0
 16 42  1  0  0  0  0
 17 18  3  0  0  0  0
 19 20  1  0  0  0  0
 20 21  2  0  0  0  0
 20 43  1  0  0  0  0
 21 22  1  0  0  0  0
 22 44  1  0  0  0  0
 22 45  1  0  0  0  0
 22 46  1  0  0  0  0
M  CHG  1  12   1
M  END
> <s_m_source_file>
AV-unprocessed.smi

> <i_m_source_file_index>
1535

> <i_lp_mmshare_version>
43012

> <i_f3d_flags>
0

> <s_epik_input>
W0NIM11jKFtjSF0xKWMoW0NIM10pW2NIXWMoYzEyKW4oW2NIXW4yKVtDSDJdW0NASF0oW09IXSlbQ0gyXU4oW0NIM10pW0NIMl1bQ0BIXShbQ0gzXSlDI04=

> <s_epik_cmdline>
J2VwaWtfcHl0aG9uJywgJy1waCcsICc3LjAnLCAnLXRuJywgJzgnLCAnLW1hJywgJzIwMCcsICctbWV0YWxfYmluZGluZycsICctaW1hZScsICc8aW5maWxlLm1hZT4nLCAnLW9tYWUnLCAnPG91dGZpbGUubWFlPic=

> <r_epik_Ionization_Penalty>
2.21058

> <r_epik_Ionization_Penalty_Charging>
2.12381

> <r_epik_Ionization_Penalty_Neutral>
0.0867699

> <r_epik_State_Penalty>
2.36208

> <r_epik_Charging_Adjusted_Penalty>
4.48589

> <i_epik_Tot_Q>
1

> <i_epik_Tot_abs_Q>
1

> <r_epik_Metal_State_Penalty>
2.2818

> <b_epik_Metal_Only>
0

> <s_lp_Force_Field>
OPLS_2005

> <r_lp_Energy>
14.9944

> <b_lp_Chiralities_Consistent>
1

> <s_lp_Variant>
AV-unprocessed.smi:1535-10

> <Gold.Version>
5.8.1

> <Gold.Id.Protein>
6NUR|6NUR_protein|mol2

> <Gold.PLP.Fitness>
49.0519

> <Gold.PLP.PLP>
-38.4915

> <Gold.PLP.part.hbond>
-3.0000

> <Gold.PLP.part.metal>
0.0000

> <Gold.PLP.part.buried>
-2.4793

> <Gold.PLP.part.nonpolar>
-32.4297

> <Gold.PLP.part.repulsive>
0.5864

> <Gold.PLP.ligand.clash>
0.0000

> <Gold.PLP.ligand.torsion>
0.7876

> <Gold.PLP.Chemscore.Hbond>
3.9913

> <Gold.PLP.Chemscore.CHOScore>
0.0000

> <Gold.PLP.Chemscore.Metal>
0.0000

> <Gold.Chemscore.Hbonds>
donor molecule, donor type, donor heavy atom, donor atom, acceptor molecule, acceptor atom, score
      L1  H    10    31       P1  7949  0.92
      L1  H    12    47       P1  7948  2.00
      P1  H 10752 10765       L1    10  0.95

> <Gold.PLP.Chemscore.Internal.Correction>
0.1618

> <Gold.Rescore>
     Score         DG    S(hbond)    S(metal)    S(lipo)     H(rot)  DE(clash)    DE(int)     intcor
     15.78     -17.07       1.85        0.00     103.32       2.60       0.61       0.68       ----

> <Gold.Chemscore.Fitness>
15.7843

> <Gold.Chemscore.DG>
-17.0725

> <Gold.Chemscore.ZeroCoef>
-5.4800

> <Gold.Chemscore.Hbond>
1.8465

> <Gold.Chemscore.Metal>
0.0000

> <Gold.Chemscore.Lipo>
103.3245

> <Gold.Chemscore.Internal_Hbond>
0.0000

> <Gold.Chemscore.DEClash>
0.6081

> <Gold.Chemscore.DEInternal>
0.6801

> <Gold.Chemscore.Rot>
2.6031

> <Gold.Chemscore.Internal.Correction>
   9.000000E+99

> <Gold.Chemscore.Hbonds>
donor molecule, donor type, donor heavy atom, donor atom, acceptor molecule, acceptor atom, score
      L1  H    10    31       P1  7949  0.37
      L1  H    12    47       P1  7948  0.95
      P1  H 10752 10765       L1    10  0.22

> <Gold.Chemscore.Hbond.Weighted>
-6.1675

> <Gold.Chemscore.Metal.Weighted>
-0.0000

> <Gold.Chemscore.Lipo.Weighted>
-12.0890

> <Gold.Chemscore.Internal_Hbond.Weighted>
0.0000

> <Gold.Chemscore.DEClash.Weighted>
0.6081

> <Gold.Chemscore.DEInternal.Weighted>
0.6801

> <Gold.Chemscore.Rot.Weighted>
6.6640

> <Gold.Chemscore.Internal.Correction.Weighted>
   9.000000E+99

> <Gold.Protein.RotatedTorsions>
[ 6907 6896 6895 6894 ] final -141.67 input  -60.11 | X-H torsion
[ 7974 7965 7964 7962 ] final  -95.14 input  175.53 | X-H torsion
[ 8008 7997 7996 7995 ] final    9.81 input   59.86 | X-H torsion
[ 10167 10162 10161 10158 ] final -137.59 input  -65.29 | X-H torsion
[ 10718 10713 10712 10709 ] final   73.40 input   66.30 | X-H torsion
[ 10763 10752 10751 10750 ] final  158.60 input  -60.55 | X-H torsion
[ 11005 11000 10999 10996 ] final  121.05 input  -57.11 | X-H torsion

> <Gold.Protein.ActiveResidues>
 VAL166  LYS551  ARG553  GLY616  TRP617  ASP618  TYR619  PRO620  LYS621  CYS622 
 ASP623  PHE694  ASN695  SER759  ASP760  ASP761  ALA762  ILE779  LEU786  VAL792 
 PHE793  MET794  SER795  GLU796  ALA797  LYS798  CYS799  TRP800  GLU811  SER814 

> <Gold.Protein.RotatedAtoms>
  151.0768  133.5421  159.2623 H   0  0  0  0  0  0  0  0  0  0  0  0  # atno 6907 bound_to 6896
  151.2340  135.0564  159.9008 H   0  0  0  0  0  0  0  0  0  0  0  0  # atno 6908 bound_to 6896
  152.5419  134.0553  159.8182 H   0  0  0  0  0  0  0  0  0  0  0  0  # atno 6909 bound_to 6896
  145.3640  140.9496  143.2485 H   0  0  0  0  0  0  0  0  0  0  0  0  # atno 7974 bound_to 7965
  154.7849  140.2825  155.6035 H   0  0  0  0  0  0  0  0  0  0  0  0  # atno 8008 bound_to 7997
  156.2956  140.2616  156.2612 H   0  0  0  0  0  0  0  0  0  0  0  0  # atno 8009 bound_to 7997
  154.9739  140.0375  157.2237 H   0  0  0  0  0  0  0  0  0  0  0  0  # atno 8010 bound_to 7997
  139.8563  143.7134  152.2654 H   0  0  0  0  0  0  0  0  0  0  0  0  # atno 10167 bound_to 10162
  157.6546  130.9627  150.1064 H   0  0  0  0  0  0  0  0  0  0  0  0  # atno 10718 bound_to 10713
  154.2186  135.2783  155.2933 H   0  0  0  0  0  0  0  0  0  0  0  0  # atno 10763 bound_to 10752
  154.5720  135.5615  153.7107 H   0  0  0  0  0  0  0  0  0  0  0  0  # atno 10764 bound_to 10752
  153.0047  135.6323  154.2326 H   0  0  0  0  0  0  0  0  0  0  0  0  # atno 10765 bound_to 10752
  139.9210  134.9637  156.7900 H   0  0  0  0  0  0  0  0  0  0  0  0  # atno 11005 bound_to 11000
  144.8625  139.5155  143.6805 LP  0  0  0  0  0  0  0  0  0  0  0  0  # atno 17320 bound_to 7965
  146.2915  139.7153  142.9157 LP  0  0  0  0  0  0  0  0  0  0  0  0  # atno 17321 bound_to 7965
  139.7417  144.7558  151.0643 LP  0  0  0  0  0  0  0  0  0  0  0  0  # atno 17342 bound_to 10162
  140.7781  143.4965  150.9826 LP  0  0  0  0  0  0  0  0  0  0  0  0  # atno 17343 bound_to 10162
  156.1973  130.3658  149.8833 LP  0  0  0  0  0  0  0  0  0  0  0  0  # atno 17370 bound_to 10713
  156.6746  130.8834  151.3567 LP  0  0  0  0  0  0  0  0  0  0  0  0  # atno 17371 bound_to 10713
  140.6475  133.9762  155.7738 LP  0  0  0  0  0  0  0  0  0  0  0  0  # atno 17394 bound_to 11000
  141.0730  134.0176  157.3498 LP  0  0  0  0  0  0  0  0  0  0  0  0  # atno 17395 bound_to 11000

$$$$
