AV-unprocessed.smi:970|AV-procd|sdf|4294|dock8
  -GOLD-   22720 2203D 1   1.00000     0.00000
 Structure written by MMmdl.
 31 31  0  0  0  0  0  0  0  0  1 V2000
  148.2699  145.4048  161.0428 C   0  0  0  0  0  0  0  0  0  0  0  0
  148.8904  144.9455  159.8100 N   0  0  0  0  0  0  0  0  0  0  0  0
  150.0940  144.3588  159.7436 C   0  0  0  0  0  0  0  0  0  0  0  0
  150.8001  144.1575  160.7334 O   0  0  0  0  0  0  0  0  0  0  0  0
  150.5772  143.9535  158.3413 C   0  0  1  0  0  0  0  0  0  0  0  0
  151.9086  143.1991  158.4938 C   0  0  0  0  0  0  0  0  0  0  0  0
  149.6198  143.0499  157.7065 N   0  0  0  0  0  0  0  0  0  0  0  0
  149.3398  141.8019  158.1174 C   0  0  0  0  0  0  0  0  0  0  0  0
  149.8729  141.2829  159.0990 O   0  0  0  0  0  0  0  0  0  0  0  0
  148.2992  141.0321  157.2899 C   0  0  1  0  0  0  0  0  0  0  0  0
  146.9099  141.7015  157.3133 C   0  0  0  0  0  0  0  0  0  0  0  0
  148.7920  140.8244  155.9335 N   0  0  0  0  0  0  0  0  0  0  0  0
  149.1337  141.7155  154.9999 C   0  0  0  0  0  0  0  0  0  0  0  0
  149.4959  141.1748  153.8451 N   0  0  0  0  0  0  0  0  0  0  0  0
  149.3325  139.8537  154.1511 C   0  0  0  0  0  0  0  0  0  0  0  0
  148.9022  139.5887  155.3843 N   0  0  0  0  0  0  0  0  0  0  0  0
  147.2660  145.7765  160.8380 H   0  0  0  0  0  0  0  0  0  0  0  0
  148.8493  146.2143  161.4885 H   0  0  0  0  0  0  0  0  0  0  0  0
  148.1914  144.5924  161.7666 H   0  0  0  0  0  0  0  0  0  0  0  0
  148.3709  145.0758  158.9540 H   0  0  0  0  0  0  0  0  0  0  0  0
  150.7262  144.8388  157.7196 H   0  0  0  0  0  0  0  0  0  0  0  0
  152.6685  143.8260  158.9626 H   0  0  0  0  0  0  0  0  0  0  0  0
  152.2962  142.8944  157.5212 H   0  0  0  0  0  0  0  0  0  0  0  0
  151.7992  142.2988  159.1004 H   0  0  0  0  0  0  0  0  0  0  0  0
  149.1450  143.3969  156.8860 H   0  0  0  0  0  0  0  0  0  0  0  0
  148.1865  140.0453  157.7426 H   0  0  0  0  0  0  0  0  0  0  0  0
  146.5355  141.7913  158.3336 H   0  0  0  0  0  0  0  0  0  0  0  0
  146.1851  141.1125  156.7508 H   0  0  0  0  0  0  0  0  0  0  0  0
  146.9284  142.7025  156.8801 H   0  0  0  0  0  0  0  0  0  0  0  0
  149.1125  142.7825  155.1671 H   0  0  0  0  0  0  0  0  0  0  0  0
  149.5298  139.0635  153.4416 H   0  0  0  0  0  0  0  0  0  0  0  0
  1  2  1  0  0  0  0
  1 17  1  0  0  0  0
  1 18  1  0  0  0  0
  1 19  1  0  0  0  0
  2  3  1  0  0  0  0
  2 20  1  0  0  0  0
  3  4  2  0  0  0  0
  3  5  1  0  0  0  0
  5  6  1  0  0  0  0
  5  7  1  0  0  0  0
  5 21  1  0  0  0  0
  6 22  1  0  0  0  0
  6 23  1  0  0  0  0
  6 24  1  0  0  0  0
  7  8  1  0  0  0  0
  7 25  1  0  0  0  0
  8  9  2  0  0  0  0
  8 10  1  0  0  0  0
 10 11  1  0  0  0  0
 10 12  1  0  0  0  0
 10 26  1  0  0  0  0
 11 27  1  0  0  0  0
 11 28  1  0  0  0  0
 11 29  1  0  0  0  0
 12 16  1  0  0  0  0
 12 13  1  0  0  0  0
 13 14  2  0  0  0  0
 13 30  1  0  0  0  0
 14 15  1  0  0  0  0
 15 16  2  0  0  0  0
 15 31  1  0  0  0  0
M  END
> <s_m_source_file>
AV-unprocessed.smi

> <i_m_source_file_index>
970

> <i_lp_mmshare_version>
43012

> <i_f3d_flags>
0

> <s_epik_input>
W0NIM11bTkhdQyg9TylbQ0BIXShbQ0gzXSlbTkhdQyg9TylbQ0BIXShbQ0gzXSluMVtjSF1uW2NIXW4x

> <s_epik_cmdline>
J2VwaWtfcHl0aG9uJywgJy1waCcsICc3LjAnLCAnLXRuJywgJzgnLCAnLW1hJywgJzIwMCcsICctbWV0YWxfYmluZGluZycsICctaW1hZScsICc8aW5maWxlLm1hZT4nLCAnLW9tYWUnLCAnPG91dGZpbGUubWFlPic=

> <r_lp_tautomer_probability>
1

> <r_epik_Ionization_Penalty>
1.07271e-05

> <r_epik_Ionization_Penalty_Charging>
0

> <r_epik_Ionization_Penalty_Neutral>
1.07271e-05

> <r_epik_State_Penalty>
-0

> <r_epik_Charging_Adjusted_Penalty>
0

> <i_epik_Tot_Q>
0

> <i_epik_Tot_abs_Q>
0

> <r_epik_Metal_State_Penalty>
-0

> <b_epik_Metal_Only>
0

> <s_lp_Force_Field>
OPLS_2005

> <r_lp_Energy>
8.70478

> <b_lp_Chiralities_Consistent>
1

> <s_lp_Variant>
AV-unprocessed.smi:970-4

> <Gold.Version>
5.8.1

> <Gold.Id.Protein>
6NUR|6NUR_protein|mol2

> <Gold.PLP.Fitness>
35.4634

> <Gold.PLP.PLP>
-21.8195

> <Gold.PLP.part.hbond>
-5.0597

> <Gold.PLP.part.metal>
0.0000

> <Gold.PLP.part.buried>
0.2444

> <Gold.PLP.part.nonpolar>
-18.3023

> <Gold.PLP.part.repulsive>
2.0182

> <Gold.PLP.ligand.clash>
0.0000

> <Gold.PLP.ligand.torsion>
0.1758

> <Gold.PLP.Chemscore.Hbond>
3.0904

> <Gold.PLP.Chemscore.CHOScore>
1.5381

> <Gold.PLP.Chemscore.Metal>
0.0000

> <Gold.Chemscore.Hbonds>
donor molecule, donor type, donor heavy atom, donor atom, acceptor molecule, acceptor atom, score
      L1  H     2    20       P1  8029  1.00
      L1  H     7    25       P1  8028  0.99
      P1  H  7989  7998       L1    14  0.13
      P1  H  8011  8017       L1    14  0.88
      L1  C    13    30       P1  8028  0.93
      L1  C    15    31       P1  7957  0.59

> <Gold.PLP.Chemscore.Internal.Correction>
0.1101

> <Gold.Rescore>
     Score         DG    S(hbond)    S(metal)    S(lipo)     H(rot)  DE(clash)    DE(int)     intcor
      8.45     -11.68       2.73        0.00      31.52       2.59       1.70       1.54       ----

> <Gold.Chemscore.Fitness>
8.4472

> <Gold.Chemscore.DG>
-11.6808

> <Gold.Chemscore.ZeroCoef>
-5.4800

> <Gold.Chemscore.Hbond>
2.7340

> <Gold.Chemscore.Metal>
0.0000

> <Gold.Chemscore.Lipo>
31.5176

> <Gold.Chemscore.Internal_Hbond>
0.0000

> <Gold.Chemscore.DEClash>
1.6962

> <Gold.Chemscore.DEInternal>
1.5374

> <Gold.Chemscore.Rot>
2.5852

> <Gold.Chemscore.Internal.Correction>
   9.000000E+99

> <Gold.Chemscore.Hbonds>
donor molecule, donor type, donor heavy atom, donor atom, acceptor molecule, acceptor atom, score
      L1  H     2    20       P1  8029  0.97
      L1  H     7    25       P1  8028  0.82
      P1  H  7989  7998       L1    14  0.01
      P1  H  8011  8017       L1    14  0.80

> <Gold.Chemscore.Hbond.Weighted>
-9.1314

> <Gold.Chemscore.Metal.Weighted>
-0.0000

> <Gold.Chemscore.Lipo.Weighted>
-3.6876

> <Gold.Chemscore.Internal_Hbond.Weighted>
0.0000

> <Gold.Chemscore.DEClash.Weighted>
1.6962

> <Gold.Chemscore.DEInternal.Weighted>
1.5374

> <Gold.Chemscore.Rot.Weighted>
6.6182

> <Gold.Chemscore.Internal.Correction.Weighted>
   9.000000E+99

> <Gold.Protein.RotatedTorsions>
[ 6907 6896 6895 6894 ] final   22.49 input  -60.11 | X-H torsion
[ 7974 7965 7964 7962 ] final  148.67 input  175.53 | X-H torsion
[ 8008 7997 7996 7995 ] final   46.97 input   59.86 | X-H torsion
[ 10167 10162 10161 10158 ] final  -94.13 input  -65.29 | X-H torsion
[ 10718 10713 10712 10709 ] final  176.64 input   66.30 | X-H torsion
[ 10763 10752 10751 10750 ] final  144.01 input  -60.55 | X-H torsion
[ 11005 11000 10999 10996 ] final -131.57 input  -57.11 | X-H torsion

> <Gold.Protein.ActiveResidues>
 VAL166  LYS551  ARG553  GLY616  TRP617  ASP618  TYR619  PRO620  LYS621  CYS622 
 ASP623  PHE694  ASN695  SER759  ASP760  ASP761  ALA762  ILE779  LEU786  VAL792 
 PHE793  MET794  SER795  GLU796  ALA797  LYS798  CYS799  TRP800  GLU811  SER814 

> <Gold.Protein.RotatedAtoms>
  151.9280  135.0269  160.0526 H   0  0  0  0  0  0  0  0  0  0  0  0  # atno 6907 bound_to 6896
  152.2143  133.4930  159.5135 H   0  0  0  0  0  0  0  0  0  0  0  0  # atno 6908 bound_to 6896
  150.6984  134.1343  159.4124 H   0  0  0  0  0  0  0  0  0  0  0  0  # atno 6909 bound_to 6896
  144.8496  139.6183  143.5980 H   0  0  0  0  0  0  0  0  0  0  0  0  # atno 7974 bound_to 7965
  155.3613  140.3419  155.4241 H   0  0  0  0  0  0  0  0  0  0  0  0  # atno 8008 bound_to 7997
  156.1712  140.1632  156.8478 H   0  0  0  0  0  0  0  0  0  0  0  0  # atno 8009 bound_to 7997
  154.5235  140.0761  156.8198 H   0  0  0  0  0  0  0  0  0  0  0  0  # atno 8010 bound_to 7997
  140.3176  143.3068  152.0082 H   0  0  0  0  0  0  0  0  0  0  0  0  # atno 10167 bound_to 10162
  156.9172  130.9929  151.3011 H   0  0  0  0  0  0  0  0  0  0  0  0  # atno 10718 bound_to 10713
  153.9817  135.2940  155.3419 H   0  0  0  0  0  0  0  0  0  0  0  0  # atno 10763 bound_to 10752
  154.7265  135.5086  153.8897 H   0  0  0  0  0  0  0  0  0  0  0  0  # atno 10764 bound_to 10752
  153.0851  135.6691  154.0080 H   0  0  0  0  0  0  0  0  0  0  0  0  # atno 10765 bound_to 10752
  140.9247  134.1398  157.4285 H   0  0  0  0  0  0  0  0  0  0  0  0  # atno 11005 bound_to 11000
  146.2773  139.6787  142.9253 LP  0  0  0  0  0  0  0  0  0  0  0  0  # atno 17320 bound_to 7965
  145.4527  141.0429  143.2796 LP  0  0  0  0  0  0  0  0  0  0  0  0  # atno 17321 bound_to 7965
  139.4881  144.6336  151.7020 LP  0  0  0  0  0  0  0  0  0  0  0  0  # atno 17342 bound_to 10162
  140.5513  144.0421  150.6128 LP  0  0  0  0  0  0  0  0  0  0  0  0  # atno 17343 bound_to 10162
  157.5931  130.8458  149.8688 LP  0  0  0  0  0  0  0  0  0  0  0  0  # atno 17370 bound_to 10713
  156.0508  130.3718  150.1206 LP  0  0  0  0  0  0  0  0  0  0  0  0  # atno 17371 bound_to 10713
  139.8783  134.9984  156.5898 LP  0  0  0  0  0  0  0  0  0  0  0  0  # atno 17394 bound_to 11000
  140.7941  133.8558  155.8671 LP  0  0  0  0  0  0  0  0  0  0  0  0  # atno 17395 bound_to 11000

$$$$
