AV-unprocessed.smi:694|AV-procd|sdf|3383|dock10
  -GOLD-   22720 0363D 1   1.00000     0.00000
 Structure written by MMmdl.
 42 43  0  0  0  0  0  0  0  0  1 V2000
  151.0223  142.2180  157.1691 C   0  0  0  0  0  0  0  0  0  0  0  0
  149.6057  141.8779  157.0806 N   0  0  0  0  0  0  0  0  0  0  0  0
  148.6525  142.4954  157.9942 C   0  0  0  0  0  0  0  0  0  0  0  0
  149.1703  140.9148  156.1417 C   0  0  0  0  0  0  0  0  0  0  0  0
  150.0755  140.2910  155.2476 C   0  0  0  0  0  0  0  0  0  0  0  0
  149.5910  139.3353  154.3346 C   0  0  0  0  0  0  0  0  0  0  0  0
  148.2209  139.0124  154.3349 C   0  0  0  0  0  0  0  0  0  0  0  0
  147.7583  138.0554  153.3922 N   0  0  0  0  0  0  0  0  0  0  0  0
  146.4948  137.6677  153.1484 C   0  0  0  0  0  0  0  0  0  0  0  0
  145.4969  138.0851  153.7358 O   0  0  0  0  0  0  0  0  0  0  0  0
  146.4527  136.7337  152.1876 N   0  0  0  0  0  0  0  0  0  0  0  0
  145.2459  136.0692  151.7044 C   0  0  0  0  0  0  0  0  0  0  0  0
  145.5687  134.7340  151.0045 C   0  0  1  0  0  0  0  0  0  0  0  0
  146.0557  133.6211  151.9448 C   0  0  0  0  0  0  0  0  0  0  0  0
  145.7006  132.2928  151.2595 C   0  0  0  0  0  0  0  0  0  0  0  0
  144.7969  132.6468  150.0713 C   0  0  0  0  0  0  0  0  0  0  0  0
  144.3625  134.0947  150.3104 C   0  0  2  0  0  0  0  0  0  0  0  0
  144.0368  134.7432  149.0986 O   0  0  0  0  0  0  0  0  0  0  0  0
  147.3885  139.6947  155.2527 C   0  0  0  0  0  0  0  0  0  0  0  0
  147.8491  140.6128  156.1279 N   0  0  0  0  0  0  0  0  0  0  0  0
  151.6033  141.3508  157.4845 H   0  0  0  0  0  0  0  0  0  0  0  0
  151.1961  143.0178  157.8890 H   0  0  0  0  0  0  0  0  0  0  0  0
  151.3988  142.5549  156.2028 H   0  0  0  0  0  0  0  0  0  0  0  0
  147.9037  143.0621  157.4401 H   0  0  0  0  0  0  0  0  0  0  0  0
  149.1484  143.1816  158.6807 H   0  0  0  0  0  0  0  0  0  0  0  0
  148.1462  141.7368  158.5919 H   0  0  0  0  0  0  0  0  0  0  0  0
  151.1293  140.5240  155.2439 H   0  0  0  0  0  0  0  0  0  0  0  0
  150.2696  138.8528  153.6461 H   0  0  0  0  0  0  0  0  0  0  0  0
  148.4794  137.5619  152.8869 H   0  0  0  0  0  0  0  0  0  0  0  0
  147.3240  136.4501  151.7642 H   0  0  0  0  0  0  0  0  0  0  0  0
  144.5310  135.9157  152.5147 H   0  0  0  0  0  0  0  0  0  0  0  0
  144.7606  136.7430  150.9980 H   0  0  0  0  0  0  0  0  0  0  0  0
  146.3452  134.9045  150.2561 H   0  0  0  0  0  0  0  0  0  0  0  0
  147.1218  133.7029  152.1582 H   0  0  0  0  0  0  0  0  0  0  0  0
  145.5285  133.6806  152.8979 H   0  0  0  0  0  0  0  0  0  0  0  0
  146.5952  131.7706  150.9187 H   0  0  0  0  0  0  0  0  0  0  0  0
  145.1857  131.6337  151.9594 H   0  0  0  0  0  0  0  0  0  0  0  0
  145.3794  132.5784  149.1510 H   0  0  0  0  0  0  0  0  0  0  0  0
  143.9490  131.9683  149.9735 H   0  0  0  0  0  0  0  0  0  0  0  0
  143.4972  134.1125  150.9747 H   0  0  0  0  0  0  0  0  0  0  0  0
  144.8397  134.9840  148.6623 H   0  0  0  0  0  0  0  0  0  0  0  0
  146.3226  139.5327  155.2901 H   0  0  0  0  0  0  0  0  0  0  0  0
  1  2  1  0  0  0  0
  1 21  1  0  0  0  0
  1 22  1  0  0  0  0
  1 23  1  0  0  0  0
  2  3  1  0  0  0  0
  2  4  1  0  0  0  0
  3 24  1  0  0  0  0
  3 25  1  0  0  0  0
  3 26  1  0  0  0  0
  4 20  1  0  0  0  0
  4  5  2  0  0  0  0
  5  6  1  0  0  0  0
  5 27  1  0  0  0  0
  6  7  2  0  0  0  0
  6 28  1  0  0  0  0
  7  8  1  0  0  0  0
  7 19  1  0  0  0  0
  8  9  1  0  0  0  0
  8 29  1  0  0  0  0
  9 10  2  0  0  0  0
  9 11  1  0  0  0  0
 11 12  1  0  0  0  0
 11 30  1  0  0  0  0
 12 13  1  0  0  0  0
 12 31  1  0  0  0  0
 12 32  1  0  0  0  0
 13 17  1  0  0  0  0
 13 14  1  0  0  0  0
 13 33  1  0  0  0  0
 14 15  1  0  0  0  0
 14 34  1  0  0  0  0
 14 35  1  0  0  0  0
 15 16  1  0  0  0  0
 15 36  1  0  0  0  0
 15 37  1  0  0  0  0
 16 17  1  0  0  0  0
 16 38  1  0  0  0  0
 16 39  1  0  0  0  0
 17 18  1  0  0  0  0
 17 40  1  0  0  0  0
 18 41  1  0  0  0  0
 19 20  2  0  0  0  0
 19 42  1  0  0  0  0
M  END
> <s_m_source_file>
AV-unprocessed.smi

> <i_m_source_file_index>
694

> <i_lp_mmshare_version>
43012

> <i_f3d_flags>
0

> <s_epik_input>
W0NIM11OKFtDSDNdKWMxW2NIXVtjSF1jKFtjSF1uMSlbTkhdQyg9TylbTkhdW0NIMl1bQ0BASF0yW0NIMl1bQ0gyXVtDSDJdW0NASF0yW09IXQ==

> <s_epik_cmdline>
J2VwaWtfcHl0aG9uJywgJy1waCcsICc3LjAnLCAnLXRuJywgJzgnLCAnLW1hJywgJzIwMCcsICctbWV0YWxfYmluZGluZycsICctaW1hZScsICc8aW5maWxlLm1hZT4nLCAnLW9tYWUnLCAnPG91dGZpbGUubWFlPic=

> <r_lp_tautomer_probability>
1

> <r_epik_Ionization_Penalty>
0.60335

> <r_epik_Ionization_Penalty_Charging>
0

> <r_epik_Ionization_Penalty_Neutral>
0.60335

> <r_epik_State_Penalty>
0.616805

> <r_epik_Charging_Adjusted_Penalty>
0.616805

> <i_epik_Tot_Q>
0

> <i_epik_Tot_abs_Q>
0

> <r_epik_Metal_State_Penalty>
0.301709

> <b_epik_Metal_Only>
0

> <s_lp_Force_Field>
OPLS_2005

> <r_lp_Energy>
25.3577

> <b_lp_Chiralities_Consistent>
1

> <s_lp_Variant>
AV-unprocessed.smi:694-8

> <Gold.Version>
5.8.1

> <Gold.Id.Protein>
6NUR|6NUR_protein|mol2

> <Gold.PLP.Fitness>
41.0343

> <Gold.PLP.PLP>
-32.4366

> <Gold.PLP.part.hbond>
-3.4340

> <Gold.PLP.part.metal>
0.0000

> <Gold.PLP.part.buried>
-4.2125

> <Gold.PLP.part.nonpolar>
-24.7818

> <Gold.PLP.part.repulsive>
0.2878

> <Gold.PLP.ligand.clash>
0.0000

> <Gold.PLP.ligand.torsion>
0.1930

> <Gold.PLP.Chemscore.Hbond>
2.9920

> <Gold.PLP.Chemscore.CHOScore>
0.0000

> <Gold.PLP.Chemscore.Metal>
0.0000

> <Gold.Chemscore.Hbonds>
donor molecule, donor type, donor heavy atom, donor atom, acceptor molecule, acceptor atom, score
      L1  H     8    29       P1  7948  1.00
      L1  H    11    30       P1  7948  1.00
      L1  H    18    41       P1  7921  1.00

> <Gold.PLP.Chemscore.Internal.Correction>
0.0077

> <Gold.Rescore>
     Score         DG    S(hbond)    S(metal)    S(lipo)     H(rot)  DE(clash)    DE(int)     intcor
     17.45     -18.95       2.83        0.00      72.05       1.73       0.06       1.44       ----

> <Gold.Chemscore.Fitness>
17.4527

> <Gold.Chemscore.DG>
-18.9465

> <Gold.Chemscore.ZeroCoef>
-5.4800

> <Gold.Chemscore.Hbond>
2.8310

> <Gold.Chemscore.Metal>
0.0000

> <Gold.Chemscore.Lipo>
72.0451

> <Gold.Chemscore.Internal_Hbond>
0.0000

> <Gold.Chemscore.DEClash>
0.0557

> <Gold.Chemscore.DEInternal>
1.4382

> <Gold.Chemscore.Rot>
1.7259

> <Gold.Chemscore.Internal.Correction>
   9.000000E+99

> <Gold.Chemscore.Hbonds>
donor molecule, donor type, donor heavy atom, donor atom, acceptor molecule, acceptor atom, score
      L1  H     8    29       P1  7948  0.94
      L1  H    11    30       P1  7948  0.95
      L1  H    18    41       P1  7921  0.99

> <Gold.Chemscore.Hbond.Weighted>
-9.4556

> <Gold.Chemscore.Metal.Weighted>
-0.0000

> <Gold.Chemscore.Lipo.Weighted>
-8.4293

> <Gold.Chemscore.Internal_Hbond.Weighted>
0.0000

> <Gold.Chemscore.DEClash.Weighted>
0.0557

> <Gold.Chemscore.DEInternal.Weighted>
1.4382

> <Gold.Chemscore.Rot.Weighted>
4.4184

> <Gold.Chemscore.Internal.Correction.Weighted>
   9.000000E+99

> <Gold.Protein.RotatedTorsions>
[ 6907 6896 6895 6894 ] final    7.43 input  -60.11 | X-H torsion
[ 7974 7965 7964 7962 ] final -175.07 input  175.53 | X-H torsion
[ 8008 7997 7996 7995 ] final    1.20 input   59.86 | X-H torsion
[ 10167 10162 10161 10158 ] final   80.46 input  -65.29 | X-H torsion
[ 10718 10713 10712 10709 ] final  115.78 input   66.30 | X-H torsion
[ 10763 10752 10751 10750 ] final  165.43 input  -60.55 | X-H torsion
[ 11005 11000 10999 10996 ] final   -9.58 input  -57.11 | X-H torsion

> <Gold.Protein.ActiveResidues>
 VAL166  LYS551  ARG553  GLY616  TRP617  ASP618  TYR619  PRO620  LYS621  CYS622 
 ASP623  PHE694  ASN695  SER759  ASP760  ASP761  ALA762  ILE779  LEU786  VAL792 
 PHE793  MET794  SER795  GLU796  ALA797  LYS798  CYS799  TRP800  GLU811  SER814 

> <Gold.Protein.RotatedAtoms>
  151.6897  135.0948  160.0231 H   0  0  0  0  0  0  0  0  0  0  0  0  # atno 6907 bound_to 6896
  152.3786  133.6510  159.6151 H   0  0  0  0  0  0  0  0  0  0  0  0  # atno 6908 bound_to 6896
  150.7729  133.9069  159.3399 H   0  0  0  0  0  0  0  0  0  0  0  0  # atno 6909 bound_to 6896
  144.7129  140.1375  143.6394 H   0  0  0  0  0  0  0  0  0  0  0  0  # atno 7974 bound_to 7965
  154.6770  140.2624  155.6947 H   0  0  0  0  0  0  0  0  0  0  0  0  # atno 8008 bound_to 7997
  156.2682  140.2818  156.1223 H   0  0  0  0  0  0  0  0  0  0  0  0  # atno 8009 bound_to 7997
  155.1086  140.0375  157.2707 H   0  0  0  0  0  0  0  0  0  0  0  0  # atno 8010 bound_to 7997
  139.9495  144.6036  150.8174 H   0  0  0  0  0  0  0  0  0  0  0  0  # atno 10167 bound_to 10162
  157.6201  131.1017  150.7379 H   0  0  0  0  0  0  0  0  0  0  0  0  # atno 10718 bound_to 10713
  154.3238  135.2755  155.2506 H   0  0  0  0  0  0  0  0  0  0  0  0  # atno 10763 bound_to 10752
  154.4848  135.5849  153.6419 H   0  0  0  0  0  0  0  0  0  0  0  0  # atno 10764 bound_to 10752
  152.9873  135.6120  154.3425 H   0  0  0  0  0  0  0  0  0  0  0  0  # atno 10765 bound_to 10752
  140.7357  133.8712  155.8927 H   0  0  0  0  0  0  0  0  0  0  0  0  # atno 11005 bound_to 11000
  145.9231  139.2558  143.1369 LP  0  0  0  0  0  0  0  0  0  0  0  0  # atno 17320 bound_to 7965
  145.9600  140.8843  143.0216 LP  0  0  0  0  0  0  0  0  0  0  0  0  # atno 17321 bound_to 7965
  140.7587  143.3113  151.2838 LP  0  0  0  0  0  0  0  0  0  0  0  0  # atno 17342 bound_to 10162
  139.6640  144.0139  152.2711 LP  0  0  0  0  0  0  0  0  0  0  0  0  # atno 17343 bound_to 10162
  156.7738  130.4837  149.5413 LP  0  0  0  0  0  0  0  0  0  0  0  0  # atno 17370 bound_to 10713
  156.1342  130.6199  151.0377 LP  0  0  0  0  0  0  0  0  0  0  0  0  # atno 17371 bound_to 10713
  140.9882  134.1314  157.4433 LP  0  0  0  0  0  0  0  0  0  0  0  0  # atno 17394 bound_to 11000
  139.8817  135.0032  156.6172 LP  0  0  0  0  0  0  0  0  0  0  0  0  # atno 17395 bound_to 11000

$$$$
