AV-unprocessed.smi:1463|AV-procd|sdf|5934|dock9
  -GOLD-   22720 6 13D 1   1.00000     0.00000
 Structure written by MMmdl.
 46 47  0  0  0  0  0  0  0  0  1 V2000
  152.1103  145.4143  159.1574 C   0  0  0  0  0  0  0  0  0  0  0  0
  151.7963  144.0511  158.9370 O   0  0  0  0  0  0  0  0  0  0  0  0
  151.9859  143.6591  157.5873 C   0  0  0  0  0  0  0  0  0  0  0  0
  151.9266  142.1316  157.5069 C   0  0  0  0  0  0  0  0  0  0  0  0
  151.2400  141.7847  156.3104 O   0  0  0  0  0  0  0  0  0  0  0  0
  151.3565  140.4992  155.8195 C   0  0  0  0  0  0  0  0  0  0  0  0
  152.4027  139.7440  156.2397 N   0  0  0  0  0  0  0  0  0  0  0  0
  152.5087  138.4797  155.7804 C   0  0  0  0  0  0  0  0  0  0  0  0
  151.5833  137.9017  154.8915 C   0  0  0  0  0  0  0  0  0  0  0  0
  150.4988  138.6843  154.4535 C   0  0  0  0  0  0  0  0  0  0  0  0
  150.3850  140.0158  154.9066 C   0  0  0  0  0  0  0  0  0  0  0  0
  149.2178  140.8567  154.4689 C   0  0  0  0  0  0  0  0  0  0  0  0
  149.4470  141.9100  153.8734 O   0  0  0  0  0  0  0  0  0  0  0  0
  147.9615  140.4144  154.7308 N   0  0  0  0  0  0  0  0  0  0  0  0
  147.5986  139.3800  155.7115 C   0  0  0  0  0  0  0  0  0  0  0  0
  146.8983  140.0460  156.9098 C   0  0  0  0  0  0  0  0  0  0  0  0
  145.6648  140.8636  156.4697 C   0  0  0  0  0  0  0  0  0  0  0  0
  145.0242  141.5875  157.6758 C   0  0  0  0  0  0  0  0  0  0  0  0
  145.9522  142.5913  158.3706 C   0  0  0  0  0  0  0  0  0  0  0  0
  146.3043  143.6736  157.6724 N   0  0  0  0  0  0  0  0  0  0  0  0
  146.3521  142.3938  159.5164 O   0  0  0  0  0  0  0  0  0  0  0  0
  146.0427  141.8259  155.3186 C   0  0  0  0  0  0  0  0  0  0  0  0
  146.7723  141.0809  154.1876 C   0  0  0  0  0  0  0  0  0  0  0  0
  151.9468  145.6623  160.2061 H   0  0  0  0  0  0  0  0  0  0  0  0
  151.4789  146.0673  158.5536 H   0  0  0  0  0  0  0  0  0  0  0  0
  153.1552  145.6207  158.9224 H   0  0  0  0  0  0  0  0  0  0  0  0
  151.1967  144.0917  156.9707 H   0  0  0  0  0  0  0  0  0  0  0  0
  152.9408  144.0228  157.2044 H   0  0  0  0  0  0  0  0  0  0  0  0
  152.9365  141.7181  157.5243 H   0  0  0  0  0  0  0  0  0  0  0  0
  151.3830  141.7375  158.3667 H   0  0  0  0  0  0  0  0  0  0  0  0
  153.3538  137.9098  156.1370 H   0  0  0  0  0  0  0  0  0  0  0  0
  151.7017  136.8823  154.5551 H   0  0  0  0  0  0  0  0  0  0  0  0
  149.7706  138.2669  153.7732 H   0  0  0  0  0  0  0  0  0  0  0  0
  146.9342  138.6544  155.2399 H   0  0  0  0  0  0  0  0  0  0  0  0
  148.4468  138.8088  156.0834 H   0  0  0  0  0  0  0  0  0  0  0  0
  146.6020  139.2831  157.6303 H   0  0  0  0  0  0  0  0  0  0  0  0
  147.6077  140.6964  157.4239 H   0  0  0  0  0  0  0  0  0  0  0  0
  144.9393  140.1495  156.0759 H   0  0  0  0  0  0  0  0  0  0  0  0
  144.1426  142.1376  157.3449 H   0  0  0  0  0  0  0  0  0  0  0  0
  144.6713  140.8514  158.3998 H   0  0  0  0  0  0  0  0  0  0  0  0
  146.9132  144.3654  158.0849 H   0  0  0  0  0  0  0  0  0  0  0  0
  145.9584  143.7964  156.7317 H   0  0  0  0  0  0  0  0  0  0  0  0
  145.1526  142.3081  154.9144 H   0  0  0  0  0  0  0  0  0  0  0  0
  146.6819  142.6247  155.6977 H   0  0  0  0  0  0  0  0  0  0  0  0
  147.0118  141.7728  153.3789 H   0  0  0  0  0  0  0  0  0  0  0  0
  146.1127  140.3317  153.7469 H   0  0  0  0  0  0  0  0  0  0  0  0
  1  2  1  0  0  0  0
  1 24  1  0  0  0  0
  1 25  1  0  0  0  0
  1 26  1  0  0  0  0
  2  3  1  0  0  0  0
  3  4  1  0  0  0  0
  3 27  1  0  0  0  0
  3 28  1  0  0  0  0
  4  5  1  0  0  0  0
  4 29  1  0  0  0  0
  4 30  1  0  0  0  0
  5  6  1  0  0  0  0
  6 11  1  0  0  0  0
  6  7  2  0  0  0  0
  7  8  1  0  0  0  0
  8  9  2  0  0  0  0
  8 31  1  0  0  0  0
  9 10  1  0  0  0  0
  9 32  1  0  0  0  0
 10 11  2  0  0  0  0
 10 33  1  0  0  0  0
 11 12  1  0  0  0  0
 12 13  2  0  0  0  0
 12 14  1  0  0  0  0
 14 23  1  0  0  0  0
 14 15  1  0  0  0  0
 15 16  1  0  0  0  0
 15 34  1  0  0  0  0
 15 35  1  0  0  0  0
 16 17  1  0  0  0  0
 16 36  1  0  0  0  0
 16 37  1  0  0  0  0
 17 18  1  0  0  0  0
 17 22  1  0  0  0  0
 17 38  1  0  0  0  0
 18 19  1  0  0  0  0
 18 39  1  0  0  0  0
 18 40  1  0  0  0  0
 19 20  1  0  0  0  0
 19 21  2  0  0  0  0
 20 41  1  0  0  0  0
 20 42  1  0  0  0  0
 22 23  1  0  0  0  0
 22 43  1  0  0  0  0
 22 44  1  0  0  0  0
 23 45  1  0  0  0  0
 23 46  1  0  0  0  0
M  END
> <s_m_source_file>
AV-unprocessed.smi

> <i_m_source_file_index>
1463

> <i_lp_mmshare_version>
43012

> <i_f3d_flags>
0

> <s_epik_input>
W0NIM11PW0NIMl1bQ0gyXU9jMW5bY0hdW2NIXVtjSF1jMUMoPU8pTjJbQ0gyXVtDSDJdW0NIXShbQ0gyXVtDSDJdMilbQ0gyXUMoPU8pW05IMl0=

> <s_epik_cmdline>
J2VwaWtfcHl0aG9uJywgJy1waCcsICc3LjAnLCAnLXRuJywgJzgnLCAnLW1hJywgJzIwMCcsICctbWV0YWxfYmluZGluZycsICctaW1hZScsICc8aW5maWxlLm1hZT4nLCAnLW9tYWUnLCAnPG91dGZpbGUubWFlPic=

> <r_lp_tautomer_probability>
1

> <r_epik_Ionization_Penalty>
2.54873e-06

> <r_epik_Ionization_Penalty_Charging>
0

> <r_epik_Ionization_Penalty_Neutral>
2.54873e-06

> <r_epik_State_Penalty>
-0

> <r_epik_Charging_Adjusted_Penalty>
0

> <i_epik_Tot_Q>
0

> <i_epik_Tot_abs_Q>
0

> <r_epik_Metal_State_Penalty>
-0

> <b_epik_Metal_Only>
0

> <s_lp_Force_Field>
OPLS_2005

> <r_lp_Energy>
26.7295

> <b_lp_Chiralities_Consistent>
1

> <s_lp_Variant>
AV-unprocessed.smi:1463-1

> <Gold.Version>
5.8.1

> <Gold.Id.Protein>
6NUR|6NUR_protein|mol2

> <Gold.PLP.Fitness>
39.7525

> <Gold.PLP.PLP>
-34.1123

> <Gold.PLP.part.hbond>
-4.5992

> <Gold.PLP.part.metal>
0.0000

> <Gold.PLP.part.buried>
-1.0715

> <Gold.PLP.part.nonpolar>
-27.5613

> <Gold.PLP.part.repulsive>
0.3599

> <Gold.PLP.ligand.clash>
0.0000

> <Gold.PLP.ligand.torsion>
1.8863

> <Gold.PLP.Chemscore.Hbond>
2.5659

> <Gold.PLP.Chemscore.CHOScore>
0.0000

> <Gold.PLP.Chemscore.Metal>
0.0000

> <Gold.Chemscore.Hbonds>
donor molecule, donor type, donor heavy atom, donor atom, acceptor molecule, acceptor atom, score
      L1  H    20    41       P1  8029  0.61
      P1  H  6934  6946       L1    21  1.00
      P1  H  7997  8010       L1     7  0.90
      P1  H  8011  8017       L1    13  0.48

> <Gold.PLP.Chemscore.Internal.Correction>
1.7151

> <Gold.Rescore>
     Score         DG    S(hbond)    S(metal)    S(lipo)     H(rot)  DE(clash)    DE(int)     intcor
     10.13     -12.96       1.77        0.00      69.29       2.55       0.12       2.72       ----

> <Gold.Chemscore.Fitness>
10.1279

> <Gold.Chemscore.DG>
-12.9630

> <Gold.Chemscore.ZeroCoef>
-5.4800

> <Gold.Chemscore.Hbond>
1.7703

> <Gold.Chemscore.Metal>
0.0000

> <Gold.Chemscore.Lipo>
69.2942

> <Gold.Chemscore.Internal_Hbond>
0.0000

> <Gold.Chemscore.DEClash>
0.1188

> <Gold.Chemscore.DEInternal>
2.7163

> <Gold.Chemscore.Rot>
2.5536

> <Gold.Chemscore.Internal.Correction>
   9.000000E+99

> <Gold.Chemscore.Hbonds>
donor molecule, donor type, donor heavy atom, donor atom, acceptor molecule, acceptor atom, score
      L1  H    20    41       P1  8029  0.29
      P1  H  6934  6946       L1    21  0.94
      P1  H  7997  8010       L1     7  0.17
      P1  H  8011  8017       L1    13  0.48

> <Gold.Chemscore.Hbond.Weighted>
-5.9128

> <Gold.Chemscore.Metal.Weighted>
-0.0000

> <Gold.Chemscore.Lipo.Weighted>
-8.1074

> <Gold.Chemscore.Internal_Hbond.Weighted>
0.0000

> <Gold.Chemscore.DEClash.Weighted>
0.1188

> <Gold.Chemscore.DEInternal.Weighted>
2.7163

> <Gold.Chemscore.Rot.Weighted>
6.5373

> <Gold.Chemscore.Internal.Correction.Weighted>
   9.000000E+99

> <Gold.Protein.RotatedTorsions>
[ 6907 6896 6895 6894 ] final  119.12 input  -60.11 | X-H torsion
[ 7974 7965 7964 7962 ] final  118.89 input  175.53 | X-H torsion
[ 8008 7997 7996 7995 ] final   69.87 input   59.86 | X-H torsion
[ 10167 10162 10161 10158 ] final  -91.29 input  -65.29 | X-H torsion
[ 10718 10713 10712 10709 ] final  -46.09 input   66.30 | X-H torsion
[ 10763 10752 10751 10750 ] final  -20.48 input  -60.55 | X-H torsion
[ 11005 11000 10999 10996 ] final  -89.45 input  -57.11 | X-H torsion

> <Gold.Protein.ActiveResidues>
 VAL166  LYS551  ARG553  GLY616  TRP617  ASP618  TYR619  PRO620  LYS621  CYS622 
 ASP623  PHE694  ASN695  SER759  ASP760  ASP761  ALA762  ILE779  LEU786  VAL792 
 PHE793  MET794  SER795  GLU796  ALA797  LYS798  CYS799  TRP800  GLU811  SER814 

> <Gold.Protein.RotatedAtoms>
  152.4494  133.7600  159.6740 H   0  0  0  0  0  0  0  0  0  0  0  0  # atno 6907 bound_to 6896
  150.8402  133.7938  159.3070 H   0  0  0  0  0  0  0  0  0  0  0  0  # atno 6908 bound_to 6896
  151.5565  135.1069  160.0014 H   0  0  0  0  0  0  0  0  0  0  0  0  # atno 6909 bound_to 6896
  145.1498  139.3217  143.4573 H   0  0  0  0  0  0  0  0  0  0  0  0  # atno 7974 bound_to 7965
  155.7302  140.3492  155.5056 H   0  0  0  0  0  0  0  0  0  0  0  0  # atno 8008 bound_to 7997
  155.9190  140.1064  157.1243 H   0  0  0  0  0  0  0  0  0  0  0  0  # atno 8009 bound_to 7997
  154.4067  140.1253  156.4641 H   0  0  0  0  0  0  0  0  0  0  0  0  # atno 8010 bound_to 7997
  140.3464  143.2914  151.9777 H   0  0  0  0  0  0  0  0  0  0  0  0  # atno 10167 bound_to 10162
  156.2218  130.4166  149.8984 H   0  0  0  0  0  0  0  0  0  0  0  0  # atno 10718 bound_to 10713
  153.6211  135.6992  153.5310 H   0  0  0  0  0  0  0  0  0  0  0  0  # atno 10763 bound_to 10752
  153.2937  135.4149  155.1189 H   0  0  0  0  0  0  0  0  0  0  0  0  # atno 10764 bound_to 10752
  154.8543  135.3631  154.5752 H   0  0  0  0  0  0  0  0  0  0  0  0  # atno 10765 bound_to 10752
  141.1584  133.7631  156.9596 H   0  0  0  0  0  0  0  0  0  0  0  0  # atno 11005 bound_to 11000
  146.3496  140.1567  142.8591 LP  0  0  0  0  0  0  0  0  0  0  0  0  # atno 17320 bound_to 7965
  145.0443  140.8969  143.5033 LP  0  0  0  0  0  0  0  0  0  0  0  0  # atno 17321 bound_to 7965
  139.4833  144.6113  151.7427 LP  0  0  0  0  0  0  0  0  0  0  0  0  # atno 17342 bound_to 10162
  140.5261  144.0804  150.6038 LP  0  0  0  0  0  0  0  0  0  0  0  0  # atno 17343 bound_to 10162
  156.6627  130.8789  151.3550 LP  0  0  0  0  0  0  0  0  0  0  0  0  # atno 17370 bound_to 10713
  157.7091  130.9419  150.1029 LP  0  0  0  0  0  0  0  0  0  0  0  0  # atno 17371 bound_to 10713
  140.1202  134.9422  157.2192 LP  0  0  0  0  0  0  0  0  0  0  0  0  # atno 17394 bound_to 11000
  140.3082  134.3054  155.7273 LP  0  0  0  0  0  0  0  0  0  0  0  0  # atno 17395 bound_to 11000

$$$$
