AV-unprocessed.smi:72|AV-procd|sdf|670|dock1
  -GOLD-   2262016573D 1   1.00000     0.00000
 Structure written by MMmdl.
 29 30  0  0  0  0  0  0  0  0  1 V2000
  143.1997  138.4337  153.8782 N   0  0  0  0  0  0  0  0  0  0  0  0
  143.3801  137.2137  153.5158 C   0  0  0  0  0  0  0  0  0  0  0  0
  143.1405  136.0863  154.3163 N   0  0  0  0  0  0  0  0  0  0  0  0
  143.3721  134.9104  153.8196 C   0  0  0  0  0  0  0  0  0  0  0  0
  143.8755  134.7259  152.4671 N   0  0  0  0  0  0  0  0  0  0  0  0
  144.1366  133.3387  151.9183 C   0  0  1  0  0  0  0  0  0  0  0  0
  143.4479  133.2034  150.7135 O   0  0  0  0  0  0  0  0  0  0  0  0
  144.2207  132.4125  149.8226 C   0  0  1  0  0  0  0  0  0  0  0  0
  143.7936  132.6893  148.3728 C   0  0  0  0  0  0  0  0  0  0  0  0
  142.4883  132.2007  148.1488 O   0  0  0  0  0  0  0  0  0  0  0  0
  145.6532  132.8571  150.1346 C   0  0  2  0  0  0  0  0  0  0  0  0
  146.5758  131.8480  149.7773 O   0  0  0  0  0  0  0  0  0  0  0  0
  145.6313  133.0535  151.6455 C   0  0  1  0  0  0  0  0  0  0  0  0
  146.5144  134.0925  152.0295 O   0  0  0  0  0  0  0  0  0  0  0  0
  144.1037  135.8510  151.6388 C   0  0  0  0  0  0  0  0  0  0  0  0
  144.4946  135.7505  150.4762 O   0  0  0  0  0  0  0  0  0  0  0  0
  143.8523  137.0510  152.2058 N   0  0  0  0  0  0  0  0  0  0  0  0
  143.7019  132.6317  152.6263 H   0  0  0  0  0  0  0  0  0  0  0  0
  144.0948  131.3585  150.0804 H   0  0  0  0  0  0  0  0  0  0  0  0
  145.8807  133.7928  149.6209 H   0  0  0  0  0  0  0  0  0  0  0  0
  145.8936  132.1329  152.1695 H   0  0  0  0  0  0  0  0  0  0  0  0
  143.4391  139.0660  153.1288 H   0  0  0  0  0  0  0  0  0  0  0  0
  143.2008  133.9879  154.3766 H   0  0  0  0  0  0  0  0  0  0  0  0
  143.8484  133.7530  148.1389 H   0  0  0  0  0  0  0  0  0  0  0  0
  144.4582  132.1710  147.6811 H   0  0  0  0  0  0  0  0  0  0  0  0
  142.1303  132.6361  147.3902 H   0  0  0  0  0  0  0  0  0  0  0  0
  147.4423  132.1393  150.0179 H   0  0  0  0  0  0  0  0  0  0  0  0
  147.2689  133.7049  152.4465 H   0  0  0  0  0  0  0  0  0  0  0  0
  144.0094  137.8733  151.6419 H   0  0  0  0  0  0  0  0  0  0  0  0
  1  2  2  0  0  0  0
  1 22  1  0  0  0  0
  2 17  1  0  0  0  0
  2  3  1  0  0  0  0
  3  4  2  0  0  0  0
  4  5  1  0  0  0  0
  4 23  1  0  0  0  0
  5  6  1  0  0  0  0
  5 15  1  0  0  0  0
  6 18  1  0  0  0  0
  6 13  1  0  0  0  0
  6  7  1  0  0  0  0
  7  8  1  0  0  0  0
  8 19  1  0  0  0  0
  8  9  1  0  0  0  0
  8 11  1  0  0  0  0
  9 10  1  0  0  0  0
  9 24  1  0  0  0  0
  9 25  1  0  0  0  0
 10 26  1  0  0  0  0
 11 20  1  0  0  0  0
 11 12  1  0  0  0  0
 11 13  1  0  0  0  0
 12 27  1  0  0  0  0
 13 21  1  0  0  0  0
 13 14  1  0  0  0  0
 14 28  1  0  0  0  0
 15 16  2  0  0  0  0
 15 17  1  0  0  0  0
 17 29  1  0  0  0  0
M  END
> <s_m_source_file>
AV-unprocessed.smi

> <i_m_source_file_index>
72

> <i_lp_mmshare_version>
43012

> <i_f3d_flags>
0

> <s_epik_input>
W05IMl1jMW5bY0hdbihjKD1PKW4xKVtDQEBIXTJPW0NASF0oW0NIMl1bT0hdKVtDQEBIXShbT0hdKVtDQEhdMltPSF0=

> <s_epik_cmdline>
J2VwaWtfcHl0aG9uJywgJy1waCcsICc3LjAnLCAnLXRuJywgJzgnLCAnLW1hJywgJzIwMCcsICctbWV0YWxfYmluZGluZycsICctaW1hZScsICc8aW5maWxlLm1hZT4nLCAnLW9tYWUnLCAnPG91dGZpbGUubWFlPic=

> <r_lp_tautomer_probability>
7.17554e-07

> <r_epik_Ionization_Penalty>
0.0066451

> <r_epik_Ionization_Penalty_Charging>
0.00663793

> <r_epik_Ionization_Penalty_Neutral>
7.17052e-06

> <r_epik_State_Penalty>
0.419231

> <r_epik_Charging_Adjusted_Penalty>
0.425868

> <i_epik_Tot_Q>
0

> <i_epik_Tot_abs_Q>
0

> <r_epik_Metal_State_Penalty>
1.44144

> <b_epik_Metal_Only>
0

> <s_epik_Chemistry_Notes>
This compound contains an acetal/aminal-like group ( X-CH(R)-Y where X, Y are N, S, or O) that may be acid/base labile, releasing an aldehyde.

> <s_lp_Force_Field>
OPLS_2005

> <r_lp_Energy>
43.9506

> <b_lp_Chiralities_Consistent>
1

> <s_lp_Variant>
AV-unprocessed.smi:72-8

> <Gold.Version>
5.8.1

> <Gold.Id.Protein>
6NUR|6NUR_protein|mol2

> <Gold.PLP.Fitness>
44.6357

> <Gold.PLP.PLP>
-30.6593

> <Gold.PLP.part.hbond>
-7.0669

> <Gold.PLP.part.metal>
0.0000

> <Gold.PLP.part.buried>
-7.9099

> <Gold.PLP.part.nonpolar>
-18.5111

> <Gold.PLP.part.repulsive>
2.0832

> <Gold.PLP.ligand.clash>
0.0000

> <Gold.PLP.ligand.torsion>
0.1129

> <Gold.PLP.Chemscore.Hbond>
3.6893

> <Gold.PLP.Chemscore.CHOScore>
1.0000

> <Gold.PLP.Chemscore.Metal>
0.0000

> <Gold.Chemscore.Hbonds>
donor molecule, donor type, donor heavy atom, donor atom, acceptor molecule, acceptor atom, score
      L1  H     1    22       P1 10175  1.00
      L1  H    10    26       P1 10195  1.00
      L1  H    12    27       P1 10747  0.45
      L1  H    17    29       P1 10171  0.86
      P1  H 10785 10796       L1    10  0.18
      L1  C     4    23       P1 10957  1.00

> <Gold.PLP.Chemscore.Internal.Correction>
0.1340

> <Gold.Rescore>
     Score         DG    S(hbond)    S(metal)    S(lipo)     H(rot)  DE(clash)    DE(int)     intcor
      8.46     -10.64       3.24        0.00      40.52       4.06       0.36       1.82       ----

> <Gold.Chemscore.Fitness>
8.4573

> <Gold.Chemscore.DG>
-10.6363

> <Gold.Chemscore.ZeroCoef>
-5.4800

> <Gold.Chemscore.Hbond>
3.2364

> <Gold.Chemscore.Metal>
0.0000

> <Gold.Chemscore.Lipo>
40.5160

> <Gold.Chemscore.Internal_Hbond>
0.0000

> <Gold.Chemscore.DEClash>
0.3563

> <Gold.Chemscore.DEInternal>
1.8226

> <Gold.Chemscore.Rot>
4.0600

> <Gold.Chemscore.Internal.Correction>
   9.000000E+99

> <Gold.Chemscore.Hbonds>
donor molecule, donor type, donor heavy atom, donor atom, acceptor molecule, acceptor atom, score
      L1  H     1    22       P1 10175  0.92
      L1  H    10    26       P1 10195  0.99
      L1  H    12    27       P1 10747  0.42
      L1  H    17    29       P1 10171  0.85
      P1  H 10785 10796       L1    10  0.01

> <Gold.Chemscore.Hbond.Weighted>
-10.8095

> <Gold.Chemscore.Metal.Weighted>
-0.0000

> <Gold.Chemscore.Lipo.Weighted>
-4.7404

> <Gold.Chemscore.Internal_Hbond.Weighted>
0.0000

> <Gold.Chemscore.DEClash.Weighted>
0.3563

> <Gold.Chemscore.DEInternal.Weighted>
1.8226

> <Gold.Chemscore.Rot.Weighted>
10.3936

> <Gold.Chemscore.Internal.Correction.Weighted>
   9.000000E+99

> <Gold.Protein.RotatedTorsions>
[ 6907 6896 6895 6894 ] final   36.16 input  -60.11 | X-H torsion
[ 7974 7965 7964 7962 ] final   97.07 input  175.53 | X-H torsion
[ 8008 7997 7996 7995 ] final -171.91 input   59.86 | X-H torsion
[ 10167 10162 10161 10158 ] final  122.91 input  -65.29 | X-H torsion
[ 10718 10713 10712 10709 ] final  132.55 input   66.30 | X-H torsion
[ 10763 10752 10751 10750 ] final  126.50 input  -60.55 | X-H torsion
[ 11005 11000 10999 10996 ] final  -71.12 input  -57.11 | X-H torsion

> <Gold.Protein.ActiveResidues>
 VAL166  LYS551  ARG553  GLY616  TRP617  ASP618  TYR619  PRO620  LYS621  CYS622 
 ASP623  PHE694  ASN695  SER759  ASP760  ASP761  ALA762  ILE779  LEU786  VAL792 
 PHE793  MET794  SER795  GLU796  ALA797  LYS798  CYS799  TRP800  GLU811  SER814 

> <Gold.Protein.RotatedAtoms>
  152.1259  134.9171  160.0560 H   0  0  0  0  0  0  0  0  0  0  0  0  # atno 6907 bound_to 6896
  152.0294  133.3926  159.4299 H   0  0  0  0  0  0  0  0  0  0  0  0  # atno 6908 bound_to 6896
  150.6852  134.3459  159.4932 H   0  0  0  0  0  0  0  0  0  0  0  0  # atno 6909 bound_to 6896
  145.4304  139.2311  143.3147 H   0  0  0  0  0  0  0  0  0  0  0  0  # atno 7974 bound_to 7965
  155.9377  140.1103  157.1081 H   0  0  0  0  0  0  0  0  0  0  0  0  # atno 8008 bound_to 7997
  154.4083  140.1225  156.4952 H   0  0  0  0  0  0  0  0  0  0  0  0  # atno 8009 bound_to 7997
  155.7001  140.3472  155.4931 H   0  0  0  0  0  0  0  0  0  0  0  0  # atno 8010 bound_to 7997
  139.5830  144.6994  151.3479 H   0  0  0  0  0  0  0  0  0  0  0  0  # atno 10167 bound_to 10162
  157.4860  131.1088  150.9620 H   0  0  0  0  0  0  0  0  0  0  0  0  # atno 10718 bound_to 10713
  153.6944  135.3293  155.3210 H   0  0  0  0  0  0  0  0  0  0  0  0  # atno 10763 bound_to 10752
  154.8431  135.4439  154.1475 H   0  0  0  0  0  0  0  0  0  0  0  0  # atno 10764 bound_to 10752
  153.2525  135.6983  153.7741 H   0  0  0  0  0  0  0  0  0  0  0  0  # atno 10765 bound_to 10752
  141.1586  133.6808  156.6857 H   0  0  0  0  0  0  0  0  0  0  0  0  # atno 11005 bound_to 11000
  146.2610  140.5040  142.8853 LP  0  0  0  0  0  0  0  0  0  0  0  0  # atno 17320 bound_to 7965
  144.8186  140.6511  143.6368 LP  0  0  0  0  0  0  0  0  0  0  0  0  # atno 17321 bound_to 7965
  140.7106  143.7400  150.7560 LP  0  0  0  0  0  0  0  0  0  0  0  0  # atno 17342 bound_to 10162
  140.0937  143.4853  152.2464 LP  0  0  0  0  0  0  0  0  0  0  0  0  # atno 17343 bound_to 10162
  157.0337  130.5721  149.5346 LP  0  0  0  0  0  0  0  0  0  0  0  0  # atno 17370 bound_to 10713
  156.0147  130.5240  150.8098 LP  0  0  0  0  0  0  0  0  0  0  0  0  # atno 17371 bound_to 10713
  140.3069  134.8118  157.4144 LP  0  0  0  0  0  0  0  0  0  0  0  0  # atno 17394 bound_to 11000
  140.1213  134.5216  155.8182 LP  0  0  0  0  0  0  0  0  0  0  0  0  # atno 17395 bound_to 11000

$$$$
