AV-unprocessed.smi:1360|AV-procd|sdf|5553|dock2
  -GOLD-   22720 5143D 1   1.00000     0.00000
 Structure written by MMmdl.
 36 37  0  0  0  0  0  0  0  0  1 V2000
  153.7726  139.8921  160.7515 C   0  0  0  0  0  0  0  0  0  0  0  0
  153.4023  141.1062  159.8836 C   0  0  2  0  0  0  0  0  0  0  0  0
  152.6971  142.2291  160.6763 C   0  0  0  0  0  0  0  0  0  0  0  0
  152.2368  143.3171  159.8324 N   0  0  0  0  0  0  0  0  0  0  0  0
  152.0073  144.6324  160.1782 C   0  0  0  0  0  0  0  0  0  0  0  0
  151.5809  145.2794  159.0538 C   0  0  0  0  0  0  0  0  0  0  0  0
  151.5758  144.2613  158.0596 C   0  0  0  0  0  0  0  0  0  0  0  0
  151.9667  143.0877  158.5292 N   0  0  0  0  0  0  0  0  0  0  0  0
  152.5556  140.6633  158.7796 N   0  0  0  0  0  0  0  0  0  0  0  0
  152.8793  139.7224  157.8784 C   0  0  0  0  0  0  0  0  0  0  0  0
  153.9561  139.1251  157.8834 O   0  0  0  0  0  0  0  0  0  0  0  0
  151.8246  139.4063  156.8092 C   0  0  1  0  0  0  0  0  0  0  0  0
  151.3471  140.6910  156.0926 C   0  0  0  0  0  0  0  0  0  0  0  0
  150.5076  140.3848  154.8647 C   0  0  0  0  0  0  0  0  0  0  0  0
  150.4677  139.1757  154.2789 C   0  0  0  0  0  0  0  0  0  0  0  0
  151.2607  137.9801  154.7762 C   0  0  0  0  0  0  0  0  0  0  0  0
  152.3537  138.3830  155.7845 C   0  0  0  0  0  0  0  0  0  0  0  0
  154.4827  140.1607  161.5338 H   0  0  0  0  0  0  0  0  0  0  0  0
  154.2378  139.1092  160.1516 H   0  0  0  0  0  0  0  0  0  0  0  0
  152.8922  139.4650  161.2325 H   0  0  0  0  0  0  0  0  0  0  0  0
  154.3318  141.5030  159.4707 H   0  0  0  0  0  0  0  0  0  0  0  0
  151.8377  141.8325  161.2190 H   0  0  0  0  0  0  0  0  0  0  0  0
  153.3739  142.6414  161.4260 H   0  0  0  0  0  0  0  0  0  0  0  0
  152.1681  144.9950  161.1829 H   0  0  0  0  0  0  0  0  0  0  0  0
  151.3124  146.3207  158.9565 H   0  0  0  0  0  0  0  0  0  0  0  0
  151.3010  144.3395  157.0181 H   0  0  0  0  0  0  0  0  0  0  0  0
  151.6503  141.1025  158.6975 H   0  0  0  0  0  0  0  0  0  0  0  0
  150.9613  138.9579  157.3052 H   0  0  0  0  0  0  0  0  0  0  0  0
  150.7522  141.2957  156.7778 H   0  0  0  0  0  0  0  0  0  0  0  0
  152.1896  141.3073  155.7758 H   0  0  0  0  0  0  0  0  0  0  0  0
  149.9316  141.2004  154.4524 H   0  0  0  0  0  0  0  0  0  0  0  0
  149.8393  139.0181  153.4146 H   0  0  0  0  0  0  0  0  0  0  0  0
  150.5621  137.2814  155.2371 H   0  0  0  0  0  0  0  0  0  0  0  0
  151.7103  137.4659  153.9265 H   0  0  0  0  0  0  0  0  0  0  0  0
  153.1976  138.8137  155.2430 H   0  0  0  0  0  0  0  0  0  0  0  0
  152.7338  137.4924  156.2871 H   0  0  0  0  0  0  0  0  0  0  0  0
  1  2  1  0  0  0  0
  1 18  1  0  0  0  0
  1 19  1  0  0  0  0
  1 20  1  0  0  0  0
  2  3  1  0  0  0  0
  2  9  1  0  0  0  0
  2 21  1  0  0  0  0
  3  4  1  0  0  0  0
  3 22  1  0  0  0  0
  3 23  1  0  0  0  0
  4  8  1  0  0  0  0
  4  5  1  0  0  0  0
  5  6  2  0  0  0  0
  5 24  1  0  0  0  0
  6  7  1  0  0  0  0
  6 25  1  0  0  0  0
  7  8  2  0  0  0  0
  7 26  1  0  0  0  0
  9 10  1  0  0  0  0
  9 27  1  0  0  0  0
 10 11  2  0  0  0  0
 10 12  1  0  0  0  0
 12 17  1  0  0  0  0
 12 13  1  0  0  0  0
 12 28  1  0  0  0  0
 13 14  1  0  0  0  0
 13 29  1  0  0  0  0
 13 30  1  0  0  0  0
 14 15  2  0  0  0  0
 14 31  1  0  0  0  0
 15 16  1  0  0  0  0
 15 32  1  0  0  0  0
 16 17  1  0  0  0  0
 16 33  1  0  0  0  0
 16 34  1  0  0  0  0
 17 35  1  0  0  0  0
 17 36  1  0  0  0  0
M  END
> <s_m_source_file>
AV-unprocessed.smi

> <i_m_source_file_index>
1360

> <i_lp_mmshare_version>
43012

> <i_f3d_flags>
0

> <s_epik_input>
bjFbY0hdW2NIXVtjSF1uMVtDSDJdW0NAQEhdKFtDSDNdKVtOSF1DKD1PKVtDQEBIXTJbQ0gyXVtDSF09W0NIXVtDSDJdW0NIMl0y

> <s_epik_cmdline>
J2VwaWtfcHl0aG9uJywgJy1waCcsICc3LjAnLCAnLXRuJywgJzgnLCAnLW1hJywgJzIwMCcsICctbWV0YWxfYmluZGluZycsICctaW1hZScsICc8aW5maWxlLm1hZT4nLCAnLW9tYWUnLCAnPG91dGZpbGUubWFlPic=

> <r_lp_tautomer_probability>
1

> <r_epik_Ionization_Penalty>
0.000315076

> <r_epik_Ionization_Penalty_Charging>
0

> <r_epik_Ionization_Penalty_Neutral>
0.000315076

> <r_epik_State_Penalty>
-0

> <r_epik_Charging_Adjusted_Penalty>
0

> <i_epik_Tot_Q>
0

> <i_epik_Tot_abs_Q>
0

> <r_epik_Metal_State_Penalty>
-0

> <b_epik_Metal_Only>
0

> <s_lp_Force_Field>
OPLS_2005

> <r_lp_Energy>
8.32294

> <b_lp_Chiralities_Consistent>
1

> <s_lp_Variant>
AV-unprocessed.smi:1360-3

> <Gold.Version>
5.8.1

> <Gold.Id.Protein>
6NUR|6NUR_protein|mol2

> <Gold.PLP.Fitness>
44.8389

> <Gold.PLP.PLP>
-39.7238

> <Gold.PLP.part.hbond>
-0.7749

> <Gold.PLP.part.metal>
0.0000

> <Gold.PLP.part.buried>
-1.8608

> <Gold.PLP.part.nonpolar>
-37.7078

> <Gold.PLP.part.repulsive>
0.1424

> <Gold.PLP.ligand.clash>
0.0000

> <Gold.PLP.ligand.torsion>
0.4521

> <Gold.PLP.Chemscore.Hbond>
0.9913

> <Gold.PLP.Chemscore.CHOScore>
0.9979

> <Gold.PLP.Chemscore.Metal>
0.0000

> <Gold.Chemscore.Hbonds>
donor molecule, donor type, donor heavy atom, donor atom, acceptor molecule, acceptor atom, score
      P1  H  7997  8010       L1    11  0.67
      L1  C     7    26       P1  8028  0.41

> <Gold.PLP.Chemscore.Internal.Correction>
0.0520

> <Gold.Rescore>
     Score         DG    S(hbond)    S(metal)    S(lipo)     H(rot)  DE(clash)    DE(int)     intcor
     14.98     -16.36       0.89        0.00     100.56       1.51       0.03       1.35       ----

> <Gold.Chemscore.Fitness>
14.9808

> <Gold.Chemscore.DG>
-16.3584

> <Gold.Chemscore.ZeroCoef>
-5.4800

> <Gold.Chemscore.Hbond>
0.8883

> <Gold.Chemscore.Metal>
0.0000

> <Gold.Chemscore.Lipo>
100.5634

> <Gold.Chemscore.Internal_Hbond>
0.0000

> <Gold.Chemscore.DEClash>
0.0256

> <Gold.Chemscore.DEInternal>
1.3519

> <Gold.Chemscore.Rot>
1.5057

> <Gold.Chemscore.Internal.Correction>
   9.000000E+99

> <Gold.Chemscore.Hbonds>
donor molecule, donor type, donor heavy atom, donor atom, acceptor molecule, acceptor atom, score
      P1  H  7997  8010       L1    11  0.23

> <Gold.Chemscore.Hbond.Weighted>
-2.9671

> <Gold.Chemscore.Metal.Weighted>
-0.0000

> <Gold.Chemscore.Lipo.Weighted>
-11.7659

> <Gold.Chemscore.Internal_Hbond.Weighted>
0.0000

> <Gold.Chemscore.DEClash.Weighted>
0.0256

> <Gold.Chemscore.DEInternal.Weighted>
1.3519

> <Gold.Chemscore.Rot.Weighted>
3.8546

> <Gold.Chemscore.Internal.Correction.Weighted>
   9.000000E+99

> <Gold.Protein.RotatedTorsions>
[ 6907 6896 6895 6894 ] final  -46.43 input  -60.11 | X-H torsion
[ 7974 7965 7964 7962 ] final   79.20 input  175.53 | X-H torsion
[ 8008 7997 7996 7995 ] final   20.01 input   59.86 | X-H torsion
[ 10167 10162 10161 10158 ] final  159.67 input  -65.29 | X-H torsion
[ 10718 10713 10712 10709 ] final   -1.97 input   66.30 | X-H torsion
[ 10763 10752 10751 10750 ] final  138.66 input  -60.55 | X-H torsion
[ 11005 11000 10999 10996 ] final   32.87 input  -57.11 | X-H torsion

> <Gold.Protein.ActiveResidues>
 VAL166  LYS551  ARG553  GLY616  TRP617  ASP618  TYR619  PRO620  LYS621  CYS622 
 ASP623  PHE694  ASN695  SER759  ASP760  ASP761  ALA762  ILE779  LEU786  VAL792 
 PHE793  MET794  SER795  GLU796  ALA797  LYS798  CYS799  TRP800  GLU811  SER814 

> <Gold.Protein.RotatedAtoms>
  150.9113  134.8530  159.7427 H   0  0  0  0  0  0  0  0  0  0  0  0  # atno 6907 bound_to 6896
  152.4946  134.4354  159.9536 H   0  0  0  0  0  0  0  0  0  0  0  0  # atno 6908 bound_to 6896
  151.4396  133.3607  159.2815 H   0  0  0  0  0  0  0  0  0  0  0  0  # atno 6909 bound_to 6896
  145.6672  139.2487  143.1889 H   0  0  0  0  0  0  0  0  0  0  0  0  # atno 7974 bound_to 7965
  154.9293  140.3038  155.5176 H   0  0  0  0  0  0  0  0  0  0  0  0  # atno 8008 bound_to 7997
  156.3004  140.2357  156.4288 H   0  0  0  0  0  0  0  0  0  0  0  0  # atno 8009 bound_to 7997
  154.8253  140.0421  157.1428 H   0  0  0  0  0  0  0  0  0  0  0  0  # atno 8010 bound_to 7997
  139.4834  144.4707  151.8580 H   0  0  0  0  0  0  0  0  0  0  0  0  # atno 10167 bound_to 10162
  156.7978  130.5383  149.5726 H   0  0  0  0  0  0  0  0  0  0  0  0  # atno 10718 bound_to 10713
  153.8933  135.3030  155.3448 H   0  0  0  0  0  0  0  0  0  0  0  0  # atno 10763 bound_to 10752
  154.7706  135.4888  153.9644 H   0  0  0  0  0  0  0  0  0  0  0  0  # atno 10764 bound_to 10752
  153.1285  135.6798  153.9315 H   0  0  0  0  0  0  0  0  0  0  0  0  # atno 10765 bound_to 10752
  140.2689  134.3105  155.7834 H   0  0  0  0  0  0  0  0  0  0  0  0  # atno 11005 bound_to 11000
  146.1076  140.7468  142.9519 LP  0  0  0  0  0  0  0  0  0  0  0  0  # atno 17320 bound_to 7965
  144.7069  140.3886  143.7111 LP  0  0  0  0  0  0  0  0  0  0  0  0  # atno 17321 bound_to 7965
  140.4176  144.2286  150.5887 LP  0  0  0  0  0  0  0  0  0  0  0  0  # atno 17342 bound_to 10162
  140.4905  143.2349  151.8825 LP  0  0  0  0  0  0  0  0  0  0  0  0  # atno 17343 bound_to 10162
  156.1120  130.6047  151.0061 LP  0  0  0  0  0  0  0  0  0  0  0  0  # atno 17370 bound_to 10713
  157.6569  131.0888  150.7927 LP  0  0  0  0  0  0  0  0  0  0  0  0  # atno 17371 bound_to 10713
  141.2180  133.7455  156.9304 LP  0  0  0  0  0  0  0  0  0  0  0  0  # atno 17394 bound_to 11000
  140.1392  134.9305  157.2443 LP  0  0  0  0  0  0  0  0  0  0  0  0  # atno 17395 bound_to 11000

$$$$
