AV-unprocessed.smi:1696|AV-procd|sdf|6802|dock5
  -GOLD-   22720 7573D 1   1.00000     0.00000
 Structure written by MMmdl.
 38 39  0  0  0  0  0  0  0  0  3 V2000
  150.6247  133.0389  156.3778 C   0  0  0  0  0  0  0  0  0  0  0  0
  150.0258  133.4482  155.0227 C   0  0  0  0  0  0  0  0  0  0  0  0
  148.7206  134.2845  155.1158 C   0  0  1  0  0  0  0  0  0  0  0  0
  148.9543  135.6909  155.7255 C   0  0  0  0  0  0  0  0  0  0  0  0
  149.2531  135.6234  157.1533 N   0  0  0  0  0  0  0  0  0  0  0  0
  148.3827  135.7776  158.1611 C   0  0  0  0  0  0  0  0  0  0  0  0
  147.1893  135.9778  157.9253 O   0  0  0  0  0  0  0  0  0  0  0  0
  148.9547  135.6925  159.3828 N   0  5  0  0  0  0  0  0  0  0  0  0
  148.1884  135.7048  160.4855 C   0  0  0  0  0  0  0  0  0  0  0  0
  147.9696  136.8080  161.2105 N   0  0  0  0  0  0  0  0  0  0  0  0
  147.1479  136.5901  162.3178 C   0  0  0  0  0  0  0  0  0  0  0  0
  146.7388  135.2890  162.4441 C   0  0  0  0  0  0  0  0  0  0  0  0
  147.3771  134.2925  161.1677 S   0  0  0  0  0  0  0  0  0  0  0  0
  148.0379  134.3582  153.7905 N   0  3  0  0  0  0  0  0  0  0  0  0
  148.0190  133.0913  153.0150 C   0  0  0  0  0  0  0  0  0  0  0  0
  146.6592  133.0101  152.3073 C   0  0  0  0  0  0  0  0  0  0  0  0
  146.0454  134.3937  152.4846 C   0  0  0  0  0  0  0  0  0  0  0  0
  146.6492  134.8673  153.8012 C   0  0  0  0  0  0  0  0  0  0  0  0
  151.5455  132.4738  156.2334 H   0  0  0  0  0  0  0  0  0  0  0  0
  149.9430  132.4069  156.9458 H   0  0  0  0  0  0  0  0  0  0  0  0
  150.8658  133.9083  156.9894 H   0  0  0  0  0  0  0  0  0  0  0  0
  150.7819  133.9942  154.4592 H   0  0  0  0  0  0  0  0  0  0  0  0
  149.8456  132.5477  154.4351 H   0  0  0  0  0  0  0  0  0  0  0  0
  148.0450  133.7558  155.7906 H   0  0  0  0  0  0  0  0  0  0  0  0
  149.7311  136.2192  155.1710 H   0  0  0  0  0  0  0  0  0  0  0  0
  148.0562  136.3019  155.6391 H   0  0  0  0  0  0  0  0  0  0  0  0
  150.2160  135.4564  157.4069 H   0  0  0  0  0  0  0  0  0  0  0  0
  146.9070  137.4200  162.9657 H   0  0  0  0  0  0  0  0  0  0  0  0
  146.1065  134.8575  163.2052 H   0  0  0  0  0  0  0  0  0  0  0  0
  148.8399  133.0997  152.2973 H   0  0  0  0  0  0  0  0  0  0  0  0
  148.1489  132.2197  153.6583 H   0  0  0  0  0  0  0  0  0  0  0  0
  146.7474  132.7244  151.2585 H   0  0  0  0  0  0  0  0  0  0  0  0
  146.0330  132.2656  152.8012 H   0  0  0  0  0  0  0  0  0  0  0  0
  146.3644  135.0492  151.6730 H   0  0  0  0  0  0  0  0  0  0  0  0
  144.9552  134.3780  152.4979 H   0  0  0  0  0  0  0  0  0  0  0  0
  146.1011  134.4270  154.6360 H   0  0  0  0  0  0  0  0  0  0  0  0
  146.6122  135.9528  153.8997 H   0  0  0  0  0  0  0  0  0  0  0  0
  148.5621  135.0172  153.2325 H   0  0  0  0  0  0  0  0  0  0  0  0
  1  2  1  0  0  0  0
  1 19  1  0  0  0  0
  1 20  1  0  0  0  0
  1 21  1  0  0  0  0
  2  3  1  0  0  0  0
  2 22  1  0  0  0  0
  2 23  1  0  0  0  0
  3  4  1  0  0  0  0
  3 14  1  0  0  0  0
  3 24  1  0  0  0  0
  4  5  1  0  0  0  0
  4 25  1  0  0  0  0
  4 26  1  0  0  0  0
  5  6  1  0  0  0  0
  5 27  1  0  0  0  0
  6  7  2  0  0  0  0
  6  8  1  0  0  0  0
  8  9  1  0  0  0  0
  9 13  1  0  0  0  0
  9 10  2  0  0  0  0
 10 11  1  0  0  0  0
 11 12  2  0  0  0  0
 11 28  1  0  0  0  0
 12 13  1  0  0  0  0
 12 29  1  0  0  0  0
 14 18  1  0  0  0  0
 14 15  1  0  0  0  0
 14 38  1  0  0  0  0
 15 16  1  0  0  0  0
 15 30  1  0  0  0  0
 15 31  1  0  0  0  0
 16 17  1  0  0  0  0
 16 32  1  0  0  0  0
 16 33  1  0  0  0  0
 17 18  1  0  0  0  0
 17 34  1  0  0  0  0
 17 35  1  0  0  0  0
 18 36  1  0  0  0  0
 18 37  1  0  0  0  0
M  CHG  1   8  -1
M  CHG  1  14   1
M  END
> <s_m_source_file>
AV-unprocessed.smi

> <i_m_source_file_index>
1696

> <i_lp_mmshare_version>
43012

> <i_f3d_flags>
0

> <s_epik_input>
W0NIMl0xW0NIMl1bQ0gyXVtDSDJdTjFbQ0BIXShbQ0gyXVtDSDNdKVtDSDJdW05IXUMoPU8pW05IXWMybltjSF1bY0hdczI=

> <s_epik_cmdline>
J2VwaWtfcHl0aG9uJywgJy1waCcsICc3LjAnLCAnLXRuJywgJzgnLCAnLW1hJywgJzIwMCcsICctbWV0YWxfYmluZGluZycsICctaW1hZScsICc8aW5maWxlLm1hZT4nLCAnLW9tYWUnLCAnPG91dGZpbGUubWFlPic=

> <r_lp_tautomer_probability>
1

> <r_epik_Ionization_Penalty>
7.71903

> <r_epik_Ionization_Penalty_Charging>
6.3282

> <r_epik_Ionization_Penalty_Neutral>
1.39083

> <r_epik_State_Penalty>
6.32705

> <r_epik_Charging_Adjusted_Penalty>
12.6552

> <i_epik_Tot_Q>
0

> <i_epik_Tot_abs_Q>
2

> <r_epik_Metal_State_Penalty>
2.26116

> <b_epik_Metal_Only>
1

> <s_lp_Force_Field>
OPLS_2005

> <r_lp_Energy>
23.2163

> <b_lp_Chiralities_Consistent>
1

> <s_lp_Variant>
AV-unprocessed.smi:1696-4

> <Gold.Version>
5.8.1

> <Gold.Id.Protein>
6NUR|6NUR_protein|mol2

> <Gold.PLP.Fitness>
44.2656

> <Gold.PLP.PLP>
-30.5886

> <Gold.PLP.part.hbond>
-3.7606

> <Gold.PLP.part.metal>
0.0000

> <Gold.PLP.part.buried>
-4.5367

> <Gold.PLP.part.nonpolar>
-22.5417

> <Gold.PLP.part.repulsive>
0.0617

> <Gold.PLP.ligand.clash>
0.0000

> <Gold.PLP.ligand.torsion>
1.2377

> <Gold.PLP.Chemscore.Hbond>
5.2548

> <Gold.PLP.Chemscore.CHOScore>
0.0000

> <Gold.PLP.Chemscore.Metal>
0.0000

> <Gold.Chemscore.Hbonds>
donor molecule, donor type, donor heavy atom, donor atom, acceptor molecule, acceptor atom, score
      L1  H    14    38       P1  7948  2.00
      P1  H  6896  6909       L1     8  1.92
      P1  H  6931  6943       L1    10  0.95
      P1  H  6934  6947       L1    10  0.09

> <Gold.PLP.Chemscore.Internal.Correction>
0.3880

> <Gold.Rescore>
     Score         DG    S(hbond)    S(metal)    S(lipo)     H(rot)  DE(clash)    DE(int)     intcor
     15.48     -16.91       2.64        0.00      60.04       1.73       0.15       1.28       ----

> <Gold.Chemscore.Fitness>
15.4755

> <Gold.Chemscore.DG>
-16.9114

> <Gold.Chemscore.ZeroCoef>
-5.4800

> <Gold.Chemscore.Hbond>
2.6430

> <Gold.Chemscore.Metal>
0.0000

> <Gold.Chemscore.Lipo>
60.0421

> <Gold.Chemscore.Internal_Hbond>
0.0000

> <Gold.Chemscore.DEClash>
0.1536

> <Gold.Chemscore.DEInternal>
1.2822

> <Gold.Chemscore.Rot>
1.7270

> <Gold.Chemscore.Internal.Correction>
   9.000000E+99

> <Gold.Chemscore.Hbonds>
donor molecule, donor type, donor heavy atom, donor atom, acceptor molecule, acceptor atom, score
      L1  H    14    38       P1  7948  0.70
      P1  H  6896  6909       L1     8  0.77
      P1  H  6931  6943       L1    10  0.21
      P1  H  6934  6947       L1    10  0.01

> <Gold.Chemscore.Hbond.Weighted>
-8.8276

> <Gold.Chemscore.Metal.Weighted>
-0.0000

> <Gold.Chemscore.Lipo.Weighted>
-7.0249

> <Gold.Chemscore.Internal_Hbond.Weighted>
0.0000

> <Gold.Chemscore.DEClash.Weighted>
0.1536

> <Gold.Chemscore.DEInternal.Weighted>
1.2822

> <Gold.Chemscore.Rot.Weighted>
4.4212

> <Gold.Chemscore.Internal.Correction.Weighted>
   9.000000E+99

> <Gold.Protein.RotatedTorsions>
[ 6907 6896 6895 6894 ] final   64.41 input  -60.11 | X-H torsion
[ 7974 7965 7964 7962 ] final  -77.00 input  175.53 | X-H torsion
[ 8008 7997 7996 7995 ] final   -5.04 input   59.86 | X-H torsion
[ 10167 10162 10161 10158 ] final -117.23 input  -65.29 | X-H torsion
[ 10718 10713 10712 10709 ] final  153.90 input   66.30 | X-H torsion
[ 10763 10752 10751 10750 ] final   61.70 input  -60.55 | X-H torsion
[ 11005 11000 10999 10996 ] final  120.98 input  -57.11 | X-H torsion

> <Gold.Protein.ActiveResidues>
 VAL166  LYS551  ARG553  GLY616  TRP617  ASP618  TYR619  PRO620  LYS621  CYS622 
 ASP623  PHE694  ASN695  SER759  ASP760  ASP761  ALA762  ILE779  LEU786  VAL792 
 PHE793  MET794  SER795  GLU796  ALA797  LYS798  CYS799  TRP800  GLU811  SER814 

> <Gold.Protein.RotatedAtoms>
  152.4329  134.5743  159.9929 H   0  0  0  0  0  0  0  0  0  0  0  0  # atno 6907 bound_to 6896
  151.5861  133.3366  159.3026 H   0  0  0  0  0  0  0  0  0  0  0  0  # atno 6908 bound_to 6896
  150.8224  134.7473  159.6848 H   0  0  0  0  0  0  0  0  0  0  0  0  # atno 6909 bound_to 6896
  145.6054  140.9399  143.1218 H   0  0  0  0  0  0  0  0  0  0  0  0  # atno 7974 bound_to 7965
  154.6080  140.2468  155.7705 H   0  0  0  0  0  0  0  0  0  0  0  0  # atno 8008 bound_to 7997
  156.2353  140.2952  156.0247 H   0  0  0  0  0  0  0  0  0  0  0  0  # atno 8009 bound_to 7997
  155.2099  140.0397  157.2922 H   0  0  0  0  0  0  0  0  0  0  0  0  # atno 8010 bound_to 7997
  140.0705  143.4881  152.1982 H   0  0  0  0  0  0  0  0  0  0  0  0  # atno 10167 bound_to 10162
  157.2387  131.0754  151.1807 H   0  0  0  0  0  0  0  0  0  0  0  0  # atno 10718 bound_to 10713
  152.9958  135.5491  154.6075 H   0  0  0  0  0  0  0  0  0  0  0  0  # atno 10763 bound_to 10752
  154.5403  135.2819  155.1104 H   0  0  0  0  0  0  0  0  0  0  0  0  # atno 10764 bound_to 10752
  154.2384  135.6421  153.5251 H   0  0  0  0  0  0  0  0  0  0  0  0  # atno 10765 bound_to 10752
  139.9207  134.9637  156.7890 H   0  0  0  0  0  0  0  0  0  0  0  0  # atno 11005 bound_to 11000
  144.7292  139.7778  143.7353 LP  0  0  0  0  0  0  0  0  0  0  0  0  # atno 17320 bound_to 7965
  146.1545  139.4638  143.0028 LP  0  0  0  0  0  0  0  0  0  0  0  0  # atno 17321 bound_to 7965
  139.5838  144.7522  151.3571 LP  0  0  0  0  0  0  0  0  0  0  0  0  # atno 17342 bound_to 10162
  140.7127  143.7347  150.7598 LP  0  0  0  0  0  0  0  0  0  0  0  0  # atno 17343 bound_to 10162
  157.3402  130.7029  149.6377 LP  0  0  0  0  0  0  0  0  0  0  0  0  # atno 17370 bound_to 10713
  155.9671  130.4282  150.4778 LP  0  0  0  0  0  0  0  0  0  0  0  0  # atno 17371 bound_to 10713
  140.6483  133.9755  155.7742 LP  0  0  0  0  0  0  0  0  0  0  0  0  # atno 17394 bound_to 11000
  141.0725  134.0184  157.3505 LP  0  0  0  0  0  0  0  0  0  0  0  0  # atno 17395 bound_to 11000

$$$$
