AV-unprocessed.smi:2640|AV-procd|sdf|10268|dock5
  -GOLD-   2272014283D 1   1.00000     0.00000
 Structure written by MMmdl.
 42 43  0  0  0  0  0  0  0  0  2 V2000
  151.8022  139.9796  154.7675 O   0  0  0  0  0  0  0  0  0  0  0  0
  150.9886  139.2272  155.3047 C   0  0  0  0  0  0  0  0  0  0  0  0
  150.3720  138.0667  154.5234 C   0  0  0  0  0  0  0  0  0  0  0  0
  149.4102  138.5397  153.5074 N   0  3  0  0  0  0  0  0  0  0  0  0
  148.2538  139.2684  154.0620 C   0  0  0  0  0  0  0  0  0  0  0  0
  148.5703  140.7632  154.2174 C   0  0  0  0  0  0  0  0  0  0  0  0
  147.4788  141.4855  154.8419 N   0  0  0  0  0  0  0  0  0  0  0  0
  146.2079  141.7099  154.3562 C   0  0  0  0  0  0  0  0  0  0  0  0
  145.5337  142.4294  155.3007 C   0  0  0  0  0  0  0  0  0  0  0  0
  146.4864  142.5945  156.3444 C   0  0  0  0  0  0  0  0  0  0  0  0
  147.6497  142.0275  156.0667 N   0  0  0  0  0  0  0  0  0  0  0  0
  150.5976  139.3570  156.5828 N   0  0  0  0  0  0  0  0  0  0  0  0
  151.0402  140.4080  157.5028 C   0  0  2  0  0  0  0  0  0  0  0  0
  150.9892  141.7510  156.7392 C   0  0  0  0  0  0  0  0  0  0  0  0
  150.8912  142.9827  157.6563 C   0  0  0  0  0  0  0  0  0  0  0  0
  152.1133  143.2219  158.5560 C   0  0  0  0  0  0  0  0  0  0  0  0
  152.3753  142.0864  159.5601 C   0  0  0  0  0  0  0  0  0  0  0  0
  153.0102  140.9348  158.9327 N   0  0  0  0  0  0  0  0  0  0  0  0
  152.4887  140.1472  157.9801 C   0  0  0  0  0  0  0  0  0  0  0  0
  153.1557  139.2336  157.4936 O   0  0  0  0  0  0  0  0  0  0  0  0
  151.1727  137.5071  154.0382 H   0  0  0  0  0  0  0  0  0  0  0  0
  149.8656  137.3877  155.2112 H   0  0  0  0  0  0  0  0  0  0  0  0
  149.9002  139.1469  152.8659 H   0  0  0  0  0  0  0  0  0  0  0  0
  147.3970  139.1301  153.4010 H   0  0  0  0  0  0  0  0  0  0  0  0
  147.9884  138.8402  155.0296 H   0  0  0  0  0  0  0  0  0  0  0  0
  149.4676  140.9000  154.8228 H   0  0  0  0  0  0  0  0  0  0  0  0
  148.7719  141.2156  153.2452 H   0  0  0  0  0  0  0  0  0  0  0  0
  145.8912  141.3439  153.3906 H   0  0  0  0  0  0  0  0  0  0  0  0
  144.5140  142.7823  155.2546 H   0  0  0  0  0  0  0  0  0  0  0  0
  146.3677  143.1049  157.2888 H   0  0  0  0  0  0  0  0  0  0  0  0
  149.9254  138.6960  156.9446 H   0  0  0  0  0  0  0  0  0  0  0  0
  150.3629  140.4371  158.3585 H   0  0  0  0  0  0  0  0  0  0  0  0
  151.8412  141.8498  156.0642 H   0  0  0  0  0  0  0  0  0  0  0  0
  150.1066  141.7621  156.0973 H   0  0  0  0  0  0  0  0  0  0  0  0
  150.7428  143.8663  157.0347 H   0  0  0  0  0  0  0  0  0  0  0  0
  149.9966  142.9028  158.2748 H   0  0  0  0  0  0  0  0  0  0  0  0
  153.0012  143.3988  157.9474 H   0  0  0  0  0  0  0  0  0  0  0  0
  151.9460  144.1435  159.1143 H   0  0  0  0  0  0  0  0  0  0  0  0
  153.0542  142.4434  160.3349 H   0  0  0  0  0  0  0  0  0  0  0  0
  151.4582  141.7890  160.0703 H   0  0  0  0  0  0  0  0  0  0  0  0
  153.9540  140.7315  159.2289 H   0  0  0  0  0  0  0  0  0  0  0  0
  149.0727  137.7378  152.9941 H   0  0  0  0  0  0  0  0  0  0  0  0
  1  2  2  0  0  0  0
  2  3  1  0  0  0  0
  2 12  1  0  0  0  0
  3  4  1  0  0  0  0
  3 21  1  0  0  0  0
  3 22  1  0  0  0  0
  4  5  1  0  0  0  0
  4 23  1  0  0  0  0
  4 42  1  0  0  0  0
  5  6  1  0  0  0  0
  5 24  1  0  0  0  0
  5 25  1  0  0  0  0
  6  7  1  0  0  0  0
  6 26  1  0  0  0  0
  6 27  1  0  0  0  0
  7 11  1  0  0  0  0
  7  8  1  0  0  0  0
  8  9  2  0  0  0  0
  8 28  1  0  0  0  0
  9 10  1  0  0  0  0
  9 29  1  0  0  0  0
 10 11  2  0  0  0  0
 10 30  1  0  0  0  0
 12 13  1  0  0  0  0
 12 31  1  0  0  0  0
 13 19  1  0  0  0  0
 13 14  1  0  0  0  0
 13 32  1  0  0  0  0
 14 15  1  0  0  0  0
 14 33  1  0  0  0  0
 14 34  1  0  0  0  0
 15 16  1  0  0  0  0
 15 35  1  0  0  0  0
 15 36  1  0  0  0  0
 16 17  1  0  0  0  0
 16 37  1  0  0  0  0
 16 38  1  0  0  0  0
 17 18  1  0  0  0  0
 17 39  1  0  0  0  0
 17 40  1  0  0  0  0
 18 19  1  0  0  0  0
 18 41  1  0  0  0  0
 19 20  2  0  0  0  0
M  CHG  1   4   1
M  END
> <s_m_source_file>
AV-unprocessed.smi

> <i_m_source_file_index>
2640

> <i_lp_mmshare_version>
43012

> <i_f3d_flags>
0

> <s_epik_input>
Tz1DMVtOSF1bQ0gyXVtDSDJdW0NIMl1bQ0gyXVtDQEhdMVtOSF1DKD1PKVtDSDJdW05IXVtDSDJdW0NIMl1uMltjSF1bY0hdW2NIXW4y

> <s_epik_cmdline>
J2VwaWtfcHl0aG9uJywgJy1waCcsICc3LjAnLCAnLXRuJywgJzgnLCAnLW1hJywgJzIwMCcsICctbWV0YWxfYmluZGluZycsICctaW1hZScsICc8aW5maWxlLm1hZT4nLCAnLW9tYWUnLCAnPG91dGZpbGUubWFlPic=

> <r_lp_tautomer_probability>
1

> <r_epik_Ionization_Penalty>
0.245908

> <r_epik_Ionization_Penalty_Charging>
0.245903

> <r_epik_Ionization_Penalty_Neutral>
5.38378e-06

> <r_epik_State_Penalty>
0.237496

> <r_epik_Charging_Adjusted_Penalty>
0.483398

> <i_epik_Tot_Q>
1

> <i_epik_Tot_abs_Q>
1

> <r_epik_Metal_State_Penalty>
0.237698

> <b_epik_Metal_Only>
0

> <s_lp_Force_Field>
OPLS_2005

> <r_lp_Energy>
8.65948

> <b_lp_Chiralities_Consistent>
1

> <s_lp_Variant>
AV-unprocessed.smi:2640-1

> <Gold.Version>
5.8.1

> <Gold.Id.Protein>
6NUR|6NUR_protein|mol2

> <Gold.PLP.Fitness>
51.8243

> <Gold.PLP.PLP>
-35.4512

> <Gold.PLP.part.hbond>
-3.8278

> <Gold.PLP.part.metal>
0.0000

> <Gold.PLP.part.buried>
-5.3380

> <Gold.PLP.part.nonpolar>
-28.0899

> <Gold.PLP.part.repulsive>
1.3526

> <Gold.PLP.ligand.clash>
0.0000

> <Gold.PLP.ligand.torsion>
0.5064

> <Gold.PLP.Chemscore.Hbond>
4.7760

> <Gold.PLP.Chemscore.CHOScore>
0.9976

> <Gold.PLP.Chemscore.Metal>
0.0000

> <Gold.Chemscore.Hbonds>
donor molecule, donor type, donor heavy atom, donor atom, acceptor molecule, acceptor atom, score
      L1  H     4    23       P1  7957  0.80
      L1  H     4    42       P1  7948  2.00
      P1  H  7989  7998       L1     1  0.98
      P1  H  7997  8008       L1    20  1.00
      L1  C     8    28       P1 10175  0.98

> <Gold.PLP.Chemscore.Internal.Correction>
0.0650

> <Gold.Rescore>
     Score         DG    S(hbond)    S(metal)    S(lipo)     H(rot)  DE(clash)    DE(int)     intcor
     16.47     -18.84       3.23        0.00      75.55       2.45       0.40       1.98       ----

> <Gold.Chemscore.Fitness>
16.4695

> <Gold.Chemscore.DG>
-18.8424

> <Gold.Chemscore.ZeroCoef>
-5.4800

> <Gold.Chemscore.Hbond>
3.2291

> <Gold.Chemscore.Metal>
0.0000

> <Gold.Chemscore.Lipo>
75.5519

> <Gold.Chemscore.Internal_Hbond>
0.0000

> <Gold.Chemscore.DEClash>
0.3967

> <Gold.Chemscore.DEInternal>
1.9762

> <Gold.Chemscore.Rot>
2.4462

> <Gold.Chemscore.Internal.Correction>
   9.000000E+99

> <Gold.Chemscore.Hbonds>
donor molecule, donor type, donor heavy atom, donor atom, acceptor molecule, acceptor atom, score
      L1  H     4    23       P1  7957  0.73
      L1  H     4    42       P1  7948  0.99
      P1  H  7989  7998       L1     1  0.89
      P1  H  7997  8008       L1    20  0.40

> <Gold.Chemscore.Hbond.Weighted>
-10.7851

> <Gold.Chemscore.Metal.Weighted>
-0.0000

> <Gold.Chemscore.Lipo.Weighted>
-8.8396

> <Gold.Chemscore.Internal_Hbond.Weighted>
0.0000

> <Gold.Chemscore.DEClash.Weighted>
0.3967

> <Gold.Chemscore.DEInternal.Weighted>
1.9762

> <Gold.Chemscore.Rot.Weighted>
6.2623

> <Gold.Chemscore.Internal.Correction.Weighted>
   9.000000E+99

> <Gold.Protein.RotatedTorsions>
[ 6907 6896 6895 6894 ] final  159.19 input  -60.11 | X-H torsion
[ 7974 7965 7964 7962 ] final   97.63 input  175.53 | X-H torsion
[ 8008 7997 7996 7995 ] final  -72.38 input   59.86 | X-H torsion
[ 10167 10162 10161 10158 ] final -117.42 input  -65.29 | X-H torsion
[ 10718 10713 10712 10709 ] final   45.33 input   66.30 | X-H torsion
[ 10763 10752 10751 10750 ] final  114.27 input  -60.55 | X-H torsion
[ 11005 11000 10999 10996 ] final   33.28 input  -57.11 | X-H torsion

> <Gold.Protein.ActiveResidues>
 VAL166  LYS551  ARG553  GLY616  TRP617  ASP618  TYR619  PRO620  LYS621  CYS622 
 ASP623  PHE694  ASN695  SER759  ASP760  ASP761  ALA762  ILE779  LEU786  VAL792 
 PHE793  MET794  SER795  GLU796  ALA797  LYS798  CYS799  TRP800  GLU811  SER814 

> <Gold.Protein.RotatedAtoms>
  151.9893  133.3785  159.4137 H   0  0  0  0  0  0  0  0  0  0  0  0  # atno 6907 bound_to 6896
  150.6924  134.3954  159.5104 H   0  0  0  0  0  0  0  0  0  0  0  0  # atno 6908 bound_to 6896
  152.1685  134.8853  160.0587 H   0  0  0  0  0  0  0  0  0  0  0  0  # atno 6909 bound_to 6896
  145.4230  139.2319  143.3186 H   0  0  0  0  0  0  0  0  0  0  0  0  # atno 7974 bound_to 7965
  154.5162  140.0798  156.8085 H   0  0  0  0  0  0  0  0  0  0  0  0  # atno 8008 bound_to 7997
  155.3675  140.3421  155.4224 H   0  0  0  0  0  0  0  0  0  0  0  0  # atno 8009 bound_to 7997
  156.1630  140.1594  156.8567 H   0  0  0  0  0  0  0  0  0  0  0  0  # atno 8010 bound_to 7997
  140.0685  143.4900  152.1993 H   0  0  0  0  0  0  0  0  0  0  0  0  # atno 10167 bound_to 10162
  157.4364  130.8055  149.7651 H   0  0  0  0  0  0  0  0  0  0  0  0  # atno 10718 bound_to 10713
  153.5047  135.3630  155.2557 H   0  0  0  0  0  0  0  0  0  0  0  0  # atno 10763 bound_to 10752
  154.8745  135.4008  154.3437 H   0  0  0  0  0  0  0  0  0  0  0  0  # atno 10764 bound_to 10752
  153.4080  135.7077  153.6446 H   0  0  0  0  0  0  0  0  0  0  0  0  # atno 10765 bound_to 10752
  140.2648  134.3150  155.7846 H   0  0  0  0  0  0  0  0  0  0  0  0  # atno 11005 bound_to 11000
  146.2647  140.4957  142.8839 LP  0  0  0  0  0  0  0  0  0  0  0  0  # atno 17320 bound_to 7965
  144.8233  140.6586  143.6339 LP  0  0  0  0  0  0  0  0  0  0  0  0  # atno 17321 bound_to 7965
  139.5850  144.7527  151.3543 LP  0  0  0  0  0  0  0  0  0  0  0  0  # atno 17342 bound_to 10162
  140.7137  143.7323  150.7615 LP  0  0  0  0  0  0  0  0  0  0  0  0  # atno 17343 bound_to 10162
  155.9932  130.3926  150.2910 LP  0  0  0  0  0  0  0  0  0  0  0  0  # atno 17370 bound_to 10713
  157.1072  131.0211  151.3062 LP  0  0  0  0  0  0  0  0  0  0  0  0  # atno 17371 bound_to 10713
  141.2185  133.7431  156.9243 LP  0  0  0  0  0  0  0  0  0  0  0  0  # atno 17394 bound_to 11000
  140.1430  134.9281  157.2492 LP  0  0  0  0  0  0  0  0  0  0  0  0  # atno 17395 bound_to 11000

$$$$
