AV-unprocessed.smi:1607|AV-procd|sdf|6466|dock4
  -GOLD-   22720 7123D 1   1.00000     0.00000
 Structure written by MMmdl.
 39 40  0  0  0  0  0  0  0  0  2 V2000
  144.1908  132.4414  150.0106 C   0  0  0  0  0  0  0  0  0  0  0  0
  145.5920  132.2791  150.6167 C   0  0  1  0  0  0  0  0  0  0  0  0
  145.9651  133.4833  151.4974 C   0  0  0  0  0  0  0  0  0  0  0  0
  147.3568  133.2824  152.1093 C   0  0  0  0  0  0  0  0  0  0  0  0
  147.4336  131.9529  152.8759 C   0  0  0  0  0  0  0  0  0  0  0  0
  147.0724  130.8071  152.0014 N   0  3  1  0  0  0  0  0  0  0  0  0
  147.2686  129.5015  152.6814 C   0  0  0  0  0  0  0  0  0  0  0  0
  146.6525  128.3313  151.8970 C   0  0  0  0  0  0  0  0  0  0  0  0
  147.6651  127.6745  151.0819 N   0  0  0  0  0  0  0  0  0  0  0  0
  148.2024  126.4769  151.3621 C   0  0  0  0  0  0  0  0  0  0  0  0
  147.9041  125.8232  152.3608 O   0  0  0  0  0  0  0  0  0  0  0  0
  149.2392  125.9330  150.3754 C   0  0  0  0  0  0  0  0  0  0  0  0
  148.7954  124.6985  149.7526 N   0  0  0  0  0  0  0  0  0  0  0  0
  148.8016  124.3097  148.4761 C   0  0  0  0  0  0  0  0  0  0  0  0
  148.2909  123.0966  148.3315 N   0  0  0  0  0  0  0  0  0  0  0  0
  147.9623  122.7370  149.6277 N   0  0  0  0  0  0  0  0  0  0  0  0
  148.2614  123.6824  150.4758 N   0  0  0  0  0  0  0  0  0  0  0  0
  145.7108  130.9699  151.4231 C   0  0  0  0  0  0  0  0  0  0  0  0
  143.4257  132.4928  150.7861 H   0  0  0  0  0  0  0  0  0  0  0  0
  143.9458  131.6043  149.3563 H   0  0  0  0  0  0  0  0  0  0  0  0
  144.1234  133.3532  149.4163 H   0  0  0  0  0  0  0  0  0  0  0  0
  146.3031  132.2315  149.7904 H   0  0  0  0  0  0  0  0  0  0  0  0
  145.9474  134.4024  150.9104 H   0  0  0  0  0  0  0  0  0  0  0  0
  145.2286  133.6064  152.2929 H   0  0  0  0  0  0  0  0  0  0  0  0
  148.1105  133.2958  151.3208 H   0  0  0  0  0  0  0  0  0  0  0  0
  147.5929  134.1117  152.7769 H   0  0  0  0  0  0  0  0  0  0  0  0
  148.4469  131.8222  153.2580 H   0  0  0  0  0  0  0  0  0  0  0  0
  146.7685  131.9766  153.7407 H   0  0  0  0  0  0  0  0  0  0  0  0
  148.3379  129.3090  152.7840 H   0  0  0  0  0  0  0  0  0  0  0  0
  146.8657  129.5475  153.6946 H   0  0  0  0  0  0  0  0  0  0  0  0
  146.2204  127.5878  152.5665 H   0  0  0  0  0  0  0  0  0  0  0  0
  145.8470  128.6991  151.2590 H   0  0  0  0  0  0  0  0  0  0  0  0
  147.9684  128.1524  150.2454 H   0  0  0  0  0  0  0  0  0  0  0  0
  149.4291  126.6745  149.5983 H   0  0  0  0  0  0  0  0  0  0  0  0
  150.1861  125.7497  150.8856 H   0  0  0  0  0  0  0  0  0  0  0  0
  149.1715  124.9117  147.6593 H   0  0  0  0  0  0  0  0  0  0  0  0
  144.9714  130.9524  152.2257 H   0  0  0  0  0  0  0  0  0  0  0  0
  145.4800  130.1315  150.7670 H   0  0  0  0  0  0  0  0  0  0  0  0
  147.7245  130.8280  151.2303 H   0  0  0  0  0  0  0  0  0  0  0  0
  1  2  1  0  0  0  0
  1 19  1  0  0  0  0
  1 20  1  0  0  0  0
  1 21  1  0  0  0  0
  2 18  1  0  0  0  0
  2  3  1  0  0  0  0
  2 22  1  0  0  0  0
  3  4  1  0  0  0  0
  3 23  1  0  0  0  0
  3 24  1  0  0  0  0
  4  5  1  0  0  0  0
  4 25  1  0  0  0  0
  4 26  1  0  0  0  0
  5  6  1  0  0  0  0
  5 27  1  0  0  0  0
  5 28  1  0  0  0  0
  6  7  1  0  0  0  0
  6 18  1  0  0  0  0
  6 39  1  0  0  0  0
  7  8  1  0  0  0  0
  7 29  1  0  0  0  0
  7 30  1  0  0  0  0
  8  9  1  0  0  0  0
  8 31  1  0  0  0  0
  8 32  1  0  0  0  0
  9 10  1  0  0  0  0
  9 33  1  0  0  0  0
 10 11  2  0  0  0  0
 10 12  1  0  0  0  0
 12 13  1  0  0  0  0
 12 34  1  0  0  0  0
 12 35  1  0  0  0  0
 13 17  1  0  0  0  0
 13 14  1  0  0  0  0
 14 15  2  0  0  0  0
 14 36  1  0  0  0  0
 15 16  1  0  0  0  0
 16 17  2  0  0  0  0
 18 37  1  0  0  0  0
 18 38  1  0  0  0  0
M  CHG  1   6   1
M  END
> <s_m_source_file>
AV-unprocessed.smi

> <i_m_source_file_index>
1607

> <i_lp_mmshare_version>
43012

> <i_f3d_flags>
0

> <s_epik_input>
W0NIM11bQ0BASF0xW0NIMl1bQ0gyXVtDSDJdTihbQ0gyXTEpW0NIMl1bQ0gyXVtOSF1DKD1PKVtDSDJdbjJbY0hdbm5uMg==

> <s_epik_cmdline>
J2VwaWtfcHl0aG9uJywgJy1waCcsICc3LjAnLCAnLXRuJywgJzgnLCAnLW1hJywgJzIwMCcsICctbWV0YWxfYmluZGluZycsICctaW1hZScsICc8aW5maWxlLm1hZT4nLCAnLW9tYWUnLCAnPG91dGZpbGUubWFlPic=

> <r_lp_tautomer_probability>
1

> <r_epik_Ionization_Penalty>
0.00268321

> <r_epik_Ionization_Penalty_Charging>
0.00267875

> <r_epik_Ionization_Penalty_Neutral>
4.46125e-06

> <r_epik_State_Penalty>
0.00186642

> <r_epik_Charging_Adjusted_Penalty>
0.00454517

> <i_epik_Tot_Q>
1

> <i_epik_Tot_abs_Q>
1

> <r_epik_Metal_State_Penalty>
-0

> <b_epik_Metal_Only>
0

> <s_lp_Force_Field>
OPLS_2005

> <r_lp_Energy>
19.4205

> <b_lp_Chiralities_Consistent>
1

> <s_lp_Variant>
AV-unprocessed.smi:1607-4

> <Gold.Version>
5.8.1

> <Gold.Id.Protein>
6NUR|6NUR_protein|mol2

> <Gold.PLP.Fitness>
40.4354

> <Gold.PLP.PLP>
-35.5786

> <Gold.PLP.part.hbond>
-1.5371

> <Gold.PLP.part.metal>
0.0000

> <Gold.PLP.part.buried>
-6.7097

> <Gold.PLP.part.nonpolar>
-27.2518

> <Gold.PLP.part.repulsive>
0.2353

> <Gold.PLP.ligand.clash>
0.0000

> <Gold.PLP.ligand.torsion>
0.6014

> <Gold.PLP.Chemscore.Hbond>
1.0000

> <Gold.PLP.Chemscore.CHOScore>
0.9999

> <Gold.PLP.Chemscore.Metal>
0.0000

> <Gold.Chemscore.Hbonds>
donor molecule, donor type, donor heavy atom, donor atom, acceptor molecule, acceptor atom, score
      L1  H     6    39       P1 10747  1.00
      L1  C    14    36       P1 10769  0.62

> <Gold.PLP.Chemscore.Internal.Correction>
0.0600

> <Gold.Rescore>
     Score         DG    S(hbond)    S(metal)    S(lipo)     H(rot)  DE(clash)    DE(int)     intcor
      8.84     -10.72       0.98        0.00      75.64       2.69       0.04       1.83       ----

> <Gold.Chemscore.Fitness>
8.8407

> <Gold.Chemscore.DG>
-10.7171

> <Gold.Chemscore.ZeroCoef>
-5.4800

> <Gold.Chemscore.Hbond>
0.9826

> <Gold.Chemscore.Metal>
0.0000

> <Gold.Chemscore.Lipo>
75.6381

> <Gold.Chemscore.Internal_Hbond>
0.0000

> <Gold.Chemscore.DEClash>
0.0419

> <Gold.Chemscore.DEInternal>
1.8345

> <Gold.Chemscore.Rot>
2.6932

> <Gold.Chemscore.Internal.Correction>
   9.000000E+99

> <Gold.Chemscore.Hbonds>
donor molecule, donor type, donor heavy atom, donor atom, acceptor molecule, acceptor atom, score
      L1  H     6    39       P1 10747  0.97

> <Gold.Chemscore.Hbond.Weighted>
-3.2820

> <Gold.Chemscore.Metal.Weighted>
-0.0000

> <Gold.Chemscore.Lipo.Weighted>
-8.8497

> <Gold.Chemscore.Internal_Hbond.Weighted>
0.0000

> <Gold.Chemscore.DEClash.Weighted>
0.0419

> <Gold.Chemscore.DEInternal.Weighted>
1.8345

> <Gold.Chemscore.Rot.Weighted>
6.8945

> <Gold.Chemscore.Internal.Correction.Weighted>
   9.000000E+99

> <Gold.Protein.RotatedTorsions>
[ 6907 6896 6895 6894 ] final   64.71 input  -60.11 | X-H torsion
[ 7974 7965 7964 7962 ] final  112.79 input  175.53 | X-H torsion
[ 8008 7997 7996 7995 ] final   72.33 input   59.86 | X-H torsion
[ 10167 10162 10161 10158 ] final   65.53 input  -65.29 | X-H torsion
[ 10718 10713 10712 10709 ] final -116.33 input   66.30 | X-H torsion
[ 10763 10752 10751 10750 ] final  -29.22 input  -60.55 | X-H torsion
[ 11005 11000 10999 10996 ] final  122.92 input  -57.11 | X-H torsion

> <Gold.Protein.ActiveResidues>
 VAL166  LYS551  ARG553  GLY616  TRP617  ASP618  TYR619  PRO620  LYS621  CYS622 
 ASP623  PHE694  ASN695  SER759  ASP760  ASP761  ALA762  ILE779  LEU786  VAL792 
 PHE793  MET794  SER795  GLU796  ALA797  LYS798  CYS799  TRP800  GLU811  SER814 

> <Gold.Protein.RotatedAtoms>
  152.4353  134.5699  159.9918 H   0  0  0  0  0  0  0  0  0  0  0  0  # atno 6907 bound_to 6896
  151.5811  133.3372  159.3016 H   0  0  0  0  0  0  0  0  0  0  0  0  # atno 6908 bound_to 6896
  150.8250  134.7512  159.6869 H   0  0  0  0  0  0  0  0  0  0  0  0  # atno 6909 bound_to 6896
  145.2251  139.2844  143.4198 H   0  0  0  0  0  0  0  0  0  0  0  0  # atno 7974 bound_to 7965
  155.7672  140.3485  155.5228 H   0  0  0  0  0  0  0  0  0  0  0  0  # atno 8008 bound_to 7997
  155.8857  140.1009  157.1475 H   0  0  0  0  0  0  0  0  0  0  0  0  # atno 8009 bound_to 7997
  154.4028  140.1314  156.4240 H   0  0  0  0  0  0  0  0  0  0  0  0  # atno 8010 bound_to 7997
  140.1103  144.4824  150.6982 H   0  0  0  0  0  0  0  0  0  0  0  0  # atno 10167 bound_to 10162
  156.0956  130.6129  150.9021 H   0  0  0  0  0  0  0  0  0  0  0  0  # atno 10718 bound_to 10713
  153.7611  135.6919  153.4925 H   0  0  0  0  0  0  0  0  0  0  0  0  # atno 10763 bound_to 10752
  153.1938  135.4461  155.0181 H   0  0  0  0  0  0  0  0  0  0  0  0  # atno 10764 bound_to 10752
  154.8153  135.3396  154.7126 H   0  0  0  0  0  0  0  0  0  0  0  0  # atno 10765 bound_to 10752
  139.9290  134.9641  156.8182 H   0  0  0  0  0  0  0  0  0  0  0  0  # atno 11005 bound_to 11000
  146.3366  140.2569  142.8600 LP  0  0  0  0  0  0  0  0  0  0  0  0  # atno 17320 bound_to 7965
  144.9729  140.8386  143.5444 LP  0  0  0  0  0  0  0  0  0  0  0  0  # atno 17321 bound_to 7965
  140.6929  143.2386  151.5081 LP  0  0  0  0  0  0  0  0  0  0  0  0  # atno 17342 bound_to 10162
  139.5623  144.2127  152.1710 LP  0  0  0  0  0  0  0  0  0  0  0  0  # atno 17343 bound_to 10162
  157.6116  131.0936  150.8785 LP  0  0  0  0  0  0  0  0  0  0  0  0  # atno 17370 bound_to 10713
  156.8924  130.5217  149.5286 LP  0  0  0  0  0  0  0  0  0  0  0  0  # atno 17371 bound_to 10713
  140.6256  133.9953  155.7638 LP  0  0  0  0  0  0  0  0  0  0  0  0  # atno 17394 bound_to 11000
  141.0866  133.9981  157.3303 LP  0  0  0  0  0  0  0  0  0  0  0  0  # atno 17395 bound_to 11000

$$$$
