AV-unprocessed.smi:2816|AV-procd|sdf|10842|dock3
  -GOLD-   2272015283D 1   1.00000     0.00000
 Structure written by MMmdl.
 43 45  0  0  0  0  0  0  0  0  1 V2000
  152.3983  131.1251  158.4016 C   0  0  0  0  0  0  0  0  0  0  0  0
  151.5571  131.1561  157.1136 C   0  0  0  0  0  0  0  0  0  0  0  0
  152.4807  130.9753  155.8950 C   0  0  0  0  0  0  0  0  0  0  0  0
  150.5033  130.0348  157.1600 C   0  0  0  0  0  0  0  0  0  0  0  0
  150.7056  132.8098  157.0304 S   0  0  0  0  0  0  0  0  0  0  0  0
  149.7182  132.8623  158.1204 O   0  0  0  0  0  0  0  0  0  0  0  0
  151.7350  133.8579  156.9451 O   0  0  0  0  0  0  0  0  0  0  0  0
  149.7984  132.8186  155.4824 C   0  0  0  0  0  0  0  0  0  0  0  0
  149.1092  133.9790  155.0762 C   0  0  0  0  0  0  0  0  0  0  0  0
  148.3717  133.9281  153.8787 C   0  0  0  0  0  0  0  0  0  0  0  0
  148.3427  132.7212  153.1401 C   0  0  0  0  0  0  0  0  0  0  0  0
  147.6309  132.5659  151.9413 N   0  0  0  0  0  0  0  0  0  0  0  0
  146.1989  132.8305  151.8686 C   0  0  2  0  0  0  0  0  0  0  0  0
  145.3412  131.5744  152.0757 C   0  0  0  0  0  0  0  0  0  0  0  0
  144.4934  131.5536  150.7981 C   0  0  1  0  0  0  0  0  0  0  0  0
  143.4743  132.7004  150.7572 C   0  0  0  0  0  0  0  0  0  0  0  0
  144.3725  133.9057  150.4803 C   0  0  0  0  0  0  0  0  0  0  0  0
  145.7664  133.2634  150.4569 C   0  0  2  0  0  0  0  0  0  0  0  0
  145.4492  132.0159  149.8607 O   0  0  0  0  0  0  0  0  0  0  0  0
  149.0679  131.6214  153.6482 C   0  0  0  0  0  0  0  0  0  0  0  0
  149.7773  131.6562  154.7957 N   0  0  0  0  0  0  0  0  0  0  0  0
  152.9251  130.1763  158.5099 H   0  0  0  0  0  0  0  0  0  0  0  0
  151.7744  131.2570  159.2861 H   0  0  0  0  0  0  0  0  0  0  0  0
  153.1456  131.9192  158.4061 H   0  0  0  0  0  0  0  0  0  0  0  0
  153.1957  131.7941  155.8110 H   0  0  0  0  0  0  0  0  0  0  0  0
  151.9172  130.9301  154.9638 H   0  0  0  0  0  0  0  0  0  0  0  0
  153.0513  130.0490  155.9685 H   0  0  0  0  0  0  0  0  0  0  0  0
  150.9735  129.0570  157.2693 H   0  0  0  0  0  0  0  0  0  0  0  0
  149.9062  130.0066  156.2484 H   0  0  0  0  0  0  0  0  0  0  0  0
  149.8194  130.1651  157.9991 H   0  0  0  0  0  0  0  0  0  0  0  0
  149.1388  134.8834  155.6653 H   0  0  0  0  0  0  0  0  0  0  0  0
  147.8398  134.8084  153.5506 H   0  0  0  0  0  0  0  0  0  0  0  0
  148.0536  132.0445  151.1862 H   0  0  0  0  0  0  0  0  0  0  0  0
  145.9449  133.6148  152.5828 H   0  0  0  0  0  0  0  0  0  0  0  0
  145.9525  130.6725  152.1325 H   0  0  0  0  0  0  0  0  0  0  0  0
  144.7320  131.6257  152.9784 H   0  0  0  0  0  0  0  0  0  0  0  0
  144.0711  130.5760  150.5638 H   0  0  0  0  0  0  0  0  0  0  0  0
  142.7611  132.5603  149.9442 H   0  0  0  0  0  0  0  0  0  0  0  0
  142.9168  132.7913  151.6899 H   0  0  0  0  0  0  0  0  0  0  0  0
  144.1338  134.3439  149.5107 H   0  0  0  0  0  0  0  0  0  0  0  0
  144.2835  134.6851  151.2378 H   0  0  0  0  0  0  0  0  0  0  0  0
  146.5078  133.8520  149.9145 H   0  0  0  0  0  0  0  0  0  0  0  0
  149.0734  130.6784  153.1211 H   0  0  0  0  0  0  0  0  0  0  0  0
  1  2  1  0  0  0  0
  1 22  1  0  0  0  0
  1 23  1  0  0  0  0
  1 24  1  0  0  0  0
  2  3  1  0  0  0  0
  2  4  1  0  0  0  0
  2  5  1  0  0  0  0
  3 25  1  0  0  0  0
  3 26  1  0  0  0  0
  3 27  1  0  0  0  0
  4 28  1  0  0  0  0
  4 29  1  0  0  0  0
  4 30  1  0  0  0  0
  5  6  2  0  0  0  0
  5  7  2  0  0  0  0
  5  8  1  0  0  0  0
  8 21  1  0  0  0  0
  8  9  2  0  0  0  0
  9 10  1  0  0  0  0
  9 31  1  0  0  0  0
 10 11  2  0  0  0  0
 10 32  1  0  0  0  0
 11 12  1  0  0  0  0
 11 20  1  0  0  0  0
 12 13  1  0  0  0  0
 12 33  1  0  0  0  0
 13 18  1  0  0  0  0
 13 14  1  0  0  0  0
 13 34  1  0  0  0  0
 14 15  1  0  0  0  0
 14 35  1  0  0  0  0
 14 36  1  0  0  0  0
 15 19  1  0  0  0  0
 15 16  1  0  0  0  0
 15 37  1  0  0  0  0
 16 17  1  0  0  0  0
 16 38  1  0  0  0  0
 16 39  1  0  0  0  0
 17 18  1  0  0  0  0
 17 40  1  0  0  0  0
 17 41  1  0  0  0  0
 18 19  1  0  0  0  0
 18 42  1  0  0  0  0
 20 21  2  0  0  0  0
 20 43  1  0  0  0  0
M  END
> <s_m_source_file>
AV-unprocessed.smi

> <i_m_source_file_index>
2816

> <i_lp_mmshare_version>
43012

> <i_f3d_flags>
0

> <s_epik_input>
W0NIM11DKFtDSDNdKShbQ0gzXSlTKD1PKSg9TyljMVtjSF1bY0hdYyhbY0hdbjEpW05IXVtDQEhdKFtDSDJdW0NAQEhdMjMpW0NAQEhdKE8zKVtDSDJdW0NIMl0y

> <s_epik_cmdline>
J2VwaWtfcHl0aG9uJywgJy1waCcsICc3LjAnLCAnLXRuJywgJzgnLCAnLW1hJywgJzIwMCcsICctbWV0YWxfYmluZGluZycsICctaW1hZScsICc8aW5maWxlLm1hZT4nLCAnLW9tYWUnLCAnPG91dGZpbGUubWFlPic=

> <r_lp_tautomer_probability>
1

> <r_epik_Ionization_Penalty>
1.94439e-07

> <r_epik_Ionization_Penalty_Charging>
0

> <r_epik_Ionization_Penalty_Neutral>
1.94439e-07

> <r_epik_State_Penalty>
-0

> <r_epik_Charging_Adjusted_Penalty>
0

> <i_epik_Tot_Q>
0

> <i_epik_Tot_abs_Q>
0

> <r_epik_Metal_State_Penalty>
-0

> <b_epik_Metal_Only>
0

> <s_lp_Force_Field>
OPLS_2005

> <r_lp_Energy>
42.0373

> <b_lp_Chiralities_Consistent>
1

> <s_lp_Variant>
AV-unprocessed.smi:2816-1

> <Gold.Version>
5.8.1

> <Gold.Id.Protein>
6NUR|6NUR_protein|mol2

> <Gold.PLP.Fitness>
40.7770

> <Gold.PLP.PLP>
-35.6302

> <Gold.PLP.part.hbond>
-2.6058

> <Gold.PLP.part.metal>
0.0000

> <Gold.PLP.part.buried>
-4.6379

> <Gold.PLP.part.nonpolar>
-27.4541

> <Gold.PLP.part.repulsive>
0.1951

> <Gold.PLP.ligand.clash>
0.0000

> <Gold.PLP.ligand.torsion>
2.2129

> <Gold.PLP.Chemscore.Hbond>
2.0000

> <Gold.PLP.Chemscore.CHOScore>
0.4459

> <Gold.PLP.Chemscore.Metal>
0.0000

> <Gold.Chemscore.Hbonds>
donor molecule, donor type, donor heavy atom, donor atom, acceptor molecule, acceptor atom, score
      L1  H    12    33       P1 10747  1.00
      P1  H  6896  6908       L1     6  0.65
      L1  C    20    43       P1 10747  0.21

> <Gold.PLP.Chemscore.Internal.Correction>
2.2348

> <Gold.Rescore>
     Score         DG    S(hbond)    S(metal)    S(lipo)     H(rot)  DE(clash)    DE(int)     intcor
     14.71     -19.82       2.15        0.00      86.37       1.15       1.53       3.59       ----

> <Gold.Chemscore.Fitness>
14.7080

> <Gold.Chemscore.DG>
-19.8240

> <Gold.Chemscore.ZeroCoef>
-5.4800

> <Gold.Chemscore.Hbond>
2.1481

> <Gold.Chemscore.Metal>
0.0000

> <Gold.Chemscore.Lipo>
86.3750

> <Gold.Chemscore.Internal_Hbond>
0.0000

> <Gold.Chemscore.DEClash>
1.5298

> <Gold.Chemscore.DEInternal>
3.5863

> <Gold.Chemscore.Rot>
1.1471

> <Gold.Chemscore.Internal.Correction>
   9.000000E+99

> <Gold.Chemscore.Hbonds>
donor molecule, donor type, donor heavy atom, donor atom, acceptor molecule, acceptor atom, score
      L1  H    12    33       P1 10747  1.00
      P1  H  6896  6908       L1     6  0.06

> <Gold.Chemscore.Hbond.Weighted>
-7.1747

> <Gold.Chemscore.Metal.Weighted>
-0.0000

> <Gold.Chemscore.Lipo.Weighted>
-10.1059

> <Gold.Chemscore.Internal_Hbond.Weighted>
0.0000

> <Gold.Chemscore.DEClash.Weighted>
1.5298

> <Gold.Chemscore.DEInternal.Weighted>
3.5863

> <Gold.Chemscore.Rot.Weighted>
2.9366

> <Gold.Chemscore.Internal.Correction.Weighted>
   9.000000E+99

> <Gold.Protein.RotatedTorsions>
[ 6907 6896 6895 6894 ] final  113.58 input  -60.11 | X-H torsion
[ 7974 7965 7964 7962 ] final  -45.94 input  175.53 | X-H torsion
[ 8008 7997 7996 7995 ] final -123.27 input   59.86 | X-H torsion
[ 10167 10162 10161 10158 ] final -118.44 input  -65.29 | X-H torsion
[ 10718 10713 10712 10709 ] final   82.09 input   66.30 | X-H torsion
[ 10763 10752 10751 10750 ] final -154.27 input  -60.55 | X-H torsion
[ 11005 11000 10999 10996 ] final  132.16 input  -57.11 | X-H torsion

> <Gold.Protein.ActiveResidues>
 VAL166  LYS551  ARG553  GLY616  TRP617  ASP618  TYR619  PRO620  LYS621  CYS622 
 ASP623  PHE694  ASN695  SER759  ASP760  ASP761  ALA762  ILE779  LEU786  VAL792 
 PHE793  MET794  SER795  GLU796  ALA797  LYS798  CYS799  TRP800  GLU811  SER814 

> <Gold.Protein.RotatedAtoms>
  152.4852  133.8355  159.7125 H   0  0  0  0  0  0  0  0  0  0  0  0  # atno 6907 bound_to 6896
  150.8933  133.7205  159.2905 H   0  0  0  0  0  0  0  0  0  0  0  0  # atno 6908 bound_to 6896
  151.4670  135.1047  159.9793 H   0  0  0  0  0  0  0  0  0  0  0  0  # atno 6909 bound_to 6896
  145.9769  140.7324  142.9382 H   0  0  0  0  0  0  0  0  0  0  0  0  # atno 7974 bound_to 7965
  155.1778  140.0410  157.2876 H   0  0  0  0  0  0  0  0  0  0  0  0  # atno 8008 bound_to 7997
  154.6224  140.2504  155.7505 H   0  0  0  0  0  0  0  0  0  0  0  0  # atno 8009 bound_to 7997
  156.2441  140.2892  156.0539 H   0  0  0  0  0  0  0  0  0  0  0  0  # atno 8010 bound_to 7997
  140.0574  143.5001  152.2050 H   0  0  0  0  0  0  0  0  0  0  0  0  # atno 10167 bound_to 10162
  157.6849  131.0033  150.2324 H   0  0  0  0  0  0  0  0  0  0  0  0  # atno 10718 bound_to 10713
  154.7870  135.3194  154.7863 H   0  0  0  0  0  0  0  0  0  0  0  0  # atno 10763 bound_to 10752
  153.8561  135.6858  153.4792 H   0  0  0  0  0  0  0  0  0  0  0  0  # atno 10764 bound_to 10752
  153.1526  135.4693  154.9597 H   0  0  0  0  0  0  0  0  0  0  0  0  # atno 10765 bound_to 10752
  139.9773  134.9559  156.9542 H   0  0  0  0  0  0  0  0  0  0  0  0  # atno 11005 bound_to 11000
  144.6851  140.2843  143.7287 LP  0  0  0  0  0  0  0  0  0  0  0  0  # atno 17320 bound_to 7965
  145.7825  139.1896  143.2149 LP  0  0  0  0  0  0  0  0  0  0  0  0  # atno 17321 bound_to 7965
  139.5915  144.7551  151.3390 LP  0  0  0  0  0  0  0  0  0  0  0  0  # atno 17342 bound_to 10162
  140.7188  143.7193  150.7708 LP  0  0  0  0  0  0  0  0  0  0  0  0  # atno 17343 bound_to 10162
  156.2954  130.3751  149.7801 LP  0  0  0  0  0  0  0  0  0  0  0  0  # atno 17370 bound_to 10713
  156.5448  130.8316  151.3280 LP  0  0  0  0  0  0  0  0  0  0  0  0  # atno 17371 bound_to 10713
  140.5168  134.0947  155.7283 LP  0  0  0  0  0  0  0  0  0  0  0  0  # atno 17394 bound_to 11000
  141.1449  133.9073  157.2239 LP  0  0  0  0  0  0  0  0  0  0  0  0  # atno 17395 bound_to 11000

$$$$
