AV-unprocessed.smi:507|AV-procd|sdf|2755|dock2
  -GOLD-   2262023223D 1   1.00000     0.00000
 Structure written by MMmdl.
 35 36  0  0  0  0  0  0  0  0  3 V2000
  151.9101  144.3007  160.8506 C   0  0  0  0  0  0  0  0  0  0  0  0
  151.8619  143.2652  159.7400 C   0  0  0  0  0  0  0  0  0  0  0  0
  151.0737  143.5365  158.5987 C   0  0  0  0  0  0  0  0  0  0  0  0
  151.0474  142.5688  157.6015 C   0  0  0  0  0  0  0  0  0  0  0  0
  150.3796  142.5350  156.3754 N   0  3  0  0  0  0  0  0  0  0  0  0
  150.6610  141.3658  155.7362 C   0  0  0  0  0  0  0  0  0  0  0  0
  151.4976  140.6512  156.5377 N   0  0  0  0  0  0  0  0  0  0  0  0
  152.0995  139.3261  156.3361 C   0  0  0  0  0  0  0  0  0  0  0  0
  151.8983  138.7909  154.9039 C   0  0  1  0  0  0  0  0  0  0  0  0
  152.7334  137.6654  154.7077 O   0  0  0  0  0  0  0  0  0  0  0  0
  150.4394  138.3836  154.6361 C   0  0  0  0  0  0  0  0  0  0  0  0
  150.2098  138.1000  153.2083 N   0  3  0  0  0  0  0  0  0  0  0  0
  151.7692  141.3645  157.7103 C   0  0  0  0  0  0  0  0  0  0  0  0
  152.5526  141.0820  158.8266 C   0  0  0  0  0  0  0  0  0  0  0  0
  152.5933  142.0543  159.8517 C   0  0  0  0  0  0  0  0  0  0  0  0
  153.4406  141.7754  161.0816 C   0  0  0  0  0  0  0  0  0  0  0  0
  151.3023  145.1731  160.6090 H   0  0  0  0  0  0  0  0  0  0  0  0
  152.9326  144.6419  161.0131 H   0  0  0  0  0  0  0  0  0  0  0  0
  151.5323  143.8799  161.7827 H   0  0  0  0  0  0  0  0  0  0  0  0
  150.5152  144.4568  158.5069 H   0  0  0  0  0  0  0  0  0  0  0  0
  150.2847  141.0599  154.7704 H   0  0  0  0  0  0  0  0  0  0  0  0
  153.1628  139.4106  156.5660 H   0  0  0  0  0  0  0  0  0  0  0  0
  151.6786  138.6418  157.0739 H   0  0  0  0  0  0  0  0  0  0  0  0
  152.1929  139.5614  154.1901 H   0  0  0  0  0  0  0  0  0  0  0  0
  153.6308  137.9231  154.8560 H   0  0  0  0  0  0  0  0  0  0  0  0
  150.1616  137.5116  155.2296 H   0  0  0  0  0  0  0  0  0  0  0  0
  149.7674  139.1924  154.9254 H   0  0  0  0  0  0  0  0  0  0  0  0
  149.3280  137.6210  153.0942 H   0  0  0  0  0  0  0  0  0  0  0  0
  150.9576  137.5176  152.8586 H   0  0  0  0  0  0  0  0  0  0  0  0
  153.1089  140.1605  158.9121 H   0  0  0  0  0  0  0  0  0  0  0  0
  153.9326  140.8044  161.0163 H   0  0  0  0  0  0  0  0  0  0  0  0
  152.8241  141.7759  161.9807 H   0  0  0  0  0  0  0  0  0  0  0  0
  154.2159  142.5340  161.1924 H   0  0  0  0  0  0  0  0  0  0  0  0
  150.1918  138.9669  152.6903 H   0  0  0  0  0  0  0  0  0  0  0  0
  149.7756  143.2556  156.0005 H   0  0  0  0  0  0  0  0  0  0  0  0
  1  2  1  0  0  0  0
  1 17  1  0  0  0  0
  1 18  1  0  0  0  0
  1 19  1  0  0  0  0
  2 15  1  0  0  0  0
  2  3  2  0  0  0  0
  3  4  1  0  0  0  0
  3 20  1  0  0  0  0
  4 13  2  0  0  0  0
  4  5  1  0  0  0  0
  5  6  2  0  0  0  0
  5 35  1  0  0  0  0
  6  7  1  0  0  0  0
  6 21  1  0  0  0  0
  7  8  1  0  0  0  0
  7 13  1  0  0  0  0
  8  9  1  0  0  0  0
  8 22  1  0  0  0  0
  8 23  1  0  0  0  0
  9 10  1  0  0  0  0
  9 11  1  0  0  0  0
  9 24  1  0  0  0  0
 10 25  1  0  0  0  0
 11 12  1  0  0  0  0
 11 26  1  0  0  0  0
 11 27  1  0  0  0  0
 12 28  1  0  0  0  0
 12 29  1  0  0  0  0
 12 34  1  0  0  0  0
 13 14  1  0  0  0  0
 14 15  2  0  0  0  0
 14 30  1  0  0  0  0
 15 16  1  0  0  0  0
 16 31  1  0  0  0  0
 16 32  1  0  0  0  0
 16 33  1  0  0  0  0
M  CHG  1   5   1
M  CHG  1  12   1
M  END
> <s_m_source_file>
AV-unprocessed.smi

> <i_m_source_file_index>
507

> <i_lp_mmshare_version>
43012

> <i_f3d_flags>
0

> <s_epik_input>
W0NIM11jKFtjSF0xKWMoW0NIM10pW2NIXWMoYzEyKW4oW2NIXW4yKVtDSDJdW0NASF0oW09IXSlbQ0gyXVtOSDJd

> <s_epik_cmdline>
J2VwaWtfcHl0aG9uJywgJy1waCcsICc3LjAnLCAnLXRuJywgJzgnLCAnLW1hJywgJzIwMCcsICctbWV0YWxfYmluZGluZycsICctaW1hZScsICc8aW5maWxlLm1hZT4nLCAnLW9tYWUnLCAnPG91dGZpbGUubWFlPic=

> <r_epik_Ionization_Penalty>
1.17892

> <r_epik_Ionization_Penalty_Charging>
1.17892

> <r_epik_Ionization_Penalty_Neutral>
1.79057e-06

> <r_epik_State_Penalty>
1.21155

> <r_epik_Charging_Adjusted_Penalty>
2.39047

> <i_epik_Tot_Q>
2

> <i_epik_Tot_abs_Q>
2

> <r_epik_Metal_State_Penalty>
5.22091

> <b_epik_Metal_Only>
0

> <s_lp_Force_Field>
OPLS_2005

> <r_lp_Energy>
17.3712

> <b_lp_Chiralities_Consistent>
1

> <s_lp_Variant>
AV-unprocessed.smi:507-4

> <Gold.Version>
5.8.1

> <Gold.Id.Protein>
6NUR|6NUR_protein|mol2

> <Gold.PLP.Fitness>
56.6820

> <Gold.PLP.PLP>
-39.5274

> <Gold.PLP.part.hbond>
-5.0000

> <Gold.PLP.part.metal>
0.0000

> <Gold.PLP.part.buried>
-2.5957

> <Gold.PLP.part.nonpolar>
-32.2284

> <Gold.PLP.part.repulsive>
0.1850

> <Gold.PLP.ligand.clash>
0.0000

> <Gold.PLP.ligand.torsion>
0.2102

> <Gold.PLP.Chemscore.Hbond>
5.8554

> <Gold.PLP.Chemscore.CHOScore>
0.0000

> <Gold.PLP.Chemscore.Metal>
0.0000

> <Gold.Chemscore.Hbonds>
donor molecule, donor type, donor heavy atom, donor atom, acceptor molecule, acceptor atom, score
      L1  H     5    35       P1  8028  2.00
      L1  H    12    28       P1  7948  0.99
      L1  H    12    29       P1  7949  1.30
      L1  H    12    34       P1  7957  1.00
      P1  H 10752 10765       L1    10  0.44

> <Gold.PLP.Chemscore.Internal.Correction>
0.0087

> <Gold.Rescore>
     Score         DG    S(hbond)    S(metal)    S(lipo)     H(rot)  DE(clash)    DE(int)     intcor
     19.04     -19.26       2.37        0.00     100.92       2.32       0.03       0.20       ----

> <Gold.Chemscore.Fitness>
19.0362

> <Gold.Chemscore.DG>
-19.2645

> <Gold.Chemscore.ZeroCoef>
-5.4800

> <Gold.Chemscore.Hbond>
2.3685

> <Gold.Chemscore.Metal>
0.0000

> <Gold.Chemscore.Lipo>
100.9196

> <Gold.Chemscore.Internal_Hbond>
0.0000

> <Gold.Chemscore.DEClash>
0.0289

> <Gold.Chemscore.DEInternal>
0.1994

> <Gold.Chemscore.Rot>
2.3180

> <Gold.Chemscore.Internal.Correction>
   9.000000E+99

> <Gold.Chemscore.Hbonds>
donor molecule, donor type, donor heavy atom, donor atom, acceptor molecule, acceptor atom, score
      L1  H     5    35       P1  8028  1.00
      L1  H    12    28       P1  7948  0.48
      L1  H    12    29       P1  7949  0.14
      L1  H    12    34       P1  7957  0.47
      P1  H 10752 10765       L1    10  0.11

> <Gold.Chemscore.Hbond.Weighted>
-7.9110

> <Gold.Chemscore.Metal.Weighted>
-0.0000

> <Gold.Chemscore.Lipo.Weighted>
-11.8076

> <Gold.Chemscore.Internal_Hbond.Weighted>
0.0000

> <Gold.Chemscore.DEClash.Weighted>
0.0289

> <Gold.Chemscore.DEInternal.Weighted>
0.1994

> <Gold.Chemscore.Rot.Weighted>
5.9340

> <Gold.Chemscore.Internal.Correction.Weighted>
   9.000000E+99

> <Gold.Protein.RotatedTorsions>
[ 6907 6896 6895 6894 ] final -105.14 input  -60.11 | X-H torsion
[ 7974 7965 7964 7962 ] final -144.59 input  175.53 | X-H torsion
[ 8008 7997 7996 7995 ] final -149.79 input   59.86 | X-H torsion
[ 10167 10162 10161 10158 ] final   97.44 input  -65.29 | X-H torsion
[ 10718 10713 10712 10709 ] final  169.60 input   66.30 | X-H torsion
[ 10763 10752 10751 10750 ] final  168.81 input  -60.55 | X-H torsion
[ 11005 11000 10999 10996 ] final  136.93 input  -57.11 | X-H torsion

> <Gold.Protein.ActiveResidues>
 VAL166  LYS551  ARG553  GLY616  TRP617  ASP618  TYR619  PRO620  LYS621  CYS622 
 ASP623  PHE694  ASN695  SER759  ASP760  ASP761  ALA762  ILE779  LEU786  VAL792 
 PHE793  MET794  SER795  GLU796  ALA797  LYS798  CYS799  TRP800  GLU811  SER814 

> <Gold.Protein.RotatedAtoms>
  150.7321  134.0172  159.3689 H   0  0  0  0  0  0  0  0  0  0  0  0  # atno 6907 bound_to 6896
  151.8135  135.0671  160.0425 H   0  0  0  0  0  0  0  0  0  0  0  0  # atno 6908 bound_to 6896
  152.3055  133.5663  159.5683 H   0  0  0  0  0  0  0  0  0  0  0  0  # atno 6909 bound_to 6896
  144.8287  140.5691  143.5530 H   0  0  0  0  0  0  0  0  0  0  0  0  # atno 7974 bound_to 7965
  155.6132  140.0674  157.2700 H   0  0  0  0  0  0  0  0  0  0  0  0  # atno 8008 bound_to 7997
  154.4248  140.1797  156.1342 H   0  0  0  0  0  0  0  0  0  0  0  0  # atno 8009 bound_to 7997
  156.0068  140.3330  155.6904 H   0  0  0  0  0  0  0  0  0  0  0  0  # atno 8010 bound_to 7997
  139.7800  144.6891  151.0035 H   0  0  0  0  0  0  0  0  0  0  0  0  # atno 10167 bound_to 10162
  157.0203  131.0230  151.2776 H   0  0  0  0  0  0  0  0  0  0  0  0  # atno 10718 bound_to 10713
  154.3740  135.2753  155.2250 H   0  0  0  0  0  0  0  0  0  0  0  0  # atno 10763 bound_to 10752
  154.4385  135.5960  153.6118 H   0  0  0  0  0  0  0  0  0  0  0  0  # atno 10764 bound_to 10752
  152.9837  135.6013  154.3974 H   0  0  0  0  0  0  0  0  0  0  0  0  # atno 10765 bound_to 10752
  140.0079  134.9451  157.0215 H   0  0  0  0  0  0  0  0  0  0  0  0  # atno 11005 bound_to 11000
  145.4943  139.1487  143.3692 LP  0  0  0  0  0  0  0  0  0  0  0  0  # atno 17320 bound_to 7965
  146.2591  140.5082  142.8861 LP  0  0  0  0  0  0  0  0  0  0  0  0  # atno 17321 bound_to 7965
  140.7818  143.4493  151.0436 LP  0  0  0  0  0  0  0  0  0  0  0  0  # atno 17342 bound_to 10162
  139.8174  143.7867  152.3175 LP  0  0  0  0  0  0  0  0  0  0  0  0  # atno 17343 bound_to 10162
  157.5255  130.8025  149.7857 LP  0  0  0  0  0  0  0  0  0  0  0  0  # atno 17370 bound_to 10713
  156.0104  130.3836  150.2283 LP  0  0  0  0  0  0  0  0  0  0  0  0  # atno 17371 bound_to 10713
  140.4608  134.1486  155.7191 LP  0  0  0  0  0  0  0  0  0  0  0  0  # atno 17394 bound_to 11000
  141.1690  133.8646  157.1628 LP  0  0  0  0  0  0  0  0  0  0  0  0  # atno 17395 bound_to 11000

$$$$
