AV-unprocessed.smi:798|AV-procd|sdf|3778|dock1
  -GOLD-   22720 1213D 1   1.00000     0.00000
 Structure written by MMmdl.
 33 35  0  0  0  0  0  0  0  0  2 V2000
  152.3313  139.0648  159.2188 O   0  0  0  0  0  0  0  0  0  0  0  0
  152.4614  139.7076  158.1746 C   0  0  0  0  0  0  0  0  0  0  0  0
  152.8292  139.2143  156.9704 N   0  5  0  0  0  0  0  0  0  0  0  0
  151.9620  139.2313  155.9449 C   0  0  0  0  0  0  0  0  0  0  0  0
  151.3339  140.3519  155.5540 N   0  0  0  0  0  0  0  0  0  0  0  0
  150.4842  140.1532  154.4742 N   0  0  0  0  0  0  0  0  0  0  0  0
  150.5003  138.8829  154.0708 C   0  0  0  0  0  0  0  0  0  0  0  0
  151.5557  137.8151  154.9715 S   0  0  0  0  0  0  0  0  0  0  0  0
  152.2206  141.0265  158.1649 N   0  0  0  0  0  0  0  0  0  0  0  0
  151.8066  141.8392  159.3105 C   0  0  1  0  0  0  0  0  0  0  0  0
  152.9700  141.9704  160.3172 C   0  0  2  0  0  0  0  0  0  0  0  0
  152.4174  142.4753  161.6624 C   0  0  0  0  0  0  0  0  0  0  0  0
  152.0742  143.9448  161.3513 C   0  0  0  0  0  0  0  0  0  0  0  0
  152.4801  144.0866  159.8704 C   0  0  1  0  0  0  0  0  0  0  0  0
  153.7159  143.1982  159.8090 C   0  0  0  0  0  0  0  0  0  0  0  0
  151.4646  143.3253  158.9826 C   0  0  1  0  0  0  0  0  0  0  0  0
  151.5333  143.7290  157.4917 C   0  0  0  0  0  0  0  0  0  0  0  0
  150.6815  142.9116  156.7164 O   0  0  0  0  0  0  0  0  0  0  0  0
  149.8893  138.5738  153.2358 H   0  0  0  0  0  0  0  0  0  0  0  0
  152.3390  141.5091  157.2864 H   0  0  0  0  0  0  0  0  0  0  0  0
  150.9595  141.3535  159.7985 H   0  0  0  0  0  0  0  0  0  0  0  0
  153.5770  141.0693  160.4143 H   0  0  0  0  0  0  0  0  0  0  0  0
  151.5510  141.9049  161.9991 H   0  0  0  0  0  0  0  0  0  0  0  0
  153.1788  142.4167  162.4411 H   0  0  0  0  0  0  0  0  0  0  0  0
  151.0205  144.1717  161.5174 H   0  0  0  0  0  0  0  0  0  0  0  0
  152.6620  144.6152  161.9795 H   0  0  0  0  0  0  0  0  0  0  0  0
  152.6464  145.1220  159.5721 H   0  0  0  0  0  0  0  0  0  0  0  0
  154.5170  143.5241  160.4747 H   0  0  0  0  0  0  0  0  0  0  0  0
  154.1186  143.0768  158.8026 H   0  0  0  0  0  0  0  0  0  0  0  0
  150.4506  143.5355  159.3265 H   0  0  0  0  0  0  0  0  0  0  0  0
  151.2575  144.7734  157.3452 H   0  0  0  0  0  0  0  0  0  0  0  0
  152.5458  143.6031  157.1081 H   0  0  0  0  0  0  0  0  0  0  0  0
  149.9788  143.4474  156.3820 H   0  0  0  0  0  0  0  0  0  0  0  0
  1  2  2  0  0  0  0
  2  3  1  0  0  0  0
  2  9  1  0  0  0  0
  3  4  1  0  0  0  0
  4  8  1  0  0  0  0
  4  5  2  0  0  0  0
  5  6  1  0  0  0  0
  6  7  2  0  0  0  0
  7  8  1  0  0  0  0
  7 19  1  0  0  0  0
  9 10  1  0  0  0  0
  9 20  1  0  0  0  0
 10 16  1  0  0  0  0
 10 11  1  0  0  0  0
 10 21  1  0  0  0  0
 11 15  1  0  0  0  0
 11 12  1  0  0  0  0
 11 22  1  0  0  0  0
 12 13  1  0  0  0  0
 12 23  1  0  0  0  0
 12 24  1  0  0  0  0
 13 14  1  0  0  0  0
 13 25  1  0  0  0  0
 13 26  1  0  0  0  0
 14 15  1  0  0  0  0
 14 16  1  0  0  0  0
 14 27  1  0  0  0  0
 15 28  1  0  0  0  0
 15 29  1  0  0  0  0
 16 17  1  0  0  0  0
 16 30  1  0  0  0  0
 17 18  1  0  0  0  0
 17 31  1  0  0  0  0
 17 32  1  0  0  0  0
 18 33  1  0  0  0  0
M  CHG  1   3  -1
M  END
> <s_m_source_file>
AV-unprocessed.smi

> <i_m_source_file_index>
798

> <i_lp_mmshare_version>
43012

> <i_f3d_flags>
0

> <s_epik_input>
W0NIMl0xW0NIMl1bQ0BASF0oW0NIMl0yKVtDQEBIXShbQ0gyXVtPSF0pW0NAQEhdKFtDQEhdMTIpW05IXUMoPU8pW05IXWMzbm5bY0hdczM=

> <s_epik_cmdline>
J2VwaWtfcHl0aG9uJywgJy1waCcsICc3LjAnLCAnLXRuJywgJzgnLCAnLW1hJywgJzIwMCcsICctbWV0YWxfYmluZGluZycsICctaW1hZScsICc8aW5maWxlLm1hZT4nLCAnLW9tYWUnLCAnPG91dGZpbGUubWFlPic=

> <r_lp_tautomer_probability>
1

> <r_epik_Ionization_Penalty>
4.53732

> <r_epik_Ionization_Penalty_Charging>
4.48632

> <r_epik_Ionization_Penalty_Neutral>
0.0510007

> <r_epik_State_Penalty>
4.48602

> <r_epik_Charging_Adjusted_Penalty>
8.97234

> <i_epik_Tot_Q>
-1

> <i_epik_Tot_abs_Q>
1

> <r_epik_Metal_State_Penalty>
0.812492

> <b_epik_Metal_Only>
1

> <s_lp_Force_Field>
OPLS_2005

> <r_lp_Energy>
47.4454

> <b_lp_Chiralities_Consistent>
1

> <s_lp_Variant>
AV-unprocessed.smi:798-10

> <Gold.Version>
5.8.1

> <Gold.Id.Protein>
6NUR|6NUR_protein|mol2

> <Gold.PLP.Fitness>
50.0519

> <Gold.PLP.PLP>
-38.7282

> <Gold.PLP.part.hbond>
-4.0000

> <Gold.PLP.part.metal>
0.0000

> <Gold.PLP.part.buried>
-6.4846

> <Gold.PLP.part.nonpolar>
-27.9700

> <Gold.PLP.part.repulsive>
0.1970

> <Gold.PLP.ligand.clash>
0.0000

> <Gold.PLP.ligand.torsion>
1.1647

> <Gold.PLP.Chemscore.Hbond>
3.4500

> <Gold.PLP.Chemscore.CHOScore>
1.0881

> <Gold.PLP.Chemscore.Metal>
0.0000

> <Gold.Chemscore.Hbonds>
donor molecule, donor type, donor heavy atom, donor atom, acceptor molecule, acceptor atom, score
      L1  H    18    33       P1  8028  1.00
      P1  H  7989  7998       L1     6  0.45
      P1  H  7997  8008       L1     3  2.00
      L1  C     7    19       P1  7948  0.26
      L1  C     7    19       P1  7957  0.82

> <Gold.PLP.Chemscore.Internal.Correction>
0.0386

> <Gold.Rescore>
     Score         DG    S(hbond)    S(metal)    S(lipo)     H(rot)  DE(clash)    DE(int)     intcor
     16.83     -18.08       1.59        0.00     104.41       1.92       0.02       1.23       ----

> <Gold.Chemscore.Fitness>
16.8301

> <Gold.Chemscore.DG>
-18.0817

> <Gold.Chemscore.ZeroCoef>
-5.4800

> <Gold.Chemscore.Hbond>
1.5877

> <Gold.Chemscore.Metal>
0.0000

> <Gold.Chemscore.Lipo>
104.4078

> <Gold.Chemscore.Internal_Hbond>
0.0000

> <Gold.Chemscore.DEClash>
0.0174

> <Gold.Chemscore.DEInternal>
1.2342

> <Gold.Chemscore.Rot>
1.9207

> <Gold.Chemscore.Internal.Correction>
   9.000000E+99

> <Gold.Chemscore.Hbonds>
donor molecule, donor type, donor heavy atom, donor atom, acceptor molecule, acceptor atom, score
      L1  H    18    33       P1  8028  1.00
      P1  H  7989  7998       L1     6  0.01
      P1  H  7997  8008       L1     3  0.25

> <Gold.Chemscore.Hbond.Weighted>
-5.3029

> <Gold.Chemscore.Metal.Weighted>
-0.0000

> <Gold.Chemscore.Lipo.Weighted>
-12.2157

> <Gold.Chemscore.Internal_Hbond.Weighted>
0.0000

> <Gold.Chemscore.DEClash.Weighted>
0.0174

> <Gold.Chemscore.DEInternal.Weighted>
1.2342

> <Gold.Chemscore.Rot.Weighted>
4.9169

> <Gold.Chemscore.Internal.Correction.Weighted>
   9.000000E+99

> <Gold.Protein.RotatedTorsions>
[ 6907 6896 6895 6894 ] final   77.93 input  -60.11 | X-H torsion
[ 7974 7965 7964 7962 ] final -172.31 input  175.53 | X-H torsion
[ 8008 7997 7996 7995 ] final  -67.23 input   59.86 | X-H torsion
[ 10167 10162 10161 10158 ] final -124.91 input  -65.29 | X-H torsion
[ 10718 10713 10712 10709 ] final   -8.89 input   66.30 | X-H torsion
[ 10763 10752 10751 10750 ] final  -82.34 input  -60.55 | X-H torsion
[ 11005 11000 10999 10996 ] final -130.17 input  -57.11 | X-H torsion

> <Gold.Protein.ActiveResidues>
 VAL166  LYS551  ARG553  GLY616  TRP617  ASP618  TYR619  PRO620  LYS621  CYS622 
 ASP623  PHE694  ASN695  SER759  ASP760  ASP761  ALA762  ILE779  LEU786  VAL792 
 PHE793  MET794  SER795  GLU796  ALA797  LYS798  CYS799  TRP800  GLU811  SER814 

> <Gold.Protein.RotatedAtoms>
  152.5138  134.3741  159.9328 H   0  0  0  0  0  0  0  0  0  0  0  0  # atno 6907 bound_to 6896
  151.3696  133.3853  159.2706 H   0  0  0  0  0  0  0  0  0  0  0  0  # atno 6908 bound_to 6896
  150.9588  134.8998  159.7776 H   0  0  0  0  0  0  0  0  0  0  0  0  # atno 6909 bound_to 6896
  144.7147  140.1791  143.6360 H   0  0  0  0  0  0  0  0  0  0  0  0  # atno 7974 bound_to 7965
  154.4786  140.0897  156.7323 H   0  0  0  0  0  0  0  0  0  0  0  0  # atno 8008 bound_to 7997
  155.4530  140.3458  155.4285 H   0  0  0  0  0  0  0  0  0  0  0  0  # atno 8009 bound_to 7997
  156.1156  140.1460  156.9266 H   0  0  0  0  0  0  0  0  0  0  0  0  # atno 8010 bound_to 7997
  139.9877  143.5674  152.2354 H   0  0  0  0  0  0  0  0  0  0  0  0  # atno 10167 bound_to 10162
  156.6960  130.5079  149.5930 H   0  0  0  0  0  0  0  0  0  0  0  0  # atno 10718 bound_to 10713
  154.5746  135.5594  153.7127 H   0  0  0  0  0  0  0  0  0  0  0  0  # atno 10763 bound_to 10752
  153.0060  135.6305  154.2067 H   0  0  0  0  0  0  0  0  0  0  0  0  # atno 10764 bound_to 10752
  154.2008  135.2878  155.2971 H   0  0  0  0  0  0  0  0  0  0  0  0  # atno 10765 bound_to 10752
  140.9369  134.1245  157.4185 H   0  0  0  0  0  0  0  0  0  0  0  0  # atno 11005 bound_to 11000
  145.8873  139.2356  143.1570 LP  0  0  0  0  0  0  0  0  0  0  0  0  # atno 17320 bound_to 7965
  145.9937  140.8580  143.0053 LP  0  0  0  0  0  0  0  0  0  0  0  0  # atno 17321 bound_to 7965
  139.6363  144.7650  151.2431 LP  0  0  0  0  0  0  0  0  0  0  0  0  # atno 17342 bound_to 10162
  140.7466  143.6393  150.8350 LP  0  0  0  0  0  0  0  0  0  0  0  0  # atno 17343 bound_to 10162
  156.1763  130.6470  151.0898 LP  0  0  0  0  0  0  0  0  0  0  0  0  # atno 17370 bound_to 10713
  157.6991  131.0783  150.6877 LP  0  0  0  0  0  0  0  0  0  0  0  0  # atno 17371 bound_to 10713
  139.8810  135.0024  156.6123 LP  0  0  0  0  0  0  0  0  0  0  0  0  # atno 17394 bound_to 11000
  140.7787  133.8678  155.8550 LP  0  0  0  0  0  0  0  0  0  0  0  0  # atno 17395 bound_to 11000

$$$$
