AV-unprocessed.smi:967|AV-procd|sdf|4287|dock8
  -GOLD-   22720 2193D 1   1.00000     0.00000
 Structure written by MMmdl.
 42 43  0  0  0  0  0  0  0  0  1 V2000
  148.5252  136.2585  160.1387 C   0  0  0  0  0  0  0  0  0  0  0  0
  149.6631  136.1715  159.2364 N   0  0  0  0  0  0  0  0  0  0  0  0
  150.6708  137.2124  159.3670 C   0  0  0  0  0  0  0  0  0  0  0  0
  149.2933  135.9378  157.9056 C   0  0  0  0  0  0  0  0  0  0  0  0
  149.4690  136.9247  156.9091 C   0  0  0  0  0  0  0  0  0  0  0  0
  149.0800  136.6314  155.5879 C   0  0  0  0  0  0  0  0  0  0  0  0
  148.5339  135.3572  155.3033 C   0  0  0  0  0  0  0  0  0  0  0  0
  148.0829  134.9489  154.0194 N   0  0  0  0  0  0  0  0  0  0  0  0
  147.1576  134.0237  153.7127 C   0  0  0  0  0  0  0  0  0  0  0  0
  146.5027  133.3760  154.5289 O   0  0  0  0  0  0  0  0  0  0  0  0
  147.0183  133.9077  152.3842 N   0  0  0  0  0  0  0  0  0  0  0  0
  146.0888  133.0194  151.6916 C   0  0  2  0  0  0  0  0  0  0  0  0
  146.4483  132.9591  150.1943 C   0  0  0  0  0  0  0  0  0  0  0  0
  145.4358  132.1143  149.4043 C   0  0  0  0  0  0  0  0  0  0  0  0
  144.0032  132.6364  149.6064 C   0  0  1  0  0  0  0  0  0  0  0  0
  143.0947  131.8023  148.9189 O   0  0  0  0  0  0  0  0  0  0  0  0
  143.6361  132.6774  151.0996 C   0  0  0  0  0  0  0  0  0  0  0  0
  144.6458  133.5208  151.8947 C   0  0  0  0  0  0  0  0  0  0  0  0
  148.3897  134.4509  156.3739 C   0  0  0  0  0  0  0  0  0  0  0  0
  148.7625  134.7244  157.6419 N   0  0  0  0  0  0  0  0  0  0  0  0
  147.8365  135.4287  159.9749 H   0  0  0  0  0  0  0  0  0  0  0  0
  147.9810  137.1927  159.9957 H   0  0  0  0  0  0  0  0  0  0  0  0
  148.8628  136.2155  161.1744 H   0  0  0  0  0  0  0  0  0  0  0  0
  151.4799  137.0627  158.6510 H   0  0  0  0  0  0  0  0  0  0  0  0
  151.1011  137.1952  160.3685 H   0  0  0  0  0  0  0  0  0  0  0  0
  150.2382  138.1989  159.1975 H   0  0  0  0  0  0  0  0  0  0  0  0
  149.8894  137.8904  157.1491 H   0  0  0  0  0  0  0  0  0  0  0  0
  149.1937  137.3900  154.8292 H   0  0  0  0  0  0  0  0  0  0  0  0
  148.4730  135.4609  153.2417 H   0  0  0  0  0  0  0  0  0  0  0  0
  147.5993  134.4905  151.7996 H   0  0  0  0  0  0  0  0  0  0  0  0
  146.1573  132.0073  152.0947 H   0  0  0  0  0  0  0  0  0  0  0  0
  146.4761  133.9676  149.7787 H   0  0  0  0  0  0  0  0  0  0  0  0
  147.4495  132.5453  150.0667 H   0  0  0  0  0  0  0  0  0  0  0  0
  145.6935  132.1256  148.3447 H   0  0  0  0  0  0  0  0  0  0  0  0
  145.5018  131.0747  149.7287 H   0  0  0  0  0  0  0  0  0  0  0  0
  143.9213  133.6398  149.1863 H   0  0  0  0  0  0  0  0  0  0  0  0
  142.2627  131.8309  149.3663 H   0  0  0  0  0  0  0  0  0  0  0  0
  142.6332  133.0861  151.2285 H   0  0  0  0  0  0  0  0  0  0  0  0
  143.6136  131.6647  151.5050 H   0  0  0  0  0  0  0  0  0  0  0  0
  144.3885  133.4984  152.9543 H   0  0  0  0  0  0  0  0  0  0  0  0
  144.5689  134.5626  151.5801 H   0  0  0  0  0  0  0  0  0  0  0  0
  147.9657  133.4712  156.2090 H   0  0  0  0  0  0  0  0  0  0  0  0
  1  2  1  0  0  0  0
  1 21  1  0  0  0  0
  1 22  1  0  0  0  0
  1 23  1  0  0  0  0
  2  3  1  0  0  0  0
  2  4  1  0  0  0  0
  3 24  1  0  0  0  0
  3 25  1  0  0  0  0
  3 26  1  0  0  0  0
  4 20  1  0  0  0  0
  4  5  2  0  0  0  0
  5  6  1  0  0  0  0
  5 27  1  0  0  0  0
  6  7  2  0  0  0  0
  6 28  1  0  0  0  0
  7  8  1  0  0  0  0
  7 19  1  0  0  0  0
  8  9  1  0  0  0  0
  8 29  1  0  0  0  0
  9 10  2  0  0  0  0
  9 11  1  0  0  0  0
 11 12  1  0  0  0  0
 11 30  1  0  0  0  0
 12 18  1  0  0  0  0
 12 13  1  0  0  0  0
 12 31  1  0  0  0  0
 13 14  1  0  0  0  0
 13 32  1  0  0  0  0
 13 33  1  0  0  0  0
 14 15  1  0  0  0  0
 14 34  1  0  0  0  0
 14 35  1  0  0  0  0
 15 16  1  0  0  0  0
 15 17  1  0  0  0  0
 15 36  1  0  0  0  0
 16 37  1  0  0  0  0
 17 18  1  0  0  0  0
 17 38  1  0  0  0  0
 17 39  1  0  0  0  0
 18 40  1  0  0  0  0
 18 41  1  0  0  0  0
 19 20  2  0  0  0  0
 19 42  1  0  0  0  0
M  END
> <s_m_source_file>
AV-unprocessed.smi

> <i_m_source_file_index>
967

> <i_lp_mmshare_version>
43012

> <i_f3d_flags>
0

> <s_epik_input>
W0NIM11OKFtDSDNdKWMxW2NIXVtjSF1jKFtjSF1uMSlbTkhdQyg9TylbTkhdW0NAQEhdMltDSDJdW0NIMl1bQ0BASF0oW09IXSlbQ0gyXVtDSDJdMg==

> <s_epik_cmdline>
J2VwaWtfcHl0aG9uJywgJy1waCcsICc3LjAnLCAnLXRuJywgJzgnLCAnLW1hJywgJzIwMCcsICctbWV0YWxfYmluZGluZycsICctaW1hZScsICc8aW5maWxlLm1hZT4nLCAnLW9tYWUnLCAnPG91dGZpbGUubWFlPic=

> <r_lp_tautomer_probability>
1

> <r_epik_Ionization_Penalty>
0.629464

> <r_epik_Ionization_Penalty_Charging>
0

> <r_epik_Ionization_Penalty_Neutral>
0.629464

> <r_epik_State_Penalty>
0.645019

> <r_epik_Charging_Adjusted_Penalty>
0.645019

> <i_epik_Tot_Q>
0

> <i_epik_Tot_abs_Q>
0

> <r_epik_Metal_State_Penalty>
0.308581

> <b_epik_Metal_Only>
0

> <s_lp_Force_Field>
OPLS_2005

> <r_lp_Energy>
16.3049

> <b_lp_Chiralities_Consistent>
1

> <s_lp_Variant>
AV-unprocessed.smi:967-3

> <Gold.Version>
5.8.1

> <Gold.Id.Protein>
6NUR|6NUR_protein|mol2

> <Gold.PLP.Fitness>
42.4798

> <Gold.PLP.PLP>
-30.6851

> <Gold.PLP.part.hbond>
-5.0000

> <Gold.PLP.part.metal>
0.0000

> <Gold.PLP.part.buried>
-4.9605

> <Gold.PLP.part.nonpolar>
-20.3550

> <Gold.PLP.part.repulsive>
0.0714

> <Gold.PLP.ligand.clash>
0.0000

> <Gold.PLP.ligand.torsion>
0.6418

> <Gold.PLP.Chemscore.Hbond>
4.2886

> <Gold.PLP.Chemscore.CHOScore>
0.0000

> <Gold.PLP.Chemscore.Metal>
0.0000

> <Gold.Chemscore.Hbonds>
donor molecule, donor type, donor heavy atom, donor atom, acceptor molecule, acceptor atom, score
      L1  H     8    29       P1  7948  1.00
      L1  H    11    30       P1  7948  0.61
      L1  H    16    37       P1 10952  0.54
      P1  H  6896  6907       L1     2  0.75
      P1  H 10785 10796       L1    16  0.90

> <Gold.PLP.Chemscore.Internal.Correction>
0.2127

> <Gold.Rescore>
     Score         DG    S(hbond)    S(metal)    S(lipo)     H(rot)  DE(clash)    DE(int)     intcor
     16.39     -18.30       2.85        0.00      65.56       1.71       0.00       1.90       ----

> <Gold.Chemscore.Fitness>
16.3933

> <Gold.Chemscore.DG>
-18.2978

> <Gold.Chemscore.ZeroCoef>
-5.4800

> <Gold.Chemscore.Hbond>
2.8507

> <Gold.Chemscore.Metal>
0.0000

> <Gold.Chemscore.Lipo>
65.5557

> <Gold.Chemscore.Internal_Hbond>
0.0000

> <Gold.Chemscore.DEClash>
0.0000

> <Gold.Chemscore.DEInternal>
1.9045

> <Gold.Chemscore.Rot>
1.7084

> <Gold.Chemscore.Internal.Correction>
   9.000000E+99

> <Gold.Chemscore.Hbonds>
donor molecule, donor type, donor heavy atom, donor atom, acceptor molecule, acceptor atom, score
      L1  H     8    29       P1  7948  0.98
      L1  H    11    30       P1  7948  0.21
      L1  H    16    37       P1 10952  0.52
      P1  H  6896  6907       L1     2  0.04
      P1  H 10785 10796       L1    16  0.17

> <Gold.Chemscore.Hbond.Weighted>
-9.5213

> <Gold.Chemscore.Metal.Weighted>
-0.0000

> <Gold.Chemscore.Lipo.Weighted>
-7.6700

> <Gold.Chemscore.Internal_Hbond.Weighted>
0.0000

> <Gold.Chemscore.DEClash.Weighted>
0.0000

> <Gold.Chemscore.DEInternal.Weighted>
1.9045

> <Gold.Chemscore.Rot.Weighted>
4.3735

> <Gold.Chemscore.Internal.Correction.Weighted>
   9.000000E+99

> <Gold.Protein.RotatedTorsions>
[ 6907 6896 6895 6894 ] final  -55.27 input  -60.11 | X-H torsion
[ 7974 7965 7964 7962 ] final  113.38 input  175.53 | X-H torsion
[ 8008 7997 7996 7995 ] final  -62.66 input   59.86 | X-H torsion
[ 10167 10162 10161 10158 ] final  -67.68 input  -65.29 | X-H torsion
[ 10718 10713 10712 10709 ] final -168.16 input   66.30 | X-H torsion
[ 10763 10752 10751 10750 ] final  -50.97 input  -60.55 | X-H torsion
[ 11005 11000 10999 10996 ] final  -67.86 input  -57.11 | X-H torsion

> <Gold.Protein.ActiveResidues>
 VAL166  LYS551  ARG553  GLY616  TRP617  ASP618  TYR619  PRO620  LYS621  CYS622 
 ASP623  PHE694  ASN695  SER759  ASP760  ASP761  ALA762  ILE779  LEU786  VAL792 
 PHE793  MET794  SER795  GLU796  ALA797  LYS798  CYS799  TRP800  GLU811  SER814 

> <Gold.Protein.RotatedAtoms>
  150.8266  134.7499  159.6817 H   0  0  0  0  0  0  0  0  0  0  0  0  # atno 6907 bound_to 6896
  152.4376  134.5652  159.9915 H   0  0  0  0  0  0  0  0  0  0  0  0  # atno 6908 bound_to 6896
  151.5823  133.3338  159.3047 H   0  0  0  0  0  0  0  0  0  0  0  0  # atno 6909 bound_to 6896
  145.2176  139.2877  143.4235 H   0  0  0  0  0  0  0  0  0  0  0  0  # atno 7974 bound_to 7965
  154.4512  140.0991  156.6622 H   0  0  0  0  0  0  0  0  0  0  0  0  # atno 8008 bound_to 7997
  155.5281  140.3480  155.4402 H   0  0  0  0  0  0  0  0  0  0  0  0  # atno 8009 bound_to 7997
  156.0684  140.1343  156.9848 H   0  0  0  0  0  0  0  0  0  0  0  0  # atno 8010 bound_to 7997
  140.5564  143.2312  151.6812 H   0  0  0  0  0  0  0  0  0  0  0  0  # atno 10167 bound_to 10162
  156.6929  130.9166  151.3071 H   0  0  0  0  0  0  0  0  0  0  0  0  # atno 10718 bound_to 10713
  154.1190  135.6537  153.4899 H   0  0  0  0  0  0  0  0  0  0  0  0  # atno 10763 bound_to 10752
  153.0231  135.5266  154.7116 H   0  0  0  0  0  0  0  0  0  0  0  0  # atno 10764 bound_to 10752
  154.6318  135.2977  155.0178 H   0  0  0  0  0  0  0  0  0  0  0  0  # atno 10765 bound_to 10752
  141.1518  133.6728  156.6357 H   0  0  0  0  0  0  0  0  0  0  0  0  # atno 11005 bound_to 11000
  146.3383  140.2472  142.8597 LP  0  0  0  0  0  0  0  0  0  0  0  0  # atno 17320 bound_to 7965
  144.9796  140.8446  143.5405 LP  0  0  0  0  0  0  0  0  0  0  0  0  # atno 17321 bound_to 7965
  139.5050  144.3734  152.0448 LP  0  0  0  0  0  0  0  0  0  0  0  0  # atno 17342 bound_to 10162
  140.2856  144.3811  150.6105 LP  0  0  0  0  0  0  0  0  0  0  0  0  # atno 17343 bound_to 10162
  157.7002  130.9325  150.0763 LP  0  0  0  0  0  0  0  0  0  0  0  0  # atno 17370 bound_to 10713
  156.1784  130.3649  149.9068 LP  0  0  0  0  0  0  0  0  0  0  0  0  # atno 17371 bound_to 10713
  140.3432  134.7831  157.4413 LP  0  0  0  0  0  0  0  0  0  0  0  0  # atno 17394 bound_to 11000
  140.0921  134.5587  155.8434 LP  0  0  0  0  0  0  0  0  0  0  0  0  # atno 17395 bound_to 11000

$$$$
