AV-unprocessed.smi:527|AV-procd|sdf|2820|dock8
  -GOLD-   2262023303D 1   1.00000     0.00000
 Structure written by MMmdl.
 42 43  0  0  0  0  0  0  0  0  1 V2000
  150.7957  145.1129  159.5251 C   0  0  0  0  0  0  0  0  0  0  0  0
  151.8535  144.0038  159.3738 C   0  0  1  0  0  0  0  0  0  0  0  0
  152.4099  143.6318  160.7629 C   0  0  0  0  0  0  0  0  0  0  0  0
  153.4939  142.5526  160.6732 C   0  0  0  0  0  0  0  0  0  0  0  0
  152.9519  141.3011  159.9771 C   0  0  0  0  0  0  0  0  0  0  0  0
  152.4019  141.6321  158.5760 C   0  0  1  0  0  0  0  0  0  0  0  0
  151.8600  140.4168  157.9691 N   0  0  0  0  0  0  0  0  0  0  0  0
  152.5705  139.3278  157.6402 C   0  0  0  0  0  0  0  0  0  0  0  0
  153.7016  139.1003  158.0750 O   0  0  0  0  0  0  0  0  0  0  0  0
  151.8840  138.5441  156.7860 N   0  0  0  0  0  0  0  0  0  0  0  0
  152.2796  137.3744  156.2432 C   0  0  0  0  0  0  0  0  0  0  0  0
  153.3628  136.8259  156.4629 O   0  0  0  0  0  0  0  0  0  0  0  0
  151.2626  136.7355  155.2877 C   0  0  0  0  0  0  0  0  0  0  0  0
  149.9539  136.5467  155.8906 N   0  0  0  0  0  0  0  0  0  0  0  0
  148.7467  137.0850  155.4622 C   0  0  0  0  0  0  0  0  0  0  0  0
  147.7827  136.6303  156.3335 C   0  0  0  0  0  0  0  0  0  0  0  0
  148.3699  135.8178  157.3005 N   0  0  0  0  0  0  0  0  0  0  0  0
  149.6553  135.8134  156.9722 C   0  0  0  0  0  0  0  0  0  0  0  0
  151.3212  142.7467  158.6274 C   0  0  2  0  0  0  0  0  0  0  0  0
  150.8122  143.0892  157.2097 C   0  0  0  0  0  0  0  0  0  0  0  0
  149.9008  144.7434  160.0266 H   0  0  0  0  0  0  0  0  0  0  0  0
  150.4964  145.5259  158.5625 H   0  0  0  0  0  0  0  0  0  0  0  0
  151.1836  145.9443  160.1141 H   0  0  0  0  0  0  0  0  0  0  0  0
  152.6781  144.4172  158.7909 H   0  0  0  0  0  0  0  0  0  0  0  0
  152.8244  144.5161  161.2483 H   0  0  0  0  0  0  0  0  0  0  0  0
  151.5998  143.2811  161.4040 H   0  0  0  0  0  0  0  0  0  0  0  0
  154.3549  142.9374  160.1252 H   0  0  0  0  0  0  0  0  0  0  0  0
  153.8496  142.2975  161.6718 H   0  0  0  0  0  0  0  0  0  0  0  0
  153.7454  140.5561  159.9054 H   0  0  0  0  0  0  0  0  0  0  0  0
  152.1656  140.8565  160.5890 H   0  0  0  0  0  0  0  0  0  0  0  0
  153.2265  141.9969  157.9598 H   0  0  0  0  0  0  0  0  0  0  0  0
  150.8698  140.4149  157.7727 H   0  0  0  0  0  0  0  0  0  0  0  0
  150.9685  138.8722  156.5165 H   0  0  0  0  0  0  0  0  0  0  0  0
  151.1513  137.3608  154.4006 H   0  0  0  0  0  0  0  0  0  0  0  0
  151.6368  135.7664  154.9554 H   0  0  0  0  0  0  0  0  0  0  0  0
  148.6747  137.7251  154.5951 H   0  0  0  0  0  0  0  0  0  0  0  0
  146.7200  136.8225  156.3380 H   0  0  0  0  0  0  0  0  0  0  0  0
  150.3973  135.2626  157.5317 H   0  0  0  0  0  0  0  0  0  0  0  0
  150.4729  142.3601  159.1948 H   0  0  0  0  0  0  0  0  0  0  0  0
  151.6041  143.5278  156.6019 H   0  0  0  0  0  0  0  0  0  0  0  0
  149.9813  143.7929  157.2350 H   0  0  0  0  0  0  0  0  0  0  0  0
  150.4452  142.2079  156.6843 H   0  0  0  0  0  0  0  0  0  0  0  0
  1  2  1  0  0  0  0
  1 21  1  0  0  0  0
  1 22  1  0  0  0  0
  1 23  1  0  0  0  0
  2 19  1  0  0  0  0
  2  3  1  0  0  0  0
  2 24  1  0  0  0  0
  3  4  1  0  0  0  0
  3 25  1  0  0  0  0
  3 26  1  0  0  0  0
  4  5  1  0  0  0  0
  4 27  1  0  0  0  0
  4 28  1  0  0  0  0
  5  6  1  0  0  0  0
  5 29  1  0  0  0  0
  5 30  1  0  0  0  0
  6  7  1  0  0  0  0
  6 19  1  0  0  0  0
  6 31  1  0  0  0  0
  7  8  1  0  0  0  0
  7 32  1  0  0  0  0
  8  9  2  0  0  0  0
  8 10  1  0  0  0  0
 10 11  1  0  0  0  0
 10 33  1  0  0  0  0
 11 12  2  0  0  0  0
 11 13  1  0  0  0  0
 13 14  1  0  0  0  0
 13 34  1  0  0  0  0
 13 35  1  0  0  0  0
 14 18  1  0  0  0  0
 14 15  1  0  0  0  0
 15 16  2  0  0  0  0
 15 36  1  0  0  0  0
 16 17  1  0  0  0  0
 16 37  1  0  0  0  0
 17 18  2  0  0  0  0
 18 38  1  0  0  0  0
 19 20  1  0  0  0  0
 19 39  1  0  0  0  0
 20 40  1  0  0  0  0
 20 41  1  0  0  0  0
 20 42  1  0  0  0  0
M  END
> <s_m_source_file>
AV-unprocessed.smi

> <i_m_source_file_index>
527

> <i_lp_mmshare_version>
43012

> <i_f3d_flags>
0

> <s_epik_input>
W0NIM11bQ0BASF0xW0NIMl1bQ0gyXVtDSDJdW0NASF0oW0NASF0xW0NIM10pW05IXUMoPU8pW05IXUMoPU8pW0NIMl1uMltjSF1bY0hdbltjSF0y

> <s_epik_cmdline>
J2VwaWtfcHl0aG9uJywgJy1waCcsICc3LjAnLCAnLXRuJywgJzgnLCAnLW1hJywgJzIwMCcsICctbWV0YWxfYmluZGluZycsICctaW1hZScsICc8aW5maWxlLm1hZT4nLCAnLW9tYWUnLCAnPG91dGZpbGUubWFlPic=

> <r_lp_tautomer_probability>
1

> <r_epik_Ionization_Penalty>
0.172132

> <r_epik_Ionization_Penalty_Charging>
0.172105

> <r_epik_Ionization_Penalty_Neutral>
2.71747e-05

> <r_epik_State_Penalty>
0.161503

> <r_epik_Charging_Adjusted_Penalty>
0.333607

> <i_epik_Tot_Q>
0

> <i_epik_Tot_abs_Q>
0

> <r_epik_Metal_State_Penalty>
0.124763

> <b_epik_Metal_Only>
0

> <s_lp_Force_Field>
OPLS_2005

> <r_lp_Energy>
15.9673

> <b_lp_Chiralities_Consistent>
1

> <s_lp_Variant>
AV-unprocessed.smi:527-6

> <Gold.Version>
5.8.1

> <Gold.Id.Protein>
6NUR|6NUR_protein|mol2

> <Gold.PLP.Fitness>
48.0433

> <Gold.PLP.PLP>
-41.3917

> <Gold.PLP.part.hbond>
-2.0000

> <Gold.PLP.part.metal>
0.0000

> <Gold.PLP.part.buried>
-4.2671

> <Gold.PLP.part.nonpolar>
-35.5077

> <Gold.PLP.part.repulsive>
0.2578

> <Gold.PLP.ligand.clash>
0.0000

> <Gold.PLP.ligand.torsion>
0.1296

> <Gold.PLP.Chemscore.Hbond>
1.3063

> <Gold.PLP.Chemscore.CHOScore>
0.9901

> <Gold.PLP.Chemscore.Metal>
0.0000

> <Gold.Chemscore.Hbonds>
donor molecule, donor type, donor heavy atom, donor atom, acceptor molecule, acceptor atom, score
      P1  H  7997  8008       L1     9  1.00
      P1  H 10752 10765       L1    12  0.25

> <Gold.PLP.Chemscore.Internal.Correction>
0.0216

> <Gold.Rescore>
     Score         DG    S(hbond)    S(metal)    S(lipo)     H(rot)  DE(clash)    DE(int)     intcor
     17.05     -18.99       1.57        0.00     106.91       1.66       0.08       1.86       ----

> <Gold.Chemscore.Fitness>
17.0498

> <Gold.Chemscore.DG>
-18.9900

> <Gold.Chemscore.ZeroCoef>
-5.4800

> <Gold.Chemscore.Hbond>
1.5742

> <Gold.Chemscore.Metal>
0.0000

> <Gold.Chemscore.Lipo>
106.9150

> <Gold.Chemscore.Internal_Hbond>
0.0000

> <Gold.Chemscore.DEClash>
0.0758

> <Gold.Chemscore.DEInternal>
1.8643

> <Gold.Chemscore.Rot>
1.6629

> <Gold.Chemscore.Internal.Correction>
   9.000000E+99

> <Gold.Chemscore.Hbonds>
donor molecule, donor type, donor heavy atom, donor atom, acceptor molecule, acceptor atom, score
      P1  H  7997  8008       L1     9  0.50
      P1  H 10752 10765       L1    12  0.02

> <Gold.Chemscore.Hbond.Weighted>
-5.2578

> <Gold.Chemscore.Metal.Weighted>
-0.0000

> <Gold.Chemscore.Lipo.Weighted>
-12.5091

> <Gold.Chemscore.Internal_Hbond.Weighted>
0.0000

> <Gold.Chemscore.DEClash.Weighted>
0.0758

> <Gold.Chemscore.DEInternal.Weighted>
1.8643

> <Gold.Chemscore.Rot.Weighted>
4.2569

> <Gold.Chemscore.Internal.Correction.Weighted>
   9.000000E+99

> <Gold.Protein.RotatedTorsions>
[ 6907 6896 6895 6894 ] final  -79.00 input  -60.11 | X-H torsion
[ 7974 7965 7964 7962 ] final   44.09 input  175.53 | X-H torsion
[ 8008 7997 7996 7995 ] final  -95.17 input   59.86 | X-H torsion
[ 10167 10162 10161 10158 ] final  107.87 input  -65.29 | X-H torsion
[ 10718 10713 10712 10709 ] final  -71.87 input   66.30 | X-H torsion
[ 10763 10752 10751 10750 ] final -159.77 input  -60.55 | X-H torsion
[ 11005 11000 10999 10996 ] final  161.69 input  -57.11 | X-H torsion

> <Gold.Protein.ActiveResidues>
 VAL166  LYS551  ARG553  GLY616  TRP617  ASP618  TYR619  PRO620  LYS621  CYS622 
 ASP623  PHE694  ASN695  SER759  ASP760  ASP761  ALA762  ILE779  LEU786  VAL792 
 PHE793  MET794  SER795  GLU796  ALA797  LYS798  CYS799  TRP800  GLU811  SER814 

> <Gold.Protein.RotatedAtoms>
  150.6959  134.4187  159.5194 H   0  0  0  0  0  0  0  0  0  0  0  0  # atno 6907 bound_to 6896
  152.1934  134.8649  160.0524 H   0  0  0  0  0  0  0  0  0  0  0  0  # atno 6908 bound_to 6896
  151.9596  133.3656  159.4067 H   0  0  0  0  0  0  0  0  0  0  0  0  # atno 6909 bound_to 6896
  146.0599  139.5113  142.9665 H   0  0  0  0  0  0  0  0  0  0  0  0  # atno 7974 bound_to 7965
  154.7578  140.0482  157.0948 H   0  0  0  0  0  0  0  0  0  0  0  0  # atno 8008 bound_to 7997
  154.9975  140.3120  155.4861 H   0  0  0  0  0  0  0  0  0  0  0  0  # atno 8009 bound_to 7997
  156.2898  140.2207  156.5083 H   0  0  0  0  0  0  0  0  0  0  0  0  # atno 8010 bound_to 7997
  139.6892  144.7110  151.1379 H   0  0  0  0  0  0  0  0  0  0  0  0  # atno 10167 bound_to 10162
  156.0344  130.4360  150.2509 H   0  0  0  0  0  0  0  0  0  0  0  0  # atno 10718 bound_to 10713
  154.7446  135.3077  154.8667 H   0  0  0  0  0  0  0  0  0  0  0  0  # atno 10763 bound_to 10752
  153.9471  135.6768  153.4748 H   0  0  0  0  0  0  0  0  0  0  0  0  # atno 10764 bound_to 10752
  153.1043  135.4896  154.8850 H   0  0  0  0  0  0  0  0  0  0  0  0  # atno 10765 bound_to 10752
  140.2183  134.8215  157.3193 H   0  0  0  0  0  0  0  0  0  0  0  0  # atno 11005 bound_to 11000
  145.6579  141.0247  143.1725 LP  0  0  0  0  0  0  0  0  0  0  0  0  # atno 17320 bound_to 7965
  144.7169  139.8166  143.7395 LP  0  0  0  0  0  0  0  0  0  0  0  0  # atno 17321 bound_to 7965
  140.7677  143.5585  150.9125 LP  0  0  0  0  0  0  0  0  0  0  0  0  # atno 17342 bound_to 10162
  139.9261  143.6548  152.3086 LP  0  0  0  0  0  0  0  0  0  0  0  0  # atno 17343 bound_to 10162
  157.0609  131.0089  151.3223 LP  0  0  0  0  0  0  0  0  0  0  0  0  # atno 17370 bound_to 10713
  157.5071  130.7915  149.7665 LP  0  0  0  0  0  0  0  0  0  0  0  0  # atno 17371 bound_to 10713
  140.1877  134.4410  155.7734 LP  0  0  0  0  0  0  0  0  0  0  0  0  # atno 17394 bound_to 11000
  141.2224  133.7012  156.7975 LP  0  0  0  0  0  0  0  0  0  0  0  0  # atno 17395 bound_to 11000

$$$$
