AV-unprocessed.smi:1029|AV-procd|sdf|4476|dock5
  -GOLD-   22720 2453D 1   1.00000     0.00000
 Structure written by MMmdl.
 46 47  0  0  0  0  0  0  0  0  2 V2000
  151.8535  140.6815  157.9990 C   0  0  0  0  0  0  0  0  0  0  0  0
  151.5282  140.1378  156.6390 C   0  0  0  0  0  0  0  0  0  0  0  0
  150.2727  139.6829  156.1487 C   0  0  0  0  0  0  0  0  0  0  0  0
  150.5662  139.3064  154.8649 C   0  0  0  0  0  0  0  0  0  0  0  0
  149.7311  138.7957  153.9221 N   0  0  0  0  0  0  0  0  0  0  0  0
  148.4879  139.1903  153.5947 C   0  0  0  0  0  0  0  0  0  0  0  0
  147.8594  140.1007  154.1350 O   0  0  0  0  0  0  0  0  0  0  0  0
  147.9957  138.4636  152.5825 N   0  0  0  0  0  0  0  0  0  0  0  0
  146.6867  138.6849  151.9806 C   0  0  0  0  0  0  0  0  0  0  0  0
  145.5632  138.1147  152.8633 C   0  0  2  0  0  0  0  0  0  0  0  0
  145.3028  139.0412  153.9004 O   0  0  0  0  0  0  0  0  0  0  0  0
  145.9811  136.7815  153.5168 C   0  0  0  0  0  0  0  0  0  0  0  0
  146.0926  135.6756  152.5310 N   0  3  2  0  0  0  0  0  0  0  0  0
  144.9750  135.6735  151.5525 C   0  0  0  0  0  0  0  0  0  0  0  0
  145.1988  134.6176  150.4547 C   0  0  0  0  0  0  0  0  0  0  0  0
  145.4116  133.2079  151.0354 C   0  0  2  0  0  0  0  0  0  0  0  0
  144.1092  132.5780  151.5593 C   0  0  0  0  0  0  0  0  0  0  0  0
  146.5226  133.2549  152.1007 C   0  0  0  0  0  0  0  0  0  0  0  0
  146.2691  134.3410  153.1620 C   0  0  0  0  0  0  0  0  0  0  0  0
  151.8767  139.5047  154.5829 O   0  0  0  0  0  0  0  0  0  0  0  0
  152.4838  140.0370  155.7267 N   0  0  0  0  0  0  0  0  0  0  0  0
  150.9487  140.9759  158.5315 H   0  0  0  0  0  0  0  0  0  0  0  0
  152.4965  141.5595  157.9318 H   0  0  0  0  0  0  0  0  0  0  0  0
  152.3682  139.9355  158.6049 H   0  0  0  0  0  0  0  0  0  0  0  0
  149.3276  139.6490  156.6693 H   0  0  0  0  0  0  0  0  0  0  0  0
  150.1098  138.0288  153.3863 H   0  0  0  0  0  0  0  0  0  0  0  0
  148.5694  137.7333  152.1864 H   0  0  0  0  0  0  0  0  0  0  0  0
  146.5521  139.7616  151.8660 H   0  0  0  0  0  0  0  0  0  0  0  0
  146.6491  138.2530  150.9785 H   0  0  0  0  0  0  0  0  0  0  0  0
  144.6616  137.9818  152.2651 H   0  0  0  0  0  0  0  0  0  0  0  0
  144.6435  139.6508  153.6044 H   0  0  0  0  0  0  0  0  0  0  0  0
  146.9316  136.8903  154.0420 H   0  0  0  0  0  0  0  0  0  0  0  0
  145.2444  136.5268  154.2807 H   0  0  0  0  0  0  0  0  0  0  0  0
  144.0319  135.4969  152.0714 H   0  0  0  0  0  0  0  0  0  0  0  0
  144.8964  136.6554  151.0842 H   0  0  0  0  0  0  0  0  0  0  0  0
  144.3601  134.6172  149.7576 H   0  0  0  0  0  0  0  0  0  0  0  0
  146.0761  134.8979  149.8699 H   0  0  0  0  0  0  0  0  0  0  0  0
  145.7593  132.5663  150.2246 H   0  0  0  0  0  0  0  0  0  0  0  0
  143.6738  133.1507  152.3778 H   0  0  0  0  0  0  0  0  0  0  0  0
  144.2842  131.5648  151.9224 H   0  0  0  0  0  0  0  0  0  0  0  0
  143.3612  132.5149  150.7684 H   0  0  0  0  0  0  0  0  0  0  0  0
  146.6275  132.2803  152.5788 H   0  0  0  0  0  0  0  0  0  0  0  0
  147.4774  133.4555  151.6122 H   0  0  0  0  0  0  0  0  0  0  0  0
  147.1106  134.3593  153.8537 H   0  0  0  0  0  0  0  0  0  0  0  0
  145.3863  134.0960  153.7542 H   0  0  0  0  0  0  0  0  0  0  0  0
  146.9295  135.8618  151.9965 H   0  0  0  0  0  0  0  0  0  0  0  0
  1  2  1  0  0  0  0
  1 22  1  0  0  0  0
  1 23  1  0  0  0  0
  1 24  1  0  0  0  0
  2 21  2  0  0  0  0
  2  3  1  0  0  0  0
  3  4  2  0  0  0  0
  3 25  1  0  0  0  0
  4  5  1  0  0  0  0
  4 20  1  0  0  0  0
  5  6  1  0  0  0  0
  5 26  1  0  0  0  0
  6  7  2  0  0  0  0
  6  8  1  0  0  0  0
  8  9  1  0  0  0  0
  8 27  1  0  0  0  0
  9 10  1  0  0  0  0
  9 28  1  0  0  0  0
  9 29  1  0  0  0  0
 10 11  1  0  0  0  0
 10 12  1  0  0  0  0
 10 30  1  0  0  0  0
 11 31  1  0  0  0  0
 12 13  1  0  0  0  0
 12 32  1  0  0  0  0
 12 33  1  0  0  0  0
 13 19  1  0  0  0  0
 13 14  1  0  0  0  0
 13 46  1  0  0  0  0
 14 15  1  0  0  0  0
 14 34  1  0  0  0  0
 14 35  1  0  0  0  0
 15 16  1  0  0  0  0
 15 36  1  0  0  0  0
 15 37  1  0  0  0  0
 16 17  1  0  0  0  0
 16 18  1  0  0  0  0
 16 38  1  0  0  0  0
 17 39  1  0  0  0  0
 17 40  1  0  0  0  0
 17 41  1  0  0  0  0
 18 19  1  0  0  0  0
 18 42  1  0  0  0  0
 18 43  1  0  0  0  0
 19 44  1  0  0  0  0
 19 45  1  0  0  0  0
 20 21  1  0  0  0  0
M  CHG  1  13   1
M  END
> <s_m_source_file>
AV-unprocessed.smi

> <i_m_source_file_index>
1029

> <i_lp_mmshare_version>
43012

> <i_f3d_flags>
0

> <s_epik_input>
W0NIM11jMVtjSF1jKG9uMSlbTkhdQyg9TylbTkhdW0NIMl1bQ0BIXShbT0hdKVtDSDJdTjJbQ0gyXVtDSDJdW0NIXShbQ0gzXSlbQ0gyXVtDSDJdMg==

> <s_epik_cmdline>
J2VwaWtfcHl0aG9uJywgJy1waCcsICc3LjAnLCAnLXRuJywgJzgnLCAnLW1hJywgJzIwMCcsICctbWV0YWxfYmluZGluZycsICctaW1hZScsICc8aW5maWxlLm1hZT4nLCAnLW9tYWUnLCAnPG91dGZpbGUubWFlPic=

> <r_lp_tautomer_probability>
1

> <r_epik_Ionization_Penalty>
0.00211787

> <r_epik_Ionization_Penalty_Charging>
0.00153238

> <r_epik_Ionization_Penalty_Neutral>
0.000585488

> <r_epik_State_Penalty>
-0

> <r_epik_Charging_Adjusted_Penalty>
0.00153238

> <i_epik_Tot_Q>
1

> <i_epik_Tot_abs_Q>
1

> <r_epik_Metal_State_Penalty>
-0

> <b_epik_Metal_Only>
0

> <s_lp_Force_Field>
OPLS_2005

> <r_lp_Energy>
23.9078

> <b_lp_Chiralities_Consistent>
1

> <s_lp_Variant>
AV-unprocessed.smi:1029-3

> <Gold.Version>
5.8.1

> <Gold.Id.Protein>
6NUR|6NUR_protein|mol2

> <Gold.PLP.Fitness>
49.2586

> <Gold.PLP.PLP>
-32.8571

> <Gold.PLP.part.hbond>
-6.5985

> <Gold.PLP.part.metal>
0.0000

> <Gold.PLP.part.buried>
-1.0542

> <Gold.PLP.part.nonpolar>
-25.7264

> <Gold.PLP.part.repulsive>
0.3047

> <Gold.PLP.ligand.clash>
0.0000

> <Gold.PLP.ligand.torsion>
0.8203

> <Gold.PLP.Chemscore.Hbond>
5.9920

> <Gold.PLP.Chemscore.CHOScore>
0.0000

> <Gold.PLP.Chemscore.Metal>
0.0000

> <Gold.Chemscore.Hbonds>
donor molecule, donor type, donor heavy atom, donor atom, acceptor molecule, acceptor atom, score
      L1  H     8    27       P1  7948  1.00
      L1  H    11    31       P1 10175  1.00
      L1  H    13    46       P1  7948  1.98
      P1  H  7989  7998       L1    20  0.83
      P1  H  7997  8010       L1    21  1.00

> <Gold.PLP.Chemscore.Internal.Correction>
0.0661

> <Gold.Rescore>
     Score         DG    S(hbond)    S(metal)    S(lipo)     H(rot)  DE(clash)    DE(int)     intcor
     18.05     -20.55       4.01        0.00      68.05       2.46       1.61       0.89       ----

> <Gold.Chemscore.Fitness>
18.0476

> <Gold.Chemscore.DG>
-20.5480

> <Gold.Chemscore.ZeroCoef>
-5.4800

> <Gold.Chemscore.Hbond>
4.0149

> <Gold.Chemscore.Metal>
0.0000

> <Gold.Chemscore.Lipo>
68.0498

> <Gold.Chemscore.Internal_Hbond>
0.0000

> <Gold.Chemscore.DEClash>
1.6076

> <Gold.Chemscore.DEInternal>
0.8929

> <Gold.Chemscore.Rot>
2.4624

> <Gold.Chemscore.Internal.Correction>
   9.000000E+99

> <Gold.Chemscore.Hbonds>
donor molecule, donor type, donor heavy atom, donor atom, acceptor molecule, acceptor atom, score
      L1  H     8    27       P1  7948  0.94
      L1  H    11    31       P1 10175  0.99
      L1  H    13    46       P1  7948  0.90
      P1  H  7989  7998       L1    20  0.08
      P1  H  7997  8010       L1    21  0.97

> <Gold.Chemscore.Hbond.Weighted>
-13.4099

> <Gold.Chemscore.Metal.Weighted>
-0.0000

> <Gold.Chemscore.Lipo.Weighted>
-7.9618

> <Gold.Chemscore.Internal_Hbond.Weighted>
0.0000

> <Gold.Chemscore.DEClash.Weighted>
1.6076

> <Gold.Chemscore.DEInternal.Weighted>
0.8929

> <Gold.Chemscore.Rot.Weighted>
6.3037

> <Gold.Chemscore.Internal.Correction.Weighted>
   9.000000E+99

> <Gold.Protein.RotatedTorsions>
[ 6907 6896 6895 6894 ] final -171.22 input  -60.11 | X-H torsion
[ 7974 7965 7964 7962 ] final  -54.50 input  175.53 | X-H torsion
[ 8008 7997 7996 7995 ] final   82.63 input   59.86 | X-H torsion
[ 10167 10162 10161 10158 ] final  -96.38 input  -65.29 | X-H torsion
[ 10718 10713 10712 10709 ] final   -5.86 input   66.30 | X-H torsion
[ 10763 10752 10751 10750 ] final   51.69 input  -60.55 | X-H torsion
[ 11005 11000 10999 10996 ] final   58.83 input  -57.11 | X-H torsion

> <Gold.Protein.ActiveResidues>
 VAL166  LYS551  ARG553  GLY616  TRP617  ASP618  TYR619  PRO620  LYS621  CYS622 
 ASP623  PHE694  ASN695  SER759  ASP760  ASP761  ALA762  ILE779  LEU786  VAL792 
 PHE793  MET794  SER795  GLU796  ALA797  LYS798  CYS799  TRP800  GLU811  SER814 

> <Gold.Protein.RotatedAtoms>
  151.5203  133.3468  159.2899 H   0  0  0  0  0  0  0  0  0  0  0  0  # atno 6907 bound_to 6896
  150.8656  134.8021  159.7127 H   0  0  0  0  0  0  0  0  0  0  0  0  # atno 6908 bound_to 6896
  152.4662  134.5079  159.9796 H   0  0  0  0  0  0  0  0  0  0  0  0  # atno 6909 bound_to 6896
  145.8849  140.8116  142.9821 H   0  0  0  0  0  0  0  0  0  0  0  0  # atno 7974 bound_to 7965
  155.9132  140.3426  155.6115 H   0  0  0  0  0  0  0  0  0  0  0  0  # atno 8008 bound_to 7997
  155.7363  140.0802  157.2285 H   0  0  0  0  0  0  0  0  0  0  0  0  # atno 8009 bound_to 7997
  154.4058  140.1579  156.2552 H   0  0  0  0  0  0  0  0  0  0  0  0  # atno 8010 bound_to 7997
  140.2944  143.3201  152.0312 H   0  0  0  0  0  0  0  0  0  0  0  0  # atno 10167 bound_to 10162
  156.7404  130.5208  149.5825 H   0  0  0  0  0  0  0  0  0  0  0  0  # atno 10718 bound_to 10713
  152.9786  135.5837  154.4456 H   0  0  0  0  0  0  0  0  0  0  0  0  # atno 10763 bound_to 10752
  154.4052  135.2769  155.2073 H   0  0  0  0  0  0  0  0  0  0  0  0  # atno 10764 bound_to 10752
  154.3887  135.6130  153.5885 H   0  0  0  0  0  0  0  0  0  0  0  0  # atno 10765 bound_to 10752
  140.0349  134.5958  155.9458 H   0  0  0  0  0  0  0  0  0  0  0  0  # atno 11005 bound_to 11000
  144.6728  140.1440  143.7435 LP  0  0  0  0  0  0  0  0  0  0  0  0  # atno 17320 bound_to 7965
  145.8979  139.2413  143.1511 LP  0  0  0  0  0  0  0  0  0  0  0  0  # atno 17321 bound_to 7965
  139.4930  144.6501  151.6693 LP  0  0  0  0  0  0  0  0  0  0  0  0  # atno 17342 bound_to 10162
  140.5704  144.0118  150.6214 LP  0  0  0  0  0  0  0  0  0  0  0  0  # atno 17343 bound_to 10162
  156.1468  130.6283  151.0542 LP  0  0  0  0  0  0  0  0  0  0  0  0  # atno 17370 bound_to 10713
  157.6821  131.0835  150.7342 LP  0  0  0  0  0  0  0  0  0  0  0  0  # atno 17371 bound_to 10713
  141.1851  133.6554  156.5186 LP  0  0  0  0  0  0  0  0  0  0  0  0  # atno 17394 bound_to 11000
  140.4165  134.7226  157.4865 LP  0  0  0  0  0  0  0  0  0  0  0  0  # atno 17395 bound_to 11000

$$$$
