AV-unprocessed.smi:2908|AV-procd|sdf|11168|dock6
  -GOLD-   2272016 53D 1   1.00000     0.00000
 Structure written by MMmdl.
 43 44  0  0  0  0  0  0  0  0  1 V2000
  151.4809  137.1986  159.7955 O   0  0  0  0  0  0  0  0  0  0  0  0
  151.2388  137.7312  158.7116 C   0  0  0  0  0  0  0  0  0  0  0  0
  150.1987  137.3597  157.9492 N   0  0  0  0  0  0  0  0  0  0  0  0
  149.1506  136.4253  158.3419 C   0  0  0  0  0  0  0  0  0  0  0  0
  148.0748  137.1146  159.2015 C   0  0  0  0  0  0  0  0  0  0  0  0
  147.8100  136.4076  160.5219 C   0  0  0  0  0  0  0  0  0  0  0  0
  147.7824  134.9986  160.5875 C   0  0  0  0  0  0  0  0  0  0  0  0
  147.5716  134.3888  161.8394 C   0  0  0  0  0  0  0  0  0  0  0  0
  147.3966  135.2070  162.9720 C   0  0  0  0  0  0  0  0  0  0  0  0
  147.4386  136.6048  162.8014 C   0  0  0  0  0  0  0  0  0  0  0  0
  147.6442  137.1994  161.6066 N   0  0  0  0  0  0  0  0  0  0  0  0
  151.9856  138.7382  158.1917 N   0  0  0  0  0  0  0  0  0  0  0  0
  151.7645  139.4015  156.8968 C   0  0  0  0  0  0  0  0  0  0  0  0
  151.0358  140.7312  157.1557 C   0  0  0  0  0  0  0  0  0  0  0  0
  151.8352  141.6376  158.1249 C   0  0  0  0  0  0  0  0  0  0  0  0
  151.0686  142.9518  158.4278 C   0  0  1  0  0  0  0  0  0  0  0  0
  149.9285  142.6813  159.2221 O   0  0  0  0  0  0  0  0  0  0  0  0
  151.9020  144.0709  159.0909 C   0  0  0  0  0  0  0  0  0  0  0  0
  151.1500  145.1630  159.2301 F   0  0  0  0  0  0  0  0  0  0  0  0
  152.3670  143.7097  160.2867 F   0  0  0  0  0  0  0  0  0  0  0  0
  152.9342  144.3846  158.3079 F   0  0  0  0  0  0  0  0  0  0  0  0
  152.2844  140.8497  159.3837 C   0  0  0  0  0  0  0  0  0  0  0  0
  152.9318  139.5022  159.0107 C   0  0  0  0  0  0  0  0  0  0  0  0
  150.0735  137.8332  157.0661 H   0  0  0  0  0  0  0  0  0  0  0  0
  148.7016  135.9857  157.4510 H   0  0  0  0  0  0  0  0  0  0  0  0
  149.5865  135.6057  158.9159 H   0  0  0  0  0  0  0  0  0  0  0  0
  148.3777  138.1425  159.4074 H   0  0  0  0  0  0  0  0  0  0  0  0
  147.1425  137.1829  158.6396 H   0  0  0  0  0  0  0  0  0  0  0  0
  147.9284  134.3985  159.7013 H   0  0  0  0  0  0  0  0  0  0  0  0
  147.5474  133.3130  161.9298 H   0  0  0  0  0  0  0  0  0  0  0  0
  147.2337  134.7746  163.9480 H   0  0  0  0  0  0  0  0  0  0  0  0
  147.3100  137.2633  163.6476 H   0  0  0  0  0  0  0  0  0  0  0  0
  152.7259  139.5910  156.4172 H   0  0  0  0  0  0  0  0  0  0  0  0
  151.2039  138.7992  156.1820 H   0  0  0  0  0  0  0  0  0  0  0  0
  150.8687  141.2482  156.2103 H   0  0  0  0  0  0  0  0  0  0  0  0
  150.0489  140.5191  157.5692 H   0  0  0  0  0  0  0  0  0  0  0  0
  152.7458  141.9152  157.5924 H   0  0  0  0  0  0  0  0  0  0  0  0
  150.7023  143.3452  157.4785 H   0  0  0  0  0  0  0  0  0  0  0  0
  149.1789  143.0931  158.8205 H   0  0  0  0  0  0  0  0  0  0  0  0
  153.0008  141.4307  159.9630 H   0  0  0  0  0  0  0  0  0  0  0  0
  151.4309  140.6665  160.0378 H   0  0  0  0  0  0  0  0  0  0  0  0
  153.2321  138.9667  159.9125 H   0  0  0  0  0  0  0  0  0  0  0  0
  153.8516  139.6695  158.4484 H   0  0  0  0  0  0  0  0  0  0  0  0
  1  2  2  0  0  0  0
  2  3  1  0  0  0  0
  2 12  1  0  0  0  0
  3  4  1  0  0  0  0
  3 24  1  0  0  0  0
  4  5  1  0  0  0  0
  4 25  1  0  0  0  0
  4 26  1  0  0  0  0
  5  6  1  0  0  0  0
  5 27  1  0  0  0  0
  5 28  1  0  0  0  0
  6 11  1  0  0  0  0
  6  7  2  0  0  0  0
  7  8  1  0  0  0  0
  7 29  1  0  0  0  0
  8  9  2  0  0  0  0
  8 30  1  0  0  0  0
  9 10  1  0  0  0  0
  9 31  1  0  0  0  0
 10 11  2  0  0  0  0
 10 32  1  0  0  0  0
 12 23  1  0  0  0  0
 12 13  1  0  0  0  0
 13 14  1  0  0  0  0
 13 33  1  0  0  0  0
 13 34  1  0  0  0  0
 14 15  1  0  0  0  0
 14 35  1  0  0  0  0
 14 36  1  0  0  0  0
 15 16  1  0  0  0  0
 15 22  1  0  0  0  0
 15 37  1  0  0  0  0
 16 17  1  0  0  0  0
 16 18  1  0  0  0  0
 16 38  1  0  0  0  0
 17 39  1  0  0  0  0
 18 19  1  0  0  0  0
 18 20  1  0  0  0  0
 18 21  1  0  0  0  0
 22 23  1  0  0  0  0
 22 40  1  0  0  0  0
 22 41  1  0  0  0  0
 23 42  1  0  0  0  0
 23 43  1  0  0  0  0
M  END
> <s_m_source_file>
AV-unprocessed.smi

> <i_m_source_file_index>
2908

> <i_lp_mmshare_version>
43012

> <i_f3d_flags>
0

> <s_epik_input>
RkMoRikoRilbQ0BASF0oW09IXSlbQ0hdKFtDSDJdW0NIMl0xKVtDSDJdW0NIMl1OMUMoPU8pW05IXVtDSDJdW0NIMl1jMltjSF1bY0hdW2NIXVtjSF1uMg==

> <s_epik_cmdline>
J2VwaWtfcHl0aG9uJywgJy1waCcsICc3LjAnLCAnLXRuJywgJzgnLCAnLW1hJywgJzIwMCcsICctbWV0YWxfYmluZGluZycsICctaW1hZScsICc8aW5maWxlLm1hZT4nLCAnLW9tYWUnLCAnPG91dGZpbGUubWFlPic=

> <r_epik_Ionization_Penalty>
0.0451198

> <r_epik_Ionization_Penalty_Charging>
0

> <r_epik_Ionization_Penalty_Neutral>
0.0451198

> <r_epik_State_Penalty>
0.0381178

> <r_epik_Charging_Adjusted_Penalty>
0.0381178

> <i_epik_Tot_Q>
0

> <i_epik_Tot_abs_Q>
0

> <r_epik_Metal_State_Penalty>
0.0354176

> <b_epik_Metal_Only>
0

> <s_lp_Force_Field>
OPLS_2005

> <r_lp_Energy>
37.4058

> <b_lp_Chiralities_Consistent>
1

> <s_lp_Variant>
AV-unprocessed.smi:2908-2

> <Gold.Version>
5.8.1

> <Gold.Id.Protein>
6NUR|6NUR_protein|mol2

> <Gold.PLP.Fitness>
59.3147

> <Gold.PLP.PLP>
-53.2450

> <Gold.PLP.part.hbond>
-3.9771

> <Gold.PLP.part.metal>
0.0000

> <Gold.PLP.part.buried>
-6.8773

> <Gold.PLP.part.nonpolar>
-42.6138

> <Gold.PLP.part.repulsive>
0.0820

> <Gold.PLP.ligand.clash>
0.0000

> <Gold.PLP.ligand.torsion>
0.9453

> <Gold.PLP.Chemscore.Hbond>
2.5563

> <Gold.PLP.Chemscore.CHOScore>
0.0000

> <Gold.PLP.Chemscore.Metal>
0.0000

> <Gold.Chemscore.Hbonds>
donor molecule, donor type, donor heavy atom, donor atom, acceptor molecule, acceptor atom, score
      P1  H  6896  6908       L1     1  0.80
      P1  H  6931  6943       L1    11  0.99
      P1  H  6934  6947       L1    11  0.77

> <Gold.PLP.Chemscore.Internal.Correction>
0.2916

> <Gold.Rescore>
     Score         DG    S(hbond)    S(metal)    S(lipo)     H(rot)  DE(clash)    DE(int)     intcor
     13.80     -16.58       1.70        0.00      96.83       2.30       1.01       1.77       ----

> <Gold.Chemscore.Fitness>
13.8007

> <Gold.Chemscore.DG>
-16.5760

> <Gold.Chemscore.ZeroCoef>
-5.4800

> <Gold.Chemscore.Hbond>
1.6968

> <Gold.Chemscore.Metal>
0.0000

> <Gold.Chemscore.Lipo>
96.8306

> <Gold.Chemscore.Internal_Hbond>
0.0000

> <Gold.Chemscore.DEClash>
1.0101

> <Gold.Chemscore.DEInternal>
1.7652

> <Gold.Chemscore.Rot>
2.3048

> <Gold.Chemscore.Internal.Correction>
   9.000000E+99

> <Gold.Chemscore.Hbonds>
donor molecule, donor type, donor heavy atom, donor atom, acceptor molecule, acceptor atom, score
      P1  H  6896  6908       L1     1  0.69
      P1  H  6931  6943       L1    11  0.32
      P1  H  6934  6947       L1    11  0.48

> <Gold.Chemscore.Hbond.Weighted>
-5.6672

> <Gold.Chemscore.Metal.Weighted>
-0.0000

> <Gold.Chemscore.Lipo.Weighted>
-11.3292

> <Gold.Chemscore.Internal_Hbond.Weighted>
0.0000

> <Gold.Chemscore.DEClash.Weighted>
1.0101

> <Gold.Chemscore.DEInternal.Weighted>
1.7652

> <Gold.Chemscore.Rot.Weighted>
5.9004

> <Gold.Chemscore.Internal.Correction.Weighted>
   9.000000E+99

> <Gold.Protein.RotatedTorsions>
[ 6907 6896 6895 6894 ] final -145.07 input  -60.11 | X-H torsion
[ 7974 7965 7964 7962 ] final  121.93 input  175.53 | X-H torsion
[ 8008 7997 7996 7995 ] final   41.91 input   59.86 | X-H torsion
[ 10167 10162 10161 10158 ] final -167.65 input  -65.29 | X-H torsion
[ 10718 10713 10712 10709 ] final -160.88 input   66.30 | X-H torsion
[ 10763 10752 10751 10750 ] final  109.03 input  -60.55 | X-H torsion
[ 11005 11000 10999 10996 ] final  123.65 input  -57.11 | X-H torsion

> <Gold.Protein.ActiveResidues>
 VAL166  LYS551  ARG553  GLY616  TRP617  ASP618  TYR619  PRO620  LYS621  CYS622 
 ASP623  PHE694  ASN695  SER759  ASP760  ASP761  ALA762  ILE779  LEU786  VAL792 
 PHE793  MET794  SER795  GLU796  ALA797  LYS798  CYS799  TRP800  GLU811  SER814 

> <Gold.Protein.RotatedAtoms>
  151.1227  133.5092  159.2601 H   0  0  0  0  0  0  0  0  0  0  0  0  # atno 6907 bound_to 6896
  151.1843  135.0374  159.8816 H   0  0  0  0  0  0  0  0  0  0  0  0  # atno 6908 bound_to 6896
  152.5456  134.1076  159.8398 H   0  0  0  0  0  0  0  0  0  0  0  0  # atno 6909 bound_to 6896
  145.1135  139.3437  143.4751 H   0  0  0  0  0  0  0  0  0  0  0  0  # atno 7974 bound_to 7965
  155.2774  140.3370  155.4260 H   0  0  0  0  0  0  0  0  0  0  0  0  # atno 8008 bound_to 7997
  156.2105  140.1768  156.7746 H   0  0  0  0  0  0  0  0  0  0  0  0  # atno 8009 bound_to 7997
  154.5680  140.0675  156.8905 H   0  0  0  0  0  0  0  0  0  0  0  0  # atno 8010 bound_to 7997
  139.6036  144.0960  152.1769 H   0  0  0  0  0  0  0  0  0  0  0  0  # atno 10167 bound_to 10162
  156.5884  130.8759  151.2883 H   0  0  0  0  0  0  0  0  0  0  0  0  # atno 10718 bound_to 10713
  153.4290  135.3793  155.2158 H   0  0  0  0  0  0  0  0  0  0  0  0  # atno 10763 bound_to 10752
  154.8749  135.3835  154.4291 H   0  0  0  0  0  0  0  0  0  0  0  0  # atno 10764 bound_to 10752
  153.4821  135.7088  153.5995 H   0  0  0  0  0  0  0  0  0  0  0  0  # atno 10765 bound_to 10752
  139.9322  134.9641  156.8292 H   0  0  0  0  0  0  0  0  0  0  0  0  # atno 11005 bound_to 11000
  146.3525  140.1064  142.8606 LP  0  0  0  0  0  0  0  0  0  0  0  0  # atno 17320 bound_to 7965
  145.0820  140.9227  143.4819 LP  0  0  0  0  0  0  0  0  0  0  0  0  # atno 17321 bound_to 7965
  140.0562  144.5893  150.7298 LP  0  0  0  0  0  0  0  0  0  0  0  0  # atno 17342 bound_to 10162
  140.7268  143.2645  151.4093 LP  0  0  0  0  0  0  0  0  0  0  0  0  # atno 17343 bound_to 10162
  157.7309  130.9693  150.1857 LP  0  0  0  0  0  0  0  0  0  0  0  0  # atno 17370 bound_to 10713
  156.2571  130.3706  149.8170 LP  0  0  0  0  0  0  0  0  0  0  0  0  # atno 17371 bound_to 10713
  140.6170  134.0029  155.7601 LP  0  0  0  0  0  0  0  0  0  0  0  0  # atno 17394 bound_to 11000
  141.0917  133.9906  157.3226 LP  0  0  0  0  0  0  0  0  0  0  0  0  # atno 17395 bound_to 11000

$$$$
