AV-unprocessed.smi:119|AV-procd|sdf|1135|dock3
  -GOLD-   2262018263D 1   1.00000     0.00000
 Structure written by MMmdl.
 51 54  0  0  0  0  0  0  0  0  1 V2000
  150.6156  141.4671  155.8546 C   0  0  0  0  0  0  0  0  0  0  0  0
  151.0736  140.1604  156.5219 C   0  0  2  0  0  0  0  0  0  0  0  0
  151.7507  139.1720  155.5512 C   0  0  0  0  0  0  0  0  0  0  0  0
  150.8664  138.6285  154.4105 C   0  0  0  0  0  0  0  0  0  0  0  0
  149.8124  137.7227  154.8857 N   0  0  0  0  0  0  0  0  0  0  0  0
  149.9848  136.3840  155.0431 C   0  0  0  0  0  0  0  0  0  0  0  0
  151.0461  135.8250  154.7530 O   0  0  0  0  0  0  0  0  0  0  0  0
  148.8240  135.5312  155.6021 C   0  0  0  0  0  0  0  0  0  0  0  0
  148.4320  134.4119  154.7164 N   0  0  0  0  0  0  0  0  0  0  0  0
  149.2610  133.2649  154.6693 C   0  0  0  0  0  0  0  0  0  0  0  0
  150.2922  133.1940  155.3400 O   0  0  0  0  0  0  0  0  0  0  0  0
  148.8042  132.1956  153.7900 C   0  0  0  0  0  0  0  0  0  0  0  0
  149.5367  131.0752  153.6706 F   0  0  0  0  0  0  0  0  0  0  0  0
  147.6581  132.3119  153.0877 C   0  0  0  0  0  0  0  0  0  0  0  0
  146.8498  133.4351  153.1485 N   0  0  0  0  0  0  0  0  0  0  0  0
  145.5317  133.5523  152.4087 C   0  0  1  0  0  0  0  0  0  0  0  0
  145.4203  134.7114  151.4146 C   0  0  0  0  0  0  0  0  0  0  0  0
  144.2918  134.1977  150.5508 C   0  0  0  0  0  0  0  0  0  0  0  0
  144.6370  132.7115  150.4545 C   0  0  0  0  0  0  0  0  0  0  0  0
  145.3465  132.3940  151.6515 O   0  0  0  0  0  0  0  0  0  0  0  0
  147.2280  134.5139  153.9794 C   0  0  0  0  0  0  0  0  0  0  0  0
  146.5200  135.5202  154.0627 O   0  0  0  0  0  0  0  0  0  0  0  0
  148.5604  138.3175  155.1991 C   0  0  0  0  0  0  0  0  0  0  0  0
  147.4610  138.1087  154.3364 C   0  0  0  0  0  0  0  0  0  0  0  0
  146.2107  138.6867  154.6266 C   0  0  0  0  0  0  0  0  0  0  0  0
  146.0515  139.4763  155.7809 C   0  0  0  0  0  0  0  0  0  0  0  0
  147.1429  139.6885  156.6446 C   0  0  0  0  0  0  0  0  0  0  0  0
  148.3983  139.1169  156.3563 C   0  0  0  0  0  0  0  0  0  0  0  0
  149.7331  139.3963  157.4815 S   0  0  0  0  0  0  0  0  0  0  0  0
  151.4402  141.9481  155.3281 H   0  0  0  0  0  0  0  0  0  0  0  0
  150.2445  142.1728  156.5981 H   0  0  0  0  0  0  0  0  0  0  0  0
  149.8139  141.3009  155.1354 H   0  0  0  0  0  0  0  0  0  0  0  0
  151.8290  140.4337  157.2593 H   0  0  0  0  0  0  0  0  0  0  0  0
  152.6110  139.6711  155.1041 H   0  0  0  0  0  0  0  0  0  0  0  0
  152.1658  138.3438  156.1255 H   0  0  0  0  0  0  0  0  0  0  0  0
  150.4079  139.4568  153.8697 H   0  0  0  0  0  0  0  0  0  0  0  0
  151.4927  138.1435  153.6625 H   0  0  0  0  0  0  0  0  0  0  0  0
  149.1107  135.1575  156.5857 H   0  0  0  0  0  0  0  0  0  0  0  0
  147.9605  136.1662  155.7982 H   0  0  0  0  0  0  0  0  0  0  0  0
  147.3999  131.4810  152.4528 H   0  0  0  0  0  0  0  0  0  0  0  0
  144.7665  133.6209  153.1851 H   0  0  0  0  0  0  0  0  0  0  0  0
  145.2135  135.6580  151.9144 H   0  0  0  0  0  0  0  0  0  0  0  0
  146.3120  134.7943  150.7944 H   0  0  0  0  0  0  0  0  0  0  0  0
  143.3360  134.3334  151.0595 H   0  0  0  0  0  0  0  0  0  0  0  0
  144.2356  134.6868  149.5779 H   0  0  0  0  0  0  0  0  0  0  0  0
  143.7492  132.0887  150.3428 H   0  0  0  0  0  0  0  0  0  0  0  0
  145.2929  132.5237  149.6038 H   0  0  0  0  0  0  0  0  0  0  0  0
  147.5748  137.5025  153.4493 H   0  0  0  0  0  0  0  0  0  0  0  0
  145.3736  138.5222  153.9644 H   0  0  0  0  0  0  0  0  0  0  0  0
  145.0916  139.9175  156.0048 H   0  0  0  0  0  0  0  0  0  0  0  0
  147.0140  140.2929  157.5304 H   0  0  0  0  0  0  0  0  0  0  0  0
  1  2  1  0  0  0  0
  1 30  1  0  0  0  0
  1 31  1  0  0  0  0
  1 32  1  0  0  0  0
  2 29  1  0  0  0  0
  2  3  1  0  0  0  0
  2 33  1  0  0  0  0
  3  4  1  0  0  0  0
  3 34  1  0  0  0  0
  3 35  1  0  0  0  0
  4  5  1  0  0  0  0
  4 36  1  0  0  0  0
  4 37  1  0  0  0  0
  5  6  1  0  0  0  0
  5 23  1  0  0  0  0
  6  7  2  0  0  0  0
  6  8  1  0  0  0  0
  8  9  1  0  0  0  0
  8 38  1  0  0  0  0
  8 39  1  0  0  0  0
  9 21  1  0  0  0  0
  9 10  1  0  0  0  0
 10 11  2  0  0  0  0
 10 12  1  0  0  0  0
 12 13  1  0  0  0  0
 12 14  2  0  0  0  0
 14 15  1  0  0  0  0
 14 40  1  0  0  0  0
 15 16  1  0  0  0  0
 15 21  1  0  0  0  0
 16 20  1  0  0  0  0
 16 17  1  0  0  0  0
 16 41  1  0  0  0  0
 17 18  1  0  0  0  0
 17 42  1  0  0  0  0
 17 43  1  0  0  0  0
 18 19  1  0  0  0  0
 18 44  1  0  0  0  0
 18 45  1  0  0  0  0
 19 20  1  0  0  0  0
 19 46  1  0  0  0  0
 19 47  1  0  0  0  0
 21 22  2  0  0  0  0
 23 28  2  0  0  0  0
 23 24  1  0  0  0  0
 24 25  2  0  0  0  0
 24 48  1  0  0  0  0
 25 26  1  0  0  0  0
 25 49  1  0  0  0  0
 26 27  2  0  0  0  0
 26 50  1  0  0  0  0
 27 28  1  0  0  0  0
 27 51  1  0  0  0  0
 28 29  1  0  0  0  0
M  END
> <s_m_source_file>
AV-unprocessed.smi

> <i_m_source_file_index>
119

> <i_lp_mmshare_version>
43012

> <i_f3d_flags>
0

> <s_epik_input>
W2NIXTFbY0hdW2NIXVtjSF1jKGMxMilTW0NASF0oW0NIM10pW0NIMl1bQ0gyXU4yQyg9TylbQ0gyXW4zYyg9TyljKEYpW2NIXW4oYzM9TylbQ0BASF00W0NIMl1bQ0gyXVtDSDJdTzQ=

> <s_epik_cmdline>
J2VwaWtfcHl0aG9uJywgJy1waCcsICc3LjAnLCAnLXRuJywgJzgnLCAnLW1hJywgJzIwMCcsICctbWV0YWxfYmluZGluZycsICctaW1hZScsICc8aW5maWxlLm1hZT4nLCAnLW9tYWUnLCAnPG91dGZpbGUubWFlPic=

> <r_lp_tautomer_probability>
1

> <r_epik_Ionization_Penalty>
1.68882e-06

> <r_epik_Ionization_Penalty_Charging>
3.67303e-09

> <r_epik_Ionization_Penalty_Neutral>
1.68515e-06

> <r_epik_State_Penalty>
-0

> <r_epik_Charging_Adjusted_Penalty>
3.67303e-09

> <i_epik_Tot_Q>
0

> <i_epik_Tot_abs_Q>
0

> <r_epik_Metal_State_Penalty>
-0

> <b_epik_Metal_Only>
0

> <s_epik_Chemistry_Notes>
This compound contains an acetal/aminal-like group ( X-CH(R)-Y where X, Y are N, S, or O) that may be acid/base labile, releasing an aldehyde.

> <s_lp_Force_Field>
OPLS_2005

> <r_lp_Energy>
51.5083

> <b_lp_Chiralities_Consistent>
1

> <s_lp_Variant>
AV-unprocessed.smi:119-3

> <Gold.Version>
5.8.1

> <Gold.Id.Protein>
6NUR|6NUR_protein|mol2

> <Gold.PLP.Fitness>
42.5644

> <Gold.PLP.PLP>
-38.4873

> <Gold.PLP.part.hbond>
-1.0000

> <Gold.PLP.part.metal>
0.0000

> <Gold.PLP.part.buried>
-5.5578

> <Gold.PLP.part.nonpolar>
-32.1005

> <Gold.PLP.part.repulsive>
0.3648

> <Gold.PLP.ligand.clash>
0.0000

> <Gold.PLP.ligand.torsion>
0.2117

> <Gold.PLP.Chemscore.Hbond>
1.0000

> <Gold.PLP.Chemscore.CHOScore>
0.4937

> <Gold.PLP.Chemscore.Metal>
0.0000

> <Gold.Chemscore.Hbonds>
donor molecule, donor type, donor heavy atom, donor atom, acceptor molecule, acceptor atom, score
      P1  H 10752 10765       L1     7  0.96
      L1  C    14    40       P1 10747  0.35

> <Gold.PLP.Chemscore.Internal.Correction>
0.0195

> <Gold.Rescore>
     Score         DG    S(hbond)    S(metal)    S(lipo)     H(rot)  DE(clash)    DE(int)     intcor
     10.23     -13.45       0.99        0.00      73.09       1.53       0.05       3.16       ----

> <Gold.Chemscore.Fitness>
10.2270

> <Gold.Chemscore.DG>
-13.4462

> <Gold.Chemscore.ZeroCoef>
-5.4800

> <Gold.Chemscore.Hbond>
0.9948

> <Gold.Chemscore.Metal>
0.0000

> <Gold.Chemscore.Lipo>
73.0919

> <Gold.Chemscore.Internal_Hbond>
0.0000

> <Gold.Chemscore.DEClash>
0.0544

> <Gold.Chemscore.DEInternal>
3.1648

> <Gold.Chemscore.Rot>
1.5266

> <Gold.Chemscore.Internal.Correction>
   9.000000E+99

> <Gold.Chemscore.Hbonds>
donor molecule, donor type, donor heavy atom, donor atom, acceptor molecule, acceptor atom, score
      P1  H 10752 10765       L1     7  0.90

> <Gold.Chemscore.Hbond.Weighted>
-3.3226

> <Gold.Chemscore.Metal.Weighted>
-0.0000

> <Gold.Chemscore.Lipo.Weighted>
-8.5517

> <Gold.Chemscore.Internal_Hbond.Weighted>
0.0000

> <Gold.Chemscore.DEClash.Weighted>
0.0544

> <Gold.Chemscore.DEInternal.Weighted>
3.1648

> <Gold.Chemscore.Rot.Weighted>
3.9081

> <Gold.Chemscore.Internal.Correction.Weighted>
   9.000000E+99

> <Gold.Protein.RotatedTorsions>
[ 6907 6896 6895 6894 ] final   48.31 input  -60.11 | X-H torsion
[ 7974 7965 7964 7962 ] final -133.49 input  175.53 | X-H torsion
[ 8008 7997 7996 7995 ] final -101.34 input   59.86 | X-H torsion
[ 10167 10162 10161 10158 ] final  109.10 input  -65.29 | X-H torsion
[ 10718 10713 10712 10709 ] final -137.62 input   66.30 | X-H torsion
[ 10763 10752 10751 10750 ] final -164.78 input  -60.55 | X-H torsion
[ 11005 11000 10999 10996 ] final   42.88 input  -57.11 | X-H torsion

> <Gold.Protein.ActiveResidues>
 VAL166  LYS551  ARG553  GLY616  TRP617  ASP618  TYR619  PRO620  LYS621  CYS622 
 ASP623  PHE694  ASN695  SER759  ASP760  ASP761  ALA762  ILE779  LEU786  VAL792 
 PHE793  MET794  SER795  GLU796  ALA797  LYS798  CYS799  TRP800  GLU811  SER814 

> <Gold.Protein.RotatedAtoms>
  152.2781  134.7859  160.0401 H   0  0  0  0  0  0  0  0  0  0  0  0  # atno 6907 bound_to 6896
  151.8448  133.3424  159.3662 H   0  0  0  0  0  0  0  0  0  0  0  0  # atno 6908 bound_to 6896
  150.7178  134.5285  159.5733 H   0  0  0  0  0  0  0  0  0  0  0  0  # atno 6909 bound_to 6896
  144.9189  140.6989  143.4978 H   0  0  0  0  0  0  0  0  0  0  0  0  # atno 7974 bound_to 7965
  154.8412  140.0435  157.1542 H   0  0  0  0  0  0  0  0  0  0  0  0  # atno 8008 bound_to 7997
  154.9045  140.3005  155.5279 H   0  0  0  0  0  0  0  0  0  0  0  0  # atno 8009 bound_to 7997
  156.2992  140.2369  156.4077 H   0  0  0  0  0  0  0  0  0  0  0  0  # atno 8010 bound_to 7997
  139.6793  144.7119  151.1545 H   0  0  0  0  0  0  0  0  0  0  0  0  # atno 10167 bound_to 10162
  156.2901  130.7370  151.1393 H   0  0  0  0  0  0  0  0  0  0  0  0  # atno 10718 bound_to 10713
  154.6995  135.2985  154.9361 H   0  0  0  0  0  0  0  0  0  0  0  0  # atno 10763 bound_to 10752
  154.0298  135.6671  153.4784 H   0  0  0  0  0  0  0  0  0  0  0  0  # atno 10764 bound_to 10752
  153.0671  135.5082  154.8132 H   0  0  0  0  0  0  0  0  0  0  0  0  # atno 10765 bound_to 10752
  140.1697  134.4237  155.8265 H   0  0  0  0  0  0  0  0  0  0  0  0  # atno 11005 bound_to 11000
  145.3329  139.1754  143.4527 LP  0  0  0  0  0  0  0  0  0  0  0  0  # atno 17320 bound_to 7965
  146.3195  140.3361  142.8644 LP  0  0  0  0  0  0  0  0  0  0  0  0  # atno 17321 bound_to 7965
  140.7646  143.5723  150.8982 LP  0  0  0  0  0  0  0  0  0  0  0  0  # atno 17342 bound_to 10162
  139.9394  143.6399  152.3057 LP  0  0  0  0  0  0  0  0  0  0  0  0  # atno 17343 bound_to 10162
  157.7340  131.0586  150.5548 LP  0  0  0  0  0  0  0  0  0  0  0  0  # atno 17370 bound_to 10713
  156.5663  130.4268  149.6039 LP  0  0  0  0  0  0  0  0  0  0  0  0  # atno 17371 bound_to 10713
  141.2216  133.6950  156.7742 LP  0  0  0  0  0  0  0  0  0  0  0  0  # atno 17394 bound_to 11000
  140.2392  134.8627  157.3556 LP  0  0  0  0  0  0  0  0  0  0  0  0  # atno 17395 bound_to 11000

$$$$
