AV-unprocessed.smi:2131|AV-procd|sdf|8687|dock7
  -GOLD-   2272011443D 1   1.00000     0.00000
 Structure written by MMmdl.
 40 42  0  0  0  0  0  0  0  0  1 V2000
  147.6926  135.0391  161.0820 N   0  0  0  0  0  0  0  0  0  0  0  0
  147.3735  135.7966  160.2677 C   0  0  0  0  0  0  0  0  0  0  0  0
  146.9682  136.7598  159.2326 C   0  0  0  0  0  0  0  0  0  0  0  0
  148.1388  137.5754  158.7243 C   0  0  0  0  0  0  0  0  0  0  0  0
  149.4365  137.3391  159.2183 C   0  0  0  0  0  0  0  0  0  0  0  0
  150.5225  138.0981  158.7412 C   0  0  0  0  0  0  0  0  0  0  0  0
  150.3320  139.1012  157.7685 C   0  0  0  0  0  0  0  0  0  0  0  0
  151.4504  139.7934  157.3554 O   0  0  0  0  0  0  0  0  0  0  0  0
  151.2879  140.8100  156.3745 C   0  0  0  0  0  0  0  0  0  0  0  0
  150.5172  141.9873  156.9899 C   0  0  2  0  0  0  0  0  0  0  0  0
  149.3945  142.2600  156.1742 O   0  0  0  0  0  0  0  0  0  0  0  0
  151.3839  143.2546  157.1245 C   0  0  0  0  0  0  0  0  0  0  0  0
  151.3700  143.7968  158.4719 N   0  0  0  0  0  0  0  0  0  0  0  0
  150.7463  144.9162  158.8863 C   0  0  0  0  0  0  0  0  0  0  0  0
  150.8596  145.2372  160.1719 N   0  0  0  0  0  0  0  0  0  0  0  0
  151.6485  144.2046  160.6492 C   0  0  0  0  0  0  0  0  0  0  0  0
  152.1387  143.9508  161.9503 C   0  0  0  0  0  0  0  0  0  0  0  0
  152.9393  142.8176  162.2038 C   0  0  0  0  0  0  0  0  0  0  0  0
  153.2626  141.9230  161.1627 C   0  0  0  0  0  0  0  0  0  0  0  0
  152.7859  142.1548  159.8580 C   0  0  0  0  0  0  0  0  0  0  0  0
  151.9859  143.2858  159.6097 C   0  0  0  0  0  0  0  0  0  0  0  0
  149.0219  139.3368  157.2797 C   0  0  0  0  0  0  0  0  0  0  0  0
  147.9352  138.5771  157.7551 C   0  0  0  0  0  0  0  0  0  0  0  0
  146.5069  136.2110  158.4112 H   0  0  0  0  0  0  0  0  0  0  0  0
  146.2086  137.4193  159.6533 H   0  0  0  0  0  0  0  0  0  0  0  0
  149.6026  136.5754  159.9637 H   0  0  0  0  0  0  0  0  0  0  0  0
  151.5137  137.9073  159.1255 H   0  0  0  0  0  0  0  0  0  0  0  0
  152.2570  141.1507  156.0058 H   0  0  0  0  0  0  0  0  0  0  0  0
  150.7259  140.4074  155.5297 H   0  0  0  0  0  0  0  0  0  0  0  0
  150.1446  141.6931  157.9720 H   0  0  0  0  0  0  0  0  0  0  0  0
  149.3215  143.1964  156.0688 H   0  0  0  0  0  0  0  0  0  0  0  0
  152.4188  143.0340  156.8593 H   0  0  0  0  0  0  0  0  0  0  0  0
  151.0455  144.0267  156.4324 H   0  0  0  0  0  0  0  0  0  0  0  0
  150.1778  145.5312  158.2037 H   0  0  0  0  0  0  0  0  0  0  0  0
  151.8986  144.6293  162.7555 H   0  0  0  0  0  0  0  0  0  0  0  0
  153.3082  142.6338  163.2022 H   0  0  0  0  0  0  0  0  0  0  0  0
  153.8774  141.0586  161.3663 H   0  0  0  0  0  0  0  0  0  0  0  0
  153.0337  141.4730  159.0581 H   0  0  0  0  0  0  0  0  0  0  0  0
  148.8229  140.0957  156.5386 H   0  0  0  0  0  0  0  0  0  0  0  0
  146.9426  138.7661  157.3735 H   0  0  0  0  0  0  0  0  0  0  0  0
  1  2  3  0  0  0  0
  2  3  1  0  0  0  0
  3  4  1  0  0  0  0
  3 24  1  0  0  0  0
  3 25  1  0  0  0  0
  4 23  1  0  0  0  0
  4  5  2  0  0  0  0
  5  6  1  0  0  0  0
  5 26  1  0  0  0  0
  6  7  2  0  0  0  0
  6 27  1  0  0  0  0
  7  8  1  0  0  0  0
  7 22  1  0  0  0  0
  8  9  1  0  0  0  0
  9 10  1  0  0  0  0
  9 28  1  0  0  0  0
  9 29  1  0  0  0  0
 10 11  1  0  0  0  0
 10 12  1  0  0  0  0
 10 30  1  0  0  0  0
 11 31  1  0  0  0  0
 12 13  1  0  0  0  0
 12 32  1  0  0  0  0
 12 33  1  0  0  0  0
 13 21  1  0  0  0  0
 13 14  1  0  0  0  0
 14 15  2  0  0  0  0
 14 34  1  0  0  0  0
 15 16  1  0  0  0  0
 16 21  2  0  0  0  0
 16 17  1  0  0  0  0
 17 18  2  0  0  0  0
 17 35  1  0  0  0  0
 18 19  1  0  0  0  0
 18 36  1  0  0  0  0
 19 20  2  0  0  0  0
 19 37  1  0  0  0  0
 20 21  1  0  0  0  0
 20 38  1  0  0  0  0
 22 23  2  0  0  0  0
 22 39  1  0  0  0  0
 23 40  1  0  0  0  0
M  END
> <s_m_source_file>
AV-unprocessed.smi

> <i_m_source_file_index>
2131

> <i_lp_mmshare_version>
43012

> <i_f3d_flags>
0

> <s_epik_input>
TiNDW0NIMl1jMVtjSF1bY0hdYyhbY0hdW2NIXTEpT1tDSDJdW0NASF0oW09IXSlbQ0gyXW4oW2NIXW4yKWMoYzIzKVtjSF1bY0hdW2NIXVtjSF0z

> <s_epik_cmdline>
J2VwaWtfcHl0aG9uJywgJy1waCcsICc3LjAnLCAnLXRuJywgJzgnLCAnLW1hJywgJzIwMCcsICctbWV0YWxfYmluZGluZycsICctaW1hZScsICc8aW5maWxlLm1hZT4nLCAnLW9tYWUnLCAnPG91dGZpbGUubWFlPic=

> <r_lp_tautomer_probability>
1

> <r_epik_Ionization_Penalty>
0.0609831

> <r_epik_Ionization_Penalty_Charging>
0

> <r_epik_Ionization_Penalty_Neutral>
0.0609831

> <r_epik_State_Penalty>
0.0529032

> <r_epik_Charging_Adjusted_Penalty>
0.0529032

> <i_epik_Tot_Q>
0

> <i_epik_Tot_abs_Q>
0

> <r_epik_Metal_State_Penalty>
5.53344e-05

> <b_epik_Metal_Only>
0

> <s_lp_Force_Field>
OPLS_2005

> <r_lp_Energy>
15.4123

> <b_lp_Chiralities_Consistent>
1

> <s_lp_Variant>
AV-unprocessed.smi:2131-1

> <Gold.Version>
5.8.1

> <Gold.Id.Protein>
6NUR|6NUR_protein|mol2

> <Gold.PLP.Fitness>
49.6180

> <Gold.PLP.PLP>
-46.7972

> <Gold.PLP.part.hbond>
-1.0000

> <Gold.PLP.part.metal>
0.0000

> <Gold.PLP.part.buried>
-7.0588

> <Gold.PLP.part.nonpolar>
-39.4854

> <Gold.PLP.part.repulsive>
0.1922

> <Gold.PLP.ligand.clash>
0.0000

> <Gold.PLP.ligand.torsion>
1.6132

> <Gold.PLP.Chemscore.Hbond>
1.0000

> <Gold.PLP.Chemscore.CHOScore>
0.9892

> <Gold.PLP.Chemscore.Metal>
0.0000

> <Gold.Chemscore.Hbonds>
donor molecule, donor type, donor heavy atom, donor atom, acceptor molecule, acceptor atom, score
      L1  H    11    31       P1  8028  1.00
      L1  C    14    34       P1  8029  1.00

> <Gold.PLP.Chemscore.Internal.Correction>
0.0796

> <Gold.Rescore>
     Score         DG    S(hbond)    S(metal)    S(lipo)     H(rot)  DE(clash)    DE(int)     intcor
     13.33     -15.15       1.00        0.00     113.56       2.72       0.16       1.66       ----

> <Gold.Chemscore.Fitness>
13.3295

> <Gold.Chemscore.DG>
-15.1461

> <Gold.Chemscore.ZeroCoef>
-5.4800

> <Gold.Chemscore.Hbond>
0.9994

> <Gold.Chemscore.Metal>
0.0000

> <Gold.Chemscore.Lipo>
113.5630

> <Gold.Chemscore.Internal_Hbond>
0.0000

> <Gold.Chemscore.DEClash>
0.1598

> <Gold.Chemscore.DEInternal>
1.6568

> <Gold.Chemscore.Rot>
2.7183

> <Gold.Chemscore.Internal.Correction>
   9.000000E+99

> <Gold.Chemscore.Hbonds>
donor molecule, donor type, donor heavy atom, donor atom, acceptor molecule, acceptor atom, score
      L1  H    11    31       P1  8028  1.00

> <Gold.Chemscore.Hbond.Weighted>
-3.3381

> <Gold.Chemscore.Metal.Weighted>
-0.0000

> <Gold.Chemscore.Lipo.Weighted>
-13.2869

> <Gold.Chemscore.Internal_Hbond.Weighted>
0.0000

> <Gold.Chemscore.DEClash.Weighted>
0.1598

> <Gold.Chemscore.DEInternal.Weighted>
1.6568

> <Gold.Chemscore.Rot.Weighted>
6.9588

> <Gold.Chemscore.Internal.Correction.Weighted>
   9.000000E+99

> <Gold.Protein.RotatedTorsions>
[ 6907 6896 6895 6894 ] final  140.69 input  -60.11 | X-H torsion
[ 7974 7965 7964 7962 ] final  123.96 input  175.53 | X-H torsion
[ 8008 7997 7996 7995 ] final  166.32 input   59.86 | X-H torsion
[ 10167 10162 10161 10158 ] final  162.82 input  -65.29 | X-H torsion
[ 10718 10713 10712 10709 ] final -168.65 input   66.30 | X-H torsion
[ 10763 10752 10751 10750 ] final  113.28 input  -60.55 | X-H torsion
[ 11005 11000 10999 10996 ] final -131.90 input  -57.11 | X-H torsion

> <Gold.Protein.ActiveResidues>
 VAL166  LYS551  ARG553  GLY616  TRP617  ASP618  TYR619  PRO620  LYS621  CYS622 
 ASP623  PHE694  ASN695  SER759  ASP760  ASP761  ALA762  ILE779  LEU786  VAL792 
 PHE793  MET794  SER795  GLU796  ALA797  LYS798  CYS799  TRP800  GLU811  SER814 

> <Gold.Protein.RotatedAtoms>
  152.2400  133.5128  159.5264 H   0  0  0  0  0  0  0  0  0  0  0  0  # atno 6907 bound_to 6896
  150.7062  134.1101  159.4006 H   0  0  0  0  0  0  0  0  0  0  0  0  # atno 6908 bound_to 6896
  151.9022  135.0373  160.0558 H   0  0  0  0  0  0  0  0  0  0  0  0  # atno 6909 bound_to 6896
  145.0899  139.3595  143.4866 H   0  0  0  0  0  0  0  0  0  0  0  0  # atno 7974 bound_to 7965
  156.1728  140.1646  156.8417 H   0  0  0  0  0  0  0  0  0  0  0  0  # atno 8008 bound_to 7997
  154.5275  140.0764  156.8318 H   0  0  0  0  0  0  0  0  0  0  0  0  # atno 8009 bound_to 7997
  155.3477  140.3388  155.4241 H   0  0  0  0  0  0  0  0  0  0  0  0  # atno 8010 bound_to 7997
  139.4865  144.4399  151.8964 H   0  0  0  0  0  0  0  0  0  0  0  0  # atno 10167 bound_to 10162
  156.7000  130.9192  151.3078 H   0  0  0  0  0  0  0  0  0  0  0  0  # atno 10718 bound_to 10713
  153.4901  135.3660  155.2487 H   0  0  0  0  0  0  0  0  0  0  0  0  # atno 10763 bound_to 10752
  154.8752  135.3975  154.3598 H   0  0  0  0  0  0  0  0  0  0  0  0  # atno 10764 bound_to 10752
  153.4216  135.7080  153.6355 H   0  0  0  0  0  0  0  0  0  0  0  0  # atno 10765 bound_to 10752
  140.9218  134.1434  157.4308 H   0  0  0  0  0  0  0  0  0  0  0  0  # atno 11005 bound_to 11000
  146.3531  140.0728  142.8622 LP  0  0  0  0  0  0  0  0  0  0  0  0  # atno 17320 bound_to 7965
  145.1079  140.9386  143.4674 LP  0  0  0  0  0  0  0  0  0  0  0  0  # atno 17321 bound_to 7965
  140.3851  144.2687  150.5905 LP  0  0  0  0  0  0  0  0  0  0  0  0  # atno 17342 bound_to 10162
  140.5198  143.2269  151.8407 LP  0  0  0  0  0  0  0  0  0  0  0  0  # atno 17343 bound_to 10162
  157.6977  130.9299  150.0692 LP  0  0  0  0  0  0  0  0  0  0  0  0  # atno 17370 bound_to 10713
  156.1736  130.3647  149.9131 LP  0  0  0  0  0  0  0  0  0  0  0  0  # atno 17371 bound_to 10713
  139.8777  134.9974  156.5845 LP  0  0  0  0  0  0  0  0  0  0  0  0  # atno 17394 bound_to 11000
  140.7978  133.8530  155.8700 LP  0  0  0  0  0  0  0  0  0  0  0  0  # atno 17395 bound_to 11000

$$$$
