AV-unprocessed.smi:3186|AV-procd|sdf|12174|dock7
  -GOLD-   2272018 13D 1   1.00000     0.00000
 Structure written by MMmdl.
 37 38  0  0  0  0  0  0  0  0  2 V2000
  148.3711  139.1671  154.0008 C   0  0  0  0  0  0  0  0  0  0  0  0
  149.8127  139.1847  154.4776 C   0  0  0  0  0  0  0  0  0  0  0  0
  150.7050  138.1803  154.0422 C   0  0  0  0  0  0  0  0  0  0  0  0
  151.9999  138.1179  154.4165 N   0  0  0  0  0  0  0  0  0  0  0  0
  152.4608  139.0686  155.2547 C   0  0  0  0  0  0  0  0  0  0  0  0
  151.6595  140.1153  155.7506 C   0  0  0  0  0  0  0  0  0  0  0  0
  150.3059  140.1796  155.3583 C   0  0  0  0  0  0  0  0  0  0  0  0
  149.4314  141.3082  155.8812 C   0  0  0  0  0  0  0  0  0  0  0  0
  150.0337  141.9788  157.1238 C   0  0  0  0  0  0  0  0  0  0  0  0
  151.0329  142.9990  156.7430 N   0  3  0  0  0  0  0  0  0  0  0  0
  151.8788  143.4983  157.8502 C   0  0  1  0  0  0  0  0  0  0  0  0
  151.1952  144.6757  158.5814 C   0  0  0  0  0  0  0  0  0  0  0  0
  152.0606  145.2631  159.7084 C   0  0  0  0  0  0  0  0  0  0  0  0
  152.3849  144.2343  160.7998 C   0  0  0  0  0  0  0  0  0  0  0  0
  153.3352  142.8464  160.1250 S   0  0  0  0  0  0  0  0  0  0  0  0
  152.1821  142.3414  158.8197 C   0  0  0  0  0  0  0  0  0  0  0  0
  148.2153  138.3955  153.2461 H   0  0  0  0  0  0  0  0  0  0  0  0
  148.0949  140.1239  153.5582 H   0  0  0  0  0  0  0  0  0  0  0  0
  147.6985  138.9616  154.8337 H   0  0  0  0  0  0  0  0  0  0  0  0
  150.3718  137.4013  153.3720 H   0  0  0  0  0  0  0  0  0  0  0  0
  153.5003  138.9949  155.5382 H   0  0  0  0  0  0  0  0  0  0  0  0
  152.0809  140.8522  156.4187 H   0  0  0  0  0  0  0  0  0  0  0  0
  149.2653  142.0443  155.0944 H   0  0  0  0  0  0  0  0  0  0  0  0
  148.4467  140.9048  156.1218 H   0  0  0  0  0  0  0  0  0  0  0  0
  149.2446  142.4521  157.7098 H   0  0  0  0  0  0  0  0  0  0  0  0
  150.4957  141.2255  157.7608 H   0  0  0  0  0  0  0  0  0  0  0  0
  151.6316  142.6288  156.0187 H   0  0  0  0  0  0  0  0  0  0  0  0
  152.8253  143.8373  157.4256 H   0  0  0  0  0  0  0  0  0  0  0  0
  150.9679  145.4760  157.8779 H   0  0  0  0  0  0  0  0  0  0  0  0
  150.2372  144.3514  158.9901 H   0  0  0  0  0  0  0  0  0  0  0  0
  152.9862  145.6642  159.2935 H   0  0  0  0  0  0  0  0  0  0  0  0
  151.5381  146.1081  160.1580 H   0  0  0  0  0  0  0  0  0  0  0  0
  152.9639  144.6994  161.5980 H   0  0  0  0  0  0  0  0  0  0  0  0
  151.4673  143.8536  161.2499 H   0  0  0  0  0  0  0  0  0  0  0  0
  151.2649  141.9741  159.2821 H   0  0  0  0  0  0  0  0  0  0  0  0
  152.6267  141.5023  158.2835 H   0  0  0  0  0  0  0  0  0  0  0  0
  150.5248  143.7866  156.3660 H   0  0  0  0  0  0  0  0  0  0  0  0
  1  2  1  0  0  0  0
  1 17  1  0  0  0  0
  1 18  1  0  0  0  0
  1 19  1  0  0  0  0
  2  7  1  0  0  0  0
  2  3  2  0  0  0  0
  3  4  1  0  0  0  0
  3 20  1  0  0  0  0
  4  5  2  0  0  0  0
  5  6  1  0  0  0  0
  5 21  1  0  0  0  0
  6  7  2  0  0  0  0
  6 22  1  0  0  0  0
  7  8  1  0  0  0  0
  8  9  1  0  0  0  0
  8 23  1  0  0  0  0
  8 24  1  0  0  0  0
  9 10  1  0  0  0  0
  9 25  1  0  0  0  0
  9 26  1  0  0  0  0
 10 11  1  0  0  0  0
 10 27  1  0  0  0  0
 10 37  1  0  0  0  0
 11 16  1  0  0  0  0
 11 12  1  0  0  0  0
 11 28  1  0  0  0  0
 12 13  1  0  0  0  0
 12 29  1  0  0  0  0
 12 30  1  0  0  0  0
 13 14  1  0  0  0  0
 13 31  1  0  0  0  0
 13 32  1  0  0  0  0
 14 15  1  0  0  0  0
 14 33  1  0  0  0  0
 14 34  1  0  0  0  0
 15 16  1  0  0  0  0
 16 35  1  0  0  0  0
 16 36  1  0  0  0  0
M  CHG  1  10   1
M  END
> <s_m_source_file>
AV-unprocessed.smi

> <i_m_source_file_index>
3186

> <i_lp_mmshare_version>
43012

> <i_f3d_flags>
0

> <s_epik_input>
W0NIM11jMVtjSF1uW2NIXVtjSF1jMVtDSDJdW0NIMl1bTkhdW0NAQEhdMltDSDJdW0NIMl1bQ0gyXVNbQ0gyXTI=

> <s_epik_cmdline>
J2VwaWtfcHl0aG9uJywgJy1waCcsICc3LjAnLCAnLXRuJywgJzgnLCAnLW1hJywgJzIwMCcsICctbWV0YWxfYmluZGluZycsICctaW1hZScsICc8aW5maWxlLm1hZT4nLCAnLW9tYWUnLCAnPG91dGZpbGUubWFlPic=

> <r_epik_Ionization_Penalty>
0.00563987

> <r_epik_Ionization_Penalty_Charging>
0.00306352

> <r_epik_Ionization_Penalty_Neutral>
0.00257635

> <r_epik_State_Penalty>
0.00506628

> <r_epik_Charging_Adjusted_Penalty>
0.0081298

> <i_epik_Tot_Q>
1

> <i_epik_Tot_abs_Q>
1

> <r_epik_Metal_State_Penalty>
-0

> <b_epik_Metal_Only>
0

> <s_lp_Force_Field>
OPLS_2005

> <r_lp_Energy>
10.8164

> <b_lp_Chiralities_Consistent>
1

> <s_lp_Variant>
AV-unprocessed.smi:3186-2

> <Gold.Version>
5.8.1

> <Gold.Id.Protein>
6NUR|6NUR_protein|mol2

> <Gold.PLP.Fitness>
50.3179

> <Gold.PLP.PLP>
-42.2323

> <Gold.PLP.part.hbond>
-1.0000

> <Gold.PLP.part.metal>
0.0000

> <Gold.PLP.part.buried>
-4.9990

> <Gold.PLP.part.nonpolar>
-37.0103

> <Gold.PLP.part.repulsive>
0.1498

> <Gold.PLP.ligand.clash>
0.0000

> <Gold.PLP.ligand.torsion>
0.6949

> <Gold.PLP.Chemscore.Hbond>
2.0000

> <Gold.PLP.Chemscore.CHOScore>
1.1552

> <Gold.PLP.Chemscore.Metal>
0.0000

> <Gold.Chemscore.Hbonds>
donor molecule, donor type, donor heavy atom, donor atom, acceptor molecule, acceptor atom, score
      L1  H    10    37       P1  8028  2.00
      L1  C     3    20       P1  7948  0.71
      L1  C     3    20       P1  7949  0.36

> <Gold.PLP.Chemscore.Internal.Correction>
0.0098

> <Gold.Rescore>
     Score         DG    S(hbond)    S(metal)    S(lipo)     H(rot)  DE(clash)    DE(int)     intcor
     19.77     -20.37       1.16        0.00     122.57       1.30       0.01       0.59       ----

> <Gold.Chemscore.Fitness>
19.7718

> <Gold.Chemscore.DG>
-20.3746

> <Gold.Chemscore.ZeroCoef>
-5.4800

> <Gold.Chemscore.Hbond>
1.1645

> <Gold.Chemscore.Metal>
0.0000

> <Gold.Chemscore.Lipo>
122.5732

> <Gold.Chemscore.Internal_Hbond>
0.0000

> <Gold.Chemscore.DEClash>
0.0111

> <Gold.Chemscore.DEInternal>
0.5916

> <Gold.Chemscore.Rot>
1.3031

> <Gold.Chemscore.Internal.Correction>
   9.000000E+99

> <Gold.Chemscore.Hbonds>
donor molecule, donor type, donor heavy atom, donor atom, acceptor molecule, acceptor atom, score
      L1  H    10    37       P1  8028  0.95

> <Gold.Chemscore.Hbond.Weighted>
-3.8896

> <Gold.Chemscore.Metal.Weighted>
-0.0000

> <Gold.Chemscore.Lipo.Weighted>
-14.3411

> <Gold.Chemscore.Internal_Hbond.Weighted>
0.0000

> <Gold.Chemscore.DEClash.Weighted>
0.0111

> <Gold.Chemscore.DEInternal.Weighted>
0.5916

> <Gold.Chemscore.Rot.Weighted>
3.3361

> <Gold.Chemscore.Internal.Correction.Weighted>
   9.000000E+99

> <Gold.Protein.RotatedTorsions>
[ 6907 6896 6895 6894 ] final -170.67 input  -60.11 | X-H torsion
[ 7974 7965 7964 7962 ] final  175.49 input  175.53 | X-H torsion
[ 8008 7997 7996 7995 ] final   64.96 input   59.86 | X-H torsion
[ 10167 10162 10161 10158 ] final  128.40 input  -65.29 | X-H torsion
[ 10718 10713 10712 10709 ] final   78.81 input   66.30 | X-H torsion
[ 10763 10752 10751 10750 ] final  -64.58 input  -60.55 | X-H torsion
[ 11005 11000 10999 10996 ] final -139.79 input  -57.11 | X-H torsion

> <Gold.Protein.ActiveResidues>
 VAL166  LYS551  ARG553  GLY616  TRP617  ASP618  TYR619  PRO620  LYS621  CYS622 
 ASP623  PHE694  ASN695  SER759  ASP760  ASP761  ALA762  ILE779  LEU786  VAL792 
 PHE793  MET794  SER795  GLU796  ALA797  LYS798  CYS799  TRP800  GLU811  SER814 

> <Gold.Protein.RotatedAtoms>
  151.5114  133.3484  159.2885 H   0  0  0  0  0  0  0  0  0  0  0  0  # atno 6907 bound_to 6896
  150.8709  134.8085  159.7165 H   0  0  0  0  0  0  0  0  0  0  0  0  # atno 6908 bound_to 6896
  152.4698  134.4998  159.9773 H   0  0  0  0  0  0  0  0  0  0  0  0  # atno 6909 bound_to 6896
  144.7201  139.9955  143.6440 H   0  0  0  0  0  0  0  0  0  0  0  0  # atno 7974 bound_to 7965
  155.6542  140.3497  155.4759 H   0  0  0  0  0  0  0  0  0  0  0  0  # atno 8008 bound_to 7997
  155.9822  140.1177  157.0739 H   0  0  0  0  0  0  0  0  0  0  0  0  # atno 8009 bound_to 7997
  154.4195  140.1136  156.5437 H   0  0  0  0  0  0  0  0  0  0  0  0  # atno 8010 bound_to 7997
  139.5529  144.6827  151.4269 H   0  0  0  0  0  0  0  0  0  0  0  0  # atno 10167 bound_to 10162
  157.6757  130.9885  150.1840 H   0  0  0  0  0  0  0  0  0  0  0  0  # atno 10718 bound_to 10713
  154.3322  135.6174  153.5557 H   0  0  0  0  0  0  0  0  0  0  0  0  # atno 10763 bound_to 10752
  152.9810  135.5749  154.4948 H   0  0  0  0  0  0  0  0  0  0  0  0  # atno 10764 bound_to 10752
  154.4637  135.2857  155.1671 H   0  0  0  0  0  0  0  0  0  0  0  0  # atno 10765 bound_to 10752
  140.8486  134.2314  157.4772 H   0  0  0  0  0  0  0  0  0  0  0  0  # atno 11005 bound_to 11000
  146.0377  139.3393  143.0716 LP  0  0  0  0  0  0  0  0  0  0  0  0  # atno 17320 bound_to 7965
  145.8373  140.9599  143.0817 LP  0  0  0  0  0  0  0  0  0  0  0  0  # atno 17321 bound_to 7965
  140.6796  143.8112  150.7103 LP  0  0  0  0  0  0  0  0  0  0  0  0  # atno 17342 bound_to 10162
  140.1561  143.4315  152.2098 LP  0  0  0  0  0  0  0  0  0  0  0  0  # atno 17343 bound_to 10162
  156.2566  130.3706  149.8175 LP  0  0  0  0  0  0  0  0  0  0  0  0  # atno 17370 bound_to 10713
  156.5932  130.8515  151.3413 LP  0  0  0  0  0  0  0  0  0  0  0  0  # atno 17371 bound_to 10713
  139.8704  134.9672  156.4587 LP  0  0  0  0  0  0  0  0  0  0  0  0  # atno 17394 bound_to 11000
  140.8816  133.7914  155.9472 LP  0  0  0  0  0  0  0  0  0  0  0  0  # atno 17395 bound_to 11000

$$$$
