AV-unprocessed.smi:2138|AV-procd|sdf|8710|dock6
  -GOLD-   2272011473D 1   1.00000     0.00000
 Structure written by MMmdl.
 46 47  0  0  0  0  0  0  0  0  1 V2000
  152.5432  141.6722  159.3413 C   0  0  0  0  0  0  0  0  0  0  0  0
  152.1866  141.0151  158.1379 O   0  0  0  0  0  0  0  0  0  0  0  0
  151.2429  141.7497  157.3764 C   0  0  0  0  0  0  0  0  0  0  0  0
  150.8285  140.9194  156.1579 C   0  0  0  0  0  0  0  0  0  0  0  0
  149.9203  141.6822  155.3754 O   0  0  0  0  0  0  0  0  0  0  0  0
  148.9882  141.0058  154.6199 C   0  0  0  0  0  0  0  0  0  0  0  0
  147.8932  141.6152  153.9581 C   0  0  0  0  0  0  0  0  0  0  0  0
  147.0137  140.8016  153.2187 C   0  0  0  0  0  0  0  0  0  0  0  0
  147.2380  139.4118  153.1670 C   0  0  0  0  0  0  0  0  0  0  0  0
  146.3451  138.6166  152.3995 N   0  0  0  0  0  0  0  0  0  0  0  0
  145.9710  137.3414  152.6113 C   0  0  0  0  0  0  0  0  0  0  0  0
  146.3454  136.6533  153.5611 O   0  0  0  0  0  0  0  0  0  0  0  0
  144.9897  136.7511  151.5856 C   0  0  2  0  0  0  0  0  0  0  0  0
  143.6450  136.3802  152.2385 C   0  0  0  0  0  0  0  0  0  0  0  0
  143.5784  134.8677  152.1190 C   0  0  0  0  0  0  0  0  0  0  0  0
  142.6554  134.2086  152.5960 O   0  0  0  0  0  0  0  0  0  0  0  0
  144.6264  134.3824  151.4405 N   0  0  0  0  0  0  0  0  0  0  0  0
  144.8376  132.9651  151.1109 C   0  0  0  0  0  0  0  0  0  0  0  0
  146.1272  132.7227  150.3069 C   0  0  0  0  0  0  0  0  0  0  0  0
  143.6024  132.3908  150.3992 C   0  0  0  0  0  0  0  0  0  0  0  0
  145.5112  135.4384  150.9612 C   0  0  0  0  0  0  0  0  0  0  0  0
  148.3676  138.9025  153.8510 C   0  0  0  0  0  0  0  0  0  0  0  0
  149.2163  139.6763  154.5599 N   0  0  0  0  0  0  0  0  0  0  0  0
  153.2685  141.0687  159.8870 H   0  0  0  0  0  0  0  0  0  0  0  0
  151.6738  141.8159  159.9841 H   0  0  0  0  0  0  0  0  0  0  0  0
  152.9961  142.6442  159.1416 H   0  0  0  0  0  0  0  0  0  0  0  0
  150.3697  142.0085  157.9772 H   0  0  0  0  0  0  0  0  0  0  0  0
  151.7002  142.6824  157.0432 H   0  0  0  0  0  0  0  0  0  0  0  0
  151.7134  140.6900  155.5622 H   0  0  0  0  0  0  0  0  0  0  0  0
  150.3823  139.9773  156.4802 H   0  0  0  0  0  0  0  0  0  0  0  0
  147.7122  142.6783  154.0013 H   0  0  0  0  0  0  0  0  0  0  0  0
  146.1733  141.2432  152.7031 H   0  0  0  0  0  0  0  0  0  0  0  0
  145.8897  139.0911  151.6334 H   0  0  0  0  0  0  0  0  0  0  0  0
  144.8192  137.4820  150.7930 H   0  0  0  0  0  0  0  0  0  0  0  0
  143.5654  136.6806  153.2847 H   0  0  0  0  0  0  0  0  0  0  0  0
  142.8095  136.8252  151.6974 H   0  0  0  0  0  0  0  0  0  0  0  0
  144.9566  132.4214  152.0499 H   0  0  0  0  0  0  0  0  0  0  0  0
  146.3025  131.6553  150.1698 H   0  0  0  0  0  0  0  0  0  0  0  0
  146.9964  133.1315  150.8231 H   0  0  0  0  0  0  0  0  0  0  0  0
  146.0777  133.1735  149.3153 H   0  0  0  0  0  0  0  0  0  0  0  0
  143.7258  131.3261  150.1994 H   0  0  0  0  0  0  0  0  0  0  0  0
  143.4274  132.8900  149.4457 H   0  0  0  0  0  0  0  0  0  0  0  0
  142.7042  132.5079  151.0063 H   0  0  0  0  0  0  0  0  0  0  0  0
  145.4618  135.4834  149.8726 H   0  0  0  0  0  0  0  0  0  0  0  0
  146.5490  135.2391  151.2324 H   0  0  0  0  0  0  0  0  0  0  0  0
  148.6272  137.8556  153.8244 H   0  0  0  0  0  0  0  0  0  0  0  0
  1  2  1  0  0  0  0
  1 24  1  0  0  0  0
  1 25  1  0  0  0  0
  1 26  1  0  0  0  0
  2  3  1  0  0  0  0
  3  4  1  0  0  0  0
  3 27  1  0  0  0  0
  3 28  1  0  0  0  0
  4  5  1  0  0  0  0
  4 29  1  0  0  0  0
  4 30  1  0  0  0  0
  5  6  1  0  0  0  0
  6 23  1  0  0  0  0
  6  7  2  0  0  0  0
  7  8  1  0  0  0  0
  7 31  1  0  0  0  0
  8  9  2  0  0  0  0
  8 32  1  0  0  0  0
  9 10  1  0  0  0  0
  9 22  1  0  0  0  0
 10 11  1  0  0  0  0
 10 33  1  0  0  0  0
 11 12  2  0  0  0  0
 11 13  1  0  0  0  0
 13 21  1  0  0  0  0
 13 14  1  0  0  0  0
 13 34  1  0  0  0  0
 14 15  1  0  0  0  0
 14 35  1  0  0  0  0
 14 36  1  0  0  0  0
 15 16  2  0  0  0  0
 15 17  1  0  0  0  0
 17 18  1  0  0  0  0
 17 21  1  0  0  0  0
 18 19  1  0  0  0  0
 18 20  1  0  0  0  0
 18 37  1  0  0  0  0
 19 38  1  0  0  0  0
 19 39  1  0  0  0  0
 19 40  1  0  0  0  0
 20 41  1  0  0  0  0
 20 42  1  0  0  0  0
 20 43  1  0  0  0  0
 21 44  1  0  0  0  0
 21 45  1  0  0  0  0
 22 23  2  0  0  0  0
 22 46  1  0  0  0  0
M  END
> <s_m_source_file>
AV-unprocessed.smi

> <i_m_source_file_index>
2138

> <i_lp_mmshare_version>
43012

> <i_f3d_flags>
0

> <s_epik_input>
W0NIM11PW0NIMl1bQ0gyXU9jMVtjSF1bY0hdYyhbY0hdbjEpW05IXUMoPU8pW0NAQEhdMltDSDJdQyg9TylOKFtDSDJdMilbQ0hdKFtDSDNdKVtDSDNd

> <s_epik_cmdline>
J2VwaWtfcHl0aG9uJywgJy1waCcsICc3LjAnLCAnLXRuJywgJzgnLCAnLW1hJywgJzIwMCcsICctbWV0YWxfYmluZGluZycsICctaW1hZScsICc8aW5maWxlLm1hZT4nLCAnLW9tYWUnLCAnPG91dGZpbGUubWFlPic=

> <r_lp_tautomer_probability>
1

> <r_epik_Ionization_Penalty>
1.72652e-05

> <r_epik_Ionization_Penalty_Charging>
0

> <r_epik_Ionization_Penalty_Neutral>
1.72652e-05

> <r_epik_State_Penalty>
-0

> <r_epik_Charging_Adjusted_Penalty>
0

> <i_epik_Tot_Q>
0

> <i_epik_Tot_abs_Q>
0

> <r_epik_Metal_State_Penalty>
-0

> <b_epik_Metal_Only>
0

> <s_lp_Force_Field>
OPLS_2005

> <r_lp_Energy>
27.6576

> <b_lp_Chiralities_Consistent>
1

> <s_lp_Variant>
AV-unprocessed.smi:2138-1

> <Gold.Version>
5.8.1

> <Gold.Id.Protein>
6NUR|6NUR_protein|mol2

> <Gold.PLP.Fitness>
43.3990

> <Gold.PLP.PLP>
-41.3695

> <Gold.PLP.part.hbond>
-0.5728

> <Gold.PLP.part.metal>
0.0000

> <Gold.PLP.part.buried>
-2.4944

> <Gold.PLP.part.nonpolar>
-38.8165

> <Gold.PLP.part.repulsive>
0.8668

> <Gold.PLP.ligand.clash>
0.0000

> <Gold.PLP.ligand.torsion>
0.5569

> <Gold.PLP.Chemscore.Hbond>
0.0000

> <Gold.PLP.Chemscore.CHOScore>
1.0000

> <Gold.PLP.Chemscore.Metal>
0.0000

> <Gold.Chemscore.Hbonds>
donor molecule, donor type, donor heavy atom, donor atom, acceptor molecule, acceptor atom, score
      L1  C    22    46       P1  7948  0.94

> <Gold.PLP.Chemscore.Internal.Correction>
0.1432

> <Gold.Rescore>
     Score         DG    S(hbond)    S(metal)    S(lipo)     H(rot)  DE(clash)    DE(int)     intcor
      9.58     -11.05       0.00        0.00      91.45       2.00       0.80       0.67       ----

> <Gold.Chemscore.Fitness>
9.5785

> <Gold.Chemscore.DG>
-11.0514

> <Gold.Chemscore.ZeroCoef>
-5.4800

> <Gold.Chemscore.Hbond>
0.0003

> <Gold.Chemscore.Metal>
0.0000

> <Gold.Chemscore.Lipo>
91.4473

> <Gold.Chemscore.Internal_Hbond>
0.0000

> <Gold.Chemscore.DEClash>
0.8025

> <Gold.Chemscore.DEInternal>
0.6704

> <Gold.Chemscore.Rot>
2.0035

> <Gold.Chemscore.Internal.Correction>
   9.000000E+99

> <Gold.Chemscore.Hbond.Weighted>
-0.0011

> <Gold.Chemscore.Metal.Weighted>
-0.0000

> <Gold.Chemscore.Lipo.Weighted>
-10.6993

> <Gold.Chemscore.Internal_Hbond.Weighted>
0.0000

> <Gold.Chemscore.DEClash.Weighted>
0.8025

> <Gold.Chemscore.DEInternal.Weighted>
0.6704

> <Gold.Chemscore.Rot.Weighted>
5.1290

> <Gold.Chemscore.Internal.Correction.Weighted>
   9.000000E+99

> <Gold.Protein.RotatedTorsions>
[ 6907 6896 6895 6894 ] final  127.38 input  -60.11 | X-H torsion
[ 7974 7965 7964 7962 ] final  112.10 input  175.53 | X-H torsion
[ 8008 7997 7996 7995 ] final  137.14 input   59.86 | X-H torsion
[ 10167 10162 10161 10158 ] final -146.20 input  -65.29 | X-H torsion
[ 10718 10713 10712 10709 ] final -108.25 input   66.30 | X-H torsion
[ 10763 10752 10751 10750 ] final   39.83 input  -60.55 | X-H torsion
[ 11005 11000 10999 10996 ] final -149.94 input  -57.11 | X-H torsion

> <Gold.Protein.ActiveResidues>
 VAL166  LYS551  ARG553  GLY616  TRP617  ASP618  TYR619  PRO620  LYS621  CYS622 
 ASP623  PHE694  ASN695  SER759  ASP760  ASP761  ALA762  ILE779  LEU786  VAL792 
 PHE793  MET794  SER795  GLU796  ALA797  LYS798  CYS799  TRP800  GLU811  SER814 

> <Gold.Protein.RotatedAtoms>
  152.3818  133.6556  159.6167 H   0  0  0  0  0  0  0  0  0  0  0  0  # atno 6907 bound_to 6896
  150.7747  133.9101  159.3376 H   0  0  0  0  0  0  0  0  0  0  0  0  # atno 6908 bound_to 6896
  151.6905  135.0948  160.0284 H   0  0  0  0  0  0  0  0  0  0  0  0  # atno 6909 bound_to 6896
  145.2339  139.2808  143.4154 H   0  0  0  0  0  0  0  0  0  0  0  0  # atno 7974 bound_to 7965
  156.3003  140.2427  156.3861 H   0  0  0  0  0  0  0  0  0  0  0  0  # atno 8008 bound_to 7997
  154.8657  140.0418  157.1712 H   0  0  0  0  0  0  0  0  0  0  0  0  # atno 8009 bound_to 7997
  154.8849  140.2954  155.5407 H   0  0  0  0  0  0  0  0  0  0  0  0  # atno 8010 bound_to 7997
  139.7735  143.8203  152.2628 H   0  0  0  0  0  0  0  0  0  0  0  0  # atno 10167 bound_to 10162
  156.0476  130.5703  150.7935 H   0  0  0  0  0  0  0  0  0  0  0  0  # atno 10718 bound_to 10713
  152.9955  135.6209  154.2529 H   0  0  0  0  0  0  0  0  0  0  0  0  # atno 10763 bound_to 10752
  154.2267  135.2793  155.2907 H   0  0  0  0  0  0  0  0  0  0  0  0  # atno 10764 bound_to 10752
  154.5484  135.5740  153.6958 H   0  0  0  0  0  0  0  0  0  0  0  0  # atno 10765 bound_to 10752
  140.7455  134.3466  157.5138 H   0  0  0  0  0  0  0  0  0  0  0  0  # atno 11005 bound_to 11000
  146.3346  140.2682  142.8604 LP  0  0  0  0  0  0  0  0  0  0  0  0  # atno 17320 bound_to 7965
  144.9651  140.8314  143.5489 LP  0  0  0  0  0  0  0  0  0  0  0  0  # atno 17321 bound_to 7965
  139.8244  144.7281  150.9530 LP  0  0  0  0  0  0  0  0  0  0  0  0  # atno 17342 bound_to 10162
  140.7815  143.4128  151.0965 LP  0  0  0  0  0  0  0  0  0  0  0  0  # atno 17343 bound_to 10162
  157.5369  131.0939  150.9880 LP  0  0  0  0  0  0  0  0  0  0  0  0  # atno 17370 bound_to 10713
  157.0173  130.5660  149.5327 LP  0  0  0  0  0  0  0  0  0  0  0  0  # atno 17371 bound_to 10713
  139.8797  134.9108  156.3023 LP  0  0  0  0  0  0  0  0  0  0  0  0  # atno 17394 bound_to 11000
  140.9798  133.7274  156.0656 LP  0  0  0  0  0  0  0  0  0  0  0  0  # atno 17395 bound_to 11000

$$$$
