AV-unprocessed.smi:102|AV-procd|sdf|972|dock2
  -GOLD-   2262017523D 1   1.00000     0.00000
 Structure written by MMmdl.
 43 44  0  0  0  0  0  0  0  0  2 V2000
  144.2167  138.3872  160.7883 C   0  0  0  0  0  0  0  0  0  0  0  0
  144.8080  138.6333  159.4069 C   0  0  0  0  0  0  0  0  0  0  0  0
  145.2839  139.7257  159.0976 O   0  0  0  0  0  0  0  0  0  0  0  0
  144.7400  137.5443  158.6195 O   0  0  0  0  0  0  0  0  0  0  0  0
  145.3636  137.5381  157.3423 C   0  0  0  0  0  0  0  0  0  0  0  0
  146.8727  137.2872  157.4780 C   0  0  1  0  0  0  0  0  0  0  0  0
  147.4502  138.1887  158.4117 O   0  0  0  0  0  0  0  0  0  0  0  0
  148.6653  137.6663  158.8403 C   0  0  2  0  0  0  0  0  0  0  0  0
  149.7557  138.1681  157.9034 N   0  0  0  0  0  0  0  0  0  0  0  0
  149.5662  139.2621  157.0701 C   0  0  0  0  0  0  0  0  0  0  0  0
  150.5619  139.7424  156.2983 C   0  0  0  0  0  0  0  0  0  0  0  0
  150.3406  140.8044  155.5049 F   0  0  0  0  0  0  0  0  0  0  0  0
  151.8799  139.1162  156.3473 C   0  0  0  0  0  0  0  0  0  0  0  0
  152.7766  139.5387  155.6190 O   0  0  0  0  0  0  0  0  0  0  0  0
  152.0597  138.0823  157.2178 N   0  5  0  0  0  0  0  0  0  0  0  0
  151.0587  137.6040  158.0138 C   0  0  0  0  0  0  0  0  0  0  0  0
  151.2338  136.6994  158.8301 O   0  0  0  0  0  0  0  0  0  0  0  0
  148.5074  136.1347  158.8488 C   0  0  1  0  0  0  0  0  0  0  0  0
  148.3518  135.6548  160.1783 O   0  0  0  0  0  0  0  0  0  0  0  0
  147.4888  136.2517  161.0185 C   0  0  0  0  0  0  0  0  0  0  0  0
  147.5165  135.6357  162.4108 C   0  0  0  0  0  0  0  0  0  0  0  0
  146.7388  137.1888  160.7445 O   0  0  0  0  0  0  0  0  0  0  0  0
  147.2077  135.9131  158.0720 C   0  0  2  0  0  0  0  0  0  0  0  0
  147.3973  134.9587  157.0355 O   0  0  0  0  0  0  0  0  0  0  0  0
  147.9871  133.7801  157.2999 C   0  0  0  0  0  0  0  0  0  0  0  0
  148.0589  132.8799  156.0737 C   0  0  0  0  0  0  0  0  0  0  0  0
  148.4406  133.4234  158.3874 O   0  0  0  0  0  0  0  0  0  0  0  0
  144.7144  137.5453  161.2696 H   0  0  0  0  0  0  0  0  0  0  0  0
  143.1530  138.1631  160.7087 H   0  0  0  0  0  0  0  0  0  0  0  0
  144.3379  139.2680  161.4193 H   0  0  0  0  0  0  0  0  0  0  0  0
  144.9009  136.8200  156.6637 H   0  0  0  0  0  0  0  0  0  0  0  0
  145.2048  138.5240  156.9052 H   0  0  0  0  0  0  0  0  0  0  0  0
  147.3620  137.4085  156.5104 H   0  0  0  0  0  0  0  0  0  0  0  0
  148.9295  138.0472  159.8277 H   0  0  0  0  0  0  0  0  0  0  0  0
  148.6161  139.7708  157.0328 H   0  0  0  0  0  0  0  0  0  0  0  0
  149.3587  135.6455  158.3765 H   0  0  0  0  0  0  0  0  0  0  0  0
  148.5315  135.6441  162.8080 H   0  0  0  0  0  0  0  0  0  0  0  0
  147.1659  134.6041  162.3745 H   0  0  0  0  0  0  0  0  0  0  0  0
  146.8744  136.1957  163.0910 H   0  0  0  0  0  0  0  0  0  0  0  0
  146.4075  135.6103  158.7500 H   0  0  0  0  0  0  0  0  0  0  0  0
  147.0833  132.8146  155.5921 H   0  0  0  0  0  0  0  0  0  0  0  0
  148.3741  131.8747  156.3540 H   0  0  0  0  0  0  0  0  0  0  0  0
  148.7747  133.2795  155.3553 H   0  0  0  0  0  0  0  0  0  0  0  0
  1  2  1  0  0  0  0
  1 28  1  0  0  0  0
  1 29  1  0  0  0  0
  1 30  1  0  0  0  0
  2  3  2  0  0  0  0
  2  4  1  0  0  0  0
  4  5  1  0  0  0  0
  5  6  1  0  0  0  0
  5 31  1  0  0  0  0
  5 32  1  0  0  0  0
  6 23  1  0  0  0  0
  6  7  1  0  0  0  0
  6 33  1  0  0  0  0
  7  8  1  0  0  0  0
  8  9  1  0  0  0  0
  8 18  1  0  0  0  0
  8 34  1  0  0  0  0
  9 16  1  0  0  0  0
  9 10  1  0  0  0  0
 10 11  2  0  0  0  0
 10 35  1  0  0  0  0
 11 12  1  0  0  0  0
 11 13  1  0  0  0  0
 13 14  2  0  0  0  0
 13 15  1  0  0  0  0
 15 16  1  0  0  0  0
 16 17  2  0  0  0  0
 18 19  1  0  0  0  0
 18 23  1  0  0  0  0
 18 36  1  0  0  0  0
 19 20  1  0  0  0  0
 20 21  1  0  0  0  0
 20 22  2  0  0  0  0
 21 37  1  0  0  0  0
 21 38  1  0  0  0  0
 21 39  1  0  0  0  0
 23 24  1  0  0  0  0
 23 40  1  0  0  0  0
 24 25  1  0  0  0  0
 25 26  1  0  0  0  0
 25 27  2  0  0  0  0
 26 41  1  0  0  0  0
 26 42  1  0  0  0  0
 26 43  1  0  0  0  0
M  CHG  1  15  -1
M  END
> <s_m_source_file>
AV-unprocessed.smi

> <i_m_source_file_index>
102

> <i_lp_mmshare_version>
43012

> <i_f3d_flags>
0

> <s_epik_input>
W0NIM11DKD1PKU9bQ0gyXVtDQEBIXTFPW0NASF0oW0NAQEhdKE9DKD1PKVtDSDNdKVtDQEhdMU9DKD1PKVtDSDNdKW4yW2NIXWMoRiljKD1PKVtuSF1jMj1P

> <s_epik_cmdline>
J2VwaWtfcHl0aG9uJywgJy1waCcsICc3LjAnLCAnLXRuJywgJzgnLCAnLW1hJywgJzIwMCcsICctbWV0YWxfYmluZGluZycsICctaW1hZScsICc8aW5maWxlLm1hZT4nLCAnLW9tYWUnLCAnPG91dGZpbGUubWFlPic=

> <r_epik_Ionization_Penalty>
1.40304

> <r_epik_Ionization_Penalty_Charging>
1.43915e-08

> <r_epik_Ionization_Penalty_Neutral>
1.40304

> <r_epik_State_Penalty>
1.48536

> <r_epik_Charging_Adjusted_Penalty>
1.48536

> <i_epik_Tot_Q>
-1

> <i_epik_Tot_abs_Q>
1

> <r_epik_Metal_State_Penalty>
0.00663881

> <b_epik_Metal_Only>
0

> <s_epik_Chemistry_Notes>
This compound has an ester and may undergo hydrolysis at high or low pH. This compound contains an acetal/aminal-like group ( X-CH(R)-Y where X, Y are N, S, or O) that may be acid/base labile, releasing an aldehyde.

> <s_lp_Force_Field>
OPLS_2005

> <r_lp_Energy>
19.0054

> <b_lp_Chiralities_Consistent>
1

> <s_lp_Variant>
AV-unprocessed.smi:102-28

> <Gold.Version>
5.8.1

> <Gold.Id.Protein>
6NUR|6NUR_protein|mol2

> <Gold.PLP.Fitness>
37.5741

> <Gold.PLP.PLP>
-26.5659

> <Gold.PLP.part.hbond>
-5.9527

> <Gold.PLP.part.metal>
0.0000

> <Gold.PLP.part.buried>
-2.8793

> <Gold.PLP.part.nonpolar>
-18.1975

> <Gold.PLP.part.repulsive>
0.0000

> <Gold.PLP.ligand.clash>
0.0000

> <Gold.PLP.ligand.torsion>
0.5920

> <Gold.PLP.Chemscore.Hbond>
4.0000

> <Gold.PLP.Chemscore.CHOScore>
0.0000

> <Gold.PLP.Chemscore.Metal>
0.0000

> <Gold.Chemscore.Hbonds>
donor molecule, donor type, donor heavy atom, donor atom, acceptor molecule, acceptor atom, score
      P1  H  6896  6909       L1    17  0.78
      P1  H  6934  6947       L1    22  1.00
      P1  H  7997  8010       L1    14  1.00

> <Gold.PLP.Chemscore.Internal.Correction>
0.1922

> <Gold.Rescore>
     Score         DG    S(hbond)    S(metal)    S(lipo)     H(rot)  DE(clash)    DE(int)     intcor
      3.44     -11.48       3.92        0.00      26.73       4.00       0.00       8.04       ----

> <Gold.Chemscore.Fitness>
3.4403

> <Gold.Chemscore.DG>
-11.4831

> <Gold.Chemscore.ZeroCoef>
-5.4800

> <Gold.Chemscore.Hbond>
3.9231

> <Gold.Chemscore.Metal>
0.0000

> <Gold.Chemscore.Lipo>
26.7305

> <Gold.Chemscore.Internal_Hbond>
0.0000

> <Gold.Chemscore.DEClash>
0.0000

> <Gold.Chemscore.DEInternal>
8.0428

> <Gold.Chemscore.Rot>
3.9951

> <Gold.Chemscore.Internal.Correction>
   9.000000E+99

> <Gold.Chemscore.Hbonds>
donor molecule, donor type, donor heavy atom, donor atom, acceptor molecule, acceptor atom, score
      P1  H  6896  6908       L1    27  0.01
      P1  H  6896  6909       L1    17  0.77
      P1  H  6934  6947       L1    22  1.00
      P1  H  7997  8010       L1    14  1.00

> <Gold.Chemscore.Hbond.Weighted>
-13.1031

> <Gold.Chemscore.Metal.Weighted>
-0.0000

> <Gold.Chemscore.Lipo.Weighted>
-3.1275

> <Gold.Chemscore.Internal_Hbond.Weighted>
0.0000

> <Gold.Chemscore.DEClash.Weighted>
0.0000

> <Gold.Chemscore.DEInternal.Weighted>
8.0428

> <Gold.Chemscore.Rot.Weighted>
10.2274

> <Gold.Chemscore.Internal.Correction.Weighted>
   9.000000E+99

> <Gold.Protein.RotatedTorsions>
[ 6907 6896 6895 6894 ] final  121.12 input  -60.11 | X-H torsion
[ 7974 7965 7964 7962 ] final   89.29 input  175.53 | X-H torsion
[ 8008 7997 7996 7995 ] final   87.75 input   59.86 | X-H torsion
[ 10167 10162 10161 10158 ] final -154.72 input  -65.29 | X-H torsion
[ 10718 10713 10712 10709 ] final  -73.21 input   66.30 | X-H torsion
[ 10763 10752 10751 10750 ] final -113.68 input  -60.55 | X-H torsion
[ 11005 11000 10999 10996 ] final  146.36 input  -57.11 | X-H torsion

> <Gold.Protein.ActiveResidues>
 VAL166  LYS551  ARG553  GLY616  TRP617  ASP618  TYR619  PRO620  LYS621  CYS622 
 ASP623  PHE694  ASN695  SER759  ASP760  ASP761  ALA762  ILE779  LEU786  VAL792 
 PHE793  MET794  SER795  GLU796  ALA797  LYS798  CYS799  TRP800  GLU811  SER814 

> <Gold.Protein.RotatedAtoms>
  152.4346  133.7338  159.6602 H   0  0  0  0  0  0  0  0  0  0  0  0  # atno 6907 bound_to 6896
  150.8229  133.8211  159.3137 H   0  0  0  0  0  0  0  0  0  0  0  0  # atno 6908 bound_to 6896
  151.5888  135.1057  160.0086 H   0  0  0  0  0  0  0  0  0  0  0  0  # atno 6909 bound_to 6896
  145.5343  139.2285  143.2601 H   0  0  0  0  0  0  0  0  0  0  0  0  # atno 7974 bound_to 7965
  155.9792  140.3379  155.6647 H   0  0  0  0  0  0  0  0  0  0  0  0  # atno 8008 bound_to 7997
  155.6571  140.0712  157.2585 H   0  0  0  0  0  0  0  0  0  0  0  0  # atno 8009 bound_to 7997
  154.4187  140.1715  156.1724 H   0  0  0  0  0  0  0  0  0  0  0  0  # atno 8010 bound_to 7997
  139.6990  143.9294  152.2420 H   0  0  0  0  0  0  0  0  0  0  0  0  # atno 10167 bound_to 10162
  156.0289  130.4389  150.2708 H   0  0  0  0  0  0  0  0  0  0  0  0  # atno 10718 bound_to 10713
  154.8407  135.4445  154.1388 H   0  0  0  0  0  0  0  0  0  0  0  0  # atno 10763 bound_to 10752
  153.2579  135.6933  153.7616 H   0  0  0  0  0  0  0  0  0  0  0  0  # atno 10764 bound_to 10752
  153.6904  135.3388  155.3176 H   0  0  0  0  0  0  0  0  0  0  0  0  # atno 10765 bound_to 10752
  140.0787  134.9110  157.1465 H   0  0  0  0  0  0  0  0  0  0  0  0  # atno 11005 bound_to 11000
  146.2023  140.6161  142.9097 LP  0  0  0  0  0  0  0  0  0  0  0  0  # atno 17320 bound_to 7965
  144.7609  140.5420  143.6736 LP  0  0  0  0  0  0  0  0  0  0  0  0  # atno 17321 bound_to 7965
  139.9132  144.6844  150.8540 LP  0  0  0  0  0  0  0  0  0  0  0  0  # atno 17342 bound_to 10162
  140.7704  143.3428  151.2172 LP  0  0  0  0  0  0  0  0  0  0  0  0  # atno 17343 bound_to 10162
  157.0811  131.0143  151.3156 LP  0  0  0  0  0  0  0  0  0  0  0  0  # atno 17370 bound_to 10713
  157.4927  130.7831  149.7523 LP  0  0  0  0  0  0  0  0  0  0  0  0  # atno 17371 bound_to 10713
  140.3520  134.2589  155.7197 LP  0  0  0  0  0  0  0  0  0  0  0  0  # atno 17394 bound_to 11000
  141.2039  133.7901  157.0316 LP  0  0  0  0  0  0  0  0  0  0  0  0  # atno 17395 bound_to 11000

$$$$
