AV-unprocessed.smi:3335|AV-procd|sdf|12839|dock3
  -GOLD-   2272019223D 1   1.00000     0.00000
 Structure written by MMmdl.
 47 48  0  0  0  0  0  0  0  0  2 V2000
  145.1031  143.9316  153.6421 C   0  0  0  0  0  0  0  0  0  0  0  0
  145.9360  142.8162  154.2043 C   0  0  0  0  0  0  0  0  0  0  0  0
  145.4913  141.5623  154.7105 C   0  0  0  0  0  0  0  0  0  0  0  0
  146.4842  140.8019  155.1408 N   0  0  0  0  0  0  0  0  0  0  0  0
  147.5979  141.5356  154.9177 N   0  0  0  0  0  0  0  0  0  0  0  0
  148.9075  141.0179  155.2955 C   0  0  2  0  0  0  0  0  0  0  0  0
  149.1696  139.6874  154.5617 C   0  0  0  0  0  0  0  0  0  0  0  0
  149.0605  140.9129  156.8405 C   0  0  1  0  0  0  0  0  0  0  0  0
  147.7953  140.3645  157.5218 C   0  0  0  0  0  0  0  0  0  0  0  0
  150.1963  140.0288  157.2093 N   0  3  0  0  0  0  0  0  0  0  0  0
  151.5516  140.4869  156.8174 C   0  0  2  0  0  0  0  0  0  0  0  0
  152.1391  139.5185  155.7799 C   0  0  0  0  0  0  0  0  0  0  0  0
  152.4909  140.5906  158.0351 C   0  0  0  0  0  0  0  0  0  0  0  0
  153.3438  139.7171  158.2017 O   0  0  0  0  0  0  0  0  0  0  0  0
  152.3630  141.6358  158.8808 N   0  0  0  0  0  0  0  0  0  0  0  0
  151.3973  142.7294  158.7684 C   0  0  0  0  0  0  0  0  0  0  0  0
  151.8118  143.7604  159.8179 C   0  0  0  0  0  0  0  0  0  0  0  0
  152.5543  142.9447  160.8663 C   0  0  0  0  0  0  0  0  0  0  0  0
  153.1978  141.8108  160.0684 C   0  0  0  0  0  0  0  0  0  0  0  0
  147.2929  142.7562  154.3517 C   0  0  0  0  0  0  0  0  0  0  0  0
  144.0383  143.7669  153.8095 H   0  0  0  0  0  0  0  0  0  0  0  0
  145.2469  144.0367  152.5667 H   0  0  0  0  0  0  0  0  0  0  0  0
  145.3544  144.8903  154.0962 H   0  0  0  0  0  0  0  0  0  0  0  0
  144.4810  141.1866  154.7826 H   0  0  0  0  0  0  0  0  0  0  0  0
  149.6467  141.7333  154.9312 H   0  0  0  0  0  0  0  0  0  0  0  0
  150.2101  139.3759  154.6510 H   0  0  0  0  0  0  0  0  0  0  0  0
  148.9596  139.7814  153.4956 H   0  0  0  0  0  0  0  0  0  0  0  0
  148.5450  138.8832  154.9525 H   0  0  0  0  0  0  0  0  0  0  0  0
  149.2306  141.9101  157.2489 H   0  0  0  0  0  0  0  0  0  0  0  0
  146.9494  141.0425  157.4097 H   0  0  0  0  0  0  0  0  0  0  0  0
  147.9540  140.2368  158.5933 H   0  0  0  0  0  0  0  0  0  0  0  0
  147.5081  139.3960  157.1110 H   0  0  0  0  0  0  0  0  0  0  0  0
  150.2013  139.9327  158.2149 H   0  0  0  0  0  0  0  0  0  0  0  0
  151.4493  141.4558  156.3383 H   0  0  0  0  0  0  0  0  0  0  0  0
  153.1296  139.8368  155.4529 H   0  0  0  0  0  0  0  0  0  0  0  0
  151.5058  139.4674  154.8935 H   0  0  0  0  0  0  0  0  0  0  0  0
  152.2309  138.5078  156.1803 H   0  0  0  0  0  0  0  0  0  0  0  0
  151.3825  143.1722  157.7718 H   0  0  0  0  0  0  0  0  0  0  0  0
  150.3993  142.3473  158.9883 H   0  0  0  0  0  0  0  0  0  0  0  0
  152.4930  144.4853  159.3703 H   0  0  0  0  0  0  0  0  0  0  0  0
  150.9643  144.3089  160.2302 H   0  0  0  0  0  0  0  0  0  0  0  0
  153.2812  143.5344  161.4255 H   0  0  0  0  0  0  0  0  0  0  0  0
  151.8399  142.5309  161.5793 H   0  0  0  0  0  0  0  0  0  0  0  0
  153.2657  140.8983  160.6630 H   0  0  0  0  0  0  0  0  0  0  0  0
  154.2059  142.0869  159.7555 H   0  0  0  0  0  0  0  0  0  0  0  0
  148.0581  143.4784  154.1075 H   0  0  0  0  0  0  0  0  0  0  0  0
  150.0279  139.1193  156.8046 H   0  0  0  0  0  0  0  0  0  0  0  0
  1  2  1  0  0  0  0
  1 21  1  0  0  0  0
  1 22  1  0  0  0  0
  1 23  1  0  0  0  0
  2 20  2  0  0  0  0
  2  3  1  0  0  0  0
  3  4  2  0  0  0  0
  3 24  1  0  0  0  0
  4  5  1  0  0  0  0
  5  6  1  0  0  0  0
  5 20  1  0  0  0  0
  6  7  1  0  0  0  0
  6  8  1  0  0  0  0
  6 25  1  0  0  0  0
  7 26  1  0  0  0  0
  7 27  1  0  0  0  0
  7 28  1  0  0  0  0
  8  9  1  0  0  0  0
  8 10  1  0  0  0  0
  8 29  1  0  0  0  0
  9 30  1  0  0  0  0
  9 31  1  0  0  0  0
  9 32  1  0  0  0  0
 10 11  1  0  0  0  0
 10 33  1  0  0  0  0
 10 47  1  0  0  0  0
 11 12  1  0  0  0  0
 11 13  1  0  0  0  0
 11 34  1  0  0  0  0
 12 35  1  0  0  0  0
 12 36  1  0  0  0  0
 12 37  1  0  0  0  0
 13 14  2  0  0  0  0
 13 15  1  0  0  0  0
 15 19  1  0  0  0  0
 15 16  1  0  0  0  0
 16 17  1  0  0  0  0
 16 38  1  0  0  0  0
 16 39  1  0  0  0  0
 17 18  1  0  0  0  0
 17 40  1  0  0  0  0
 17 41  1  0  0  0  0
 18 19  1  0  0  0  0
 18 42  1  0  0  0  0
 18 43  1  0  0  0  0
 19 44  1  0  0  0  0
 19 45  1  0  0  0  0
 20 46  1  0  0  0  0
M  CHG  1  10   1
M  END
> <s_m_source_file>
AV-unprocessed.smi

> <i_m_source_file_index>
3335

> <i_lp_mmshare_version>
43012

> <i_f3d_flags>
0

> <s_epik_input>
W0NIM11jMVtjSF1ubihbY0hdMSlbQ0BIXShbQ0gzXSlbQ0BIXShbQ0gzXSlbTkhdW0NASF0oW0NIM10pQyg9TylOMltDSDJdW0NIMl1bQ0gyXVtDSDJdMg==

> <s_epik_cmdline>
J2VwaWtfcHl0aG9uJywgJy1waCcsICc3LjAnLCAnLXRuJywgJzgnLCAnLW1hJywgJzIwMCcsICctbWV0YWxfYmluZGluZycsICctaW1hZScsICc8aW5maWxlLm1hZT4nLCAnLW9tYWUnLCAnPG91dGZpbGUubWFlPic=

> <r_lp_tautomer_probability>
1

> <r_epik_Ionization_Penalty>
0.14175

> <r_epik_Ionization_Penalty_Charging>
0.141731

> <r_epik_Ionization_Penalty_Neutral>
1.91261e-05

> <r_epik_State_Penalty>
0.131043

> <r_epik_Charging_Adjusted_Penalty>
0.272773

> <i_epik_Tot_Q>
1

> <i_epik_Tot_abs_Q>
1

> <r_epik_Metal_State_Penalty>
0.131408

> <b_epik_Metal_Only>
0

> <s_lp_Force_Field>
OPLS_2005

> <r_lp_Energy>
35.8146

> <b_lp_Chiralities_Consistent>
1

> <s_lp_Variant>
AV-unprocessed.smi:3335-3

> <Gold.Version>
5.8.1

> <Gold.Id.Protein>
6NUR|6NUR_protein|mol2

> <Gold.PLP.Fitness>
41.6661

> <Gold.PLP.PLP>
-37.5318

> <Gold.PLP.part.hbond>
-1.0000

> <Gold.PLP.part.metal>
0.0000

> <Gold.PLP.part.buried>
1.4044

> <Gold.PLP.part.nonpolar>
-37.3234

> <Gold.PLP.part.repulsive>
0.1020

> <Gold.PLP.ligand.clash>
0.0000

> <Gold.PLP.ligand.torsion>
1.6536

> <Gold.PLP.Chemscore.Hbond>
1.0000

> <Gold.PLP.Chemscore.CHOScore>
1.4451

> <Gold.PLP.Chemscore.Metal>
0.0000

> <Gold.Chemscore.Hbonds>
donor molecule, donor type, donor heavy atom, donor atom, acceptor molecule, acceptor atom, score
      P1  H  7997  8010       L1    14  1.00
      L1  C     3    24       P1 10175  0.60
      L1  C    20    46       P1  8028  0.81

> <Gold.PLP.Chemscore.Internal.Correction>
0.1061

> <Gold.Rescore>
     Score         DG    S(hbond)    S(metal)    S(lipo)     H(rot)  DE(clash)    DE(int)     intcor
     12.14     -15.13       0.85        0.00      94.86       1.68       0.28       2.71       ----

> <Gold.Chemscore.Fitness>
12.1366

> <Gold.Chemscore.DG>
-15.1267

> <Gold.Chemscore.ZeroCoef>
-5.4800

> <Gold.Chemscore.Hbond>
0.8512

> <Gold.Chemscore.Metal>
0.0000

> <Gold.Chemscore.Lipo>
94.8609

> <Gold.Chemscore.Internal_Hbond>
0.0000

> <Gold.Chemscore.DEClash>
0.2777

> <Gold.Chemscore.DEInternal>
2.7124

> <Gold.Chemscore.Rot>
1.6778

> <Gold.Chemscore.Internal.Correction>
   9.000000E+99

> <Gold.Chemscore.Hbonds>
donor molecule, donor type, donor heavy atom, donor atom, acceptor molecule, acceptor atom, score
      P1  H  7997  8010       L1    14  0.76

> <Gold.Chemscore.Hbond.Weighted>
-2.8431

> <Gold.Chemscore.Metal.Weighted>
-0.0000

> <Gold.Chemscore.Lipo.Weighted>
-11.0987

> <Gold.Chemscore.Internal_Hbond.Weighted>
0.0000

> <Gold.Chemscore.DEClash.Weighted>
0.2777

> <Gold.Chemscore.DEInternal.Weighted>
2.7124

> <Gold.Chemscore.Rot.Weighted>
4.2952

> <Gold.Chemscore.Internal.Correction.Weighted>
   9.000000E+99

> <Gold.Protein.RotatedTorsions>
[ 6907 6896 6895 6894 ] final -134.13 input  -60.11 | X-H torsion
[ 7974 7965 7964 7962 ] final -129.70 input  175.53 | X-H torsion
[ 8008 7997 7996 7995 ] final   19.50 input   59.86 | X-H torsion
[ 10167 10162 10161 10158 ] final  141.78 input  -65.29 | X-H torsion
[ 10718 10713 10712 10709 ] final   -8.29 input   66.30 | X-H torsion
[ 10763 10752 10751 10750 ] final -178.84 input  -60.55 | X-H torsion
[ 11005 11000 10999 10996 ] final  -99.94 input  -57.11 | X-H torsion

> <Gold.Protein.ActiveResidues>
 VAL166  LYS551  ARG553  GLY616  TRP617  ASP618  TYR619  PRO620  LYS621  CYS622 
 ASP623  PHE694  ASN695  SER759  ASP760  ASP761  ALA762  ILE779  LEU786  VAL792 
 PHE793  MET794  SER795  GLU796  ALA797  LYS798  CYS799  TRP800  GLU811  SER814 

> <Gold.Protein.RotatedAtoms>
  150.9822  133.6234  159.2720 H   0  0  0  0  0  0  0  0  0  0  0  0  # atno 6907 bound_to 6896
  151.3485  135.0878  159.9404 H   0  0  0  0  0  0  0  0  0  0  0  0  # atno 6908 bound_to 6896
  152.5219  133.9419  159.7685 H   0  0  0  0  0  0  0  0  0  0  0  0  # atno 6909 bound_to 6896
  144.9546  140.7381  143.4767 H   0  0  0  0  0  0  0  0  0  0  0  0  # atno 7974 bound_to 7965
  154.9216  140.3028  155.5213 H   0  0  0  0  0  0  0  0  0  0  0  0  # atno 8008 bound_to 7997
  156.3009  140.2370  156.4203 H   0  0  0  0  0  0  0  0  0  0  0  0  # atno 8009 bound_to 7997
  154.8325  140.0417  157.1475 H   0  0  0  0  0  0  0  0  0  0  0  0  # atno 8010 bound_to 7997
  139.5011  144.6149  151.6186 H   0  0  0  0  0  0  0  0  0  0  0  0  # atno 10167 bound_to 10162
  156.7048  130.5104  149.5907 H   0  0  0  0  0  0  0  0  0  0  0  0  # atno 10718 bound_to 10713
  154.5426  135.2807  155.1082 H   0  0  0  0  0  0  0  0  0  0  0  0  # atno 10763 bound_to 10752
  154.2558  135.6331  153.5260 H   0  0  0  0  0  0  0  0  0  0  0  0  # atno 10764 bound_to 10752
  152.9982  135.5594  154.5969 H   0  0  0  0  0  0  0  0  0  0  0  0  # atno 10765 bound_to 10752
  141.1290  133.8360  157.1037 H   0  0  0  0  0  0  0  0  0  0  0  0  # atno 11005 bound_to 11000
  145.2792  139.1925  143.4800 LP  0  0  0  0  0  0  0  0  0  0  0  0  # atno 17320 bound_to 7965
  146.3333  140.2751  142.8607 LP  0  0  0  0  0  0  0  0  0  0  0  0  # atno 17321 bound_to 7965
  140.5834  143.9906  150.6281 LP  0  0  0  0  0  0  0  0  0  0  0  0  # atno 17342 bound_to 10162
  140.3062  143.3228  152.0923 LP  0  0  0  0  0  0  0  0  0  0  0  0  # atno 17343 bound_to 10162
  156.1703  130.6432  151.0829 LP  0  0  0  0  0  0  0  0  0  0  0  0  # atno 17370 bound_to 10713
  157.6959  131.0794  150.6970 LP  0  0  0  0  0  0  0  0  0  0  0  0  # atno 17371 bound_to 10713
  140.0317  134.9898  157.0794 LP  0  0  0  0  0  0  0  0  0  0  0  0  # atno 17394 bound_to 11000
  140.4274  134.1816  155.7166 LP  0  0  0  0  0  0  0  0  0  0  0  0  # atno 17395 bound_to 11000

$$$$
