AV-unprocessed.smi:2973|AV-procd|sdf|11341|dock1
  -GOLD-   2272016253D 1   1.00000     0.00000
 Structure written by MMmdl.
 50 52  0  0  0  0  0  0  0  0  2 V2000
  146.8375  133.4605  153.1851 C   0  0  0  0  0  0  0  0  0  0  0  0
  145.7730  132.8961  152.2200 C   0  0  2  0  0  0  0  0  0  0  0  0
  146.4178  132.4791  150.8803 C   0  0  0  0  0  0  0  0  0  0  0  0
  145.3957  131.8265  149.9367 C   0  0  0  0  0  0  0  0  0  0  0  0
  144.1943  132.7480  149.6850 C   0  0  0  0  0  0  0  0  0  0  0  0
  143.5343  133.1762  151.0079 C   0  0  0  0  0  0  0  0  0  0  0  0
  144.5309  133.8190  152.0051 C   0  0  1  0  0  0  0  0  0  0  0  0
  143.8568  134.0888  153.2633 N   0  0  0  0  0  0  0  0  0  0  0  0
  143.8116  135.3907  153.5705 C   0  0  0  0  0  0  0  0  0  0  0  0
  143.3084  135.8624  154.5891 O   0  0  0  0  0  0  0  0  0  0  0  0
  144.4162  136.0779  152.5859 N   0  0  0  0  0  0  0  0  0  0  0  0
  144.6062  137.5338  152.5975 C   0  0  0  0  0  0  0  0  0  0  0  0
  145.6849  137.9862  153.5915 C   0  0  0  0  0  0  0  0  0  0  0  0
  146.5511  137.2035  153.9854 O   0  0  0  0  0  0  0  0  0  0  0  0
  145.6236  139.2672  153.9843 N   0  0  0  0  0  0  0  0  0  0  0  0
  146.5412  139.8961  154.9269 C   0  0  0  0  0  0  0  0  0  0  0  0
  147.5327  140.8343  154.2163 C   0  0  0  0  0  0  0  0  0  0  0  0
  148.9291  140.7411  154.7987 C   0  0  0  0  0  0  0  0  0  0  0  0
  149.6833  139.5488  154.7493 C   0  0  0  0  0  0  0  0  0  0  0  0
  150.9807  139.5310  155.3024 C   0  0  0  0  0  0  0  0  0  0  0  0
  151.4959  140.7043  155.8916 C   0  0  0  0  0  0  0  0  0  0  0  0
  150.7000  141.8678  155.9118 C   0  0  0  0  0  0  0  0  0  0  0  0
  149.4619  141.8452  155.3708 N   0  3  0  0  0  0  0  0  0  0  0  0
  144.8748  135.2615  151.6271 C   0  0  0  0  0  0  0  0  0  0  0  0
  145.4861  135.5923  150.6109 O   0  0  0  0  0  0  0  0  0  0  0  0
  147.3066  134.3616  152.7896 H   0  0  0  0  0  0  0  0  0  0  0  0
  147.6300  132.7318  153.3568 H   0  0  0  0  0  0  0  0  0  0  0  0
  146.4113  133.7059  154.1580 H   0  0  0  0  0  0  0  0  0  0  0  0
  145.4035  131.9809  152.6854 H   0  0  0  0  0  0  0  0  0  0  0  0
  146.8714  133.3417  150.3916 H   0  0  0  0  0  0  0  0  0  0  0  0
  147.2313  131.7766  151.0653 H   0  0  0  0  0  0  0  0  0  0  0  0
  145.8735  131.5735  148.9899 H   0  0  0  0  0  0  0  0  0  0  0  0
  145.0494  130.8866  150.3681 H   0  0  0  0  0  0  0  0  0  0  0  0
  144.5145  133.6239  149.1210 H   0  0  0  0  0  0  0  0  0  0  0  0
  143.4630  132.2368  149.0585 H   0  0  0  0  0  0  0  0  0  0  0  0
  142.7127  133.8618  150.7939 H   0  0  0  0  0  0  0  0  0  0  0  0
  143.0767  132.3011  151.4717 H   0  0  0  0  0  0  0  0  0  0  0  0
  143.4752  133.3564  153.8442 H   0  0  0  0  0  0  0  0  0  0  0  0
  144.8795  137.8909  151.6033 H   0  0  0  0  0  0  0  0  0  0  0  0
  143.6608  138.0232  152.8391 H   0  0  0  0  0  0  0  0  0  0  0  0
  144.8869  139.8448  153.6056 H   0  0  0  0  0  0  0  0  0  0  0  0
  145.9769  140.4405  155.6861 H   0  0  0  0  0  0  0  0  0  0  0  0
  147.0819  139.1061  155.4488 H   0  0  0  0  0  0  0  0  0  0  0  0
  147.5754  140.5976  153.1522 H   0  0  0  0  0  0  0  0  0  0  0  0
  147.1939  141.8689  154.2859 H   0  0  0  0  0  0  0  0  0  0  0  0
  149.2756  138.6588  154.2916 H   0  0  0  0  0  0  0  0  0  0  0  0
  151.5736  138.6283  155.2744 H   0  0  0  0  0  0  0  0  0  0  0  0
  152.4873  140.7114  156.3210 H   0  0  0  0  0  0  0  0  0  0  0  0
  151.0135  142.8084  156.3410 H   0  0  0  0  0  0  0  0  0  0  0  0
  148.9037  142.6990  155.3965 H   0  0  0  0  0  0  0  0  0  0  0  0
  1  2  1  0  0  0  0
  1 26  1  0  0  0  0
  1 27  1  0  0  0  0
  1 28  1  0  0  0  0
  2  7  1  0  0  0  0
  2  3  1  0  0  0  0
  2 29  1  0  0  0  0
  3  4  1  0  0  0  0
  3 30  1  0  0  0  0
  3 31  1  0  0  0  0
  4  5  1  0  0  0  0
  4 32  1  0  0  0  0
  4 33  1  0  0  0  0
  5  6  1  0  0  0  0
  5 34  1  0  0  0  0
  5 35  1  0  0  0  0
  6  7  1  0  0  0  0
  6 36  1  0  0  0  0
  6 37  1  0  0  0  0
  7 24  1  0  0  0  0
  7  8  1  0  0  0  0
  8  9  1  0  0  0  0
  8 38  1  0  0  0  0
  9 10  2  0  0  0  0
  9 11  1  0  0  0  0
 11 12  1  0  0  0  0
 11 24  1  0  0  0  0
 12 13  1  0  0  0  0
 12 39  1  0  0  0  0
 12 40  1  0  0  0  0
 13 14  2  0  0  0  0
 13 15  1  0  0  0  0
 15 16  1  0  0  0  0
 15 41  1  0  0  0  0
 16 17  1  0  0  0  0
 16 42  1  0  0  0  0
 16 43  1  0  0  0  0
 17 18  1  0  0  0  0
 17 44  1  0  0  0  0
 17 45  1  0  0  0  0
 18 23  1  0  0  0  0
 18 19  2  0  0  0  0
 19 20  1  0  0  0  0
 19 46  1  0  0  0  0
 20 21  2  0  0  0  0
 20 47  1  0  0  0  0
 21 22  1  0  0  0  0
 21 48  1  0  0  0  0
 22 23  2  0  0  0  0
 22 49  1  0  0  0  0
 23 50  1  0  0  0  0
 24 25  2  0  0  0  0
M  CHG  1  23   1
M  END
> <s_m_source_file>
AV-unprocessed.smi

> <i_m_source_file_index>
2973

> <i_lp_mmshare_version>
43012

> <i_f3d_flags>
0

> <s_epik_input>
W0NIMl0xW0NIMl1bQ0gyXVtDSDJdW0NAQEhdKFtDSDNdKVtDQF0xMltOSF1DKD1PKU4oQzI9TylbQ0gyXUMoPU8pW05IXVtDSDJdW0NIMl1jM1tjSF1bY0hdW2NIXVtjSF1uMw==

> <s_epik_cmdline>
J2VwaWtfcHl0aG9uJywgJy1waCcsICc3LjAnLCAnLXRuJywgJzgnLCAnLW1hJywgJzIwMCcsICctbWV0YWxfYmluZGluZycsICctaW1hZScsICc8aW5maWxlLm1hZT4nLCAnLW9tYWUnLCAnPG91dGZpbGUubWFlPic=

> <r_lp_tautomer_probability>
1

> <r_epik_Ionization_Penalty>
1.90043

> <r_epik_Ionization_Penalty_Charging>
1.90039

> <r_epik_Ionization_Penalty_Neutral>
4.65525e-05

> <r_epik_State_Penalty>
2.02162

> <r_epik_Charging_Adjusted_Penalty>
3.922

> <i_epik_Tot_Q>
1

> <i_epik_Tot_abs_Q>
1

> <r_epik_Metal_State_Penalty>
2.06631

> <b_epik_Metal_Only>
0

> <s_lp_Force_Field>
OPLS_2005

> <r_lp_Energy>
22.6609

> <b_lp_Chiralities_Consistent>
1

> <s_lp_Variant>
AV-unprocessed.smi:2973-5

> <Gold.Version>
5.8.1

> <Gold.Id.Protein>
6NUR|6NUR_protein|mol2

> <Gold.PLP.Fitness>
49.2145

> <Gold.PLP.PLP>
-39.1309

> <Gold.PLP.part.hbond>
-3.0000

> <Gold.PLP.part.metal>
0.0000

> <Gold.PLP.part.buried>
-2.9112

> <Gold.PLP.part.nonpolar>
-33.2702

> <Gold.PLP.part.repulsive>
0.5775

> <Gold.PLP.ligand.clash>
0.0000

> <Gold.PLP.ligand.torsion>
0.8503

> <Gold.PLP.Chemscore.Hbond>
3.9200

> <Gold.PLP.Chemscore.CHOScore>
0.0000

> <Gold.PLP.Chemscore.Metal>
0.0000

> <Gold.Chemscore.Hbonds>
donor molecule, donor type, donor heavy atom, donor atom, acceptor molecule, acceptor atom, score
      L1  H     8    38       P1 10957  1.00
      L1  H    15    41       P1 10175  1.00
      L1  H    23    50       P1  8028  1.92

> <Gold.PLP.Chemscore.Internal.Correction>
0.0243

> <Gold.Rescore>
     Score         DG    S(hbond)    S(metal)    S(lipo)     H(rot)  DE(clash)    DE(int)     intcor
     19.79     -21.15       2.77        0.00      97.96       1.96       0.47       0.89       ----

> <Gold.Chemscore.Fitness>
19.7924

> <Gold.Chemscore.DG>
-21.1504

> <Gold.Chemscore.ZeroCoef>
-5.4800

> <Gold.Chemscore.Hbond>
2.7654

> <Gold.Chemscore.Metal>
0.0000

> <Gold.Chemscore.Lipo>
97.9617

> <Gold.Chemscore.Internal_Hbond>
0.0000

> <Gold.Chemscore.DEClash>
0.4718

> <Gold.Chemscore.DEInternal>
0.8861

> <Gold.Chemscore.Rot>
1.9638

> <Gold.Chemscore.Internal.Correction>
   9.000000E+99

> <Gold.Chemscore.Hbonds>
donor molecule, donor type, donor heavy atom, donor atom, acceptor molecule, acceptor atom, score
      L1  H     8    38       P1 10957  0.94
      L1  H    15    41       P1 10175  1.00
      L1  H    23    50       P1  8028  0.86

> <Gold.Chemscore.Hbond.Weighted>
-9.2363

> <Gold.Chemscore.Metal.Weighted>
-0.0000

> <Gold.Chemscore.Lipo.Weighted>
-11.4615

> <Gold.Chemscore.Internal_Hbond.Weighted>
0.0000

> <Gold.Chemscore.DEClash.Weighted>
0.4718

> <Gold.Chemscore.DEInternal.Weighted>
0.8861

> <Gold.Chemscore.Rot.Weighted>
5.0274

> <Gold.Chemscore.Internal.Correction.Weighted>
   9.000000E+99

> <Gold.Protein.RotatedTorsions>
[ 6907 6896 6895 6894 ] final  153.29 input  -60.11 | X-H torsion
[ 7974 7965 7964 7962 ] final  121.63 input  175.53 | X-H torsion
[ 8008 7997 7996 7995 ] final   91.58 input   59.86 | X-H torsion
[ 10167 10162 10161 10158 ] final  173.99 input  -65.29 | X-H torsion
[ 10718 10713 10712 10709 ] final  131.85 input   66.30 | X-H torsion
[ 10763 10752 10751 10750 ] final   56.40 input  -60.55 | X-H torsion
[ 11005 11000 10999 10996 ] final  -13.54 input  -57.11 | X-H torsion

> <Gold.Protein.ActiveResidues>
 VAL166  LYS551  ARG553  GLY616  TRP617  ASP618  TYR619  PRO620  LYS621  CYS622 
 ASP623  PHE694  ASN695  SER759  ASP760  ASP761  ALA762  ILE779  LEU786  VAL792 
 PHE793  MET794  SER795  GLU796  ALA797  LYS798  CYS799  TRP800  GLU811  SER814 

> <Gold.Protein.RotatedAtoms>
  152.0748  133.4124  159.4474 H   0  0  0  0  0  0  0  0  0  0  0  0  # atno 6907 bound_to 6896
  150.6863  134.3050  159.4731 H   0  0  0  0  0  0  0  0  0  0  0  0  # atno 6908 bound_to 6896
  152.0885  134.9422  160.0623 H   0  0  0  0  0  0  0  0  0  0  0  0  # atno 6909 bound_to 6896
  145.1170  139.3414  143.4734 H   0  0  0  0  0  0  0  0  0  0  0  0  # atno 7974 bound_to 7965
  156.0254  140.3336  155.7083 H   0  0  0  0  0  0  0  0  0  0  0  0  # atno 8008 bound_to 7997
  155.5962  140.0651  157.2763 H   0  0  0  0  0  0  0  0  0  0  0  0  # atno 8009 bound_to 7997
  154.4332  140.1818  156.1113 H   0  0  0  0  0  0  0  0  0  0  0  0  # atno 8010 bound_to 7997
  139.5127  144.3197  152.0214 H   0  0  0  0  0  0  0  0  0  0  0  0  # atno 10167 bound_to 10162
  157.4928  131.1091  150.9534 H   0  0  0  0  0  0  0  0  0  0  0  0  # atno 10718 bound_to 10713
  152.9831  135.5678  154.5222 H   0  0  0  0  0  0  0  0  0  0  0  0  # atno 10763 bound_to 10752
  154.4708  135.2785  155.1646 H   0  0  0  0  0  0  0  0  0  0  0  0  # atno 10764 bound_to 10752
  154.3195  135.6272  153.5554 H   0  0  0  0  0  0  0  0  0  0  0  0  # atno 10765 bound_to 10752
  140.7771  133.8392  155.9259 H   0  0  0  0  0  0  0  0  0  0  0  0  # atno 11005 bound_to 11000
  146.3523  140.1113  142.8604 LP  0  0  0  0  0  0  0  0  0  0  0  0  # atno 17320 bound_to 7965
  145.0783  140.9203  143.4841 LP  0  0  0  0  0  0  0  0  0  0  0  0  # atno 17321 bound_to 7965
  140.2639  144.4037  150.6175 LP  0  0  0  0  0  0  0  0  0  0  0  0  # atno 17342 bound_to 10162
  140.6137  143.2171  151.6835 LP  0  0  0  0  0  0  0  0  0  0  0  0  # atno 17343 bound_to 10162
  157.0230  130.5681  149.5333 LP  0  0  0  0  0  0  0  0  0  0  0  0  # atno 17370 bound_to 10713
  156.0183  130.5278  150.8201 LP  0  0  0  0  0  0  0  0  0  0  0  0  # atno 17371 bound_to 10713
  140.9518  134.1769  157.4722 LP  0  0  0  0  0  0  0  0  0  0  0  0  # atno 17394 bound_to 11000
  139.8747  134.9912  156.5538 LP  0  0  0  0  0  0  0  0  0  0  0  0  # atno 17395 bound_to 11000

$$$$
