AV-unprocessed.smi:1700|AV-procd|sdf|6820|dock7
  -GOLD-   22720 7593D 1   1.00000     0.00000
 Structure written by MMmdl.
 34 35  0  0  0  0  0  0  0  0  1 V2000
  147.6790  133.0471  152.3246 C   0  0  0  0  0  0  0  0  0  0  0  0
  146.4122  133.0873  151.4853 C   0  0  0  0  0  0  0  0  0  0  0  0
  145.9007  131.8856  150.9511 C   0  0  0  0  0  0  0  0  0  0  0  0
  144.7290  131.9234  150.1759 C   0  0  0  0  0  0  0  0  0  0  0  0
  144.1145  133.1698  149.9668 C   0  0  0  0  0  0  0  0  0  0  0  0
  144.5968  134.3230  150.4729 N   0  0  0  0  0  0  0  0  0  0  0  0
  145.7274  134.3043  151.2229 C   0  0  0  0  0  0  0  0  0  0  0  0
  146.2945  135.4826  151.7865 N   0  0  0  0  0  0  0  0  0  0  0  0
  145.6740  136.4789  152.4429 C   0  0  0  0  0  0  0  0  0  0  0  0
  144.4674  136.5337  152.6829 O   0  0  0  0  0  0  0  0  0  0  0  0
  146.5434  137.4297  152.8141 N   0  0  0  0  0  0  0  0  0  0  0  0
  146.1910  138.6510  153.5291 C   0  0  0  0  0  0  0  0  0  0  0  0
  147.2638  139.7386  153.3561 C   0  0  1  0  0  0  0  0  0  0  0  0
  146.9435  141.0383  154.0881 C   0  0  0  0  0  0  0  0  0  0  0  0
  148.3153  141.6631  154.2073 C   0  0  0  0  0  0  0  0  0  0  0  0
  149.2118  140.4466  154.4344 C   0  0  0  0  0  0  0  0  0  0  0  0
  148.5020  139.3208  153.9219 O   0  0  0  0  0  0  0  0  0  0  0  0
  148.0640  132.0310  152.4144 H   0  0  0  0  0  0  0  0  0  0  0  0
  147.4832  133.4217  153.3297 H   0  0  0  0  0  0  0  0  0  0  0  0
  148.4575  133.6609  151.8706 H   0  0  0  0  0  0  0  0  0  0  0  0
  146.3977  130.9438  151.1315 H   0  0  0  0  0  0  0  0  0  0  0  0
  144.3125  131.0211  149.7532 H   0  0  0  0  0  0  0  0  0  0  0  0
  143.2121  133.2440  149.3780 H   0  0  0  0  0  0  0  0  0  0  0  0
  147.2921  135.5788  151.6708 H   0  0  0  0  0  0  0  0  0  0  0  0
  147.5164  137.3091  152.5739 H   0  0  0  0  0  0  0  0  0  0  0  0
  145.2235  139.0166  153.1807 H   0  0  0  0  0  0  0  0  0  0  0  0
  146.0682  138.4095  154.5851 H   0  0  0  0  0  0  0  0  0  0  0  0
  147.4258  139.9578  152.2992 H   0  0  0  0  0  0  0  0  0  0  0  0
  146.2332  141.6655  153.5490 H   0  0  0  0  0  0  0  0  0  0  0  0
  146.5382  140.8328  155.0800 H   0  0  0  0  0  0  0  0  0  0  0  0
  148.5812  142.1537  153.2699 H   0  0  0  0  0  0  0  0  0  0  0  0
  148.3836  142.3993  155.0087 H   0  0  0  0  0  0  0  0  0  0  0  0
  150.1784  140.5580  153.9428 H   0  0  0  0  0  0  0  0  0  0  0  0
  149.3899  140.2897  155.4987 H   0  0  0  0  0  0  0  0  0  0  0  0
  1  2  1  0  0  0  0
  1 18  1  0  0  0  0
  1 19  1  0  0  0  0
  1 20  1  0  0  0  0
  2  7  1  0  0  0  0
  2  3  2  0  0  0  0
  3  4  1  0  0  0  0
  3 21  1  0  0  0  0
  4  5  2  0  0  0  0
  4 22  1  0  0  0  0
  5  6  1  0  0  0  0
  5 23  1  0  0  0  0
  6  7  2  0  0  0  0
  7  8  1  0  0  0  0
  8  9  1  0  0  0  0
  8 24  1  0  0  0  0
  9 10  2  0  0  0  0
  9 11  1  0  0  0  0
 11 12  1  0  0  0  0
 11 25  1  0  0  0  0
 12 13  1  0  0  0  0
 12 26  1  0  0  0  0
 12 27  1  0  0  0  0
 13 17  1  0  0  0  0
 13 14  1  0  0  0  0
 13 28  1  0  0  0  0
 14 15  1  0  0  0  0
 14 29  1  0  0  0  0
 14 30  1  0  0  0  0
 15 16  1  0  0  0  0
 15 31  1  0  0  0  0
 15 32  1  0  0  0  0
 16 17  1  0  0  0  0
 16 33  1  0  0  0  0
 16 34  1  0  0  0  0
M  END
> <s_m_source_file>
AV-unprocessed.smi

> <i_m_source_file_index>
1700

> <i_lp_mmshare_version>
43012

> <i_f3d_flags>
0

> <s_epik_input>
W0NIM11jMVtjSF1bY0hdW2NIXW5jMVtOSF1DKD1PKVtOSF1bQ0gyXVtDQEBIXTJbQ0gyXVtDSDJdW0NIMl1PMg==

> <s_epik_cmdline>
J2VwaWtfcHl0aG9uJywgJy1waCcsICc3LjAnLCAnLXRuJywgJzgnLCAnLW1hJywgJzIwMCcsICctbWV0YWxfYmluZGluZycsICctaW1hZScsICc8aW5maWxlLm1hZT4nLCAnLW9tYWUnLCAnPG91dGZpbGUubWFlPic=

> <r_lp_tautomer_probability>
1

> <r_epik_Ionization_Penalty>
5.57253e-05

> <r_epik_Ionization_Penalty_Charging>
0

> <r_epik_Ionization_Penalty_Neutral>
5.57253e-05

> <r_epik_State_Penalty>
-0

> <r_epik_Charging_Adjusted_Penalty>
0

> <i_epik_Tot_Q>
0

> <i_epik_Tot_abs_Q>
0

> <r_epik_Metal_State_Penalty>
-0

> <b_epik_Metal_Only>
0

> <s_lp_Force_Field>
OPLS_2005

> <r_lp_Energy>
19.2835

> <b_lp_Chiralities_Consistent>
1

> <s_lp_Variant>
AV-unprocessed.smi:1700-2

> <Gold.Version>
5.8.1

> <Gold.Id.Protein>
6NUR|6NUR_protein|mol2

> <Gold.PLP.Fitness>
39.1344

> <Gold.PLP.PLP>
-31.2009

> <Gold.PLP.part.hbond>
-2.0000

> <Gold.PLP.part.metal>
0.0000

> <Gold.PLP.part.buried>
-4.4064

> <Gold.PLP.part.nonpolar>
-26.4861

> <Gold.PLP.part.repulsive>
1.2201

> <Gold.PLP.ligand.clash>
0.0000

> <Gold.PLP.ligand.torsion>
0.5354

> <Gold.PLP.Chemscore.Hbond>
2.0000

> <Gold.PLP.Chemscore.CHOScore>
1.0000

> <Gold.PLP.Chemscore.Metal>
0.0000

> <Gold.Chemscore.Hbonds>
donor molecule, donor type, donor heavy atom, donor atom, acceptor molecule, acceptor atom, score
      L1  H     8    24       P1  7948  1.00
      L1  H    11    25       P1  7948  1.00
      L1  C     5    23       P1 10186  1.00

> <Gold.PLP.Chemscore.Internal.Correction>
0.0043

> <Gold.Rescore>
     Score         DG    S(hbond)    S(metal)    S(lipo)     H(rot)  DE(clash)    DE(int)     intcor
     16.97     -17.55       1.96        0.00      74.26       1.23       0.05       0.53       ----

> <Gold.Chemscore.Fitness>
16.9704

> <Gold.Chemscore.DG>
-17.5520

> <Gold.Chemscore.ZeroCoef>
-5.4800

> <Gold.Chemscore.Hbond>
1.9585

> <Gold.Chemscore.Metal>
0.0000

> <Gold.Chemscore.Lipo>
74.2617

> <Gold.Chemscore.Internal_Hbond>
0.0000

> <Gold.Chemscore.DEClash>
0.0500

> <Gold.Chemscore.DEInternal>
0.5316

> <Gold.Chemscore.Rot>
1.2337

> <Gold.Chemscore.Internal.Correction>
   9.000000E+99

> <Gold.Chemscore.Hbonds>
donor molecule, donor type, donor heavy atom, donor atom, acceptor molecule, acceptor atom, score
      L1  H     8    24       P1  7948  0.99
      L1  H    11    25       P1  7948  0.95

> <Gold.Chemscore.Hbond.Weighted>
-6.5415

> <Gold.Chemscore.Metal.Weighted>
-0.0000

> <Gold.Chemscore.Lipo.Weighted>
-8.6886

> <Gold.Chemscore.Internal_Hbond.Weighted>
0.0000

> <Gold.Chemscore.DEClash.Weighted>
0.0500

> <Gold.Chemscore.DEInternal.Weighted>
0.5316

> <Gold.Chemscore.Rot.Weighted>
3.1582

> <Gold.Chemscore.Internal.Correction.Weighted>
   9.000000E+99

> <Gold.Protein.RotatedTorsions>
[ 6907 6896 6895 6894 ] final   82.64 input  -60.11 | X-H torsion
[ 7974 7965 7964 7962 ] final   58.29 input  175.53 | X-H torsion
[ 8008 7997 7996 7995 ] final  128.79 input   59.86 | X-H torsion
[ 10167 10162 10161 10158 ] final   40.81 input  -65.29 | X-H torsion
[ 10718 10713 10712 10709 ] final   71.32 input   66.30 | X-H torsion
[ 10763 10752 10751 10750 ] final  -28.12 input  -60.55 | X-H torsion
[ 11005 11000 10999 10996 ] final -171.94 input  -57.11 | X-H torsion

> <Gold.Protein.ActiveResidues>
 VAL166  LYS551  ARG553  GLY616  TRP617  ASP618  TYR619  PRO620  LYS621  CYS622 
 ASP623  PHE694  ASN695  SER759  ASP760  ASP761  ALA762  ILE779  LEU786  VAL792 
 PHE793  MET794  SER795  GLU796  ALA797  LYS798  CYS799  TRP800  GLU811  SER814 

> <Gold.Protein.RotatedAtoms>
  152.5305  134.3018  159.9080 H   0  0  0  0  0  0  0  0  0  0  0  0  # atno 6907 bound_to 6896
  151.2968  133.4134  159.2644 H   0  0  0  0  0  0  0  0  0  0  0  0  # atno 6908 bound_to 6896
  151.0153  134.9444  159.8087 H   0  0  0  0  0  0  0  0  0  0  0  0  # atno 6909 bound_to 6896
  145.9198  139.3720  143.0485 H   0  0  0  0  0  0  0  0  0  0  0  0  # atno 7974 bound_to 7965
  156.2922  140.2636  156.2492 H   0  0  0  0  0  0  0  0  0  0  0  0  # atno 8008 bound_to 7997
  154.9899  140.0389  157.2333 H   0  0  0  0  0  0  0  0  0  0  0  0  # atno 8009 bound_to 7997
  154.7695  140.2775  155.6154 H   0  0  0  0  0  0  0  0  0  0  0  0  # atno 8010 bound_to 7997
  140.3705  144.2111  150.6133 H   0  0  0  0  0  0  0  0  0  0  0  0  # atno 10167 bound_to 10162
  157.6445  130.9522  150.0772 H   0  0  0  0  0  0  0  0  0  0  0  0  # atno 10718 bound_to 10713
  153.7432  135.6931  153.4962 H   0  0  0  0  0  0  0  0  0  0  0  0  # atno 10763 bound_to 10752
  153.2055  135.4421  155.0316 H   0  0  0  0  0  0  0  0  0  0  0  0  # atno 10764 bound_to 10752
  154.8213  135.3423  154.6956 H   0  0  0  0  0  0  0  0  0  0  0  0  # atno 10765 bound_to 10752
  140.5026  134.5878  157.4993 H   0  0  0  0  0  0  0  0  0  0  0  0  # atno 11005 bound_to 11000
  145.8564  140.9500  143.0723 LP  0  0  0  0  0  0  0  0  0  0  0  0  # atno 17320 bound_to 7965
  144.6752  140.0474  143.7479 LP  0  0  0  0  0  0  0  0  0  0  0  0  # atno 17321 bound_to 7965
  140.5038  143.2310  151.8639 LP  0  0  0  0  0  0  0  0  0  0  0  0  # atno 17342 bound_to 10162
  139.4804  144.5029  151.9036 LP  0  0  0  0  0  0  0  0  0  0  0  0  # atno 17343 bound_to 10162
  156.1759  130.3648  149.9101 LP  0  0  0  0  0  0  0  0  0  0  0  0  # atno 17370 bound_to 10713
  156.7065  130.8953  151.3605 LP  0  0  0  0  0  0  0  0  0  0  0  0  # atno 17371 bound_to 10713
  139.9704  134.7302  156.0052 LP  0  0  0  0  0  0  0  0  0  0  0  0  # atno 17394 bound_to 11000
  141.1427  133.6561  156.3777 LP  0  0  0  0  0  0  0  0  0  0  0  0  # atno 17395 bound_to 11000

$$$$
