AV-unprocessed.smi:2466|AV-procd|sdf|9724|dock8
  -GOLD-   2272013363D 1   1.00000     0.00000
 Structure written by MMmdl.
 36 37  0  0  0  0  0  0  0  0  1 V2000
  150.6879  141.4891  155.8968 C   0  0  0  0  0  0  0  0  0  0  0  0
  150.4044  140.4406  154.9771 O   0  0  0  0  0  0  0  0  0  0  0  0
  149.0996  140.2735  154.5616 C   0  0  0  0  0  0  0  0  0  0  0  0
  148.7599  139.1436  153.7898 C   0  0  0  0  0  0  0  0  0  0  0  0
  147.4122  139.0083  153.3876 C   0  0  0  0  0  0  0  0  0  0  0  0
  147.1122  137.8538  152.6172 N   0  0  0  0  0  0  0  0  0  0  0  0
  145.9039  137.3348  152.3368 C   0  0  0  0  0  0  0  0  0  0  0  0
  144.8259  137.8066  152.6993 O   0  0  0  0  0  0  0  0  0  0  0  0
  146.0155  136.2209  151.5979 N   0  0  0  0  0  0  0  0  0  0  0  0
  144.9058  135.3950  151.1265 C   0  0  0  0  0  0  0  0  0  0  0  0
  145.1165  133.9030  151.4295 C   0  0  0  0  0  0  0  0  0  0  0  0
  145.3784  133.7432  152.9347 C   0  0  0  0  0  0  0  0  0  0  0  0
  144.0675  132.9368  150.8378 C   0  0  0  0  0  0  0  0  0  0  0  0
  145.1916  131.9718  150.4657 C   0  0  0  0  0  0  0  0  0  0  0  0
  146.1297  133.1767  150.5182 C   0  0  0  0  0  0  0  0  0  0  0  0
  146.5023  139.9485  153.7438 N   0  0  0  0  0  0  0  0  0  0  0  0
  146.9244  140.9819  154.4748 C   0  0  0  0  0  0  0  0  0  0  0  0
  148.1686  141.1968  154.9035 N   0  0  0  0  0  0  0  0  0  0  0  0
  151.7537  141.4906  156.1252 H   0  0  0  0  0  0  0  0  0  0  0  0
  150.1489  141.3522  156.8354 H   0  0  0  0  0  0  0  0  0  0  0  0
  150.4373  142.4653  155.4791 H   0  0  0  0  0  0  0  0  0  0  0  0
  149.5079  138.4115  153.5220 H   0  0  0  0  0  0  0  0  0  0  0  0
  147.9101  137.3593  152.2472 H   0  0  0  0  0  0  0  0  0  0  0  0
  146.9428  135.9137  151.3432 H   0  0  0  0  0  0  0  0  0  0  0  0
  144.0088  135.7570  151.6297 H   0  0  0  0  0  0  0  0  0  0  0  0
  144.7202  135.5499  150.0622 H   0  0  0  0  0  0  0  0  0  0  0  0
  145.6734  132.7248  153.1881 H   0  0  0  0  0  0  0  0  0  0  0  0
  144.4915  133.9698  153.5267 H   0  0  0  0  0  0  0  0  0  0  0  0
  146.1788  134.4009  153.2750 H   0  0  0  0  0  0  0  0  0  0  0  0
  143.3510  132.5417  151.5588 H   0  0  0  0  0  0  0  0  0  0  0  0
  143.5606  133.3414  149.9597 H   0  0  0  0  0  0  0  0  0  0  0  0
  145.3973  131.2349  151.2433 H   0  0  0  0  0  0  0  0  0  0  0  0
  145.0927  131.5108  149.4826 H   0  0  0  0  0  0  0  0  0  0  0  0
  146.2476  133.6514  149.5424 H   0  0  0  0  0  0  0  0  0  0  0  0
  147.0985  132.9767  150.9771 H   0  0  0  0  0  0  0  0  0  0  0  0
  146.1828  141.7181  154.7478 H   0  0  0  0  0  0  0  0  0  0  0  0
  1  2  1  0  0  0  0
  1 19  1  0  0  0  0
  1 20  1  0  0  0  0
  1 21  1  0  0  0  0
  2  3  1  0  0  0  0
  3 18  1  0  0  0  0
  3  4  2  0  0  0  0
  4  5  1  0  0  0  0
  4 22  1  0  0  0  0
  5  6  1  0  0  0  0
  5 16  2  0  0  0  0
  6  7  1  0  0  0  0
  6 23  1  0  0  0  0
  7  8  2  0  0  0  0
  7  9  1  0  0  0  0
  9 10  1  0  0  0  0
  9 24  1  0  0  0  0
 10 11  1  0  0  0  0
 10 25  1  0  0  0  0
 10 26  1  0  0  0  0
 11 15  1  0  0  0  0
 11 12  1  0  0  0  0
 11 13  1  0  0  0  0
 12 27  1  0  0  0  0
 12 28  1  0  0  0  0
 12 29  1  0  0  0  0
 13 14  1  0  0  0  0
 13 30  1  0  0  0  0
 13 31  1  0  0  0  0
 14 15  1  0  0  0  0
 14 32  1  0  0  0  0
 14 33  1  0  0  0  0
 15 34  1  0  0  0  0
 15 35  1  0  0  0  0
 16 17  1  0  0  0  0
 17 18  2  0  0  0  0
 17 36  1  0  0  0  0
M  END
> <s_m_source_file>
AV-unprocessed.smi

> <i_m_source_file_index>
2466

> <i_lp_mmshare_version>
43012

> <i_f3d_flags>
0

> <s_epik_input>
W0NIM11PYzFbY0hdYyhuW2NIXW4xKVtOSF1DKD1PKVtOSF1bQ0gyXUMyKFtDSDNdKVtDSDJdW0NIMl1bQ0gyXTI=

> <s_epik_cmdline>
J2VwaWtfcHl0aG9uJywgJy1waCcsICc3LjAnLCAnLXRuJywgJzgnLCAnLW1hJywgJzIwMCcsICctbWV0YWxfYmluZGluZycsICctaW1hZScsICc8aW5maWxlLm1hZT4nLCAnLW9tYWUnLCAnPG91dGZpbGUubWFlPic=

> <r_lp_tautomer_probability>
1

> <r_epik_Ionization_Penalty>
2.72078e-05

> <r_epik_Ionization_Penalty_Charging>
0

> <r_epik_Ionization_Penalty_Neutral>
2.72078e-05

> <r_epik_State_Penalty>
-0

> <r_epik_Charging_Adjusted_Penalty>
0

> <i_epik_Tot_Q>
0

> <i_epik_Tot_abs_Q>
0

> <r_epik_Metal_State_Penalty>
-0

> <b_epik_Metal_Only>
0

> <s_lp_Force_Field>
OPLS_2005

> <r_lp_Energy>
15.1515

> <b_lp_Chiralities_Consistent>
1

> <s_lp_Variant>
AV-unprocessed.smi:2466-1

> <Gold.Version>
5.8.1

> <Gold.Id.Protein>
6NUR|6NUR_protein|mol2

> <Gold.PLP.Fitness>
37.5669

> <Gold.PLP.PLP>
-29.3804

> <Gold.PLP.part.hbond>
-3.0000

> <Gold.PLP.part.metal>
0.0000

> <Gold.PLP.part.buried>
-4.7935

> <Gold.PLP.part.nonpolar>
-24.2041

> <Gold.PLP.part.repulsive>
2.0613

> <Gold.PLP.ligand.clash>
0.0000

> <Gold.PLP.ligand.torsion>
0.2402

> <Gold.PLP.Chemscore.Hbond>
2.8480

> <Gold.PLP.Chemscore.CHOScore>
0.0000

> <Gold.PLP.Chemscore.Metal>
0.0000

> <Gold.Chemscore.Hbonds>
donor molecule, donor type, donor heavy atom, donor atom, acceptor molecule, acceptor atom, score
      L1  H     6    23       P1  7948  1.00
      L1  H     9    24       P1  7948  0.79
      P1  H  7989  7998       L1     2  1.00

> <Gold.PLP.Chemscore.Internal.Correction>
0.1229

> <Gold.Rescore>
     Score         DG    S(hbond)    S(metal)    S(lipo)     H(rot)  DE(clash)    DE(int)     intcor
     14.19     -16.30       2.62        0.00      53.28       1.62       0.32       1.79       ----

> <Gold.Chemscore.Fitness>
14.1879

> <Gold.Chemscore.DG>
-16.3022

> <Gold.Chemscore.ZeroCoef>
-5.4800

> <Gold.Chemscore.Hbond>
2.6160

> <Gold.Chemscore.Metal>
0.0000

> <Gold.Chemscore.Lipo>
53.2816

> <Gold.Chemscore.Internal_Hbond>
0.0000

> <Gold.Chemscore.DEClash>
0.3235

> <Gold.Chemscore.DEInternal>
1.7908

> <Gold.Chemscore.Rot>
1.6207

> <Gold.Chemscore.Internal.Correction>
   9.000000E+99

> <Gold.Chemscore.Hbonds>
donor molecule, donor type, donor heavy atom, donor atom, acceptor molecule, acceptor atom, score
      L1  H     6    23       P1  7948  0.97
      L1  H     9    24       P1  7948  0.74
      P1  H  7989  7998       L1     2  0.24

> <Gold.Chemscore.Hbond.Weighted>
-8.7374

> <Gold.Chemscore.Metal.Weighted>
-0.0000

> <Gold.Chemscore.Lipo.Weighted>
-6.2340

> <Gold.Chemscore.Internal_Hbond.Weighted>
0.0000

> <Gold.Chemscore.DEClash.Weighted>
0.3235

> <Gold.Chemscore.DEInternal.Weighted>
1.7908

> <Gold.Chemscore.Rot.Weighted>
4.1491

> <Gold.Chemscore.Internal.Correction.Weighted>
   9.000000E+99

> <Gold.Protein.RotatedTorsions>
[ 6907 6896 6895 6894 ] final  -48.36 input  -60.11 | X-H torsion
[ 7974 7965 7964 7962 ] final  -76.97 input  175.53 | X-H torsion
[ 8008 7997 7996 7995 ] final  -68.95 input   59.86 | X-H torsion
[ 10167 10162 10161 10158 ] final -169.92 input  -65.29 | X-H torsion
[ 10718 10713 10712 10709 ] final   79.34 input   66.30 | X-H torsion
[ 10763 10752 10751 10750 ] final  134.69 input  -60.55 | X-H torsion
[ 11005 11000 10999 10996 ] final    1.23 input  -57.11 | X-H torsion

> <Gold.Protein.ActiveResidues>
 VAL166  LYS551  ARG553  GLY616  TRP617  ASP618  TYR619  PRO620  LYS621  CYS622 
 ASP623  PHE694  ASN695  SER759  ASP760  ASP761  ALA762  ILE779  LEU786  VAL792 
 PHE793  MET794  SER795  GLU796  ALA797  LYS798  CYS799  TRP800  GLU811  SER814 

> <Gold.Protein.RotatedAtoms>
  150.8913  134.8317  159.7295 H   0  0  0  0  0  0  0  0  0  0  0  0  # atno 6907 bound_to 6896
  152.4839  134.4644  159.9625 H   0  0  0  0  0  0  0  0  0  0  0  0  # atno 6908 bound_to 6896
  151.4706  133.3531  159.2858 H   0  0  0  0  0  0  0  0  0  0  0  0  # atno 6909 bound_to 6896
  145.6059  140.9398  143.1216 H   0  0  0  0  0  0  0  0  0  0  0  0  # atno 7974 bound_to 7965
  154.4904  140.0863  156.7581 H   0  0  0  0  0  0  0  0  0  0  0  0  # atno 8008 bound_to 7997
  155.4246  140.3447  155.4256 H   0  0  0  0  0  0  0  0  0  0  0  0  # atno 8009 bound_to 7997
  156.1321  140.1504  156.9037 H   0  0  0  0  0  0  0  0  0  0  0  0  # atno 8010 bound_to 7997
  139.5893  144.1248  152.1615 H   0  0  0  0  0  0  0  0  0  0  0  0  # atno 10167 bound_to 10162
  157.6773  130.9909  150.1918 H   0  0  0  0  0  0  0  0  0  0  0  0  # atno 10718 bound_to 10713
  153.8277  135.3108  155.3416 H   0  0  0  0  0  0  0  0  0  0  0  0  # atno 10763 bound_to 10752
  154.7986  135.4740  154.0224 H   0  0  0  0  0  0  0  0  0  0  0  0  # atno 10764 bound_to 10752
  153.1653  135.6868  153.8774 H   0  0  0  0  0  0  0  0  0  0  0  0  # atno 10765 bound_to 10752
  140.6178  133.9689  155.8209 H   0  0  0  0  0  0  0  0  0  0  0  0  # atno 11005 bound_to 11000
  144.7290  139.7784  143.7354 LP  0  0  0  0  0  0  0  0  0  0  0  0  # atno 17320 bound_to 7965
  146.1541  139.4633  143.0030 LP  0  0  0  0  0  0  0  0  0  0  0  0  # atno 17321 bound_to 7965
  140.0819  144.5694  150.7116 LP  0  0  0  0  0  0  0  0  0  0  0  0  # atno 17342 bound_to 10162
  140.7159  143.2544  151.4435 LP  0  0  0  0  0  0  0  0  0  0  0  0  # atno 17343 bound_to 10162
  156.2627  130.3712  149.8113 LP  0  0  0  0  0  0  0  0  0  0  0  0  # atno 17370 bound_to 10713
  156.5853  130.8483  151.3394 LP  0  0  0  0  0  0  0  0  0  0  0  0  # atno 17371 bound_to 10713
  141.0764  134.0129  157.3452 LP  0  0  0  0  0  0  0  0  0  0  0  0  # atno 17394 bound_to 11000
  139.9166  135.0197  156.7903 LP  0  0  0  0  0  0  0  0  0  0  0  0  # atno 17395 bound_to 11000

$$$$
