AV-unprocessed.smi:3197|AV-procd|sdf|12225|dock4
  -GOLD-   2272018 53D 1   1.00000     0.00000
 Structure written by MMmdl.
 33 34  0  0  0  0  0  0  0  0  1 V2000
  145.2087  136.2993  151.3859 C   0  0  0  0  0  0  0  0  0  0  0  0
  144.9331  137.0163  152.5674 C   0  0  0  0  0  0  0  0  0  0  0  0
  145.5835  138.1604  152.8731 N   0  0  0  0  0  0  0  0  0  0  0  0
  146.5039  138.5864  152.0042 C   0  0  0  0  0  0  0  0  0  0  0  0
  147.1500  139.7583  152.3489 N   0  0  0  0  0  0  0  0  0  0  0  0
  146.7220  140.6427  153.4221 C   0  0  0  0  0  0  0  0  0  0  0  0
  147.8138  141.6526  153.7905 C   0  0  0  0  0  0  0  0  0  0  0  0
  149.0199  140.9577  154.0615 O   0  0  0  0  0  0  0  0  0  0  0  0
  149.0595  140.4194  155.3727 C   0  0  0  0  0  0  0  0  0  0  0  0
  150.4735  139.8933  155.6571 C   0  0  2  0  0  0  0  0  0  0  0  0
  150.6782  138.4405  155.2798 C   0  0  0  0  0  0  0  0  0  0  0  0
  151.9232  138.0811  156.0846 C   0  0  0  0  0  0  0  0  0  0  0  0
  151.8574  138.8682  157.2702 O   0  0  0  0  0  0  0  0  0  0  0  0
  150.8494  139.8670  157.1393 C   0  0  0  0  0  0  0  0  0  0  0  0
  146.8462  137.9876  150.8568 N   0  0  0  0  0  0  0  0  0  0  0  0
  146.1994  136.8435  150.5447 C   0  0  0  0  0  0  0  0  0  0  0  0
  144.6903  135.3847  151.1390 H   0  0  0  0  0  0  0  0  0  0  0  0
  144.1889  136.6709  153.2695 H   0  0  0  0  0  0  0  0  0  0  0  0
  147.9973  139.9855  151.8491 H   0  0  0  0  0  0  0  0  0  0  0  0
  145.8316  141.1786  153.0914 H   0  0  0  0  0  0  0  0  0  0  0  0
  146.4377  140.0546  154.2955 H   0  0  0  0  0  0  0  0  0  0  0  0
  147.9528  142.3778  152.9869 H   0  0  0  0  0  0  0  0  0  0  0  0
  147.5098  142.2060  154.6802 H   0  0  0  0  0  0  0  0  0  0  0  0
  148.7815  141.1814  156.1029 H   0  0  0  0  0  0  0  0  0  0  0  0
  148.3382  139.6051  155.4586 H   0  0  0  0  0  0  0  0  0  0  0  0
  151.2031  140.4985  155.1162 H   0  0  0  0  0  0  0  0  0  0  0  0
  149.8320  137.8370  155.6120 H   0  0  0  0  0  0  0  0  0  0  0  0
  150.8077  138.2886  154.2078 H   0  0  0  0  0  0  0  0  0  0  0  0
  151.9792  137.0168  156.3139 H   0  0  0  0  0  0  0  0  0  0  0  0
  152.8236  138.3573  155.5346 H   0  0  0  0  0  0  0  0  0  0  0  0
  151.2008  140.8355  157.4960 H   0  0  0  0  0  0  0  0  0  0  0  0
  149.9954  139.5729  157.7510 H   0  0  0  0  0  0  0  0  0  0  0  0
  146.4738  136.3598  149.6190 H   0  0  0  0  0  0  0  0  0  0  0  0
  1 16  1  0  0  0  0
  1  2  2  0  0  0  0
  1 17  1  0  0  0  0
  2  3  1  0  0  0  0
  2 18  1  0  0  0  0
  3  4  2  0  0  0  0
  4  5  1  0  0  0  0
  4 15  1  0  0  0  0
  5  6  1  0  0  0  0
  5 19  1  0  0  0  0
  6  7  1  0  0  0  0
  6 20  1  0  0  0  0
  6 21  1  0  0  0  0
  7  8  1  0  0  0  0
  7 22  1  0  0  0  0
  7 23  1  0  0  0  0
  8  9  1  0  0  0  0
  9 10  1  0  0  0  0
  9 24  1  0  0  0  0
  9 25  1  0  0  0  0
 10 14  1  0  0  0  0
 10 11  1  0  0  0  0
 10 26  1  0  0  0  0
 11 12  1  0  0  0  0
 11 27  1  0  0  0  0
 11 28  1  0  0  0  0
 12 13  1  0  0  0  0
 12 29  1  0  0  0  0
 12 30  1  0  0  0  0
 13 14  1  0  0  0  0
 14 31  1  0  0  0  0
 14 32  1  0  0  0  0
 15 16  2  0  0  0  0
 16 33  1  0  0  0  0
M  END
> <s_m_source_file>
AV-unprocessed.smi

> <i_m_source_file_index>
3197

> <i_lp_mmshare_version>
43012

> <i_f3d_flags>
0

> <s_epik_input>
bjFbY0hdW2NIXVtjSF1uYzFbTkhdW0NIMl1bQ0gyXU9bQ0gyXVtDQEBIXTJbQ0gyXVtDSDJdT1tDSDJdMg==

> <s_epik_cmdline>
J2VwaWtfcHl0aG9uJywgJy1waCcsICc3LjAnLCAnLXRuJywgJzgnLCAnLW1hJywgJzIwMCcsICctbWV0YWxfYmluZGluZycsICctaW1hZScsICc8aW5maWxlLm1hZT4nLCAnLW9tYWUnLCAnPG91dGZpbGUubWFlPic=

> <r_lp_tautomer_probability>
1

> <r_epik_Ionization_Penalty>
0.000570263

> <r_epik_Ionization_Penalty_Charging>
0

> <r_epik_Ionization_Penalty_Neutral>
0.000570263

> <r_epik_State_Penalty>
0.000357543

> <r_epik_Charging_Adjusted_Penalty>
0.000357543

> <i_epik_Tot_Q>
0

> <i_epik_Tot_abs_Q>
0

> <r_epik_Metal_State_Penalty>
-0

> <b_epik_Metal_Only>
0

> <s_lp_Force_Field>
OPLS_2005

> <r_lp_Energy>
12.4723

> <b_lp_Chiralities_Consistent>
1

> <s_lp_Variant>
AV-unprocessed.smi:3197-1

> <Gold.Version>
5.8.1

> <Gold.Id.Protein>
6NUR|6NUR_protein|mol2

> <Gold.PLP.Fitness>
41.2216

> <Gold.PLP.PLP>
-28.6004

> <Gold.PLP.part.hbond>
-4.9446

> <Gold.PLP.part.metal>
0.0000

> <Gold.PLP.part.buried>
-0.0766

> <Gold.PLP.part.nonpolar>
-28.5287

> <Gold.PLP.part.repulsive>
4.0232

> <Gold.PLP.ligand.clash>
0.0000

> <Gold.PLP.ligand.torsion>
0.5920

> <Gold.PLP.Chemscore.Hbond>
3.5883

> <Gold.PLP.Chemscore.CHOScore>
0.9893

> <Gold.PLP.Chemscore.Metal>
0.0000

> <Gold.Chemscore.Hbonds>
donor molecule, donor type, donor heavy atom, donor atom, acceptor molecule, acceptor atom, score
      L1  H     5    19       P1  7957  1.00
      P1  H  7954  7966       L1    15  1.00
      L1  C    16    33       P1  7921  1.00

> <Gold.PLP.Chemscore.Internal.Correction>
0.0726

> <Gold.Rescore>
     Score         DG    S(hbond)    S(metal)    S(lipo)     H(rot)  DE(clash)    DE(int)     intcor
     13.03     -18.14       2.75        0.00      70.82       1.88       4.45       0.66       ----

> <Gold.Chemscore.Fitness>
13.0279

> <Gold.Chemscore.DG>
-18.1370

> <Gold.Chemscore.ZeroCoef>
-5.4800

> <Gold.Chemscore.Hbond>
2.7486

> <Gold.Chemscore.Metal>
0.0000

> <Gold.Chemscore.Lipo>
70.8156

> <Gold.Chemscore.Internal_Hbond>
0.0000

> <Gold.Chemscore.DEClash>
4.4474

> <Gold.Chemscore.DEInternal>
0.6617

> <Gold.Chemscore.Rot>
1.8784

> <Gold.Chemscore.Internal.Correction>
   9.000000E+99

> <Gold.Chemscore.Hbonds>
donor molecule, donor type, donor heavy atom, donor atom, acceptor molecule, acceptor atom, score
      L1  H     5    19       P1  7957  1.00
      P1  H  7954  7966       L1    15  0.30

> <Gold.Chemscore.Hbond.Weighted>
-9.1803

> <Gold.Chemscore.Metal.Weighted>
-0.0000

> <Gold.Chemscore.Lipo.Weighted>
-8.2854

> <Gold.Chemscore.Internal_Hbond.Weighted>
0.0000

> <Gold.Chemscore.DEClash.Weighted>
4.4474

> <Gold.Chemscore.DEInternal.Weighted>
0.6617

> <Gold.Chemscore.Rot.Weighted>
4.8087

> <Gold.Chemscore.Internal.Correction.Weighted>
   9.000000E+99

> <Gold.Protein.RotatedTorsions>
[ 6907 6896 6895 6894 ] final -165.03 input  -60.11 | X-H torsion
[ 7974 7965 7964 7962 ] final -135.20 input  175.53 | X-H torsion
[ 8008 7997 7996 7995 ] final -176.58 input   59.86 | X-H torsion
[ 10167 10162 10161 10158 ] final -160.08 input  -65.29 | X-H torsion
[ 10718 10713 10712 10709 ] final  148.59 input   66.30 | X-H torsion
[ 10763 10752 10751 10750 ] final  100.45 input  -60.55 | X-H torsion
[ 11005 11000 10999 10996 ] final   21.82 input  -57.11 | X-H torsion

> <Gold.Protein.ActiveResidues>
 VAL166  LYS551  ARG553  GLY616  TRP617  ASP618  TYR619  PRO620  LYS621  CYS622 
 ASP623  PHE694  ASN695  SER759  ASP760  ASP761  ALA762  ILE779  LEU786  VAL792 
 PHE793  MET794  SER795  GLU796  ALA797  LYS798  CYS799  TRP800  GLU811  SER814 

> <Gold.Protein.RotatedAtoms>
  151.4212  133.3698  159.2756 H   0  0  0  0  0  0  0  0  0  0  0  0  # atno 6907 bound_to 6896
  150.9292  134.8709  159.7551 H   0  0  0  0  0  0  0  0  0  0  0  0  # atno 6908 bound_to 6896
  152.5020  134.4155  159.9515 H   0  0  0  0  0  0  0  0  0  0  0  0  # atno 6909 bound_to 6896
  144.9035  140.6803  143.5070 H   0  0  0  0  0  0  0  0  0  0  0  0  # atno 7974 bound_to 7965
  155.9966  140.1212  157.0588 H   0  0  0  0  0  0  0  0  0  0  0  0  # atno 8008 bound_to 7997
  154.4228  140.1115  156.5707 H   0  0  0  0  0  0  0  0  0  0  0  0  # atno 8009 bound_to 7997
  155.6271  140.3472  155.4673 H   0  0  0  0  0  0  0  0  0  0  0  0  # atno 8010 bound_to 7997
  139.6566  143.9987  152.2198 H   0  0  0  0  0  0  0  0  0  0  0  0  # atno 10167 bound_to 10162
  157.3067  131.0880  151.1348 H   0  0  0  0  0  0  0  0  0  0  0  0  # atno 10718 bound_to 10713
  153.3140  135.4078  155.1361 H   0  0  0  0  0  0  0  0  0  0  0  0  # atno 10763 bound_to 10752
  154.8583  135.3571  154.5685 H   0  0  0  0  0  0  0  0  0  0  0  0  # atno 10764 bound_to 10752
  153.6115  135.7067  153.5404 H   0  0  0  0  0  0  0  0  0  0  0  0  # atno 10765 bound_to 10752
  140.3874  134.1856  155.7663 H   0  0  0  0  0  0  0  0  0  0  0  0  # atno 11005 bound_to 11000
  145.3575  139.1690  143.4401 LP  0  0  0  0  0  0  0  0  0  0  0  0  # atno 17320 bound_to 7965
  146.3121  140.3634  142.8667 LP  0  0  0  0  0  0  0  0  0  0  0  0  # atno 17321 bound_to 7965
  139.9715  144.6490  150.7984 LP  0  0  0  0  0  0  0  0  0  0  0  0  # atno 17342 bound_to 10162
  140.7562  143.3061  151.2959 LP  0  0  0  0  0  0  0  0  0  0  0  0  # atno 17343 bound_to 10162
  157.2686  130.6693  149.6008 LP  0  0  0  0  0  0  0  0  0  0  0  0  # atno 17370 bound_to 10713
  155.9675  130.4486  150.5626 LP  0  0  0  0  0  0  0  0  0  0  0  0  # atno 17371 bound_to 10713
  141.1903  133.8220  157.0925 LP  0  0  0  0  0  0  0  0  0  0  0  0  # atno 17394 bound_to 11000
  140.0432  134.9843  157.1001 LP  0  0  0  0  0  0  0  0  0  0  0  0  # atno 17395 bound_to 11000

$$$$
