AV-unprocessed.smi:2969|AV-procd|sdf|11330|dock3
  -GOLD-   2272016243D 1   1.00000     0.00000
 Structure written by MMmdl.
 39 39  0  0  0  0  0  0  0  0  2 V2000
  148.3753  141.4729  154.2735 C   0  0  0  0  0  0  0  0  0  0  0  0
  149.3162  140.9659  155.3744 C   0  0  0  0  0  0  0  0  0  0  0  0
  148.6115  140.6085  156.7005 C   0  0  0  0  0  0  0  0  0  0  0  0
  149.3841  139.6522  157.5264 N   0  0  0  0  0  0  0  0  0  0  0  0
  148.7630  138.4392  157.9302 C   0  0  0  0  0  0  0  0  0  0  0  0
  147.4594  138.1834  157.5304 N   0  0  0  0  0  0  0  0  0  0  0  0
  149.4421  137.5532  158.7061 C   0  0  0  0  0  0  0  0  0  0  0  0
  148.8825  136.3326  159.1250 N   0  0  0  0  0  0  0  0  0  0  0  0
  148.9511  135.2162  158.1681 C   0  0  0  0  0  0  0  0  0  0  0  0
  150.2484  135.2284  157.3336 C   0  0  0  0  0  0  0  0  0  0  0  0
  151.1228  134.1732  157.7080 O   0  0  0  0  0  0  0  0  0  0  0  0
  152.2210  133.9927  156.8272 C   0  0  0  0  0  0  0  0  0  0  0  0
  148.4051  136.1415  160.3849 C   0  0  0  0  0  0  0  0  0  0  0  0
  148.3605  137.0626  161.2037 O   0  0  0  0  0  0  0  0  0  0  0  0
  147.9153  134.7485  160.8361 C   0  0  0  0  0  0  0  0  0  0  0  0
  146.8449  134.3835  160.1318 F   0  0  0  0  0  0  0  0  0  0  0  0
  148.8848  133.8456  160.6906 F   0  0  0  0  0  0  0  0  0  0  0  0
  147.5742  134.7903  162.1254 F   0  0  0  0  0  0  0  0  0  0  0  0
  150.8291  137.8526  159.0785 C   0  0  0  0  0  0  0  0  0  0  0  0
  151.4744  137.0485  159.7515 O   0  0  0  0  0  0  0  0  0  0  0  0
  151.3569  139.0309  158.6552 N   0  5  0  0  0  0  0  0  0  0  0  0
  150.6716  139.9349  157.8983 C   0  0  0  0  0  0  0  0  0  0  0  0
  151.1839  140.9984  157.5470 O   0  0  0  0  0  0  0  0  0  0  0  0
  148.9394  141.7737  153.3907 H   0  0  0  0  0  0  0  0  0  0  0  0
  147.8014  142.3356  154.6126 H   0  0  0  0  0  0  0  0  0  0  0  0
  147.6712  140.7002  153.9642 H   0  0  0  0  0  0  0  0  0  0  0  0
  149.8705  140.1053  154.9998 H   0  0  0  0  0  0  0  0  0  0  0  0
  150.0622  141.7354  155.5753 H   0  0  0  0  0  0  0  0  0  0  0  0
  148.4239  141.5193  157.2697 H   0  0  0  0  0  0  0  0  0  0  0  0
  147.6079  140.2418  156.4813 H   0  0  0  0  0  0  0  0  0  0  0  0
  146.9370  138.8331  156.9607 H   0  0  0  0  0  0  0  0  0  0  0  0
  146.9911  137.3222  157.7732 H   0  0  0  0  0  0  0  0  0  0  0  0
  148.8869  134.2661  158.7015 H   0  0  0  0  0  0  0  0  0  0  0  0
  148.0709  135.2446  157.5248 H   0  0  0  0  0  0  0  0  0  0  0  0
  150.0452  135.1938  156.2624 H   0  0  0  0  0  0  0  0  0  0  0  0
  150.7821  136.1606  157.5145 H   0  0  0  0  0  0  0  0  0  0  0  0
  152.8634  133.1990  157.2081 H   0  0  0  0  0  0  0  0  0  0  0  0
  152.8211  134.9004  156.7535 H   0  0  0  0  0  0  0  0  0  0  0  0
  151.8993  133.7045  155.8268 H   0  0  0  0  0  0  0  0  0  0  0  0
  1  2  1  0  0  0  0
  1 24  1  0  0  0  0
  1 25  1  0  0  0  0
  1 26  1  0  0  0  0
  2  3  1  0  0  0  0
  2 27  1  0  0  0  0
  2 28  1  0  0  0  0
  3  4  1  0  0  0  0
  3 29  1  0  0  0  0
  3 30  1  0  0  0  0
  4 22  1  0  0  0  0
  4  5  1  0  0  0  0
  5  6  1  0  0  0  0
  5  7  2  0  0  0  0
  6 31  1  0  0  0  0
  6 32  1  0  0  0  0
  7  8  1  0  0  0  0
  7 19  1  0  0  0  0
  8  9  1  0  0  0  0
  8 13  1  0  0  0  0
  9 10  1  0  0  0  0
  9 33  1  0  0  0  0
  9 34  1  0  0  0  0
 10 11  1  0  0  0  0
 10 35  1  0  0  0  0
 10 36  1  0  0  0  0
 11 12  1  0  0  0  0
 12 37  1  0  0  0  0
 12 38  1  0  0  0  0
 12 39  1  0  0  0  0
 13 14  2  0  0  0  0
 13 15  1  0  0  0  0
 15 16  1  0  0  0  0
 15 17  1  0  0  0  0
 15 18  1  0  0  0  0
 19 20  2  0  0  0  0
 19 21  1  0  0  0  0
 21 22  1  0  0  0  0
 22 23  2  0  0  0  0
M  CHG  1  21  -1
M  END
> <s_m_source_file>
AV-unprocessed.smi

> <i_m_source_file_index>
2969

> <i_lp_mmshare_version>
43012

> <i_f3d_flags>
0

> <s_epik_input>
W0NIM11bQ0gyXVtDSDJdbjFjKFtOSDJdKWMoYyg9TylbbkhdYzE9TylOKEMoPU8pQyhGKShGKUYpW0NIMl1bQ0gyXU9bQ0gzXQ==

> <s_epik_cmdline>
J2VwaWtfcHl0aG9uJywgJy1waCcsICc3LjAnLCAnLXRuJywgJzgnLCAnLW1hJywgJzIwMCcsICctbWV0YWxfYmluZGluZycsICctaW1hZScsICc8aW5maWxlLm1hZT4nLCAnLW9tYWUnLCAnPG91dGZpbGUubWFlPic=

> <r_lp_tautomer_probability>
1

> <r_epik_Ionization_Penalty>
4.29138

> <r_epik_Ionization_Penalty_Charging>
0.0262752

> <r_epik_Ionization_Penalty_Neutral>
4.26511

> <r_epik_State_Penalty>
4.26466

> <r_epik_Charging_Adjusted_Penalty>
4.29094

> <i_epik_Tot_Q>
-1

> <i_epik_Tot_abs_Q>
1

> <r_epik_Metal_State_Penalty>
0.502851

> <b_epik_Metal_Only>
1

> <s_epik_Chemistry_Notes>
This compound has an imine and may undergo hydrolysis.

> <s_lp_Force_Field>
OPLS_2005

> <r_lp_Energy>
42.256

> <b_lp_Chiralities_Consistent>
1

> <s_lp_Variant>
AV-unprocessed.smi:2969-2

> <Gold.Version>
5.8.1

> <Gold.Id.Protein>
6NUR|6NUR_protein|mol2

> <Gold.PLP.Fitness>
36.3220

> <Gold.PLP.PLP>
-28.5844

> <Gold.PLP.part.hbond>
-3.9459

> <Gold.PLP.part.metal>
0.0000

> <Gold.PLP.part.buried>
-4.2905

> <Gold.PLP.part.nonpolar>
-20.4056

> <Gold.PLP.part.repulsive>
0.0690

> <Gold.PLP.ligand.clash>
4.2698

> <Gold.PLP.ligand.torsion>
2.3202

> <Gold.PLP.Chemscore.Hbond>
3.6661

> <Gold.PLP.Chemscore.CHOScore>
0.0000

> <Gold.PLP.Chemscore.Metal>
0.0000

> <Gold.Chemscore.Hbonds>
donor molecule, donor type, donor heavy atom, donor atom, acceptor molecule, acceptor atom, score
      P1  H  6896  6908       L1    11  0.32
      P1  H  6896  6909       L1    20  1.00
      P1  H  6931  6943       L1    14  1.00
      P1  H  6934  6947       L1    14  0.20

> <Gold.PLP.Chemscore.Internal.Correction>
5.6496

> <Gold.Rescore>
     Score         DG    S(hbond)    S(metal)    S(lipo)     H(rot)  DE(clash)    DE(int)     intcor
     10.47     -15.23       3.44        0.00      34.02       2.24       0.01       4.75       ----

> <Gold.Chemscore.Fitness>
10.4741

> <Gold.Chemscore.DG>
-15.2330

> <Gold.Chemscore.ZeroCoef>
-5.4800

> <Gold.Chemscore.Hbond>
3.4427

> <Gold.Chemscore.Metal>
0.0000

> <Gold.Chemscore.Lipo>
34.0176

> <Gold.Chemscore.Internal_Hbond>
0.0000

> <Gold.Chemscore.DEClash>
0.0073

> <Gold.Chemscore.DEInternal>
4.7515

> <Gold.Chemscore.Rot>
2.2366

> <Gold.Chemscore.Internal.Correction>
   9.000000E+99

> <Gold.Chemscore.Hbonds>
donor molecule, donor type, donor heavy atom, donor atom, acceptor molecule, acceptor atom, score
      P1  H  6896  6908       L1    11  0.21
      P1  H  6896  6909       L1    20  1.00
      P1  H  6931  6943       L1    14  0.92
      P1  H  6934  6947       L1    14  0.20

> <Gold.Chemscore.Hbond.Weighted>
-11.4987

> <Gold.Chemscore.Metal.Weighted>
-0.0000

> <Gold.Chemscore.Lipo.Weighted>
-3.9801

> <Gold.Chemscore.Internal_Hbond.Weighted>
0.0000

> <Gold.Chemscore.DEClash.Weighted>
0.0073

> <Gold.Chemscore.DEInternal.Weighted>
4.7515

> <Gold.Chemscore.Rot.Weighted>
5.7257

> <Gold.Chemscore.Internal.Correction.Weighted>
   9.000000E+99

> <Gold.Protein.RotatedTorsions>
[ 6907 6896 6895 6894 ] final  120.27 input  -60.11 | X-H torsion
[ 7974 7965 7964 7962 ] final  -56.98 input  175.53 | X-H torsion
[ 8008 7997 7996 7995 ] final  160.04 input   59.86 | X-H torsion
[ 10167 10162 10161 10158 ] final -122.29 input  -65.29 | X-H torsion
[ 10718 10713 10712 10709 ] final  174.78 input   66.30 | X-H torsion
[ 10763 10752 10751 10750 ] final   29.91 input  -60.55 | X-H torsion
[ 11005 11000 10999 10996 ] final   94.82 input  -57.11 | X-H torsion

> <Gold.Protein.ActiveResidues>
 VAL166  LYS551  ARG553  GLY616  TRP617  ASP618  TYR619  PRO620  LYS621  CYS622 
 ASP623  PHE694  ASN695  SER759  ASP760  ASP761  ALA762  ILE779  LEU786  VAL792 
 PHE793  MET794  SER795  GLU796  ALA797  LYS798  CYS799  TRP800  GLU811  SER814 

> <Gold.Protein.RotatedAtoms>
  152.4410  133.7449  159.6661 H   0  0  0  0  0  0  0  0  0  0  0  0  # atno 6907 bound_to 6896
  150.8301  133.8095  159.3108 H   0  0  0  0  0  0  0  0  0  0  0  0  # atno 6908 bound_to 6896
  151.5751  135.1063  160.0056 H   0  0  0  0  0  0  0  0  0  0  0  0  # atno 6909 bound_to 6896
  145.8563  140.8317  142.9959 H   0  0  0  0  0  0  0  0  0  0  0  0  # atno 7974 bound_to 7965
  156.2199  140.1815  156.7501 H   0  0  0  0  0  0  0  0  0  0  0  0  # atno 8008 bound_to 7997
  154.5849  140.0660  156.9186 H   0  0  0  0  0  0  0  0  0  0  0  0  # atno 8009 bound_to 7997
  155.2437  140.3324  155.4292 H   0  0  0  0  0  0  0  0  0  0  0  0  # atno 8010 bound_to 7997
  140.0159  143.5394  152.2242 H   0  0  0  0  0  0  0  0  0  0  0  0  # atno 10167 bound_to 10162
  156.9446  131.0012  151.2961 H   0  0  0  0  0  0  0  0  0  0  0  0  # atno 10718 bound_to 10713
  153.0402  135.6477  154.0963 H   0  0  0  0  0  0  0  0  0  0  0  0  # atno 10763 bound_to 10752
  154.0671  135.2883  155.3316 H   0  0  0  0  0  0  0  0  0  0  0  0  # atno 10764 bound_to 10752
  154.6619  135.5388  153.8093 H   0  0  0  0  0  0  0  0  0  0  0  0  # atno 10765 bound_to 10752
  139.8795  134.8866  156.3920 H   0  0  0  0  0  0  0  0  0  0  0  0  # atno 11005 bound_to 11000
  144.6727  140.1029  143.7459 LP  0  0  0  0  0  0  0  0  0  0  0  0  # atno 17320 bound_to 7965
  145.9299  139.2599  143.1331 LP  0  0  0  0  0  0  0  0  0  0  0  0  # atno 17321 bound_to 7965
  139.6173  144.7622  151.2818 LP  0  0  0  0  0  0  0  0  0  0  0  0  # atno 17342 bound_to 10162
  140.7362  143.6713  150.8079 LP  0  0  0  0  0  0  0  0  0  0  0  0  # atno 17343 bound_to 10162
  157.5762  130.8345  149.8459 LP  0  0  0  0  0  0  0  0  0  0  0  0  # atno 17370 bound_to 10713
  156.0389  130.3744  150.1486 LP  0  0  0  0  0  0  0  0  0  0  0  0  # atno 17371 bound_to 10713
  140.9326  133.7569  156.0044 LP  0  0  0  0  0  0  0  0  0  0  0  0  # atno 17394 bound_to 11000
  140.8313  134.3175  157.5348 LP  0  0  0  0  0  0  0  0  0  0  0  0  # atno 17395 bound_to 11000

$$$$
