AV-unprocessed.smi:254|AV-procd|sdf|1945|dock9
  -GOLD-   2262021 73D 1   1.00000     0.00000
 Structure written by MMmdl.
 50 53  0  0  0  0  0  0  0  0  1 V2000
  146.7606  136.9856  153.4903 O   0  0  0  0  0  0  0  0  0  0  0  0
  147.7503  136.9436  154.2194 C   0  0  0  0  0  0  0  0  0  0  0  0
  148.6402  138.1453  154.4783 C   0  0  0  0  0  0  0  0  0  0  0  0
  149.6175  137.5853  155.4038 N   0  0  0  0  0  0  0  0  0  0  0  0
  150.6403  138.3072  155.9301 C   0  0  0  0  0  0  0  0  0  0  0  0
  151.7342  137.6353  156.3760 N   0  0  0  0  0  0  0  0  0  0  0  0
  152.7674  138.2943  156.9058 C   0  0  0  0  0  0  0  0  0  0  0  0
  152.9153  139.6073  157.0807 N   0  0  0  0  0  0  0  0  0  0  0  0
  151.8277  140.2946  156.6312 C   0  0  0  0  0  0  0  0  0  0  0  0
  150.6539  139.7293  156.0521 C   0  0  0  0  0  0  0  0  0  0  0  0
  149.7606  140.7456  155.7321 N   0  0  0  0  0  0  0  0  0  0  0  0
  150.3671  141.8396  156.1001 C   0  0  0  0  0  0  0  0  0  0  0  0
  151.6232  141.6648  156.6349 N   0  0  0  0  0  0  0  0  0  0  0  0
  152.5145  142.7108  157.1214 C   0  0  0  0  0  0  0  0  0  0  0  0
  152.1392  143.2746  158.5182 C   0  0  2  0  0  0  0  0  0  0  0  0
  152.0476  144.8193  158.4761 C   0  0  0  0  0  0  0  0  0  0  0  0
  150.9098  145.2632  157.7671 O   0  0  0  0  0  0  0  0  0  0  0  0
  153.0949  142.7590  159.6300 C   0  0  2  0  0  0  0  0  0  0  0  0
  153.1780  141.2444  159.7357 C   0  0  0  0  0  0  0  0  0  0  0  0
  153.8031  141.0468  161.1122 C   0  0  0  0  0  0  0  0  0  0  0  0
  153.3618  142.1485  161.8969 O   0  0  0  0  0  0  0  0  0  0  0  0
  152.6864  143.0896  161.0693 C   0  0  0  0  0  0  0  0  0  0  0  0
  149.3729  136.1789  155.6917 C   0  0  0  0  0  0  0  0  0  0  0  0
  148.1959  135.8773  154.8935 N   0  0  0  0  0  0  0  0  0  0  0  0
  147.5986  134.5440  154.9142 C   0  0  0  0  0  0  0  0  0  0  0  0
  148.2883  133.5753  153.9370 C   0  0  0  0  0  0  0  0  0  0  0  0
  147.9192  132.3294  154.2305 F   0  0  0  0  0  0  0  0  0  0  0  0
  147.9415  133.8323  152.6761 F   0  0  0  0  0  0  0  0  0  0  0  0
  149.6133  133.6640  154.0542 F   0  0  0  0  0  0  0  0  0  0  0  0
  149.1093  138.4862  153.5545 H   0  0  0  0  0  0  0  0  0  0  0  0
  148.0739  138.9599  154.9312 H   0  0  0  0  0  0  0  0  0  0  0  0
  153.5937  137.6821  157.2356 H   0  0  0  0  0  0  0  0  0  0  0  0
  149.9105  142.8118  155.9852 H   0  0  0  0  0  0  0  0  0  0  0  0
  153.5230  142.2971  157.1564 H   0  0  0  0  0  0  0  0  0  0  0  0
  152.5542  143.5077  156.3790 H   0  0  0  0  0  0  0  0  0  0  0  0
  151.1393  142.8968  158.7375 H   0  0  0  0  0  0  0  0  0  0  0  0
  152.0381  145.2401  159.4822 H   0  0  0  0  0  0  0  0  0  0  0  0
  152.9146  145.2351  157.9627 H   0  0  0  0  0  0  0  0  0  0  0  0
  150.9585  144.9341  156.8825 H   0  0  0  0  0  0  0  0  0  0  0  0
  154.0969  143.1580  159.4668 H   0  0  0  0  0  0  0  0  0  0  0  0
  152.1784  140.8077  159.7162 H   0  0  0  0  0  0  0  0  0  0  0  0
  153.7629  140.7751  158.9466 H   0  0  0  0  0  0  0  0  0  0  0  0
  153.5222  140.0956  161.5644 H   0  0  0  0  0  0  0  0  0  0  0  0
  154.8909  141.0838  161.0447 H   0  0  0  0  0  0  0  0  0  0  0  0
  152.9407  144.1106  161.3542 H   0  0  0  0  0  0  0  0  0  0  0  0
  151.6128  142.9545  161.2080 H   0  0  0  0  0  0  0  0  0  0  0  0
  150.2154  135.5589  155.3823 H   0  0  0  0  0  0  0  0  0  0  0  0
  149.1698  136.0210  156.7519 H   0  0  0  0  0  0  0  0  0  0  0  0
  147.6591  134.1450  155.9276 H   0  0  0  0  0  0  0  0  0  0  0  0
  146.5353  134.6174  154.6801 H   0  0  0  0  0  0  0  0  0  0  0  0
  1  2  2  0  0  0  0
  2 24  1  0  0  0  0
  2  3  1  0  0  0  0
  3  4  1  0  0  0  0
  3 30  1  0  0  0  0
  3 31  1  0  0  0  0
  4  5  1  0  0  0  0
  4 23  1  0  0  0  0
  5 10  1  0  0  0  0
  5  6  2  0  0  0  0
  6  7  1  0  0  0  0
  7  8  2  0  0  0  0
  7 32  1  0  0  0  0
  8  9  1  0  0  0  0
  9 13  1  0  0  0  0
  9 10  2  0  0  0  0
 10 11  1  0  0  0  0
 11 12  2  0  0  0  0
 12 13  1  0  0  0  0
 12 33  1  0  0  0  0
 13 14  1  0  0  0  0
 14 15  1  0  0  0  0
 14 34  1  0  0  0  0
 14 35  1  0  0  0  0
 15 16  1  0  0  0  0
 15 18  1  0  0  0  0
 15 36  1  0  0  0  0
 16 17  1  0  0  0  0
 16 37  1  0  0  0  0
 16 38  1  0  0  0  0
 17 39  1  0  0  0  0
 18 22  1  0  0  0  0
 18 19  1  0  0  0  0
 18 40  1  0  0  0  0
 19 20  1  0  0  0  0
 19 41  1  0  0  0  0
 19 42  1  0  0  0  0
 20 21  1  0  0  0  0
 20 43  1  0  0  0  0
 20 44  1  0  0  0  0
 21 22  1  0  0  0  0
 22 45  1  0  0  0  0
 22 46  1  0  0  0  0
 23 24  1  0  0  0  0
 23 47  1  0  0  0  0
 23 48  1  0  0  0  0
 24 25  1  0  0  0  0
 25 26  1  0  0  0  0
 25 49  1  0  0  0  0
 25 50  1  0  0  0  0
 26 27  1  0  0  0  0
 26 28  1  0  0  0  0
 26 29  1  0  0  0  0
M  END
> <s_m_source_file>
AV-unprocessed.smi

> <i_m_source_file_index>
254

> <i_lp_mmshare_version>
43012

> <i_f3d_flags>
0

> <s_epik_input>
RkMoRikoRilbQ0gyXU4xW0NIMl1OKFtDSDJdQzE9TyljKG5bY0hdbjIpYyhjMjMpbltjSF1uM1tDSDJdW0NASF0oW0NIMl1bT0hdKVtDQEBIXTRbQ0gyXVtDSDJdT1tDSDJdNA==

> <s_epik_cmdline>
J2VwaWtfcHl0aG9uJywgJy1waCcsICc3LjAnLCAnLXRuJywgJzgnLCAnLW1hJywgJzIwMCcsICctbWV0YWxfYmluZGluZycsICctaW1hZScsICc8aW5maWxlLm1hZT4nLCAnLW9tYWUnLCAnPG91dGZpbGUubWFlPic=

> <r_lp_tautomer_probability>
1

> <r_epik_Ionization_Penalty>
0.000292924

> <r_epik_Ionization_Penalty_Charging>
0

> <r_epik_Ionization_Penalty_Neutral>
0.000292924

> <r_epik_State_Penalty>
-0

> <r_epik_Charging_Adjusted_Penalty>
0

> <i_epik_Tot_Q>
0

> <i_epik_Tot_abs_Q>
0

> <r_epik_Metal_State_Penalty>
-0

> <b_epik_Metal_Only>
0

> <s_epik_Chemistry_Notes>
This compound contains an acetal/aminal-like group ( X-CH(R)-Y where X, Y are N, S, or O) that may be acid/base labile, releasing an aldehyde.

> <s_lp_Force_Field>
OPLS_2005

> <r_lp_Energy>
38.7096

> <b_lp_Chiralities_Consistent>
1

> <s_lp_Variant>
AV-unprocessed.smi:254-1

> <Gold.Version>
5.8.1

> <Gold.Id.Protein>
6NUR|6NUR_protein|mol2

> <Gold.PLP.Fitness>
46.9032

> <Gold.PLP.PLP>
-41.6964

> <Gold.PLP.part.hbond>
-3.0000

> <Gold.PLP.part.metal>
0.0000

> <Gold.PLP.part.buried>
-4.5005

> <Gold.PLP.part.nonpolar>
-34.1013

> <Gold.PLP.part.repulsive>
0.1326

> <Gold.PLP.ligand.clash>
0.0000

> <Gold.PLP.ligand.torsion>
1.7660

> <Gold.PLP.Chemscore.Hbond>
1.7993

> <Gold.PLP.Chemscore.CHOScore>
1.0000

> <Gold.PLP.Chemscore.Metal>
0.0000

> <Gold.Chemscore.Hbonds>
donor molecule, donor type, donor heavy atom, donor atom, acceptor molecule, acceptor atom, score
      L1  H    17    39       P1  8028  0.05
      P1  H  7997  8008       L1     8  1.00
      L1  C    12    33       P1  8028  1.00

> <Gold.PLP.Chemscore.Internal.Correction>
0.3408

> <Gold.Rescore>
     Score         DG    S(hbond)    S(metal)    S(lipo)     H(rot)  DE(clash)    DE(int)     intcor
      6.99     -11.39       1.21        0.00      87.98       3.30       1.76       2.63       ----

> <Gold.Chemscore.Fitness>
6.9933

> <Gold.Chemscore.DG>
-11.3854

> <Gold.Chemscore.ZeroCoef>
-5.4800

> <Gold.Chemscore.Hbond>
1.2134

> <Gold.Chemscore.Metal>
0.0000

> <Gold.Chemscore.Lipo>
87.9828

> <Gold.Chemscore.Internal_Hbond>
0.0000

> <Gold.Chemscore.DEClash>
1.7633

> <Gold.Chemscore.DEInternal>
2.6289

> <Gold.Chemscore.Rot>
3.2974

> <Gold.Chemscore.Internal.Correction>
   9.000000E+99

> <Gold.Chemscore.Hbonds>
donor molecule, donor type, donor heavy atom, donor atom, acceptor molecule, acceptor atom, score
      L1  H    17    39       P1  8028  0.05
      P1  H  7997  8008       L1     8  0.77

> <Gold.Chemscore.Hbond.Weighted>
-4.0529

> <Gold.Chemscore.Metal.Weighted>
-0.0000

> <Gold.Chemscore.Lipo.Weighted>
-10.2940

> <Gold.Chemscore.Internal_Hbond.Weighted>
0.0000

> <Gold.Chemscore.DEClash.Weighted>
1.7633

> <Gold.Chemscore.DEInternal.Weighted>
2.6289

> <Gold.Chemscore.Rot.Weighted>
8.4414

> <Gold.Chemscore.Internal.Correction.Weighted>
   9.000000E+99

> <Gold.Protein.RotatedTorsions>
[ 6907 6896 6895 6894 ] final  -87.20 input  -60.11 | X-H torsion
[ 7974 7965 7964 7962 ] final  102.27 input  175.53 | X-H torsion
[ 8008 7997 7996 7995 ] final  -75.97 input   59.86 | X-H torsion
[ 10167 10162 10161 10158 ] final  171.76 input  -65.29 | X-H torsion
[ 10718 10713 10712 10709 ] final   -8.69 input   66.30 | X-H torsion
[ 10763 10752 10751 10750 ] final  -56.59 input  -60.55 | X-H torsion
[ 11005 11000 10999 10996 ] final -152.56 input  -57.11 | X-H torsion

> <Gold.Protein.ActiveResidues>
 VAL166  LYS551  ARG553  GLY616  TRP617  ASP618  TYR619  PRO620  LYS621  CYS622 
 ASP623  PHE694  ASN695  SER759  ASP760  ASP761  ALA762  ILE779  LEU786  VAL792 
 PHE793  MET794  SER795  GLU796  ALA797  LYS798  CYS799  TRP800  GLU811  SER814 

> <Gold.Protein.RotatedAtoms>
  150.6866  134.2933  159.4675 H   0  0  0  0  0  0  0  0  0  0  0  0  # atno 6907 bound_to 6896
  152.0836  134.9452  160.0582 H   0  0  0  0  0  0  0  0  0  0  0  0  # atno 6908 bound_to 6896
  152.0795  133.4111  159.4532 H   0  0  0  0  0  0  0  0  0  0  0  0  # atno 6909 bound_to 6896
  145.3613  139.2417  143.3505 H   0  0  0  0  0  0  0  0  0  0  0  0  # atno 7974 bound_to 7965
  154.5464  140.0735  156.8595 H   0  0  0  0  0  0  0  0  0  0  0  0  # atno 8008 bound_to 7997
  155.3080  140.3388  155.4227 H   0  0  0  0  0  0  0  0  0  0  0  0  # atno 8009 bound_to 7997
  156.1921  140.1690  156.8056 H   0  0  0  0  0  0  0  0  0  0  0  0  # atno 8010 bound_to 7997
  139.5056  144.3450  151.9980 H   0  0  0  0  0  0  0  0  0  0  0  0  # atno 10167 bound_to 10162
  156.6990  130.5087  149.5922 H   0  0  0  0  0  0  0  0  0  0  0  0  # atno 10718 bound_to 10713
  154.2091  135.6397  153.5110 H   0  0  0  0  0  0  0  0  0  0  0  0  # atno 10763 bound_to 10752
  152.9994  135.5469  154.6234 H   0  0  0  0  0  0  0  0  0  0  0  0  # atno 10764 bound_to 10752
  154.5667  135.2913  155.0841 H   0  0  0  0  0  0  0  0  0  0  0  0  # atno 10765 bound_to 10752
  140.7176  134.3763  157.5188 H   0  0  0  0  0  0  0  0  0  0  0  0  # atno 11005 bound_to 11000
  146.2926  140.4247  142.8734 LP  0  0  0  0  0  0  0  0  0  0  0  0  # atno 17320 bound_to 7965
  144.8644  140.7186  143.6086 LP  0  0  0  0  0  0  0  0  0  0  0  0  # atno 17321 bound_to 7965
  140.2887  144.3778  150.6095 LP  0  0  0  0  0  0  0  0  0  0  0  0  # atno 17342 bound_to 10162
  140.5963  143.2167  151.7158 LP  0  0  0  0  0  0  0  0  0  0  0  0  # atno 17343 bound_to 10162
  156.1743  130.6457  151.0875 LP  0  0  0  0  0  0  0  0  0  0  0  0  # atno 17370 bound_to 10713
  157.6980  131.0786  150.6908 LP  0  0  0  0  0  0  0  0  0  0  0  0  # atno 17371 bound_to 10713
  139.8856  134.8933  156.2634 LP  0  0  0  0  0  0  0  0  0  0  0  0  # atno 17394 bound_to 11000
  141.0031  133.7139  156.0992 LP  0  0  0  0  0  0  0  0  0  0  0  0  # atno 17395 bound_to 11000

$$$$
