AV-unprocessed.smi:1754|AV-procd|sdf|7067|dock2
  -GOLD-   22720 8283D 1   1.00000     0.00000
 Structure written by MMmdl.
 44 45  0  0  0  0  0  0  0  0  1 V2000
  151.8977  145.6787  160.0870 C   0  0  0  0  0  0  0  0  0  0  0  0
  151.3060  144.5570  159.2211 C   0  0  0  0  0  0  0  0  0  0  0  0
  152.1411  143.3546  159.2125 N   0  0  0  0  0  0  0  0  0  0  0  0
  153.1304  143.2215  160.2832 C   0  0  0  0  0  0  0  0  0  0  0  0
  152.5010  142.8917  161.6460 C   0  0  0  0  0  0  0  0  0  0  0  0
  151.5717  142.1969  158.6294 C   0  0  0  0  0  0  0  0  0  0  0  0
  152.1544  140.9122  158.7702 C   0  0  0  0  0  0  0  0  0  0  0  0
  151.5357  139.8015  158.1649 C   0  0  0  0  0  0  0  0  0  0  0  0
  150.3400  139.9957  157.4364 C   0  0  0  0  0  0  0  0  0  0  0  0
  149.6307  138.9684  156.7594 N   0  0  0  0  0  0  0  0  0  0  0  0
  149.8657  137.6419  156.7428 C   0  0  0  0  0  0  0  0  0  0  0  0
  150.7228  137.0731  157.4150 O   0  0  0  0  0  0  0  0  0  0  0  0
  149.0425  136.9488  155.9348 N   0  0  0  0  0  0  0  0  0  0  0  0
  149.0252  135.5058  155.6862 C   0  0  1  0  0  0  0  0  0  0  0  0
  150.3436  135.0028  155.0601 C   0  0  0  0  0  0  0  0  0  0  0  0
  150.3961  133.4744  155.1764 C   0  0  0  0  0  0  0  0  0  0  0  0
  149.4328  133.0416  156.6749 S   0  0  0  0  0  0  0  0  0  0  0  0
  148.3109  132.1753  156.2825 O   0  0  0  0  0  0  0  0  0  0  0  0
  150.3484  132.6522  157.7576 O   0  0  0  0  0  0  0  0  0  0  0  0
  148.8095  134.7340  156.9941 C   0  0  0  0  0  0  0  0  0  0  0  0
  149.8403  141.3087  157.3437 C   0  0  0  0  0  0  0  0  0  0  0  0
  150.4298  142.3746  157.9222 N   0  0  0  0  0  0  0  0  0  0  0  0
  151.2624  146.5637  160.0564 H   0  0  0  0  0  0  0  0  0  0  0  0
  152.8887  145.9702  159.7380 H   0  0  0  0  0  0  0  0  0  0  0  0
  151.9854  145.3709  161.1294 H   0  0  0  0  0  0  0  0  0  0  0  0
  150.2920  144.3280  159.5488 H   0  0  0  0  0  0  0  0  0  0  0  0
  151.2013  144.9130  158.1959 H   0  0  0  0  0  0  0  0  0  0  0  0
  153.8243  142.4211  160.0244 H   0  0  0  0  0  0  0  0  0  0  0  0
  153.7374  144.1246  160.3466 H   0  0  0  0  0  0  0  0  0  0  0  0
  153.2748  142.7541  162.4013 H   0  0  0  0  0  0  0  0  0  0  0  0
  151.9226  141.9687  161.5953 H   0  0  0  0  0  0  0  0  0  0  0  0
  151.8374  143.6802  161.9993 H   0  0  0  0  0  0  0  0  0  0  0  0
  153.0620  140.7531  159.3313 H   0  0  0  0  0  0  0  0  0  0  0  0
  151.9989  138.8322  158.2628 H   0  0  0  0  0  0  0  0  0  0  0  0
  148.8278  139.2785  156.2320 H   0  0  0  0  0  0  0  0  0  0  0  0
  148.3248  137.4829  155.4661 H   0  0  0  0  0  0  0  0  0  0  0  0
  148.1998  135.2531  155.0180 H   0  0  0  0  0  0  0  0  0  0  0  0
  150.4561  135.3236  154.0242 H   0  0  0  0  0  0  0  0  0  0  0  0
  151.1846  135.4232  155.6136 H   0  0  0  0  0  0  0  0  0  0  0  0
  149.9141  133.0036  154.3193 H   0  0  0  0  0  0  0  0  0  0  0  0
  151.4134  133.0910  155.2578 H   0  0  0  0  0  0  0  0  0  0  0  0
  149.4021  135.1568  157.8062 H   0  0  0  0  0  0  0  0  0  0  0  0
  147.7654  134.6986  157.3058 H   0  0  0  0  0  0  0  0  0  0  0  0
  148.9362  141.5135  156.7890 H   0  0  0  0  0  0  0  0  0  0  0  0
  1  2  1  0  0  0  0
  1 23  1  0  0  0  0
  1 24  1  0  0  0  0
  1 25  1  0  0  0  0
  2  3  1  0  0  0  0
  2 26  1  0  0  0  0
  2 27  1  0  0  0  0
  3  4  1  0  0  0  0
  3  6  1  0  0  0  0
  4  5  1  0  0  0  0
  4 28  1  0  0  0  0
  4 29  1  0  0  0  0
  5 30  1  0  0  0  0
  5 31  1  0  0  0  0
  5 32  1  0  0  0  0
  6 22  1  0  0  0  0
  6  7  2  0  0  0  0
  7  8  1  0  0  0  0
  7 33  1  0  0  0  0
  8  9  2  0  0  0  0
  8 34  1  0  0  0  0
  9 10  1  0  0  0  0
  9 21  1  0  0  0  0
 10 11  1  0  0  0  0
 10 35  1  0  0  0  0
 11 12  2  0  0  0  0
 11 13  1  0  0  0  0
 13 14  1  0  0  0  0
 13 36  1  0  0  0  0
 14 20  1  0  0  0  0
 14 15  1  0  0  0  0
 14 37  1  0  0  0  0
 15 16  1  0  0  0  0
 15 38  1  0  0  0  0
 15 39  1  0  0  0  0
 16 17  1  0  0  0  0
 16 40  1  0  0  0  0
 16 41  1  0  0  0  0
 17 18  2  0  0  0  0
 17 19  2  0  0  0  0
 17 20  1  0  0  0  0
 20 42  1  0  0  0  0
 20 43  1  0  0  0  0
 21 22  2  0  0  0  0
 21 44  1  0  0  0  0
M  END
> <s_m_source_file>
AV-unprocessed.smi

> <i_m_source_file_index>
1754

> <i_lp_mmshare_version>
43012

> <i_f3d_flags>
0

> <s_epik_input>
W0NIM11bQ0gyXU4oW0NIMl1bQ0gzXSljMVtjSF1bY0hdYyhbY0hdbjEpW05IXUMoPU8pW05IXVtDQEBIXShbQ0gyXTIpW0NIMl1bQ0gyXVMyKD1PKT1P

> <s_epik_cmdline>
J2VwaWtfcHl0aG9uJywgJy1waCcsICc3LjAnLCAnLXRuJywgJzgnLCAnLW1hJywgJzIwMCcsICctbWV0YWxfYmluZGluZycsICctaW1hZScsICc8aW5maWxlLm1hZT4nLCAnLW9tYWUnLCAnPG91dGZpbGUubWFlPic=

> <r_lp_tautomer_probability>
1

> <r_epik_Ionization_Penalty>
0.615754

> <r_epik_Ionization_Penalty_Charging>
0

> <r_epik_Ionization_Penalty_Neutral>
0.615754

> <r_epik_State_Penalty>
2.08676

> <r_epik_Charging_Adjusted_Penalty>
2.08676

> <i_epik_Tot_Q>
0

> <i_epik_Tot_abs_Q>
0

> <r_epik_Metal_State_Penalty>
1.53042

> <b_epik_Metal_Only>
0

> <s_lp_Force_Field>
OPLS_2005

> <r_lp_Energy>
21.6605

> <b_lp_Chiralities_Consistent>
1

> <s_lp_Variant>
AV-unprocessed.smi:1754-4

> <Gold.Version>
5.8.1

> <Gold.Id.Protein>
6NUR|6NUR_protein|mol2

> <Gold.PLP.Fitness>
38.0688

> <Gold.PLP.PLP>
-35.1075

> <Gold.PLP.part.hbond>
-1.0000

> <Gold.PLP.part.metal>
0.0000

> <Gold.PLP.part.buried>
-5.9014

> <Gold.PLP.part.nonpolar>
-28.1992

> <Gold.PLP.part.repulsive>
0.1070

> <Gold.PLP.ligand.clash>
0.0000

> <Gold.PLP.ligand.torsion>
0.4712

> <Gold.PLP.Chemscore.Hbond>
1.0000

> <Gold.PLP.Chemscore.CHOScore>
0.0000

> <Gold.PLP.Chemscore.Metal>
0.0000

> <Gold.Chemscore.Hbonds>
donor molecule, donor type, donor heavy atom, donor atom, acceptor molecule, acceptor atom, score
      P1  H  6896  6908       L1    19  1.00

> <Gold.PLP.Chemscore.Internal.Correction>
0.9037

> <Gold.Rescore>
     Score         DG    S(hbond)    S(metal)    S(lipo)     H(rot)  DE(clash)    DE(int)     intcor
     13.37     -15.03       1.00        0.00      83.53       1.39       0.00       1.66       ----

> <Gold.Chemscore.Fitness>
13.3715

> <Gold.Chemscore.DG>
-15.0333

> <Gold.Chemscore.ZeroCoef>
-5.4800

> <Gold.Chemscore.Hbond>
0.9977

> <Gold.Chemscore.Metal>
0.0000

> <Gold.Chemscore.Lipo>
83.5333

> <Gold.Chemscore.Internal_Hbond>
0.0000

> <Gold.Chemscore.DEClash>
0.0000

> <Gold.Chemscore.DEInternal>
1.6618

> <Gold.Chemscore.Rot>
1.3876

> <Gold.Chemscore.Internal.Correction>
   9.000000E+99

> <Gold.Chemscore.Hbonds>
donor molecule, donor type, donor heavy atom, donor atom, acceptor molecule, acceptor atom, score
      P1  H  6896  6908       L1    19  0.98

> <Gold.Chemscore.Hbond.Weighted>
-3.3323

> <Gold.Chemscore.Metal.Weighted>
-0.0000

> <Gold.Chemscore.Lipo.Weighted>
-9.7734

> <Gold.Chemscore.Internal_Hbond.Weighted>
0.0000

> <Gold.Chemscore.DEClash.Weighted>
0.0000

> <Gold.Chemscore.DEInternal.Weighted>
1.6618

> <Gold.Chemscore.Rot.Weighted>
3.5524

> <Gold.Chemscore.Internal.Correction.Weighted>
   9.000000E+99

> <Gold.Protein.RotatedTorsions>
[ 6907 6896 6895 6894 ] final   81.41 input  -60.11 | X-H torsion
[ 7974 7965 7964 7962 ] final   75.04 input  175.53 | X-H torsion
[ 8008 7997 7996 7995 ] final -132.35 input   59.86 | X-H torsion
[ 10167 10162 10161 10158 ] final  -46.32 input  -65.29 | X-H torsion
[ 10718 10713 10712 10709 ] final  162.81 input   66.30 | X-H torsion
[ 10763 10752 10751 10750 ] final  101.88 input  -60.55 | X-H torsion
[ 11005 11000 10999 10996 ] final  108.61 input  -57.11 | X-H torsion

> <Gold.Protein.ActiveResidues>
 VAL166  LYS551  ARG553  GLY616  TRP617  ASP618  TYR619  PRO620  LYS621  CYS622 
 ASP623  PHE694  ASN695  SER759  ASP760  ASP761  ALA762  ILE779  LEU786  VAL792 
 PHE793  MET794  SER795  GLU796  ALA797  LYS798  CYS799  TRP800  GLU811  SER814 

> <Gold.Protein.RotatedAtoms>
  152.5267  134.3208  159.9147 H   0  0  0  0  0  0  0  0  0  0  0  0  # atno 6907 bound_to 6896
  151.3157  133.4055  159.2658 H   0  0  0  0  0  0  0  0  0  0  0  0  # atno 6908 bound_to 6896
  151.0001  134.9332  159.8006 H   0  0  0  0  0  0  0  0  0  0  0  0  # atno 6909 bound_to 6896
  145.7206  139.2647  143.1598 H   0  0  0  0  0  0  0  0  0  0  0  0  # atno 7974 bound_to 7965
  155.3275  140.0465  157.3041 H   0  0  0  0  0  0  0  0  0  0  0  0  # atno 8008 bound_to 7997
  154.5346  140.2268  155.8710 H   0  0  0  0  0  0  0  0  0  0  0  0  # atno 8009 bound_to 7997
  156.1822  140.3071  155.9177 H   0  0  0  0  0  0  0  0  0  0  0  0  # atno 8010 bound_to 7997
  140.6822  143.2836  151.3766 H   0  0  0  0  0  0  0  0  0  0  0  0  # atno 10167 bound_to 10162
  157.1173  131.0483  151.2431 H   0  0  0  0  0  0  0  0  0  0  0  0  # atno 10718 bound_to 10713
  153.3324  135.4029  155.1506 H   0  0  0  0  0  0  0  0  0  0  0  0  # atno 10763 bound_to 10752
  154.8626  135.3613  154.5453 H   0  0  0  0  0  0  0  0  0  0  0  0  # atno 10764 bound_to 10752
  153.5893  135.7074  153.5489 H   0  0  0  0  0  0  0  0  0  0  0  0  # atno 10765 bound_to 10752
  139.8847  134.9435  156.5998 H   0  0  0  0  0  0  0  0  0  0  0  0  # atno 11005 bound_to 11000
  146.0629  140.7952  142.9726 LP  0  0  0  0  0  0  0  0  0  0  0  0  # atno 17320 bound_to 7965
  144.6917  140.3224  143.7230 LP  0  0  0  0  0  0  0  0  0  0  0  0  # atno 17321 bound_to 7965
  139.6153  144.1016  152.2339 LP  0  0  0  0  0  0  0  0  0  0  0  0  # atno 17342 bound_to 10162
  140.0443  144.5983  150.7386 LP  0  0  0  0  0  0  0  0  0  0  0  0  # atno 17343 bound_to 10162
  157.4507  130.7597  149.7149 LP  0  0  0  0  0  0  0  0  0  0  0  0  # atno 17370 bound_to 10713
  155.9836  130.3998  150.3352 LP  0  0  0  0  0  0  0  0  0  0  0  0  # atno 17371 bound_to 10713
  140.7892  133.8596  155.8632 LP  0  0  0  0  0  0  0  0  0  0  0  0  # atno 17394 bound_to 11000
  140.9692  134.1553  157.4590 LP  0  0  0  0  0  0  0  0  0  0  0  0  # atno 17395 bound_to 11000

$$$$
