AV-unprocessed.smi:1654|AV-procd|sdf|6642|dock3
  -GOLD-   22720 7343D 1   1.00000     0.00000
 Structure written by MMmdl.
 40 41  0  0  0  0  0  0  0  0  1 V2000
  151.3704  139.5221  154.7585 O   0  0  0  0  0  0  0  0  0  0  0  0
  150.6099  140.0942  155.8801 S   0  0  0  0  0  0  0  0  0  0  0  0
  150.3488  139.3106  157.0973 O   0  0  0  0  0  0  0  0  0  0  0  0
  151.3717  141.5726  156.3307 N   0  0  0  0  0  0  0  0  0  0  0  0
  150.7045  142.4229  157.3121 C   0  0  0  0  0  0  0  0  0  0  0  0
  151.6933  143.4415  157.8924 C   0  0  0  0  0  0  0  0  0  0  0  0
  152.0581  143.1249  159.3293 C   0  0  0  0  0  0  0  0  0  0  0  0
  151.7730  144.0369  160.3663 C   0  0  0  0  0  0  0  0  0  0  0  0
  152.1374  143.7005  161.6844 C   0  0  0  0  0  0  0  0  0  0  0  0
  152.7734  142.4632  161.9094 C   0  0  0  0  0  0  0  0  0  0  0  0
  153.0514  141.5824  160.9241 N   0  0  0  0  0  0  0  0  0  0  0  0
  152.6990  141.9127  159.6630 C   0  0  0  0  0  0  0  0  0  0  0  0
  149.1045  140.7237  155.2916 N   0  0  0  0  0  0  0  0  0  0  0  0
  149.1028  141.3879  153.9737 C   0  0  0  0  0  0  0  0  0  0  0  0
  147.9322  140.8945  153.1102 C   0  0  0  0  0  0  0  0  0  0  0  0
  146.6249  141.6873  153.2828 C   0  0  0  0  0  0  0  0  0  0  0  0
  146.3067  142.1536  154.7139 C   0  0  0  0  0  0  0  0  0  0  0  0
  146.6770  141.1479  155.8145 C   0  0  0  0  0  0  0  0  0  0  0  0
  148.1434  141.2506  156.2774 C   0  0  0  0  0  0  0  0  0  0  0  0
  152.3620  141.4404  156.5347 H   0  0  0  0  0  0  0  0  0  0  0  0
  149.8679  142.9317  156.8318 H   0  0  0  0  0  0  0  0  0  0  0  0
  150.2933  141.7964  158.1045 H   0  0  0  0  0  0  0  0  0  0  0  0
  152.6042  143.4643  157.2925 H   0  0  0  0  0  0  0  0  0  0  0  0
  151.2685  144.4453  157.8464 H   0  0  0  0  0  0  0  0  0  0  0  0
  151.2864  144.9783  160.1567 H   0  0  0  0  0  0  0  0  0  0  0  0
  151.9355  144.3748  162.5035 H   0  0  0  0  0  0  0  0  0  0  0  0
  153.0677  142.1737  162.9074 H   0  0  0  0  0  0  0  0  0  0  0  0
  152.9376  141.1885  158.8979 H   0  0  0  0  0  0  0  0  0  0  0  0
  149.0976  142.4723  154.0918 H   0  0  0  0  0  0  0  0  0  0  0  0
  150.0329  141.1528  153.4562 H   0  0  0  0  0  0  0  0  0  0  0  0
  148.2186  140.9438  152.0591 H   0  0  0  0  0  0  0  0  0  0  0  0
  147.7551  139.8365  153.3095 H   0  0  0  0  0  0  0  0  0  0  0  0
  146.6489  142.5655  152.6365 H   0  0  0  0  0  0  0  0  0  0  0  0
  145.8034  141.0732  152.9127 H   0  0  0  0  0  0  0  0  0  0  0  0
  146.8038  143.1039  154.9124 H   0  0  0  0  0  0  0  0  0  0  0  0
  145.2391  142.3695  154.7700 H   0  0  0  0  0  0  0  0  0  0  0  0
  146.0482  141.3579  156.6803 H   0  0  0  0  0  0  0  0  0  0  0  0
  146.4308  140.1289  155.5130 H   0  0  0  0  0  0  0  0  0  0  0  0
  148.2395  140.6836  157.2030 H   0  0  0  0  0  0  0  0  0  0  0  0
  148.4060  142.2798  156.5253 H   0  0  0  0  0  0  0  0  0  0  0  0
  1  2  2  0  0  0  0
  2  3  2  0  0  0  0
  2  4  1  0  0  0  0
  2 13  1  0  0  0  0
  4  5  1  0  0  0  0
  4 20  1  0  0  0  0
  5  6  1  0  0  0  0
  5 21  1  0  0  0  0
  5 22  1  0  0  0  0
  6  7  1  0  0  0  0
  6 23  1  0  0  0  0
  6 24  1  0  0  0  0
  7 12  1  0  0  0  0
  7  8  2  0  0  0  0
  8  9  1  0  0  0  0
  8 25  1  0  0  0  0
  9 10  2  0  0  0  0
  9 26  1  0  0  0  0
 10 11  1  0  0  0  0
 10 27  1  0  0  0  0
 11 12  2  0  0  0  0
 12 28  1  0  0  0  0
 13 19  1  0  0  0  0
 13 14  1  0  0  0  0
 14 15  1  0  0  0  0
 14 29  1  0  0  0  0
 14 30  1  0  0  0  0
 15 16  1  0  0  0  0
 15 31  1  0  0  0  0
 15 32  1  0  0  0  0
 16 17  1  0  0  0  0
 16 33  1  0  0  0  0
 16 34  1  0  0  0  0
 17 18  1  0  0  0  0
 17 35  1  0  0  0  0
 17 36  1  0  0  0  0
 18 19  1  0  0  0  0
 18 37  1  0  0  0  0
 18 38  1  0  0  0  0
 19 39  1  0  0  0  0
 19 40  1  0  0  0  0
M  END
> <s_m_source_file>
AV-unprocessed.smi

> <i_m_source_file_index>
1654

> <i_lp_mmshare_version>
43012

> <i_f3d_flags>
0

> <s_epik_input>
W0NIMl0xW0NIMl1bQ0gyXVtDSDJdW0NIMl1bQ0gyXU4xUyg9TykoPU8pW05IXVtDSDJdW0NIMl1jMltjSF1bY0hdW2NIXW5bY0hdMg==

> <s_epik_cmdline>
J2VwaWtfcHl0aG9uJywgJy1waCcsICc3LjAnLCAnLXRuJywgJzgnLCAnLW1hJywgJzIwMCcsICctbWV0YWxfYmluZGluZycsICctaW1hZScsICc8aW5maWxlLm1hZT4nLCAnLW9tYWUnLCAnPG91dGZpbGUubWFlPic=

> <r_lp_tautomer_probability>
1

> <r_epik_Ionization_Penalty>
0.00688973

> <r_epik_Ionization_Penalty_Charging>
0

> <r_epik_Ionization_Penalty_Neutral>
0.00688973

> <r_epik_State_Penalty>
-0

> <r_epik_Charging_Adjusted_Penalty>
0

> <i_epik_Tot_Q>
0

> <i_epik_Tot_abs_Q>
0

> <r_epik_Metal_State_Penalty>
0.361675

> <b_epik_Metal_Only>
0

> <s_lp_Force_Field>
OPLS_2005

> <r_lp_Energy>
15.461

> <b_lp_Chiralities_Consistent>
1

> <s_lp_Variant>
AV-unprocessed.smi:1654-1

> <Gold.Version>
5.8.1

> <Gold.Id.Protein>
6NUR|6NUR_protein|mol2

> <Gold.PLP.Fitness>
45.7467

> <Gold.PLP.PLP>
-43.5649

> <Gold.PLP.part.hbond>
-1.0000

> <Gold.PLP.part.metal>
0.0000

> <Gold.PLP.part.buried>
-3.1194

> <Gold.PLP.part.nonpolar>
-38.4124

> <Gold.PLP.part.repulsive>
0.0424

> <Gold.PLP.ligand.clash>
0.0000

> <Gold.PLP.ligand.torsion>
1.4604

> <Gold.PLP.Chemscore.Hbond>
1.0000

> <Gold.PLP.Chemscore.CHOScore>
0.0000

> <Gold.PLP.Chemscore.Metal>
0.0000

> <Gold.Chemscore.Hbonds>
donor molecule, donor type, donor heavy atom, donor atom, acceptor molecule, acceptor atom, score
      P1  H  7989  7998       L1     1  1.00

> <Gold.PLP.Chemscore.Internal.Correction>
2.1026

> <Gold.Rescore>
     Score         DG    S(hbond)    S(metal)    S(lipo)     H(rot)  DE(clash)    DE(int)     intcor
     15.97     -17.60       0.98        0.00     107.94       1.47       0.18       1.46       ----

> <Gold.Chemscore.Fitness>
15.9678

> <Gold.Chemscore.DG>
-17.6024

> <Gold.Chemscore.ZeroCoef>
-5.4800

> <Gold.Chemscore.Hbond>
0.9771

> <Gold.Chemscore.Metal>
0.0000

> <Gold.Chemscore.Lipo>
107.9364

> <Gold.Chemscore.Internal_Hbond>
0.0000

> <Gold.Chemscore.DEClash>
0.1794

> <Gold.Chemscore.DEInternal>
1.4552

> <Gold.Chemscore.Rot>
1.4725

> <Gold.Chemscore.Internal.Correction>
   9.000000E+99

> <Gold.Chemscore.Hbonds>
donor molecule, donor type, donor heavy atom, donor atom, acceptor molecule, acceptor atom, score
      P1  H  7989  7998       L1     1  0.70

> <Gold.Chemscore.Hbond.Weighted>
-3.2636

> <Gold.Chemscore.Metal.Weighted>
-0.0000

> <Gold.Chemscore.Lipo.Weighted>
-12.6286

> <Gold.Chemscore.Internal_Hbond.Weighted>
0.0000

> <Gold.Chemscore.DEClash.Weighted>
0.1794

> <Gold.Chemscore.DEInternal.Weighted>
1.4552

> <Gold.Chemscore.Rot.Weighted>
3.7697

> <Gold.Chemscore.Internal.Correction.Weighted>
   9.000000E+99

> <Gold.Protein.RotatedTorsions>
[ 6907 6896 6895 6894 ] final   16.30 input  -60.11 | X-H torsion
[ 7974 7965 7964 7962 ] final -175.18 input  175.53 | X-H torsion
[ 8008 7997 7996 7995 ] final  158.59 input   59.86 | X-H torsion
[ 10167 10162 10161 10158 ] final -104.02 input  -65.29 | X-H torsion
[ 10718 10713 10712 10709 ] final  151.63 input   66.30 | X-H torsion
[ 10763 10752 10751 10750 ] final -178.03 input  -60.55 | X-H torsion
[ 11005 11000 10999 10996 ] final   26.53 input  -57.11 | X-H torsion

> <Gold.Protein.ActiveResidues>
 VAL166  LYS551  ARG553  GLY616  TRP617  ASP618  TYR619  PRO620  LYS621  CYS622 
 ASP623  PHE694  ASN695  SER759  ASP760  ASP761  ALA762  ILE779  LEU786  VAL792 
 PHE793  MET794  SER795  GLU796  ALA797  LYS798  CYS799  TRP800  GLU811  SER814 

> <Gold.Protein.RotatedAtoms>
  151.8317  135.0619  160.0437 H   0  0  0  0  0  0  0  0  0  0  0  0  # atno 6907 bound_to 6896
  152.2876  133.5525  159.5545 H   0  0  0  0  0  0  0  0  0  0  0  0  # atno 6908 bound_to 6896
  150.7216  134.0391  159.3802 H   0  0  0  0  0  0  0  0  0  0  0  0  # atno 6909 bound_to 6896
  144.7129  140.1359  143.6395 H   0  0  0  0  0  0  0  0  0  0  0  0  # atno 7974 bound_to 7965
  156.2293  140.1854  156.7284 H   0  0  0  0  0  0  0  0  0  0  0  0  # atno 8008 bound_to 7997
  154.5994  140.0638  156.9376 H   0  0  0  0  0  0  0  0  0  0  0  0  # atno 8009 bound_to 7997
  155.2199  140.3306  155.4319 H   0  0  0  0  0  0  0  0  0  0  0  0  # atno 8010 bound_to 7997
  140.2138  143.3727  152.1028 H   0  0  0  0  0  0  0  0  0  0  0  0  # atno 10167 bound_to 10162
  157.2682  131.0812  151.1618 H   0  0  0  0  0  0  0  0  0  0  0  0  # atno 10718 bound_to 10713
  154.5528  135.2814  155.0993 H   0  0  0  0  0  0  0  0  0  0  0  0  # atno 10763 bound_to 10752
  154.2432  135.6353  153.5218 H   0  0  0  0  0  0  0  0  0  0  0  0  # atno 10764 bound_to 10752
  153.0007  135.5565  154.6099 H   0  0  0  0  0  0  0  0  0  0  0  0  # atno 10765 bound_to 10752
  140.3360  134.2385  155.7696 H   0  0  0  0  0  0  0  0  0  0  0  0  # atno 11005 bound_to 11000
  145.9245  139.2566  143.1362 LP  0  0  0  0  0  0  0  0  0  0  0  0  # atno 17320 bound_to 7965
  145.9586  140.8853  143.0222 LP  0  0  0  0  0  0  0  0  0  0  0  0  # atno 17321 bound_to 7965
  139.5170  144.6985  151.5561 LP  0  0  0  0  0  0  0  0  0  0  0  0  # atno 17342 bound_to 10162
  140.6305  143.9086  150.6601 LP  0  0  0  0  0  0  0  0  0  0  0  0  # atno 17343 bound_to 10162
  157.3100  130.6885  149.6211 LP  0  0  0  0  0  0  0  0  0  0  0  0  # atno 17370 bound_to 10713
  155.9663  130.4366  150.5141 LP  0  0  0  0  0  0  0  0  0  0  0  0  # atno 17371 bound_to 10713
  141.2051  133.7869  157.0251 LP  0  0  0  0  0  0  0  0  0  0  0  0  # atno 17394 bound_to 11000
  140.0821  134.9642  157.1641 LP  0  0  0  0  0  0  0  0  0  0  0  0  # atno 17395 bound_to 11000

$$$$
