AV-unprocessed.smi:3068|AV-procd|sdf|11698|dock7
  -GOLD-   2272017103D 1   1.00000     0.00000
 Structure written by MMmdl.
 40 42  0  0  0  0  0  0  0  0  2 V2000
  148.1266  136.9545  154.8442 N   0  0  0  0  0  0  0  0  0  0  0  0
  148.2971  138.0931  154.7255 C   0  0  0  0  0  0  0  0  0  0  0  0
  148.5126  139.5264  154.5745 C   0  0  0  0  0  0  0  0  0  0  0  0
  147.6111  140.2008  153.8237 N   0  0  0  0  0  0  0  0  0  0  0  0
  147.7975  141.5298  153.6788 C   0  0  0  0  0  0  0  0  0  0  0  0
  148.8830  142.1924  154.2836 C   0  0  0  0  0  0  0  0  0  0  0  0
  149.7865  141.5281  155.0352 N   0  0  0  0  0  0  0  0  0  0  0  0
  149.6120  140.1913  155.1882 C   0  0  0  0  0  0  0  0  0  0  0  0
  150.5472  139.4834  155.9661 N   0  0  0  0  0  0  0  0  0  0  0  0
  151.8100  140.0776  156.3883 C   0  0  0  0  0  0  0  0  0  0  0  0
  151.8163  140.4444  157.8821 C   0  0  2  0  0  0  0  0  0  0  0  0
  151.6960  141.9644  158.0929 C   0  0  0  0  0  0  0  0  0  0  0  0
  151.7773  142.2984  159.5334 N   0  3  2  0  0  0  0  0  0  0  0  0
  151.6223  143.7532  159.7866 C   0  0  0  0  0  0  0  0  0  0  0  0
  151.6161  144.0544  161.2936 C   0  0  0  0  0  0  0  0  0  0  0  0
  152.8837  143.5090  161.9640 C   0  0  0  0  0  0  0  0  0  0  0  0
  153.0343  142.0113  161.6642 C   0  0  0  0  0  0  0  0  0  0  0  0
  153.0127  141.7396  160.1469 C   0  0  1  0  0  0  0  0  0  0  0  0
  153.1120  140.2310  159.8463 C   0  0  0  0  0  0  0  0  0  0  0  0
  153.0516  140.0127  158.4427 O   0  0  0  0  0  0  0  0  0  0  0  0
  147.0775  142.0666  153.0790 H   0  0  0  0  0  0  0  0  0  0  0  0
  149.0266  143.2561  154.1645 H   0  0  0  0  0  0  0  0  0  0  0  0
  150.3004  138.5737  156.3301 H   0  0  0  0  0  0  0  0  0  0  0  0
  152.6114  139.3691  156.1778 H   0  0  0  0  0  0  0  0  0  0  0  0
  152.0177  140.9582  155.7793 H   0  0  0  0  0  0  0  0  0  0  0  0
  150.9877  139.9450  158.3877 H   0  0  0  0  0  0  0  0  0  0  0  0
  152.4885  142.4840  157.5519 H   0  0  0  0  0  0  0  0  0  0  0  0
  150.7465  142.3201  157.6909 H   0  0  0  0  0  0  0  0  0  0  0  0
  152.4320  144.2983  159.2987 H   0  0  0  0  0  0  0  0  0  0  0  0
  150.6901  144.1035  159.3415 H   0  0  0  0  0  0  0  0  0  0  0  0
  151.5392  145.1294  161.4593 H   0  0  0  0  0  0  0  0  0  0  0  0
  150.7345  143.6059  161.7536 H   0  0  0  0  0  0  0  0  0  0  0  0
  153.7575  144.0491  161.5973 H   0  0  0  0  0  0  0  0  0  0  0  0
  152.8419  143.6756  163.0408 H   0  0  0  0  0  0  0  0  0  0  0  0
  153.9639  141.6415  162.0983 H   0  0  0  0  0  0  0  0  0  0  0  0
  152.2269  141.4614  162.1503 H   0  0  0  0  0  0  0  0  0  0  0  0
  153.8712  142.2367  159.6911 H   0  0  0  0  0  0  0  0  0  0  0  0
  154.0566  139.8341  160.2191 H   0  0  0  0  0  0  0  0  0  0  0  0
  152.3160  139.6753  160.3448 H   0  0  0  0  0  0  0  0  0  0  0  0
  150.9973  141.8402  159.9825 H   0  0  0  0  0  0  0  0  0  0  0  0
  1  2  3  0  0  0  0
  2  3  1  0  0  0  0
  3  8  1  0  0  0  0
  3  4  2  0  0  0  0
  4  5  1  0  0  0  0
  5  6  2  0  0  0  0
  5 21  1  0  0  0  0
  6  7  1  0  0  0  0
  6 22  1  0  0  0  0
  7  8  2  0  0  0  0
  8  9  1  0  0  0  0
  9 10  1  0  0  0  0
  9 23  1  0  0  0  0
 10 11  1  0  0  0  0
 10 24  1  0  0  0  0
 10 25  1  0  0  0  0
 11 20  1  0  0  0  0
 11 12  1  0  0  0  0
 11 26  1  0  0  0  0
 12 13  1  0  0  0  0
 12 27  1  0  0  0  0
 12 28  1  0  0  0  0
 13 18  1  0  0  0  0
 13 14  1  0  0  0  0
 13 40  1  0  0  0  0
 14 15  1  0  0  0  0
 14 29  1  0  0  0  0
 14 30  1  0  0  0  0
 15 16  1  0  0  0  0
 15 31  1  0  0  0  0
 15 32  1  0  0  0  0
 16 17  1  0  0  0  0
 16 33  1  0  0  0  0
 16 34  1  0  0  0  0
 17 18  1  0  0  0  0
 17 35  1  0  0  0  0
 17 36  1  0  0  0  0
 18 19  1  0  0  0  0
 18 37  1  0  0  0  0
 19 20  1  0  0  0  0
 19 38  1  0  0  0  0
 19 39  1  0  0  0  0
M  CHG  1  13   1
M  END
> <s_m_source_file>
AV-unprocessed.smi

> <i_m_source_file_index>
3068

> <i_lp_mmshare_version>
43012

> <i_f3d_flags>
0

> <s_epik_input>
TiNDYzFuW2NIXVtjSF1uYzFbTkhdW0NIMl1bQ0BIXShbQ0gyXTIpT1tDSDJdW0NAQEhdKE4yMylbQ0gyXVtDSDJdW0NIMl1bQ0gyXTM=

> <s_epik_cmdline>
J2VwaWtfcHl0aG9uJywgJy1waCcsICc3LjAnLCAnLXRuJywgJzgnLCAnLW1hJywgJzIwMCcsICctbWV0YWxfYmluZGluZycsICctaW1hZScsICc8aW5maWxlLm1hZT4nLCAnLW9tYWUnLCAnPG91dGZpbGUubWFlPic=

> <r_epik_Ionization_Penalty>
0.0804321

> <r_epik_Ionization_Penalty_Charging>
0.0803403

> <r_epik_Ionization_Penalty_Neutral>
9.17277e-05

> <r_epik_State_Penalty>
0.0711481

> <r_epik_Charging_Adjusted_Penalty>
0.151488

> <i_epik_Tot_Q>
1

> <i_epik_Tot_abs_Q>
1

> <r_epik_Metal_State_Penalty>
0.0711481

> <b_epik_Metal_Only>
0

> <s_lp_Force_Field>
OPLS_2005

> <r_lp_Energy>
36.4506

> <b_lp_Chiralities_Consistent>
1

> <s_lp_Variant>
AV-unprocessed.smi:3068-1

> <Gold.Version>
5.8.1

> <Gold.Id.Protein>
6NUR|6NUR_protein|mol2

> <Gold.PLP.Fitness>
39.7352

> <Gold.PLP.PLP>
-34.8800

> <Gold.PLP.part.hbond>
-1.8912

> <Gold.PLP.part.metal>
0.0000

> <Gold.PLP.part.buried>
-1.4843

> <Gold.PLP.part.nonpolar>
-30.2664

> <Gold.PLP.part.repulsive>
0.5365

> <Gold.PLP.ligand.clash>
0.0000

> <Gold.PLP.ligand.torsion>
0.7583

> <Gold.PLP.Chemscore.Hbond>
1.1231

> <Gold.PLP.Chemscore.CHOScore>
1.0000

> <Gold.PLP.Chemscore.Metal>
0.0000

> <Gold.Chemscore.Hbonds>
donor molecule, donor type, donor heavy atom, donor atom, acceptor molecule, acceptor atom, score
      P1  H  7997  8009       L1    20  0.83
      L1  C     6    22       P1  8028  0.96

> <Gold.PLP.Chemscore.Internal.Correction>
0.0025

> <Gold.Rescore>
     Score         DG    S(hbond)    S(metal)    S(lipo)     H(rot)  DE(clash)    DE(int)     intcor
     15.81     -16.83       0.77        0.00     103.87       1.32       0.25       0.77       ----

> <Gold.Chemscore.Fitness>
15.8135

> <Gold.Chemscore.DG>
-16.8335

> <Gold.Chemscore.ZeroCoef>
-5.4800

> <Gold.Chemscore.Hbond>
0.7720

> <Gold.Chemscore.Metal>
0.0000

> <Gold.Chemscore.Lipo>
103.8653

> <Gold.Chemscore.Internal_Hbond>
0.0000

> <Gold.Chemscore.DEClash>
0.2524

> <Gold.Chemscore.DEInternal>
0.7676

> <Gold.Chemscore.Rot>
1.3193

> <Gold.Chemscore.Internal.Correction>
   9.000000E+99

> <Gold.Chemscore.Hbonds>
donor molecule, donor type, donor heavy atom, donor atom, acceptor molecule, acceptor atom, score
      P1  H  7997  8009       L1    20  0.71

> <Gold.Chemscore.Hbond.Weighted>
-2.5786

> <Gold.Chemscore.Metal.Weighted>
-0.0000

> <Gold.Chemscore.Lipo.Weighted>
-12.1522

> <Gold.Chemscore.Internal_Hbond.Weighted>
0.0000

> <Gold.Chemscore.DEClash.Weighted>
0.2524

> <Gold.Chemscore.DEInternal.Weighted>
0.7676

> <Gold.Chemscore.Rot.Weighted>
3.3774

> <Gold.Chemscore.Internal.Correction.Weighted>
   9.000000E+99

> <Gold.Protein.RotatedTorsions>
[ 6907 6896 6895 6894 ] final   27.56 input  -60.11 | X-H torsion
[ 7974 7965 7964 7962 ] final  110.23 input  175.53 | X-H torsion
[ 8008 7997 7996 7995 ] final  146.54 input   59.86 | X-H torsion
[ 10167 10162 10161 10158 ] final  -67.47 input  -65.29 | X-H torsion
[ 10718 10713 10712 10709 ] final  -73.75 input   66.30 | X-H torsion
[ 10763 10752 10751 10750 ] final -175.05 input  -60.55 | X-H torsion
[ 11005 11000 10999 10996 ] final  146.72 input  -57.11 | X-H torsion

> <Gold.Protein.ActiveResidues>
 VAL166  LYS551  ARG553  GLY616  TRP617  ASP618  TYR619  PRO620  LYS621  CYS622 
 ASP623  PHE694  ASN695  SER759  ASP760  ASP761  ALA762  ILE779  LEU786  VAL792 
 PHE793  MET794  SER795  GLU796  ALA797  LYS798  CYS799  TRP800  GLU811  SER814 

> <Gold.Protein.RotatedAtoms>
  152.0040  134.9913  160.0565 H   0  0  0  0  0  0  0  0  0  0  0  0  # atno 6907 bound_to 6896
  152.1492  133.4507  159.4813 H   0  0  0  0  0  0  0  0  0  0  0  0  # atno 6908 bound_to 6896
  150.6873  134.2128  159.4409 H   0  0  0  0  0  0  0  0  0  0  0  0  # atno 6909 bound_to 6896
  145.2576  139.2715  143.4034 H   0  0  0  0  0  0  0  0  0  0  0  0  # atno 7974 bound_to 7965
  156.2852  140.2180  156.5392 H   0  0  0  0  0  0  0  0  0  0  0  0  # atno 8008 bound_to 7997
  154.7383  140.0490  157.0811 H   0  0  0  0  0  0  0  0  0  0  0  0  # atno 8009 bound_to 7997
  155.0263  140.3130  155.4778 H   0  0  0  0  0  0  0  0  0  0  0  0  # atno 8010 bound_to 7997
  140.5580  143.2312  151.6783 H   0  0  0  0  0  0  0  0  0  0  0  0  # atno 10167 bound_to 10162
  156.0268  130.4401  150.2789 H   0  0  0  0  0  0  0  0  0  0  0  0  # atno 10718 bound_to 10713
  154.5890  135.2843  155.0655 H   0  0  0  0  0  0  0  0  0  0  0  0  # atno 10763 bound_to 10752
  154.1963  135.6432  153.5078 H   0  0  0  0  0  0  0  0  0  0  0  0  # atno 10764 bound_to 10752
  153.0114  135.5458  154.6569 H   0  0  0  0  0  0  0  0  0  0  0  0  # atno 10765 bound_to 10752
  140.0817  134.9093  157.1510 H   0  0  0  0  0  0  0  0  0  0  0  0  # atno 11005 bound_to 11000
  146.3284  140.2984  142.8619 LP  0  0  0  0  0  0  0  0  0  0  0  0  # atno 17320 bound_to 7965
  144.9447  140.8115  143.5609 LP  0  0  0  0  0  0  0  0  0  0  0  0  # atno 17321 bound_to 7965
  139.5057  144.3708  152.0471 LP  0  0  0  0  0  0  0  0  0  0  0  0  # atno 17342 bound_to 10162
  140.2832  144.3836  150.6112 LP  0  0  0  0  0  0  0  0  0  0  0  0  # atno 17343 bound_to 10162
  157.0892  131.0165  151.3128 LP  0  0  0  0  0  0  0  0  0  0  0  0  # atno 17370 bound_to 10713
  157.4867  130.7797  149.7467 LP  0  0  0  0  0  0  0  0  0  0  0  0  # atno 17371 bound_to 10713
  140.3479  134.2631  155.7202 LP  0  0  0  0  0  0  0  0  0  0  0  0  # atno 17394 bound_to 11000
  141.2049  133.7875  157.0264 LP  0  0  0  0  0  0  0  0  0  0  0  0  # atno 17395 bound_to 11000

$$$$
