AV-unprocessed.smi:196|AV-procd|sdf|1535|dock4
  -GOLD-   2262019393D 1   1.00000     0.00000
 Structure written by MMmdl.
 47 50  0  0  0  0  0  0  0  0  1 V2000
  144.7882  135.2373  151.0352 C   0  0  0  0  0  0  0  0  0  0  0  0
  144.4445  133.7736  151.3482 C   0  0  1  0  0  0  0  0  0  0  0  0
  144.4417  132.9891  150.1581 O   0  0  0  0  0  0  0  0  0  0  0  0
  144.8915  131.6665  150.4390 C   0  0  0  0  0  0  0  0  0  0  0  0
  145.0427  131.5948  151.9558 C   0  0  0  0  0  0  0  0  0  0  0  0
  145.3797  133.0345  152.3245 C   0  0  2  0  0  0  0  0  0  0  0  0
  144.9840  133.2704  153.6630 O   0  0  0  0  0  0  0  0  0  0  0  0
  146.8810  133.3948  152.1568 C   0  0  0  0  0  0  0  0  0  0  0  0
  147.7731  132.6131  152.9984 N   0  0  0  0  0  0  0  0  0  0  0  0
  147.8565  131.2403  153.0637 C   0  0  0  0  0  0  0  0  0  0  0  0
  148.7412  130.7756  153.9032 N   0  0  0  0  0  0  0  0  0  0  0  0
  149.3055  131.9140  154.4647 C   0  0  0  0  0  0  0  0  0  0  0  0
  150.3168  132.1412  155.4359 C   0  0  0  0  0  0  0  0  0  0  0  0
  150.9993  131.1265  156.0205 N   0  0  0  0  0  0  0  0  0  0  0  0
  152.2250  131.4944  156.7266 C   0  0  0  0  0  0  0  0  0  0  0  0
  153.3638  130.9448  155.8774 C   0  0  1  0  0  0  0  0  0  0  0  0
  154.4791  130.7441  156.5786 F   0  0  0  0  0  0  0  0  0  0  0  0
  152.7643  129.6514  155.3455 C   0  0  0  0  0  0  0  0  0  0  0  0
  151.2823  130.0038  155.1100 C   0  0  1  0  0  0  0  0  0  0  0  0
  150.3737  128.7792  155.3201 C   0  0  0  0  0  0  0  0  0  0  0  0
  150.5721  127.6920  154.5681 N   0  0  0  0  0  0  0  0  0  0  0  0
  149.4897  128.8184  156.1727 O   0  0  0  0  0  0  0  0  0  0  0  0
  150.6182  133.4306  155.7463 N   0  0  0  0  0  0  0  0  0  0  0  0
  149.9647  134.4332  155.1516 C   0  0  0  0  0  0  0  0  0  0  0  0
  148.9998  134.3707  154.2318 N   0  0  0  0  0  0  0  0  0  0  0  0
  148.7012  133.0783  153.9136 C   0  0  0  0  0  0  0  0  0  0  0  0
  153.5985  131.6254  155.0580 H   0  0  0  0  0  0  0  0  0  0  0  0
  151.1675  130.3259  154.0723 H   0  0  0  0  0  0  0  0  0  0  0  0
  144.8211  135.8346  151.9465 H   0  0  0  0  0  0  0  0  0  0  0  0
  144.0369  135.6762  150.3786 H   0  0  0  0  0  0  0  0  0  0  0  0
  145.7517  135.3294  150.5340 H   0  0  0  0  0  0  0  0  0  0  0  0
  143.4256  133.7343  151.7390 H   0  0  0  0  0  0  0  0  0  0  0  0
  144.1943  130.9201  150.0578 H   0  0  0  0  0  0  0  0  0  0  0  0
  145.8530  131.5122  149.9478 H   0  0  0  0  0  0  0  0  0  0  0  0
  144.0824  131.3102  152.3901 H   0  0  0  0  0  0  0  0  0  0  0  0
  145.7727  130.8545  152.2807 H   0  0  0  0  0  0  0  0  0  0  0  0
  144.1387  132.8710  153.7996 H   0  0  0  0  0  0  0  0  0  0  0  0
  147.1894  133.2591  151.1196 H   0  0  0  0  0  0  0  0  0  0  0  0
  147.0465  134.4485  152.3855 H   0  0  0  0  0  0  0  0  0  0  0  0
  147.2373  130.5903  152.4623 H   0  0  0  0  0  0  0  0  0  0  0  0
  152.3315  132.5646  156.9117 H   0  0  0  0  0  0  0  0  0  0  0  0
  152.2071  131.0031  157.7002 H   0  0  0  0  0  0  0  0  0  0  0  0
  153.2621  129.3043  154.4395 H   0  0  0  0  0  0  0  0  0  0  0  0
  152.8646  128.8681  156.0997 H   0  0  0  0  0  0  0  0  0  0  0  0
  149.9805  126.8824  154.6890 H   0  0  0  0  0  0  0  0  0  0  0  0
  151.3086  127.6867  153.8776 H   0  0  0  0  0  0  0  0  0  0  0  0
  150.2598  135.4274  155.4533 H   0  0  0  0  0  0  0  0  0  0  0  0
  1  2  1  0  0  0  0
  1 29  1  0  0  0  0
  1 30  1  0  0  0  0
  1 31  1  0  0  0  0
  2  6  1  0  0  0  0
  2  3  1  0  0  0  0
  2 32  1  0  0  0  0
  3  4  1  0  0  0  0
  4  5  1  0  0  0  0
  4 33  1  0  0  0  0
  4 34  1  0  0  0  0
  5  6  1  0  0  0  0
  5 35  1  0  0  0  0
  5 36  1  0  0  0  0
  6  7  1  0  0  0  0
  6  8  1  0  0  0  0
  7 37  1  0  0  0  0
  8  9  1  0  0  0  0
  8 38  1  0  0  0  0
  8 39  1  0  0  0  0
  9 26  1  0  0  0  0
  9 10  1  0  0  0  0
 10 11  2  0  0  0  0
 10 40  1  0  0  0  0
 11 12  1  0  0  0  0
 12 26  2  0  0  0  0
 12 13  1  0  0  0  0
 13 14  1  0  0  0  0
 13 23  2  0  0  0  0
 14 19  1  0  0  0  0
 14 15  1  0  0  0  0
 15 16  1  0  0  0  0
 15 41  1  0  0  0  0
 15 42  1  0  0  0  0
 16 27  1  0  0  0  0
 16 17  1  0  0  0  0
 16 18  1  0  0  0  0
 18 19  1  0  0  0  0
 18 43  1  0  0  0  0
 18 44  1  0  0  0  0
 19 28  1  0  0  0  0
 19 20  1  0  0  0  0
 20 21  1  0  0  0  0
 20 22  2  0  0  0  0
 21 45  1  0  0  0  0
 21 46  1  0  0  0  0
 23 24  1  0  0  0  0
 24 25  2  0  0  0  0
 24 47  1  0  0  0  0
 25 26  1  0  0  0  0
M  END
> <s_m_source_file>
AV-unprocessed.smi

> <i_m_source_file_index>
196

> <i_lp_mmshare_version>
43012

> <i_f3d_flags>
0

> <s_epik_input>
W0NIMl0xW0NIMl1PW0NAQEhdKFtDSDNdKVtDQEBdMShbT0hdKVtDSDJdbihbY0hdbjIpYyhjMjMpbltjSF1uYzNONFtDSDJdW0NASF0oRilbQ0gyXVtDQEhdNEMoPU8pW05IMl0=

> <s_epik_cmdline>
J2VwaWtfcHl0aG9uJywgJy1waCcsICc3LjAnLCAnLXRuJywgJzgnLCAnLW1hJywgJzIwMCcsICctbWV0YWxfYmluZGluZycsICctaW1hZScsICc8aW5maWxlLm1hZT4nLCAnLW9tYWUnLCAnPG91dGZpbGUubWFlPic=

> <r_lp_tautomer_probability>
1

> <r_epik_Ionization_Penalty>
0.000857933

> <r_epik_Ionization_Penalty_Charging>
0

> <r_epik_Ionization_Penalty_Neutral>
0.000857933

> <r_epik_State_Penalty>
0.000462053

> <r_epik_Charging_Adjusted_Penalty>
0.000462053

> <i_epik_Tot_Q>
0

> <i_epik_Tot_abs_Q>
0

> <r_epik_Metal_State_Penalty>
-0

> <b_epik_Metal_Only>
0

> <s_lp_Force_Field>
OPLS_2005

> <r_lp_Energy>
46.5275

> <b_lp_Chiralities_Consistent>
1

> <s_lp_Variant>
AV-unprocessed.smi:196-8

> <Gold.Version>
5.8.1

> <Gold.Id.Protein>
6NUR|6NUR_protein|mol2

> <Gold.PLP.Fitness>
45.8478

> <Gold.PLP.PLP>
-40.1083

> <Gold.PLP.part.hbond>
-1.9364

> <Gold.PLP.part.metal>
0.0000

> <Gold.PLP.part.buried>
-4.2940

> <Gold.PLP.part.nonpolar>
-35.1915

> <Gold.PLP.part.repulsive>
0.4789

> <Gold.PLP.ligand.clash>
0.0000

> <Gold.PLP.ligand.torsion>
0.5276

> <Gold.PLP.Chemscore.Hbond>
1.9913

> <Gold.PLP.Chemscore.CHOScore>
0.2439

> <Gold.PLP.Chemscore.Metal>
0.0000

> <Gold.Chemscore.Hbonds>
donor molecule, donor type, donor heavy atom, donor atom, acceptor molecule, acceptor atom, score
      L1  H     7    37       P1 10957  0.88
      L1  H    21    46       P1 10737  0.41
      L1  C    10    40       P1 10747  0.08

> <Gold.PLP.Chemscore.Internal.Correction>
0.0893

> <Gold.Rescore>
     Score         DG    S(hbond)    S(metal)    S(lipo)     H(rot)  DE(clash)    DE(int)     intcor
      7.27     -11.36       1.99        0.00      59.95       3.04       0.02       4.07       ----

> <Gold.Chemscore.Fitness>
7.2680

> <Gold.Chemscore.DG>
-11.3576

> <Gold.Chemscore.ZeroCoef>
-5.4800

> <Gold.Chemscore.Hbond>
1.9908

> <Gold.Chemscore.Metal>
0.0000

> <Gold.Chemscore.Lipo>
59.9494

> <Gold.Chemscore.Internal_Hbond>
0.0000

> <Gold.Chemscore.DEClash>
0.0180

> <Gold.Chemscore.DEInternal>
4.0716

> <Gold.Chemscore.Rot>
3.0413

> <Gold.Chemscore.Internal.Correction>
   9.000000E+99

> <Gold.Chemscore.Hbonds>
donor molecule, donor type, donor heavy atom, donor atom, acceptor molecule, acceptor atom, score
      L1  H     7    37       P1 10957  0.72
      L1  H    21    46       P1 10737  0.38

> <Gold.Chemscore.Hbond.Weighted>
-6.6491

> <Gold.Chemscore.Metal.Weighted>
-0.0000

> <Gold.Chemscore.Lipo.Weighted>
-7.0141

> <Gold.Chemscore.Internal_Hbond.Weighted>
0.0000

> <Gold.Chemscore.DEClash.Weighted>
0.0180

> <Gold.Chemscore.DEInternal.Weighted>
4.0716

> <Gold.Chemscore.Rot.Weighted>
7.7856

> <Gold.Chemscore.Internal.Correction.Weighted>
   9.000000E+99

> <Gold.Protein.RotatedTorsions>
[ 6907 6896 6895 6894 ] final   49.78 input  -60.11 | X-H torsion
[ 7974 7965 7964 7962 ] final   33.94 input  175.53 | X-H torsion
[ 8008 7997 7996 7995 ] final  162.12 input   59.86 | X-H torsion
[ 10167 10162 10161 10158 ] final   44.75 input  -65.29 | X-H torsion
[ 10718 10713 10712 10709 ] final   47.00 input   66.30 | X-H torsion
[ 10763 10752 10751 10750 ] final  155.21 input  -60.55 | X-H torsion
[ 11005 11000 10999 10996 ] final -109.53 input  -57.11 | X-H torsion

> <Gold.Protein.ActiveResidues>
 VAL166  LYS551  ARG553  GLY616  TRP617  ASP618  TYR619  PRO620  LYS621  CYS622 
 ASP623  PHE694  ASN695  SER759  ASP760  ASP761  ALA762  ILE779  LEU786  VAL792 
 PHE793  MET794  SER795  GLU796  ALA797  LYS798  CYS799  TRP800  GLU811  SER814 

> <Gold.Protein.RotatedAtoms>
  152.2945  134.7683  160.0370 H   0  0  0  0  0  0  0  0  0  0  0  0  # atno 6907 bound_to 6896
  151.8217  133.3390  159.3594 H   0  0  0  0  0  0  0  0  0  0  0  0  # atno 6908 bound_to 6896
  150.7245  134.5496  159.5832 H   0  0  0  0  0  0  0  0  0  0  0  0  # atno 6909 bound_to 6896
  146.1387  139.6332  142.9178 H   0  0  0  0  0  0  0  0  0  0  0  0  # atno 7974 bound_to 7965
  156.2054  140.1759  156.7811 H   0  0  0  0  0  0  0  0  0  0  0  0  # atno 8008 bound_to 7997
  154.5648  140.0693  156.8905 H   0  0  0  0  0  0  0  0  0  0  0  0  # atno 8009 bound_to 7997
  155.2781  140.3347  155.4262 H   0  0  0  0  0  0  0  0  0  0  0  0  # atno 8010 bound_to 7997
  140.3311  144.2587  150.6168 H   0  0  0  0  0  0  0  0  0  0  0  0  # atno 10167 bound_to 10162
  157.4539  130.8155  149.7817 H   0  0  0  0  0  0  0  0  0  0  0  0  # atno 10718 bound_to 10713
  154.1646  135.2808  155.3099 H   0  0  0  0  0  0  0  0  0  0  0  0  # atno 10763 bound_to 10752
  154.6121  135.5495  153.7487 H   0  0  0  0  0  0  0  0  0  0  0  0  # atno 10764 bound_to 10752
  153.0182  135.6418  154.1788 H   0  0  0  0  0  0  0  0  0  0  0  0  # atno 10765 bound_to 10752
  141.0842  133.9167  157.2222 H   0  0  0  0  0  0  0  0  0  0  0  0  # atno 11005 bound_to 11000
  145.5097  141.0436  143.2494 LP  0  0  0  0  0  0  0  0  0  0  0  0  # atno 17320 bound_to 7965
  144.7768  139.6613  143.7171 LP  0  0  0  0  0  0  0  0  0  0  0  0  # atno 17321 bound_to 7965
  140.5396  143.2226  151.8106 LP  0  0  0  0  0  0  0  0  0  0  0  0  # atno 17342 bound_to 10162
  139.4856  144.4617  151.9533 LP  0  0  0  0  0  0  0  0  0  0  0  0  # atno 17343 bound_to 10162
  155.9999  130.3886  150.2647 LP  0  0  0  0  0  0  0  0  0  0  0  0  # atno 17370 bound_to 10713
  157.0821  131.0146  151.3153 LP  0  0  0  0  0  0  0  0  0  0  0  0  # atno 17371 bound_to 10713
  139.9658  135.0142  156.9384 LP  0  0  0  0  0  0  0  0  0  0  0  0  # atno 17394 bound_to 11000
  140.5400  134.0729  155.7339 LP  0  0  0  0  0  0  0  0  0  0  0  0  # atno 17395 bound_to 11000

$$$$
