AV-unprocessed.smi:2486|AV-procd|sdf|9790|dock10
  -GOLD-   2272013433D 1   1.00000     0.00000
 Structure written by MMmdl.
 42 43  0  0  0  0  0  0  0  0  1 V2000
  150.8417  138.6117  154.3495 C   0  0  0  0  0  0  0  0  0  0  0  0
  149.7152  139.5250  154.3613 N   0  0  0  0  0  0  0  0  0  0  0  0
  149.8574  140.8013  154.7897 N   0  0  0  0  0  0  0  0  0  0  0  0
  148.6279  141.2971  154.6477 C   0  0  0  0  0  0  0  0  0  0  0  0
  147.6879  140.4363  154.1568 N   0  0  0  0  0  0  0  0  0  0  0  0
  148.4400  139.3510  154.0024 C   0  0  0  0  0  0  0  0  0  0  0  0
  148.0024  138.0915  153.5121 N   0  0  0  0  0  0  0  0  0  0  0  0
  146.7814  137.5424  153.6269 C   0  0  0  0  0  0  0  0  0  0  0  0
  145.8150  138.0664  154.1814 O   0  0  0  0  0  0  0  0  0  0  0  0
  146.7369  136.3329  153.0538 N   0  0  0  0  0  0  0  0  0  0  0  0
  145.5502  135.4840  153.0085 C   0  0  0  0  0  0  0  0  0  0  0  0
  145.3323  134.8273  151.6185 C   0  0  0  0  0  0  0  0  0  0  0  0
  145.2590  135.9387  150.5459 C   0  0  0  0  0  0  0  0  0  0  0  0
  146.5639  133.9387  151.2933 C   0  0  0  0  0  0  0  0  0  0  0  0
  146.5895  132.5398  151.9373 C   0  0  0  0  0  0  0  0  0  0  0  0
  145.9060  131.4709  151.0681 C   0  0  0  0  0  0  0  0  0  0  0  0
  144.3751  131.5728  151.0141 C   0  0  0  0  0  0  0  0  0  0  0  0
  143.8381  132.9389  150.5531 C   0  0  0  0  0  0  0  0  0  0  0  0
  143.9943  134.0343  151.6244 C   0  0  0  0  0  0  0  0  0  0  0  0
  150.9925  138.2300  153.3393 H   0  0  0  0  0  0  0  0  0  0  0  0
  150.6426  137.7763  155.0214 H   0  0  0  0  0  0  0  0  0  0  0  0
  151.7512  139.1191  154.6745 H   0  0  0  0  0  0  0  0  0  0  0  0
  148.3991  142.3198  154.9090 H   0  0  0  0  0  0  0  0  0  0  0  0
  148.6979  137.5485  153.0225 H   0  0  0  0  0  0  0  0  0  0  0  0
  147.5737  135.9735  152.6185 H   0  0  0  0  0  0  0  0  0  0  0  0
  145.6423  134.7141  153.7768 H   0  0  0  0  0  0  0  0  0  0  0  0
  144.6848  136.0894  153.2815 H   0  0  0  0  0  0  0  0  0  0  0  0
  145.1308  135.5228  149.5463 H   0  0  0  0  0  0  0  0  0  0  0  0
  146.1711  136.5367  150.5346 H   0  0  0  0  0  0  0  0  0  0  0  0
  144.4255  136.6207  150.7165 H   0  0  0  0  0  0  0  0  0  0  0  0
  146.6666  133.8215  150.2136 H   0  0  0  0  0  0  0  0  0  0  0  0
  147.4667  134.4728  151.5925 H   0  0  0  0  0  0  0  0  0  0  0  0
  147.6329  132.2456  152.0565 H   0  0  0  0  0  0  0  0  0  0  0  0
  146.1705  132.5533  152.9435 H   0  0  0  0  0  0  0  0  0  0  0  0
  146.3115  131.5055  150.0561 H   0  0  0  0  0  0  0  0  0  0  0  0
  146.1683  130.4861  151.4559 H   0  0  0  0  0  0  0  0  0  0  0  0
  144.0070  130.8048  150.3330 H   0  0  0  0  0  0  0  0  0  0  0  0
  143.9570  131.3232  151.9899 H   0  0  0  0  0  0  0  0  0  0  0  0
  144.2847  133.2389  149.6050 H   0  0  0  0  0  0  0  0  0  0  0  0
  142.7732  132.8191  150.3515 H   0  0  0  0  0  0  0  0  0  0  0  0
  143.8358  133.5825  152.6047 H   0  0  0  0  0  0  0  0  0  0  0  0
  143.1691  134.7389  151.5130 H   0  0  0  0  0  0  0  0  0  0  0  0
  1  2  1  0  0  0  0
  1 20  1  0  0  0  0
  1 21  1  0  0  0  0
  1 22  1  0  0  0  0
  2  6  1  0  0  0  0
  2  3  1  0  0  0  0
  3  4  2  0  0  0  0
  4  5  1  0  0  0  0
  4 23  1  0  0  0  0
  5  6  2  0  0  0  0
  6  7  1  0  0  0  0
  7  8  1  0  0  0  0
  7 24  1  0  0  0  0
  8  9  2  0  0  0  0
  8 10  1  0  0  0  0
 10 11  1  0  0  0  0
 10 25  1  0  0  0  0
 11 12  1  0  0  0  0
 11 26  1  0  0  0  0
 11 27  1  0  0  0  0
 12 19  1  0  0  0  0
 12 13  1  0  0  0  0
 12 14  1  0  0  0  0
 13 28  1  0  0  0  0
 13 29  1  0  0  0  0
 13 30  1  0  0  0  0
 14 15  1  0  0  0  0
 14 31  1  0  0  0  0
 14 32  1  0  0  0  0
 15 16  1  0  0  0  0
 15 33  1  0  0  0  0
 15 34  1  0  0  0  0
 16 17  1  0  0  0  0
 16 35  1  0  0  0  0
 16 36  1  0  0  0  0
 17 18  1  0  0  0  0
 17 37  1  0  0  0  0
 17 38  1  0  0  0  0
 18 19  1  0  0  0  0
 18 39  1  0  0  0  0
 18 40  1  0  0  0  0
 19 41  1  0  0  0  0
 19 42  1  0  0  0  0
M  END
> <s_m_source_file>
AV-unprocessed.smi

> <i_m_source_file_index>
2486

> <i_lp_mmshare_version>
43012

> <i_f3d_flags>
0

> <s_epik_input>
W0NIM11uMW5bY0hdbmMxW05IXUMoPU8pW05IXVtDSDJdQzIoW0NIM10pW0NIMl1bQ0gyXVtDSDJdW0NIMl1bQ0gyXVtDSDJdMg==

> <s_epik_cmdline>
J2VwaWtfcHl0aG9uJywgJy1waCcsICc3LjAnLCAnLXRuJywgJzgnLCAnLW1hJywgJzIwMCcsICctbWV0YWxfYmluZGluZycsICctaW1hZScsICc8aW5maWxlLm1hZT4nLCAnLW9tYWUnLCAnPG91dGZpbGUubWFlPic=

> <r_lp_tautomer_probability>
1

> <r_epik_Ionization_Penalty>
2.33289e-05

> <r_epik_Ionization_Penalty_Charging>
0

> <r_epik_Ionization_Penalty_Neutral>
2.33289e-05

> <r_epik_State_Penalty>
-0

> <r_epik_Charging_Adjusted_Penalty>
0

> <i_epik_Tot_Q>
0

> <i_epik_Tot_abs_Q>
0

> <r_epik_Metal_State_Penalty>
-0

> <b_epik_Metal_Only>
0

> <s_lp_Force_Field>
OPLS_2005

> <r_lp_Energy>
21.4414

> <b_lp_Chiralities_Consistent>
1

> <s_lp_Variant>
AV-unprocessed.smi:2486-1

> <Gold.Version>
5.8.1

> <Gold.Id.Protein>
6NUR|6NUR_protein|mol2

> <Gold.PLP.Fitness>
42.1809

> <Gold.PLP.PLP>
-33.6180

> <Gold.PLP.part.hbond>
-3.0000

> <Gold.PLP.part.metal>
0.0000

> <Gold.PLP.part.buried>
-1.3790

> <Gold.PLP.part.nonpolar>
-28.9969

> <Gold.PLP.part.repulsive>
0.4215

> <Gold.PLP.ligand.clash>
0.0000

> <Gold.PLP.ligand.torsion>
0.3053

> <Gold.PLP.Chemscore.Hbond>
2.0566

> <Gold.PLP.Chemscore.CHOScore>
0.9992

> <Gold.PLP.Chemscore.Metal>
0.0000

> <Gold.Chemscore.Hbonds>
donor molecule, donor type, donor heavy atom, donor atom, acceptor molecule, acceptor atom, score
      L1  H     7    24       P1  7948  0.91
      L1  H    10    25       P1  7948  1.00
      P1  H  7989  7998       L1     3  0.14
      L1  C     4    23       P1  8028  0.97

> <Gold.PLP.Chemscore.Internal.Correction>
0.0062

> <Gold.Rescore>
     Score         DG    S(hbond)    S(metal)    S(lipo)     H(rot)  DE(clash)    DE(int)     intcor
     15.52     -16.00       1.91        0.00      64.93       1.35       0.01       0.47       ----

> <Gold.Chemscore.Fitness>
15.5167

> <Gold.Chemscore.DG>
-15.9972

> <Gold.Chemscore.ZeroCoef>
-5.4800

> <Gold.Chemscore.Hbond>
1.9057

> <Gold.Chemscore.Metal>
0.0000

> <Gold.Chemscore.Lipo>
64.9271

> <Gold.Chemscore.Internal_Hbond>
0.0000

> <Gold.Chemscore.DEClash>
0.0116

> <Gold.Chemscore.DEInternal>
0.4688

> <Gold.Chemscore.Rot>
1.3454

> <Gold.Chemscore.Internal.Correction>
   9.000000E+99

> <Gold.Chemscore.Hbonds>
donor molecule, donor type, donor heavy atom, donor atom, acceptor molecule, acceptor atom, score
      L1  H     7    24       P1  7948  0.90
      L1  H    10    25       P1  7948  0.93

> <Gold.Chemscore.Hbond.Weighted>
-6.3649

> <Gold.Chemscore.Metal.Weighted>
-0.0000

> <Gold.Chemscore.Lipo.Weighted>
-7.5965

> <Gold.Chemscore.Internal_Hbond.Weighted>
0.0000

> <Gold.Chemscore.DEClash.Weighted>
0.0116

> <Gold.Chemscore.DEInternal.Weighted>
0.4688

> <Gold.Chemscore.Rot.Weighted>
3.4442

> <Gold.Chemscore.Internal.Correction.Weighted>
   9.000000E+99

> <Gold.Protein.RotatedTorsions>
[ 6907 6896 6895 6894 ] final  -32.41 input  -60.11 | X-H torsion
[ 7974 7965 7964 7962 ] final    9.07 input  175.53 | X-H torsion
[ 8008 7997 7996 7995 ] final   19.61 input   59.86 | X-H torsion
[ 10167 10162 10161 10158 ] final   11.95 input  -65.29 | X-H torsion
[ 10718 10713 10712 10709 ] final  125.72 input   66.30 | X-H torsion
[ 10763 10752 10751 10750 ] final   80.74 input  -60.55 | X-H torsion
[ 11005 11000 10999 10996 ] final  140.15 input  -57.11 | X-H torsion

> <Gold.Protein.ActiveResidues>
 VAL166  LYS551  ARG553  GLY616  TRP617  ASP618  TYR619  PRO620  LYS621  CYS622 
 ASP623  PHE694  ASN695  SER759  ASP760  ASP761  ALA762  ILE779  LEU786  VAL792 
 PHE793  MET794  SER795  GLU796  ALA797  LYS798  CYS799  TRP800  GLU811  SER814 

> <Gold.Protein.RotatedAtoms>
  151.0792  134.9847  159.8347 H   0  0  0  0  0  0  0  0  0  0  0  0  # atno 6907 bound_to 6896
  152.5417  134.2203  159.8795 H   0  0  0  0  0  0  0  0  0  0  0  0  # atno 6908 bound_to 6896
  151.2232  133.4447  159.2635 H   0  0  0  0  0  0  0  0  0  0  0  0  # atno 6909 bound_to 6896
  146.2408  139.9838  142.8433 H   0  0  0  0  0  0  0  0  0  0  0  0  # atno 7974 bound_to 7965
  154.9234  140.3030  155.5205 H   0  0  0  0  0  0  0  0  0  0  0  0  # atno 8008 bound_to 7997
  156.3008  140.2367  156.4222 H   0  0  0  0  0  0  0  0  0  0  0  0  # atno 8009 bound_to 7997
  154.8309  140.0418  157.1465 H   0  0  0  0  0  0  0  0  0  0  0  0  # atno 8010 bound_to 7997
  140.6099  143.8429  150.7054 H   0  0  0  0  0  0  0  0  0  0  0  0  # atno 10167 bound_to 10162
  157.5479  131.1095  150.8750 H   0  0  0  0  0  0  0  0  0  0  0  0  # atno 10718 bound_to 10713
  153.1058  135.4791  154.8949 H   0  0  0  0  0  0  0  0  0  0  0  0  # atno 10763 bound_to 10752
  154.7428  135.3086  154.8699 H   0  0  0  0  0  0  0  0  0  0  0  0  # atno 10764 bound_to 10752
  153.9303  135.6845  153.4799 H   0  0  0  0  0  0  0  0  0  0  0  0  # atno 10765 bound_to 10752
  140.0306  134.9353  157.0655 H   0  0  0  0  0  0  0  0  0  0  0  0  # atno 11005 bound_to 11000
  145.1567  140.9651  143.4401 LP  0  0  0  0  0  0  0  0  0  0  0  0  # atno 17320 bound_to 7965
  145.0154  139.3472  143.6099 LP  0  0  0  0  0  0  0  0  0  0  0  0  # atno 17321 bound_to 7965
  140.1995  143.3970  152.1802 LP  0  0  0  0  0  0  0  0  0  0  0  0  # atno 17342 bound_to 10162
  139.5353  144.7203  151.4914 LP  0  0  0  0  0  0  0  0  0  0  0  0  # atno 17343 bound_to 10162
  156.9284  130.5340  149.5279 LP  0  0  0  0  0  0  0  0  0  0  0  0  # atno 17370 bound_to 10713
  156.0551  130.5614  150.9075 LP  0  0  0  0  0  0  0  0  0  0  0  0  # atno 17371 bound_to 10713
  140.4232  134.1859  155.7165 LP  0  0  0  0  0  0  0  0  0  0  0  0  # atno 17394 bound_to 11000
  141.1829  133.8376  157.1194 LP  0  0  0  0  0  0  0  0  0  0  0  0  # atno 17395 bound_to 11000

$$$$
