AV-unprocessed.smi:3259|AV-procd|sdf|12472|dock7
  -GOLD-   2272018373D 1   1.00000     0.00000
 Structure written by MMmdl.
 39 40  0  0  0  0  0  0  0  0  1 V2000
  152.3624  143.8355  161.7025 C   0  0  0  0  0  0  0  0  0  0  0  0
  151.6823  142.8091  160.9919 O   0  0  0  0  0  0  0  0  0  0  0  0
  152.0954  142.5922  159.6415 C   0  0  1  0  0  0  0  0  0  0  0  0
  153.6140  142.3634  159.5868 C   0  0  0  0  0  0  0  0  0  0  0  0
  151.1889  141.5861  158.9093 C   0  0  0  0  0  0  0  0  0  0  0  0
  151.2273  142.5478  157.7236 C   0  0  1  0  0  0  0  0  0  0  0  0
  149.9547  142.6124  157.0161 N   0  0  0  0  0  0  0  0  0  0  0  0
  149.1886  141.5496  156.7280 C   0  0  0  0  0  0  0  0  0  0  0  0
  149.4493  140.4056  157.0992 O   0  0  0  0  0  0  0  0  0  0  0  0
  147.9440  141.8173  155.8802 C   0  0  0  0  0  0  0  0  0  0  0  0
  147.8051  140.8296  154.8235 N   0  0  0  0  0  0  0  0  0  0  0  0
  146.9903  140.8730  153.7109 C   0  0  0  0  0  0  0  0  0  0  0  0
  147.2141  139.7308  152.9974 C   0  0  0  0  0  0  0  0  0  0  0  0
  148.1945  139.0406  153.7637 C   0  0  0  0  0  0  0  0  0  0  0  0
  148.5465  139.7003  154.8554 N   0  0  0  0  0  0  0  0  0  0  0  0
  151.4634  143.6988  158.7357 C   0  0  0  0  0  0  0  0  0  0  0  0
  150.2079  144.4009  159.2947 C   0  0  0  0  0  0  0  0  0  0  0  0
  152.3947  144.8202  158.2649 C   0  0  0  0  0  0  0  0  0  0  0  0
  152.0273  143.8316  162.7395 H   0  0  0  0  0  0  0  0  0  0  0  0
  152.1460  144.8234  161.2968 H   0  0  0  0  0  0  0  0  0  0  0  0
  153.4422  143.6851  161.7047 H   0  0  0  0  0  0  0  0  0  0  0  0
  153.9827  142.3267  158.5619 H   0  0  0  0  0  0  0  0  0  0  0  0
  153.9000  141.4187  160.0480 H   0  0  0  0  0  0  0  0  0  0  0  0
  154.1538  143.1599  160.0994 H   0  0  0  0  0  0  0  0  0  0  0  0
  151.6449  140.6144  158.7178 H   0  0  0  0  0  0  0  0  0  0  0  0
  150.1988  141.4809  159.3565 H   0  0  0  0  0  0  0  0  0  0  0  0
  152.0866  142.3619  157.0753 H   0  0  0  0  0  0  0  0  0  0  0  0
  149.6637  143.5178  156.6771 H   0  0  0  0  0  0  0  0  0  0  0  0
  147.0496  141.8043  156.5052 H   0  0  0  0  0  0  0  0  0  0  0  0
  148.0096  142.8097  155.4325 H   0  0  0  0  0  0  0  0  0  0  0  0
  146.3295  141.7059  153.5202 H   0  0  0  0  0  0  0  0  0  0  0  0
  146.7489  139.4342  152.0692 H   0  0  0  0  0  0  0  0  0  0  0  0
  148.6583  138.0867  153.5599 H   0  0  0  0  0  0  0  0  0  0  0  0
  149.7164  145.0133  158.5377 H   0  0  0  0  0  0  0  0  0  0  0  0
  150.4569  145.0595  160.1275 H   0  0  0  0  0  0  0  0  0  0  0  0
  149.4645  143.6924  159.6606 H   0  0  0  0  0  0  0  0  0  0  0  0
  151.8875  145.5023  157.5820 H   0  0  0  0  0  0  0  0  0  0  0  0
  153.2624  144.4337  157.7308 H   0  0  0  0  0  0  0  0  0  0  0  0
  152.7647  145.4098  159.1042 H   0  0  0  0  0  0  0  0  0  0  0  0
  1  2  1  0  0  0  0
  1 19  1  0  0  0  0
  1 20  1  0  0  0  0
  1 21  1  0  0  0  0
  2  3  1  0  0  0  0
  3 16  1  0  0  0  0
  3  4  1  0  0  0  0
  3  5  1  0  0  0  0
  4 22  1  0  0  0  0
  4 23  1  0  0  0  0
  4 24  1  0  0  0  0
  5  6  1  0  0  0  0
  5 25  1  0  0  0  0
  5 26  1  0  0  0  0
  6  7  1  0  0  0  0
  6 16  1  0  0  0  0
  6 27  1  0  0  0  0
  7  8  1  0  0  0  0
  7 28  1  0  0  0  0
  8  9  2  0  0  0  0
  8 10  1  0  0  0  0
 10 11  1  0  0  0  0
 10 29  1  0  0  0  0
 10 30  1  0  0  0  0
 11 15  1  0  0  0  0
 11 12  1  0  0  0  0
 12 13  2  0  0  0  0
 12 31  1  0  0  0  0
 13 14  1  0  0  0  0
 13 32  1  0  0  0  0
 14 15  2  0  0  0  0
 14 33  1  0  0  0  0
 16 17  1  0  0  0  0
 16 18  1  0  0  0  0
 17 34  1  0  0  0  0
 17 35  1  0  0  0  0
 17 36  1  0  0  0  0
 18 37  1  0  0  0  0
 18 38  1  0  0  0  0
 18 39  1  0  0  0  0
M  END
> <s_m_source_file>
AV-unprocessed.smi

> <i_m_source_file_index>
3259

> <i_lp_mmshare_version>
43012

> <i_f3d_flags>
0

> <s_epik_input>
W0NIM11PW0NAQF0xKFtDSDNdKVtDSDJdW0NASF0oQzEoW0NIM10pW0NIM10pW05IXUMoPU8pW0NIMl1uMltjSF1bY0hdW2NIXW4y

> <s_epik_cmdline>
J2VwaWtfcHl0aG9uJywgJy1waCcsICc3LjAnLCAnLXRuJywgJzgnLCAnLW1hJywgJzIwMCcsICctbWV0YWxfYmluZGluZycsICctaW1hZScsICc8aW5maWxlLm1hZT4nLCAnLW9tYWUnLCAnPG91dGZpbGUubWFlPic=

> <r_lp_tautomer_probability>
1

> <r_epik_Ionization_Penalty>
1.78399e-05

> <r_epik_Ionization_Penalty_Charging>
0

> <r_epik_Ionization_Penalty_Neutral>
1.78399e-05

> <r_epik_State_Penalty>
-0

> <r_epik_Charging_Adjusted_Penalty>
0

> <i_epik_Tot_Q>
0

> <i_epik_Tot_abs_Q>
0

> <r_epik_Metal_State_Penalty>
-0

> <b_epik_Metal_Only>
0

> <s_lp_Force_Field>
OPLS_2005

> <r_lp_Energy>
22.2184

> <b_lp_Chiralities_Consistent>
1

> <s_lp_Variant>
AV-unprocessed.smi:3259-1

> <Gold.Version>
5.8.1

> <Gold.Id.Protein>
6NUR|6NUR_protein|mol2

> <Gold.PLP.Fitness>
41.8853

> <Gold.PLP.PLP>
-36.6549

> <Gold.PLP.part.hbond>
-2.0000

> <Gold.PLP.part.metal>
0.0000

> <Gold.PLP.part.buried>
-3.3367

> <Gold.PLP.part.nonpolar>
-30.8558

> <Gold.PLP.part.repulsive>
0.1834

> <Gold.PLP.ligand.clash>
0.0000

> <Gold.PLP.ligand.torsion>
0.7198

> <Gold.PLP.Chemscore.Hbond>
1.0975

> <Gold.PLP.Chemscore.CHOScore>
1.0000

> <Gold.PLP.Chemscore.Metal>
0.0000

> <Gold.Chemscore.Hbonds>
donor molecule, donor type, donor heavy atom, donor atom, acceptor molecule, acceptor atom, score
      L1  H     7    28       P1  8028  1.00
      P1  H  6933  6945       L1     2  0.12
      L1  C    14    33       P1  7948  1.00

> <Gold.PLP.Chemscore.Internal.Correction>
0.3776

> <Gold.Rescore>
     Score         DG    S(hbond)    S(metal)    S(lipo)     H(rot)  DE(clash)    DE(int)     intcor
     13.57     -17.51       1.07        0.00     107.09       1.60       0.11       3.83       ----

> <Gold.Chemscore.Fitness>
13.5685

> <Gold.Chemscore.DG>
-17.5072

> <Gold.Chemscore.ZeroCoef>
-5.4800

> <Gold.Chemscore.Hbond>
1.0731

> <Gold.Chemscore.Metal>
0.0000

> <Gold.Chemscore.Lipo>
107.0889

> <Gold.Chemscore.Internal_Hbond>
0.0000

> <Gold.Chemscore.DEClash>
0.1124

> <Gold.Chemscore.DEInternal>
3.8263

> <Gold.Chemscore.Rot>
1.5962

> <Gold.Chemscore.Internal.Correction>
   9.000000E+99

> <Gold.Chemscore.Hbonds>
donor molecule, donor type, donor heavy atom, donor atom, acceptor molecule, acceptor atom, score
      L1  H     7    28       P1  8028  0.99
      P1  H  6933  6945       L1     2  0.10

> <Gold.Chemscore.Hbond.Weighted>
-3.5840

> <Gold.Chemscore.Metal.Weighted>
-0.0000

> <Gold.Chemscore.Lipo.Weighted>
-12.5294

> <Gold.Chemscore.Internal_Hbond.Weighted>
0.0000

> <Gold.Chemscore.DEClash.Weighted>
0.1124

> <Gold.Chemscore.DEInternal.Weighted>
3.8263

> <Gold.Chemscore.Rot.Weighted>
4.0862

> <Gold.Chemscore.Internal.Correction.Weighted>
   9.000000E+99

> <Gold.Protein.RotatedTorsions>
[ 6907 6896 6895 6894 ] final  -50.40 input  -60.11 | X-H torsion
[ 7974 7965 7964 7962 ] final   32.27 input  175.53 | X-H torsion
[ 8008 7997 7996 7995 ] final   45.01 input   59.86 | X-H torsion
[ 10167 10162 10161 10158 ] final  -46.33 input  -65.29 | X-H torsion
[ 10718 10713 10712 10709 ] final  108.85 input   66.30 | X-H torsion
[ 10763 10752 10751 10750 ] final   75.05 input  -60.55 | X-H torsion
[ 11005 11000 10999 10996 ] final   60.39 input  -57.11 | X-H torsion

> <Gold.Protein.ActiveResidues>
 VAL166  LYS551  ARG553  GLY616  TRP617  ASP618  TYR619  PRO620  LYS621  CYS622 
 ASP623  PHE694  ASN695  SER759  ASP760  ASP761  ALA762  ILE779  LEU786  VAL792 
 PHE793  MET794  SER795  GLU796  ALA797  LYS798  CYS799  TRP800  GLU811  SER814 

> <Gold.Protein.RotatedAtoms>
  150.8711  134.8085  159.7154 H   0  0  0  0  0  0  0  0  0  0  0  0  # atno 6907 bound_to 6896
  152.4715  134.4945  159.9715 H   0  0  0  0  0  0  0  0  0  0  0  0  # atno 6908 bound_to 6896
  151.5034  133.3461  159.2908 H   0  0  0  0  0  0  0  0  0  0  0  0  # atno 6909 bound_to 6896
  146.1497  139.6548  142.9107 H   0  0  0  0  0  0  0  0  0  0  0  0  # atno 7974 bound_to 7965
  155.3288  140.3401  155.4240 H   0  0  0  0  0  0  0  0  0  0  0  0  # atno 8008 bound_to 7997
  156.1872  140.1685  156.8199 H   0  0  0  0  0  0  0  0  0  0  0  0  # atno 8009 bound_to 7997
  154.5400  140.0727  156.8477 H   0  0  0  0  0  0  0  0  0  0  0  0  # atno 8010 bound_to 7997
  140.6822  143.2836  151.3767 H   0  0  0  0  0  0  0  0  0  0  0  0  # atno 10167 bound_to 10162
  157.6568  131.0902  150.6367 H   0  0  0  0  0  0  0  0  0  0  0  0  # atno 10718 bound_to 10713
  153.0628  135.5003  154.8133 H   0  0  0  0  0  0  0  0  0  0  0  0  # atno 10763 bound_to 10752
  154.6909  135.2984  154.9483 H   0  0  0  0  0  0  0  0  0  0  0  0  # atno 10764 bound_to 10752
  154.0238  135.6738  153.4827 H   0  0  0  0  0  0  0  0  0  0  0  0  # atno 10765 bound_to 10752
  140.0235  134.6117  155.9605 H   0  0  0  0  0  0  0  0  0  0  0  0  # atno 11005 bound_to 11000
  145.4853  141.0438  143.2623 LP  0  0  0  0  0  0  0  0  0  0  0  0  # atno 17320 bound_to 7965
  144.7889  139.6369  143.7122 LP  0  0  0  0  0  0  0  0  0  0  0  0  # atno 17321 bound_to 7965
  139.6152  144.1016  152.2339 LP  0  0  0  0  0  0  0  0  0  0  0  0  # atno 17342 bound_to 10162
  140.0443  144.5982  150.7386 LP  0  0  0  0  0  0  0  0  0  0  0  0  # atno 17343 bound_to 10162
  156.6672  130.4529  149.5668 LP  0  0  0  0  0  0  0  0  0  0  0  0  # atno 17370 bound_to 10713
  156.2024  130.6628  151.1181 LP  0  0  0  0  0  0  0  0  0  0  0  0  # atno 17371 bound_to 10713
  141.1788  133.6543  156.4937 LP  0  0  0  0  0  0  0  0  0  0  0  0  # atno 17394 bound_to 11000
  140.4346  134.7071  157.4960 LP  0  0  0  0  0  0  0  0  0  0  0  0  # atno 17395 bound_to 11000

$$$$
