AV-unprocessed.smi:1059|AV-procd|sdf|4654|dock6
  -GOLD-   22720 3163D 1   1.00000     0.00000
 Structure written by MMmdl.
 55 56  0  0  0  0  0  0  0  0  2 V2000
  153.3299  141.9566  160.2725 C   0  0  0  0  0  0  0  0  0  0  0  0
  152.6571  142.2721  158.9276 C   0  0  0  0  0  0  0  0  0  0  0  0
  152.4714  143.7933  158.7723 C   0  0  0  0  0  0  0  0  0  0  0  0
  151.3272  141.4908  158.7899 C   0  0  0  0  0  0  0  0  0  0  0  0
  150.4577  141.8615  157.5715 C   0  0  0  0  0  0  0  0  0  0  0  0
  149.5194  142.6459  157.7196 O   0  0  0  0  0  0  0  0  0  0  0  0
  150.7535  141.3174  156.3652 N   0  0  0  0  0  0  0  0  0  0  0  0
  151.8635  140.3756  156.1722 C   0  0  0  0  0  0  0  0  0  0  0  0
  151.2895  138.9689  155.9256 C   0  0  0  0  0  0  0  0  0  0  0  0
  150.3164  138.9640  154.7276 C   0  0  0  0  0  0  0  0  0  0  0  0
  149.6657  137.6608  154.6293 N   0  0  0  0  0  0  0  0  0  0  0  0
  150.2885  136.4773  154.7224 C   0  0  0  0  0  0  0  0  0  0  0  0
  151.5011  136.3596  154.8977 O   0  0  0  0  0  0  0  0  0  0  0  0
  149.4170  135.4590  154.6184 N   0  0  0  0  0  0  0  0  0  0  0  0
  149.6845  134.0637  154.6470 C   0  0  0  0  0  0  0  0  0  0  0  0
  148.9946  133.2412  153.7302 C   0  0  0  0  0  0  0  0  0  0  0  0
  149.2366  131.8522  153.7160 C   0  0  0  0  0  0  0  0  0  0  0  0
  150.1746  131.3042  154.6156 C   0  0  0  0  0  0  0  0  0  0  0  0
  150.4450  129.9291  154.6389 N   0  0  0  0  0  0  0  0  0  0  0  0
  149.5936  129.1721  153.7339 C   0  0  0  0  0  0  0  0  0  0  0  0
  151.8679  129.6299  154.5735 C   0  0  0  0  0  0  0  0  0  0  0  0
  150.8299  132.1261  155.4693 N   0  3  0  0  0  0  0  0  0  0  0  0
  150.6269  133.4605  155.5159 C   0  0  0  0  0  0  0  0  0  0  0  0
  149.2704  140.0962  154.8500 C   0  0  0  0  0  0  0  0  0  0  0  0
  149.9446  141.4480  155.1457 C   0  0  0  0  0  0  0  0  0  0  0  0
  152.7036  142.2633  161.1109 H   0  0  0  0  0  0  0  0  0  0  0  0
  154.2857  142.4730  160.3655 H   0  0  0  0  0  0  0  0  0  0  0  0
  153.5250  140.8887  160.3761 H   0  0  0  0  0  0  0  0  0  0  0  0
  153.3412  141.9355  158.1468 H   0  0  0  0  0  0  0  0  0  0  0  0
  151.7967  144.1879  159.5325 H   0  0  0  0  0  0  0  0  0  0  0  0
  152.0620  144.0596  157.7985 H   0  0  0  0  0  0  0  0  0  0  0  0
  153.4230  144.3155  158.8730 H   0  0  0  0  0  0  0  0  0  0  0  0
  151.5461  140.4247  158.7162 H   0  0  0  0  0  0  0  0  0  0  0  0
  150.7471  141.6334  159.7022 H   0  0  0  0  0  0  0  0  0  0  0  0
  152.4608  140.6921  155.3158 H   0  0  0  0  0  0  0  0  0  0  0  0
  152.5521  140.3523  157.0179 H   0  0  0  0  0  0  0  0  0  0  0  0
  152.1013  138.2616  155.7524 H   0  0  0  0  0  0  0  0  0  0  0  0
  150.7727  138.6325  156.8260 H   0  0  0  0  0  0  0  0  0  0  0  0
  150.9042  139.1341  153.8234 H   0  0  0  0  0  0  0  0  0  0  0  0
  148.6659  137.6637  154.4893 H   0  0  0  0  0  0  0  0  0  0  0  0
  148.4418  135.7142  154.5612 H   0  0  0  0  0  0  0  0  0  0  0  0
  148.2775  133.6683  153.0442 H   0  0  0  0  0  0  0  0  0  0  0  0
  148.7062  131.2169  153.0217 H   0  0  0  0  0  0  0  0  0  0  0  0
  148.5459  129.4458  153.8645 H   0  0  0  0  0  0  0  0  0  0  0  0
  149.6892  128.1041  153.9315 H   0  0  0  0  0  0  0  0  0  0  0  0
  149.8704  129.3524  152.6944 H   0  0  0  0  0  0  0  0  0  0  0  0
  152.4232  130.2241  155.3002 H   0  0  0  0  0  0  0  0  0  0  0  0
  152.2670  129.8385  153.5801 H   0  0  0  0  0  0  0  0  0  0  0  0
  152.0424  128.5771  154.7966 H   0  0  0  0  0  0  0  0  0  0  0  0
  151.2345  133.9856  156.2373 H   0  0  0  0  0  0  0  0  0  0  0  0
  148.6844  140.1707  153.9332 H   0  0  0  0  0  0  0  0  0  0  0  0
  148.5648  139.8649  155.6496 H   0  0  0  0  0  0  0  0  0  0  0  0
  149.1874  142.2279  155.1969 H   0  0  0  0  0  0  0  0  0  0  0  0
  150.5933  141.7286  154.3145 H   0  0  0  0  0  0  0  0  0  0  0  0
  151.5129  131.7191  156.1084 H   0  0  0  0  0  0  0  0  0  0  0  0
  1  2  1  0  0  0  0
  1 26  1  0  0  0  0
  1 27  1  0  0  0  0
  1 28  1  0  0  0  0
  2  3  1  0  0  0  0
  2  4  1  0  0  0  0
  2 29  1  0  0  0  0
  3 30  1  0  0  0  0
  3 31  1  0  0  0  0
  3 32  1  0  0  0  0
  4  5  1  0  0  0  0
  4 33  1  0  0  0  0
  4 34  1  0  0  0  0
  5  6  2  0  0  0  0
  5  7  1  0  0  0  0
  7 25  1  0  0  0  0
  7  8  1  0  0  0  0
  8  9  1  0  0  0  0
  8 35  1  0  0  0  0
  8 36  1  0  0  0  0
  9 10  1  0  0  0  0
  9 37  1  0  0  0  0
  9 38  1  0  0  0  0
 10 11  1  0  0  0  0
 10 24  1  0  0  0  0
 10 39  1  0  0  0  0
 11 12  1  0  0  0  0
 11 40  1  0  0  0  0
 12 13  2  0  0  0  0
 12 14  1  0  0  0  0
 14 15  1  0  0  0  0
 14 41  1  0  0  0  0
 15 23  1  0  0  0  0
 15 16  2  0  0  0  0
 16 17  1  0  0  0  0
 16 42  1  0  0  0  0
 17 18  2  0  0  0  0
 17 43  1  0  0  0  0
 18 19  1  0  0  0  0
 18 22  1  0  0  0  0
 19 20  1  0  0  0  0
 19 21  1  0  0  0  0
 20 44  1  0  0  0  0
 20 45  1  0  0  0  0
 20 46  1  0  0  0  0
 21 47  1  0  0  0  0
 21 48  1  0  0  0  0
 21 49  1  0  0  0  0
 22 23  2  0  0  0  0
 22 55  1  0  0  0  0
 23 50  1  0  0  0  0
 24 25  1  0  0  0  0
 24 51  1  0  0  0  0
 24 52  1  0  0  0  0
 25 53  1  0  0  0  0
 25 54  1  0  0  0  0
M  CHG  1  22   1
M  END
> <s_m_source_file>
AV-unprocessed.smi

> <i_m_source_file_index>
1059

> <i_lp_mmshare_version>
43012

> <i_f3d_flags>
0

> <s_epik_input>
W0NIM11bQ0hdKFtDSDNdKVtDSDJdQyg9TylOMVtDSDJdW0NIMl1bQ0hdKFtDSDJdW0NIMl0xKVtOSF1DKD1PKVtOSF1jMltjSF1bY0hdYyhOKFtDSDNdKVtDSDNdKW5bY0hdMg==

> <s_epik_cmdline>
J2VwaWtfcHl0aG9uJywgJy1waCcsICc3LjAnLCAnLXRuJywgJzgnLCAnLW1hJywgJzIwMCcsICctbWV0YWxfYmluZGluZycsICctaW1hZScsICc8aW5maWxlLm1hZT4nLCAnLW9tYWUnLCAnPG91dGZpbGUubWFlPic=

> <r_lp_tautomer_probability>
0.999994

> <r_epik_Ionization_Penalty>
0.255783

> <r_epik_Ionization_Penalty_Charging>
0.255763

> <r_epik_Ionization_Penalty_Neutral>
1.99447e-05

> <r_epik_State_Penalty>
0.247288

> <r_epik_Charging_Adjusted_Penalty>
0.503051

> <i_epik_Tot_Q>
1

> <i_epik_Tot_abs_Q>
1

> <r_epik_Metal_State_Penalty>
0.537004

> <b_epik_Metal_Only>
0

> <s_lp_Force_Field>
OPLS_2005

> <r_lp_Energy>
38.2328

> <b_lp_Chiralities_Consistent>
1

> <s_lp_Variant>
AV-unprocessed.smi:1059-1

> <Gold.Version>
5.8.1

> <Gold.Id.Protein>
6NUR|6NUR_protein|mol2

> <Gold.PLP.Fitness>
49.1791

> <Gold.PLP.PLP>
-49.4831

> <Gold.PLP.part.hbond>
-2.4861

> <Gold.PLP.part.metal>
0.0000

> <Gold.PLP.part.buried>
-5.8131

> <Gold.PLP.part.nonpolar>
-41.7449

> <Gold.PLP.part.repulsive>
1.2761

> <Gold.PLP.ligand.clash>
1.6644

> <Gold.PLP.ligand.torsion>
0.9336

> <Gold.PLP.Chemscore.Hbond>
1.0000

> <Gold.PLP.Chemscore.CHOScore>
0.0000

> <Gold.PLP.Chemscore.Metal>
0.0000

> <Gold.Chemscore.Hbonds>
donor molecule, donor type, donor heavy atom, donor atom, acceptor molecule, acceptor atom, score
      P1  H 10752 10765       L1    13  1.00

> <Gold.PLP.Chemscore.Internal.Correction>
0.2276

> <Gold.Rescore>
     Score         DG    S(hbond)    S(metal)    S(lipo)     H(rot)  DE(clash)    DE(int)     intcor
     14.65     -17.45       1.00        0.00     107.75       1.55       0.11       2.69       ----

> <Gold.Chemscore.Fitness>
14.6454

> <Gold.Chemscore.DG>
-17.4474

> <Gold.Chemscore.ZeroCoef>
-5.4800

> <Gold.Chemscore.Hbond>
0.9977

> <Gold.Chemscore.Metal>
0.0000

> <Gold.Chemscore.Lipo>
107.7501

> <Gold.Chemscore.Internal_Hbond>
0.0000

> <Gold.Chemscore.DEClash>
0.1082

> <Gold.Chemscore.DEInternal>
2.6939

> <Gold.Chemscore.Rot>
1.5514

> <Gold.Chemscore.Internal.Correction>
   9.000000E+99

> <Gold.Chemscore.Hbonds>
donor molecule, donor type, donor heavy atom, donor atom, acceptor molecule, acceptor atom, score
      P1  H 10752 10765       L1    13  1.00

> <Gold.Chemscore.Hbond.Weighted>
-3.3323

> <Gold.Chemscore.Metal.Weighted>
-0.0000

> <Gold.Chemscore.Lipo.Weighted>
-12.6068

> <Gold.Chemscore.Internal_Hbond.Weighted>
0.0000

> <Gold.Chemscore.DEClash.Weighted>
0.1082

> <Gold.Chemscore.DEInternal.Weighted>
2.6939

> <Gold.Chemscore.Rot.Weighted>
3.9716

> <Gold.Chemscore.Internal.Correction.Weighted>
   9.000000E+99

> <Gold.Protein.RotatedTorsions>
[ 6907 6896 6895 6894 ] final  -76.88 input  -60.11 | X-H torsion
[ 7974 7965 7964 7962 ] final -105.22 input  175.53 | X-H torsion
[ 8008 7997 7996 7995 ] final   30.44 input   59.86 | X-H torsion
[ 10167 10162 10161 10158 ] final -100.74 input  -65.29 | X-H torsion
[ 10718 10713 10712 10709 ] final   80.55 input   66.30 | X-H torsion
[ 10763 10752 10751 10750 ] final  176.24 input  -60.55 | X-H torsion
[ 11005 11000 10999 10996 ] final  -44.70 input  -57.11 | X-H torsion

> <Gold.Protein.ActiveResidues>
 VAL166  LYS551  ARG553  GLY616  TRP617  ASP618  TYR619  PRO620  LYS621  CYS622 
 ASP623  PHE694  ASN695  SER759  ASP760  ASP761  ALA762  ILE779  LEU786  VAL792 
 PHE793  MET794  SER795  GLU796  ALA797  LYS798  CYS799  TRP800  GLU811  SER814 

> <Gold.Protein.RotatedAtoms>
  150.7014  134.4505  159.5333 H   0  0  0  0  0  0  0  0  0  0  0  0  # atno 6907 bound_to 6896
  152.2199  134.8420  160.0496 H   0  0  0  0  0  0  0  0  0  0  0  0  # atno 6908 bound_to 6896
  151.9274  133.3567  159.3955 H   0  0  0  0  0  0  0  0  0  0  0  0  # atno 6909 bound_to 6896
  145.2333  140.9178  143.3192 H   0  0  0  0  0  0  0  0  0  0  0  0  # atno 7974 bound_to 7965
  155.0905  140.3219  155.4575 H   0  0  0  0  0  0  0  0  0  0  0  0  # atno 8008 bound_to 7997
  156.2744  140.2079  156.5978 H   0  0  0  0  0  0  0  0  0  0  0  0  # atno 8009 bound_to 7997
  154.6907  140.0516  157.0348 H   0  0  0  0  0  0  0  0  0  0  0  0  # atno 8010 bound_to 7997
  140.2487  143.3488  152.0735 H   0  0  0  0  0  0  0  0  0  0  0  0  # atno 10167 bound_to 10162
  157.6809  130.9964  150.2095 H   0  0  0  0  0  0  0  0  0  0  0  0  # atno 10718 bound_to 10713
  154.4785  135.2774  155.1588 H   0  0  0  0  0  0  0  0  0  0  0  0  # atno 10763 bound_to 10752
  154.3308  135.6190  153.5554 H   0  0  0  0  0  0  0  0  0  0  0  0  # atno 10764 bound_to 10752
  152.9872  135.5765  154.5181 H   0  0  0  0  0  0  0  0  0  0  0  0  # atno 10765 bound_to 10752
  141.0468  133.6758  156.2910 H   0  0  0  0  0  0  0  0  0  0  0  0  # atno 11005 bound_to 11000
  144.9657  139.3933  143.6334 LP  0  0  0  0  0  0  0  0  0  0  0  0  # atno 17320 bound_to 7965
  146.3347  139.8730  142.8837 LP  0  0  0  0  0  0  0  0  0  0  0  0  # atno 17321 bound_to 7965
  139.5053  144.6793  151.6050 LP  0  0  0  0  0  0  0  0  0  0  0  0  # atno 17342 bound_to 10162
  140.6058  143.9527  150.6417 LP  0  0  0  0  0  0  0  0  0  0  0  0  # atno 17343 bound_to 10162
  156.2769  130.3728  149.7974 LP  0  0  0  0  0  0  0  0  0  0  0  0  # atno 17370 bound_to 10713
  156.5674  130.8410  151.3346 LP  0  0  0  0  0  0  0  0  0  0  0  0  # atno 17371 bound_to 10713
  140.6132  134.5437  157.5536 LP  0  0  0  0  0  0  0  0  0  0  0  0  # atno 17394 bound_to 11000
  139.9318  134.7949  156.0910 LP  0  0  0  0  0  0  0  0  0  0  0  0  # atno 17395 bound_to 11000

$$$$
