AV-unprocessed.smi:2664|AV-procd|sdf|10328|dock7
  -GOLD-   2272014343D 1   1.00000     0.00000
 Structure written by MMmdl.
 44 45  0  0  0  0  0  0  0  0  2 V2000
  149.4303  140.6025  157.4690 O   0  0  0  0  0  0  0  0  0  0  0  0
  149.3270  141.7203  156.9653 C   0  0  0  0  0  0  0  0  0  0  0  0
  150.0248  142.8063  157.3405 N   0  0  0  0  0  0  0  0  0  0  0  0
  151.0425  142.9097  158.3278 C   0  0  0  0  0  0  0  0  0  0  0  0
  151.6470  141.7118  158.7699 C   0  0  0  0  0  0  0  0  0  0  0  0
  152.6486  141.7620  159.7608 C   0  0  0  0  0  0  0  0  0  0  0  0
  153.0163  142.9504  160.2857 N   0  3  0  0  0  0  0  0  0  0  0  0
  152.4588  144.1199  159.9055 C   0  0  0  0  0  0  0  0  0  0  0  0
  151.4513  144.1325  158.9193 C   0  0  0  0  0  0  0  0  0  0  0  0
  148.4757  142.0140  155.9705 N   0  0  0  0  0  0  0  0  0  0  0  0
  147.5644  141.0752  155.3091 C   0  0  2  0  0  0  0  0  0  0  0  0
  148.0617  140.8282  153.8619 C   0  0  0  0  0  0  0  0  0  0  0  0
  147.2337  139.8152  153.0483 C   0  0  0  0  0  0  0  0  0  0  0  0
  148.0329  138.7177  152.6608 O   0  0  0  0  0  0  0  0  0  0  0  0
  146.1037  141.6081  155.3819 C   0  0  0  0  0  0  0  0  0  0  0  0
  145.8642  142.8018  154.4207 C   0  0  0  0  0  0  0  0  0  0  0  0
  144.4241  143.3339  154.4931 C   0  0  0  0  0  0  0  0  0  0  0  0
  144.0502  143.7361  155.9247 C   0  0  0  0  0  0  0  0  0  0  0  0
  144.2562  142.5597  156.8862 C   0  0  0  0  0  0  0  0  0  0  0  0
  145.6948  142.0222  156.8175 C   0  0  0  0  0  0  0  0  0  0  0  0
  149.7649  143.6735  156.8938 H   0  0  0  0  0  0  0  0  0  0  0  0
  151.3521  140.7603  158.3513 H   0  0  0  0  0  0  0  0  0  0  0  0
  153.1614  140.8932  160.1474 H   0  0  0  0  0  0  0  0  0  0  0  0
  152.8276  145.0052  160.4028 H   0  0  0  0  0  0  0  0  0  0  0  0
  151.0062  145.0771  158.6471 H   0  0  0  0  0  0  0  0  0  0  0  0
  148.4586  142.9645  155.6309 H   0  0  0  0  0  0  0  0  0  0  0  0
  147.5840  140.1167  155.8303 H   0  0  0  0  0  0  0  0  0  0  0  0
  148.0746  141.7616  153.3012 H   0  0  0  0  0  0  0  0  0  0  0  0
  149.0964  140.4849  153.8956 H   0  0  0  0  0  0  0  0  0  0  0  0
  146.4099  139.4395  153.6557 H   0  0  0  0  0  0  0  0  0  0  0  0
  146.7882  140.2729  152.1653 H   0  0  0  0  0  0  0  0  0  0  0  0
  148.7732  139.0414  152.1705 H   0  0  0  0  0  0  0  0  0  0  0  0
  145.4404  140.7996  155.0701 H   0  0  0  0  0  0  0  0  0  0  0  0
  146.5610  143.6073  154.6573 H   0  0  0  0  0  0  0  0  0  0  0  0
  146.0665  142.5165  153.3886 H   0  0  0  0  0  0  0  0  0  0  0  0
  144.3103  144.1892  153.8263 H   0  0  0  0  0  0  0  0  0  0  0  0
  143.7335  142.5691  154.1354 H   0  0  0  0  0  0  0  0  0  0  0  0
  144.6604  144.5829  156.2415 H   0  0  0  0  0  0  0  0  0  0  0  0
  143.0126  144.0694  155.9598 H   0  0  0  0  0  0  0  0  0  0  0  0
  144.0246  142.8697  157.9057 H   0  0  0  0  0  0  0  0  0  0  0  0
  143.5563  141.7602  156.6405 H   0  0  0  0  0  0  0  0  0  0  0  0
  145.7633  141.1772  157.5003 H   0  0  0  0  0  0  0  0  0  0  0  0
  146.3843  142.7800  157.1921 H   0  0  0  0  0  0  0  0  0  0  0  0
  153.7421  142.9651  161.0028 H   0  0  0  0  0  0  0  0  0  0  0  0
  1  2  2  0  0  0  0
  2  3  1  0  0  0  0
  2 10  1  0  0  0  0
  3  4  1  0  0  0  0
  3 21  1  0  0  0  0
  4  9  1  0  0  0  0
  4  5  2  0  0  0  0
  5  6  1  0  0  0  0
  5 22  1  0  0  0  0
  6  7  2  0  0  0  0
  6 23  1  0  0  0  0
  7  8  1  0  0  0  0
  7 44  1  0  0  0  0
  8  9  2  0  0  0  0
  8 24  1  0  0  0  0
  9 25  1  0  0  0  0
 10 11  1  0  0  0  0
 10 26  1  0  0  0  0
 11 12  1  0  0  0  0
 11 15  1  0  0  0  0
 11 27  1  0  0  0  0
 12 13  1  0  0  0  0
 12 28  1  0  0  0  0
 12 29  1  0  0  0  0
 13 14  1  0  0  0  0
 13 30  1  0  0  0  0
 13 31  1  0  0  0  0
 14 32  1  0  0  0  0
 15 20  1  0  0  0  0
 15 16  1  0  0  0  0
 15 33  1  0  0  0  0
 16 17  1  0  0  0  0
 16 34  1  0  0  0  0
 16 35  1  0  0  0  0
 17 18  1  0  0  0  0
 17 36  1  0  0  0  0
 17 37  1  0  0  0  0
 18 19  1  0  0  0  0
 18 38  1  0  0  0  0
 18 39  1  0  0  0  0
 19 20  1  0  0  0  0
 19 40  1  0  0  0  0
 19 41  1  0  0  0  0
 20 42  1  0  0  0  0
 20 43  1  0  0  0  0
M  CHG  1   7   1
M  END
> <s_m_source_file>
AV-unprocessed.smi

> <i_m_source_file_index>
2664

> <i_lp_mmshare_version>
43012

> <i_f3d_flags>
0

> <s_epik_input>
W2NIXTFbY0hdbltjSF1bY0hdYzFbTkhdQyg9TylbTkhdW0NASF0oW0NIMl1bQ0gyXVtPSF0pW0NIXTJbQ0gyXVtDSDJdW0NIMl1bQ0gyXVtDSDJdMg==

> <s_epik_cmdline>
J2VwaWtfcHl0aG9uJywgJy1waCcsICc3LjAnLCAnLXRuJywgJzgnLCAnLW1hJywgJzIwMCcsICctbWV0YWxfYmluZGluZycsICctaW1hZScsICc8aW5maWxlLm1hZT4nLCAnLW9tYWUnLCAnPG91dGZpbGUubWFlPic=

> <r_epik_Ionization_Penalty>
1.0085

> <r_epik_Ionization_Penalty_Charging>
1.00848

> <r_epik_Ionization_Penalty_Neutral>
2.14516e-05

> <r_epik_State_Penalty>
1.05769

> <r_epik_Charging_Adjusted_Penalty>
2.06617

> <i_epik_Tot_Q>
1

> <i_epik_Tot_abs_Q>
1

> <r_epik_Metal_State_Penalty>
1.15842

> <b_epik_Metal_Only>
0

> <s_lp_Force_Field>
OPLS_2005

> <r_lp_Energy>
27.8621

> <b_lp_Chiralities_Consistent>
1

> <s_lp_Variant>
AV-unprocessed.smi:2664-3

> <Gold.Version>
5.8.1

> <Gold.Id.Protein>
6NUR|6NUR_protein|mol2

> <Gold.PLP.Fitness>
47.1502

> <Gold.PLP.PLP>
-39.4698

> <Gold.PLP.part.hbond>
-4.0000

> <Gold.PLP.part.metal>
0.0000

> <Gold.PLP.part.buried>
-5.4387

> <Gold.PLP.part.nonpolar>
-31.0641

> <Gold.PLP.part.repulsive>
0.1602

> <Gold.PLP.ligand.clash>
0.0000

> <Gold.PLP.ligand.torsion>
0.6155

> <Gold.PLP.Chemscore.Hbond>
2.9440

> <Gold.PLP.Chemscore.CHOScore>
0.0000

> <Gold.PLP.Chemscore.Metal>
0.0000

> <Gold.Chemscore.Hbonds>
donor molecule, donor type, donor heavy atom, donor atom, acceptor molecule, acceptor atom, score
      L1  H     3    21       P1  8028  1.00
      L1  H    10    26       P1  8028  1.00
      L1  H    14    32       P1  7957  1.00

> <Gold.PLP.Chemscore.Internal.Correction>
0.0795

> <Gold.Rescore>
     Score         DG    S(hbond)    S(metal)    S(lipo)     H(rot)  DE(clash)    DE(int)     intcor
     18.24     -20.17       2.85        0.00      93.89       2.27       0.02       1.92       ----

> <Gold.Chemscore.Fitness>
18.2373

> <Gold.Chemscore.DG>
-20.1746

> <Gold.Chemscore.ZeroCoef>
-5.4800

> <Gold.Chemscore.Hbond>
2.8530

> <Gold.Chemscore.Metal>
0.0000

> <Gold.Chemscore.Lipo>
93.8878

> <Gold.Chemscore.Internal_Hbond>
0.0000

> <Gold.Chemscore.DEClash>
0.0174

> <Gold.Chemscore.DEInternal>
1.9199

> <Gold.Chemscore.Rot>
2.2731

> <Gold.Chemscore.Internal.Correction>
   9.000000E+99

> <Gold.Chemscore.Hbonds>
donor molecule, donor type, donor heavy atom, donor atom, acceptor molecule, acceptor atom, score
      L1  H     3    21       P1  8028  0.97
      L1  H    10    26       P1  8028  0.98
      L1  H    14    32       P1  7957  0.97

> <Gold.Chemscore.Hbond.Weighted>
-9.5289

> <Gold.Chemscore.Metal.Weighted>
-0.0000

> <Gold.Chemscore.Lipo.Weighted>
-10.9849

> <Gold.Chemscore.Internal_Hbond.Weighted>
0.0000

> <Gold.Chemscore.DEClash.Weighted>
0.0174

> <Gold.Chemscore.DEInternal.Weighted>
1.9199

> <Gold.Chemscore.Rot.Weighted>
5.8192

> <Gold.Chemscore.Internal.Correction.Weighted>
   9.000000E+99

> <Gold.Protein.RotatedTorsions>
[ 6907 6896 6895 6894 ] final  -70.37 input  -60.11 | X-H torsion
[ 7974 7965 7964 7962 ] final   49.96 input  175.53 | X-H torsion
[ 8008 7997 7996 7995 ] final  120.11 input   59.86 | X-H torsion
[ 10167 10162 10161 10158 ] final  -51.68 input  -65.29 | X-H torsion
[ 10718 10713 10712 10709 ] final -101.41 input   66.30 | X-H torsion
[ 10763 10752 10751 10750 ] final  -19.91 input  -60.55 | X-H torsion
[ 11005 11000 10999 10996 ] final  -54.44 input  -57.11 | X-H torsion

> <Gold.Protein.ActiveResidues>
 VAL166  LYS551  ARG553  GLY616  TRP617  ASP618  TYR619  PRO620  LYS621  CYS622 
 ASP623  PHE694  ASN695  SER759  ASP760  ASP761  ALA762  ILE779  LEU786  VAL792 
 PHE793  MET794  SER795  GLU796  ALA797  LYS798  CYS799  TRP800  GLU811  SER814 

> <Gold.Protein.RotatedAtoms>
  150.7261  134.5462  159.5771 H   0  0  0  0  0  0  0  0  0  0  0  0  # atno 6907 bound_to 6896
  152.2961  134.7663  160.0377 H   0  0  0  0  0  0  0  0  0  0  0  0  # atno 6908 bound_to 6896
  151.8260  133.3366  159.3635 H   0  0  0  0  0  0  0  0  0  0  0  0  # atno 6909 bound_to 6896
  146.0058  139.4489  142.9986 H   0  0  0  0  0  0  0  0  0  0  0  0  # atno 7974 bound_to 7965
  156.2627  140.2838  156.1097 H   0  0  0  0  0  0  0  0  0  0  0  0  # atno 8008 bound_to 7997
  155.1271  140.0393  157.2782 H   0  0  0  0  0  0  0  0  0  0  0  0  # atno 8009 bound_to 7997
  154.6627  140.2570  155.7097 H   0  0  0  0  0  0  0  0  0  0  0  0  # atno 8010 bound_to 7997
  140.6576  143.2611  151.4539 H   0  0  0  0  0  0  0  0  0  0  0  0  # atno 10167 bound_to 10162
  156.0194  130.5372  150.6959 H   0  0  0  0  0  0  0  0  0  0  0  0  # atno 10718 bound_to 10713
  153.6122  135.6996  153.5342 H   0  0  0  0  0  0  0  0  0  0  0  0  # atno 10763 bound_to 10752
  153.3007  135.4130  155.1249 H   0  0  0  0  0  0  0  0  0  0  0  0  # atno 10764 bound_to 10752
  154.8561  135.3648  154.5661 H   0  0  0  0  0  0  0  0  0  0  0  0  # atno 10765 bound_to 10752
  141.1026  133.6616  156.4321 H   0  0  0  0  0  0  0  0  0  0  0  0  # atno 11005 bound_to 11000
  145.7417  141.0005  143.1297 LP  0  0  0  0  0  0  0  0  0  0  0  0  # atno 17320 bound_to 7965
  144.6935  139.9107  143.7463 LP  0  0  0  0  0  0  0  0  0  0  0  0  # atno 17321 bound_to 7965
  139.5802  144.1727  152.1957 LP  0  0  0  0  0  0  0  0  0  0  0  0  # atno 17342 bound_to 10162
  140.1050  144.5506  150.6963 LP  0  0  0  0  0  0  0  0  0  0  0  0  # atno 17343 bound_to 10162
  157.4630  131.0885  151.0725 LP  0  0  0  0  0  0  0  0  0  0  0  0  # atno 17370 bound_to 10713
  157.1207  130.6060  149.5504 LP  0  0  0  0  0  0  0  0  0  0  0  0  # atno 17371 bound_to 10713
  140.4984  134.6509  157.5239 LP  0  0  0  0  0  0  0  0  0  0  0  0  # atno 17394 bound_to 11000
  139.9883  134.7026  155.9735 LP  0  0  0  0  0  0  0  0  0  0  0  0  # atno 17395 bound_to 11000

$$$$
