AV-unprocessed.smi:3187|AV-procd|sdf|12179|dock2
  -GOLD-   2272018 13D 1   1.00000     0.00000
 Structure written by MMmdl.
 42 43  0  0  0  0  0  0  0  0  3 V2000
  151.9668  144.8996  157.5194 C   0  0  0  0  0  0  0  0  0  0  0  0
  152.1552  143.6644  158.3848 C   0  0  0  0  0  0  0  0  0  0  0  0
  152.9469  143.7018  159.4750 C   0  0  0  0  0  0  0  0  0  0  0  0
  153.2435  142.5130  160.3723 C   0  0  0  0  0  0  0  0  0  0  0  0
  152.3929  141.2771  160.0368 C   0  0  0  0  0  0  0  0  0  0  0  0
  152.1850  141.1349  158.5193 C   0  0  1  0  0  0  0  0  0  0  0  0
  151.5505  139.7844  158.1446 C   0  0  0  0  0  0  0  0  0  0  0  0
  151.4498  142.3761  157.9387 C   0  0  1  0  0  0  0  0  0  0  0  0
  149.9340  142.3934  158.2694 C   0  0  0  0  0  0  0  0  0  0  0  0
  149.0844  142.3815  157.0620 N   0  3  0  0  0  0  0  0  0  0  0  0
  149.4665  141.3649  156.0628 C   0  0  0  0  0  0  0  0  0  0  0  0
  149.2051  141.8680  154.6360 C   0  0  0  0  0  0  0  0  0  0  0  0
  148.1148  141.1336  153.9899 N   0  0  0  0  0  0  0  0  0  0  0  0
  148.0770  139.7951  153.6929 C   0  0  0  0  0  0  0  0  0  0  0  0
  146.8668  139.5621  153.0917 C   0  0  0  0  0  0  0  0  0  0  0  0
  146.2171  140.7665  153.0482 N   0  3  0  0  0  0  0  0  0  0  0  0
  146.9772  141.7211  153.5954 C   0  0  0  0  0  0  0  0  0  0  0  0
  152.1149  144.6573  156.4668 H   0  0  0  0  0  0  0  0  0  0  0  0
  152.6867  145.6753  157.7835 H   0  0  0  0  0  0  0  0  0  0  0  0
  150.9737  145.3276  157.6440 H   0  0  0  0  0  0  0  0  0  0  0  0
  153.4458  144.6225  159.7410 H   0  0  0  0  0  0  0  0  0  0  0  0
  154.3007  142.2726  160.2552 H   0  0  0  0  0  0  0  0  0  0  0  0
  153.0994  142.7978  161.4149 H   0  0  0  0  0  0  0  0  0  0  0  0
  152.8754  140.3871  160.4425 H   0  0  0  0  0  0  0  0  0  0  0  0
  151.4269  141.3493  160.5370 H   0  0  0  0  0  0  0  0  0  0  0  0
  153.1787  141.1248  158.0675 H   0  0  0  0  0  0  0  0  0  0  0  0
  150.6089  139.6149  158.6669 H   0  0  0  0  0  0  0  0  0  0  0  0
  152.2145  138.9607  158.4086 H   0  0  0  0  0  0  0  0  0  0  0  0
  151.3623  139.7203  157.0726 H   0  0  0  0  0  0  0  0  0  0  0  0
  151.5521  142.3144  156.8541 H   0  0  0  0  0  0  0  0  0  0  0  0
  149.6560  141.5194  158.8570 H   0  0  0  0  0  0  0  0  0  0  0  0
  149.6894  143.2709  158.8692 H   0  0  0  0  0  0  0  0  0  0  0  0
  148.1317  142.2072  157.3492 H   0  0  0  0  0  0  0  0  0  0  0  0
  150.5221  141.1182  156.1858 H   0  0  0  0  0  0  0  0  0  0  0  0
  148.8974  140.4523  156.2466 H   0  0  0  0  0  0  0  0  0  0  0  0
  148.9347  142.9251  154.6440 H   0  0  0  0  0  0  0  0  0  0  0  0
  150.0986  141.7690  154.0174 H   0  0  0  0  0  0  0  0  0  0  0  0
  148.8913  139.1237  153.9247 H   0  0  0  0  0  0  0  0  0  0  0  0
  146.4306  138.6534  152.7023 H   0  0  0  0  0  0  0  0  0  0  0  0
  146.7204  142.7607  153.6964 H   0  0  0  0  0  0  0  0  0  0  0  0
  149.1295  143.2948  156.6324 H   0  0  0  0  0  0  0  0  0  0  0  0
  145.2942  140.9157  152.6594 H   0  0  0  0  0  0  0  0  0  0  0  0
  1  2  1  0  0  0  0
  1 18  1  0  0  0  0
  1 19  1  0  0  0  0
  1 20  1  0  0  0  0
  2  8  1  0  0  0  0
  2  3  2  0  0  0  0
  3  4  1  0  0  0  0
  3 21  1  0  0  0  0
  4  5  1  0  0  0  0
  4 22  1  0  0  0  0
  4 23  1  0  0  0  0
  5  6  1  0  0  0  0
  5 24  1  0  0  0  0
  5 25  1  0  0  0  0
  6  7  1  0  0  0  0
  6  8  1  0  0  0  0
  6 26  1  0  0  0  0
  7 27  1  0  0  0  0
  7 28  1  0  0  0  0
  7 29  1  0  0  0  0
  8  9  1  0  0  0  0
  8 30  1  0  0  0  0
  9 10  1  0  0  0  0
  9 31  1  0  0  0  0
  9 32  1  0  0  0  0
 10 11  1  0  0  0  0
 10 33  1  0  0  0  0
 10 41  1  0  0  0  0
 11 12  1  0  0  0  0
 11 34  1  0  0  0  0
 11 35  1  0  0  0  0
 12 13  1  0  0  0  0
 12 36  1  0  0  0  0
 12 37  1  0  0  0  0
 13 17  1  0  0  0  0
 13 14  1  0  0  0  0
 14 15  2  0  0  0  0
 14 38  1  0  0  0  0
 15 16  1  0  0  0  0
 15 39  1  0  0  0  0
 16 17  2  0  0  0  0
 16 42  1  0  0  0  0
 17 40  1  0  0  0  0
M  CHG  1  10   1
M  CHG  1  16   1
M  END
> <s_m_source_file>
AV-unprocessed.smi

> <i_m_source_file_index>
3187

> <i_lp_mmshare_version>
43012

> <i_f3d_flags>
0

> <s_epik_input>
W0NIM11DMT1bQ0hdW0NIMl1bQ0gyXVtDQEBIXShbQ0gzXSlbQ0BIXTFbQ0gyXVtOSF1bQ0gyXVtDSDJdbjJbY0hdW2NIXW5bY0hdMg==

> <s_epik_cmdline>
J2VwaWtfcHl0aG9uJywgJy1waCcsICc3LjAnLCAnLXRuJywgJzgnLCAnLW1hJywgJzIwMCcsICctbWV0YWxfYmluZGluZycsICctaW1hZScsICc8aW5maWxlLm1hZT4nLCAnLW9tYWUnLCAnPG91dGZpbGUubWFlPic=

> <r_lp_tautomer_probability>
1

> <r_epik_Ionization_Penalty>
1.51066

> <r_epik_Ionization_Penalty_Charging>
0.0026721

> <r_epik_Ionization_Penalty_Neutral>
1.50798

> <r_epik_State_Penalty>
1.12593

> <r_epik_Charging_Adjusted_Penalty>
1.12861

> <i_epik_Tot_Q>
2

> <i_epik_Tot_abs_Q>
2

> <r_epik_Metal_State_Penalty>
5.12155

> <b_epik_Metal_Only>
0

> <s_lp_Force_Field>
OPLS_2005

> <r_lp_Energy>
24.2531

> <b_lp_Chiralities_Consistent>
1

> <s_lp_Variant>
AV-unprocessed.smi:3187-5

> <Gold.Version>
5.8.1

> <Gold.Id.Protein>
6NUR|6NUR_protein|mol2

> <Gold.PLP.Fitness>
49.1077

> <Gold.PLP.PLP>
-39.7651

> <Gold.PLP.part.hbond>
-2.0000

> <Gold.PLP.part.metal>
0.0000

> <Gold.PLP.part.buried>
-3.8367

> <Gold.PLP.part.nonpolar>
-33.8392

> <Gold.PLP.part.repulsive>
0.0252

> <Gold.PLP.ligand.clash>
0.0000

> <Gold.PLP.ligand.torsion>
1.3674

> <Gold.PLP.Chemscore.Hbond>
4.0000

> <Gold.PLP.Chemscore.CHOScore>
0.0000

> <Gold.PLP.Chemscore.Metal>
0.0000

> <Gold.Chemscore.Hbonds>
donor molecule, donor type, donor heavy atom, donor atom, acceptor molecule, acceptor atom, score
      L1  H    10    41       P1  8028  2.00
      L1  H    16    42       P1 10175  1.70

> <Gold.PLP.Chemscore.Internal.Correction>
0.0774

> <Gold.Rescore>
     Score         DG    S(hbond)    S(metal)    S(lipo)     H(rot)  DE(clash)    DE(int)     intcor
     17.03     -20.05       1.99        0.00     110.81       1.97       1.53       1.49       ----

> <Gold.Chemscore.Fitness>
17.0316

> <Gold.Chemscore.DG>
-20.0496

> <Gold.Chemscore.ZeroCoef>
-5.4800

> <Gold.Chemscore.Hbond>
1.9930

> <Gold.Chemscore.Metal>
0.0000

> <Gold.Chemscore.Lipo>
110.8066

> <Gold.Chemscore.Internal_Hbond>
0.0000

> <Gold.Chemscore.DEClash>
1.5257

> <Gold.Chemscore.DEInternal>
1.4923

> <Gold.Chemscore.Rot>
1.9732

> <Gold.Chemscore.Internal.Correction>
   9.000000E+99

> <Gold.Chemscore.Hbonds>
donor molecule, donor type, donor heavy atom, donor atom, acceptor molecule, acceptor atom, score
      L1  H    10    41       P1  8028  0.98
      L1  H    16    42       P1 10175  0.14

> <Gold.Chemscore.Hbond.Weighted>
-6.6566

> <Gold.Chemscore.Metal.Weighted>
-0.0000

> <Gold.Chemscore.Lipo.Weighted>
-12.9644

> <Gold.Chemscore.Internal_Hbond.Weighted>
0.0000

> <Gold.Chemscore.DEClash.Weighted>
1.5257

> <Gold.Chemscore.DEInternal.Weighted>
1.4923

> <Gold.Chemscore.Rot.Weighted>
5.0514

> <Gold.Chemscore.Internal.Correction.Weighted>
   9.000000E+99

> <Gold.Protein.RotatedTorsions>
[ 6907 6896 6895 6894 ] final  142.01 input  -60.11 | X-H torsion
[ 7974 7965 7964 7962 ] final  -46.43 input  175.53 | X-H torsion
[ 8008 7997 7996 7995 ] final  123.24 input   59.86 | X-H torsion
[ 10167 10162 10161 10158 ] final -161.57 input  -65.29 | X-H torsion
[ 10718 10713 10712 10709 ] final -118.66 input   66.30 | X-H torsion
[ 10763 10752 10751 10750 ] final   -4.54 input  -60.55 | X-H torsion
[ 11005 11000 10999 10996 ] final   26.90 input  -57.11 | X-H torsion

> <Gold.Protein.ActiveResidues>
 VAL166  LYS551  ARG553  GLY616  TRP617  ASP618  TYR619  PRO620  LYS621  CYS622 
 ASP623  PHE694  ASN695  SER759  ASP760  ASP761  ALA762  ILE779  LEU786  VAL792 
 PHE793  MET794  SER795  GLU796  ALA797  LYS798  CYS799  TRP800  GLU811  SER814 

> <Gold.Protein.RotatedAtoms>
  152.2240  133.5005  159.5177 H   0  0  0  0  0  0  0  0  0  0  0  0  # atno 6907 bound_to 6896
  150.7020  134.1305  159.4077 H   0  0  0  0  0  0  0  0  0  0  0  0  # atno 6908 bound_to 6896
  151.9226  135.0291  160.0574 H   0  0  0  0  0  0  0  0  0  0  0  0  # atno 6909 bound_to 6896
  145.9720  140.7373  142.9406 H   0  0  0  0  0  0  0  0  0  0  0  0  # atno 7974 bound_to 7965
  156.2758  140.2767  156.1596 H   0  0  0  0  0  0  0  0  0  0  0  0  # atno 8008 bound_to 7997
  155.0767  140.0387  157.2644 H   0  0  0  0  0  0  0  0  0  0  0  0  # atno 8009 bound_to 7997
  154.6997  140.2646  155.6737 H   0  0  0  0  0  0  0  0  0  0  0  0  # atno 8010 bound_to 7997
  139.6455  144.0179  152.2124 H   0  0  0  0  0  0  0  0  0  0  0  0  # atno 10167 bound_to 10162
  156.1122  130.6258  150.9318 H   0  0  0  0  0  0  0  0  0  0  0  0  # atno 10718 bound_to 10713
  153.3863  135.7000  153.6528 H   0  0  0  0  0  0  0  0  0  0  0  0  # atno 10763 bound_to 10752
  153.5118  135.3630  155.2591 H   0  0  0  0  0  0  0  0  0  0  0  0  # atno 10764 bound_to 10752
  154.8698  135.4137  154.3171 H   0  0  0  0  0  0  0  0  0  0  0  0  # atno 10765 bound_to 10752
  140.3321  134.2426  155.7701 H   0  0  0  0  0  0  0  0  0  0  0  0  # atno 11005 bound_to 11000
  144.6839  140.2764  143.7298 LP  0  0  0  0  0  0  0  0  0  0  0  0  # atno 17320 bound_to 7965
  145.7893  139.1921  143.2112 LP  0  0  0  0  0  0  0  0  0  0  0  0  # atno 17321 bound_to 7965
  139.9880  144.6381  150.7840 LP  0  0  0  0  0  0  0  0  0  0  0  0  # atno 17342 bound_to 10162
  140.7512  143.2969  151.3181 LP  0  0  0  0  0  0  0  0  0  0  0  0  # atno 17343 bound_to 10162
  157.6304  131.0921  150.8452 LP  0  0  0  0  0  0  0  0  0  0  0  0  # atno 17370 bound_to 10713
  156.8561  130.5097  149.5307 LP  0  0  0  0  0  0  0  0  0  0  0  0  # atno 17371 bound_to 10713
  141.2061  133.7843  157.0198 LP  0  0  0  0  0  0  0  0  0  0  0  0  # atno 17394 bound_to 11000
  140.0852  134.9625  157.1688 LP  0  0  0  0  0  0  0  0  0  0  0  0  # atno 17395 bound_to 11000

$$$$
