AV-unprocessed.smi:37|AV-procd|sdf|309|dock9
  -GOLD-   2262016123D 1   1.00000     0.00000
 Structure written by MMmdl.
 44 45  0  0  0  0  0  0  0  0  1 V2000
  144.2032  144.0266  161.6957 C   0  0  0  0  0  0  0  0  0  0  0  0
  144.5929  143.3874  160.3562 C   0  0  0  0  0  0  0  0  0  0  0  0
  146.0711  143.5860  160.0293 C   0  0  0  0  0  0  0  0  0  0  0  0
  146.8213  144.1884  160.7975 O   0  0  0  0  0  0  0  0  0  0  0  0
  146.4147  143.0508  158.8450 O   0  0  0  0  0  0  0  0  0  0  0  0
  147.7748  143.0227  158.4395 C   0  0  0  0  0  0  0  0  0  0  0  0
  148.0885  141.6528  157.8239 C   0  0  2  0  0  0  0  0  0  0  0  0
  149.0453  141.0017  158.6582 O   0  0  0  0  0  0  0  0  0  0  0  0
  150.1604  140.6428  157.9059 C   0  0  2  0  0  0  0  0  0  0  0  0
  151.4108  140.6606  158.7605 N   0  0  0  0  0  0  0  0  0  0  0  0
  151.6963  141.7880  159.5175 C   0  0  0  0  0  0  0  0  0  0  0  0
  152.7990  141.8987  160.2953 C   0  0  0  0  0  0  0  0  0  0  0  0
  152.9991  143.0211  161.0065 F   0  0  0  0  0  0  0  0  0  0  0  0
  153.7702  140.8118  160.3680 C   0  0  0  0  0  0  0  0  0  0  0  0
  154.7967  140.8167  161.0443 O   0  0  0  0  0  0  0  0  0  0  0  0
  153.4530  139.7025  159.5797 N   0  0  0  0  0  0  0  0  0  0  0  0
  152.3212  139.5755  158.7724 C   0  0  0  0  0  0  0  0  0  0  0  0
  152.1604  138.5503  158.1122 O   0  0  0  0  0  0  0  0  0  0  0  0
  150.1992  141.5350  156.6569 C   0  0  2  0  0  0  0  0  0  0  0  0
  151.0766  143.3121  156.8987 Br  0  0  0  0  0  0  0  0  0  0  0  0
  148.7132  141.7536  156.4195 C   0  0  1  0  0  0  0  0  0  0  0  0
  148.1723  140.7171  155.6068 O   0  0  0  0  0  0  0  0  0  0  0  0
  148.4609  140.6615  154.2939 C   0  0  0  0  0  0  0  0  0  0  0  0
  149.3013  141.3512  153.7140 O   0  0  0  0  0  0  0  0  0  0  0  0
  147.6176  139.6121  153.5671 C   0  0  0  0  0  0  0  0  0  0  0  0
  147.4348  139.9002  152.0695 C   0  0  0  0  0  0  0  0  0  0  0  0
  154.1005  138.9279  159.5916 H   0  0  0  0  0  0  0  0  0  0  0  0
  143.1410  143.8827  161.8937 H   0  0  0  0  0  0  0  0  0  0  0  0
  144.3958  145.1001  161.6931 H   0  0  0  0  0  0  0  0  0  0  0  0
  144.7554  143.5859  162.5266 H   0  0  0  0  0  0  0  0  0  0  0  0
  144.3786  142.3188  160.3763 H   0  0  0  0  0  0  0  0  0  0  0  0
  143.9926  143.8152  159.5528 H   0  0  0  0  0  0  0  0  0  0  0  0
  148.0001  143.8108  157.7205 H   0  0  0  0  0  0  0  0  0  0  0  0
  148.4030  143.1965  159.3134 H   0  0  0  0  0  0  0  0  0  0  0  0
  147.1764  141.0543  157.8049 H   0  0  0  0  0  0  0  0  0  0  0  0
  150.0113  139.5962  157.6337 H   0  0  0  0  0  0  0  0  0  0  0  0
  151.0058  142.6192  159.5009 H   0  0  0  0  0  0  0  0  0  0  0  0
  150.7081  141.0276  155.8366 H   0  0  0  0  0  0  0  0  0  0  0  0
  148.5126  142.7233  155.9611 H   0  0  0  0  0  0  0  0  0  0  0  0
  148.0890  138.6377  153.6982 H   0  0  0  0  0  0  0  0  0  0  0  0
  146.6421  139.5581  154.0511 H   0  0  0  0  0  0  0  0  0  0  0  0
  146.8197  139.1305  151.6031 H   0  0  0  0  0  0  0  0  0  0  0  0
  148.3923  139.9177  151.5477 H   0  0  0  0  0  0  0  0  0  0  0  0
  146.9420  140.8592  151.9057 H   0  0  0  0  0  0  0  0  0  0  0  0
  1  2  1  0  0  0  0
  1 28  1  0  0  0  0
  1 29  1  0  0  0  0
  1 30  1  0  0  0  0
  2  3  1  0  0  0  0
  2 31  1  0  0  0  0
  2 32  1  0  0  0  0
  3  4  2  0  0  0  0
  3  5  1  0  0  0  0
  5  6  1  0  0  0  0
  6  7  1  0  0  0  0
  6 33  1  0  0  0  0
  6 34  1  0  0  0  0
  7 21  1  0  0  0  0
  7  8  1  0  0  0  0
  7 35  1  0  0  0  0
  8  9  1  0  0  0  0
  9 10  1  0  0  0  0
  9 19  1  0  0  0  0
  9 36  1  0  0  0  0
 10 17  1  0  0  0  0
 10 11  1  0  0  0  0
 11 12  2  0  0  0  0
 11 37  1  0  0  0  0
 12 13  1  0  0  0  0
 12 14  1  0  0  0  0
 14 15  2  0  0  0  0
 14 16  1  0  0  0  0
 16 27  1  0  0  0  0
 16 17  1  0  0  0  0
 17 18  2  0  0  0  0
 19 20  1  0  0  0  0
 19 21  1  0  0  0  0
 19 38  1  0  0  0  0
 21 22  1  0  0  0  0
 21 39  1  0  0  0  0
 22 23  1  0  0  0  0
 23 24  2  0  0  0  0
 23 25  1  0  0  0  0
 25 26  1  0  0  0  0
 25 40  1  0  0  0  0
 25 41  1  0  0  0  0
 26 42  1  0  0  0  0
 26 43  1  0  0  0  0
 26 44  1  0  0  0  0
M  END
> <s_m_source_file>
AV-unprocessed.smi

> <i_m_source_file_index>
37

> <i_lp_mmshare_version>
43012

> <i_f3d_flags>
0

> <s_epik_input>
W0NIM11bQ0gyXUMoPU8pT1tDSDJdW0NAQEhdMU9bQ0BASF0objJbY0hdYyhGKWMoPU8pW25IXWMyPU8pW0NAQEhdKEJyKVtDQEhdMU9DKD1PKVtDSDJdW0NIM10=

> <s_epik_cmdline>
J2VwaWtfcHl0aG9uJywgJy1waCcsICc3LjAnLCAnLXRuJywgJzgnLCAnLW1hJywgJzIwMCcsICctbWV0YWxfYmluZGluZycsICctaW1hZScsICc8aW5maWxlLm1hZT4nLCAnLW9tYWUnLCAnPG91dGZpbGUubWFlPic=

> <r_lp_tautomer_probability>
0.999537

> <r_epik_Ionization_Penalty>
0.104106

> <r_epik_Ionization_Penalty_Charging>
0.104106

> <r_epik_Ionization_Penalty_Neutral>
3.94675e-16

> <r_epik_State_Penalty>
0.0940182

> <r_epik_Charging_Adjusted_Penalty>
0.198124

> <i_epik_Tot_Q>
0

> <i_epik_Tot_abs_Q>
0

> <r_epik_Metal_State_Penalty>
3.05314

> <b_epik_Metal_Only>
0

> <s_epik_Chemistry_Notes>
This compound has an ester and may undergo hydrolysis at high or low pH. This compound contains an acetal/aminal-like group ( X-CH(R)-Y where X, Y are N, S, or O) that may be acid/base labile, releasing an aldehyde.

> <s_lp_Force_Field>
OPLS_2005

> <r_lp_Energy>
23.3394

> <b_lp_Chiralities_Consistent>
1

> <s_lp_Variant>
AV-unprocessed.smi:37-7

> <Gold.Version>
5.8.1

> <Gold.Id.Protein>
6NUR|6NUR_protein|mol2

> <Gold.PLP.Fitness>
39.9194

> <Gold.PLP.PLP>
-38.0920

> <Gold.PLP.part.hbond>
-4.6709

> <Gold.PLP.part.metal>
0.0000

> <Gold.PLP.part.buried>
-0.3708

> <Gold.PLP.part.nonpolar>
-34.0118

> <Gold.PLP.part.repulsive>
1.3222

> <Gold.PLP.ligand.clash>
0.0000

> <Gold.PLP.ligand.torsion>
1.8061

> <Gold.PLP.Chemscore.Hbond>
1.7680

> <Gold.PLP.Chemscore.CHOScore>
0.0000

> <Gold.PLP.Chemscore.Metal>
0.0000

> <Gold.Chemscore.Hbonds>
donor molecule, donor type, donor heavy atom, donor atom, acceptor molecule, acceptor atom, score
      P1  H  7989  7998       L1    24  0.04
      P1  H  8011  8017       L1    24  0.85

> <Gold.PLP.Chemscore.Internal.Correction>
0.1357

> <Gold.Rescore>
     Score         DG    S(hbond)    S(metal)    S(lipo)     H(rot)  DE(clash)    DE(int)     intcor
      6.68     -10.95       1.81        0.00      67.93       3.33       2.59       1.69       ----

> <Gold.Chemscore.Fitness>
6.6802

> <Gold.Chemscore.DG>
-10.9542

> <Gold.Chemscore.ZeroCoef>
-5.4800

> <Gold.Chemscore.Hbond>
1.8121

> <Gold.Chemscore.Metal>
0.0000

> <Gold.Chemscore.Lipo>
67.9253

> <Gold.Chemscore.Internal_Hbond>
0.0000

> <Gold.Chemscore.DEClash>
2.5871

> <Gold.Chemscore.DEInternal>
1.6869

> <Gold.Chemscore.Rot>
3.3303

> <Gold.Chemscore.Internal.Correction>
   9.000000E+99

> <Gold.Chemscore.Hbonds>
donor molecule, donor type, donor heavy atom, donor atom, acceptor molecule, acceptor atom, score
      P1  H  7989  7998       L1    24  0.04
      P1  H  8011  8017       L1    24  0.85

> <Gold.Chemscore.Hbond.Weighted>
-6.0525

> <Gold.Chemscore.Metal.Weighted>
-0.0000

> <Gold.Chemscore.Lipo.Weighted>
-7.9473

> <Gold.Chemscore.Internal_Hbond.Weighted>
0.0000

> <Gold.Chemscore.DEClash.Weighted>
2.5871

> <Gold.Chemscore.DEInternal.Weighted>
1.6869

> <Gold.Chemscore.Rot.Weighted>
8.5256

> <Gold.Chemscore.Internal.Correction.Weighted>
   9.000000E+99

> <Gold.Protein.RotatedTorsions>
[ 6907 6896 6895 6894 ] final  -18.19 input  -60.11 | X-H torsion
[ 7974 7965 7964 7962 ] final   90.06 input  175.53 | X-H torsion
[ 8008 7997 7996 7995 ] final  -20.80 input   59.86 | X-H torsion
[ 10167 10162 10161 10158 ] final  -63.06 input  -65.29 | X-H torsion
[ 10718 10713 10712 10709 ] final -160.34 input   66.30 | X-H torsion
[ 10763 10752 10751 10750 ] final  103.92 input  -60.55 | X-H torsion
[ 11005 11000 10999 10996 ] final    8.13 input  -57.11 | X-H torsion

> <Gold.Protein.ActiveResidues>
 VAL166  LYS551  ARG553  GLY616  TRP617  ASP618  TYR619  PRO620  LYS621  CYS622 
 ASP623  PHE694  ASN695  SER759  ASP760  ASP761  ALA762  ILE779  LEU786  VAL792 
 PHE793  MET794  SER795  GLU796  ALA797  LYS798  CYS799  TRP800  GLU811  SER814 

> <Gold.Protein.RotatedAtoms>
  151.2819  135.0716  159.9172 H   0  0  0  0  0  0  0  0  0  0  0  0  # atno 6907 bound_to 6896
  152.5332  134.0022  159.7910 H   0  0  0  0  0  0  0  0  0  0  0  0  # atno 6908 bound_to 6896
  151.0277  133.5767  159.2695 H   0  0  0  0  0  0  0  0  0  0  0  0  # atno 6909 bound_to 6896
  145.5241  139.2280  143.2655 H   0  0  0  0  0  0  0  0  0  0  0  0  # atno 7974 bound_to 7965
  154.4746  140.2052  155.9909 H   0  0  0  0  0  0  0  0  0  0  0  0  # atno 8008 bound_to 7997
  156.1068  140.3235  155.7987 H   0  0  0  0  0  0  0  0  0  0  0  0  # atno 8009 bound_to 7997
  155.4703  140.0531  157.2971 H   0  0  0  0  0  0  0  0  0  0  0  0  # atno 8010 bound_to 7997
  140.5897  143.2339  151.6167 H   0  0  0  0  0  0  0  0  0  0  0  0  # atno 10167 bound_to 10162
  156.5808  130.8728  151.2864 H   0  0  0  0  0  0  0  0  0  0  0  0  # atno 10718 bound_to 10713
  153.3590  135.3960  155.1704 H   0  0  0  0  0  0  0  0  0  0  0  0  # atno 10763 bound_to 10752
  154.8676  135.3675  154.5124 H   0  0  0  0  0  0  0  0  0  0  0  0  # atno 10764 bound_to 10752
  153.5582  135.7081  153.5620 H   0  0  0  0  0  0  0  0  0  0  0  0  # atno 10765 bound_to 10752
  140.5404  134.0380  155.7902 H   0  0  0  0  0  0  0  0  0  0  0  0  # atno 11005 bound_to 11000
  146.2087  140.6054  142.9069 LP  0  0  0  0  0  0  0  0  0  0  0  0  # atno 17320 bound_to 7965
  144.7660  140.5532  143.6702 LP  0  0  0  0  0  0  0  0  0  0  0  0  # atno 17321 bound_to 7965
  139.5219  144.3177  152.0937 LP  0  0  0  0  0  0  0  0  0  0  0  0  # atno 17342 bound_to 10162
  140.2340  144.4339  150.6288 LP  0  0  0  0  0  0  0  0  0  0  0  0  # atno 17343 bound_to 10162
  157.7327  130.9719  150.1940 LP  0  0  0  0  0  0  0  0  0  0  0  0  # atno 17370 bound_to 10713
  156.2633  130.3713  149.8107 LP  0  0  0  0  0  0  0  0  0  0  0  0  # atno 17371 bound_to 10713
  141.1230  133.9429  157.2691 LP  0  0  0  0  0  0  0  0  0  0  0  0  # atno 17394 bound_to 11000
  139.9507  135.0176  156.8985 LP  0  0  0  0  0  0  0  0  0  0  0  0  # atno 17395 bound_to 11000

$$$$
