AV-unprocessed.smi:1047|AV-procd|sdf|4579|dock6
  -GOLD-   22720 3 43D 1   1.00000     0.00000
 Structure written by MMmdl.
 56 58  0  0  0  0  0  0  0  0  2 V2000
  143.6406  146.5775  155.3777 C   0  0  0  0  0  0  0  0  0  0  0  0
  143.4162  145.7587  154.0984 C   0  0  0  0  0  0  0  0  0  0  0  0
  143.5670  144.2992  154.3218 N   0  3  2  0  0  0  0  0  0  0  0  0
  142.6166  143.7500  155.3200 C   0  0  0  0  0  0  0  0  0  0  0  0
  142.8204  142.2345  155.4797 C   0  0  0  0  0  0  0  0  0  0  0  0
  144.1719  141.9698  155.8335 O   0  0  0  0  0  0  0  0  0  0  0  0
  145.0846  142.3946  154.8261 C   0  0  2  0  0  0  0  0  0  0  0  0
  146.5004  141.9782  155.2526 C   0  0  0  0  0  0  0  0  0  0  0  0
  146.7332  140.5639  154.9797 N   0  0  0  0  0  0  0  0  0  0  0  0
  147.7732  140.3253  153.9829 C   0  0  0  0  0  0  0  0  0  0  0  0
  149.1590  140.2077  154.6469 C   0  0  1  0  0  0  0  0  0  0  0  0
  150.1448  140.3026  153.6399 O   0  0  0  0  0  0  0  0  0  0  0  0
  149.4508  141.3169  155.6765 C   0  0  0  0  0  0  0  0  0  0  0  0
  150.5894  141.0123  156.5240 N   0  0  0  0  0  0  0  0  0  0  0  0
  151.4732  140.0094  156.3607 C   0  0  0  0  0  0  0  0  0  0  0  0
  152.4502  139.9066  157.2571 N   0  0  0  0  0  0  0  0  0  0  0  0
  152.1715  140.9717  158.0965 C   0  0  0  0  0  0  0  0  0  0  0  0
  152.8380  141.4223  159.2569 C   0  0  0  0  0  0  0  0  0  0  0  0
  152.3707  142.5497  159.9693 C   0  0  0  0  0  0  0  0  0  0  0  0
  153.1181  142.9999  161.2123 C   0  0  0  0  0  0  0  0  0  0  0  0
  151.2194  143.2460  159.5215 C   0  0  0  0  0  0  0  0  0  0  0  0
  150.7008  144.4618  160.2689 C   0  0  0  0  0  0  0  0  0  0  0  0
  150.5403  142.8078  158.3655 C   0  0  0  0  0  0  0  0  0  0  0  0
  151.0149  141.6848  157.6648 C   0  0  0  0  0  0  0  0  0  0  0  0
  144.9579  143.9227  154.6714 C   0  0  0  0  0  0  0  0  0  0  0  0
  143.4311  147.6321  155.1980 H   0  0  0  0  0  0  0  0  0  0  0  0
  144.6686  146.5097  155.7326 H   0  0  0  0  0  0  0  0  0  0  0  0
  142.9827  146.2437  156.1806 H   0  0  0  0  0  0  0  0  0  0  0  0
  142.4037  145.9613  153.7466 H   0  0  0  0  0  0  0  0  0  0  0  0
  144.0903  146.0890  153.3065 H   0  0  0  0  0  0  0  0  0  0  0  0
  142.7656  144.2470  156.2798 H   0  0  0  0  0  0  0  0  0  0  0  0
  141.5885  143.9428  155.0152 H   0  0  0  0  0  0  0  0  0  0  0  0
  142.1685  141.8486  156.2636 H   0  0  0  0  0  0  0  0  0  0  0  0
  142.5605  141.7054  154.5612 H   0  0  0  0  0  0  0  0  0  0  0  0
  144.8394  141.9156  153.8760 H   0  0  0  0  0  0  0  0  0  0  0  0
  147.2319  142.5736  154.7048 H   0  0  0  0  0  0  0  0  0  0  0  0
  146.6506  142.1947  156.3110 H   0  0  0  0  0  0  0  0  0  0  0  0
  146.9733  140.0857  155.8427 H   0  0  0  0  0  0  0  0  0  0  0  0
  147.5532  139.4306  153.3986 H   0  0  0  0  0  0  0  0  0  0  0  0
  147.7751  141.1580  153.2795 H   0  0  0  0  0  0  0  0  0  0  0  0
  149.2552  139.2374  155.1368 H   0  0  0  0  0  0  0  0  0  0  0  0
  149.7587  140.0360  152.8196 H   0  0  0  0  0  0  0  0  0  0  0  0
  149.6525  142.2606  155.1671 H   0  0  0  0  0  0  0  0  0  0  0  0
  148.5794  141.4874  156.3097 H   0  0  0  0  0  0  0  0  0  0  0  0
  151.3921  139.3133  155.5384 H   0  0  0  0  0  0  0  0  0  0  0  0
  153.7155  140.8923  159.5969 H   0  0  0  0  0  0  0  0  0  0  0  0
  153.5348  143.9966  161.0658 H   0  0  0  0  0  0  0  0  0  0  0  0
  153.9398  142.3238  161.4502 H   0  0  0  0  0  0  0  0  0  0  0  0
  152.4496  143.0268  162.0730 H   0  0  0  0  0  0  0  0  0  0  0  0
  149.8464  144.9076  159.7585 H   0  0  0  0  0  0  0  0  0  0  0  0
  151.4769  145.2233  160.3467 H   0  0  0  0  0  0  0  0  0  0  0  0
  150.3837  144.1847  161.2744 H   0  0  0  0  0  0  0  0  0  0  0  0
  149.6610  143.3284  158.0162 H   0  0  0  0  0  0  0  0  0  0  0  0
  145.6370  144.2685  153.8910 H   0  0  0  0  0  0  0  0  0  0  0  0
  145.2502  144.4225  155.5967 H   0  0  0  0  0  0  0  0  0  0  0  0
  143.3647  143.8491  153.4403 H   0  0  0  0  0  0  0  0  0  0  0  0
  1  2  1  0  0  0  0
  1 26  1  0  0  0  0
  1 27  1  0  0  0  0
  1 28  1  0  0  0  0
  2  3  1  0  0  0  0
  2 29  1  0  0  0  0
  2 30  1  0  0  0  0
  3 25  1  0  0  0  0
  3  4  1  0  0  0  0
  3 56  1  0  0  0  0
  4  5  1  0  0  0  0
  4 31  1  0  0  0  0
  4 32  1  0  0  0  0
  5  6  1  0  0  0  0
  5 33  1  0  0  0  0
  5 34  1  0  0  0  0
  6  7  1  0  0  0  0
  7  8  1  0  0  0  0
  7 25  1  0  0  0  0
  7 35  1  0  0  0  0
  8  9  1  0  0  0  0
  8 36  1  0  0  0  0
  8 37  1  0  0  0  0
  9 10  1  0  0  0  0
  9 38  1  0  0  0  0
 10 11  1  0  0  0  0
 10 39  1  0  0  0  0
 10 40  1  0  0  0  0
 11 12  1  0  0  0  0
 11 13  1  0  0  0  0
 11 41  1  0  0  0  0
 12 42  1  0  0  0  0
 13 14  1  0  0  0  0
 13 43  1  0  0  0  0
 13 44  1  0  0  0  0
 14 24  1  0  0  0  0
 14 15  1  0  0  0  0
 15 16  2  0  0  0  0
 15 45  1  0  0  0  0
 16 17  1  0  0  0  0
 17 24  2  0  0  0  0
 17 18  1  0  0  0  0
 18 19  2  0  0  0  0
 18 46  1  0  0  0  0
 19 20  1  0  0  0  0
 19 21  1  0  0  0  0
 20 47  1  0  0  0  0
 20 48  1  0  0  0  0
 20 49  1  0  0  0  0
 21 22  1  0  0  0  0
 21 23  2  0  0  0  0
 22 50  1  0  0  0  0
 22 51  1  0  0  0  0
 22 52  1  0  0  0  0
 23 24  1  0  0  0  0
 23 53  1  0  0  0  0
 25 54  1  0  0  0  0
 25 55  1  0  0  0  0
M  CHG  1   3   1
M  END
> <s_m_source_file>
AV-unprocessed.smi

> <i_m_source_file_index>
1047

> <i_lp_mmshare_version>
43012

> <i_f3d_flags>
0

> <s_epik_input>
W0NIM11bQ0gyXU4xW0NIMl1bQ0gyXU9bQ0BIXShbQ0gyXTEpW0NIMl1bTkhdW0NIMl1bQ0BIXShbT0hdKVtDSDJdbihbY0hdbjIpYyhjMjMpW2NIXWMoW0NIM10pYyhbY0hdMylbQ0gzXQ==

> <s_epik_cmdline>
J2VwaWtfcHl0aG9uJywgJy1waCcsICc3LjAnLCAnLXRuJywgJzgnLCAnLW1hJywgJzIwMCcsICctbWV0YWxfYmluZGluZycsICctaW1hZScsICc8aW5maWxlLm1hZT4nLCAnLW9tYWUnLCAnPG91dGZpbGUubWFlPic=

> <r_epik_Ionization_Penalty>
1.19246

> <r_epik_Ionization_Penalty_Charging>
0.210041

> <r_epik_Ionization_Penalty_Neutral>
0.982415

> <r_epik_State_Penalty>
1.57595

> <r_epik_Charging_Adjusted_Penalty>
1.78599

> <i_epik_Tot_Q>
1

> <i_epik_Tot_abs_Q>
1

> <r_epik_Metal_State_Penalty>
1.46172

> <b_epik_Metal_Only>
0

> <s_lp_Force_Field>
OPLS_2005

> <r_lp_Energy>
30.8486

> <b_lp_Chiralities_Consistent>
1

> <s_lp_Variant>
AV-unprocessed.smi:1047-20

> <Gold.Version>
5.8.1

> <Gold.Id.Protein>
6NUR|6NUR_protein|mol2

> <Gold.PLP.Fitness>
57.0412

> <Gold.PLP.PLP>
-44.9908

> <Gold.PLP.part.hbond>
-3.5507

> <Gold.PLP.part.metal>
0.0000

> <Gold.PLP.part.buried>
-6.3630

> <Gold.PLP.part.nonpolar>
-36.0413

> <Gold.PLP.part.repulsive>
0.1707

> <Gold.PLP.ligand.clash>
0.0000

> <Gold.PLP.ligand.torsion>
1.0226

> <Gold.PLP.Chemscore.Hbond>
4.6400

> <Gold.PLP.Chemscore.CHOScore>
0.0000

> <Gold.PLP.Chemscore.Metal>
0.0000

> <Gold.Chemscore.Hbonds>
donor molecule, donor type, donor heavy atom, donor atom, acceptor molecule, acceptor atom, score
      L1  H     3    56       P1 10174  2.00
      L1  H    12    42       P1  7957  1.00
      P1  H  7989  7998       L1    12  0.67
      P1  H  7997  8009       L1    16  0.96

> <Gold.PLP.Chemscore.Internal.Correction>
0.1755

> <Gold.Rescore>
     Score         DG    S(hbond)    S(metal)    S(lipo)     H(rot)  DE(clash)    DE(int)     intcor
     21.89     -24.06       3.29        0.00     122.09       2.62       0.11       2.06       ----

> <Gold.Chemscore.Fitness>
21.8885

> <Gold.Chemscore.DG>
-24.0600

> <Gold.Chemscore.ZeroCoef>
-5.4800

> <Gold.Chemscore.Hbond>
3.2948

> <Gold.Chemscore.Metal>
0.0000

> <Gold.Chemscore.Lipo>
122.0936

> <Gold.Chemscore.Internal_Hbond>
0.0000

> <Gold.Chemscore.DEClash>
0.1129

> <Gold.Chemscore.DEInternal>
2.0586

> <Gold.Chemscore.Rot>
2.6209

> <Gold.Chemscore.Internal.Correction>
   9.000000E+99

> <Gold.Chemscore.Hbonds>
donor molecule, donor type, donor heavy atom, donor atom, acceptor molecule, acceptor atom, score
      L1  H     3    56       P1 10174  0.95
      L1  H    12    42       P1  7957  0.97
      P1  H  7989  7998       L1    12  0.54
      P1  H  7997  8009       L1    16  0.57

> <Gold.Chemscore.Hbond.Weighted>
-11.0046

> <Gold.Chemscore.Metal.Weighted>
-0.0000

> <Gold.Chemscore.Lipo.Weighted>
-14.2849

> <Gold.Chemscore.Internal_Hbond.Weighted>
0.0000

> <Gold.Chemscore.DEClash.Weighted>
0.1129

> <Gold.Chemscore.DEInternal.Weighted>
2.0586

> <Gold.Chemscore.Rot.Weighted>
6.7096

> <Gold.Chemscore.Internal.Correction.Weighted>
   9.000000E+99

> <Gold.Protein.RotatedTorsions>
[ 6907 6896 6895 6894 ] final -163.51 input  -60.11 | X-H torsion
[ 7974 7965 7964 7962 ] final  -17.48 input  175.53 | X-H torsion
[ 8008 7997 7996 7995 ] final -171.22 input   59.86 | X-H torsion
[ 10167 10162 10161 10158 ] final -161.31 input  -65.29 | X-H torsion
[ 10718 10713 10712 10709 ] final  -46.78 input   66.30 | X-H torsion
[ 10763 10752 10751 10750 ] final -100.12 input  -60.55 | X-H torsion
[ 11005 11000 10999 10996 ] final -101.27 input  -57.11 | X-H torsion

> <Gold.Protein.ActiveResidues>
 VAL166  LYS551  ARG553  GLY616  TRP617  ASP618  TYR619  PRO620  LYS621  CYS622 
 ASP623  PHE694  ASN695  SER759  ASP760  ASP761  ALA762  ILE779  LEU786  VAL792 
 PHE793  MET794  SER795  GLU796  ALA797  LYS798  CYS799  TRP800  GLU811  SER814 

> <Gold.Protein.RotatedAtoms>
  151.3971  133.3769  159.2727 H   0  0  0  0  0  0  0  0  0  0  0  0  # atno 6907 bound_to 6896
  150.9461  134.8867  159.7653 H   0  0  0  0  0  0  0  0  0  0  0  0  # atno 6908 bound_to 6896
  152.5092  134.3924  159.9441 H   0  0  0  0  0  0  0  0  0  0  0  0  # atno 6909 bound_to 6896
  146.1939  140.3784  142.8448 H   0  0  0  0  0  0  0  0  0  0  0  0  # atno 7974 bound_to 7965
  155.9287  140.1087  157.1149 H   0  0  0  0  0  0  0  0  0  0  0  0  # atno 8008 bound_to 7997
  154.4067  140.1242  156.4840 H   0  0  0  0  0  0  0  0  0  0  0  0  # atno 8009 bound_to 7997
  155.7106  140.3471  155.4974 H   0  0  0  0  0  0  0  0  0  0  0  0  # atno 8010 bound_to 7997
  139.6474  144.0147  152.2137 H   0  0  0  0  0  0  0  0  0  0  0  0  # atno 10167 bound_to 10162
  156.2149  130.4163  149.9066 H   0  0  0  0  0  0  0  0  0  0  0  0  # atno 10718 bound_to 10713
  154.7553  135.4947  153.9364 H   0  0  0  0  0  0  0  0  0  0  0  0  # atno 10763 bound_to 10752
  153.1189  135.6727  153.9377 H   0  0  0  0  0  0  0  0  0  0  0  0  # atno 10764 bound_to 10752
  153.9115  135.3098  155.3427 H   0  0  0  0  0  0  0  0  0  0  0  0  # atno 10765 bound_to 10752
  141.1238  133.8464  157.1210 H   0  0  0  0  0  0  0  0  0  0  0  0  # atno 11005 bound_to 11000
  144.8541  140.7044  143.6149 LP  0  0  0  0  0  0  0  0  0  0  0  0  # atno 17320 bound_to 7965
  145.3706  139.1659  143.4334 LP  0  0  0  0  0  0  0  0  0  0  0  0  # atno 17321 bound_to 7965
  139.9852  144.6400  150.7864 LP  0  0  0  0  0  0  0  0  0  0  0  0  # atno 17342 bound_to 10162
  140.7521  143.2985  151.3143 LP  0  0  0  0  0  0  0  0  0  0  0  0  # atno 17343 bound_to 10162
  156.6732  130.8828  151.3565 LP  0  0  0  0  0  0  0  0  0  0  0  0  # atno 17370 bound_to 10713
  157.7058  130.9383  150.0927 LP  0  0  0  0  0  0  0  0  0  0  0  0  # atno 17371 bound_to 10713
  140.0217  134.9943  157.0605 LP  0  0  0  0  0  0  0  0  0  0  0  0  # atno 17394 bound_to 11000
  140.4429  134.1662  155.7175 LP  0  0  0  0  0  0  0  0  0  0  0  0  # atno 17395 bound_to 11000

$$$$
