AV-unprocessed.smi:28|AV-procd|sdf|189|dock2
  -GOLD-   2262015453D 1   1.00000     0.00000
 Structure written by MMmdl.
 41 44  0  0  0  0  0  0  0  0  1 V2000
  152.9094  137.9301  159.5727 O   0  0  0  0  0  0  0  0  0  0  0  0
  152.5341  139.0820  159.3480 C   0  0  0  0  0  0  0  0  0  0  0  0
  153.1227  140.2547  159.9861 C   0  0  0  0  0  0  0  0  0  0  0  0
  154.1356  140.0992  160.8552 F   0  0  0  0  0  0  0  0  0  0  0  0
  152.6645  141.4976  159.7225 C   0  0  0  0  0  0  0  0  0  0  0  0
  151.6238  141.7490  158.8425 N   0  0  0  0  0  0  0  0  0  0  0  0
  151.1104  143.1500  158.5814 C   0  0  2  0  0  0  0  0  0  0  0  0
  152.2310  144.0434  158.0150 C   0  0  0  0  0  0  0  0  0  0  0  0
  152.1961  145.2495  158.9327 C   0  0  0  0  0  0  0  0  0  0  0  0
  151.6871  144.6434  160.2316 C   0  0  0  0  0  0  0  0  0  0  0  0
  150.6907  143.7352  159.7815 O   0  0  0  0  0  0  0  0  0  0  0  0
  150.9897  140.6718  158.1854 C   0  0  0  0  0  0  0  0  0  0  0  0
  150.0441  140.8710  157.4191 O   0  0  0  0  0  0  0  0  0  0  0  0
  151.4776  139.3700  158.4492 N   0  0  0  0  0  0  0  0  0  0  0  0
  150.8109  138.2522  157.8022 C   0  0  0  0  0  0  0  0  0  0  0  0
  149.6609  137.7822  158.6360 C   0  0  0  0  0  0  0  0  0  0  0  0
  148.5465  138.4523  158.9348 N   0  0  0  0  0  0  0  0  0  0  0  0
  147.7914  137.5964  159.7036 N   0  0  0  0  0  0  0  0  0  0  0  0
  148.5012  136.4680  159.8079 C   0  0  0  0  0  0  0  0  0  0  0  0
  148.1747  135.2391  160.5222 C   0  0  0  0  0  0  0  0  0  0  0  0
  148.3138  134.0068  159.8467 C   0  0  0  0  0  0  0  0  0  0  0  0
  148.0086  132.7960  160.4968 C   0  0  0  0  0  0  0  0  0  0  0  0
  147.5552  132.8089  161.8283 C   0  0  0  0  0  0  0  0  0  0  0  0
  147.4014  134.0334  162.5047 C   0  0  0  0  0  0  0  0  0  0  0  0
  147.7043  135.2494  161.8593 C   0  0  0  0  0  0  0  0  0  0  0  0
  147.4312  136.8745  162.8200 Br  0  0  0  0  0  0  0  0  0  0  0  0
  149.6981  136.5332  159.1671 O   0  0  0  0  0  0  0  0  0  0  0  0
  153.1433  142.3174  160.2354 H   0  0  0  0  0  0  0  0  0  0  0  0
  150.2537  143.0298  157.9159 H   0  0  0  0  0  0  0  0  0  0  0  0
  153.1946  143.5364  158.0895 H   0  0  0  0  0  0  0  0  0  0  0  0
  152.0415  144.2933  156.9705 H   0  0  0  0  0  0  0  0  0  0  0  0
  153.1663  145.7353  159.0385 H   0  0  0  0  0  0  0  0  0  0  0  0
  151.4822  145.9849  158.5593 H   0  0  0  0  0  0  0  0  0  0  0  0
  152.4836  144.1052  160.7479 H   0  0  0  0  0  0  0  0  0  0  0  0
  151.2743  145.3876  160.9130 H   0  0  0  0  0  0  0  0  0  0  0  0
  150.4788  138.5691  156.8123 H   0  0  0  0  0  0  0  0  0  0  0  0
  151.5339  137.4512  157.6404 H   0  0  0  0  0  0  0  0  0  0  0  0
  148.6638  133.9849  158.8246 H   0  0  0  0  0  0  0  0  0  0  0  0
  148.1233  131.8580  159.9737 H   0  0  0  0  0  0  0  0  0  0  0  0
  147.3201  131.8813  162.3290 H   0  0  0  0  0  0  0  0  0  0  0  0
  147.0429  134.0406  163.5235 H   0  0  0  0  0  0  0  0  0  0  0  0
  1  2  2  0  0  0  0
  2 14  1  0  0  0  0
  2  3  1  0  0  0  0
  3  4  1  0  0  0  0
  3  5  2  0  0  0  0
  5  6  1  0  0  0  0
  5 28  1  0  0  0  0
  6  7  1  0  0  0  0
  6 12  1  0  0  0  0
  7 11  1  0  0  0  0
  7  8  1  0  0  0  0
  7 29  1  0  0  0  0
  8  9  1  0  0  0  0
  8 30  1  0  0  0  0
  8 31  1  0  0  0  0
  9 10  1  0  0  0  0
  9 32  1  0  0  0  0
  9 33  1  0  0  0  0
 10 11  1  0  0  0  0
 10 34  1  0  0  0  0
 10 35  1  0  0  0  0
 12 13  2  0  0  0  0
 12 14  1  0  0  0  0
 14 15  1  0  0  0  0
 15 16  1  0  0  0  0
 15 36  1  0  0  0  0
 15 37  1  0  0  0  0
 16 27  1  0  0  0  0
 16 17  2  0  0  0  0
 17 18  1  0  0  0  0
 18 19  2  0  0  0  0
 19 20  1  0  0  0  0
 19 27  1  0  0  0  0
 20 25  1  0  0  0  0
 20 21  2  0  0  0  0
 21 22  1  0  0  0  0
 21 38  1  0  0  0  0
 22 23  2  0  0  0  0
 22 39  1  0  0  0  0
 23 24  1  0  0  0  0
 23 40  1  0  0  0  0
 24 25  2  0  0  0  0
 24 41  1  0  0  0  0
 25 26  1  0  0  0  0
M  END
> <s_m_source_file>
AV-unprocessed.smi

> <i_m_source_file_index>
28

> <i_lp_mmshare_version>
43012

> <i_f3d_flags>
0

> <s_epik_input>
TzFbQ0gyXVtDSDJdW0NIMl1bQ0BIXTFuKFtjSF1jKEYpYzI9TyljKD1PKW4yW0NIMl1jM25uYyhvMyktYzRbY0hdW2NIXVtjSF1bY0hdYzRCcg==

> <s_epik_cmdline>
J2VwaWtfcHl0aG9uJywgJy1waCcsICc3LjAnLCAnLXRuJywgJzgnLCAnLW1hJywgJzIwMCcsICctbWV0YWxfYmluZGluZycsICctaW1hZScsICc8aW5maWxlLm1hZT4nLCAnLW9tYWUnLCAnPG91dGZpbGUubWFlPic=

> <r_lp_tautomer_probability>
1

> <r_epik_Ionization_Penalty>
2.5628e-09

> <r_epik_Ionization_Penalty_Charging>
2.54231e-09

> <r_epik_Ionization_Penalty_Neutral>
2.0492e-11

> <r_epik_State_Penalty>
-0

> <r_epik_Charging_Adjusted_Penalty>
2.54231e-09

> <i_epik_Tot_Q>
0

> <i_epik_Tot_abs_Q>
0

> <r_epik_Metal_State_Penalty>
-0

> <b_epik_Metal_Only>
0

> <s_epik_Chemistry_Notes>
This compound contains an acetal/aminal-like group ( X-CH(R)-Y where X, Y are N, S, or O) that may be acid/base labile, releasing an aldehyde.

> <s_lp_Force_Field>
OPLS_2005

> <r_lp_Energy>
34.3922

> <b_lp_Chiralities_Consistent>
1

> <s_lp_Variant>
AV-unprocessed.smi:28-1

> <Gold.Version>
5.8.1

> <Gold.Id.Protein>
6NUR|6NUR_protein|mol2

> <Gold.PLP.Fitness>
56.0783

> <Gold.PLP.PLP>
-54.8461

> <Gold.PLP.part.hbond>
-3.4454

> <Gold.PLP.part.metal>
0.0000

> <Gold.PLP.part.buried>
-5.7320

> <Gold.PLP.part.nonpolar>
-44.6786

> <Gold.PLP.part.repulsive>
0.1251

> <Gold.PLP.ligand.clash>
0.0000

> <Gold.PLP.ligand.torsion>
1.2556

> <Gold.PLP.Chemscore.Hbond>
1.2389

> <Gold.PLP.Chemscore.CHOScore>
0.0000

> <Gold.PLP.Chemscore.Metal>
0.0000

> <Gold.Chemscore.Hbonds>
donor molecule, donor type, donor heavy atom, donor atom, acceptor molecule, acceptor atom, score
      P1  H  6896  6908       L1    27  0.84
      P1  H  6934  6947       L1    18  0.43

> <Gold.PLP.Chemscore.Internal.Correction>
0.0268

> <Gold.Rescore>
     Score         DG    S(hbond)    S(metal)    S(lipo)     H(rot)  DE(clash)    DE(int)     intcor
     15.97     -17.15       0.89        0.00     111.55       1.70       0.10       1.09       ----

> <Gold.Chemscore.Fitness>
15.9666

> <Gold.Chemscore.DG>
-17.1532

> <Gold.Chemscore.ZeroCoef>
-5.4800

> <Gold.Chemscore.Hbond>
0.8889

> <Gold.Chemscore.Metal>
0.0000

> <Gold.Chemscore.Lipo>
111.5500

> <Gold.Chemscore.Internal_Hbond>
0.0000

> <Gold.Chemscore.DEClash>
0.1016

> <Gold.Chemscore.DEInternal>
1.0850

> <Gold.Chemscore.Rot>
1.6980

> <Gold.Chemscore.Internal.Correction>
   9.000000E+99

> <Gold.Chemscore.Hbonds>
donor molecule, donor type, donor heavy atom, donor atom, acceptor molecule, acceptor atom, score
      P1  H  6896  6908       L1    27  0.54
      P1  H  6934  6947       L1    18  0.04

> <Gold.Chemscore.Hbond.Weighted>
-2.9688

> <Gold.Chemscore.Metal.Weighted>
-0.0000

> <Gold.Chemscore.Lipo.Weighted>
-13.0513

> <Gold.Chemscore.Internal_Hbond.Weighted>
0.0000

> <Gold.Chemscore.DEClash.Weighted>
0.1016

> <Gold.Chemscore.DEInternal.Weighted>
1.0850

> <Gold.Chemscore.Rot.Weighted>
4.3469

> <Gold.Chemscore.Internal.Correction.Weighted>
   9.000000E+99

> <Gold.Protein.RotatedTorsions>
[ 6907 6896 6895 6894 ] final -172.99 input  -60.11 | X-H torsion
[ 7974 7965 7964 7962 ] final  -81.02 input  175.53 | X-H torsion
[ 8008 7997 7996 7995 ] final   92.58 input   59.86 | X-H torsion
[ 10167 10162 10161 10158 ] final   31.62 input  -65.29 | X-H torsion
[ 10718 10713 10712 10709 ] final  -92.16 input   66.30 | X-H torsion
[ 10763 10752 10751 10750 ] final -115.90 input  -60.55 | X-H torsion
[ 11005 11000 10999 10996 ] final -122.05 input  -57.11 | X-H torsion

> <Gold.Protein.ActiveResidues>
 VAL166  LYS551  ARG553  GLY616  TRP617  ASP618  TYR619  PRO620  LYS621  CYS622 
 ASP623  PHE694  ASN695  SER759  ASP760  ASP761  ALA762  ILE779  LEU786  VAL792 
 PHE793  MET794  SER795  GLU796  ALA797  LYS798  CYS799  TRP800  GLU811  SER814 

> <Gold.Protein.RotatedAtoms>
  151.5489  133.3420  159.2949 H   0  0  0  0  0  0  0  0  0  0  0  0  # atno 6907 bound_to 6896
  150.8490  134.7812  159.7005 H   0  0  0  0  0  0  0  0  0  0  0  0  # atno 6908 bound_to 6896
  152.4541  134.5338  159.9870 H   0  0  0  0  0  0  0  0  0  0  0  0  # atno 6909 bound_to 6896
  145.5522  140.9495  143.1493 H   0  0  0  0  0  0  0  0  0  0  0  0  # atno 7974 bound_to 7965
  156.0370  140.3323  155.7202 H   0  0  0  0  0  0  0  0  0  0  0  0  # atno 8008 bound_to 7997
  155.5801  140.0636  157.2803 H   0  0  0  0  0  0  0  0  0  0  0  0  # atno 8009 bound_to 7997
  154.4377  140.1845  156.0955 H   0  0  0  0  0  0  0  0  0  0  0  0  # atno 8010 bound_to 7997
  140.4572  144.0960  150.6204 H   0  0  0  0  0  0  0  0  0  0  0  0  # atno 10167 bound_to 10162
  156.0000  130.4976  150.5584 H   0  0  0  0  0  0  0  0  0  0  0  0  # atno 10718 bound_to 10713
  154.8499  135.4365  154.1735 H   0  0  0  0  0  0  0  0  0  0  0  0  # atno 10763 bound_to 10752
  153.2843  135.6956  153.7361 H   0  0  0  0  0  0  0  0  0  0  0  0  # atno 10764 bound_to 10752
  153.6552  135.3444  155.3086 H   0  0  0  0  0  0  0  0  0  0  0  0  # atno 10765 bound_to 10752
  141.0024  134.0383  157.3520 H   0  0  0  0  0  0  0  0  0  0  0  0  # atno 11005 bound_to 11000
  144.7524  139.7161  143.7268 LP  0  0  0  0  0  0  0  0  0  0  0  0  # atno 17320 bound_to 7965
  146.1909  139.5149  142.9806 LP  0  0  0  0  0  0  0  0  0  0  0  0  # atno 17321 bound_to 7965
  140.4137  143.2644  151.9801 LP  0  0  0  0  0  0  0  0  0  0  0  0  # atno 17342 bound_to 10162
  139.4802  144.5893  151.7800 LP  0  0  0  0  0  0  0  0  0  0  0  0  # atno 17343 bound_to 10162
  157.3497  131.0731  151.1723 LP  0  0  0  0  0  0  0  0  0  0  0  0  # atno 17370 bound_to 10713
  157.2544  130.6629  149.5946 LP  0  0  0  0  0  0  0  0  0  0  0  0  # atno 17371 bound_to 10713
  139.9046  135.0175  156.7426 LP  0  0  0  0  0  0  0  0  0  0  0  0  # atno 17394 bound_to 11000
  140.6867  133.9426  155.7942 LP  0  0  0  0  0  0  0  0  0  0  0  0  # atno 17395 bound_to 11000

$$$$
