AV-unprocessed.smi:2850|AV-procd|sdf|10966|dock1
  -GOLD-   2272015413D 1   1.00000     0.00000
 Structure written by MMmdl.
 45 46  0  0  0  0  0  0  0  0  2 V2000
  155.7418  140.9115  164.2138 C   0  0  0  0  0  0  0  0  0  0  0  0
  155.4614  140.2423  162.5510 S   0  0  0  0  0  0  0  0  0  0  0  0
  154.3013  141.3052  161.7468 C   0  0  0  0  0  0  0  0  0  0  0  0
  153.5927  142.2752  162.4780 C   0  0  0  0  0  0  0  0  0  0  0  0
  152.6921  143.0826  161.7619 C   0  0  0  0  0  0  0  0  0  0  0  0
  152.5706  142.8597  160.3754 C   0  0  0  0  0  0  0  0  0  0  0  0
  151.6817  143.6556  159.6385 N   0  0  0  0  0  0  0  0  0  0  0  0
  151.7310  143.7131  158.1824 C   0  0  0  0  0  0  0  0  0  0  0  0
  150.8954  142.6042  157.5199 C   0  0  1  0  0  0  0  0  0  0  0  0
  151.5413  141.2164  157.7087 C   0  0  0  0  0  0  0  0  0  0  0  0
  150.6943  140.1442  157.1307 N   0  3  2  0  0  0  0  0  0  0  0  0
  150.7759  140.0546  155.6473 C   0  0  0  0  0  0  0  0  0  0  0  0
  151.4823  138.7714  155.1599 C   0  0  0  0  0  0  0  0  0  0  0  0
  152.9815  139.0014  154.9059 C   0  0  0  0  0  0  0  0  0  0  0  0
  150.8021  138.2314  153.8932 C   0  0  0  0  0  0  0  0  0  0  0  0
  149.3142  140.2240  157.6740 C   0  0  0  0  0  0  0  0  0  0  0  0
  148.7326  141.6438  157.5336 C   0  0  0  0  0  0  0  0  0  0  0  0
  149.6119  142.5849  158.1368 O   0  0  0  0  0  0  0  0  0  0  0  0
  153.2890  141.9000  159.7378 N   0  0  0  0  0  0  0  0  0  0  0  0
  154.1483  141.1299  160.4144 N   0  0  0  0  0  0  0  0  0  0  0  0
  156.4577  140.2899  164.7512 H   0  0  0  0  0  0  0  0  0  0  0  0
  154.8112  140.9333  164.7810 H   0  0  0  0  0  0  0  0  0  0  0  0
  156.1406  141.9244  164.1551 H   0  0  0  0  0  0  0  0  0  0  0  0
  153.7326  142.3956  163.5422 H   0  0  0  0  0  0  0  0  0  0  0  0
  152.1164  143.8473  162.2626 H   0  0  0  0  0  0  0  0  0  0  0  0
  151.0510  144.2766  160.1250 H   0  0  0  0  0  0  0  0  0  0  0  0
  151.3912  144.6947  157.8494 H   0  0  0  0  0  0  0  0  0  0  0  0
  152.7720  143.6304  157.8689 H   0  0  0  0  0  0  0  0  0  0  0  0
  150.7885  142.8150  156.4547 H   0  0  0  0  0  0  0  0  0  0  0  0
  152.5405  141.1882  157.2727 H   0  0  0  0  0  0  0  0  0  0  0  0
  151.6686  141.0153  158.7735 H   0  0  0  0  0  0  0  0  0  0  0  0
  149.7778  140.1259  155.2147 H   0  0  0  0  0  0  0  0  0  0  0  0
  151.3292  140.9121  155.2612 H   0  0  0  0  0  0  0  0  0  0  0  0
  151.3872  137.9979  155.9215 H   0  0  0  0  0  0  0  0  0  0  0  0
  153.1425  139.7663  154.1455 H   0  0  0  0  0  0  0  0  0  0  0  0
  153.4653  138.0865  154.5625 H   0  0  0  0  0  0  0  0  0  0  0  0
  153.4970  139.3186  155.8125 H   0  0  0  0  0  0  0  0  0  0  0  0
  150.8596  138.9495  153.0746 H   0  0  0  0  0  0  0  0  0  0  0  0
  149.7485  138.0159  154.0733 H   0  0  0  0  0  0  0  0  0  0  0  0
  151.2721  137.3065  153.5576 H   0  0  0  0  0  0  0  0  0  0  0  0
  148.6583  139.4928  157.2035 H   0  0  0  0  0  0  0  0  0  0  0  0
  149.3529  139.9596  158.7317 H   0  0  0  0  0  0  0  0  0  0  0  0
  148.5605  141.9056  156.4889 H   0  0  0  0  0  0  0  0  0  0  0  0
  147.7650  141.7002  158.0324 H   0  0  0  0  0  0  0  0  0  0  0  0
  151.0868  139.2755  157.4651 H   0  0  0  0  0  0  0  0  0  0  0  0
  1  2  1  0  0  0  0
  1 21  1  0  0  0  0
  1 22  1  0  0  0  0
  1 23  1  0  0  0  0
  2  3  1  0  0  0  0
  3 20  1  0  0  0  0
  3  4  2  0  0  0  0
  4  5  1  0  0  0  0
  4 24  1  0  0  0  0
  5  6  2  0  0  0  0
  5 25  1  0  0  0  0
  6  7  1  0  0  0  0
  6 19  1  0  0  0  0
  7  8  1  0  0  0  0
  7 26  1  0  0  0  0
  8  9  1  0  0  0  0
  8 27  1  0  0  0  0
  8 28  1  0  0  0  0
  9 18  1  0  0  0  0
  9 10  1  0  0  0  0
  9 29  1  0  0  0  0
 10 11  1  0  0  0  0
 10 30  1  0  0  0  0
 10 31  1  0  0  0  0
 11 12  1  0  0  0  0
 11 16  1  0  0  0  0
 11 45  1  0  0  0  0
 12 13  1  0  0  0  0
 12 32  1  0  0  0  0
 12 33  1  0  0  0  0
 13 14  1  0  0  0  0
 13 15  1  0  0  0  0
 13 34  1  0  0  0  0
 14 35  1  0  0  0  0
 14 36  1  0  0  0  0
 14 37  1  0  0  0  0
 15 38  1  0  0  0  0
 15 39  1  0  0  0  0
 15 40  1  0  0  0  0
 16 17  1  0  0  0  0
 16 41  1  0  0  0  0
 16 42  1  0  0  0  0
 17 18  1  0  0  0  0
 17 43  1  0  0  0  0
 17 44  1  0  0  0  0
 19 20  2  0  0  0  0
M  CHG  1  11   1
M  END
> <s_m_source_file>
AV-unprocessed.smi

> <i_m_source_file_index>
2850

> <i_lp_mmshare_version>
43012

> <i_f3d_flags>
0

> <s_epik_input>
W0NIM11TYzFbY0hdW2NIXWMobm4xKVtOSF1bQ0gyXVtDQEBIXTJbQ0gyXU4oW0NIMl1bQ0gyXU8yKVtDSDJdW0NIXShbQ0gzXSlbQ0gzXQ==

> <s_epik_cmdline>
J2VwaWtfcHl0aG9uJywgJy1waCcsICc3LjAnLCAnLXRuJywgJzgnLCAnLW1hJywgJzIwMCcsICctbWV0YWxfYmluZGluZycsICctaW1hZScsICc8aW5maWxlLm1hZT4nLCAnLW9tYWUnLCAnPG91dGZpbGUubWFlPic=

> <r_lp_tautomer_probability>
0.999978

> <r_epik_Ionization_Penalty>
0.0874875

> <r_epik_Ionization_Penalty_Charging>
0.0831532

> <r_epik_Ionization_Penalty_Neutral>
0.00433433

> <r_epik_State_Penalty>
0.0738301

> <r_epik_Charging_Adjusted_Penalty>
0.156983

> <i_epik_Tot_Q>
1

> <i_epik_Tot_abs_Q>
1

> <r_epik_Metal_State_Penalty>
0.073888

> <b_epik_Metal_Only>
0

> <s_lp_Force_Field>
OPLS_2005

> <r_lp_Energy>
26.339

> <b_lp_Chiralities_Consistent>
1

> <s_lp_Variant>
AV-unprocessed.smi:2850-2

> <Gold.Version>
5.8.1

> <Gold.Id.Protein>
6NUR|6NUR_protein|mol2

> <Gold.PLP.Fitness>
40.3947

> <Gold.PLP.PLP>
-43.4227

> <Gold.PLP.part.hbond>
0.0000

> <Gold.PLP.part.metal>
0.0000

> <Gold.PLP.part.buried>
-5.4767

> <Gold.PLP.part.nonpolar>
-37.9498

> <Gold.PLP.part.repulsive>
0.3709

> <Gold.PLP.ligand.clash>
0.0000

> <Gold.PLP.ligand.torsion>
1.6468

> <Gold.PLP.Chemscore.Hbond>
0.0000

> <Gold.PLP.Chemscore.CHOScore>
0.0000

> <Gold.PLP.Chemscore.Metal>
0.0000

> <Gold.PLP.Chemscore.Internal.Correction>
0.2655

> <Gold.Rescore>
     Score         DG    S(hbond)    S(metal)    S(lipo)     H(rot)  DE(clash)    DE(int)     intcor
     11.51     -14.54       0.00        0.00     112.43       1.60       0.14       2.89       ----

> <Gold.Chemscore.Fitness>
11.5104

> <Gold.Chemscore.DG>
-14.5381

> <Gold.Chemscore.ZeroCoef>
-5.4800

> <Gold.Chemscore.Hbond>
0.0000

> <Gold.Chemscore.Metal>
0.0000

> <Gold.Chemscore.Lipo>
112.4349

> <Gold.Chemscore.Internal_Hbond>
0.0000

> <Gold.Chemscore.DEClash>
0.1374

> <Gold.Chemscore.DEInternal>
2.8902

> <Gold.Chemscore.Rot>
1.6003

> <Gold.Chemscore.Internal.Correction>
   9.000000E+99

> <Gold.Chemscore.Hbond.Weighted>
-0.0000

> <Gold.Chemscore.Metal.Weighted>
-0.0000

> <Gold.Chemscore.Lipo.Weighted>
-13.1549

> <Gold.Chemscore.Internal_Hbond.Weighted>
0.0000

> <Gold.Chemscore.DEClash.Weighted>
0.1374

> <Gold.Chemscore.DEInternal.Weighted>
2.8902

> <Gold.Chemscore.Rot.Weighted>
4.0968

> <Gold.Chemscore.Internal.Correction.Weighted>
   9.000000E+99

> <Gold.Protein.RotatedTorsions>
[ 6907 6896 6895 6894 ] final   54.12 input  -60.11 | X-H torsion
[ 7974 7965 7964 7962 ] final -134.04 input  175.53 | X-H torsion
[ 8008 7997 7996 7995 ] final -113.76 input   59.86 | X-H torsion
[ 10167 10162 10161 10158 ] final -115.58 input  -65.29 | X-H torsion
[ 10718 10713 10712 10709 ] final    0.63 input   66.30 | X-H torsion
[ 10763 10752 10751 10750 ] final -156.53 input  -60.55 | X-H torsion
[ 11005 11000 10999 10996 ] final  -80.78 input  -57.11 | X-H torsion

> <Gold.Protein.ActiveResidues>
 VAL166  LYS551  ARG553  GLY616  TRP617  ASP618  TYR619  PRO620  LYS621  CYS622 
 ASP623  PHE694  ASN695  SER759  ASP760  ASP761  ALA762  ILE779  LEU786  VAL792 
 PHE793  MET794  SER795  GLU796  ALA797  LYS798  CYS799  TRP800  GLU811  SER814 

> <Gold.Protein.RotatedAtoms>
  152.3406  134.7139  160.0264 H   0  0  0  0  0  0  0  0  0  0  0  0  # atno 6907 bound_to 6896
  151.7525  133.3323  159.3403 H   0  0  0  0  0  0  0  0  0  0  0  0  # atno 6908 bound_to 6896
  150.7477  134.6112  159.6131 H   0  0  0  0  0  0  0  0  0  0  0  0  # atno 6909 bound_to 6896
  144.9139  140.6929  143.5008 H   0  0  0  0  0  0  0  0  0  0  0  0  # atno 7974 bound_to 7965
  155.0257  140.0393  157.2455 H   0  0  0  0  0  0  0  0  0  0  0  0  # atno 8008 bound_to 7997
  154.7339  140.2736  155.6408 H   0  0  0  0  0  0  0  0  0  0  0  0  # atno 8009 bound_to 7997
  156.2848  140.2678  156.2047 H   0  0  0  0  0  0  0  0  0  0  0  0  # atno 8010 bound_to 7997
  140.0886  143.4721  152.1883 H   0  0  0  0  0  0  0  0  0  0  0  0  # atno 10167 bound_to 10162
  156.8363  130.5505  149.5682 H   0  0  0  0  0  0  0  0  0  0  0  0  # atno 10718 bound_to 10713
  154.7706  135.3144  154.8198 H   0  0  0  0  0  0  0  0  0  0  0  0  # atno 10763 bound_to 10752
  153.8934  135.6823  153.4763 H   0  0  0  0  0  0  0  0  0  0  0  0  # atno 10764 bound_to 10752
  153.1319  135.4776  154.9296 H   0  0  0  0  0  0  0  0  0  0  0  0  # atno 10765 bound_to 10752
  141.1667  133.7166  156.8325 H   0  0  0  0  0  0  0  0  0  0  0  0  # atno 11005 bound_to 11000
  145.3409  139.1732  143.4486 LP  0  0  0  0  0  0  0  0  0  0  0  0  # atno 17320 bound_to 7965
  146.3172  140.3450  142.8651 LP  0  0  0  0  0  0  0  0  0  0  0  0  # atno 17321 bound_to 7965
  139.5738  144.7477  151.3820 LP  0  0  0  0  0  0  0  0  0  0  0  0  # atno 17342 bound_to 10162
  140.7040  143.7559  150.7451 LP  0  0  0  0  0  0  0  0  0  0  0  0  # atno 17343 bound_to 10162
  156.0906  130.5892  150.9725 LP  0  0  0  0  0  0  0  0  0  0  0  0  # atno 17370 bound_to 10713
  157.6380  131.0914  150.8310 LP  0  0  0  0  0  0  0  0  0  0  0  0  # atno 17371 bound_to 10713
  140.2041  134.8875  157.3202 LP  0  0  0  0  0  0  0  0  0  0  0  0  # atno 17394 bound_to 11000
  140.2156  134.4085  155.7591 LP  0  0  0  0  0  0  0  0  0  0  0  0  # atno 17395 bound_to 11000

$$$$
