AV-unprocessed.smi:2490|AV-procd|sdf|9808|dock2
  -GOLD-   2272013443D 1   1.00000     0.00000
 Structure written by MMmdl.
 33 34  0  0  0  0  0  0  0  0  1 V2000
  146.8001  138.8646  152.3301 C   0  0  0  0  0  0  0  0  0  0  0  0
  148.1489  139.0771  152.8318 N   0  0  0  0  0  0  0  0  0  0  0  0
  148.4590  139.2387  154.1267 C   0  0  0  0  0  0  0  0  0  0  0  0
  147.6137  139.2274  155.0228 O   0  0  0  0  0  0  0  0  0  0  0  0
  149.9427  139.4659  154.4491 C   0  0  1  0  0  0  0  0  0  0  0  0
  150.1758  139.8903  155.9169 C   0  0  0  0  0  0  0  0  0  0  0  0
  151.6018  140.0020  156.1956 N   0  0  0  0  0  0  0  0  0  0  0  0
  151.9581  140.6336  157.3720 C   0  0  0  0  0  0  0  0  0  0  0  0
  152.9164  140.0654  158.1138 N   0  0  0  0  0  0  0  0  0  0  0  0
  153.2544  140.6936  159.2605 C   0  0  0  0  0  0  0  0  0  0  0  0
  152.6290  141.8927  159.6598 C   0  0  0  0  0  0  0  0  0  0  0  0
  153.0087  142.5955  160.9454 C   0  0  0  0  0  0  0  0  0  0  0  0
  151.6333  142.3966  158.7968 C   0  0  0  0  0  0  0  0  0  0  0  0
  151.3014  141.7629  157.6514 N   0  0  0  0  0  0  0  0  0  0  0  0
  152.3334  138.7896  155.8565 C   0  0  0  0  0  0  0  0  0  0  0  0
  152.0583  138.3974  154.3960 C   0  0  0  0  0  0  0  0  0  0  0  0
  150.6557  138.2541  154.1970 O   0  0  0  0  0  0  0  0  0  0  0  0
  146.8178  138.7779  151.2437 H   0  0  0  0  0  0  0  0  0  0  0  0
  146.1503  139.6997  152.5950 H   0  0  0  0  0  0  0  0  0  0  0  0
  146.3745  137.9473  152.7387 H   0  0  0  0  0  0  0  0  0  0  0  0
  148.8982  139.0992  152.1550 H   0  0  0  0  0  0  0  0  0  0  0  0
  150.3097  140.2444  153.7778 H   0  0  0  0  0  0  0  0  0  0  0  0
  149.6952  140.8501  156.1130 H   0  0  0  0  0  0  0  0  0  0  0  0
  149.7327  139.1627  156.5987 H   0  0  0  0  0  0  0  0  0  0  0  0
  154.0276  140.2366  159.8605 H   0  0  0  0  0  0  0  0  0  0  0  0
  152.4471  143.5221  161.0682 H   0  0  0  0  0  0  0  0  0  0  0  0
  154.0717  142.8374  160.9442 H   0  0  0  0  0  0  0  0  0  0  0  0
  152.8017  141.9535  161.8018 H   0  0  0  0  0  0  0  0  0  0  0  0
  151.1009  143.3090  159.0226 H   0  0  0  0  0  0  0  0  0  0  0  0
  153.4021  138.9483  156.0068 H   0  0  0  0  0  0  0  0  0  0  0  0
  152.0297  137.9840  156.5263 H   0  0  0  0  0  0  0  0  0  0  0  0
  152.4596  139.1448  153.7098 H   0  0  0  0  0  0  0  0  0  0  0  0
  152.5484  137.4525  154.1614 H   0  0  0  0  0  0  0  0  0  0  0  0
  1  2  1  0  0  0  0
  1 18  1  0  0  0  0
  1 19  1  0  0  0  0
  1 20  1  0  0  0  0
  2  3  1  0  0  0  0
  2 21  1  0  0  0  0
  3  4  2  0  0  0  0
  3  5  1  0  0  0  0
  5 17  1  0  0  0  0
  5  6  1  0  0  0  0
  5 22  1  0  0  0  0
  6  7  1  0  0  0  0
  6 23  1  0  0  0  0
  6 24  1  0  0  0  0
  7  8  1  0  0  0  0
  7 15  1  0  0  0  0
  8 14  1  0  0  0  0
  8  9  2  0  0  0  0
  9 10  1  0  0  0  0
 10 11  2  0  0  0  0
 10 25  1  0  0  0  0
 11 12  1  0  0  0  0
 11 13  1  0  0  0  0
 12 26  1  0  0  0  0
 12 27  1  0  0  0  0
 12 28  1  0  0  0  0
 13 14  2  0  0  0  0
 13 29  1  0  0  0  0
 15 16  1  0  0  0  0
 15 30  1  0  0  0  0
 15 31  1  0  0  0  0
 16 17  1  0  0  0  0
 16 32  1  0  0  0  0
 16 33  1  0  0  0  0
M  END
> <s_m_source_file>
AV-unprocessed.smi

> <i_m_source_file_index>
2490

> <i_lp_mmshare_version>
43012

> <i_f3d_flags>
0

> <s_epik_input>
W0NIM11bTkhdQyg9TylbQ0BASF0xW0NIMl1OKFtDSDJdW0NIMl1PMSljMm5bY0hdYyhbQ0gzXSlbY0hdbjI=

> <s_epik_cmdline>
J2VwaWtfcHl0aG9uJywgJy1waCcsICc3LjAnLCAnLXRuJywgJzgnLCAnLW1hJywgJzIwMCcsICctbWV0YWxfYmluZGluZycsICctaW1hZScsICc8aW5maWxlLm1hZT4nLCAnLW9tYWUnLCAnPG91dGZpbGUubWFlPic=

> <r_lp_tautomer_probability>
1

> <r_epik_Ionization_Penalty>
8.72552e-06

> <r_epik_Ionization_Penalty_Charging>
0

> <r_epik_Ionization_Penalty_Neutral>
8.72552e-06

> <r_epik_State_Penalty>
-0

> <r_epik_Charging_Adjusted_Penalty>
0

> <i_epik_Tot_Q>
0

> <i_epik_Tot_abs_Q>
0

> <r_epik_Metal_State_Penalty>
-0

> <b_epik_Metal_Only>
0

> <s_lp_Force_Field>
OPLS_2005

> <r_lp_Energy>
12.5382

> <b_lp_Chiralities_Consistent>
1

> <s_lp_Variant>
AV-unprocessed.smi:2490-2

> <Gold.Version>
5.8.1

> <Gold.Id.Protein>
6NUR|6NUR_protein|mol2

> <Gold.PLP.Fitness>
37.1371

> <Gold.PLP.PLP>
-31.9857

> <Gold.PLP.part.hbond>
-2.4655

> <Gold.PLP.part.metal>
0.0000

> <Gold.PLP.part.buried>
-5.0802

> <Gold.PLP.part.nonpolar>
-24.7280

> <Gold.PLP.part.repulsive>
0.4003

> <Gold.PLP.ligand.clash>
0.0000

> <Gold.PLP.ligand.torsion>
0.3636

> <Gold.PLP.Chemscore.Hbond>
1.8640

> <Gold.PLP.Chemscore.CHOScore>
0.0000

> <Gold.PLP.Chemscore.Metal>
0.0000

> <Gold.Chemscore.Hbonds>
donor molecule, donor type, donor heavy atom, donor atom, acceptor molecule, acceptor atom, score
      L1  H     2    21       P1  7957  0.86
      P1  H  7997  8009       L1     9  1.00

> <Gold.PLP.Chemscore.Internal.Correction>
0.2866

> <Gold.Rescore>
     Score         DG    S(hbond)    S(metal)    S(lipo)     H(rot)  DE(clash)    DE(int)     intcor
     15.70     -16.44       1.62        0.00      76.19       1.31       0.21       0.54       ----

> <Gold.Chemscore.Fitness>
15.6964

> <Gold.Chemscore.DG>
-16.4408

> <Gold.Chemscore.ZeroCoef>
-5.4800

> <Gold.Chemscore.Hbond>
1.6159

> <Gold.Chemscore.Metal>
0.0000

> <Gold.Chemscore.Lipo>
76.1911

> <Gold.Chemscore.Internal_Hbond>
0.0000

> <Gold.Chemscore.DEClash>
0.2085

> <Gold.Chemscore.DEInternal>
0.5359

> <Gold.Chemscore.Rot>
1.3089

> <Gold.Chemscore.Internal.Correction>
   9.000000E+99

> <Gold.Chemscore.Hbonds>
donor molecule, donor type, donor heavy atom, donor atom, acceptor molecule, acceptor atom, score
      L1  H     2    21       P1  7957  0.77
      P1  H  7997  8009       L1     9  0.31

> <Gold.Chemscore.Hbond.Weighted>
-5.3973

> <Gold.Chemscore.Metal.Weighted>
-0.0000

> <Gold.Chemscore.Lipo.Weighted>
-8.9144

> <Gold.Chemscore.Internal_Hbond.Weighted>
0.0000

> <Gold.Chemscore.DEClash.Weighted>
0.2085

> <Gold.Chemscore.DEInternal.Weighted>
0.5359

> <Gold.Chemscore.Rot.Weighted>
3.3509

> <Gold.Chemscore.Internal.Correction.Weighted>
   9.000000E+99

> <Gold.Protein.RotatedTorsions>
[ 6907 6896 6895 6894 ] final  -76.88 input  -60.11 | X-H torsion
[ 7974 7965 7964 7962 ] final  -47.87 input  175.53 | X-H torsion
[ 8008 7997 7996 7995 ] final  156.39 input   59.86 | X-H torsion
[ 10167 10162 10161 10158 ] final   18.45 input  -65.29 | X-H torsion
[ 10718 10713 10712 10709 ] final  169.22 input   66.30 | X-H torsion
[ 10763 10752 10751 10750 ] final  140.20 input  -60.55 | X-H torsion
[ 11005 11000 10999 10996 ] final -145.00 input  -57.11 | X-H torsion

> <Gold.Protein.ActiveResidues>
 VAL166  LYS551  ARG553  GLY616  TRP617  ASP618  TYR619  PRO620  LYS621  CYS622 
 ASP623  PHE694  ASN695  SER759  ASP760  ASP761  ALA762  ILE779  LEU786  VAL792 
 PHE793  MET794  SER795  GLU796  ALA797  LYS798  CYS799  TRP800  GLU811  SER814 

> <Gold.Protein.RotatedAtoms>
  150.7014  134.4505  159.5333 H   0  0  0  0  0  0  0  0  0  0  0  0  # atno 6907 bound_to 6896
  152.2199  134.8420  160.0496 H   0  0  0  0  0  0  0  0  0  0  0  0  # atno 6908 bound_to 6896
  151.9274  133.3567  159.3955 H   0  0  0  0  0  0  0  0  0  0  0  0  # atno 6909 bound_to 6896
  145.9571  140.7515  142.9476 H   0  0  0  0  0  0  0  0  0  0  0  0  # atno 7974 bound_to 7965
  156.2425  140.1913  156.6948 H   0  0  0  0  0  0  0  0  0  0  0  0  # atno 8008 bound_to 7997
  154.6225  140.0606  156.9659 H   0  0  0  0  0  0  0  0  0  0  0  0  # atno 8009 bound_to 7997
  155.1839  140.3279  155.4373 H   0  0  0  0  0  0  0  0  0  0  0  0  # atno 8010 bound_to 7997
  140.5653  143.9263  150.6672 H   0  0  0  0  0  0  0  0  0  0  0  0  # atno 10167 bound_to 10162
  157.0258  131.0245  151.2760 H   0  0  0  0  0  0  0  0  0  0  0  0  # atno 10718 bound_to 10713
  153.9188  135.3003  155.3448 H   0  0  0  0  0  0  0  0  0  0  0  0  # atno 10763 bound_to 10752
  154.7586  135.4945  153.9424 H   0  0  0  0  0  0  0  0  0  0  0  0  # atno 10764 bound_to 10752
  153.1153  135.6769  153.9532 H   0  0  0  0  0  0  0  0  0  0  0  0  # atno 10765 bound_to 10752
  140.7967  134.2905  157.4994 H   0  0  0  0  0  0  0  0  0  0  0  0  # atno 11005 bound_to 11000
  144.6807  140.2530  143.7329 LP  0  0  0  0  0  0  0  0  0  0  0  0  # atno 17320 bound_to 7965
  145.8091  139.1995  143.2003 LP  0  0  0  0  0  0  0  0  0  0  0  0  # atno 17321 bound_to 7965
  140.2724  143.3446  152.1226 LP  0  0  0  0  0  0  0  0  0  0  0  0  # atno 17342 bound_to 10162
  139.5090  144.6859  151.5889 LP  0  0  0  0  0  0  0  0  0  0  0  0  # atno 17343 bound_to 10162
  157.5215  130.8001  149.7814 LP  0  0  0  0  0  0  0  0  0  0  0  0  # atno 17370 bound_to 10713
  156.0086  130.3843  150.2342 LP  0  0  0  0  0  0  0  0  0  0  0  0  # atno 17371 bound_to 10713
  139.8725  134.9406  156.3773 LP  0  0  0  0  0  0  0  0  0  0  0  0  # atno 17394 bound_to 11000
  140.9336  133.7562  156.0056 LP  0  0  0  0  0  0  0  0  0  0  0  0  # atno 17395 bound_to 11000

$$$$
