AV-unprocessed.smi:2095|AV-procd|sdf|8556|dock4
  -GOLD-   2272011283D 1   1.00000     0.00000
 Structure written by MMmdl.
 42 43  0  0  0  0  0  0  0  0  2 V2000
  152.3627  145.0426  157.7159 C   0  0  0  0  0  0  0  0  0  0  0  0
  151.4047  144.4985  158.7900 C   0  0  2  0  0  0  0  0  0  0  0  0
  151.9892  144.5880  160.2129 C   0  0  0  0  0  0  0  0  0  0  0  0
  153.0779  143.5281  160.4399 C   0  0  0  0  0  0  0  0  0  0  0  0
  152.5637  142.1225  160.0907 C   0  0  0  0  0  0  0  0  0  0  0  0
  152.0501  142.0809  158.6965 N   0  3  1  0  0  0  0  0  0  0  0  0
  151.7863  140.6987  158.2016 C   0  0  2  0  0  0  0  0  0  0  0  0
  153.0552  139.8301  158.3062 C   0  0  0  0  0  0  0  0  0  0  0  0
  151.1519  140.6676  156.7873 C   0  0  0  0  0  0  0  0  0  0  0  0
  151.2439  139.3471  156.1764 N   0  0  0  0  0  0  0  0  0  0  0  0
  150.6204  138.9781  155.0469 C   0  0  0  0  0  0  0  0  0  0  0  0
  149.9487  139.7479  154.3609 O   0  0  0  0  0  0  0  0  0  0  0  0
  150.7504  137.5088  154.6476 C   0  0  0  0  0  0  0  0  0  0  0  0
  151.1917  136.7148  155.7786 N   0  0  0  0  0  0  0  0  0  0  0  0
  150.5887  136.4214  156.9324 C   0  0  0  0  0  0  0  0  0  0  0  0
  151.3634  135.6856  157.7149 N   0  0  0  0  0  0  0  0  0  0  0  0
  152.5153  135.5299  156.9618 N   0  0  0  0  0  0  0  0  0  0  0  0
  152.4196  136.1386  155.8118 N   0  0  0  0  0  0  0  0  0  0  0  0
  150.9455  143.0576  158.4860 C   0  0  0  0  0  0  0  0  0  0  0  0
  153.2796  144.4566  157.6514 H   0  0  0  0  0  0  0  0  0  0  0  0
  152.6435  146.0745  157.9291 H   0  0  0  0  0  0  0  0  0  0  0  0
  151.8941  145.0284  156.7314 H   0  0  0  0  0  0  0  0  0  0  0  0
  150.5198  145.1357  158.7625 H   0  0  0  0  0  0  0  0  0  0  0  0
  152.3861  145.5858  160.4032 H   0  0  0  0  0  0  0  0  0  0  0  0
  151.1893  144.4351  160.9386 H   0  0  0  0  0  0  0  0  0  0  0  0
  153.9551  143.7594  159.8349 H   0  0  0  0  0  0  0  0  0  0  0  0
  153.4092  143.5543  161.4784 H   0  0  0  0  0  0  0  0  0  0  0  0
  153.3775  141.4068  160.2127 H   0  0  0  0  0  0  0  0  0  0  0  0
  151.7768  141.8299  160.7869 H   0  0  0  0  0  0  0  0  0  0  0  0
  151.0733  140.2543  158.8974 H   0  0  0  0  0  0  0  0  0  0  0  0
  152.8311  138.7777  158.1289 H   0  0  0  0  0  0  0  0  0  0  0  0
  153.4966  139.8993  159.3008 H   0  0  0  0  0  0  0  0  0  0  0  0
  153.8148  140.1255  157.5827 H   0  0  0  0  0  0  0  0  0  0  0  0
  150.1071  140.9798  156.8171 H   0  0  0  0  0  0  0  0  0  0  0  0
  151.6639  141.3624  156.1218 H   0  0  0  0  0  0  0  0  0  0  0  0
  151.7767  138.6480  156.6743 H   0  0  0  0  0  0  0  0  0  0  0  0
  149.7890  137.1260  154.3019 H   0  0  0  0  0  0  0  0  0  0  0  0
  151.4592  137.3986  153.8254 H   0  0  0  0  0  0  0  0  0  0  0  0
  149.5961  136.7525  157.2001 H   0  0  0  0  0  0  0  0  0  0  0  0
  150.1082  142.8061  159.1383 H   0  0  0  0  0  0  0  0  0  0  0  0
  150.5712  143.0036  157.4640 H   0  0  0  0  0  0  0  0  0  0  0  0
  152.8169  142.4131  158.1290 H   0  0  0  0  0  0  0  0  0  0  0  0
  1  2  1  0  0  0  0
  1 20  1  0  0  0  0
  1 21  1  0  0  0  0
  1 22  1  0  0  0  0
  2 19  1  0  0  0  0
  2  3  1  0  0  0  0
  2 23  1  0  0  0  0
  3  4  1  0  0  0  0
  3 24  1  0  0  0  0
  3 25  1  0  0  0  0
  4  5  1  0  0  0  0
  4 26  1  0  0  0  0
  4 27  1  0  0  0  0
  5  6  1  0  0  0  0
  5 28  1  0  0  0  0
  5 29  1  0  0  0  0
  6  7  1  0  0  0  0
  6 19  1  0  0  0  0
  6 42  1  0  0  0  0
  7  8  1  0  0  0  0
  7  9  1  0  0  0  0
  7 30  1  0  0  0  0
  8 31  1  0  0  0  0
  8 32  1  0  0  0  0
  8 33  1  0  0  0  0
  9 10  1  0  0  0  0
  9 34  1  0  0  0  0
  9 35  1  0  0  0  0
 10 11  1  0  0  0  0
 10 36  1  0  0  0  0
 11 12  2  0  0  0  0
 11 13  1  0  0  0  0
 13 14  1  0  0  0  0
 13 37  1  0  0  0  0
 13 38  1  0  0  0  0
 14 18  1  0  0  0  0
 14 15  1  0  0  0  0
 15 16  2  0  0  0  0
 15 39  1  0  0  0  0
 16 17  1  0  0  0  0
 17 18  2  0  0  0  0
 19 40  1  0  0  0  0
 19 41  1  0  0  0  0
M  CHG  1   6   1
M  END
> <s_m_source_file>
AV-unprocessed.smi

> <i_m_source_file_index>
2095

> <i_lp_mmshare_version>
43012

> <i_f3d_flags>
0

> <s_epik_input>
W0NIM11bQ0BASF0xW0NIMl1bQ0gyXVtDSDJdTihbQ0gyXTEpW0NASF0oW0NIM10pW0NIMl1bTkhdQyg9TylbQ0gyXW4yW2NIXW5ubjI=

> <s_epik_cmdline>
J2VwaWtfcHl0aG9uJywgJy1waCcsICc3LjAnLCAnLXRuJywgJzgnLCAnLW1hJywgJzIwMCcsICctbWV0YWxfYmluZGluZycsICctaW1hZScsICc8aW5maWxlLm1hZT4nLCAnLW9tYWUnLCAnPG91dGZpbGUubWFlPic=

> <r_lp_tautomer_probability>
1

> <r_epik_Ionization_Penalty>
0.00268321

> <r_epik_Ionization_Penalty_Charging>
0.00267875

> <r_epik_Ionization_Penalty_Neutral>
4.46125e-06

> <r_epik_State_Penalty>
0.00186642

> <r_epik_Charging_Adjusted_Penalty>
0.00454517

> <i_epik_Tot_Q>
1

> <i_epik_Tot_abs_Q>
1

> <r_epik_Metal_State_Penalty>
-0

> <b_epik_Metal_Only>
0

> <s_lp_Force_Field>
OPLS_2005

> <r_lp_Energy>
23.935

> <b_lp_Chiralities_Consistent>
1

> <s_lp_Variant>
AV-unprocessed.smi:2095-3

> <Gold.Version>
5.8.1

> <Gold.Id.Protein>
6NUR|6NUR_protein|mol2

> <Gold.PLP.Fitness>
44.6900

> <Gold.PLP.PLP>
-38.2234

> <Gold.PLP.part.hbond>
-4.0000

> <Gold.PLP.part.metal>
0.0000

> <Gold.PLP.part.buried>
-6.5946

> <Gold.PLP.part.nonpolar>
-28.5357

> <Gold.PLP.part.repulsive>
0.6217

> <Gold.PLP.ligand.clash>
0.0000

> <Gold.PLP.ligand.torsion>
0.5957

> <Gold.PLP.Chemscore.Hbond>
2.5148

> <Gold.PLP.Chemscore.CHOScore>
0.0000

> <Gold.PLP.Chemscore.Metal>
0.0000

> <Gold.Chemscore.Hbonds>
donor molecule, donor type, donor heavy atom, donor atom, acceptor molecule, acceptor atom, score
      P1  H  6896  6907       L1    16  0.11
      P1  H  7989  7998       L1    12  0.54
      P1  H 10752 10763       L1    18  0.37

> <Gold.PLP.Chemscore.Internal.Correction>
0.1136

> <Gold.Rescore>
     Score         DG    S(hbond)    S(metal)    S(lipo)     H(rot)  DE(clash)    DE(int)     intcor
     15.73     -16.32       1.97        0.00      94.36       2.64       0.09       0.50       ----

> <Gold.Chemscore.Fitness>
15.7279

> <Gold.Chemscore.DG>
-16.3221

> <Gold.Chemscore.ZeroCoef>
-5.4800

> <Gold.Chemscore.Hbond>
1.9672

> <Gold.Chemscore.Metal>
0.0000

> <Gold.Chemscore.Lipo>
94.3606

> <Gold.Chemscore.Internal_Hbond>
0.0000

> <Gold.Chemscore.DEClash>
0.0930

> <Gold.Chemscore.DEInternal>
0.5012

> <Gold.Chemscore.Rot>
2.6439

> <Gold.Chemscore.Internal.Correction>
   9.000000E+99

> <Gold.Chemscore.Hbonds>
donor molecule, donor type, donor heavy atom, donor atom, acceptor molecule, acceptor atom, score
      P1  H  6896  6907       L1    16  0.11
      P1  H  7989  7998       L1    12  0.11
      P1  H 10752 10763       L1    18  0.32

> <Gold.Chemscore.Hbond.Weighted>
-6.5704

> <Gold.Chemscore.Metal.Weighted>
-0.0000

> <Gold.Chemscore.Lipo.Weighted>
-11.0402

> <Gold.Chemscore.Internal_Hbond.Weighted>
0.0000

> <Gold.Chemscore.DEClash.Weighted>
0.0930

> <Gold.Chemscore.DEInternal.Weighted>
0.5012

> <Gold.Chemscore.Rot.Weighted>
6.7685

> <Gold.Chemscore.Internal.Correction.Weighted>
   9.000000E+99

> <Gold.Protein.RotatedTorsions>
[ 6907 6896 6895 6894 ] final  -65.24 input  -60.11 | X-H torsion
[ 7974 7965 7964 7962 ] final  -67.90 input  175.53 | X-H torsion
[ 8008 7997 7996 7995 ] final -157.89 input   59.86 | X-H torsion
[ 10167 10162 10161 10158 ] final  -30.26 input  -65.29 | X-H torsion
[ 10718 10713 10712 10709 ] final  -88.36 input   66.30 | X-H torsion
[ 10763 10752 10751 10750 ] final   74.41 input  -60.55 | X-H torsion
[ 11005 11000 10999 10996 ] final   57.98 input  -57.11 | X-H torsion

> <Gold.Protein.ActiveResidues>
 VAL166  LYS551  ARG553  GLY616  TRP617  ASP618  TYR619  PRO620  LYS621  CYS622 
 ASP623  PHE694  ASN695  SER759  ASP760  ASP761  ALA762  ILE779  LEU786  VAL792 
 PHE793  MET794  SER795  GLU796  ALA797  LYS798  CYS799  TRP800  GLU811  SER814 

> <Gold.Protein.RotatedAtoms>
  150.7536  134.6188  159.6124 H   0  0  0  0  0  0  0  0  0  0  0  0  # atno 6907 bound_to 6896
  152.3500  134.7015  160.0248 H   0  0  0  0  0  0  0  0  0  0  0  0  # atno 6908 bound_to 6896
  151.7439  133.3287  159.3410 H   0  0  0  0  0  0  0  0  0  0  0  0  # atno 6909 bound_to 6896
  145.7233  140.9029  143.0618 H   0  0  0  0  0  0  0  0  0  0  0  0  # atno 7974 bound_to 7965
  155.7392  140.0812  157.2253 H   0  0  0  0  0  0  0  0  0  0  0  0  # atno 8008 bound_to 7997
  154.4024  140.1581  156.2652 H   0  0  0  0  0  0  0  0  0  0  0  0  # atno 8009 bound_to 7997
  155.9036  140.3408  155.6048 H   0  0  0  0  0  0  0  0  0  0  0  0  # atno 8010 bound_to 7997
  140.7251  143.3863  151.1509 H   0  0  0  0  0  0  0  0  0  0  0  0  # atno 10167 bound_to 10162
  155.9984  130.4833  150.5007 H   0  0  0  0  0  0  0  0  0  0  0  0  # atno 10718 bound_to 10713
  153.0585  135.5027  154.8037 H   0  0  0  0  0  0  0  0  0  0  0  0  # atno 10763 bound_to 10752
  154.6845  135.2974  154.9569 H   0  0  0  0  0  0  0  0  0  0  0  0  # atno 10764 bound_to 10752
  154.0344  135.6725  153.4836 H   0  0  0  0  0  0  0  0  0  0  0  0  # atno 10765 bound_to 10752
  140.0412  134.5871  155.9380 H   0  0  0  0  0  0  0  0  0  0  0  0  # atno 11005 bound_to 11000
  144.6911  139.9232  143.7469 LP  0  0  0  0  0  0  0  0  0  0  0  0  # atno 17320 bound_to 7965
  146.0605  139.3599  143.0584 LP  0  0  0  0  0  0  0  0  0  0  0  0  # atno 17321 bound_to 7965
  139.7461  143.8850  152.3064 LP  0  0  0  0  0  0  0  0  0  0  0  0  # atno 17342 bound_to 10162
  139.8688  144.7079  150.9012 LP  0  0  0  0  0  0  0  0  0  0  0  0  # atno 17343 bound_to 10162
  157.2991  131.0641  151.2080 LP  0  0  0  0  0  0  0  0  0  0  0  0  # atno 17370 bound_to 10713
  157.3066  130.6869  149.6192 LP  0  0  0  0  0  0  0  0  0  0  0  0  # atno 17371 bound_to 10713
  141.1884  133.6562  156.5322 LP  0  0  0  0  0  0  0  0  0  0  0  0  # atno 17394 bound_to 11000
  140.4066  134.7309  157.4811 LP  0  0  0  0  0  0  0  0  0  0  0  0  # atno 17395 bound_to 11000

$$$$
