AV-unprocessed.smi:215|AV-procd|sdf|1651|dock9
  -GOLD-   2262020 33D 1   1.00000     0.00000
 Structure written by MMmdl.
 59 62  0  0  0  0  0  0  0  0  2 V2000
  146.1210  136.0492  155.5269 C   0  0  0  0  0  0  0  0  0  0  0  0
  146.8724  136.7633  154.3812 C   0  0  1  0  0  0  0  0  0  0  0  0
  146.0432  136.8240  153.0696 C   0  0  2  0  0  0  0  0  0  0  0  0
  146.3418  135.7538  152.0651 N   0  3  2  0  0  0  0  0  0  0  0  0
  145.6124  135.9833  150.7901 C   0  0  0  0  0  0  0  0  0  0  0  0
  146.1673  134.3610  152.5709 C   0  0  0  0  0  0  0  0  0  0  0  0
  146.6980  133.2755  151.6152 C   0  0  0  0  0  0  0  0  0  0  0  0
  148.0196  132.9184  151.9633 O   0  0  0  0  0  0  0  0  0  0  0  0
  146.3496  138.2306  152.5273 C   0  0  0  0  0  0  0  0  0  0  0  0
  146.5638  139.0762  153.7752 C   0  0  0  0  0  0  0  0  0  0  0  0
  147.1323  138.1538  154.7412 N   0  0  0  0  0  0  0  0  0  0  0  0
  148.0122  138.5665  155.6924 C   0  0  0  0  0  0  0  0  0  0  0  0
  148.2283  137.7403  156.7496 N   0  0  0  0  0  0  0  0  0  0  0  0
  149.0858  138.0799  157.7156 C   0  0  0  0  0  0  0  0  0  0  0  0
  149.8251  139.1839  157.8220 N   0  0  0  0  0  0  0  0  0  0  0  0
  149.6145  140.0235  156.7687 C   0  0  0  0  0  0  0  0  0  0  0  0
  148.7295  139.8010  155.6732 C   0  0  0  0  0  0  0  0  0  0  0  0
  148.7688  140.8989  154.8192 N   0  0  0  0  0  0  0  0  0  0  0  0
  149.6255  141.7130  155.3714 C   0  0  0  0  0  0  0  0  0  0  0  0
  150.2030  141.2534  156.5319 N   0  0  0  0  0  0  0  0  0  0  0  0
  151.1407  141.9507  157.3625 C   0  0  0  0  0  0  0  0  0  0  0  0
  150.7583  142.4395  158.7640 C   0  0  0  0  0  0  0  0  0  0  0  0
  151.6986  143.6537  158.5825 C   0  0  0  0  0  0  0  0  0  0  0  0
  151.1994  145.0022  159.1385 C   0  0  0  0  0  0  0  0  0  0  0  0
  149.7901  145.0648  159.2296 O   0  0  0  0  0  0  0  0  0  0  0  0
  153.1221  143.4349  159.1298 C   0  0  0  0  0  0  0  0  0  0  0  0
  153.1113  143.1804  160.5201 O   0  0  0  0  0  0  0  0  0  0  0  0
  151.5254  143.4031  157.0664 C   0  0  0  0  0  0  0  0  0  0  0  0
  147.8288  136.2835  154.1773 H   0  0  0  0  0  0  0  0  0  0  0  0
  144.9823  136.7809  153.3235 H   0  0  0  0  0  0  0  0  0  0  0  0
  145.8627  135.0210  155.2815 H   0  0  0  0  0  0  0  0  0  0  0  0
  145.1905  136.5662  155.7645 H   0  0  0  0  0  0  0  0  0  0  0  0
  146.7128  136.0195  156.4410 H   0  0  0  0  0  0  0  0  0  0  0  0
  144.5409  135.8269  150.9213 H   0  0  0  0  0  0  0  0  0  0  0  0
  145.9608  135.3220  149.9986 H   0  0  0  0  0  0  0  0  0  0  0  0
  145.7595  136.9938  150.4121 H   0  0  0  0  0  0  0  0  0  0  0  0
  146.7052  134.2252  153.5067 H   0  0  0  0  0  0  0  0  0  0  0  0
  145.1122  134.1864  152.7859 H   0  0  0  0  0  0  0  0  0  0  0  0
  146.0760  132.3837  151.6959 H   0  0  0  0  0  0  0  0  0  0  0  0
  146.6553  133.5783  150.5699 H   0  0  0  0  0  0  0  0  0  0  0  0
  148.4353  132.5215  151.2125 H   0  0  0  0  0  0  0  0  0  0  0  0
  147.2709  138.2146  151.9424 H   0  0  0  0  0  0  0  0  0  0  0  0
  145.5572  138.6349  151.8969 H   0  0  0  0  0  0  0  0  0  0  0  0
  147.2165  139.9252  153.5670 H   0  0  0  0  0  0  0  0  0  0  0  0
  145.6158  139.4546  154.1594 H   0  0  0  0  0  0  0  0  0  0  0  0
  149.1967  137.3639  158.5164 H   0  0  0  0  0  0  0  0  0  0  0  0
  149.8626  142.6748  154.9405 H   0  0  0  0  0  0  0  0  0  0  0  0
  152.0301  141.3196  157.4040 H   0  0  0  0  0  0  0  0  0  0  0  0
  149.7032  142.7076  158.8357 H   0  0  0  0  0  0  0  0  0  0  0  0
  151.0389  141.7592  159.5687 H   0  0  0  0  0  0  0  0  0  0  0  0
  151.6066  145.1861  160.1331 H   0  0  0  0  0  0  0  0  0  0  0  0
  151.5232  145.8307  158.5080 H   0  0  0  0  0  0  0  0  0  0  0  0
  149.4478  145.3508  158.3965 H   0  0  0  0  0  0  0  0  0  0  0  0
  153.6125  142.6016  158.6251 H   0  0  0  0  0  0  0  0  0  0  0  0
  153.7522  144.3075  158.9569 H   0  0  0  0  0  0  0  0  0  0  0  0
  152.6028  142.4000  160.6792 H   0  0  0  0  0  0  0  0  0  0  0  0
  152.4330  143.5133  156.4722 H   0  0  0  0  0  0  0  0  0  0  0  0
  150.7026  143.9647  156.6212 H   0  0  0  0  0  0  0  0  0  0  0  0
  147.3256  135.8433  151.8528 H   0  0  0  0  0  0  0  0  0  0  0  0
  1  2  1  0  0  0  0
  1 31  1  0  0  0  0
  1 32  1  0  0  0  0
  1 33  1  0  0  0  0
  2 29  1  0  0  0  0
  2 11  1  0  0  0  0
  2  3  1  0  0  0  0
  3 30  1  0  0  0  0
  3  4  1  0  0  0  0
  3  9  1  0  0  0  0
  4  5  1  0  0  0  0
  4  6  1  0  0  0  0
  4 59  1  0  0  0  0
  5 34  1  0  0  0  0
  5 35  1  0  0  0  0
  5 36  1  0  0  0  0
  6  7  1  0  0  0  0
  6 37  1  0  0  0  0
  6 38  1  0  0  0  0
  7  8  1  0  0  0  0
  7 39  1  0  0  0  0
  7 40  1  0  0  0  0
  8 41  1  0  0  0  0
  9 10  1  0  0  0  0
  9 42  1  0  0  0  0
  9 43  1  0  0  0  0
 10 11  1  0  0  0  0
 10 44  1  0  0  0  0
 10 45  1  0  0  0  0
 11 12  1  0  0  0  0
 12 17  1  0  0  0  0
 12 13  2  0  0  0  0
 13 14  1  0  0  0  0
 14 15  2  0  0  0  0
 14 46  1  0  0  0  0
 15 16  1  0  0  0  0
 16 20  1  0  0  0  0
 16 17  2  0  0  0  0
 17 18  1  0  0  0  0
 18 19  2  0  0  0  0
 19 20  1  0  0  0  0
 19 47  1  0  0  0  0
 20 21  1  0  0  0  0
 21 28  1  0  0  0  0
 21 22  1  0  0  0  0
 21 48  1  0  0  0  0
 22 23  1  0  0  0  0
 22 49  1  0  0  0  0
 22 50  1  0  0  0  0
 23 24  1  0  0  0  0
 23 26  1  0  0  0  0
 23 28  1  0  0  0  0
 24 25  1  0  0  0  0
 24 51  1  0  0  0  0
 24 52  1  0  0  0  0
 25 53  1  0  0  0  0
 26 27  1  0  0  0  0
 26 54  1  0  0  0  0
 26 55  1  0  0  0  0
 27 56  1  0  0  0  0
 28 57  1  0  0  0  0
 28 58  1  0  0  0  0
M  CHG  1   4   1
M  END
> <s_m_source_file>
AV-unprocessed.smi

> <i_m_source_file_index>
215

> <i_lp_mmshare_version>
43012

> <i_f3d_flags>
0

> <s_epik_input>
W09IXVtDSDJdW0NIMl1OKFtDSDNdKVtDQEBIXShbQ0BIXTFbQ0gzXSlbQ0gyXVtDSDJdTjFjKG5bY0hdbjIpYyhjMjMpbltjSF1uM1tDSF0oW0NIMl00KVtDSDJdQzQoW0NIMl1bT0hdKVtDSDJdW09IXQ==

> <s_epik_cmdline>
J2VwaWtfcHl0aG9uJywgJy1waCcsICc3LjAnLCAnLXRuJywgJzgnLCAnLW1hJywgJzIwMCcsICctbWV0YWxfYmluZGluZycsICctaW1hZScsICc8aW5maWxlLm1hZT4nLCAnLW9tYWUnLCAnPG91dGZpbGUubWFlPic=

> <r_lp_tautomer_probability>
1

> <r_epik_Ionization_Penalty>
0.0036237

> <r_epik_Ionization_Penalty_Charging>
0.0032725

> <r_epik_Ionization_Penalty_Neutral>
0.000351196

> <r_epik_State_Penalty>
-0

> <r_epik_Charging_Adjusted_Penalty>
0.0032725

> <i_epik_Tot_Q>
1

> <i_epik_Tot_abs_Q>
1

> <r_epik_Metal_State_Penalty>
-0

> <b_epik_Metal_Only>
0

> <s_lp_Force_Field>
OPLS_2005

> <r_lp_Energy>
68.3917

> <b_lp_Chiralities_Consistent>
1

> <s_lp_Variant>
AV-unprocessed.smi:215-2

> <Gold.Version>
5.8.1

> <Gold.Id.Protein>
6NUR|6NUR_protein|mol2

> <Gold.PLP.Fitness>
51.7424

> <Gold.PLP.PLP>
-38.9781

> <Gold.PLP.part.hbond>
-3.0000

> <Gold.PLP.part.metal>
0.0000

> <Gold.PLP.part.buried>
-5.7968

> <Gold.PLP.part.nonpolar>
-31.2442

> <Gold.PLP.part.repulsive>
0.1527

> <Gold.PLP.ligand.clash>
0.0000

> <Gold.PLP.ligand.torsion>
1.2100

> <Gold.PLP.Chemscore.Hbond>
3.9920

> <Gold.PLP.Chemscore.CHOScore>
0.8747

> <Gold.PLP.Chemscore.Metal>
0.0000

> <Gold.Chemscore.Hbonds>
donor molecule, donor type, donor heavy atom, donor atom, acceptor molecule, acceptor atom, score
      L1  H     4    59       P1  7948  2.00
      L1  H     8    41       P1 10747  0.98
      L1  H    25    53       P1  8029  1.00
      L1  C    19    47       P1  8028  0.89

> <Gold.PLP.Chemscore.Internal.Correction>
0.5844

> <Gold.Rescore>
     Score         DG    S(hbond)    S(metal)    S(lipo)     H(rot)  DE(clash)    DE(int)     intcor
     11.60     -14.89       2.94        0.00      94.39       4.48       0.06       3.23       ----

> <Gold.Chemscore.Fitness>
11.5978

> <Gold.Chemscore.DG>
-14.8881

> <Gold.Chemscore.ZeroCoef>
-5.4800

> <Gold.Chemscore.Hbond>
2.9430

> <Gold.Chemscore.Metal>
0.0000

> <Gold.Chemscore.Lipo>
94.3920

> <Gold.Chemscore.Internal_Hbond>
0.0000

> <Gold.Chemscore.DEClash>
0.0591

> <Gold.Chemscore.DEInternal>
3.2312

> <Gold.Chemscore.Rot>
4.4787

> <Gold.Chemscore.Internal.Correction>
   9.000000E+99

> <Gold.Chemscore.Hbonds>
donor molecule, donor type, donor heavy atom, donor atom, acceptor molecule, acceptor atom, score
      L1  H     4    59       P1  7948  1.00
      L1  H     8    41       P1 10747  0.92
      L1  H    25    53       P1  8029  0.69

> <Gold.Chemscore.Hbond.Weighted>
-9.8297

> <Gold.Chemscore.Metal.Weighted>
-0.0000

> <Gold.Chemscore.Lipo.Weighted>
-11.0439

> <Gold.Chemscore.Internal_Hbond.Weighted>
0.0000

> <Gold.Chemscore.DEClash.Weighted>
0.0591

> <Gold.Chemscore.DEInternal.Weighted>
3.2312

> <Gold.Chemscore.Rot.Weighted>
11.4655

> <Gold.Chemscore.Internal.Correction.Weighted>
   9.000000E+99

> <Gold.Protein.RotatedTorsions>
[ 6907 6896 6895 6894 ] final   34.62 input  -60.11 | X-H torsion
[ 7974 7965 7964 7962 ] final  140.83 input  175.53 | X-H torsion
[ 8008 7997 7996 7995 ] final  124.68 input   59.86 | X-H torsion
[ 10167 10162 10161 10158 ] final   65.33 input  -65.29 | X-H torsion
[ 10718 10713 10712 10709 ] final   41.65 input   66.30 | X-H torsion
[ 10763 10752 10751 10750 ] final    1.86 input  -60.55 | X-H torsion
[ 11005 11000 10999 10996 ] final   40.60 input  -57.11 | X-H torsion

> <Gold.Protein.ActiveResidues>
 VAL166  LYS551  ARG553  GLY616  TRP617  ASP618  TYR619  PRO620  LYS621  CYS622 
 ASP623  PHE694  ASN695  SER759  ASP760  ASP761  ALA762  ILE779  LEU786  VAL792 
 PHE793  MET794  SER795  GLU796  ALA797  LYS798  CYS799  TRP800  GLU811  SER814 

> <Gold.Protein.RotatedAtoms>
  152.1049  134.9315  160.0568 H   0  0  0  0  0  0  0  0  0  0  0  0  # atno 6907 bound_to 6896
  152.0515  133.4016  159.4387 H   0  0  0  0  0  0  0  0  0  0  0  0  # atno 6908 bound_to 6896
  150.6841  134.3223  159.4835 H   0  0  0  0  0  0  0  0  0  0  0  0  # atno 6909 bound_to 6896
  144.9151  139.5241  143.5690 H   0  0  0  0  0  0  0  0  0  0  0  0  # atno 7974 bound_to 7965
  156.2809  140.2734  156.1827 H   0  0  0  0  0  0  0  0  0  0  0  0  # atno 8008 bound_to 7997
  155.0540  140.0386  157.2571 H   0  0  0  0  0  0  0  0  0  0  0  0  # atno 8009 bound_to 7997
  154.7172  140.2680  155.6580 H   0  0  0  0  0  0  0  0  0  0  0  0  # atno 8010 bound_to 7997
  140.1125  144.4805  150.6969 H   0  0  0  0  0  0  0  0  0  0  0  0  # atno 10167 bound_to 10162
  157.3960  130.7833  149.7309 H   0  0  0  0  0  0  0  0  0  0  0  0  # atno 10718 bound_to 10713
  153.3027  135.6957  153.7188 H   0  0  0  0  0  0  0  0  0  0  0  0  # atno 10763 bound_to 10752
  153.6096  135.3447  155.2974 H   0  0  0  0  0  0  0  0  0  0  0  0  # atno 10764 bound_to 10752
  154.8555  135.4360  154.2143 H   0  0  0  0  0  0  0  0  0  0  0  0  # atno 10765 bound_to 10752
  140.1915  134.3981  155.8144 H   0  0  0  0  0  0  0  0  0  0  0  0  # atno 11005 bound_to 11000
  146.3178  139.7988  142.8970 LP  0  0  0  0  0  0  0  0  0  0  0  0  # atno 17320 bound_to 7965
  145.3388  141.0283  143.3404 LP  0  0  0  0  0  0  0  0  0  0  0  0  # atno 17321 bound_to 7965
  140.6918  143.2380  151.5111 LP  0  0  0  0  0  0  0  0  0  0  0  0  # atno 17342 bound_to 10162
  139.5611  144.2153  152.1693 LP  0  0  0  0  0  0  0  0  0  0  0  0  # atno 17343 bound_to 10162
  155.9810  130.4023  150.3493 LP  0  0  0  0  0  0  0  0  0  0  0  0  # atno 17370 bound_to 10713
  157.1615  131.0346  151.2838 LP  0  0  0  0  0  0  0  0  0  0  0  0  # atno 17371 bound_to 10713
  141.2226  133.7048  156.8103 LP  0  0  0  0  0  0  0  0  0  0  0  0  # atno 17394 bound_to 11000
  140.2155  134.8796  157.3320 LP  0  0  0  0  0  0  0  0  0  0  0  0  # atno 17395 bound_to 11000

$$$$
