AV-unprocessed.smi:2206|AV-procd|sdf|8942|dock1
  -GOLD-   2272012163D 1   1.00000     0.00000
 Structure written by MMmdl.
 26 27  0  0  0  0  0  0  0  0  2 V2000
  152.7957  139.6815  156.7242 O   0  0  0  0  0  0  0  0  0  0  0  0
  151.9231  139.8519  155.8442 C   0  0  0  0  0  0  0  0  0  0  0  0
  151.9146  139.3165  154.7139 O   0  5  0  0  0  0  0  0  0  0  0  0
  150.7638  140.7919  156.1806 C   0  0  0  0  0  0  0  0  0  0  0  0
  149.7466  140.6859  155.0814 C   0  0  0  0  0  0  0  0  0  0  0  0
  149.1218  141.7211  154.4284 C   0  0  0  0  0  0  0  0  0  0  0  0
  148.0087  141.1521  153.2128 S   0  0  0  0  0  0  0  0  0  0  0  0
  148.4268  139.5036  153.6533 C   0  0  0  0  0  0  0  0  0  0  0  0
  147.8441  138.3805  152.9983 N   0  0  0  0  0  0  0  0  0  0  0  0
  146.5563  137.9855  152.9009 C   0  0  0  0  0  0  0  0  0  0  0  0
  145.6537  138.6223  153.4424 O   0  0  0  0  0  0  0  0  0  0  0  0
  146.3387  136.8609  152.2001 N   0  0  0  0  0  0  0  0  0  0  0  0
  145.0738  136.2452  151.9687 C   0  0  0  0  0  0  0  0  0  0  0  0
  144.9631  134.7582  152.2288 C   0  0  0  0  0  0  0  0  0  0  0  0
  144.9735  135.2704  150.8155 C   0  0  0  0  0  0  0  0  0  0  0  0
  149.3560  139.4277  154.6125 N   0  0  0  0  0  0  0  0  0  0  0  0
  150.3328  140.5144  157.1434 H   0  0  0  0  0  0  0  0  0  0  0  0
  151.1326  141.8137  156.2801 H   0  0  0  0  0  0  0  0  0  0  0  0
  149.2473  142.7806  154.5944 H   0  0  0  0  0  0  0  0  0  0  0  0
  148.5077  137.7731  152.5404 H   0  0  0  0  0  0  0  0  0  0  0  0
  147.1436  136.4037  151.7943 H   0  0  0  0  0  0  0  0  0  0  0  0
  144.1830  136.8350  152.1798 H   0  0  0  0  0  0  0  0  0  0  0  0
  145.8513  134.2335  152.5769 H   0  0  0  0  0  0  0  0  0  0  0  0
  144.0189  134.3858  152.6207 H   0  0  0  0  0  0  0  0  0  0  0  0
  144.0364  135.2408  150.2634 H   0  0  0  0  0  0  0  0  0  0  0  0
  145.8688  135.0886  150.2232 H   0  0  0  0  0  0  0  0  0  0  0  0
  1  2  2  0  0  0  0
  2  3  1  0  0  0  0
  2  4  1  0  0  0  0
  4  5  1  0  0  0  0
  4 17  1  0  0  0  0
  4 18  1  0  0  0  0
  5 16  1  0  0  0  0
  5  6  2  0  0  0  0
  6  7  1  0  0  0  0
  6 19  1  0  0  0  0
  7  8  1  0  0  0  0
  8  9  1  0  0  0  0
  8 16  2  0  0  0  0
  9 10  1  0  0  0  0
  9 20  1  0  0  0  0
 10 11  2  0  0  0  0
 10 12  1  0  0  0  0
 12 13  1  0  0  0  0
 12 21  1  0  0  0  0
 13 15  1  0  0  0  0
 13 14  1  0  0  0  0
 13 22  1  0  0  0  0
 14 15  1  0  0  0  0
 14 23  1  0  0  0  0
 14 24  1  0  0  0  0
 15 25  1  0  0  0  0
 15 26  1  0  0  0  0
M  CHG  1   3  -1
M  END
> <s_m_source_file>
AV-unprocessed.smi

> <i_m_source_file_index>
2206

> <i_lp_mmshare_version>
43012

> <i_f3d_flags>
0

> <s_epik_input>
Tz1DKFtPSF0pW0NIMl1jMVtjSF1zYyhuMSlbTkhdQyg9TylbTkhdW0NIXTJbQ0gyXVtDSDJdMg==

> <s_epik_cmdline>
J2VwaWtfcHl0aG9uJywgJy1waCcsICc3LjAnLCAnLXRuJywgJzgnLCAnLW1hJywgJzIwMCcsICctbWV0YWxfYmluZGluZycsICctaW1hZScsICc8aW5maWxlLm1hZT4nLCAnLW9tYWUnLCAnPG91dGZpbGUubWFlPic=

> <r_lp_tautomer_probability>
0.999

> <r_epik_Ionization_Penalty>
0.000960535

> <r_epik_Ionization_Penalty_Charging>
0.000722293

> <r_epik_Ionization_Penalty_Neutral>
0.000238243

> <r_epik_State_Penalty>
0.000460635

> <r_epik_Charging_Adjusted_Penalty>
0.00118293

> <i_epik_Tot_Q>
-1

> <i_epik_Tot_abs_Q>
1

> <r_epik_Metal_State_Penalty>
0.0174946

> <b_epik_Metal_Only>
0

> <s_lp_Force_Field>
OPLS_2005

> <r_lp_Energy>
19.4031

> <b_lp_Chiralities_Consistent>
1

> <s_lp_Variant>
AV-unprocessed.smi:2206-1

> <Gold.Version>
5.8.1

> <Gold.Id.Protein>
6NUR|6NUR_protein|mol2

> <Gold.PLP.Fitness>
42.1833

> <Gold.PLP.PLP>
-26.3463

> <Gold.PLP.part.hbond>
-4.5891

> <Gold.PLP.part.metal>
0.0000

> <Gold.PLP.part.buried>
-1.6881

> <Gold.PLP.part.nonpolar>
-21.4461

> <Gold.PLP.part.repulsive>
0.9966

> <Gold.PLP.ligand.clash>
0.0000

> <Gold.PLP.ligand.torsion>
0.9733

> <Gold.PLP.Chemscore.Hbond>
4.9120

> <Gold.PLP.Chemscore.CHOScore>
1.0000

> <Gold.PLP.Chemscore.Metal>
0.0000

> <Gold.Chemscore.Hbonds>
donor molecule, donor type, donor heavy atom, donor atom, acceptor molecule, acceptor atom, score
      L1  H     9    20       P1  7948  1.00
      L1  H    12    21       P1  7948  0.93
      P1  H  7989  7998       L1     3  0.98
      P1  H  7997  8008       L1     1  2.00
      L1  C     6    19       P1  8028  1.00

> <Gold.PLP.Chemscore.Internal.Correction>
0.0477

> <Gold.Rescore>
     Score         DG    S(hbond)    S(metal)    S(lipo)     H(rot)  DE(clash)    DE(int)     intcor
     15.75     -18.06       3.85        0.00      40.36       1.95       0.00       2.31       ----

> <Gold.Chemscore.Fitness>
15.7535

> <Gold.Chemscore.DG>
-18.0642

> <Gold.Chemscore.ZeroCoef>
-5.4800

> <Gold.Chemscore.Hbond>
3.8510

> <Gold.Chemscore.Metal>
0.0000

> <Gold.Chemscore.Lipo>
40.3550

> <Gold.Chemscore.Internal_Hbond>
0.0000

> <Gold.Chemscore.DEClash>
0.0025

> <Gold.Chemscore.DEInternal>
2.3081

> <Gold.Chemscore.Rot>
1.9530

> <Gold.Chemscore.Internal.Correction>
   9.000000E+99

> <Gold.Chemscore.Hbonds>
donor molecule, donor type, donor heavy atom, donor atom, acceptor molecule, acceptor atom, score
      L1  H     9    20       P1  7948  0.97
      L1  H    12    21       P1  7948  0.91
      P1  H  7989  7998       L1     3  0.36
      P1  H  7997  8008       L1     1  0.97

> <Gold.Chemscore.Hbond.Weighted>
-12.8623

> <Gold.Chemscore.Metal.Weighted>
-0.0000

> <Gold.Chemscore.Lipo.Weighted>
-4.7215

> <Gold.Chemscore.Internal_Hbond.Weighted>
0.0000

> <Gold.Chemscore.DEClash.Weighted>
0.0025

> <Gold.Chemscore.DEInternal.Weighted>
2.3081

> <Gold.Chemscore.Rot.Weighted>
4.9996

> <Gold.Chemscore.Internal.Correction.Weighted>
   9.000000E+99

> <Gold.Protein.RotatedTorsions>
[ 6907 6896 6895 6894 ] final   11.28 input  -60.11 | X-H torsion
[ 7974 7965 7964 7962 ] final  -32.87 input  175.53 | X-H torsion
[ 8008 7997 7996 7995 ] final  -47.82 input   59.86 | X-H torsion
[ 10167 10162 10161 10158 ] final  -38.92 input  -65.29 | X-H torsion
[ 10718 10713 10712 10709 ] final -153.76 input   66.30 | X-H torsion
[ 10763 10752 10751 10750 ] final -113.17 input  -60.55 | X-H torsion
[ 11005 11000 10999 10996 ] final  -13.18 input  -57.11 | X-H torsion

> <Gold.Protein.ActiveResidues>
 VAL166  LYS551  ARG553  GLY616  TRP617  ASP618  TYR619  PRO620  LYS621  CYS622 
 ASP623  PHE694  ASN695  SER759  ASP760  ASP761  ALA762  ILE779  LEU786  VAL792 
 PHE793  MET794  SER795  GLU796  ALA797  LYS798  CYS799  TRP800  GLU811  SER814 

> <Gold.Protein.RotatedAtoms>
  151.7518  135.0831  160.0331 H   0  0  0  0  0  0  0  0  0  0  0  0  # atno 6907 bound_to 6896
  152.3412  133.6064  159.5886 H   0  0  0  0  0  0  0  0  0  0  0  0  # atno 6908 bound_to 6896
  150.7480  133.9636  159.3565 H   0  0  0  0  0  0  0  0  0  0  0  0  # atno 6909 bound_to 6896
  146.0956  140.5846  142.8844 H   0  0  0  0  0  0  0  0  0  0  0  0  # atno 7974 bound_to 7965
  154.4021  140.1337  156.4238 H   0  0  0  0  0  0  0  0  0  0  0  0  # atno 8008 bound_to 7997
  155.7617  140.3486  155.5181 H   0  0  0  0  0  0  0  0  0  0  0  0  # atno 8009 bound_to 7997
  155.8853  140.0994  157.1447 H   0  0  0  0  0  0  0  0  0  0  0  0  # atno 8010 bound_to 7997
  140.7079  143.3247  151.2709 H   0  0  0  0  0  0  0  0  0  0  0  0  # atno 10167 bound_to 10162
  156.4902  130.8344  151.2567 H   0  0  0  0  0  0  0  0  0  0  0  0  # atno 10718 bound_to 10713
  154.8384  135.4464  154.1308 H   0  0  0  0  0  0  0  0  0  0  0  0  # atno 10763 bound_to 10752
  153.2519  135.6927  153.7676 H   0  0  0  0  0  0  0  0  0  0  0  0  # atno 10764 bound_to 10752
  153.6986  135.3375  155.3195 H   0  0  0  0  0  0  0  0  0  0  0  0  # atno 10765 bound_to 10752
  140.7734  133.8420  155.9227 H   0  0  0  0  0  0  0  0  0  0  0  0  # atno 11005 bound_to 11000
  144.7393  140.4896  143.6881 LP  0  0  0  0  0  0  0  0  0  0  0  0  # atno 17320 bound_to 7965
  145.5955  139.1499  143.3158 LP  0  0  0  0  0  0  0  0  0  0  0  0  # atno 17321 bound_to 7965
  139.6711  144.0018  152.2753 LP  0  0  0  0  0  0  0  0  0  0  0  0  # atno 17342 bound_to 10162
  139.9617  144.6553  150.8073 LP  0  0  0  0  0  0  0  0  0  0  0  0  # atno 17343 bound_to 10162
  157.7474  131.0016  150.2969 LP  0  0  0  0  0  0  0  0  0  0  0  0  # atno 17370 bound_to 10713
  156.3434  130.3819  149.7390 LP  0  0  0  0  0  0  0  0  0  0  0  0  # atno 17371 bound_to 10713
  140.9552  134.1727  157.4697 LP  0  0  0  0  0  0  0  0  0  0  0  0  # atno 17394 bound_to 11000
  139.8752  134.9924  156.5596 LP  0  0  0  0  0  0  0  0  0  0  0  0  # atno 17395 bound_to 11000

$$$$
