AV-unprocessed.smi:1600|AV-procd|sdf|6428|dock2
  -GOLD-   22720 7 73D 1   1.00000     0.00000
 Structure written by MMmdl.
 46 47  0  0  0  0  0  0  0  0  2 V2000
  149.1240  142.1013  155.5391 C   0  0  0  0  0  0  0  0  0  0  0  0
  149.5448  140.6954  155.2279 C   0  0  0  0  0  0  0  0  0  0  0  0
  148.7178  139.5906  154.8721 C   0  0  0  0  0  0  0  0  0  0  0  0
  149.6229  138.5777  154.7070 C   0  0  0  0  0  0  0  0  0  0  0  0
  149.4014  137.2820  154.3592 N   0  0  0  0  0  0  0  0  0  0  0  0
  149.2361  136.2158  155.1615 C   0  0  0  0  0  0  0  0  0  0  0  0
  149.2437  136.2395  156.3925 O   0  0  0  0  0  0  0  0  0  0  0  0
  149.0759  135.0917  154.4479 N   0  0  0  0  0  0  0  0  0  0  0  0
  148.8719  133.7561  155.0057 C   0  0  0  0  0  0  0  0  0  0  0  0
  148.7656  132.6463  153.9367 C   0  0  1  0  0  0  0  0  0  0  0  0
  148.5073  131.2365  154.4675 C   0  0  0  0  0  0  0  0  0  0  0  0
  147.9221  130.4769  153.2683 C   0  0  0  0  0  0  0  0  0  0  0  0
  147.5403  131.4878  152.2484 N   0  3  1  0  0  0  0  0  0  0  0  0
  146.2526  131.2234  151.5456 C   0  0  0  0  0  0  0  0  0  0  0  0
  146.0609  129.7166  151.2903 C   0  0  0  0  0  0  0  0  0  0  0  0
  146.1619  131.9859  150.2098 C   0  0  0  0  0  0  0  0  0  0  0  0
  147.6534  132.8110  152.8996 C   0  0  0  0  0  0  0  0  0  0  0  0
  150.8874  139.0675  154.9467 N   0  0  0  0  0  0  0  0  0  0  0  0
  152.1652  138.3844  154.8941 C   0  0  0  0  0  0  0  0  0  0  0  0
  150.8337  140.3771  155.2719 N   0  0  0  0  0  0  0  0  0  0  0  0
  148.0660  142.2522  155.3238 H   0  0  0  0  0  0  0  0  0  0  0  0
  149.6881  142.8221  154.9466 H   0  0  0  0  0  0  0  0  0  0  0  0
  149.2845  142.3341  156.5919 H   0  0  0  0  0  0  0  0  0  0  0  0
  147.6445  139.5691  154.7603 H   0  0  0  0  0  0  0  0  0  0  0  0
  149.3834  137.1008  153.3664 H   0  0  0  0  0  0  0  0  0  0  0  0
  149.0821  135.1653  153.4407 H   0  0  0  0  0  0  0  0  0  0  0  0
  149.6630  133.5123  155.7167 H   0  0  0  0  0  0  0  0  0  0  0  0
  147.9497  133.7819  155.5865 H   0  0  0  0  0  0  0  0  0  0  0  0
  149.7125  132.6235  153.3945 H   0  0  0  0  0  0  0  0  0  0  0  0
  149.4106  130.7676  154.8594 H   0  0  0  0  0  0  0  0  0  0  0  0
  147.7711  131.2551  155.2719 H   0  0  0  0  0  0  0  0  0  0  0  0
  148.6561  129.7972  152.8345 H   0  0  0  0  0  0  0  0  0  0  0  0
  147.0682  129.8803  153.5927 H   0  0  0  0  0  0  0  0  0  0  0  0
  145.4398  131.5701  152.1858 H   0  0  0  0  0  0  0  0  0  0  0  0
  145.1240  129.5259  150.7658 H   0  0  0  0  0  0  0  0  0  0  0  0
  146.0277  129.1423  152.2159 H   0  0  0  0  0  0  0  0  0  0  0  0
  146.8686  129.3140  150.6782 H   0  0  0  0  0  0  0  0  0  0  0  0
  145.2357  131.7457  149.6865 H   0  0  0  0  0  0  0  0  0  0  0  0
  146.9899  131.7287  149.5485 H   0  0  0  0  0  0  0  0  0  0  0  0
  146.1692  133.0663  150.3530 H   0  0  0  0  0  0  0  0  0  0  0  0
  146.7042  133.0466  153.3811 H   0  0  0  0  0  0  0  0  0  0  0  0
  147.8776  133.6007  152.1820 H   0  0  0  0  0  0  0  0  0  0  0  0
  152.1612  137.5455  155.5904 H   0  0  0  0  0  0  0  0  0  0  0  0
  152.9756  139.0633  155.1629 H   0  0  0  0  0  0  0  0  0  0  0  0
  152.3384  138.0102  153.8850 H   0  0  0  0  0  0  0  0  0  0  0  0
  148.2681  131.4653  151.5484 H   0  0  0  0  0  0  0  0  0  0  0  0
  1  2  1  0  0  0  0
  1 21  1  0  0  0  0
  1 22  1  0  0  0  0
  1 23  1  0  0  0  0
  2 20  2  0  0  0  0
  2  3  1  0  0  0  0
  3  4  2  0  0  0  0
  3 24  1  0  0  0  0
  4  5  1  0  0  0  0
  4 18  1  0  0  0  0
  5  6  1  0  0  0  0
  5 25  1  0  0  0  0
  6  7  2  0  0  0  0
  6  8  1  0  0  0  0
  8  9  1  0  0  0  0
  8 26  1  0  0  0  0
  9 10  1  0  0  0  0
  9 27  1  0  0  0  0
  9 28  1  0  0  0  0
 10 17  1  0  0  0  0
 10 11  1  0  0  0  0
 10 29  1  0  0  0  0
 11 12  1  0  0  0  0
 11 30  1  0  0  0  0
 11 31  1  0  0  0  0
 12 13  1  0  0  0  0
 12 32  1  0  0  0  0
 12 33  1  0  0  0  0
 13 14  1  0  0  0  0
 13 17  1  0  0  0  0
 13 46  1  0  0  0  0
 14 15  1  0  0  0  0
 14 16  1  0  0  0  0
 14 34  1  0  0  0  0
 15 35  1  0  0  0  0
 15 36  1  0  0  0  0
 15 37  1  0  0  0  0
 16 38  1  0  0  0  0
 16 39  1  0  0  0  0
 16 40  1  0  0  0  0
 17 41  1  0  0  0  0
 17 42  1  0  0  0  0
 18 19  1  0  0  0  0
 18 20  1  0  0  0  0
 19 43  1  0  0  0  0
 19 44  1  0  0  0  0
 19 45  1  0  0  0  0
M  CHG  1  13   1
M  END
> <s_m_source_file>
AV-unprocessed.smi

> <i_m_source_file_index>
1600

> <i_lp_mmshare_version>
43012

> <i_f3d_flags>
0

> <s_epik_input>
W0NIM11jMVtjSF1jKG4objEpW0NIM10pW05IXUMoPU8pW05IXVtDSDJdW0NAQEhdMltDSDJdW0NIMl1OKFtDSDJdMilbQ0hdKFtDSDNdKVtDSDNd

> <s_epik_cmdline>
J2VwaWtfcHl0aG9uJywgJy1waCcsICc3LjAnLCAnLXRuJywgJzgnLCAnLW1hJywgJzIwMCcsICctbWV0YWxfYmluZGluZycsICctaW1hZScsICc8aW5maWxlLm1hZT4nLCAnLW9tYWUnLCAnPG91dGZpbGUubWFlPic=

> <r_lp_tautomer_probability>
1

> <r_epik_Ionization_Penalty>
0.000297652

> <r_epik_Ionization_Penalty_Charging>
0.000213653

> <r_epik_Ionization_Penalty_Neutral>
8.3999e-05

> <r_epik_State_Penalty>
-0

> <r_epik_Charging_Adjusted_Penalty>
0.000213653

> <i_epik_Tot_Q>
1

> <i_epik_Tot_abs_Q>
1

> <r_epik_Metal_State_Penalty>
-0

> <b_epik_Metal_Only>
0

> <s_lp_Force_Field>
OPLS_2005

> <r_lp_Energy>
33.4544

> <b_lp_Chiralities_Consistent>
1

> <s_lp_Variant>
AV-unprocessed.smi:1600-2

> <Gold.Version>
5.8.1

> <Gold.Id.Protein>
6NUR|6NUR_protein|mol2

> <Gold.PLP.Fitness>
47.7535

> <Gold.PLP.PLP>
-39.2381

> <Gold.PLP.part.hbond>
-4.0497

> <Gold.PLP.part.metal>
0.0000

> <Gold.PLP.part.buried>
-2.5091

> <Gold.PLP.part.nonpolar>
-32.9837

> <Gold.PLP.part.repulsive>
0.1344

> <Gold.PLP.ligand.clash>
0.0000

> <Gold.PLP.ligand.torsion>
1.0913

> <Gold.PLP.Chemscore.Hbond>
3.5525

> <Gold.PLP.Chemscore.CHOScore>
0.0000

> <Gold.PLP.Chemscore.Metal>
0.0000

> <Gold.Chemscore.Hbonds>
donor molecule, donor type, donor heavy atom, donor atom, acceptor molecule, acceptor atom, score
      L1  H     5    25       P1  7948  1.00
      L1  H     8    26       P1  7948  1.00
      L1  H    13    46       P1 10747  1.00
      P1  H  7989  7998       L1    20  0.55

> <Gold.PLP.Chemscore.Internal.Correction>
0.0405

> <Gold.Rescore>
     Score         DG    S(hbond)    S(metal)    S(lipo)     H(rot)  DE(clash)    DE(int)     intcor
     17.68     -19.05       2.24        0.00      83.54       1.44       0.08       1.29       ----

> <Gold.Chemscore.Fitness>
17.6839

> <Gold.Chemscore.DG>
-19.0494

> <Gold.Chemscore.ZeroCoef>
-5.4800

> <Gold.Chemscore.Hbond>
2.2378

> <Gold.Chemscore.Metal>
0.0000

> <Gold.Chemscore.Lipo>
83.5359

> <Gold.Chemscore.Internal_Hbond>
0.0000

> <Gold.Chemscore.DEClash>
0.0798

> <Gold.Chemscore.DEInternal>
1.2856

> <Gold.Chemscore.Rot>
1.4369

> <Gold.Chemscore.Internal.Correction>
   9.000000E+99

> <Gold.Chemscore.Hbonds>
donor molecule, donor type, donor heavy atom, donor atom, acceptor molecule, acceptor atom, score
      L1  H     5    25       P1  7948  0.94
      L1  H     8    26       P1  7948  0.33
      L1  H    13    46       P1 10747  0.95
      P1  H  7989  7998       L1    20  0.02

> <Gold.Chemscore.Hbond.Weighted>
-7.4742

> <Gold.Chemscore.Metal.Weighted>
-0.0000

> <Gold.Chemscore.Lipo.Weighted>
-9.7737

> <Gold.Chemscore.Internal_Hbond.Weighted>
0.0000

> <Gold.Chemscore.DEClash.Weighted>
0.0798

> <Gold.Chemscore.DEInternal.Weighted>
1.2856

> <Gold.Chemscore.Rot.Weighted>
3.6785

> <Gold.Chemscore.Internal.Correction.Weighted>
   9.000000E+99

> <Gold.Protein.RotatedTorsions>
[ 6907 6896 6895 6894 ] final   24.83 input  -60.11 | X-H torsion
[ 7974 7965 7964 7962 ] final    9.22 input  175.53 | X-H torsion
[ 8008 7997 7996 7995 ] final  -92.01 input   59.86 | X-H torsion
[ 10167 10162 10161 10158 ] final  167.56 input  -65.29 | X-H torsion
[ 10718 10713 10712 10709 ] final  163.89 input   66.30 | X-H torsion
[ 10763 10752 10751 10750 ] final  174.88 input  -60.55 | X-H torsion
[ 11005 11000 10999 10996 ] final  -89.54 input  -57.11 | X-H torsion

> <Gold.Protein.ActiveResidues>
 VAL166  LYS551  ARG553  GLY616  TRP617  ASP618  TYR619  PRO620  LYS621  CYS622 
 ASP623  PHE694  ASN695  SER759  ASP760  ASP761  ALA762  ILE779  LEU786  VAL792 
 PHE793  MET794  SER795  GLU796  ALA797  LYS798  CYS799  TRP800  GLU811  SER814 

> <Gold.Protein.RotatedAtoms>
  151.9634  135.0112  160.0548 H   0  0  0  0  0  0  0  0  0  0  0  0  # atno 6907 bound_to 6896
  152.1848  133.4728  159.4985 H   0  0  0  0  0  0  0  0  0  0  0  0  # atno 6908 bound_to 6896
  150.6924  134.1704  159.4253 H   0  0  0  0  0  0  0  0  0  0  0  0  # atno 6909 bound_to 6896
  146.2406  139.9815  142.8435 H   0  0  0  0  0  0  0  0  0  0  0  0  # atno 7974 bound_to 7965
  154.7179  140.0513  157.0611 H   0  0  0  0  0  0  0  0  0  0  0  0  # atno 8008 bound_to 7997
  155.0467  140.3174  155.4687 H   0  0  0  0  0  0  0  0  0  0  0  0  # atno 8009 bound_to 7997
  156.2808  140.2123  156.5592 H   0  0  0  0  0  0  0  0  0  0  0  0  # atno 8010 bound_to 7997
  139.4948  144.3908  151.9519 H   0  0  0  0  0  0  0  0  0  0  0  0  # atno 10167 bound_to 10162
  157.1021  131.0445  151.2493 H   0  0  0  0  0  0  0  0  0  0  0  0  # atno 10718 bound_to 10713
  154.4600  135.2767  155.1720 H   0  0  0  0  0  0  0  0  0  0  0  0  # atno 10763 bound_to 10752
  154.3512  135.6149  153.5647 H   0  0  0  0  0  0  0  0  0  0  0  0  # atno 10764 bound_to 10752
  152.9854  135.5812  154.4960 H   0  0  0  0  0  0  0  0  0  0  0  0  # atno 10765 bound_to 10752
  141.1583  133.7636  156.9609 H   0  0  0  0  0  0  0  0  0  0  0  0  # atno 11005 bound_to 11000
  145.1587  140.9661  143.4390 LP  0  0  0  0  0  0  0  0  0  0  0  0  # atno 17320 bound_to 7965
  145.0137  139.3487  143.6107 LP  0  0  0  0  0  0  0  0  0  0  0  0  # atno 17321 bound_to 7965
  140.3346  144.3276  150.5980 LP  0  0  0  0  0  0  0  0  0  0  0  0  # atno 17342 bound_to 10162
  140.5617  143.2191  151.7754 LP  0  0  0  0  0  0  0  0  0  0  0  0  # atno 17343 bound_to 10162
  157.4632  130.7665  149.7255 LP  0  0  0  0  0  0  0  0  0  0  0  0  # atno 17370 bound_to 10713
  155.9871  130.3969  150.3181 LP  0  0  0  0  0  0  0  0  0  0  0  0  # atno 17371 bound_to 10713
  140.1194  134.9427  157.2181 LP  0  0  0  0  0  0  0  0  0  0  0  0  # atno 17394 bound_to 11000
  140.3092  134.3043  155.7271 LP  0  0  0  0  0  0  0  0  0  0  0  0  # atno 17395 bound_to 11000

$$$$
