AV-unprocessed.smi:2749|AV-procd|sdf|10586|dock8
  -GOLD-   2272015 33D 1   1.00000     0.00000
 Structure written by MMmdl.
 32 34  0  0  0  0  0  0  0  0  1 V2000
  150.7707  140.8632  156.5643 O   0  0  0  0  0  0  0  0  0  0  0  0
  150.2615  141.9542  156.3147 C   0  0  0  0  0  0  0  0  0  0  0  0
  149.1954  142.0570  155.4928 N   0  0  0  0  0  0  0  0  0  0  0  0
  148.4548  141.0630  154.7879 C   0  0  0  0  0  0  0  0  0  0  0  0
  147.3848  141.5664  154.0132 C   0  0  0  0  0  0  0  0  0  0  0  0
  146.5910  140.6780  153.2615 C   0  0  0  0  0  0  0  0  0  0  0  0
  146.8929  139.3054  153.2994 C   0  0  0  0  0  0  0  0  0  0  0  0
  146.1592  138.4131  152.5932 F   0  0  0  0  0  0  0  0  0  0  0  0
  147.9779  138.8839  154.0894 C   0  0  0  0  0  0  0  0  0  0  0  0
  148.7377  139.7349  154.8111 N   0  0  0  0  0  0  0  0  0  0  0  0
  150.7268  143.1057  156.8239 N   0  0  0  0  0  0  0  0  0  0  0  0
  151.8397  143.2261  157.7599 C   0  0  1  0  0  0  0  0  0  0  0  0
  152.4694  144.6215  157.7197 C   0  0  0  0  0  0  0  0  0  0  0  0
  152.3058  145.0879  159.1724 C   0  0  1  0  0  0  0  0  0  0  0  0
  150.8456  145.4236  159.5075 C   0  0  0  0  0  0  0  0  0  0  0  0
  150.2179  144.0337  159.5975 C   0  0  0  0  0  0  0  0  0  0  0  0
  151.4090  143.1290  159.2384 C   0  0  2  0  0  0  0  0  0  0  0  0
  152.4579  143.8558  159.8562 O   0  0  0  0  0  0  0  0  0  0  0  0
  148.9068  143.0052  155.3008 H   0  0  0  0  0  0  0  0  0  0  0  0
  147.1684  142.6249  153.9932 H   0  0  0  0  0  0  0  0  0  0  0  0
  145.7674  141.0443  152.6668 H   0  0  0  0  0  0  0  0  0  0  0  0
  148.2439  137.8387  154.1446 H   0  0  0  0  0  0  0  0  0  0  0  0
  150.2511  143.9595  156.5681 H   0  0  0  0  0  0  0  0  0  0  0  0
  152.6045  142.4788  157.5400 H   0  0  0  0  0  0  0  0  0  0  0  0
  153.5253  144.5516  157.4560 H   0  0  0  0  0  0  0  0  0  0  0  0
  151.9906  145.3016  157.0135 H   0  0  0  0  0  0  0  0  0  0  0  0
  153.0164  145.8590  159.4708 H   0  0  0  0  0  0  0  0  0  0  0  0
  150.7727  145.9390  160.4658 H   0  0  0  0  0  0  0  0  0  0  0  0
  150.3801  146.0492  158.7451 H   0  0  0  0  0  0  0  0  0  0  0  0
  149.8862  143.8362  160.6174 H   0  0  0  0  0  0  0  0  0  0  0  0
  149.3585  143.9079  158.9386 H   0  0  0  0  0  0  0  0  0  0  0  0
  151.3060  142.1053  159.5992 H   0  0  0  0  0  0  0  0  0  0  0  0
  1  2  2  0  0  0  0
  2  3  1  0  0  0  0
  2 11  1  0  0  0  0
  3  4  1  0  0  0  0
  3 19  1  0  0  0  0
  4 10  1  0  0  0  0
  4  5  2  0  0  0  0
  5  6  1  0  0  0  0
  5 20  1  0  0  0  0
  6  7  2  0  0  0  0
  6 21  1  0  0  0  0
  7  8  1  0  0  0  0
  7  9  1  0  0  0  0
  9 10  2  0  0  0  0
  9 22  1  0  0  0  0
 11 12  1  0  0  0  0
 11 23  1  0  0  0  0
 12 17  1  0  0  0  0
 12 13  1  0  0  0  0
 12 24  1  0  0  0  0
 13 14  1  0  0  0  0
 13 25  1  0  0  0  0
 13 26  1  0  0  0  0
 14 18  1  0  0  0  0
 14 15  1  0  0  0  0
 14 27  1  0  0  0  0
 15 16  1  0  0  0  0
 15 28  1  0  0  0  0
 15 29  1  0  0  0  0
 16 17  1  0  0  0  0
 16 30  1  0  0  0  0
 16 31  1  0  0  0  0
 17 18  1  0  0  0  0
 17 32  1  0  0  0  0
M  END
> <s_m_source_file>
AV-unprocessed.smi

> <i_m_source_file_index>
2749

> <i_lp_mmshare_version>
43012

> <i_f3d_flags>
0

> <s_epik_input>
W0NIMl0xW0NIMl1bQ0BIXShPMilbQ0BASF0oW0NIMl1bQ0BASF0xMilbTkhdQyg9TylbTkhdYzNbY0hdW2NIXWMoRilbY0hdbjM=

> <s_epik_cmdline>
J2VwaWtfcHl0aG9uJywgJy1waCcsICc3LjAnLCAnLXRuJywgJzgnLCAnLW1hJywgJzIwMCcsICctbWV0YWxfYmluZGluZycsICctaW1hZScsICc8aW5maWxlLm1hZT4nLCAnLW9tYWUnLCAnPG91dGZpbGUubWFlPic=

> <r_lp_tautomer_probability>
1

> <r_epik_Ionization_Penalty>
3.37159e-05

> <r_epik_Ionization_Penalty_Charging>
0

> <r_epik_Ionization_Penalty_Neutral>
3.37159e-05

> <r_epik_State_Penalty>
-0

> <r_epik_Charging_Adjusted_Penalty>
0

> <i_epik_Tot_Q>
0

> <i_epik_Tot_abs_Q>
0

> <r_epik_Metal_State_Penalty>
-0

> <b_epik_Metal_Only>
0

> <s_lp_Force_Field>
OPLS_2005

> <r_lp_Energy>
40.3406

> <b_lp_Chiralities_Consistent>
1

> <s_lp_Variant>
AV-unprocessed.smi:2749-2

> <Gold.Version>
5.8.1

> <Gold.Id.Protein>
6NUR|6NUR_protein|mol2

> <Gold.PLP.Fitness>
47.0045

> <Gold.PLP.PLP>
-38.7527

> <Gold.PLP.part.hbond>
-2.0000

> <Gold.PLP.part.metal>
0.0000

> <Gold.PLP.part.buried>
-4.0109

> <Gold.PLP.part.nonpolar>
-33.6253

> <Gold.PLP.part.repulsive>
0.3776

> <Gold.PLP.ligand.clash>
0.0000

> <Gold.PLP.ligand.torsion>
0.3478

> <Gold.PLP.Chemscore.Hbond>
1.9760

> <Gold.PLP.Chemscore.CHOScore>
1.0000

> <Gold.PLP.Chemscore.Metal>
0.0000

> <Gold.Chemscore.Hbonds>
donor molecule, donor type, donor heavy atom, donor atom, acceptor molecule, acceptor atom, score
      L1  H     3    19       P1  8028  1.00
      L1  H    11    23       P1  8028  0.96
      L1  C     9    22       P1  7948  0.13

> <Gold.PLP.Chemscore.Internal.Correction>
0.0194

> <Gold.Rescore>
     Score         DG    S(hbond)    S(metal)    S(lipo)     H(rot)  DE(clash)    DE(int)     intcor
     18.43     -20.18       1.89        0.00      93.56       1.00       0.14       1.61       ----

> <Gold.Chemscore.Fitness>
18.4311

> <Gold.Chemscore.DG>
-20.1766

> <Gold.Chemscore.ZeroCoef>
-5.4800

> <Gold.Chemscore.Hbond>
1.8891

> <Gold.Chemscore.Metal>
0.0000

> <Gold.Chemscore.Lipo>
93.5636

> <Gold.Chemscore.Internal_Hbond>
0.0000

> <Gold.Chemscore.DEClash>
0.1398

> <Gold.Chemscore.DEInternal>
1.6057

> <Gold.Chemscore.Rot>
1.0000

> <Gold.Chemscore.Internal.Correction>
   9.000000E+99

> <Gold.Chemscore.Hbonds>
donor molecule, donor type, donor heavy atom, donor atom, acceptor molecule, acceptor atom, score
      L1  H     3    19       P1  8028  0.97
      L1  H    11    23       P1  8028  0.92

> <Gold.Chemscore.Hbond.Weighted>
-6.3097

> <Gold.Chemscore.Metal.Weighted>
-0.0000

> <Gold.Chemscore.Lipo.Weighted>
-10.9469

> <Gold.Chemscore.Internal_Hbond.Weighted>
0.0000

> <Gold.Chemscore.DEClash.Weighted>
0.1398

> <Gold.Chemscore.DEInternal.Weighted>
1.6057

> <Gold.Chemscore.Rot.Weighted>
2.5600

> <Gold.Chemscore.Internal.Correction.Weighted>
   9.000000E+99

> <Gold.Protein.RotatedTorsions>
[ 6907 6896 6895 6894 ] final  -54.41 input  -60.11 | X-H torsion
[ 7974 7965 7964 7962 ] final   -5.20 input  175.53 | X-H torsion
[ 8008 7997 7996 7995 ] final -125.10 input   59.86 | X-H torsion
[ 10167 10162 10161 10158 ] final  165.26 input  -65.29 | X-H torsion
[ 10718 10713 10712 10709 ] final  174.68 input   66.30 | X-H torsion
[ 10763 10752 10751 10750 ] final -139.72 input  -60.55 | X-H torsion
[ 11005 11000 10999 10996 ] final   41.35 input  -57.11 | X-H torsion

> <Gold.Protein.ActiveResidues>
 VAL166  LYS551  ARG553  GLY616  TRP617  ASP618  TYR619  PRO620  LYS621  CYS622 
 ASP623  PHE694  ASN695  SER759  ASP760  ASP761  ALA762  ILE779  LEU786  VAL792 
 PHE793  MET794  SER795  GLU796  ALA797  LYS798  CYS799  TRP800  GLU811  SER814 

> <Gold.Protein.RotatedAtoms>
  150.8340  134.7606  159.6877 H   0  0  0  0  0  0  0  0  0  0  0  0  # atno 6907 bound_to 6896
  152.4440  134.5529  159.9882 H   0  0  0  0  0  0  0  0  0  0  0  0  # atno 6908 bound_to 6896
  151.5683  133.3356  159.3020 H   0  0  0  0  0  0  0  0  0  0  0  0  # atno 6909 bound_to 6896
  146.2357  140.1986  142.8333 H   0  0  0  0  0  0  0  0  0  0  0  0  # atno 7974 bound_to 7965
  155.2078  140.0418  157.2928 H   0  0  0  0  0  0  0  0  0  0  0  0  # atno 8008 bound_to 7997
  154.6032  140.2457  155.7737 H   0  0  0  0  0  0  0  0  0  0  0  0  # atno 8009 bound_to 7997
  156.2334  140.2930  156.0257 H   0  0  0  0  0  0  0  0  0  0  0  0  # atno 8010 bound_to 7997
  139.4903  144.4151  151.9254 H   0  0  0  0  0  0  0  0  0  0  0  0  # atno 10167 bound_to 10162
  156.9460  131.0016  151.2959 H   0  0  0  0  0  0  0  0  0  0  0  0  # atno 10718 bound_to 10713
  154.8601  135.3574  154.5592 H   0  0  0  0  0  0  0  0  0  0  0  0  # atno 10763 bound_to 10752
  153.6207  135.7006  153.5316 H   0  0  0  0  0  0  0  0  0  0  0  0  # atno 10764 bound_to 10752
  153.3131  135.4173  155.1313 H   0  0  0  0  0  0  0  0  0  0  0  0  # atno 10765 bound_to 10752
  140.1842  134.4066  155.8182 H   0  0  0  0  0  0  0  0  0  0  0  0  # atno 11005 bound_to 11000
  144.9800  140.8450  143.5403 LP  0  0  0  0  0  0  0  0  0  0  0  0  # atno 17320 bound_to 7965
  145.1978  139.2268  143.5209 LP  0  0  0  0  0  0  0  0  0  0  0  0  # atno 17321 bound_to 7965
  140.3593  144.2993  150.5936 LP  0  0  0  0  0  0  0  0  0  0  0  0  # atno 17342 bound_to 10162
  140.5417  143.2222  151.8074 LP  0  0  0  0  0  0  0  0  0  0  0  0  # atno 17343 bound_to 10162
  157.5754  130.8339  149.8448 LP  0  0  0  0  0  0  0  0  0  0  0  0  # atno 17370 bound_to 10713
  156.0384  130.3745  150.1500 LP  0  0  0  0  0  0  0  0  0  0  0  0  # atno 17371 bound_to 10713
  141.2224  133.7015  156.7984 LP  0  0  0  0  0  0  0  0  0  0  0  0  # atno 17394 bound_to 11000
  140.2232  134.8741  157.3399 LP  0  0  0  0  0  0  0  0  0  0  0  0  # atno 17395 bound_to 11000

$$$$
