AV-unprocessed.smi:2446|AV-procd|sdf|9644|dock8
  -GOLD-   2272013273D 1   1.00000     0.00000
 Structure written by MMmdl.
 39 40  0  0  0  0  0  0  0  0  1 V2000
  150.8127  137.3483  154.5036 C   0  0  0  0  0  0  0  0  0  0  0  0
  150.1810  138.7244  154.6255 C   0  0  0  0  0  0  0  0  0  0  0  0
  150.9429  139.8080  155.1128 C   0  0  0  0  0  0  0  0  0  0  0  0
  150.4564  141.0579  155.2549 N   0  0  0  0  0  0  0  0  0  0  0  0
  149.1693  141.2742  154.9151 C   0  0  0  0  0  0  0  0  0  0  0  0
  148.3190  140.2673  154.4177 C   0  0  0  0  0  0  0  0  0  0  0  0
  148.8347  138.9589  154.2539 C   0  0  0  0  0  0  0  0  0  0  0  0
  148.0620  137.8641  153.7749 N   0  0  0  0  0  0  0  0  0  0  0  0
  146.7836  137.5370  154.0480 C   0  0  0  0  0  0  0  0  0  0  0  0
  146.0488  138.1518  154.8176 O   0  0  0  0  0  0  0  0  0  0  0  0
  146.3390  136.4555  153.3820 N   0  0  0  0  0  0  0  0  0  0  0  0
  145.0153  135.8247  153.4351 C   0  0  1  0  0  0  0  0  0  0  0  0
  144.0137  136.6277  152.5836 C   0  0  0  0  0  0  0  0  0  0  0  0
  144.2866  136.4859  151.0767 C   0  0  0  0  0  0  0  0  0  0  0  0
  144.3181  135.0106  150.6492 C   0  0  0  0  0  0  0  0  0  0  0  0
  145.3505  134.2030  151.4634 C   0  0  2  0  0  0  0  0  0  0  0  0
  145.4011  132.7241  151.0279 C   0  0  0  0  0  0  0  0  0  0  0  0
  146.2034  132.0207  151.8274 F   0  0  0  0  0  0  0  0  0  0  0  0
  144.1789  132.1936  151.0688 F   0  0  0  0  0  0  0  0  0  0  0  0
  145.8525  132.6328  149.7769 F   0  0  0  0  0  0  0  0  0  0  0  0
  145.0656  134.3498  152.9753 C   0  0  0  0  0  0  0  0  0  0  0  0
  151.8402  137.3509  154.8684 H   0  0  0  0  0  0  0  0  0  0  0  0
  150.8250  137.0265  153.4620 H   0  0  0  0  0  0  0  0  0  0  0  0
  150.2512  136.6171  155.0857 H   0  0  0  0  0  0  0  0  0  0  0  0
  151.9749  139.6698  155.4004 H   0  0  0  0  0  0  0  0  0  0  0  0
  148.8019  142.2806  155.0500 H   0  0  0  0  0  0  0  0  0  0  0  0
  147.2953  140.5173  154.1868 H   0  0  0  0  0  0  0  0  0  0  0  0
  148.5136  137.2984  153.0715 H   0  0  0  0  0  0  0  0  0  0  0  0
  147.0041  136.0118  152.7652 H   0  0  0  0  0  0  0  0  0  0  0  0
  144.6593  135.8583  154.4661 H   0  0  0  0  0  0  0  0  0  0  0  0
  143.0032  136.2759  152.7952 H   0  0  0  0  0  0  0  0  0  0  0  0
  144.0328  137.6802  152.8694 H   0  0  0  0  0  0  0  0  0  0  0  0
  143.5208  137.0177  150.5114 H   0  0  0  0  0  0  0  0  0  0  0  0
  145.2362  136.9600  150.8259 H   0  0  0  0  0  0  0  0  0  0  0  0
  143.3258  134.5756  150.7746 H   0  0  0  0  0  0  0  0  0  0  0  0
  144.5480  134.9490  149.5852 H   0  0  0  0  0  0  0  0  0  0  0  0
  146.3349  134.6296  151.2652 H   0  0  0  0  0  0  0  0  0  0  0  0
  145.8119  133.8018  153.5502 H   0  0  0  0  0  0  0  0  0  0  0  0
  144.1098  133.8780  153.2065 H   0  0  0  0  0  0  0  0  0  0  0  0
  1  2  1  0  0  0  0
  1 22  1  0  0  0  0
  1 23  1  0  0  0  0
  1 24  1  0  0  0  0
  2  7  1  0  0  0  0
  2  3  2  0  0  0  0
  3  4  1  0  0  0  0
  3 25  1  0  0  0  0
  4  5  2  0  0  0  0
  5  6  1  0  0  0  0
  5 26  1  0  0  0  0
  6  7  2  0  0  0  0
  6 27  1  0  0  0  0
  7  8  1  0  0  0  0
  8  9  1  0  0  0  0
  8 28  1  0  0  0  0
  9 10  2  0  0  0  0
  9 11  1  0  0  0  0
 11 12  1  0  0  0  0
 11 29  1  0  0  0  0
 12 21  1  0  0  0  0
 12 13  1  0  0  0  0
 12 30  1  0  0  0  0
 13 14  1  0  0  0  0
 13 31  1  0  0  0  0
 13 32  1  0  0  0  0
 14 15  1  0  0  0  0
 14 33  1  0  0  0  0
 14 34  1  0  0  0  0
 15 16  1  0  0  0  0
 15 35  1  0  0  0  0
 15 36  1  0  0  0  0
 16 17  1  0  0  0  0
 16 21  1  0  0  0  0
 16 37  1  0  0  0  0
 17 18  1  0  0  0  0
 17 19  1  0  0  0  0
 17 20  1  0  0  0  0
 21 38  1  0  0  0  0
 21 39  1  0  0  0  0
M  END
> <s_m_source_file>
AV-unprocessed.smi

> <i_m_source_file_index>
2446

> <i_lp_mmshare_version>
43012

> <i_f3d_flags>
0

> <s_epik_input>
W0NIM11jMVtjSF1uW2NIXVtjSF1jMVtOSF1DKD1PKVtOSF1bQ0BASF0yW0NIMl1bQ0gyXVtDSDJdW0NAQEhdKEMoRikoRilGKVtDSDJdMg==

> <s_epik_cmdline>
J2VwaWtfcHl0aG9uJywgJy1waCcsICc3LjAnLCAnLXRuJywgJzgnLCAnLW1hJywgJzIwMCcsICctbWV0YWxfYmluZGluZycsICctaW1hZScsICc8aW5maWxlLm1hZT4nLCAnLW9tYWUnLCAnPG91dGZpbGUubWFlPic=

> <r_epik_Ionization_Penalty>
0.20168

> <r_epik_Ionization_Penalty_Charging>
0

> <r_epik_Ionization_Penalty_Neutral>
0.20168

> <r_epik_State_Penalty>
0.191514

> <r_epik_Charging_Adjusted_Penalty>
0.191514

> <i_epik_Tot_Q>
0

> <i_epik_Tot_abs_Q>
0

> <r_epik_Metal_State_Penalty>
0.142371

> <b_epik_Metal_Only>
0

> <s_lp_Force_Field>
OPLS_2005

> <r_lp_Energy>
25.5489

> <b_lp_Chiralities_Consistent>
1

> <s_lp_Variant>
AV-unprocessed.smi:2446-4

> <Gold.Version>
5.8.1

> <Gold.Id.Protein>
6NUR|6NUR_protein|mol2

> <Gold.PLP.Fitness>
41.3067

> <Gold.PLP.PLP>
-34.0655

> <Gold.PLP.part.hbond>
-3.0000

> <Gold.PLP.part.metal>
0.0000

> <Gold.PLP.part.buried>
3.2781

> <Gold.PLP.part.nonpolar>
-33.5140

> <Gold.PLP.part.repulsive>
0.1903

> <Gold.PLP.ligand.clash>
0.0000

> <Gold.PLP.ligand.torsion>
0.7100

> <Gold.PLP.Chemscore.Hbond>
1.8800

> <Gold.PLP.Chemscore.CHOScore>
1.0000

> <Gold.PLP.Chemscore.Metal>
0.0000

> <Gold.Chemscore.Hbonds>
donor molecule, donor type, donor heavy atom, donor atom, acceptor molecule, acceptor atom, score
      L1  H     8    28       P1  7948  1.00
      L1  H    11    29       P1  7948  0.63
      L1  C     5    26       P1  8028  1.00

> <Gold.PLP.Chemscore.Internal.Correction>
0.0212

> <Gold.Rescore>
     Score         DG    S(hbond)    S(metal)    S(lipo)     H(rot)  DE(clash)    DE(int)     intcor
     14.41     -16.29       1.59        0.00      68.89       1.00       1.17       0.71       ----

> <Gold.Chemscore.Fitness>
14.4139

> <Gold.Chemscore.DG>
-16.2920

> <Gold.Chemscore.ZeroCoef>
-5.4800

> <Gold.Chemscore.Hbond>
1.5904

> <Gold.Chemscore.Metal>
0.0000

> <Gold.Chemscore.Lipo>
68.8897

> <Gold.Chemscore.Internal_Hbond>
0.0000

> <Gold.Chemscore.DEClash>
1.1680

> <Gold.Chemscore.DEInternal>
0.7101

> <Gold.Chemscore.Rot>
1.0000

> <Gold.Chemscore.Internal.Correction>
   9.000000E+99

> <Gold.Chemscore.Hbonds>
donor molecule, donor type, donor heavy atom, donor atom, acceptor molecule, acceptor atom, score
      L1  H     8    28       P1  7948  1.00
      L1  H    11    29       P1  7948  0.61

> <Gold.Chemscore.Hbond.Weighted>
-5.3119

> <Gold.Chemscore.Metal.Weighted>
-0.0000

> <Gold.Chemscore.Lipo.Weighted>
-8.0601

> <Gold.Chemscore.Internal_Hbond.Weighted>
0.0000

> <Gold.Chemscore.DEClash.Weighted>
1.1680

> <Gold.Chemscore.DEInternal.Weighted>
0.7101

> <Gold.Chemscore.Rot.Weighted>
2.5600

> <Gold.Chemscore.Internal.Correction.Weighted>
   9.000000E+99

> <Gold.Protein.RotatedTorsions>
[ 6907 6896 6895 6894 ] final   23.10 input  -60.11 | X-H torsion
[ 7974 7965 7964 7962 ] final  -78.02 input  175.53 | X-H torsion
[ 8008 7997 7996 7995 ] final  -54.98 input   59.86 | X-H torsion
[ 10167 10162 10161 10158 ] final   71.59 input  -65.29 | X-H torsion
[ 10718 10713 10712 10709 ] final   99.83 input   66.30 | X-H torsion
[ 10763 10752 10751 10750 ] final  173.69 input  -60.55 | X-H torsion
[ 11005 11000 10999 10996 ] final   14.21 input  -57.11 | X-H torsion

> <Gold.Protein.ActiveResidues>
 VAL166  LYS551  ARG553  GLY616  TRP617  ASP618  TYR619  PRO620  LYS621  CYS622 
 ASP623  PHE694  ASN695  SER759  ASP760  ASP761  ALA762  ILE779  LEU786  VAL792 
 PHE793  MET794  SER795  GLU796  ALA797  LYS798  CYS799  TRP800  GLU811  SER814 

> <Gold.Protein.RotatedAtoms>
  151.9372  135.0230  160.0533 H   0  0  0  0  0  0  0  0  0  0  0  0  # atno 6907 bound_to 6896
  152.2068  133.4877  159.5096 H   0  0  0  0  0  0  0  0  0  0  0  0  # atno 6908 bound_to 6896
  150.6967  134.1436  159.4157 H   0  0  0  0  0  0  0  0  0  0  0  0  # atno 6909 bound_to 6896
  145.5920  140.9427  143.1287 H   0  0  0  0  0  0  0  0  0  0  0  0  # atno 7974 bound_to 7965
  154.4180  140.1163  156.5403 H   0  0  0  0  0  0  0  0  0  0  0  0  # atno 8008 bound_to 7997
  155.6514  140.3496  155.4730 H   0  0  0  0  0  0  0  0  0  0  0  0  # atno 8009 bound_to 7997
  155.9789  140.1156  157.0734 H   0  0  0  0  0  0  0  0  0  0  0  0  # atno 8010 bound_to 7997
  140.0445  144.5363  150.7409 H   0  0  0  0  0  0  0  0  0  0  0  0  # atno 10167 bound_to 10162
  157.6867  131.0681  150.5008 H   0  0  0  0  0  0  0  0  0  0  0  0  # atno 10718 bound_to 10713
  154.4435  135.2762  155.1831 H   0  0  0  0  0  0  0  0  0  0  0  0  # atno 10763 bound_to 10752
  154.3687  135.6113  153.5732 H   0  0  0  0  0  0  0  0  0  0  0  0  # atno 10764 bound_to 10752
  152.9842  135.5852  154.4767 H   0  0  0  0  0  0  0  0  0  0  0  0  # atno 10765 bound_to 10752
  140.4720  134.1021  155.7734 H   0  0  0  0  0  0  0  0  0  0  0  0  # atno 11005 bound_to 11000
  144.7347  139.7621  143.7334 LP  0  0  0  0  0  0  0  0  0  0  0  0  # atno 17320 bound_to 7965
  146.1640  139.4764  142.9970 LP  0  0  0  0  0  0  0  0  0  0  0  0  # atno 17321 bound_to 7965
  140.7245  143.2622  151.4166 LP  0  0  0  0  0  0  0  0  0  0  0  0  # atno 17342 bound_to 10162
  139.5993  144.1330  152.2179 LP  0  0  0  0  0  0  0  0  0  0  0  0  # atno 17343 bound_to 10162
  156.5330  130.4189  149.6192 LP  0  0  0  0  0  0  0  0  0  0  0  0  # atno 17370 bound_to 10713
  156.3052  130.7199  151.2080 LP  0  0  0  0  0  0  0  0  0  0  0  0  # atno 17371 bound_to 10713
  141.1572  133.8860  157.1945 LP  0  0  0  0  0  0  0  0  0  0  0  0  # atno 17394 bound_to 11000
  139.9879  135.0075  156.9906 LP  0  0  0  0  0  0  0  0  0  0  0  0  # atno 17395 bound_to 11000

$$$$
