AV-unprocessed.smi:2996|AV-procd|sdf|11410|dock8
  -GOLD-   2272016333D 1   1.00000     0.00000
 Structure written by MMmdl.
 46 47  0  0  0  0  0  0  0  0  1 V2000
  152.0866  137.9661  155.2311 C   0  0  0  0  0  0  0  0  0  0  0  0
  150.9257  137.1298  154.6814 C   0  0  0  0  0  0  0  0  0  0  0  0
  150.9273  135.7308  155.2334 C   0  0  0  0  0  0  0  0  0  0  0  0
  151.7767  135.3947  156.1910 N   0  0  0  0  0  0  0  0  0  0  0  0
  151.5430  134.0389  156.4663 O   0  0  0  0  0  0  0  0  0  0  0  0
  150.5508  133.5802  155.6559 C   0  0  0  0  0  0  0  0  0  0  0  0
  150.2201  132.1293  155.7792 C   0  0  0  0  0  0  0  0  0  0  0  0
  150.1171  134.6207  154.8780 C   0  0  0  0  0  0  0  0  0  0  0  0
  149.1320  134.6411  153.8579 N   0  0  0  0  0  0  0  0  0  0  0  0
  148.0000  133.9231  153.8038 C   0  0  0  0  0  0  0  0  0  0  0  0
  147.6249  133.1293  154.6655 O   0  0  0  0  0  0  0  0  0  0  0  0
  147.3023  134.2009  152.6945 N   0  0  0  0  0  0  0  0  0  0  0  0
  146.0051  133.6234  152.3490 C   0  0  2  0  0  0  0  0  0  0  0  0
  146.0202  133.0104  150.9627 C   0  0  0  0  0  0  0  0  0  0  0  0
  144.5412  133.0277  150.5571 C   0  0  0  0  0  0  0  0  0  0  0  0
  144.3505  133.3191  149.0606 C   0  0  0  0  0  0  0  0  0  0  0  0
  143.8196  131.7310  150.9617 C   0  0  0  0  0  0  0  0  0  0  0  0
  143.9526  134.0915  151.3045 O   0  0  0  0  0  0  0  0  0  0  0  0
  144.8668  134.6609  152.2404 C   0  0  0  0  0  0  0  0  0  0  0  0
  144.1198  134.8523  153.5699 C   0  0  0  0  0  0  0  0  0  0  0  0
  145.3008  136.0227  151.6583 C   0  0  0  0  0  0  0  0  0  0  0  0
  152.0673  138.9753  154.8197 H   0  0  0  0  0  0  0  0  0  0  0  0
  153.0477  137.5194  154.9746 H   0  0  0  0  0  0  0  0  0  0  0  0
  152.0341  138.0484  156.3171 H   0  0  0  0  0  0  0  0  0  0  0  0
  149.9820  137.6223  154.9174 H   0  0  0  0  0  0  0  0  0  0  0  0
  150.9842  137.1018  153.5930 H   0  0  0  0  0  0  0  0  0  0  0  0
  149.9727  131.7019  154.8075 H   0  0  0  0  0  0  0  0  0  0  0  0
  149.3705  131.9813  156.4457 H   0  0  0  0  0  0  0  0  0  0  0  0
  151.0643  131.5696  156.1825 H   0  0  0  0  0  0  0  0  0  0  0  0
  149.2586  135.3377  153.1387 H   0  0  0  0  0  0  0  0  0  0  0  0
  147.6867  134.8722  152.0461 H   0  0  0  0  0  0  0  0  0  0  0  0
  145.7349  132.8412  153.0613 H   0  0  0  0  0  0  0  0  0  0  0  0
  146.6060  133.6343  150.2855 H   0  0  0  0  0  0  0  0  0  0  0  0
  146.4587  132.0119  150.9457 H   0  0  0  0  0  0  0  0  0  0  0  0
  144.8039  132.5404  148.4468 H   0  0  0  0  0  0  0  0  0  0  0  0
  144.8047  134.2701  148.7810 H   0  0  0  0  0  0  0  0  0  0  0  0
  143.2927  133.3737  148.8021 H   0  0  0  0  0  0  0  0  0  0  0  0
  144.2307  130.8700  150.4338 H   0  0  0  0  0  0  0  0  0  0  0  0
  142.7556  131.7848  150.7294 H   0  0  0  0  0  0  0  0  0  0  0  0
  143.9108  131.5390  152.0311 H   0  0  0  0  0  0  0  0  0  0  0  0
  144.7663  135.2950  154.3278 H   0  0  0  0  0  0  0  0  0  0  0  0
  143.7540  133.9015  153.9582 H   0  0  0  0  0  0  0  0  0  0  0  0
  143.2582  135.5087  153.4462 H   0  0  0  0  0  0  0  0  0  0  0  0
  145.9718  136.5535  152.3343 H   0  0  0  0  0  0  0  0  0  0  0  0
  144.4368  136.6659  151.4887 H   0  0  0  0  0  0  0  0  0  0  0  0
  145.8124  135.9085  150.7025 H   0  0  0  0  0  0  0  0  0  0  0  0
  1  2  1  0  0  0  0
  1 22  1  0  0  0  0
  1 23  1  0  0  0  0
  1 24  1  0  0  0  0
  2  3  1  0  0  0  0
  2 25  1  0  0  0  0
  2 26  1  0  0  0  0
  3  8  1  0  0  0  0
  3  4  2  0  0  0  0
  4  5  1  0  0  0  0
  5  6  1  0  0  0  0
  6  7  1  0  0  0  0
  6  8  2  0  0  0  0
  7 27  1  0  0  0  0
  7 28  1  0  0  0  0
  7 29  1  0  0  0  0
  8  9  1  0  0  0  0
  9 10  1  0  0  0  0
  9 30  1  0  0  0  0
 10 11  2  0  0  0  0
 10 12  1  0  0  0  0
 12 13  1  0  0  0  0
 12 31  1  0  0  0  0
 13 19  1  0  0  0  0
 13 14  1  0  0  0  0
 13 32  1  0  0  0  0
 14 15  1  0  0  0  0
 14 33  1  0  0  0  0
 14 34  1  0  0  0  0
 15 16  1  0  0  0  0
 15 17  1  0  0  0  0
 15 18  1  0  0  0  0
 16 35  1  0  0  0  0
 16 36  1  0  0  0  0
 16 37  1  0  0  0  0
 17 38  1  0  0  0  0
 17 39  1  0  0  0  0
 17 40  1  0  0  0  0
 18 19  1  0  0  0  0
 19 20  1  0  0  0  0
 19 21  1  0  0  0  0
 20 41  1  0  0  0  0
 20 42  1  0  0  0  0
 20 43  1  0  0  0  0
 21 44  1  0  0  0  0
 21 45  1  0  0  0  0
 21 46  1  0  0  0  0
M  END
> <s_m_source_file>
AV-unprocessed.smi

> <i_m_source_file_index>
2996

> <i_lp_mmshare_version>
43012

> <i_f3d_flags>
0

> <s_epik_input>
W0NIM11bQ0gyXWMxbm9jKFtDSDNdKWMxW05IXUMoPU8pW05IXVtDQEBIXShDKE8yKShbQ0gzXSlbQ0gzXSlbQ0gyXUMyKFtDSDNdKVtDSDNd

> <s_epik_cmdline>
J2VwaWtfcHl0aG9uJywgJy1waCcsICc3LjAnLCAnLXRuJywgJzgnLCAnLW1hJywgJzIwMCcsICctbWV0YWxfYmluZGluZycsICctaW1hZScsICc8aW5maWxlLm1hZT4nLCAnLW9tYWUnLCAnPG91dGZpbGUubWFlPic=

> <r_lp_tautomer_probability>
1

> <r_epik_Ionization_Penalty>
3.17207e-05

> <r_epik_Ionization_Penalty_Charging>
0

> <r_epik_Ionization_Penalty_Neutral>
3.17207e-05

> <r_epik_State_Penalty>
-0

> <r_epik_Charging_Adjusted_Penalty>
0

> <i_epik_Tot_Q>
0

> <i_epik_Tot_abs_Q>
0

> <r_epik_Metal_State_Penalty>
-0

> <b_epik_Metal_Only>
0

> <s_lp_Force_Field>
OPLS_2005

> <r_lp_Energy>
17.7476

> <b_lp_Chiralities_Consistent>
1

> <s_lp_Variant>
AV-unprocessed.smi:2996-1

> <Gold.Version>
5.8.1

> <Gold.Id.Protein>
6NUR|6NUR_protein|mol2

> <Gold.PLP.Fitness>
38.7580

> <Gold.PLP.PLP>
-30.8816

> <Gold.PLP.part.hbond>
-3.0742

> <Gold.PLP.part.metal>
0.0000

> <Gold.PLP.part.buried>
-0.4687

> <Gold.PLP.part.nonpolar>
-27.1897

> <Gold.PLP.part.repulsive>
0.2127

> <Gold.PLP.ligand.clash>
0.0000

> <Gold.PLP.ligand.torsion>
0.2893

> <Gold.PLP.Chemscore.Hbond>
2.7659

> <Gold.PLP.Chemscore.CHOScore>
0.0000

> <Gold.PLP.Chemscore.Metal>
0.0000

> <Gold.Chemscore.Hbonds>
donor molecule, donor type, donor heavy atom, donor atom, acceptor molecule, acceptor atom, score
      L1  H     9    30       P1  7948  0.80
      L1  H    12    31       P1  7948  0.90
      P1  H 10752 10764       L1     4  0.88

> <Gold.PLP.Chemscore.Internal.Correction>
0.1574

> <Gold.Rescore>
     Score         DG    S(hbond)    S(metal)    S(lipo)     H(rot)  DE(clash)    DE(int)     intcor
     17.94     -19.13       2.34        0.00      75.10       1.16       0.26       0.94       ----

> <Gold.Chemscore.Fitness>
17.9372

> <Gold.Chemscore.DG>
-19.1303

> <Gold.Chemscore.ZeroCoef>
-5.4800

> <Gold.Chemscore.Hbond>
2.3444

> <Gold.Chemscore.Metal>
0.0000

> <Gold.Chemscore.Lipo>
75.1031

> <Gold.Chemscore.Internal_Hbond>
0.0000

> <Gold.Chemscore.DEClash>
0.2566

> <Gold.Chemscore.DEInternal>
0.9365

> <Gold.Chemscore.Rot>
1.1590

> <Gold.Chemscore.Internal.Correction>
   9.000000E+99

> <Gold.Chemscore.Hbonds>
donor molecule, donor type, donor heavy atom, donor atom, acceptor molecule, acceptor atom, score
      L1  H     9    30       P1  7948  0.11
      L1  H    12    31       P1  7948  0.66
      P1  H 10752 10764       L1     4  0.12

> <Gold.Chemscore.Hbond.Weighted>
-7.8304

> <Gold.Chemscore.Metal.Weighted>
-0.0000

> <Gold.Chemscore.Lipo.Weighted>
-8.7871

> <Gold.Chemscore.Internal_Hbond.Weighted>
0.0000

> <Gold.Chemscore.DEClash.Weighted>
0.2566

> <Gold.Chemscore.DEInternal.Weighted>
0.9365

> <Gold.Chemscore.Rot.Weighted>
2.9671

> <Gold.Chemscore.Internal.Correction.Weighted>
   9.000000E+99

> <Gold.Protein.RotatedTorsions>
[ 6907 6896 6895 6894 ] final  -94.23 input  -60.11 | X-H torsion
[ 7974 7965 7964 7962 ] final   87.86 input  175.53 | X-H torsion
[ 8008 7997 7996 7995 ] final  -42.61 input   59.86 | X-H torsion
[ 10167 10162 10161 10158 ] final   49.11 input  -65.29 | X-H torsion
[ 10718 10713 10712 10709 ] final  -24.24 input   66.30 | X-H torsion
[ 10763 10752 10751 10750 ] final   -8.17 input  -60.55 | X-H torsion
[ 11005 11000 10999 10996 ] final  -86.58 input  -57.11 | X-H torsion

> <Gold.Protein.ActiveResidues>
 VAL166  LYS551  ARG553  GLY616  TRP617  ASP618  TYR619  PRO620  LYS621  CYS622 
 ASP623  PHE694  ASN695  SER759  ASP760  ASP761  ALA762  ILE779  LEU786  VAL792 
 PHE793  MET794  SER795  GLU796  ALA797  LYS798  CYS799  TRP800  GLU811  SER814 

> <Gold.Protein.RotatedAtoms>
  150.6937  134.1845  159.4261 H   0  0  0  0  0  0  0  0  0  0  0  0  # atno 6907 bound_to 6896
  151.9818  135.0022  160.0567 H   0  0  0  0  0  0  0  0  0  0  0  0  # atno 6908 bound_to 6896
  152.1748  133.4632  159.4964 H   0  0  0  0  0  0  0  0  0  0  0  0  # atno 6909 bound_to 6896
  145.5534  139.2297  143.2500 H   0  0  0  0  0  0  0  0  0  0  0  0  # atno 7974 bound_to 7965
  154.3998  140.1469  156.3383 H   0  0  0  0  0  0  0  0  0  0  0  0  # atno 8008 bound_to 7997
  155.8380  140.3463  155.5593 H   0  0  0  0  0  0  0  0  0  0  0  0  # atno 8009 bound_to 7997
  155.8117  140.0885  157.1890 H   0  0  0  0  0  0  0  0  0  0  0  0  # atno 8010 bound_to 7997
  140.2863  144.3098  150.6251 H   0  0  0  0  0  0  0  0  0  0  0  0  # atno 10167 bound_to 10162
  156.4803  130.4543  149.6816 H   0  0  0  0  0  0  0  0  0  0  0  0  # atno 10718 bound_to 10713
  153.4366  135.7013  153.6196 H   0  0  0  0  0  0  0  0  0  0  0  0  # atno 10763 bound_to 10752
  153.4588  135.3741  155.2326 H   0  0  0  0  0  0  0  0  0  0  0  0  # atno 10764 bound_to 10752
  154.8727  135.4015  154.3759 H   0  0  0  0  0  0  0  0  0  0  0  0  # atno 10765 bound_to 10752
  141.1628  133.7462  156.9181 H   0  0  0  0  0  0  0  0  0  0  0  0  # atno 11005 bound_to 11000
  146.1901  140.6357  142.9149 LP  0  0  0  0  0  0  0  0  0  0  0  0  # atno 17320 bound_to 7965
  144.7518  140.5210  143.6796 LP  0  0  0  0  0  0  0  0  0  0  0  0  # atno 17321 bound_to 7965
  140.5770  143.2175  151.7497 LP  0  0  0  0  0  0  0  0  0  0  0  0  # atno 17342 bound_to 10162
  139.4949  144.4135  152.0055 LP  0  0  0  0  0  0  0  0  0  0  0  0  # atno 17343 bound_to 10162
  156.3528  130.7441  151.2403 LP  0  0  0  0  0  0  0  0  0  0  0  0  # atno 17370 bound_to 10713
  157.7484  131.0372  150.4445 LP  0  0  0  0  0  0  0  0  0  0  0  0  # atno 17371 bound_to 10713
  140.1470  134.9255  157.2542 LP  0  0  0  0  0  0  0  0  0  0  0  0  # atno 17394 bound_to 11000
  140.2768  134.3396  155.7355 LP  0  0  0  0  0  0  0  0  0  0  0  0  # atno 17395 bound_to 11000

$$$$
