AV-unprocessed.smi:837|AV-procd|sdf|3898|dock4
  -GOLD-   22720 1353D 1   1.00000     0.00000
 Structure written by MMmdl.
 50 52  0  0  0  0  0  0  0  0  2 V2000
  146.2852  133.1297  153.1365 C   0  0  0  0  0  0  0  0  0  0  0  0
  145.3907  132.6750  151.9635 C   0  0  2  0  0  0  0  0  0  0  0  0
  146.2360  132.4352  150.6935 C   0  0  0  0  0  0  0  0  0  0  0  0
  145.3828  131.8925  149.5368 C   0  0  0  0  0  0  0  0  0  0  0  0
  144.2019  132.8220  149.2240 C   0  0  0  0  0  0  0  0  0  0  0  0
  143.3440  133.0727  150.4768 C   0  0  0  0  0  0  0  0  0  0  0  0
  144.1649  133.6008  151.6802 C   0  0  1  0  0  0  0  0  0  0  0  0
  143.3070  133.7048  152.8479 N   0  0  0  0  0  0  0  0  0  0  0  0
  143.1753  134.9585  153.2968 C   0  0  0  0  0  0  0  0  0  0  0  0
  142.5122  135.2952  154.2771 O   0  0  0  0  0  0  0  0  0  0  0  0
  143.8969  135.7694  152.5036 N   0  0  0  0  0  0  0  0  0  0  0  0
  144.0379  137.2151  152.7174 C   0  0  0  0  0  0  0  0  0  0  0  0
  145.5018  137.6491  152.8717 C   0  0  0  0  0  0  0  0  0  0  0  0
  146.3880  136.8181  153.0739 O   0  0  0  0  0  0  0  0  0  0  0  0
  145.7398  138.9653  152.7731 N   0  0  0  0  0  0  0  0  0  0  0  0
  147.0485  139.5967  152.9190 C   0  0  0  0  0  0  0  0  0  0  0  0
  147.9032  138.9691  154.0400 C   0  0  0  0  0  0  0  0  0  0  0  0
  148.8979  139.9350  154.6612 C   0  0  0  0  0  0  0  0  0  0  0  0
  150.2253  139.5301  154.9274 C   0  0  0  0  0  0  0  0  0  0  0  0
  151.1226  140.4445  155.5164 C   0  0  0  0  0  0  0  0  0  0  0  0
  150.6742  141.7454  155.8227 C   0  0  0  0  0  0  0  0  0  0  0  0
  149.3985  142.0982  155.5510 N   0  3  0  0  0  0  0  0  0  0  0  0
  148.5078  141.2512  154.9893 C   0  0  0  0  0  0  0  0  0  0  0  0
  144.5157  135.0831  151.5328 C   0  0  0  0  0  0  0  0  0  0  0  0
  145.2583  135.5439  150.6658 O   0  0  0  0  0  0  0  0  0  0  0  0
  146.7791  134.0787  152.9262 H   0  0  0  0  0  0  0  0  0  0  0  0
  147.0663  132.3954  153.3347 H   0  0  0  0  0  0  0  0  0  0  0  0
  145.7148  133.2475  154.0580 H   0  0  0  0  0  0  0  0  0  0  0  0
  144.9863  131.7042  152.2552 H   0  0  0  0  0  0  0  0  0  0  0  0
  146.7295  133.3570  150.3850 H   0  0  0  0  0  0  0  0  0  0  0  0
  147.0351  131.7254  150.9105 H   0  0  0  0  0  0  0  0  0  0  0  0
  146.0006  131.7668  148.6472 H   0  0  0  0  0  0  0  0  0  0  0  0
  145.0080  130.9009  149.7942 H   0  0  0  0  0  0  0  0  0  0  0  0
  144.5726  133.7658  148.8240 H   0  0  0  0  0  0  0  0  0  0  0  0
  143.5858  132.3832  148.4387 H   0  0  0  0  0  0  0  0  0  0  0  0
  142.5399  133.7671  150.2280 H   0  0  0  0  0  0  0  0  0  0  0  0
  142.8536  132.1398  150.7592 H   0  0  0  0  0  0  0  0  0  0  0  0
  142.8663  132.9013  153.2716 H   0  0  0  0  0  0  0  0  0  0  0  0
  143.5977  137.7709  151.8878 H   0  0  0  0  0  0  0  0  0  0  0  0
  143.4726  137.5080  153.6043 H   0  0  0  0  0  0  0  0  0  0  0  0
  144.9554  139.5758  152.5949 H   0  0  0  0  0  0  0  0  0  0  0  0
  147.5864  139.5702  151.9702 H   0  0  0  0  0  0  0  0  0  0  0  0
  146.8749  140.6491  153.1442 H   0  0  0  0  0  0  0  0  0  0  0  0
  147.2537  138.5781  154.8241 H   0  0  0  0  0  0  0  0  0  0  0  0
  148.4453  138.1080  153.6476 H   0  0  0  0  0  0  0  0  0  0  0  0
  150.5518  138.5272  154.6921 H   0  0  0  0  0  0  0  0  0  0  0  0
  152.1393  140.1497  155.7328 H   0  0  0  0  0  0  0  0  0  0  0  0
  151.2922  142.5079  156.2740 H   0  0  0  0  0  0  0  0  0  0  0  0
  147.5168  141.6482  154.8244 H   0  0  0  0  0  0  0  0  0  0  0  0
  149.0942  143.0447  155.7807 H   0  0  0  0  0  0  0  0  0  0  0  0
  1  2  1  0  0  0  0
  1 26  1  0  0  0  0
  1 27  1  0  0  0  0
  1 28  1  0  0  0  0
  2  7  1  0  0  0  0
  2  3  1  0  0  0  0
  2 29  1  0  0  0  0
  3  4  1  0  0  0  0
  3 30  1  0  0  0  0
  3 31  1  0  0  0  0
  4  5  1  0  0  0  0
  4 32  1  0  0  0  0
  4 33  1  0  0  0  0
  5  6  1  0  0  0  0
  5 34  1  0  0  0  0
  5 35  1  0  0  0  0
  6  7  1  0  0  0  0
  6 36  1  0  0  0  0
  6 37  1  0  0  0  0
  7 24  1  0  0  0  0
  7  8  1  0  0  0  0
  8  9  1  0  0  0  0
  8 38  1  0  0  0  0
  9 10  2  0  0  0  0
  9 11  1  0  0  0  0
 11 12  1  0  0  0  0
 11 24  1  0  0  0  0
 12 13  1  0  0  0  0
 12 39  1  0  0  0  0
 12 40  1  0  0  0  0
 13 14  2  0  0  0  0
 13 15  1  0  0  0  0
 15 16  1  0  0  0  0
 15 41  1  0  0  0  0
 16 17  1  0  0  0  0
 16 42  1  0  0  0  0
 16 43  1  0  0  0  0
 17 18  1  0  0  0  0
 17 44  1  0  0  0  0
 17 45  1  0  0  0  0
 18 23  1  0  0  0  0
 18 19  2  0  0  0  0
 19 20  1  0  0  0  0
 19 46  1  0  0  0  0
 20 21  2  0  0  0  0
 20 47  1  0  0  0  0
 21 22  1  0  0  0  0
 21 48  1  0  0  0  0
 22 23  2  0  0  0  0
 22 50  1  0  0  0  0
 23 49  1  0  0  0  0
 24 25  2  0  0  0  0
M  CHG  1  22   1
M  END
> <s_m_source_file>
AV-unprocessed.smi

> <i_m_source_file_index>
837

> <i_lp_mmshare_version>
43012

> <i_f3d_flags>
0

> <s_epik_input>
W0NIMl0xW0NIMl1bQ0gyXVtDSDJdW0NAQEhdKFtDSDNdKVtDQEBdMTJbTkhdQyg9TylOKEMyPU8pW0NIMl1DKD1PKVtOSF1bQ0gyXVtDSDJdYzNbY0hdW2NIXVtjSF1uW2NIXTM=

> <s_epik_cmdline>
J2VwaWtfcHl0aG9uJywgJy1waCcsICc3LjAnLCAnLXRuJywgJzgnLCAnLW1hJywgJzIwMCcsICctbWV0YWxfYmluZGluZycsICctaW1hZScsICc8aW5maWxlLm1hZT4nLCAnLW9tYWUnLCAnPG91dGZpbGUubWFlPic=

> <r_lp_tautomer_probability>
1

> <r_epik_Ionization_Penalty>
2.28139

> <r_epik_Ionization_Penalty_Charging>
2.28135

> <r_epik_Ionization_Penalty_Neutral>
4.65525e-05

> <r_epik_State_Penalty>
2.43066

> <r_epik_Charging_Adjusted_Penalty>
4.71201

> <i_epik_Tot_Q>
1

> <i_epik_Tot_abs_Q>
1

> <r_epik_Metal_State_Penalty>
2.4646

> <b_epik_Metal_Only>
0

> <s_lp_Force_Field>
OPLS_2005

> <r_lp_Energy>
25.0324

> <b_lp_Chiralities_Consistent>
1

> <s_lp_Variant>
AV-unprocessed.smi:837-7

> <Gold.Version>
5.8.1

> <Gold.Id.Protein>
6NUR|6NUR_protein|mol2

> <Gold.PLP.Fitness>
52.5276

> <Gold.PLP.PLP>
-41.9364

> <Gold.PLP.part.hbond>
-3.0000

> <Gold.PLP.part.metal>
0.0000

> <Gold.PLP.part.buried>
-3.1502

> <Gold.PLP.part.nonpolar>
-37.4679

> <Gold.PLP.part.repulsive>
2.0494

> <Gold.PLP.ligand.clash>
0.0000

> <Gold.PLP.ligand.torsion>
0.7090

> <Gold.PLP.Chemscore.Hbond>
3.9920

> <Gold.PLP.Chemscore.CHOScore>
0.0000

> <Gold.PLP.Chemscore.Metal>
0.0000

> <Gold.Chemscore.Hbonds>
donor molecule, donor type, donor heavy atom, donor atom, acceptor molecule, acceptor atom, score
      L1  H     8    38       P1 10957  1.00
      L1  H    15    41       P1 10175  1.00
      L1  H    22    50       P1  8028  2.00

> <Gold.PLP.Chemscore.Internal.Correction>
0.0332

> <Gold.Rescore>
     Score         DG    S(hbond)    S(metal)    S(lipo)     H(rot)  DE(clash)    DE(int)     intcor
     19.04     -20.96       2.93        0.00      91.66       1.96       0.07       1.85       ----

> <Gold.Chemscore.Fitness>
19.0419

> <Gold.Chemscore.DG>
-20.9607

> <Gold.Chemscore.ZeroCoef>
-5.4800

> <Gold.Chemscore.Hbond>
2.9292

> <Gold.Chemscore.Metal>
0.0000

> <Gold.Chemscore.Lipo>
91.6621

> <Gold.Chemscore.Internal_Hbond>
0.0000

> <Gold.Chemscore.DEClash>
0.0729

> <Gold.Chemscore.DEInternal>
1.8459

> <Gold.Chemscore.Rot>
1.9638

> <Gold.Chemscore.Internal.Correction>
   9.000000E+99

> <Gold.Chemscore.Hbonds>
donor molecule, donor type, donor heavy atom, donor atom, acceptor molecule, acceptor atom, score
      L1  H     8    38       P1 10957  0.62
      L1  H    15    41       P1 10175  0.96
      L1  H    22    50       P1  8028  1.00

> <Gold.Chemscore.Hbond.Weighted>
-9.7837

> <Gold.Chemscore.Metal.Weighted>
-0.0000

> <Gold.Chemscore.Lipo.Weighted>
-10.7245

> <Gold.Chemscore.Internal_Hbond.Weighted>
0.0000

> <Gold.Chemscore.DEClash.Weighted>
0.0729

> <Gold.Chemscore.DEInternal.Weighted>
1.8459

> <Gold.Chemscore.Rot.Weighted>
5.0274

> <Gold.Chemscore.Internal.Correction.Weighted>
   9.000000E+99

> <Gold.Protein.RotatedTorsions>
[ 6907 6896 6895 6894 ] final  -51.02 input  -60.11 | X-H torsion
[ 7974 7965 7964 7962 ] final  -48.26 input  175.53 | X-H torsion
[ 8008 7997 7996 7995 ] final  -49.61 input   59.86 | X-H torsion
[ 10167 10162 10161 10158 ] final  143.17 input  -65.29 | X-H torsion
[ 10718 10713 10712 10709 ] final -129.95 input   66.30 | X-H torsion
[ 10763 10752 10751 10750 ] final   83.46 input  -60.55 | X-H torsion
[ 11005 11000 10999 10996 ] final   93.11 input  -57.11 | X-H torsion

> <Gold.Protein.ActiveResidues>
 VAL166  LYS551  ARG553  GLY616  TRP617  ASP618  TYR619  PRO620  LYS621  CYS622 
 ASP623  PHE694  ASN695  SER759  ASP760  ASP761  ALA762  ILE779  LEU786  VAL792 
 PHE793  MET794  SER795  GLU796  ALA797  LYS798  CYS799  TRP800  GLU811  SER814 

> <Gold.Protein.RotatedAtoms>
  150.8651  134.8012  159.7112 H   0  0  0  0  0  0  0  0  0  0  0  0  # atno 6907 bound_to 6896
  152.4675  134.5037  159.9742 H   0  0  0  0  0  0  0  0  0  0  0  0  # atno 6908 bound_to 6896
  151.5134  133.3442  159.2924 H   0  0  0  0  0  0  0  0  0  0  0  0  # atno 6909 bound_to 6896
  145.9531  140.7553  142.9495 H   0  0  0  0  0  0  0  0  0  0  0  0  # atno 7974 bound_to 7965
  154.4047  140.1292  156.4531 H   0  0  0  0  0  0  0  0  0  0  0  0  # atno 8008 bound_to 7997
  155.7346  140.3491  155.5055 H   0  0  0  0  0  0  0  0  0  0  0  0  # atno 8009 bound_to 7997
  155.9095  140.1033  157.1280 H   0  0  0  0  0  0  0  0  0  0  0  0  # atno 8010 bound_to 7997
  139.4976  144.6058  151.6381 H   0  0  0  0  0  0  0  0  0  0  0  0  # atno 10167 bound_to 10162
  156.2096  130.6910  151.0635 H   0  0  0  0  0  0  0  0  0  0  0  0  # atno 10718 bound_to 10713
  153.1293  135.4690  154.9323 H   0  0  0  0  0  0  0  0  0  0  0  0  # atno 10763 bound_to 10752
  154.7649  135.3142  154.8307 H   0  0  0  0  0  0  0  0  0  0  0  0  # atno 10764 bound_to 10752
  153.8853  135.6890  153.4818 H   0  0  0  0  0  0  0  0  0  0  0  0  # atno 10765 bound_to 10752
  139.8814  134.8771  156.3670 H   0  0  0  0  0  0  0  0  0  0  0  0  # atno 11005 bound_to 11000
  144.6799  140.2467  143.7337 LP  0  0  0  0  0  0  0  0  0  0  0  0  # atno 17320 bound_to 7965
  145.8144  139.2017  143.1974 LP  0  0  0  0  0  0  0  0  0  0  0  0  # atno 17321 bound_to 7965
  140.5720  144.0093  150.6221 LP  0  0  0  0  0  0  0  0  0  0  0  0  # atno 17342 bound_to 10162
  140.3214  143.3135  152.0780 LP  0  0  0  0  0  0  0  0  0  0  0  0  # atno 17343 bound_to 10162
  157.7031  131.0767  150.6755 LP  0  0  0  0  0  0  0  0  0  0  0  0  # atno 17370 bound_to 10713
  156.6814  130.4568  149.5627 LP  0  0  0  0  0  0  0  0  0  0  0  0  # atno 17371 bound_to 10713
  140.9490  133.7463  156.0247 LP  0  0  0  0  0  0  0  0  0  0  0  0  # atno 17394 bound_to 11000
  140.8128  134.3379  157.5406 LP  0  0  0  0  0  0  0  0  0  0  0  0  # atno 17395 bound_to 11000

$$$$
