AV-unprocessed.smi:2758|AV-procd|sdf|10623|dock3
  -GOLD-   2272015 73D 1   1.00000     0.00000
 Structure written by MMmdl.
 32 33  0  0  0  0  0  0  0  0  1 V2000
  147.3513  142.0082  154.0579 C   0  0  0  0  0  0  0  0  0  0  0  0
  147.8379  141.0929  155.0239 O   0  0  0  0  0  0  0  0  0  0  0  0
  149.2251  141.2504  155.2734 C   0  0  0  0  0  0  0  0  0  0  0  0
  149.4336  141.6692  156.7379 C   0  0  2  0  0  0  0  0  0  0  0  0
  148.4114  142.5795  157.0949 O   0  0  0  0  0  0  0  0  0  0  0  0
  150.8069  142.3388  156.9514 C   0  0  0  0  0  0  0  0  0  0  0  0
  151.7347  141.5063  157.7065 N   0  0  0  0  0  0  0  0  0  0  0  0
  152.2412  140.2976  157.3597 C   0  0  0  0  0  0  0  0  0  0  0  0
  151.8858  139.6338  156.0673 C   0  0  0  0  0  0  0  0  0  0  0  0
  153.0780  139.7433  158.2371 N   0  0  0  0  0  0  0  0  0  0  0  0
  153.1219  140.6833  159.2489 C   0  0  0  0  0  0  0  0  0  0  0  0
  153.8359  140.6868  160.4686 C   0  0  0  0  0  0  0  0  0  0  0  0
  153.7242  141.7756  161.3580 C   0  0  0  0  0  0  0  0  0  0  0  0
  152.8985  142.8738  161.0416 C   0  0  0  0  0  0  0  0  0  0  0  0
  152.1781  142.8903  159.8318 C   0  0  0  0  0  0  0  0  0  0  0  0
  152.2931  141.8014  158.9470 C   0  0  0  0  0  0  0  0  0  0  0  0
  149.3597  140.7915  157.3803 H   0  0  0  0  0  0  0  0  0  0  0  0
  146.2839  141.8481  153.9063 H   0  0  0  0  0  0  0  0  0  0  0  0
  147.8517  141.8730  153.0981 H   0  0  0  0  0  0  0  0  0  0  0  0
  147.4931  143.0389  154.3855 H   0  0  0  0  0  0  0  0  0  0  0  0
  149.7120  140.2904  155.0943 H   0  0  0  0  0  0  0  0  0  0  0  0
  149.6749  141.9718  154.5884 H   0  0  0  0  0  0  0  0  0  0  0  0
  148.3971  143.2797  156.4608 H   0  0  0  0  0  0  0  0  0  0  0  0
  151.2613  142.5842  155.9912 H   0  0  0  0  0  0  0  0  0  0  0  0
  150.6864  143.2874  157.4760 H   0  0  0  0  0  0  0  0  0  0  0  0
  152.3656  138.6573  155.9950 H   0  0  0  0  0  0  0  0  0  0  0  0
  152.2195  140.2424  155.2268 H   0  0  0  0  0  0  0  0  0  0  0  0
  150.8081  139.4903  155.9955 H   0  0  0  0  0  0  0  0  0  0  0  0
  154.4704  139.8500  160.7205 H   0  0  0  0  0  0  0  0  0  0  0  0
  154.2741  141.7678  162.2875 H   0  0  0  0  0  0  0  0  0  0  0  0
  152.8178  143.7032  161.7289 H   0  0  0  0  0  0  0  0  0  0  0  0
  151.5435  143.7292  159.5885 H   0  0  0  0  0  0  0  0  0  0  0  0
  1  2  1  0  0  0  0
  1 18  1  0  0  0  0
  1 19  1  0  0  0  0
  1 20  1  0  0  0  0
  2  3  1  0  0  0  0
  3  4  1  0  0  0  0
  3 21  1  0  0  0  0
  3 22  1  0  0  0  0
  4 17  1  0  0  0  0
  4  5  1  0  0  0  0
  4  6  1  0  0  0  0
  5 23  1  0  0  0  0
  6  7  1  0  0  0  0
  6 24  1  0  0  0  0
  6 25  1  0  0  0  0
  7 16  1  0  0  0  0
  7  8  1  0  0  0  0
  8  9  1  0  0  0  0
  8 10  2  0  0  0  0
  9 26  1  0  0  0  0
  9 27  1  0  0  0  0
  9 28  1  0  0  0  0
 10 11  1  0  0  0  0
 11 16  2  0  0  0  0
 11 12  1  0  0  0  0
 12 13  2  0  0  0  0
 12 29  1  0  0  0  0
 13 14  1  0  0  0  0
 13 30  1  0  0  0  0
 14 15  2  0  0  0  0
 14 31  1  0  0  0  0
 15 16  1  0  0  0  0
 15 32  1  0  0  0  0
M  END
> <s_m_source_file>
AV-unprocessed.smi

> <i_m_source_file_index>
2758

> <i_lp_mmshare_version>
43012

> <i_f3d_flags>
0

> <s_epik_input>
W0NIM11PW0NIMl1bQ0BASF0oW09IXSlbQ0gyXW4oYyhuMSlbQ0gzXSljKGMxMilbY0hdW2NIXVtjSF1bY0hdMg==

> <s_epik_cmdline>
J2VwaWtfcHl0aG9uJywgJy1waCcsICc3LjAnLCAnLXRuJywgJzgnLCAnLW1hJywgJzIwMCcsICctbWV0YWxfYmluZGluZycsICctaW1hZScsICc8aW5maWxlLm1hZT4nLCAnLW9tYWUnLCAnPG91dGZpbGUubWFlPic=

> <r_epik_Ionization_Penalty>
0.126985

> <r_epik_Ionization_Penalty_Charging>
0

> <r_epik_Ionization_Penalty_Neutral>
0.126985

> <r_epik_State_Penalty>
0.116428

> <r_epik_Charging_Adjusted_Penalty>
0.116428

> <i_epik_Tot_Q>
0

> <i_epik_Tot_abs_Q>
0

> <r_epik_Metal_State_Penalty>
0.000128642

> <b_epik_Metal_Only>
0

> <s_lp_Force_Field>
OPLS_2005

> <r_lp_Energy>
9.16729

> <b_lp_Chiralities_Consistent>
1

> <s_lp_Variant>
AV-unprocessed.smi:2758-2

> <Gold.Version>
5.8.1

> <Gold.Id.Protein>
6NUR|6NUR_protein|mol2

> <Gold.PLP.Fitness>
39.3198

> <Gold.PLP.PLP>
-35.8348

> <Gold.PLP.part.hbond>
-2.0000

> <Gold.PLP.part.metal>
0.0000

> <Gold.PLP.part.buried>
-2.8221

> <Gold.PLP.part.nonpolar>
-30.6496

> <Gold.PLP.part.repulsive>
0.0944

> <Gold.PLP.ligand.clash>
0.0000

> <Gold.PLP.ligand.torsion>
1.2739

> <Gold.PLP.Chemscore.Hbond>
2.0000

> <Gold.PLP.Chemscore.CHOScore>
0.0000

> <Gold.PLP.Chemscore.Metal>
0.0000

> <Gold.Chemscore.Hbonds>
donor molecule, donor type, donor heavy atom, donor atom, acceptor molecule, acceptor atom, score
      L1  H     5    23       P1  8028  1.00
      P1  H  7997  8008       L1    10  0.80

> <Gold.PLP.Chemscore.Internal.Correction>
0.0329

> <Gold.Rescore>
     Score         DG    S(hbond)    S(metal)    S(lipo)     H(rot)  DE(clash)    DE(int)     intcor
     13.73     -14.96       1.04        0.00      96.12       2.05       0.11       1.12       ----

> <Gold.Chemscore.Fitness>
13.7335

> <Gold.Chemscore.DG>
-14.9592

> <Gold.Chemscore.ZeroCoef>
-5.4800

> <Gold.Chemscore.Hbond>
1.0433

> <Gold.Chemscore.Metal>
0.0000

> <Gold.Chemscore.Lipo>
96.1189

> <Gold.Chemscore.Internal_Hbond>
0.0000

> <Gold.Chemscore.DEClash>
0.1087

> <Gold.Chemscore.DEInternal>
1.1170

> <Gold.Chemscore.Rot>
2.0513

> <Gold.Chemscore.Internal.Correction>
   9.000000E+99

> <Gold.Chemscore.Hbonds>
donor molecule, donor type, donor heavy atom, donor atom, acceptor molecule, acceptor atom, score
      L1  H     5    23       P1  8028  0.55
      P1  H  7997  8008       L1    10  0.06

> <Gold.Chemscore.Hbond.Weighted>
-3.4847

> <Gold.Chemscore.Metal.Weighted>
-0.0000

> <Gold.Chemscore.Lipo.Weighted>
-11.2459

> <Gold.Chemscore.Internal_Hbond.Weighted>
0.0000

> <Gold.Chemscore.DEClash.Weighted>
0.1087

> <Gold.Chemscore.DEInternal.Weighted>
1.1170

> <Gold.Chemscore.Rot.Weighted>
5.2514

> <Gold.Chemscore.Internal.Correction.Weighted>
   9.000000E+99

> <Gold.Protein.RotatedTorsions>
[ 6907 6896 6895 6894 ] final   74.15 input  -60.11 | X-H torsion
[ 7974 7965 7964 7962 ] final   -6.67 input  175.53 | X-H torsion
[ 8008 7997 7996 7995 ] final  -96.99 input   59.86 | X-H torsion
[ 10167 10162 10161 10158 ] final  -71.23 input  -65.29 | X-H torsion
[ 10718 10713 10712 10709 ] final  138.98 input   66.30 | X-H torsion
[ 10763 10752 10751 10750 ] final  -64.39 input  -60.55 | X-H torsion
[ 11005 11000 10999 10996 ] final -153.19 input  -57.11 | X-H torsion

> <Gold.Protein.ActiveResidues>
 VAL166  LYS551  ARG553  GLY616  TRP617  ASP618  TYR619  PRO620  LYS621  CYS622 
 ASP623  PHE694  ASN695  SER759  ASP760  ASP761  ALA762  ILE779  LEU786  VAL792 
 PHE793  MET794  SER795  GLU796  ALA797  LYS798  CYS799  TRP800  GLU811  SER814 

> <Gold.Protein.RotatedAtoms>
  152.4961  134.4314  159.9513 H   0  0  0  0  0  0  0  0  0  0  0  0  # atno 6907 bound_to 6896
  151.4293  133.3669  159.2774 H   0  0  0  0  0  0  0  0  0  0  0  0  # atno 6908 bound_to 6896
  150.9166  134.8607  159.7521 H   0  0  0  0  0  0  0  0  0  0  0  0  # atno 6909 bound_to 6896
  146.2325  140.2205  142.8337 H   0  0  0  0  0  0  0  0  0  0  0  0  # atno 7974 bound_to 7965
  154.7818  140.0467  157.1133 H   0  0  0  0  0  0  0  0  0  0  0  0  # atno 8008 bound_to 7997
  154.9696  140.3088  155.4974 H   0  0  0  0  0  0  0  0  0  0  0  0  # atno 8009 bound_to 7997
  156.2937  140.2256  156.4787 H   0  0  0  0  0  0  0  0  0  0  0  0  # atno 8010 bound_to 7997
  140.5289  143.2323  151.7297 H   0  0  0  0  0  0  0  0  0  0  0  0  # atno 10167 bound_to 10162
  157.4194  131.1037  151.0369 H   0  0  0  0  0  0  0  0  0  0  0  0  # atno 10718 bound_to 10713
  154.3293  135.6180  153.5544 H   0  0  0  0  0  0  0  0  0  0  0  0  # atno 10763 bound_to 10752
  152.9813  135.5743  154.4980 H   0  0  0  0  0  0  0  0  0  0  0  0  # atno 10764 bound_to 10752
  154.4663  135.2857  155.1652 H   0  0  0  0  0  0  0  0  0  0  0  0  # atno 10765 bound_to 10752
  140.7108  134.3835  157.5198 H   0  0  0  0  0  0  0  0  0  0  0  0  # atno 11005 bound_to 11000
  144.9635  140.8299  143.5499 LP  0  0  0  0  0  0  0  0  0  0  0  0  # atno 17320 bound_to 7965
  145.2179  139.2173  143.5109 LP  0  0  0  0  0  0  0  0  0  0  0  0  # atno 17321 bound_to 7965
  139.4947  144.4143  152.0047 LP  0  0  0  0  0  0  0  0  0  0  0  0  # atno 17342 bound_to 10162
  140.3244  144.3390  150.6002 LP  0  0  0  0  0  0  0  0  0  0  0  0  # atno 17343 bound_to 10162
  157.1305  130.6100  149.5528 LP  0  0  0  0  0  0  0  0  0  0  0  0  # atno 17370 bound_to 10713
  155.9876  130.4915  150.7131 LP  0  0  0  0  0  0  0  0  0  0  0  0  # atno 17371 bound_to 10713
  139.8872  134.8889  156.2541 LP  0  0  0  0  0  0  0  0  0  0  0  0  # atno 17394 bound_to 11000
  141.0086  133.7109  156.1075 LP  0  0  0  0  0  0  0  0  0  0  0  0  # atno 17395 bound_to 11000

$$$$
