AV-unprocessed.smi:3050|AV-procd|sdf|11631|dock8
  -GOLD-   2272017 23D 1   1.00000     0.00000
 Structure written by MMmdl.
 45 46  0  0  0  0  0  0  0  0  1 V2000
  141.9229  135.5127  153.2748 C   0  0  0  0  0  0  0  0  0  0  0  0
  143.0137  136.5910  153.2566 C   0  0  0  0  0  0  0  0  0  0  0  0
  144.2169  136.2080  152.3743 C   0  0  2  0  0  0  0  0  0  0  0  0
  144.4832  134.8207  152.5785 O   0  0  0  0  0  0  0  0  0  0  0  0
  144.9828  134.0979  151.4570 C   0  0  0  0  0  0  0  0  0  0  0  0
  143.8611  133.2873  150.8110 C   0  0  0  0  0  0  0  0  0  0  0  0
  144.5835  132.1840  150.0326 C   0  0  0  0  0  0  0  0  0  0  0  0
  145.9228  131.9636  150.7536 C   0  0  0  0  0  0  0  0  0  0  0  0
  145.9968  133.0236  151.8596 C   0  0  0  0  0  0  0  0  0  0  0  0
  145.4547  137.0526  152.7191 C   0  0  0  0  0  0  0  0  0  0  0  0
  146.2029  136.7141  153.6364 O   0  0  0  0  0  0  0  0  0  0  0  0
  145.6631  138.1415  151.9628 N   0  0  0  0  0  0  0  0  0  0  0  0
  146.7762  139.0706  152.1150 C   0  0  0  0  0  0  0  0  0  0  0  0
  146.9112  139.5651  153.5641 C   0  0  0  0  0  0  0  0  0  0  0  0
  148.3490  139.6100  153.9983 C   0  0  0  0  0  0  0  0  0  0  0  0
  149.1150  140.7535  154.3639 C   0  0  0  0  0  0  0  0  0  0  0  0
  150.3601  140.4538  154.6961 N   0  0  0  0  0  0  0  0  0  0  0  0
  150.4323  139.1144  154.5550 N   0  0  0  0  0  0  0  0  0  0  0  0
  151.6767  138.4332  154.8414 C   0  0  0  0  0  0  0  0  0  0  0  0
  149.2338  138.5780  154.1361 C   0  0  0  0  0  0  0  0  0  0  0  0
  141.0831  135.8212  153.8977 H   0  0  0  0  0  0  0  0  0  0  0  0
  142.3033  134.5721  153.6738 H   0  0  0  0  0  0  0  0  0  0  0  0
  141.5410  135.3218  152.2718 H   0  0  0  0  0  0  0  0  0  0  0  0
  142.5749  137.5227  152.8965 H   0  0  0  0  0  0  0  0  0  0  0  0
  143.3454  136.7828  154.2782 H   0  0  0  0  0  0  0  0  0  0  0  0
  143.9452  136.3733  151.3296 H   0  0  0  0  0  0  0  0  0  0  0  0
  145.4128  134.7576  150.7007 H   0  0  0  0  0  0  0  0  0  0  0  0
  143.2389  132.8365  151.5857 H   0  0  0  0  0  0  0  0  0  0  0  0
  143.2137  133.8957  150.1786 H   0  0  0  0  0  0  0  0  0  0  0  0
  143.9886  131.2718  149.9797 H   0  0  0  0  0  0  0  0  0  0  0  0
  144.7689  132.5134  149.0096 H   0  0  0  0  0  0  0  0  0  0  0  0
  145.9959  130.9589  151.1713 H   0  0  0  0  0  0  0  0  0  0  0  0
  146.7487  132.0851  150.0513 H   0  0  0  0  0  0  0  0  0  0  0  0
  147.0035  133.4185  151.9887 H   0  0  0  0  0  0  0  0  0  0  0  0
  145.6961  132.5768  152.8083 H   0  0  0  0  0  0  0  0  0  0  0  0
  145.0001  138.3404  151.2278 H   0  0  0  0  0  0  0  0  0  0  0  0
  147.6871  138.5524  151.8140 H   0  0  0  0  0  0  0  0  0  0  0  0
  146.6574  139.9131  151.4313 H   0  0  0  0  0  0  0  0  0  0  0  0
  146.4616  140.5544  153.6546 H   0  0  0  0  0  0  0  0  0  0  0  0
  146.3335  138.9156  154.2228 H   0  0  0  0  0  0  0  0  0  0  0  0
  148.8036  141.7872  154.3960 H   0  0  0  0  0  0  0  0  0  0  0  0
  151.5908  137.3759  154.5894 H   0  0  0  0  0  0  0  0  0  0  0  0
  151.9126  138.5277  155.9017 H   0  0  0  0  0  0  0  0  0  0  0  0
  152.4831  138.8725  154.2535 H   0  0  0  0  0  0  0  0  0  0  0  0
  149.1105  137.5177  153.9711 H   0  0  0  0  0  0  0  0  0  0  0  0
  1  2  1  0  0  0  0
  1 21  1  0  0  0  0
  1 22  1  0  0  0  0
  1 23  1  0  0  0  0
  2  3  1  0  0  0  0
  2 24  1  0  0  0  0
  2 25  1  0  0  0  0
  3  4  1  0  0  0  0
  3 10  1  0  0  0  0
  3 26  1  0  0  0  0
  4  5  1  0  0  0  0
  5  9  1  0  0  0  0
  5  6  1  0  0  0  0
  5 27  1  0  0  0  0
  6  7  1  0  0  0  0
  6 28  1  0  0  0  0
  6 29  1  0  0  0  0
  7  8  1  0  0  0  0
  7 30  1  0  0  0  0
  7 31  1  0  0  0  0
  8  9  1  0  0  0  0
  8 32  1  0  0  0  0
  8 33  1  0  0  0  0
  9 34  1  0  0  0  0
  9 35  1  0  0  0  0
 10 11  2  0  0  0  0
 10 12  1  0  0  0  0
 12 13  1  0  0  0  0
 12 36  1  0  0  0  0
 13 14  1  0  0  0  0
 13 37  1  0  0  0  0
 13 38  1  0  0  0  0
 14 15  1  0  0  0  0
 14 39  1  0  0  0  0
 14 40  1  0  0  0  0
 15 20  2  0  0  0  0
 15 16  1  0  0  0  0
 16 17  2  0  0  0  0
 16 41  1  0  0  0  0
 17 18  1  0  0  0  0
 18 19  1  0  0  0  0
 18 20  1  0  0  0  0
 19 42  1  0  0  0  0
 19 43  1  0  0  0  0
 19 44  1  0  0  0  0
 20 45  1  0  0  0  0
M  END
> <s_m_source_file>
AV-unprocessed.smi

> <i_m_source_file_index>
3050

> <i_lp_mmshare_version>
43012

> <i_f3d_flags>
0

> <s_epik_input>
W0NIMl0xW0NIMl1bQ0gyXVtDSDJdW0NIXTFPW0NAQEhdKFtDSDJdW0NIM10pQyg9TylbTkhdW0NIMl1bQ0gyXWMyW2NIXW5uKFtDSDNdKVtjSF0y

> <s_epik_cmdline>
J2VwaWtfcHl0aG9uJywgJy1waCcsICc3LjAnLCAnLXRuJywgJzgnLCAnLW1hJywgJzIwMCcsICctbWV0YWxfYmluZGluZycsICctaW1hZScsICc8aW5maWxlLm1hZT4nLCAnLW9tYWUnLCAnPG91dGZpbGUubWFlPic=

> <r_lp_tautomer_probability>
1

> <r_epik_Ionization_Penalty>
0.000440265

> <r_epik_Ionization_Penalty_Charging>
0

> <r_epik_Ionization_Penalty_Neutral>
0.000440265

> <r_epik_State_Penalty>
-0

> <r_epik_Charging_Adjusted_Penalty>
0

> <i_epik_Tot_Q>
0

> <i_epik_Tot_abs_Q>
0

> <r_epik_Metal_State_Penalty>
-0

> <b_epik_Metal_Only>
0

> <s_lp_Force_Field>
OPLS_2005

> <r_lp_Energy>
20.5357

> <b_lp_Chiralities_Consistent>
1

> <s_lp_Variant>
AV-unprocessed.smi:3050-1

> <Gold.Version>
5.8.1

> <Gold.Id.Protein>
6NUR|6NUR_protein|mol2

> <Gold.PLP.Fitness>
46.0664

> <Gold.PLP.PLP>
-41.2515

> <Gold.PLP.part.hbond>
-2.7671

> <Gold.PLP.part.metal>
0.0000

> <Gold.PLP.part.buried>
-4.1594

> <Gold.PLP.part.nonpolar>
-35.3564

> <Gold.PLP.part.repulsive>
0.3344

> <Gold.PLP.ligand.clash>
0.0000

> <Gold.PLP.ligand.torsion>
2.1639

> <Gold.PLP.Chemscore.Hbond>
2.0000

> <Gold.PLP.Chemscore.CHOScore>
0.9972

> <Gold.PLP.Chemscore.Metal>
0.0000

> <Gold.Chemscore.Hbonds>
donor molecule, donor type, donor heavy atom, donor atom, acceptor molecule, acceptor atom, score
      L1  H    12    36       P1 10171  1.00
      P1  H  7989  7998       L1    17  0.90
      L1  C    20    45       P1  7948  1.00

> <Gold.PLP.Chemscore.Internal.Correction>
0.1511

> <Gold.Rescore>
     Score         DG    S(hbond)    S(metal)    S(lipo)     H(rot)  DE(clash)    DE(int)     intcor
     14.07     -17.54       1.64        0.00      96.34       1.83       0.47       3.00       ----

> <Gold.Chemscore.Fitness>
14.0742

> <Gold.Chemscore.DG>
-17.5438

> <Gold.Chemscore.ZeroCoef>
-5.4800

> <Gold.Chemscore.Hbond>
1.6387

> <Gold.Chemscore.Metal>
0.0000

> <Gold.Chemscore.Lipo>
96.3392

> <Gold.Chemscore.Internal_Hbond>
0.0000

> <Gold.Chemscore.DEClash>
0.4726

> <Gold.Chemscore.DEInternal>
2.9970

> <Gold.Chemscore.Rot>
1.8286

> <Gold.Chemscore.Internal.Correction>
   9.000000E+99

> <Gold.Chemscore.Hbonds>
donor molecule, donor type, donor heavy atom, donor atom, acceptor molecule, acceptor atom, score
      L1  H    12    36       P1 10171  1.00
      P1  H  7989  7998       L1    17  0.16

> <Gold.Chemscore.Hbond.Weighted>
-5.4732

> <Gold.Chemscore.Metal.Weighted>
-0.0000

> <Gold.Chemscore.Lipo.Weighted>
-11.2717

> <Gold.Chemscore.Internal_Hbond.Weighted>
0.0000

> <Gold.Chemscore.DEClash.Weighted>
0.4726

> <Gold.Chemscore.DEInternal.Weighted>
2.9970

> <Gold.Chemscore.Rot.Weighted>
4.6811

> <Gold.Chemscore.Internal.Correction.Weighted>
   9.000000E+99

> <Gold.Protein.RotatedTorsions>
[ 6907 6896 6895 6894 ] final -131.93 input  -60.11 | X-H torsion
[ 7974 7965 7964 7962 ] final  151.36 input  175.53 | X-H torsion
[ 8008 7997 7996 7995 ] final  109.48 input   59.86 | X-H torsion
[ 10167 10162 10161 10158 ] final  -50.76 input  -65.29 | X-H torsion
[ 10718 10713 10712 10709 ] final -123.45 input   66.30 | X-H torsion
[ 10763 10752 10751 10750 ] final  -77.20 input  -60.55 | X-H torsion
[ 11005 11000 10999 10996 ] final  145.74 input  -57.11 | X-H torsion

> <Gold.Protein.ActiveResidues>
 VAL166  LYS551  ARG553  GLY616  TRP617  ASP618  TYR619  PRO620  LYS621  CYS622 
 ASP623  PHE694  ASN695  SER759  ASP760  ASP761  ALA762  ILE779  LEU786  VAL792 
 PHE793  MET794  SER795  GLU796  ALA797  LYS798  CYS799  TRP800  GLU811  SER814 

> <Gold.Protein.RotatedAtoms>
  150.9566  133.6491  159.2761 H   0  0  0  0  0  0  0  0  0  0  0  0  # atno 6907 bound_to 6896
  151.3828  135.0941  159.9511 H   0  0  0  0  0  0  0  0  0  0  0  0  # atno 6908 bound_to 6896
  152.5131  133.9097  159.7536 H   0  0  0  0  0  0  0  0  0  0  0  0  # atno 6909 bound_to 6896
  144.8298  139.6528  143.6064 H   0  0  0  0  0  0  0  0  0  0  0  0  # atno 7974 bound_to 7965
  156.1982  140.3057  155.9471 H   0  0  0  0  0  0  0  0  0  0  0  0  # atno 8008 bound_to 7997
  155.3016  140.0447  157.3047 H   0  0  0  0  0  0  0  0  0  0  0  0  # atno 8009 bound_to 7997
  154.5537  140.2299  155.8454 H   0  0  0  0  0  0  0  0  0  0  0  0  # atno 8010 bound_to 7997
  140.6622  143.2645  151.4406 H   0  0  0  0  0  0  0  0  0  0  0  0  # atno 10167 bound_to 10162
  156.1503  130.6530  150.9904 H   0  0  0  0  0  0  0  0  0  0  0  0  # atno 10718 bound_to 10713
  154.5099  135.5772  153.6596 H   0  0  0  0  0  0  0  0  0  0  0  0  # atno 10763 bound_to 10752
  152.9895  135.6156  154.2893 H   0  0  0  0  0  0  0  0  0  0  0  0  # atno 10764 bound_to 10752
  154.2806  135.2851  155.2678 H   0  0  0  0  0  0  0  0  0  0  0  0  # atno 10765 bound_to 10752
  140.0736  134.9137  157.1386 H   0  0  0  0  0  0  0  0  0  0  0  0  # atno 11005 bound_to 11000
  146.2601  139.6392  142.9367 LP  0  0  0  0  0  0  0  0  0  0  0  0  # atno 17320 bound_to 7965
  145.4921  141.0438  143.2587 LP  0  0  0  0  0  0  0  0  0  0  0  0  # atno 17321 bound_to 7965
  139.5859  144.1606  152.2028 LP  0  0  0  0  0  0  0  0  0  0  0  0  # atno 17342 bound_to 10162
  140.0946  144.5592  150.7031 LP  0  0  0  0  0  0  0  0  0  0  0  0  # atno 17343 bound_to 10162
  157.6651  131.0873  150.7746 LP  0  0  0  0  0  0  0  0  0  0  0  0  # atno 17370 bound_to 10713
  156.7815  130.4861  149.5400 LP  0  0  0  0  0  0  0  0  0  0  0  0  # atno 17371 bound_to 10713
  140.3590  134.2515  155.7189 LP  0  0  0  0  0  0  0  0  0  0  0  0  # atno 17394 bound_to 11000
  141.2021  133.7946  157.0407 LP  0  0  0  0  0  0  0  0  0  0  0  0  # atno 17395 bound_to 11000

$$$$
