AV-unprocessed.smi:3110|AV-procd|sdf|11829|dock10
  -GOLD-   2272017203D 1   1.00000     0.00000
 Structure written by MMmdl.
 34 35  0  0  0  0  0  0  0  0  2 V2000
  149.4486  142.9381  159.0321 O   0  0  0  0  0  0  0  0  0  0  0  0
  150.5203  143.1616  158.4684 C   0  0  0  0  0  0  0  0  0  0  0  0
  151.3277  144.4188  158.8083 C   0  0  0  0  0  0  0  0  0  0  0  0
  152.4785  144.1514  159.8004 C   0  0  1  0  0  0  0  0  0  0  0  0
  151.9864  143.9845  161.2148 C   0  0  0  0  0  0  0  0  0  0  0  0
  152.4549  142.8823  161.7964 C   0  0  0  0  0  0  0  0  0  0  0  0
  153.3526  142.0896  160.8875 C   0  0  0  0  0  0  0  0  0  0  0  0
  153.2627  142.8370  159.5389 C   0  0  0  0  0  0  0  0  0  0  0  0
  151.0442  142.3475  157.5393 N   0  0  0  0  0  0  0  0  0  0  0  0
  150.4218  141.1178  157.0647 C   0  0  0  0  0  0  0  0  0  0  0  0
  150.2734  141.1168  155.5341 C   0  0  0  0  0  0  0  0  0  0  0  0
  150.5834  139.8065  154.9609 N   0  0  0  0  0  0  0  0  0  0  0  0
  151.7525  139.1002  155.0798 C   0  0  0  0  0  0  0  0  0  0  0  0
  151.5762  137.9337  154.3807 C   0  0  0  0  0  0  0  0  0  0  0  0
  150.3076  137.9772  153.8669 N   0  3  0  0  0  0  0  0  0  0  0  0
  149.7056  139.1174  154.2208 C   0  0  0  0  0  0  0  0  0  0  0  0
  151.7304  144.8190  157.8773 H   0  0  0  0  0  0  0  0  0  0  0  0
  150.6638  145.1852  159.2119 H   0  0  0  0  0  0  0  0  0  0  0  0
  153.1679  144.9971  159.8057 H   0  0  0  0  0  0  0  0  0  0  0  0
  151.3379  144.7075  161.6873 H   0  0  0  0  0  0  0  0  0  0  0  0
  152.2445  142.5749  162.8102 H   0  0  0  0  0  0  0  0  0  0  0  0
  154.3691  142.0897  161.2821 H   0  0  0  0  0  0  0  0  0  0  0  0
  153.0091  141.0579  160.8050 H   0  0  0  0  0  0  0  0  0  0  0  0
  152.7357  142.2102  158.8183 H   0  0  0  0  0  0  0  0  0  0  0  0
  154.2509  143.0374  159.1238 H   0  0  0  0  0  0  0  0  0  0  0  0
  151.9315  142.6020  157.1296 H   0  0  0  0  0  0  0  0  0  0  0  0
  151.0421  140.2781  157.3794 H   0  0  0  0  0  0  0  0  0  0  0  0
  149.4513  140.9841  157.5461 H   0  0  0  0  0  0  0  0  0  0  0  0
  149.2581  141.3826  155.2359 H   0  0  0  0  0  0  0  0  0  0  0  0
  150.9426  141.8495  155.0810 H   0  0  0  0  0  0  0  0  0  0  0  0
  152.6003  139.4701  155.6383 H   0  0  0  0  0  0  0  0  0  0  0  0
  152.2403  137.0976  154.2157 H   0  0  0  0  0  0  0  0  0  0  0  0
  148.7068  139.4212  153.9612 H   0  0  0  0  0  0  0  0  0  0  0  0
  149.8839  137.2530  153.3004 H   0  0  0  0  0  0  0  0  0  0  0  0
  1  2  2  0  0  0  0
  2  3  1  0  0  0  0
  2  9  1  0  0  0  0
  3  4  1  0  0  0  0
  3 17  1  0  0  0  0
  3 18  1  0  0  0  0
  4  8  1  0  0  0  0
  4  5  1  0  0  0  0
  4 19  1  0  0  0  0
  5  6  2  0  0  0  0
  5 20  1  0  0  0  0
  6  7  1  0  0  0  0
  6 21  1  0  0  0  0
  7  8  1  0  0  0  0
  7 22  1  0  0  0  0
  7 23  1  0  0  0  0
  8 24  1  0  0  0  0
  8 25  1  0  0  0  0
  9 10  1  0  0  0  0
  9 26  1  0  0  0  0
 10 11  1  0  0  0  0
 10 27  1  0  0  0  0
 10 28  1  0  0  0  0
 11 12  1  0  0  0  0
 11 29  1  0  0  0  0
 11 30  1  0  0  0  0
 12 16  1  0  0  0  0
 12 13  1  0  0  0  0
 13 14  2  0  0  0  0
 13 31  1  0  0  0  0
 14 15  1  0  0  0  0
 14 32  1  0  0  0  0
 15 16  2  0  0  0  0
 15 34  1  0  0  0  0
 16 33  1  0  0  0  0
M  CHG  1  15   1
M  END
> <s_m_source_file>
AV-unprocessed.smi

> <i_m_source_file_index>
3110

> <i_lp_mmshare_version>
43012

> <i_f3d_flags>
0

> <s_epik_input>
W0NIMl0xW0NIMl1bQ0hdPVtDSF1bQ0BIXTFbQ0gyXUMoPU8pW05IXVtDSDJdW0NIMl1uMltjSF1bY0hdbltjSF0y

> <s_epik_cmdline>
J2VwaWtfcHl0aG9uJywgJy1waCcsICc3LjAnLCAnLXRuJywgJzgnLCAnLW1hJywgJzIwMCcsICctbWV0YWxfYmluZGluZycsICctaW1hZScsICc8aW5maWxlLm1hZT4nLCAnLW9tYWUnLCAnPG91dGZpbGUubWFlPic=

> <r_lp_tautomer_probability>
1

> <r_epik_Ionization_Penalty>
0.271094

> <r_epik_Ionization_Penalty_Charging>
0

> <r_epik_Ionization_Penalty_Neutral>
0.271094

> <r_epik_State_Penalty>
0.263241

> <r_epik_Charging_Adjusted_Penalty>
0.263241

> <i_epik_Tot_Q>
1

> <i_epik_Tot_abs_Q>
1

> <r_epik_Metal_State_Penalty>
0.547832

> <b_epik_Metal_Only>
0

> <s_lp_Force_Field>
OPLS_2005

> <r_lp_Energy>
18.3702

> <b_lp_Chiralities_Consistent>
1

> <s_lp_Variant>
AV-unprocessed.smi:3110-2

> <Gold.Version>
5.8.1

> <Gold.Id.Protein>
6NUR|6NUR_protein|mol2

> <Gold.PLP.Fitness>
49.5413

> <Gold.PLP.PLP>
-45.0072

> <Gold.PLP.part.hbond>
-2.1804

> <Gold.PLP.part.metal>
0.0000

> <Gold.PLP.part.buried>
-4.5209

> <Gold.PLP.part.nonpolar>
-39.0984

> <Gold.PLP.part.repulsive>
0.2252

> <Gold.PLP.ligand.clash>
0.0000

> <Gold.PLP.ligand.torsion>
0.7518

> <Gold.PLP.Chemscore.Hbond>
2.0000

> <Gold.PLP.Chemscore.CHOScore>
0.0000

> <Gold.PLP.Chemscore.Metal>
0.0000

> <Gold.Chemscore.Hbonds>
donor molecule, donor type, donor heavy atom, donor atom, acceptor molecule, acceptor atom, score
      L1  H    15    34       P1  7948  2.00

> <Gold.PLP.Chemscore.Internal.Correction>
0.0376

> <Gold.Rescore>
     Score         DG    S(hbond)    S(metal)    S(lipo)     H(rot)  DE(clash)    DE(int)     intcor
     14.62     -15.35       0.97        0.00     102.40       2.10       0.08       0.65       ----

> <Gold.Chemscore.Fitness>
14.6199

> <Gold.Chemscore.DG>
-15.3472

> <Gold.Chemscore.ZeroCoef>
-5.4800

> <Gold.Chemscore.Hbond>
0.9740

> <Gold.Chemscore.Metal>
0.0000

> <Gold.Chemscore.Lipo>
102.3967

> <Gold.Chemscore.Internal_Hbond>
0.0000

> <Gold.Chemscore.DEClash>
0.0782

> <Gold.Chemscore.DEInternal>
0.6491

> <Gold.Chemscore.Rot>
2.0963

> <Gold.Chemscore.Internal.Correction>
   9.000000E+99

> <Gold.Chemscore.Hbonds>
donor molecule, donor type, donor heavy atom, donor atom, acceptor molecule, acceptor atom, score
      L1  H    15    34       P1  7948  0.39

> <Gold.Chemscore.Hbond.Weighted>
-3.2532

> <Gold.Chemscore.Metal.Weighted>
-0.0000

> <Gold.Chemscore.Lipo.Weighted>
-11.9804

> <Gold.Chemscore.Internal_Hbond.Weighted>
0.0000

> <Gold.Chemscore.DEClash.Weighted>
0.0782

> <Gold.Chemscore.DEInternal.Weighted>
0.6491

> <Gold.Chemscore.Rot.Weighted>
5.3665

> <Gold.Chemscore.Internal.Correction.Weighted>
   9.000000E+99

> <Gold.Protein.RotatedTorsions>
[ 6907 6896 6895 6894 ] final   20.10 input  -60.11 | X-H torsion
[ 7974 7965 7964 7962 ] final  154.88 input  175.53 | X-H torsion
[ 8008 7997 7996 7995 ] final  104.66 input   59.86 | X-H torsion
[ 10167 10162 10161 10158 ] final  168.17 input  -65.29 | X-H torsion
[ 10718 10713 10712 10709 ] final -171.45 input   66.30 | X-H torsion
[ 10763 10752 10751 10750 ] final  150.32 input  -60.55 | X-H torsion
[ 11005 11000 10999 10996 ] final  -21.66 input  -57.11 | X-H torsion

> <Gold.Protein.ActiveResidues>
 VAL166  LYS551  ARG553  GLY616  TRP617  ASP618  TYR619  PRO620  LYS621  CYS622 
 ASP623  PHE694  ASN695  SER759  ASP760  ASP761  ALA762  ILE779  LEU786  VAL792 
 PHE793  MET794  SER795  GLU796  ALA797  LYS798  CYS799  TRP800  GLU811  SER814 

> <Gold.Protein.RotatedAtoms>
  151.8911  135.0416  160.0497 H   0  0  0  0  0  0  0  0  0  0  0  0  # atno 6907 bound_to 6896
  152.2435  133.5150  159.5292 H   0  0  0  0  0  0  0  0  0  0  0  0  # atno 6908 bound_to 6896
  150.7061  134.0974  159.3996 H   0  0  0  0  0  0  0  0  0  0  0  0  # atno 6909 bound_to 6896
  144.8060  139.6993  143.6162 H   0  0  0  0  0  0  0  0  0  0  0  0  # atno 7974 bound_to 7965
  156.1592  140.3144  155.8779 H   0  0  0  0  0  0  0  0  0  0  0  0  # atno 8008 bound_to 7997
  155.3816  140.0488  157.3060 H   0  0  0  0  0  0  0  0  0  0  0  0  # atno 8009 bound_to 7997
  154.5131  140.2171  155.9130 H   0  0  0  0  0  0  0  0  0  0  0  0  # atno 8010 bound_to 7997
  139.4962  144.3843  151.9588 H   0  0  0  0  0  0  0  0  0  0  0  0  # atno 10167 bound_to 10162
  156.7410  130.9342  151.3110 H   0  0  0  0  0  0  0  0  0  0  0  0  # atno 10718 bound_to 10713
  154.0856  135.2856  155.3282 H   0  0  0  0  0  0  0  0  0  0  0  0  # atno 10763 bound_to 10752
  154.6655  135.5319  153.8074 H   0  0  0  0  0  0  0  0  0  0  0  0  # atno 10764 bound_to 10752
  153.0432  135.6544  154.1028 H   0  0  0  0  0  0  0  0  0  0  0  0  # atno 10765 bound_to 10752
  140.8582  133.7807  156.0044 H   0  0  0  0  0  0  0  0  0  0  0  0  # atno 11005 bound_to 11000
  146.2352  139.5890  142.9529 LP  0  0  0  0  0  0  0  0  0  0  0  0  # atno 17320 bound_to 7965
  145.5437  141.0419  143.2317 LP  0  0  0  0  0  0  0  0  0  0  0  0  # atno 17321 bound_to 7965
  140.3280  144.3350  150.5994 LP  0  0  0  0  0  0  0  0  0  0  0  0  # atno 17342 bound_to 10162
  140.5668  143.2185  151.7668 LP  0  0  0  0  0  0  0  0  0  0  0  0  # atno 17343 bound_to 10162
  157.6818  130.9147  150.0286 LP  0  0  0  0  0  0  0  0  0  0  0  0  # atno 17370 bound_to 10713
  156.1464  130.3642  149.9504 LP  0  0  0  0  0  0  0  0  0  0  0  0  # atno 17371 bound_to 10713
  140.8712  134.2723  157.5189 LP  0  0  0  0  0  0  0  0  0  0  0  0  # atno 17394 bound_to 11000
  139.8706  134.9568  156.4250 LP  0  0  0  0  0  0  0  0  0  0  0  0  # atno 17395 bound_to 11000

$$$$
