AV-unprocessed.smi:1762|AV-procd|sdf|7112|dock6
  -GOLD-   22720 8333D 1   1.00000     0.00000
 Structure written by MMmdl.
 53 54  0  0  0  0  0  0  0  0  2 V2000
  145.2123  132.0677  150.2823 C   0  0  0  0  0  0  0  0  0  0  0  0
  145.4447  132.9324  151.5261 C   0  0  1  0  0  0  0  0  0  0  0  0
  146.6104  133.9235  151.3332 C   0  0  0  0  0  0  0  0  0  0  0  0
  146.7890  134.7873  152.5328 N   0  3  2  0  0  0  0  0  0  0  0  0
  147.4150  134.1405  153.7406 C   0  0  2  0  0  0  0  0  0  0  0  0
  147.8643  135.2003  154.7688 C   0  0  0  0  0  0  0  0  0  0  0  0
  147.3936  135.1986  155.9068 O   0  0  0  0  0  0  0  0  0  0  0  0
  148.7730  136.0963  154.3524 N   0  0  0  0  0  0  0  0  0  0  0  0
  149.3199  137.1741  155.1676 C   0  0  0  0  0  0  0  0  0  0  0  0
  150.1684  138.1446  154.3299 C   0  0  0  0  0  0  0  0  0  0  0  0
  150.4721  139.4275  155.0800 C   0  0  0  0  0  0  0  0  0  0  0  0
  151.4174  139.4430  156.1275 C   0  0  0  0  0  0  0  0  0  0  0  0
  151.6524  140.6574  156.8012 C   0  0  0  0  0  0  0  0  0  0  0  0
  150.9356  141.8027  156.4043 C   0  0  0  0  0  0  0  0  0  0  0  0
  150.0111  141.6821  155.3476 C   0  0  0  0  0  0  0  0  0  0  0  0
  149.7776  140.5221  154.6960 N   0  0  0  0  0  0  0  0  0  0  0  0
  148.5927  133.1648  153.4042 C   0  0  0  0  0  0  0  0  0  0  0  0
  148.1258  131.7281  153.0954 C   0  0  0  0  0  0  0  0  0  0  0  0
  149.7119  133.1394  154.4658 C   0  0  0  0  0  0  0  0  0  0  0  0
  145.4965  135.4841  152.7957 C   0  0  0  0  0  0  0  0  0  0  0  0
  144.3302  134.4822  152.9438 C   0  0  1  0  0  0  0  0  0  0  0  0
  142.9835  135.1925  153.1175 C   0  0  0  0  0  0  0  0  0  0  0  0
  144.2540  133.6728  151.7747 O   0  0  0  0  0  0  0  0  0  0  0  0
  146.0934  131.4691  150.0502 H   0  0  0  0  0  0  0  0  0  0  0  0
  144.9854  132.6819  149.4102 H   0  0  0  0  0  0  0  0  0  0  0  0
  144.3772  131.3836  150.4334 H   0  0  0  0  0  0  0  0  0  0  0  0
  145.6450  132.2713  152.3704 H   0  0  0  0  0  0  0  0  0  0  0  0
  147.5246  133.4103  151.0439 H   0  0  0  0  0  0  0  0  0  0  0  0
  146.3833  134.5740  150.4872 H   0  0  0  0  0  0  0  0  0  0  0  0
  146.6435  133.5371  154.2191 H   0  0  0  0  0  0  0  0  0  0  0  0
  149.1057  136.0321  153.4010 H   0  0  0  0  0  0  0  0  0  0  0  0
  148.5131  137.7068  155.6743 H   0  0  0  0  0  0  0  0  0  0  0  0
  149.9347  136.7265  155.9492 H   0  0  0  0  0  0  0  0  0  0  0  0
  151.1058  137.6677  154.0400 H   0  0  0  0  0  0  0  0  0  0  0  0
  149.6530  138.3936  153.4008 H   0  0  0  0  0  0  0  0  0  0  0  0
  151.9486  138.5464  156.4120 H   0  0  0  0  0  0  0  0  0  0  0  0
  152.3679  140.7090  157.6084 H   0  0  0  0  0  0  0  0  0  0  0  0
  151.0895  142.7509  156.8982 H   0  0  0  0  0  0  0  0  0  0  0  0
  149.4434  142.5396  155.0178 H   0  0  0  0  0  0  0  0  0  0  0  0
  149.0394  133.4971  152.4683 H   0  0  0  0  0  0  0  0  0  0  0  0
  147.7531  131.2174  153.9840 H   0  0  0  0  0  0  0  0  0  0  0  0
  148.9479  131.1292  152.7022 H   0  0  0  0  0  0  0  0  0  0  0  0
  147.3328  131.7223  152.3472 H   0  0  0  0  0  0  0  0  0  0  0  0
  149.3678  132.7064  155.4052 H   0  0  0  0  0  0  0  0  0  0  0  0
  150.0940  134.1363  154.6831 H   0  0  0  0  0  0  0  0  0  0  0  0
  150.5552  132.5390  154.1236 H   0  0  0  0  0  0  0  0  0  0  0  0
  145.5481  136.1388  153.6649 H   0  0  0  0  0  0  0  0  0  0  0  0
  145.2951  136.1452  151.9514 H   0  0  0  0  0  0  0  0  0  0  0  0
  144.4874  133.8415  153.8120 H   0  0  0  0  0  0  0  0  0  0  0  0
  142.9821  135.8153  154.0125 H   0  0  0  0  0  0  0  0  0  0  0  0
  142.1712  134.4717  153.2140 H   0  0  0  0  0  0  0  0  0  0  0  0
  142.7601  135.8329  152.2637 H   0  0  0  0  0  0  0  0  0  0  0  0
  147.4453  135.5062  152.2616 H   0  0  0  0  0  0  0  0  0  0  0  0
  1  2  1  0  0  0  0
  1 24  1  0  0  0  0
  1 25  1  0  0  0  0
  1 26  1  0  0  0  0
  2 23  1  0  0  0  0
  2  3  1  0  0  0  0
  2 27  1  0  0  0  0
  3  4  1  0  0  0  0
  3 28  1  0  0  0  0
  3 29  1  0  0  0  0
  4  5  1  0  0  0  0
  4 20  1  0  0  0  0
  4 53  1  0  0  0  0
  5  6  1  0  0  0  0
  5 17  1  0  0  0  0
  5 30  1  0  0  0  0
  6  7  2  0  0  0  0
  6  8  1  0  0  0  0
  8  9  1  0  0  0  0
  8 31  1  0  0  0  0
  9 10  1  0  0  0  0
  9 32  1  0  0  0  0
  9 33  1  0  0  0  0
 10 11  1  0  0  0  0
 10 34  1  0  0  0  0
 10 35  1  0  0  0  0
 11 16  1  0  0  0  0
 11 12  2  0  0  0  0
 12 13  1  0  0  0  0
 12 36  1  0  0  0  0
 13 14  2  0  0  0  0
 13 37  1  0  0  0  0
 14 15  1  0  0  0  0
 14 38  1  0  0  0  0
 15 16  2  0  0  0  0
 15 39  1  0  0  0  0
 17 18  1  0  0  0  0
 17 19  1  0  0  0  0
 17 40  1  0  0  0  0
 18 41  1  0  0  0  0
 18 42  1  0  0  0  0
 18 43  1  0  0  0  0
 19 44  1  0  0  0  0
 19 45  1  0  0  0  0
 19 46  1  0  0  0  0
 20 21  1  0  0  0  0
 20 47  1  0  0  0  0
 20 48  1  0  0  0  0
 21 22  1  0  0  0  0
 21 23  1  0  0  0  0
 21 49  1  0  0  0  0
 22 50  1  0  0  0  0
 22 51  1  0  0  0  0
 22 52  1  0  0  0  0
M  CHG  1   4   1
M  END
> <s_m_source_file>
AV-unprocessed.smi

> <i_m_source_file_index>
1762

> <i_lp_mmshare_version>
43012

> <i_f3d_flags>
0

> <s_epik_input>
W0NIM11bQ0BASF0xW0NIMl1OKFtDSDJdW0NASF0oTzEpW0NIM10pW0NAQEhdKFtDSF0oW0NIM10pW0NIM10pQyg9TylbTkhdW0NIMl1bQ0gyXWMyW2NIXVtjSF1bY0hdW2NIXW4y

> <s_epik_cmdline>
J2VwaWtfcHl0aG9uJywgJy1waCcsICc3LjAnLCAnLXRuJywgJzgnLCAnLW1hJywgJzIwMCcsICctbWV0YWxfYmluZGluZycsICctaW1hZScsICc8aW5maWxlLm1hZT4nLCAnLW9tYWUnLCAnPG91dGZpbGUubWFlPic=

> <r_epik_Ionization_Penalty>
2.27005

> <r_epik_Ionization_Penalty_Charging>
2.24983

> <r_epik_Ionization_Penalty_Neutral>
0.0202209

> <r_epik_State_Penalty>
2.40228

> <r_epik_Charging_Adjusted_Penalty>
4.65211

> <i_epik_Tot_Q>
1

> <i_epik_Tot_abs_Q>
1

> <r_epik_Metal_State_Penalty>
2.40762

> <b_epik_Metal_Only>
0

> <s_lp_Force_Field>
OPLS_2005

> <r_lp_Energy>
22.1735

> <b_lp_Chiralities_Consistent>
1

> <s_lp_Variant>
AV-unprocessed.smi:1762-14

> <Gold.Version>
5.8.1

> <Gold.Id.Protein>
6NUR|6NUR_protein|mol2

> <Gold.PLP.Fitness>
47.1688

> <Gold.PLP.PLP>
-37.4822

> <Gold.PLP.part.hbond>
-3.0000

> <Gold.PLP.part.metal>
0.0000

> <Gold.PLP.part.buried>
-3.7253

> <Gold.PLP.part.nonpolar>
-29.8638

> <Gold.PLP.part.repulsive>
0.2562

> <Gold.PLP.ligand.clash>
0.0000

> <Gold.PLP.ligand.torsion>
1.3786

> <Gold.PLP.Chemscore.Hbond>
3.0865

> <Gold.PLP.Chemscore.CHOScore>
1.0000

> <Gold.PLP.Chemscore.Metal>
0.0000

> <Gold.Chemscore.Hbonds>
donor molecule, donor type, donor heavy atom, donor atom, acceptor molecule, acceptor atom, score
      L1  H     4    53       P1  7948  2.00
      L1  H     8    31       P1  7948  1.00
      P1  H  7989  7998       L1    16  0.02
      L1  C    15    39       P1  8028  1.00

> <Gold.PLP.Chemscore.Internal.Correction>
0.1844

> <Gold.Rescore>
     Score         DG    S(hbond)    S(metal)    S(lipo)     H(rot)  DE(clash)    DE(int)     intcor
     17.46     -18.76       1.95        0.00      94.38       1.66       0.00       1.30       ----

> <Gold.Chemscore.Fitness>
17.4573

> <Gold.Chemscore.DG>
-18.7600

> <Gold.Chemscore.ZeroCoef>
-5.4800

> <Gold.Chemscore.Hbond>
1.9450

> <Gold.Chemscore.Metal>
0.0000

> <Gold.Chemscore.Lipo>
94.3788

> <Gold.Chemscore.Internal_Hbond>
0.0000

> <Gold.Chemscore.DEClash>
0.0000

> <Gold.Chemscore.DEInternal>
1.3027

> <Gold.Chemscore.Rot>
1.6635

> <Gold.Chemscore.Internal.Correction>
   9.000000E+99

> <Gold.Chemscore.Hbonds>
donor molecule, donor type, donor heavy atom, donor atom, acceptor molecule, acceptor atom, score
      L1  H     4    53       P1  7948  0.99
      L1  H     8    31       P1  7948  0.83

> <Gold.Chemscore.Hbond.Weighted>
-6.4963

> <Gold.Chemscore.Metal.Weighted>
-0.0000

> <Gold.Chemscore.Lipo.Weighted>
-11.0423

> <Gold.Chemscore.Internal_Hbond.Weighted>
0.0000

> <Gold.Chemscore.DEClash.Weighted>
0.0000

> <Gold.Chemscore.DEInternal.Weighted>
1.3027

> <Gold.Chemscore.Rot.Weighted>
4.2586

> <Gold.Chemscore.Internal.Correction.Weighted>
   9.000000E+99

> <Gold.Protein.RotatedTorsions>
[ 6907 6896 6895 6894 ] final  -23.13 input  -60.11 | X-H torsion
[ 7974 7965 7964 7962 ] final  128.96 input  175.53 | X-H torsion
[ 8008 7997 7996 7995 ] final -171.38 input   59.86 | X-H torsion
[ 10167 10162 10161 10158 ] final -144.04 input  -65.29 | X-H torsion
[ 10718 10713 10712 10709 ] final  -49.93 input   66.30 | X-H torsion
[ 10763 10752 10751 10750 ] final  -86.35 input  -60.55 | X-H torsion
[ 11005 11000 10999 10996 ] final -102.01 input  -57.11 | X-H torsion

> <Gold.Protein.ActiveResidues>
 VAL166  LYS551  ARG553  GLY616  TRP617  ASP618  TYR619  PRO620  LYS621  CYS622 
 ASP623  PHE694  ASN695  SER759  ASP760  ASP761  ALA762  ILE779  LEU786  VAL792 
 PHE793  MET794  SER795  GLU796  ALA797  LYS798  CYS799  TRP800  GLU811  SER814 

> <Gold.Protein.RotatedAtoms>
  151.2085  135.0471  159.8901 H   0  0  0  0  0  0  0  0  0  0  0  0  # atno 6907 bound_to 6896
  152.5427  134.0771  159.8229 H   0  0  0  0  0  0  0  0  0  0  0  0  # atno 6908 bound_to 6896
  151.0921  133.5260  159.2646 H   0  0  0  0  0  0  0  0  0  0  0  0  # atno 6909 bound_to 6896
  145.0339  139.4022  143.5136 H   0  0  0  0  0  0  0  0  0  0  0  0  # atno 7974 bound_to 7965
  155.9308  140.1091  157.1133 H   0  0  0  0  0  0  0  0  0  0  0  0  # atno 8008 bound_to 7997
  154.4070  140.1238  156.4866 H   0  0  0  0  0  0  0  0  0  0  0  0  # atno 8009 bound_to 7997
  155.7082  140.3471  155.4964 H   0  0  0  0  0  0  0  0  0  0  0  0  # atno 8010 bound_to 7997
  139.7936  143.7931  152.2652 H   0  0  0  0  0  0  0  0  0  0  0  0  # atno 10167 bound_to 10162
  156.1848  130.4151  149.9455 H   0  0  0  0  0  0  0  0  0  0  0  0  # atno 10718 bound_to 10713
  154.6215  135.5452  153.7580 H   0  0  0  0  0  0  0  0  0  0  0  0  # atno 10763 bound_to 10752
  153.0240  135.6414  154.1433 H   0  0  0  0  0  0  0  0  0  0  0  0  # atno 10764 bound_to 10752
  154.1368  135.2911  155.3151 H   0  0  0  0  0  0  0  0  0  0  0  0  # atno 10765 bound_to 10752
  141.1207  133.8524  157.1305 H   0  0  0  0  0  0  0  0  0  0  0  0  # atno 11005 bound_to 11000
  146.3502  139.9904  142.8686 LP  0  0  0  0  0  0  0  0  0  0  0  0  # atno 17320 bound_to 7965
  145.1735  140.9732  143.4308 LP  0  0  0  0  0  0  0  0  0  0  0  0  # atno 17321 bound_to 7965
  139.8030  144.7366  150.9799 LP  0  0  0  0  0  0  0  0  0  0  0  0  # atno 17342 bound_to 10162
  140.7820  143.4326  151.0671 LP  0  0  0  0  0  0  0  0  0  0  0  0  # atno 17343 bound_to 10162
  156.7214  130.9008  151.3618 LP  0  0  0  0  0  0  0  0  0  0  0  0  # atno 17370 bound_to 10713
  157.6891  130.9216  150.0466 LP  0  0  0  0  0  0  0  0  0  0  0  0  # atno 17371 bound_to 10713
  140.0162  134.9966  157.0499 LP  0  0  0  0  0  0  0  0  0  0  0  0  # atno 17394 bound_to 11000
  140.4515  134.1577  155.7182 LP  0  0  0  0  0  0  0  0  0  0  0  0  # atno 17395 bound_to 11000

$$$$
