AV-unprocessed.smi:91|AV-procd|sdf|839|dock6
  -GOLD-   2262017273D 1   1.00000     0.00000
 Structure written by MMmdl.
 60 63  0  0  0  0  0  0  0  0  1 V2000
  150.7982  131.2368  158.6387 C   0  0  0  0  0  0  0  0  0  0  0  0
  149.9979  132.4055  158.6535 O   0  0  0  0  0  0  0  0  0  0  0  0
  148.6121  132.1196  158.5484 C   0  0  0  0  0  0  0  0  0  0  0  0
  147.7914  133.3484  158.9632 C   0  0  2  0  0  0  0  0  0  0  0  0
  148.4224  134.6751  158.5010 C   0  0  0  0  0  0  0  0  0  0  0  0
  147.6634  135.7956  159.0350 N   0  0  0  0  0  0  0  0  0  0  0  0
  148.0486  136.9894  158.5374 C   0  0  0  0  0  0  0  0  0  0  0  0
  147.1688  137.7541  157.8385 N   0  0  0  0  0  0  0  0  0  0  0  0
  147.5560  138.9364  157.3495 C   0  0  0  0  0  0  0  0  0  0  0  0
  148.7499  139.5277  157.4415 N   0  0  0  0  0  0  0  0  0  0  0  0
  149.6315  138.7588  158.1437 C   0  0  0  0  0  0  0  0  0  0  0  0
  149.3635  137.4882  158.7240 C   0  0  0  0  0  0  0  0  0  0  0  0
  150.4986  137.0035  159.3612 N   0  0  0  0  0  0  0  0  0  0  0  0
  151.3923  137.9348  159.1635 C   0  0  0  0  0  0  0  0  0  0  0  0
  150.9583  139.0210  158.4368 N   0  0  0  0  0  0  0  0  0  0  0  0
  151.7427  140.1872  158.0690 C   0  0  0  0  0  0  0  0  0  0  0  0
  152.1631  141.0514  159.2840 C   0  0  1  0  0  0  0  0  0  0  0  0
  153.2916  140.4032  160.1234 C   0  0  0  0  0  0  0  0  0  0  0  0
  154.1919  139.6787  159.3104 O   0  0  0  0  0  0  0  0  0  0  0  0
  152.5095  142.5009  158.8582 C   0  0  1  0  0  0  0  0  0  0  0  0
  151.5574  143.1147  157.8468 C   0  0  0  0  0  0  0  0  0  0  0  0
  151.8649  144.6013  157.9830 C   0  0  0  0  0  0  0  0  0  0  0  0
  152.1919  144.7970  159.3537 O   0  0  0  0  0  0  0  0  0  0  0  0
  152.4280  143.5402  159.9819 C   0  0  0  0  0  0  0  0  0  0  0  0
  147.5606  135.7528  160.4882 C   0  0  0  0  0  0  0  0  0  0  0  0
  146.9213  134.4260  160.9541 C   0  0  0  0  0  0  0  0  0  0  0  0
  147.0817  134.2777  162.4749 C   0  0  0  0  0  0  0  0  0  0  0  0
  145.4230  134.3491  160.5914 C   0  0  0  0  0  0  0  0  0  0  0  0
  147.6456  133.3294  160.3846 O   0  0  0  0  0  0  0  0  0  0  0  0
  151.8498  131.5120  158.7196 H   0  0  0  0  0  0  0  0  0  0  0  0
  150.6663  130.6800  157.7101 H   0  0  0  0  0  0  0  0  0  0  0  0
  150.5564  130.5825  159.4771 H   0  0  0  0  0  0  0  0  0  0  0  0
  148.3721  131.8469  157.5196 H   0  0  0  0  0  0  0  0  0  0  0  0
  148.3520  131.2687  159.1801 H   0  0  0  0  0  0  0  0  0  0  0  0
  146.8061  133.2479  158.5080 H   0  0  0  0  0  0  0  0  0  0  0  0
  149.4552  134.7453  158.8451 H   0  0  0  0  0  0  0  0  0  0  0  0
  148.4415  134.7217  157.4111 H   0  0  0  0  0  0  0  0  0  0  0  0
  146.8023  139.4862  156.8056 H   0  0  0  0  0  0  0  0  0  0  0  0
  152.4016  137.8530  159.5401 H   0  0  0  0  0  0  0  0  0  0  0  0
  152.6236  139.8545  157.5189 H   0  0  0  0  0  0  0  0  0  0  0  0
  151.1493  140.7749  157.3687 H   0  0  0  0  0  0  0  0  0  0  0  0
  151.2936  141.1103  159.9403 H   0  0  0  0  0  0  0  0  0  0  0  0
  153.8514  141.1608  160.6713 H   0  0  0  0  0  0  0  0  0  0  0  0
  152.8841  139.7315  160.8790 H   0  0  0  0  0  0  0  0  0  0  0  0
  153.8719  138.7931  159.2239 H   0  0  0  0  0  0  0  0  0  0  0  0
  153.5159  142.5264  158.4367 H   0  0  0  0  0  0  0  0  0  0  0  0
  151.7109  142.7497  156.8309 H   0  0  0  0  0  0  0  0  0  0  0  0
  150.5213  142.9207  158.1283 H   0  0  0  0  0  0  0  0  0  0  0  0
  152.7328  144.8660  157.3773 H   0  0  0  0  0  0  0  0  0  0  0  0
  151.0308  145.2323  157.6758 H   0  0  0  0  0  0  0  0  0  0  0  0
  151.5879  143.3301  160.6452 H   0  0  0  0  0  0  0  0  0  0  0  0
  153.3348  143.5704  160.5867 H   0  0  0  0  0  0  0  0  0  0  0  0
  148.5590  135.8500  160.9177 H   0  0  0  0  0  0  0  0  0  0  0  0
  146.9757  136.6018  160.8461 H   0  0  0  0  0  0  0  0  0  0  0  0
  146.5786  135.0853  163.0077 H   0  0  0  0  0  0  0  0  0  0  0  0
  148.1329  134.2944  162.7648 H   0  0  0  0  0  0  0  0  0  0  0  0
  146.6600  133.3355  162.8262 H   0  0  0  0  0  0  0  0  0  0  0  0
  144.8558  135.1174  161.1175 H   0  0  0  0  0  0  0  0  0  0  0  0
  145.0014  133.3823  160.8671 H   0  0  0  0  0  0  0  0  0  0  0  0
  145.2423  134.4972  159.5271 H   0  0  0  0  0  0  0  0  0  0  0  0
  1  2  1  0  0  0  0
  1 30  1  0  0  0  0
  1 31  1  0  0  0  0
  1 32  1  0  0  0  0
  2  3  1  0  0  0  0
  3  4  1  0  0  0  0
  3 33  1  0  0  0  0
  3 34  1  0  0  0  0
  4 29  1  0  0  0  0
  4  5  1  0  0  0  0
  4 35  1  0  0  0  0
  5  6  1  0  0  0  0
  5 36  1  0  0  0  0
  5 37  1  0  0  0  0
  6  7  1  0  0  0  0
  6 25  1  0  0  0  0
  7 12  1  0  0  0  0
  7  8  2  0  0  0  0
  8  9  1  0  0  0  0
  9 10  2  0  0  0  0
  9 38  1  0  0  0  0
 10 11  1  0  0  0  0
 11 15  1  0  0  0  0
 11 12  2  0  0  0  0
 12 13  1  0  0  0  0
 13 14  2  0  0  0  0
 14 15  1  0  0  0  0
 14 39  1  0  0  0  0
 15 16  1  0  0  0  0
 16 17  1  0  0  0  0
 16 40  1  0  0  0  0
 16 41  1  0  0  0  0
 17 18  1  0  0  0  0
 17 20  1  0  0  0  0
 17 42  1  0  0  0  0
 18 19  1  0  0  0  0
 18 43  1  0  0  0  0
 18 44  1  0  0  0  0
 19 45  1  0  0  0  0
 20 24  1  0  0  0  0
 20 21  1  0  0  0  0
 20 46  1  0  0  0  0
 21 22  1  0  0  0  0
 21 47  1  0  0  0  0
 21 48  1  0  0  0  0
 22 23  1  0  0  0  0
 22 49  1  0  0  0  0
 22 50  1  0  0  0  0
 23 24  1  0  0  0  0
 24 51  1  0  0  0  0
 24 52  1  0  0  0  0
 25 26  1  0  0  0  0
 25 53  1  0  0  0  0
 25 54  1  0  0  0  0
 26 27  1  0  0  0  0
 26 28  1  0  0  0  0
 26 29  1  0  0  0  0
 27 55  1  0  0  0  0
 27 56  1  0  0  0  0
 27 57  1  0  0  0  0
 28 58  1  0  0  0  0
 28 59  1  0  0  0  0
 28 60  1  0  0  0  0
M  END
> <s_m_source_file>
AV-unprocessed.smi

> <i_m_source_file_index>
91

> <i_lp_mmshare_version>
43012

> <i_f3d_flags>
0

> <s_epik_input>
W0NIM11PW0NIMl1bQ0BASF0oTzEpW0NIMl1OKFtDSDJdQzEoW0NIM10pW0NIM10pYyhuW2NIXW4yKWMoYzIzKW5bY0hdbjNbQ0gyXVtDQEhdKFtDSDJdW09IXSlbQ0BASF00W0NIMl1bQ0gyXU9bQ0gyXTQ=

> <s_epik_cmdline>
J2VwaWtfcHl0aG9uJywgJy1waCcsICc3LjAnLCAnLXRuJywgJzgnLCAnLW1hJywgJzIwMCcsICctbWV0YWxfYmluZGluZycsICctaW1hZScsICc8aW5maWxlLm1hZT4nLCAnLW9tYWUnLCAnPG91dGZpbGUubWFlPic=

> <r_lp_tautomer_probability>
1

> <r_epik_Ionization_Penalty>
8.63591e-05

> <r_epik_Ionization_Penalty_Charging>
0

> <r_epik_Ionization_Penalty_Neutral>
8.63591e-05

> <r_epik_State_Penalty>
-0

> <r_epik_Charging_Adjusted_Penalty>
0

> <i_epik_Tot_Q>
0

> <i_epik_Tot_abs_Q>
0

> <r_epik_Metal_State_Penalty>
-0

> <b_epik_Metal_Only>
0

> <s_lp_Force_Field>
OPLS_2005

> <r_lp_Energy>
46.8468

> <b_lp_Chiralities_Consistent>
1

> <s_lp_Variant>
AV-unprocessed.smi:91-7

> <Gold.Version>
5.8.1

> <Gold.Id.Protein>
6NUR|6NUR_protein|mol2

> <Gold.PLP.Fitness>
50.1539

> <Gold.PLP.PLP>
-43.0817

> <Gold.PLP.part.hbond>
-3.0000

> <Gold.PLP.part.metal>
0.0000

> <Gold.PLP.part.buried>
-6.8669

> <Gold.PLP.part.nonpolar>
-33.1966

> <Gold.PLP.part.repulsive>
0.0300

> <Gold.PLP.ligand.clash>
0.0000

> <Gold.PLP.ligand.torsion>
1.2022

> <Gold.PLP.Chemscore.Hbond>
3.0000

> <Gold.PLP.Chemscore.CHOScore>
0.0000

> <Gold.PLP.Chemscore.Metal>
0.0000

> <Gold.Chemscore.Hbonds>
donor molecule, donor type, donor heavy atom, donor atom, acceptor molecule, acceptor atom, score
      P1  H  6896  6907       L1     2  0.90
      P1  H  6896  6908       L1    13  0.88
      P1  H  7997  8010       L1    19  0.46

> <Gold.PLP.Chemscore.Internal.Correction>
0.4767

> <Gold.Rescore>
     Score         DG    S(hbond)    S(metal)    S(lipo)     H(rot)  DE(clash)    DE(int)     intcor
     17.49     -18.90       2.63        0.00     105.96       3.03       0.08       1.33       ----

> <Gold.Chemscore.Fitness>
17.4915

> <Gold.Chemscore.DG>
-18.9011

> <Gold.Chemscore.ZeroCoef>
-5.4800

> <Gold.Chemscore.Hbond>
2.6277

> <Gold.Chemscore.Metal>
0.0000

> <Gold.Chemscore.Lipo>
105.9601

> <Gold.Chemscore.Internal_Hbond>
0.0000

> <Gold.Chemscore.DEClash>
0.0813

> <Gold.Chemscore.DEInternal>
1.3284

> <Gold.Chemscore.Rot>
3.0284

> <Gold.Chemscore.Internal.Correction>
   9.000000E+99

> <Gold.Chemscore.Hbonds>
donor molecule, donor type, donor heavy atom, donor atom, acceptor molecule, acceptor atom, score
      P1  H  6896  6907       L1     2  0.17
      P1  H  6896  6908       L1    13  0.84
      P1  H  7997  8010       L1    19  0.10

> <Gold.Chemscore.Hbond.Weighted>
-8.7766

> <Gold.Chemscore.Metal.Weighted>
-0.0000

> <Gold.Chemscore.Lipo.Weighted>
-12.3973

> <Gold.Chemscore.Internal_Hbond.Weighted>
0.0000

> <Gold.Chemscore.DEClash.Weighted>
0.0813

> <Gold.Chemscore.DEInternal.Weighted>
1.3284

> <Gold.Chemscore.Rot.Weighted>
7.7528

> <Gold.Chemscore.Internal.Correction.Weighted>
   9.000000E+99

> <Gold.Protein.RotatedTorsions>
[ 6907 6896 6895 6894 ] final -148.75 input  -60.11 | X-H torsion
[ 7974 7965 7964 7962 ] final  140.86 input  175.53 | X-H torsion
[ 8008 7997 7996 7995 ] final   23.15 input   59.86 | X-H torsion
[ 10167 10162 10161 10158 ] final -167.98 input  -65.29 | X-H torsion
[ 10718 10713 10712 10709 ] final -147.03 input   66.30 | X-H torsion
[ 10763 10752 10751 10750 ] final -104.84 input  -60.55 | X-H torsion
[ 11005 11000 10999 10996 ] final  130.19 input  -57.11 | X-H torsion

> <Gold.Protein.ActiveResidues>
 VAL166  LYS551  ARG553  GLY616  TRP617  ASP618  TYR619  PRO620  LYS621  CYS622 
 ASP623  PHE694  ASN695  SER759  ASP760  ASP761  ALA762  ILE779  LEU786  VAL792 
 PHE793  MET794  SER795  GLU796  ALA797  LYS798  CYS799  TRP800  GLU811  SER814 

> <Gold.Protein.RotatedAtoms>
  151.1743  133.4764  159.2593 H   0  0  0  0  0  0  0  0  0  0  0  0  # atno 6907 bound_to 6896
  151.1324  135.0137  159.8598 H   0  0  0  0  0  0  0  0  0  0  0  0  # atno 6908 bound_to 6896
  152.5460  134.1644  159.8624 H   0  0  0  0  0  0  0  0  0  0  0  0  # atno 6909 bound_to 6896
  144.9148  139.5245  143.5691 H   0  0  0  0  0  0  0  0  0  0  0  0  # atno 7974 bound_to 7965
  154.9765  140.3096  155.4965 H   0  0  0  0  0  0  0  0  0  0  0  0  # atno 8008 bound_to 7997
  156.2959  140.2274  156.4801 H   0  0  0  0  0  0  0  0  0  0  0  0  # atno 8009 bound_to 7997
  154.7828  140.0445  157.1129 H   0  0  0  0  0  0  0  0  0  0  0  0  # atno 8010 bound_to 7997
  139.6014  144.1002  152.1747 H   0  0  0  0  0  0  0  0  0  0  0  0  # atno 10167 bound_to 10162
  156.4024  130.7940  151.2152 H   0  0  0  0  0  0  0  0  0  0  0  0  # atno 10718 bound_to 10713
  154.7906  135.4771  154.0044 H   0  0  0  0  0  0  0  0  0  0  0  0  # atno 10763 bound_to 10752
  153.1625  135.6811  153.8729 H   0  0  0  0  0  0  0  0  0  0  0  0  # atno 10764 bound_to 10752
  153.8338  135.3188  155.3399 H   0  0  0  0  0  0  0  0  0  0  0  0  # atno 10765 bound_to 10752
  139.9658  134.9591  156.9257 H   0  0  0  0  0  0  0  0  0  0  0  0  # atno 11005 bound_to 11000
  146.3176  139.7982  142.8971 LP  0  0  0  0  0  0  0  0  0  0  0  0  # atno 17320 bound_to 7965
  145.3394  141.0284  143.3401 LP  0  0  0  0  0  0  0  0  0  0  0  0  # atno 17321 bound_to 7965
  140.0599  144.5865  150.7271 LP  0  0  0  0  0  0  0  0  0  0  0  0  # atno 17342 bound_to 10162
  140.7253  143.2629  151.4142 LP  0  0  0  0  0  0  0  0  0  0  0  0  # atno 17343 bound_to 10162
  157.7504  131.0282  150.4041 LP  0  0  0  0  0  0  0  0  0  0  0  0  # atno 17370 bound_to 10713
  156.4323  130.3974  149.6752 LP  0  0  0  0  0  0  0  0  0  0  0  0  # atno 17371 bound_to 10713
  140.5401  134.0729  155.7339 LP  0  0  0  0  0  0  0  0  0  0  0  0  # atno 17394 bound_to 11000
  141.1337  133.9258  157.2480 LP  0  0  0  0  0  0  0  0  0  0  0  0  # atno 17395 bound_to 11000

$$$$
