AV-unprocessed.smi:2538|AV-procd|sdf|9984|dock6
  -GOLD-   2272014 33D 1   1.00000     0.00000
 Structure written by MMmdl.
 49 50  0  0  0  0  0  0  0  0  2 V2000
  151.9664  144.1626  161.6200 C   0  0  0  0  0  0  0  0  0  0  0  0
  151.8661  143.2188  160.4340 C   0  0  0  0  0  0  0  0  0  0  0  0
  151.0077  143.5663  159.3663 C   0  0  0  0  0  0  0  0  0  0  0  0
  150.9370  142.6830  158.2958 C   0  0  0  0  0  0  0  0  0  0  0  0
  150.1976  142.7347  157.1118 N   0  3  0  0  0  0  0  0  0  0  0  0
  150.4594  141.6271  156.3636 C   0  0  0  0  0  0  0  0  0  0  0  0
  151.3550  140.8696  157.0532 N   0  0  0  0  0  0  0  0  0  0  0  0
  151.9655  139.5780  156.7125 C   0  0  0  0  0  0  0  0  0  0  0  0
  151.2849  138.8990  155.5069 C   0  0  1  0  0  0  0  0  0  0  0  0
  151.7002  139.5714  154.3343 O   0  0  0  0  0  0  0  0  0  0  0  0
  151.6692  137.4078  155.3922 C   0  0  0  0  0  0  0  0  0  0  0  0
  150.5725  136.4934  155.7637 N   0  0  0  0  0  0  0  0  0  0  0  0
  149.3261  136.6351  154.9985 C   0  0  0  0  0  0  0  0  0  0  0  0
  150.9200  134.9640  156.5118 S   0  0  0  0  0  0  0  0  0  0  0  0
  152.3533  134.6923  156.3187 O   0  0  0  0  0  0  0  0  0  0  0  0
  150.3666  135.0202  157.8740 O   0  0  0  0  0  0  0  0  0  0  0  0
  149.9250  133.7488  155.5159 C   0  0  0  0  0  0  0  0  0  0  0  0
  150.1983  132.3111  155.9804 C   0  0  0  0  0  0  0  0  0  0  0  0
  150.2087  133.9192  154.0164 C   0  0  0  0  0  0  0  0  0  0  0  0
  151.6832  141.4895  158.2632 C   0  0  0  0  0  0  0  0  0  0  0  0
  152.5345  141.1315  159.3055 C   0  0  0  0  0  0  0  0  0  0  0  0
  152.6196  142.0166  160.4038 C   0  0  0  0  0  0  0  0  0  0  0  0
  153.5382  141.6520  161.5578 C   0  0  0  0  0  0  0  0  0  0  0  0
  151.3173  145.0299  161.4962 H   0  0  0  0  0  0  0  0  0  0  0  0
  152.9881  144.5250  161.7354 H   0  0  0  0  0  0  0  0  0  0  0  0
  151.6722  143.6557  162.5391 H   0  0  0  0  0  0  0  0  0  0  0  0
  150.4309  144.4796  159.3826 H   0  0  0  0  0  0  0  0  0  0  0  0
  150.0299  141.3901  155.4007 H   0  0  0  0  0  0  0  0  0  0  0  0
  153.0225  139.7543  156.5070 H   0  0  0  0  0  0  0  0  0  0  0  0
  151.9231  138.9395  157.5960 H   0  0  0  0  0  0  0  0  0  0  0  0
  150.2075  139.0165  155.6105 H   0  0  0  0  0  0  0  0  0  0  0  0
  151.6122  138.9809  153.6018 H   0  0  0  0  0  0  0  0  0  0  0  0
  152.0440  137.1665  154.3969 H   0  0  0  0  0  0  0  0  0  0  0  0
  152.5035  137.1967  156.0624 H   0  0  0  0  0  0  0  0  0  0  0  0
  149.1380  137.6797  154.7493 H   0  0  0  0  0  0  0  0  0  0  0  0
  148.4810  136.2716  155.5830 H   0  0  0  0  0  0  0  0  0  0  0  0
  149.3754  136.0587  154.0749 H   0  0  0  0  0  0  0  0  0  0  0  0
  148.8727  133.9649  155.6847 H   0  0  0  0  0  0  0  0  0  0  0  0
  149.5843  131.5980  155.4297 H   0  0  0  0  0  0  0  0  0  0  0  0
  149.9704  132.1912  157.0399 H   0  0  0  0  0  0  0  0  0  0  0  0
  151.2425  132.0361  155.8283 H   0  0  0  0  0  0  0  0  0  0  0  0
  149.6255  133.2134  153.4244 H   0  0  0  0  0  0  0  0  0  0  0  0
  151.2628  133.7510  153.7932 H   0  0  0  0  0  0  0  0  0  0  0  0
  149.9511  134.9218  153.6749 H   0  0  0  0  0  0  0  0  0  0  0  0
  153.1063  140.2155  159.2815 H   0  0  0  0  0  0  0  0  0  0  0  0
  154.0557  140.7099  161.3738 H   0  0  0  0  0  0  0  0  0  0  0  0
  152.9682  141.5442  162.4807 H   0  0  0  0  0  0  0  0  0  0  0  0
  154.2944  142.4233  161.7048 H   0  0  0  0  0  0  0  0  0  0  0  0
  149.5594  143.4690  156.8332 H   0  0  0  0  0  0  0  0  0  0  0  0
  1  2  1  0  0  0  0
  1 24  1  0  0  0  0
  1 25  1  0  0  0  0
  1 26  1  0  0  0  0
  2 22  1  0  0  0  0
  2  3  2  0  0  0  0
  3  4  1  0  0  0  0
  3 27  1  0  0  0  0
  4 20  2  0  0  0  0
  4  5  1  0  0  0  0
  5  6  2  0  0  0  0
  5 49  1  0  0  0  0
  6  7  1  0  0  0  0
  6 28  1  0  0  0  0
  7  8  1  0  0  0  0
  7 20  1  0  0  0  0
  8  9  1  0  0  0  0
  8 29  1  0  0  0  0
  8 30  1  0  0  0  0
  9 10  1  0  0  0  0
  9 11  1  0  0  0  0
  9 31  1  0  0  0  0
 10 32  1  0  0  0  0
 11 12  1  0  0  0  0
 11 33  1  0  0  0  0
 11 34  1  0  0  0  0
 12 13  1  0  0  0  0
 12 14  1  0  0  0  0
 13 35  1  0  0  0  0
 13 36  1  0  0  0  0
 13 37  1  0  0  0  0
 14 15  2  0  0  0  0
 14 16  2  0  0  0  0
 14 17  1  0  0  0  0
 17 18  1  0  0  0  0
 17 19  1  0  0  0  0
 17 38  1  0  0  0  0
 18 39  1  0  0  0  0
 18 40  1  0  0  0  0
 18 41  1  0  0  0  0
 19 42  1  0  0  0  0
 19 43  1  0  0  0  0
 19 44  1  0  0  0  0
 20 21  1  0  0  0  0
 21 22  2  0  0  0  0
 21 45  1  0  0  0  0
 22 23  1  0  0  0  0
 23 46  1  0  0  0  0
 23 47  1  0  0  0  0
 23 48  1  0  0  0  0
M  CHG  1   5   1
M  END
> <s_m_source_file>
AV-unprocessed.smi

> <i_m_source_file_index>
2538

> <i_lp_mmshare_version>
43012

> <i_f3d_flags>
0

> <s_epik_input>
W0NIM11jKFtjSF0xKWMoW0NIM10pW2NIXWMoYzEyKW4oW2NIXW4yKVtDSDJdW0NASF0oW09IXSlbQ0gyXU4oW0NIM10pUyg9TykoPU8pW0NIXShbQ0gzXSlbQ0gzXQ==

> <s_epik_cmdline>
J2VwaWtfcHl0aG9uJywgJy1waCcsICc3LjAnLCAnLXRuJywgJzgnLCAnLW1hJywgJzIwMCcsICctbWV0YWxfYmluZGluZycsICctaW1hZScsICc8aW5maWxlLm1hZT4nLCAnLW9tYWUnLCAnPG91dGZpbGUubWFlPic=

> <r_epik_Ionization_Penalty>
1.07686

> <r_epik_Ionization_Penalty_Charging>
1.07685

> <r_epik_Ionization_Penalty_Neutral>
1.40866e-06

> <r_epik_State_Penalty>
1.13193

> <r_epik_Charging_Adjusted_Penalty>
2.20879

> <i_epik_Tot_Q>
1

> <i_epik_Tot_abs_Q>
1

> <r_epik_Metal_State_Penalty>
5.12988

> <b_epik_Metal_Only>
0

> <s_lp_Force_Field>
OPLS_2005

> <r_lp_Energy>
10.053

> <b_lp_Chiralities_Consistent>
1

> <s_lp_Variant>
AV-unprocessed.smi:2538-4

> <Gold.Version>
5.8.1

> <Gold.Id.Protein>
6NUR|6NUR_protein|mol2

> <Gold.PLP.Fitness>
54.7585

> <Gold.PLP.PLP>
-43.0699

> <Gold.PLP.part.hbond>
-4.0000

> <Gold.PLP.part.metal>
0.0000

> <Gold.PLP.part.buried>
-2.5352

> <Gold.PLP.part.nonpolar>
-36.2305

> <Gold.PLP.part.repulsive>
0.0352

> <Gold.PLP.ligand.clash>
0.0000

> <Gold.PLP.ligand.torsion>
2.4374

> <Gold.PLP.Chemscore.Hbond>
4.6653

> <Gold.PLP.Chemscore.CHOScore>
0.0000

> <Gold.PLP.Chemscore.Metal>
0.0000

> <Gold.Chemscore.Hbonds>
donor molecule, donor type, donor heavy atom, donor atom, acceptor molecule, acceptor atom, score
      L1  H     5    49       P1  8028  2.00
      P1  H  6896  6908       L1    16  0.62
      P1  H  7989  7998       L1    10  0.75
      P1  H 10752 10763       L1    15  0.77

> <Gold.PLP.Chemscore.Internal.Correction>
2.5674

> <Gold.Rescore>
     Score         DG    S(hbond)    S(metal)    S(lipo)     H(rot)  DE(clash)    DE(int)     intcor
     20.55     -24.44       3.46        0.00     114.93       2.36       1.39       2.50       ----

> <Gold.Chemscore.Fitness>
20.5463

> <Gold.Chemscore.DG>
-24.4409

> <Gold.Chemscore.ZeroCoef>
-5.4800

> <Gold.Chemscore.Hbond>
3.4595

> <Gold.Chemscore.Metal>
0.0000

> <Gold.Chemscore.Lipo>
114.9260

> <Gold.Chemscore.Internal_Hbond>
0.0000

> <Gold.Chemscore.DEClash>
1.3907

> <Gold.Chemscore.DEInternal>
2.5038

> <Gold.Chemscore.Rot>
2.3595

> <Gold.Chemscore.Internal.Correction>
   9.000000E+99

> <Gold.Chemscore.Hbonds>
donor molecule, donor type, donor heavy atom, donor atom, acceptor molecule, acceptor atom, score
      L1  H     5    49       P1  8028  0.97
      P1  H  6896  6908       L1    16  0.62
      P1  H  7989  7998       L1    10  0.08
      P1  H 10752 10763       L1    15  0.74

> <Gold.Chemscore.Hbond.Weighted>
-11.5548

> <Gold.Chemscore.Metal.Weighted>
-0.0000

> <Gold.Chemscore.Lipo.Weighted>
-13.4463

> <Gold.Chemscore.Internal_Hbond.Weighted>
0.0000

> <Gold.Chemscore.DEClash.Weighted>
1.3907

> <Gold.Chemscore.DEInternal.Weighted>
2.5038

> <Gold.Chemscore.Rot.Weighted>
6.0403

> <Gold.Chemscore.Internal.Correction.Weighted>
   9.000000E+99

> <Gold.Protein.RotatedTorsions>
[ 6907 6896 6895 6894 ] final  163.75 input  -60.11 | X-H torsion
[ 7974 7965 7964 7962 ] final -168.02 input  175.53 | X-H torsion
[ 8008 7997 7996 7995 ] final  111.16 input   59.86 | X-H torsion
[ 10167 10162 10161 10158 ] final -154.46 input  -65.29 | X-H torsion
[ 10718 10713 10712 10709 ] final  107.61 input   66.30 | X-H torsion
[ 10763 10752 10751 10750 ] final   93.80 input  -60.55 | X-H torsion
[ 11005 11000 10999 10996 ] final  -42.33 input  -57.11 | X-H torsion

> <Gold.Protein.ActiveResidues>
 VAL166  LYS551  ARG553  GLY616  TRP617  ASP618  TYR619  PRO620  LYS621  CYS622 
 ASP623  PHE694  ASN695  SER759  ASP760  ASP761  ALA762  ILE779  LEU786  VAL792 
 PHE793  MET794  SER795  GLU796  ALA797  LYS798  CYS799  TRP800  GLU811  SER814 

> <Gold.Protein.RotatedAtoms>
  151.9203  133.3584  159.3894 H   0  0  0  0  0  0  0  0  0  0  0  0  # atno 6907 bound_to 6896
  150.7038  134.4641  159.5404 H   0  0  0  0  0  0  0  0  0  0  0  0  # atno 6908 bound_to 6896
  152.2264  134.8364  160.0530 H   0  0  0  0  0  0  0  0  0  0  0  0  # atno 6909 bound_to 6896
  144.7211  140.2432  143.6289 H   0  0  0  0  0  0  0  0  0  0  0  0  # atno 7974 bound_to 7965
  156.2104  140.3024  155.9720 H   0  0  0  0  0  0  0  0  0  0  0  0  # atno 8008 bound_to 7997
  155.2737  140.0435  157.3026 H   0  0  0  0  0  0  0  0  0  0  0  0  # atno 8009 bound_to 7997
  154.5692  140.2343  155.8226 H   0  0  0  0  0  0  0  0  0  0  0  0  # atno 8010 bound_to 7997
  139.7012  143.9260  152.2429 H   0  0  0  0  0  0  0  0  0  0  0  0  # atno 10167 bound_to 10162
  157.6621  131.0876  150.6182 H   0  0  0  0  0  0  0  0  0  0  0  0  # atno 10718 bound_to 10713
  153.2344  135.4312  155.0630 H   0  0  0  0  0  0  0  0  0  0  0  0  # atno 10763 bound_to 10752
  154.8312  135.3387  154.6740 H   0  0  0  0  0  0  0  0  0  0  0  0  # atno 10764 bound_to 10752
  153.7166  135.7019  153.5080 H   0  0  0  0  0  0  0  0  0  0  0  0  # atno 10765 bound_to 10752
  141.0308  133.6821  156.2580 H   0  0  0  0  0  0  0  0  0  0  0  0  # atno 11005 bound_to 11000
  145.8300  139.2081  143.1888 LP  0  0  0  0  0  0  0  0  0  0  0  0  # atno 17320 bound_to 7965
  146.0439  140.8137  142.9815 LP  0  0  0  0  0  0  0  0  0  0  0  0  # atno 17321 bound_to 7965
  139.9103  144.6860  150.8569 LP  0  0  0  0  0  0  0  0  0  0  0  0  # atno 17342 bound_to 10162
  140.7710  143.3448  151.2133 LP  0  0  0  0  0  0  0  0  0  0  0  0  # atno 17343 bound_to 10162
  156.6484  130.4478  149.5728 LP  0  0  0  0  0  0  0  0  0  0  0  0  # atno 17370 bound_to 10713
  156.2156  130.6705  151.1315 LP  0  0  0  0  0  0  0  0  0  0  0  0  # atno 17371 bound_to 10713
  140.6409  134.5166  157.5569 LP  0  0  0  0  0  0  0  0  0  0  0  0  # atno 17394 bound_to 11000
  139.9207  134.8155  156.1222 LP  0  0  0  0  0  0  0  0  0  0  0  0  # atno 17395 bound_to 11000

$$$$
