AV-unprocessed.smi:640|AV-procd|sdf|3150|dock4
  -GOLD-   22720 0 73D 1   1.00000     0.00000
 Structure written by MMmdl.
 38 40  0  0  0  0  0  0  0  0  3 V2000
  150.6894  140.8750  158.1644 O   0  0  0  0  0  0  0  0  0  0  0  0
  150.5758  141.9643  157.6011 C   0  0  0  0  0  0  0  0  0  0  0  0
  151.2669  143.2113  158.1693 C   0  0  0  0  0  0  0  0  0  0  0  0
  152.0804  142.9207  159.3617 N   0  0  0  0  0  0  0  0  0  0  0  0
  153.0866  141.9430  159.2309 C   0  0  0  0  0  0  0  0  0  0  0  0
  153.8939  141.6053  160.2557 C   0  0  0  0  0  0  0  0  0  0  0  0
  154.9270  140.6045  160.1024 N   0  3  0  0  0  0  0  0  0  0  0  0
  154.8587  139.8287  159.1544 O   0  0  0  0  0  0  0  0  0  0  0  0
  155.8396  140.5603  160.9220 O   0  5  0  0  0  0  0  0  0  0  0  0
  153.6957  142.2840  161.5220 C   0  0  0  0  0  0  0  0  0  0  0  0
  152.7379  143.2228  161.6519 C   0  0  0  0  0  0  0  0  0  0  0  0
  151.8647  143.5932  160.5335 C   0  0  0  0  0  0  0  0  0  0  0  0
  150.9927  144.4553  160.6436 O   0  0  0  0  0  0  0  0  0  0  0  0
  149.8420  142.1500  156.4929 N   0  0  0  0  0  0  0  0  0  0  0  0
  149.0879  141.1182  155.7889 C   0  0  0  0  0  0  0  0  0  0  0  0
  149.8456  139.8040  155.7427 C   0  0  0  0  0  0  0  0  0  0  0  0
  151.2733  139.7356  155.2539 C   0  0  0  0  0  0  0  0  0  0  0  0
  150.1594  139.1314  154.4281 C   0  0  0  0  0  0  0  0  0  0  0  0
  148.6898  141.5500  154.3876 C   0  0  0  0  0  0  0  0  0  0  0  0
  147.3859  142.2660  154.1270 C   0  0  0  0  0  0  0  0  0  0  0  0
  147.5834  140.8509  153.6331 C   0  0  0  0  0  0  0  0  0  0  0  0
  151.8828  143.6769  157.3973 H   0  0  0  0  0  0  0  0  0  0  0  0
  150.4962  143.9480  158.4005 H   0  0  0  0  0  0  0  0  0  0  0  0
  153.1580  141.5023  158.2470 H   0  0  0  0  0  0  0  0  0  0  0  0
  154.3142  142.0456  162.3748 H   0  0  0  0  0  0  0  0  0  0  0  0
  152.6083  143.7165  162.6039 H   0  0  0  0  0  0  0  0  0  0  0  0
  149.8028  143.0815  156.1050 H   0  0  0  0  0  0  0  0  0  0  0  0
  148.1673  140.9270  156.3445 H   0  0  0  0  0  0  0  0  0  0  0  0
  149.5999  139.1343  156.5652 H   0  0  0  0  0  0  0  0  0  0  0  0
  151.7309  140.6495  154.8803 H   0  0  0  0  0  0  0  0  0  0  0  0
  151.9473  139.0529  155.7672 H   0  0  0  0  0  0  0  0  0  0  0  0
  150.0919  138.0461  154.3909 H   0  0  0  0  0  0  0  0  0  0  0  0
  149.8739  139.6482  153.5138 H   0  0  0  0  0  0  0  0  0  0  0  0
  149.5335  141.8766  153.7820 H   0  0  0  0  0  0  0  0  0  0  0  0
  146.7093  142.4131  154.9665 H   0  0  0  0  0  0  0  0  0  0  0  0
  147.3919  143.0642  153.3876 H   0  0  0  0  0  0  0  0  0  0  0  0
  147.7193  140.7055  152.5635 H   0  0  0  0  0  0  0  0  0  0  0  0
  147.0325  140.0643  154.1447 H   0  0  0  0  0  0  0  0  0  0  0  0
  1  2  2  0  0  0  0
  2  3  1  0  0  0  0
  2 14  1  0  0  0  0
  3  4  1  0  0  0  0
  3 22  1  0  0  0  0
  3 23  1  0  0  0  0
  4 12  1  0  0  0  0
  4  5  1  0  0  0  0
  5  6  2  0  0  0  0
  5 24  1  0  0  0  0
  6  7  1  0  0  0  0
  6 10  1  0  0  0  0
  7  8  2  0  0  0  0
  7  9  1  0  0  0  0
 10 11  2  0  0  0  0
 10 25  1  0  0  0  0
 11 12  1  0  0  0  0
 11 26  1  0  0  0  0
 12 13  2  0  0  0  0
 14 15  1  0  0  0  0
 14 27  1  0  0  0  0
 15 16  1  0  0  0  0
 15 19  1  0  0  0  0
 15 28  1  0  0  0  0
 16 18  1  0  0  0  0
 16 17  1  0  0  0  0
 16 29  1  0  0  0  0
 17 18  1  0  0  0  0
 17 30  1  0  0  0  0
 17 31  1  0  0  0  0
 18 32  1  0  0  0  0
 18 33  1  0  0  0  0
 19 21  1  0  0  0  0
 19 20  1  0  0  0  0
 19 34  1  0  0  0  0
 20 21  1  0  0  0  0
 20 35  1  0  0  0  0
 20 36  1  0  0  0  0
 21 37  1  0  0  0  0
 21 38  1  0  0  0  0
M  CHG  1   7   1
M  CHG  1   9  -1
M  END
> <s_m_source_file>
AV-unprocessed.smi

> <i_m_source_file_index>
640

> <i_lp_mmshare_version>
43012

> <i_f3d_flags>
0

> <s_epik_input>
W0NIMl0xW0NIMl1bQ0hdMVtDSF0oW0NIXTJbQ0gyXVtDSDJdMilbTkhdQyg9TylbQ0gyXW4zW2NIXWMoW04rXSg9TylbTy1dKVtjSF1bY0hdYzM9Tw==

> <s_epik_cmdline>
J2VwaWtfcHl0aG9uJywgJy1waCcsICc3LjAnLCAnLXRuJywgJzgnLCAnLW1hJywgJzIwMCcsICctbWV0YWxfYmluZGluZycsICctaW1hZScsICc8aW5maWxlLm1hZT4nLCAnLW9tYWUnLCAnPG91dGZpbGUubWFlPic=

> <r_lp_tautomer_probability>
1

> <r_epik_Ionization_Penalty>
2.04963e-08

> <r_epik_Ionization_Penalty_Charging>
8.36809e-11

> <r_epik_Ionization_Penalty_Neutral>
2.04126e-08

> <r_epik_State_Penalty>
-0

> <r_epik_Charging_Adjusted_Penalty>
8.36809e-11

> <i_epik_Tot_Q>
0

> <i_epik_Tot_abs_Q>
2

> <r_epik_Metal_State_Penalty>
-0

> <b_epik_Metal_Only>
0

> <s_lp_Force_Field>
OPLS_2005

> <r_lp_Energy>
35.0527

> <b_lp_Chiralities_Consistent>
1

> <s_lp_Variant>
AV-unprocessed.smi:640-1

> <Gold.Version>
5.8.1

> <Gold.Id.Protein>
6NUR|6NUR_protein|mol2

> <Gold.PLP.Fitness>
53.8287

> <Gold.PLP.PLP>
-49.1936

> <Gold.PLP.part.hbond>
-3.0000

> <Gold.PLP.part.metal>
0.0000

> <Gold.PLP.part.buried>
-3.0067

> <Gold.PLP.part.nonpolar>
-41.5845

> <Gold.PLP.part.repulsive>
0.2251

> <Gold.PLP.ligand.clash>
0.0000

> <Gold.PLP.ligand.torsion>
1.7683

> <Gold.PLP.Chemscore.Hbond>
2.0000

> <Gold.PLP.Chemscore.CHOScore>
0.0000

> <Gold.PLP.Chemscore.Metal>
0.0000

> <Gold.Chemscore.Hbonds>
donor molecule, donor type, donor heavy atom, donor atom, acceptor molecule, acceptor atom, score
      L1  H    14    27       P1  8028  1.00
      P1  H  7997  8008       L1     8  1.00

> <Gold.PLP.Chemscore.Internal.Correction>
2.1717

> <Gold.Rescore>
     Score         DG    S(hbond)    S(metal)    S(lipo)     H(rot)  DE(clash)    DE(int)     intcor
     14.50     -19.02       1.97        0.00     101.83       1.94       0.06       4.46       ----

> <Gold.Chemscore.Fitness>
14.4969

> <Gold.Chemscore.DG>
-19.0215

> <Gold.Chemscore.ZeroCoef>
-5.4800

> <Gold.Chemscore.Hbond>
1.9726

> <Gold.Chemscore.Metal>
0.0000

> <Gold.Chemscore.Lipo>
101.8317

> <Gold.Chemscore.Internal_Hbond>
0.0000

> <Gold.Chemscore.DEClash>
0.0614

> <Gold.Chemscore.DEInternal>
4.4631

> <Gold.Chemscore.Rot>
1.9380

> <Gold.Chemscore.Internal.Correction>
   9.000000E+99

> <Gold.Chemscore.Hbonds>
donor molecule, donor type, donor heavy atom, donor atom, acceptor molecule, acceptor atom, score
      L1  H    14    27       P1  8028  0.96
      P1  H  7997  8008       L1     8  0.98

> <Gold.Chemscore.Hbond.Weighted>
-6.5885

> <Gold.Chemscore.Metal.Weighted>
-0.0000

> <Gold.Chemscore.Lipo.Weighted>
-11.9143

> <Gold.Chemscore.Internal_Hbond.Weighted>
0.0000

> <Gold.Chemscore.DEClash.Weighted>
0.0614

> <Gold.Chemscore.DEInternal.Weighted>
4.4631

> <Gold.Chemscore.Rot.Weighted>
4.9613

> <Gold.Chemscore.Internal.Correction.Weighted>
   9.000000E+99

> <Gold.Protein.RotatedTorsions>
[ 6907 6896 6895 6894 ] final  124.92 input  -60.11 | X-H torsion
[ 7974 7965 7964 7962 ] final   43.22 input  175.53 | X-H torsion
[ 8008 7997 7996 7995 ] final -115.16 input   59.86 | X-H torsion
[ 10167 10162 10161 10158 ] final  -28.11 input  -65.29 | X-H torsion
[ 10718 10713 10712 10709 ] final   86.40 input   66.30 | X-H torsion
[ 10763 10752 10751 10750 ] final  130.61 input  -60.55 | X-H torsion
[ 11005 11000 10999 10996 ] final  123.62 input  -57.11 | X-H torsion

> <Gold.Protein.ActiveResidues>
 VAL166  LYS551  ARG553  GLY616  TRP617  ASP618  TYR619  PRO620  LYS621  CYS622 
 ASP623  PHE694  ASN695  SER759  ASP760  ASP761  ALA762  ILE779  LEU786  VAL792 
 PHE793  MET794  SER795  GLU796  ALA797  LYS798  CYS799  TRP800  GLU811  SER814 

> <Gold.Protein.RotatedAtoms>
  152.4037  133.6856  159.6337 H   0  0  0  0  0  0  0  0  0  0  0  0  # atno 6907 bound_to 6896
  150.7924  133.8747  159.3277 H   0  0  0  0  0  0  0  0  0  0  0  0  # atno 6908 bound_to 6896
  151.6506  135.1003  160.0211 H   0  0  0  0  0  0  0  0  0  0  0  0  # atno 6909 bound_to 6896
  146.0674  139.5211  142.9619 H   0  0  0  0  0  0  0  0  0  0  0  0  # atno 7974 bound_to 7965
  155.0477  140.0392  157.2532 H   0  0  0  0  0  0  0  0  0  0  0  0  # atno 8008 bound_to 7997
  154.7164  140.2703  155.6558 H   0  0  0  0  0  0  0  0  0  0  0  0  # atno 8009 bound_to 7997
  156.2804  140.2711  156.1821 H   0  0  0  0  0  0  0  0  0  0  0  0  # atno 8010 bound_to 7997
  140.7272  143.4037  151.1222 H   0  0  0  0  0  0  0  0  0  0  0  0  # atno 10167 bound_to 10162
  157.6928  131.0214  150.2967 H   0  0  0  0  0  0  0  0  0  0  0  0  # atno 10718 bound_to 10713
  153.7609  135.3196  155.3337 H   0  0  0  0  0  0  0  0  0  0  0  0  # atno 10763 bound_to 10752
  154.8230  135.4589  154.0839 H   0  0  0  0  0  0  0  0  0  0  0  0  # atno 10764 bound_to 10752
  153.2069  135.6930  153.8245 H   0  0  0  0  0  0  0  0  0  0  0  0  # atno 10765 bound_to 10752
  139.9321  134.9641  156.8287 H   0  0  0  0  0  0  0  0  0  0  0  0  # atno 11005 bound_to 11000
  145.6453  141.0275  143.1790 LP  0  0  0  0  0  0  0  0  0  0  0  0  # atno 17320 bound_to 7965
  144.7211  139.8029  143.7381 LP  0  0  0  0  0  0  0  0  0  0  0  0  # atno 17321 bound_to 7965
  139.7660  143.8564  152.3111 LP  0  0  0  0  0  0  0  0  0  0  0  0  # atno 17342 bound_to 10162
  139.8466  144.7184  150.9265 LP  0  0  0  0  0  0  0  0  0  0  0  0  # atno 17343 bound_to 10162
  156.3489  130.3827  149.7345 LP  0  0  0  0  0  0  0  0  0  0  0  0  # atno 17370 bound_to 10713
  156.4830  130.8049  151.3063 LP  0  0  0  0  0  0  0  0  0  0  0  0  # atno 17371 bound_to 10713
  140.6174  134.0025  155.7603 LP  0  0  0  0  0  0  0  0  0  0  0  0  # atno 17394 bound_to 11000
  141.0915  133.9909  157.3229 LP  0  0  0  0  0  0  0  0  0  0  0  0  # atno 17395 bound_to 11000

$$$$
