AV-unprocessed.smi:2944|AV-procd|sdf|11274|dock8
  -GOLD-   2272016163D 1   1.00000     0.00000
 Structure written by MMmdl.
 45 47  0  0  0  0  0  0  0  0  2 V2000
  140.4075  136.7819  154.0714 C   0  0  0  0  0  0  0  0  0  0  0  0
  141.1162  135.7301  153.4405 O   0  0  0  0  0  0  0  0  0  0  0  0
  142.5173  135.8178  153.6446 C   0  0  0  0  0  0  0  0  0  0  0  0
  143.1726  136.5803  152.4840 C   0  0  0  0  0  0  0  0  0  0  0  0
  144.4260  135.9569  152.0319 N   0  0  0  0  0  0  0  0  0  0  0  0
  145.6860  136.4676  151.9530 C   0  0  0  0  0  0  0  0  0  0  0  0
  146.1987  138.0849  152.4339 S   0  0  0  0  0  0  0  0  0  0  0  0
  147.1119  137.8704  153.9940 C   0  0  2  0  0  0  0  0  0  0  0  0
  146.1441  137.9553  155.1858 C   0  0  0  0  0  0  0  0  0  0  0  0
  148.2554  138.8999  154.1290 C   0  0  0  0  0  0  0  0  0  0  0  0
  149.4054  138.4580  154.1933 O   0  0  0  0  0  0  0  0  0  0  0  0
  147.9566  140.2272  154.2209 N   0  0  0  0  0  0  0  0  0  0  0  0
  146.6086  140.7815  154.0852 C   0  0  0  0  0  0  0  0  0  0  0  0
  146.7804  142.2786  154.3029 C   0  0  0  0  0  0  0  0  0  0  0  0
  148.2012  142.3858  154.5124 N   0  0  0  0  0  0  0  0  0  0  0  0
  148.8484  141.2192  154.4615 C   0  0  0  0  0  0  0  0  0  0  0  0
  150.0636  141.1132  154.6301 O   0  0  0  0  0  0  0  0  0  0  0  0
  146.4999  135.4931  151.4623 N   0  3  0  0  0  0  0  0  0  0  0  0
  145.7583  134.3312  151.2497 C   0  0  0  0  0  0  0  0  0  0  0  0
  146.1450  133.0788  150.7835 C   0  0  0  0  0  0  0  0  0  0  0  0
  145.1341  132.1000  150.6881 C   0  0  0  0  0  0  0  0  0  0  0  0
  143.8010  132.3835  151.0492 C   0  0  0  0  0  0  0  0  0  0  0  0
  143.4207  133.6575  151.5200 C   0  0  0  0  0  0  0  0  0  0  0  0
  144.4253  134.6208  151.6118 C   0  0  0  0  0  0  0  0  0  0  0  0
  139.3386  136.6577  153.8981 H   0  0  0  0  0  0  0  0  0  0  0  0
  140.7043  137.7521  153.6712 H   0  0  0  0  0  0  0  0  0  0  0  0
  140.5753  136.7814  155.1490 H   0  0  0  0  0  0  0  0  0  0  0  0
  142.7261  136.3297  154.5850 H   0  0  0  0  0  0  0  0  0  0  0  0
  142.9459  134.8175  153.7190 H   0  0  0  0  0  0  0  0  0  0  0  0
  142.4899  136.6640  151.6386 H   0  0  0  0  0  0  0  0  0  0  0  0
  143.4020  137.6007  152.7920 H   0  0  0  0  0  0  0  0  0  0  0  0
  147.4964  136.8534  153.9900 H   0  0  0  0  0  0  0  0  0  0  0  0
  146.6714  137.8437  156.1341 H   0  0  0  0  0  0  0  0  0  0  0  0
  145.3958  137.1641  155.1343 H   0  0  0  0  0  0  0  0  0  0  0  0
  145.6126  138.9075  155.2088 H   0  0  0  0  0  0  0  0  0  0  0  0
  146.2010  140.5792  153.0934 H   0  0  0  0  0  0  0  0  0  0  0  0
  145.9348  140.3666  154.8326 H   0  0  0  0  0  0  0  0  0  0  0  0
  146.4717  142.8597  153.4333 H   0  0  0  0  0  0  0  0  0  0  0  0
  146.2353  142.6300  155.1800 H   0  0  0  0  0  0  0  0  0  0  0  0
  148.6565  143.2719  154.6782 H   0  0  0  0  0  0  0  0  0  0  0  0
  147.1663  132.8588  150.5084 H   0  0  0  0  0  0  0  0  0  0  0  0
  145.3866  131.1117  150.3323 H   0  0  0  0  0  0  0  0  0  0  0  0
  143.0540  131.6074  150.9644 H   0  0  0  0  0  0  0  0  0  0  0  0
  142.3976  133.8603  151.8002 H   0  0  0  0  0  0  0  0  0  0  0  0
  147.4925  135.6120  151.3034 H   0  0  0  0  0  0  0  0  0  0  0  0
  1  2  1  0  0  0  0
  1 25  1  0  0  0  0
  1 26  1  0  0  0  0
  1 27  1  0  0  0  0
  2  3  1  0  0  0  0
  3  4  1  0  0  0  0
  3 28  1  0  0  0  0
  3 29  1  0  0  0  0
  4  5  1  0  0  0  0
  4 30  1  0  0  0  0
  4 31  1  0  0  0  0
  5 24  1  0  0  0  0
  5  6  1  0  0  0  0
  6  7  1  0  0  0  0
  6 18  2  0  0  0  0
  7  8  1  0  0  0  0
  8  9  1  0  0  0  0
  8 10  1  0  0  0  0
  8 32  1  0  0  0  0
  9 33  1  0  0  0  0
  9 34  1  0  0  0  0
  9 35  1  0  0  0  0
 10 11  2  0  0  0  0
 10 12  1  0  0  0  0
 12 16  1  0  0  0  0
 12 13  1  0  0  0  0
 13 14  1  0  0  0  0
 13 36  1  0  0  0  0
 13 37  1  0  0  0  0
 14 15  1  0  0  0  0
 14 38  1  0  0  0  0
 14 39  1  0  0  0  0
 15 16  1  0  0  0  0
 15 40  1  0  0  0  0
 16 17  2  0  0  0  0
 18 19  1  0  0  0  0
 18 45  1  0  0  0  0
 19 24  2  0  0  0  0
 19 20  1  0  0  0  0
 20 21  2  0  0  0  0
 20 41  1  0  0  0  0
 21 22  1  0  0  0  0
 21 42  1  0  0  0  0
 22 23  2  0  0  0  0
 22 43  1  0  0  0  0
 23 24  1  0  0  0  0
 23 44  1  0  0  0  0
M  CHG  1  18   1
M  END
> <s_m_source_file>
AV-unprocessed.smi

> <i_m_source_file_index>
2944

> <i_lp_mmshare_version>
43012

> <i_f3d_flags>
0

> <s_epik_input>
W2NIXTFbY0hdW2NIXVtjSF1jKGMxMiluKFtDSDJdW0NIMl1PW0NIM10pYyhuMilTW0NASF0oW0NIM10pQyg9TylOM1tDSDJdW0NIMl1bTkhdQzM9Tw==

> <s_epik_cmdline>
J2VwaWtfcHl0aG9uJywgJy1waCcsICc3LjAnLCAnLXRuJywgJzgnLCAnLW1hJywgJzIwMCcsICctbWV0YWxfYmluZGluZycsICctaW1hZScsICc8aW5maWxlLm1hZT4nLCAnLW9tYWUnLCAnPG91dGZpbGUubWFlPic=

> <r_lp_tautomer_probability>
0.9999

> <r_epik_Ionization_Penalty>
1.88808

> <r_epik_Ionization_Penalty_Charging>
1.88806

> <r_epik_Ionization_Penalty_Neutral>
2.68145e-05

> <r_epik_State_Penalty>
2.00836

> <r_epik_Charging_Adjusted_Penalty>
3.89641

> <i_epik_Tot_Q>
1

> <i_epik_Tot_abs_Q>
1

> <r_epik_Metal_State_Penalty>
2.03272

> <b_epik_Metal_Only>
0

> <s_lp_Force_Field>
OPLS_2005

> <r_lp_Energy>
42.6194

> <b_lp_Chiralities_Consistent>
1

> <s_lp_Variant>
AV-unprocessed.smi:2944-3

> <Gold.Version>
5.8.1

> <Gold.Id.Protein>
6NUR|6NUR_protein|mol2

> <Gold.PLP.Fitness>
51.0448

> <Gold.PLP.PLP>
-42.4978

> <Gold.PLP.part.hbond>
-3.0000

> <Gold.PLP.part.metal>
0.0000

> <Gold.PLP.part.buried>
-7.0153

> <Gold.PLP.part.nonpolar>
-34.0456

> <Gold.PLP.part.repulsive>
0.8732

> <Gold.PLP.ligand.clash>
0.0000

> <Gold.PLP.ligand.torsion>
1.1103

> <Gold.PLP.Chemscore.Hbond>
3.5520

> <Gold.PLP.Chemscore.CHOScore>
0.0000

> <Gold.PLP.Chemscore.Metal>
0.0000

> <Gold.Chemscore.Hbonds>
donor molecule, donor type, donor heavy atom, donor atom, acceptor molecule, acceptor atom, score
      L1  H    15    40       P1  8028  1.00
      L1  H    18    45       P1  7948  1.98
      P1  H  7989  7998       L1    17  0.58

> <Gold.PLP.Chemscore.Internal.Correction>
0.1117

> <Gold.Rescore>
     Score         DG    S(hbond)    S(metal)    S(lipo)     H(rot)  DE(clash)    DE(int)     intcor
     14.27     -16.92       2.58        0.00      74.31       2.30       0.15       2.50       ----

> <Gold.Chemscore.Fitness>
14.2666

> <Gold.Chemscore.DG>
-16.9212

> <Gold.Chemscore.ZeroCoef>
-5.4800

> <Gold.Chemscore.Hbond>
2.5844

> <Gold.Chemscore.Metal>
0.0000

> <Gold.Chemscore.Lipo>
74.3092

> <Gold.Chemscore.Internal_Hbond>
0.0000

> <Gold.Chemscore.DEClash>
0.1524

> <Gold.Chemscore.DEInternal>
2.5022

> <Gold.Chemscore.Rot>
2.2988

> <Gold.Chemscore.Internal.Correction>
   9.000000E+99

> <Gold.Chemscore.Hbonds>
donor molecule, donor type, donor heavy atom, donor atom, acceptor molecule, acceptor atom, score
      L1  H    15    40       P1  8028  0.95
      L1  H    18    45       P1  7948  0.83
      P1  H  7989  7998       L1    17  0.58

> <Gold.Chemscore.Hbond.Weighted>
-8.6320

> <Gold.Chemscore.Metal.Weighted>
-0.0000

> <Gold.Chemscore.Lipo.Weighted>
-8.6942

> <Gold.Chemscore.Internal_Hbond.Weighted>
0.0000

> <Gold.Chemscore.DEClash.Weighted>
0.1524

> <Gold.Chemscore.DEInternal.Weighted>
2.5022

> <Gold.Chemscore.Rot.Weighted>
5.8850

> <Gold.Chemscore.Internal.Correction.Weighted>
   9.000000E+99

> <Gold.Protein.RotatedTorsions>
[ 6907 6896 6895 6894 ] final   78.13 input  -60.11 | X-H torsion
[ 7974 7965 7964 7962 ] final  -74.93 input  175.53 | X-H torsion
[ 8008 7997 7996 7995 ] final  127.03 input   59.86 | X-H torsion
[ 10167 10162 10161 10158 ] final  -94.64 input  -65.29 | X-H torsion
[ 10718 10713 10712 10709 ] final  101.95 input   66.30 | X-H torsion
[ 10763 10752 10751 10750 ] final -174.01 input  -60.55 | X-H torsion
[ 11005 11000 10999 10996 ] final    3.81 input  -57.11 | X-H torsion

> <Gold.Protein.ActiveResidues>
 VAL166  LYS551  ARG553  GLY616  TRP617  ASP618  TYR619  PRO620  LYS621  CYS622 
 ASP623  PHE694  ASN695  SER759  ASP760  ASP761  ALA762  ILE779  LEU786  VAL792 
 PHE793  MET794  SER795  GLU796  ALA797  LYS798  CYS799  TRP800  GLU811  SER814 

> <Gold.Protein.RotatedAtoms>
  152.5146  134.3712  159.9318 H   0  0  0  0  0  0  0  0  0  0  0  0  # atno 6907 bound_to 6896
  151.3666  133.3864  159.2703 H   0  0  0  0  0  0  0  0  0  0  0  0  # atno 6908 bound_to 6896
  150.9610  134.9017  159.7789 H   0  0  0  0  0  0  0  0  0  0  0  0  # atno 6909 bound_to 6896
  145.6326  140.9333  143.1079 H   0  0  0  0  0  0  0  0  0  0  0  0  # atno 7974 bound_to 7965
  156.2880  140.2678  156.2207 H   0  0  0  0  0  0  0  0  0  0  0  0  # atno 8008 bound_to 7997
  155.0171  140.0387  157.2440 H   0  0  0  0  0  0  0  0  0  0  0  0  # atno 8009 bound_to 7997
  154.7468  140.2735  155.6331 H   0  0  0  0  0  0  0  0  0  0  0  0  # atno 8010 bound_to 7997
  140.3123  143.3097  152.0135 H   0  0  0  0  0  0  0  0  0  0  0  0  # atno 10167 bound_to 10162
  157.6816  131.0740  150.5329 H   0  0  0  0  0  0  0  0  0  0  0  0  # atno 10718 bound_to 10713
  154.6012  135.2855  155.0533 H   0  0  0  0  0  0  0  0  0  0  0  0  # atno 10763 bound_to 10752
  154.1797  135.6459  153.5035 H   0  0  0  0  0  0  0  0  0  0  0  0  # atno 10764 bound_to 10752
  153.0157  135.5420  154.6732 H   0  0  0  0  0  0  0  0  0  0  0  0  # atno 10765 bound_to 10752
  140.5889  133.9943  155.8080 H   0  0  0  0  0  0  0  0  0  0  0  0  # atno 11005 bound_to 11000
  144.7188  139.8103  143.7389 LP  0  0  0  0  0  0  0  0  0  0  0  0  # atno 17320 bound_to 7965
  146.1344  139.4387  143.0148 LP  0  0  0  0  0  0  0  0  0  0  0  0  # atno 17321 bound_to 7965
  139.4891  144.6375  151.6946 LP  0  0  0  0  0  0  0  0  0  0  0  0  # atno 17342 bound_to 10162
  140.5557  144.0352  150.6146 LP  0  0  0  0  0  0  0  0  0  0  0  0  # atno 17343 bound_to 10162
  156.5639  130.4262  149.6050 LP  0  0  0  0  0  0  0  0  0  0  0  0  # atno 17370 bound_to 10713
  156.2798  130.7064  151.1885 LP  0  0  0  0  0  0  0  0  0  0  0  0  # atno 17371 bound_to 10713
  141.0948  133.9861  157.3178 LP  0  0  0  0  0  0  0  0  0  0  0  0  # atno 17394 bound_to 11000
  139.9283  135.0201  156.8312 LP  0  0  0  0  0  0  0  0  0  0  0  0  # atno 17395 bound_to 11000

$$$$
