AV-unprocessed.smi:2794|AV-procd|sdf|10777|dock5
  -GOLD-   2272015213D 1   1.00000     0.00000
 Structure written by MMmdl.
 34 35  0  0  0  0  0  0  0  0  1 V2000
  149.4869  137.6180  154.3238 C   0  0  0  0  0  0  0  0  0  0  0  0
  148.8722  139.0010  154.2788 C   0  0  0  0  0  0  0  0  0  0  0  0
  147.7653  139.2766  153.4522 C   0  0  0  0  0  0  0  0  0  0  0  0
  147.2446  140.5830  153.4562 C   0  0  0  0  0  0  0  0  0  0  0  0
  147.8480  141.5527  154.2800 C   0  0  0  0  0  0  0  0  0  0  0  0
  148.9555  141.1930  155.0802 C   0  0  0  0  0  0  0  0  0  0  0  0
  149.4885  142.2422  155.8743 N   0  0  0  0  0  0  0  0  0  0  0  0
  150.5687  142.2173  156.6805 C   0  0  0  0  0  0  0  0  0  0  0  0
  151.2940  141.2388  156.8502 O   0  0  0  0  0  0  0  0  0  0  0  0
  150.8065  143.3771  157.3219 N   0  0  0  0  0  0  0  0  0  0  0  0
  151.8821  143.6988  158.2626 C   0  0  1  0  0  0  0  0  0  0  0  0
  151.6186  145.0315  158.9535 C   0  0  0  0  0  0  0  0  0  0  0  0
  151.7854  145.2358  160.2712 C   0  0  0  0  0  0  0  0  0  0  0  0
  152.2685  144.1639  161.2300 C   0  0  0  0  0  0  0  0  0  0  0  0
  152.8826  142.9612  160.4924 C   0  0  0  0  0  0  0  0  0  0  0  0
  152.0356  142.5471  159.2794 C   0  0  0  0  0  0  0  0  0  0  0  0
  149.4506  139.9306  155.0694 N   0  0  0  0  0  0  0  0  0  0  0  0
  148.9213  136.9133  153.7138 H   0  0  0  0  0  0  0  0  0  0  0  0
  149.5051  137.2432  155.3476 H   0  0  0  0  0  0  0  0  0  0  0  0
  150.5107  137.6476  153.9500 H   0  0  0  0  0  0  0  0  0  0  0  0
  147.3258  138.5103  152.8309 H   0  0  0  0  0  0  0  0  0  0  0  0
  146.3965  140.8380  152.8382 H   0  0  0  0  0  0  0  0  0  0  0  0
  147.4601  142.5609  154.2952 H   0  0  0  0  0  0  0  0  0  0  0  0
  148.9832  143.1150  155.8358 H   0  0  0  0  0  0  0  0  0  0  0  0
  150.1468  144.1217  157.1481 H   0  0  0  0  0  0  0  0  0  0  0  0
  152.8251  143.7973  157.7225 H   0  0  0  0  0  0  0  0  0  0  0  0
  151.2790  145.8479  158.3326 H   0  0  0  0  0  0  0  0  0  0  0  0
  151.5592  146.2026  160.6964 H   0  0  0  0  0  0  0  0  0  0  0  0
  153.0016  144.5942  161.9127 H   0  0  0  0  0  0  0  0  0  0  0  0
  151.4193  143.8437  161.8344 H   0  0  0  0  0  0  0  0  0  0  0  0
  153.8868  143.2184  160.1527 H   0  0  0  0  0  0  0  0  0  0  0  0
  152.9960  142.1224  161.1798 H   0  0  0  0  0  0  0  0  0  0  0  0
  151.0528  142.2331  159.6352 H   0  0  0  0  0  0  0  0  0  0  0  0
  152.4769  141.6767  158.7925 H   0  0  0  0  0  0  0  0  0  0  0  0
  1  2  1  0  0  0  0
  1 18  1  0  0  0  0
  1 19  1  0  0  0  0
  1 20  1  0  0  0  0
  2 17  1  0  0  0  0
  2  3  2  0  0  0  0
  3  4  1  0  0  0  0
  3 21  1  0  0  0  0
  4  5  2  0  0  0  0
  4 22  1  0  0  0  0
  5  6  1  0  0  0  0
  5 23  1  0  0  0  0
  6  7  1  0  0  0  0
  6 17  2  0  0  0  0
  7  8  1  0  0  0  0
  7 24  1  0  0  0  0
  8  9  2  0  0  0  0
  8 10  1  0  0  0  0
 10 11  1  0  0  0  0
 10 25  1  0  0  0  0
 11 16  1  0  0  0  0
 11 12  1  0  0  0  0
 11 26  1  0  0  0  0
 12 13  2  0  0  0  0
 12 27  1  0  0  0  0
 13 14  1  0  0  0  0
 13 28  1  0  0  0  0
 14 15  1  0  0  0  0
 14 29  1  0  0  0  0
 14 30  1  0  0  0  0
 15 16  1  0  0  0  0
 15 31  1  0  0  0  0
 15 32  1  0  0  0  0
 16 33  1  0  0  0  0
 16 34  1  0  0  0  0
M  END
> <s_m_source_file>
AV-unprocessed.smi

> <i_m_source_file_index>
2794

> <i_lp_mmshare_version>
43012

> <i_f3d_flags>
0

> <s_epik_input>
W0NIM11jMVtjSF1bY0hdW2NIXWMobjEpW05IXUMoPU8pW05IXVtDQEBIXTJbQ0hdPVtDSF1bQ0gyXVtDSDJdW0NIMl0y

> <s_epik_cmdline>
J2VwaWtfcHl0aG9uJywgJy1waCcsICc3LjAnLCAnLXRuJywgJzgnLCAnLW1hJywgJzIwMCcsICctbWV0YWxfYmluZGluZycsICctaW1hZScsICc8aW5maWxlLm1hZT4nLCAnLW9tYWUnLCAnPG91dGZpbGUubWFlPic=

> <r_lp_tautomer_probability>
1

> <r_epik_Ionization_Penalty>
8.4544e-05

> <r_epik_Ionization_Penalty_Charging>
0

> <r_epik_Ionization_Penalty_Neutral>
8.4544e-05

> <r_epik_State_Penalty>
-0

> <r_epik_Charging_Adjusted_Penalty>
0

> <i_epik_Tot_Q>
0

> <i_epik_Tot_abs_Q>
0

> <r_epik_Metal_State_Penalty>
-0

> <b_epik_Metal_Only>
0

> <s_lp_Force_Field>
OPLS_2005

> <r_lp_Energy>
18.5134

> <b_lp_Chiralities_Consistent>
1

> <s_lp_Variant>
AV-unprocessed.smi:2794-2

> <Gold.Version>
5.8.1

> <Gold.Id.Protein>
6NUR|6NUR_protein|mol2

> <Gold.PLP.Fitness>
45.4867

> <Gold.PLP.PLP>
-40.1853

> <Gold.PLP.part.hbond>
-2.0000

> <Gold.PLP.part.metal>
0.0000

> <Gold.PLP.part.buried>
-2.6984

> <Gold.PLP.part.nonpolar>
-35.9860

> <Gold.PLP.part.repulsive>
0.2318

> <Gold.PLP.ligand.clash>
0.0000

> <Gold.PLP.ligand.torsion>
0.1489

> <Gold.PLP.Chemscore.Hbond>
1.8640

> <Gold.PLP.Chemscore.CHOScore>
0.0000

> <Gold.PLP.Chemscore.Metal>
0.0000

> <Gold.Chemscore.Hbonds>
donor molecule, donor type, donor heavy atom, donor atom, acceptor molecule, acceptor atom, score
      L1  H     7    24       P1  8028  1.00
      L1  H    10    25       P1  8028  0.78

> <Gold.PLP.Chemscore.Internal.Correction>
0.0072

> <Gold.Rescore>
     Score         DG    S(hbond)    S(metal)    S(lipo)     H(rot)  DE(clash)    DE(int)     intcor
     18.38     -21.45       1.96        0.00     102.46       1.00       0.11       2.96       ----

> <Gold.Chemscore.Fitness>
18.3783

> <Gold.Chemscore.DG>
-21.4493

> <Gold.Chemscore.ZeroCoef>
-5.4800

> <Gold.Chemscore.Hbond>
1.9586

> <Gold.Chemscore.Metal>
0.0000

> <Gold.Chemscore.Lipo>
102.4579

> <Gold.Chemscore.Internal_Hbond>
0.0000

> <Gold.Chemscore.DEClash>
0.1132

> <Gold.Chemscore.DEInternal>
2.9578

> <Gold.Chemscore.Rot>
1.0000

> <Gold.Chemscore.Internal.Correction>
   9.000000E+99

> <Gold.Chemscore.Hbonds>
donor molecule, donor type, donor heavy atom, donor atom, acceptor molecule, acceptor atom, score
      L1  H     7    24       P1  8028  0.97
      L1  H    10    25       P1  8028  0.63

> <Gold.Chemscore.Hbond.Weighted>
-6.5418

> <Gold.Chemscore.Metal.Weighted>
-0.0000

> <Gold.Chemscore.Lipo.Weighted>
-11.9876

> <Gold.Chemscore.Internal_Hbond.Weighted>
0.0000

> <Gold.Chemscore.DEClash.Weighted>
0.1132

> <Gold.Chemscore.DEInternal.Weighted>
2.9578

> <Gold.Chemscore.Rot.Weighted>
2.5600

> <Gold.Chemscore.Internal.Correction.Weighted>
   9.000000E+99

> <Gold.Protein.RotatedTorsions>
[ 6907 6896 6895 6894 ] final  -13.58 input  -60.11 | X-H torsion
[ 7974 7965 7964 7962 ] final  107.78 input  175.53 | X-H torsion
[ 8008 7997 7996 7995 ] final   33.91 input   59.86 | X-H torsion
[ 10167 10162 10161 10158 ] final  133.75 input  -65.29 | X-H torsion
[ 10718 10713 10712 10709 ] final  144.41 input   66.30 | X-H torsion
[ 10763 10752 10751 10750 ] final  -35.75 input  -60.55 | X-H torsion
[ 11005 11000 10999 10996 ] final   42.77 input  -57.11 | X-H torsion

> <Gold.Protein.ActiveResidues>
 VAL166  LYS551  ARG553  GLY616  TRP617  ASP618  TYR619  PRO620  LYS621  CYS622 
 ASP623  PHE694  ASN695  SER759  ASP760  ASP761  ALA762  ILE779  LEU786  VAL792 
 PHE793  MET794  SER795  GLU796  ALA797  LYS798  CYS799  TRP800  GLU811  SER814 

> <Gold.Protein.RotatedAtoms>
  151.3527  135.0888  159.9408 H   0  0  0  0  0  0  0  0  0  0  0  0  # atno 6907 bound_to 6896
  152.5183  133.9336  159.7603 H   0  0  0  0  0  0  0  0  0  0  0  0  # atno 6908 bound_to 6896
  150.9715  133.6285  159.2766 H   0  0  0  0  0  0  0  0  0  0  0  0  # atno 6909 bound_to 6896
  145.2891  139.2606  143.3874 H   0  0  0  0  0  0  0  0  0  0  0  0  # atno 7974 bound_to 7965
  155.1463  140.3271  155.4441 H   0  0  0  0  0  0  0  0  0  0  0  0  # atno 8008 bound_to 7997
  156.2588  140.1985  156.6527 H   0  0  0  0  0  0  0  0  0  0  0  0  # atno 8009 bound_to 7997
  154.6505  140.0559  156.9937 H   0  0  0  0  0  0  0  0  0  0  0  0  # atno 8010 bound_to 7997
  139.5284  144.6601  151.5040 H   0  0  0  0  0  0  0  0  0  0  0  0  # atno 10167 bound_to 10162
  157.3575  131.0960  151.0945 H   0  0  0  0  0  0  0  0  0  0  0  0  # atno 10718 bound_to 10713
  153.8683  135.6833  153.4776 H   0  0  0  0  0  0  0  0  0  0  0  0  # atno 10763 bound_to 10752
  153.1302  135.4701  154.9334 H   0  0  0  0  0  0  0  0  0  0  0  0  # atno 10764 bound_to 10752
  154.7726  135.3243  154.8108 H   0  0  0  0  0  0  0  0  0  0  0  0  # atno 10765 bound_to 10752
  140.1708  134.4225  155.8259 H   0  0  0  0  0  0  0  0  0  0  0  0  # atno 11005 bound_to 11000
  146.3191  140.3378  142.8645 LP  0  0  0  0  0  0  0  0  0  0  0  0  # atno 17320 bound_to 7965
  144.9187  140.7843  143.5761 LP  0  0  0  0  0  0  0  0  0  0  0  0  # atno 17321 bound_to 7965
  140.6445  143.8823  150.6723 LP  0  0  0  0  0  0  0  0  0  0  0  0  # atno 17342 bound_to 10162
  140.2168  143.3840  152.1675 LP  0  0  0  0  0  0  0  0  0  0  0  0  # atno 17343 bound_to 10162
  157.2097  130.6432  149.5769 LP  0  0  0  0  0  0  0  0  0  0  0  0  # atno 17370 bound_to 10713
  155.9732  130.4664  150.6287 LP  0  0  0  0  0  0  0  0  0  0  0  0  # atno 17371 bound_to 10713
  141.2217  133.6955  156.7759 LP  0  0  0  0  0  0  0  0  0  0  0  0  # atno 17394 bound_to 11000
  140.2380  134.8635  157.3545 LP  0  0  0  0  0  0  0  0  0  0  0  0  # atno 17395 bound_to 11000

$$$$
