AV-unprocessed.smi:520|AV-procd|sdf|2798|dock3
  -GOLD-   2262023273D 1   1.00000     0.00000
 Structure written by MMmdl.
 40 42  0  0  0  0  0  0  0  0  2 V2000
  152.9453  141.3848  160.6453 C   0  0  0  0  0  0  0  0  0  0  0  0
  152.3536  142.4083  159.6942 C   0  0  0  0  0  0  0  0  0  0  0  0
  152.6613  143.7748  159.8621 C   0  0  0  0  0  0  0  0  0  0  0  0
  152.1162  144.7366  158.9924 C   0  0  0  0  0  0  0  0  0  0  0  0
  151.2613  144.3337  157.9512 C   0  0  0  0  0  0  0  0  0  0  0  0
  150.9531  142.9711  157.7774 C   0  0  0  0  0  0  0  0  0  0  0  0
  151.4974  141.9923  158.6477 C   0  0  0  0  0  0  0  0  0  0  0  0
  151.2422  140.6417  158.5351 O   0  0  0  0  0  0  0  0  0  0  0  0
  150.3048  140.2038  157.5607 C   0  0  0  0  0  0  0  0  0  0  0  0
  150.9095  140.3659  156.1584 C   0  0  0  0  0  0  0  0  0  0  0  0
  150.0804  139.7412  155.1165 N   0  0  0  0  0  0  0  0  0  0  0  0
  150.1992  138.5231  154.5145 C   0  0  0  0  0  0  0  0  0  0  0  0
  151.2457  137.4921  154.7947 C   0  0  0  0  0  0  0  0  0  0  0  0
  152.1069  137.2584  153.6996 O   0  0  0  0  0  0  0  0  0  0  0  0
  149.1854  138.4228  153.6075 N   0  3  0  0  0  0  0  0  0  0  0  0
  148.4161  139.5865  153.6251 C   0  0  0  0  0  0  0  0  0  0  0  0
  147.2960  139.9497  152.8839 C   0  0  0  0  0  0  0  0  0  0  0  0
  146.7504  141.2238  153.1448 C   0  0  0  0  0  0  0  0  0  0  0  0
  147.3160  142.0805  154.1113 C   0  0  0  0  0  0  0  0  0  0  0  0
  148.4494  141.6993  154.8590 C   0  0  0  0  0  0  0  0  0  0  0  0
  148.9844  140.4388  154.5937 C   0  0  0  0  0  0  0  0  0  0  0  0
  153.5479  141.8600  161.4198 H   0  0  0  0  0  0  0  0  0  0  0  0
  153.5809  140.6857  160.1013 H   0  0  0  0  0  0  0  0  0  0  0  0
  152.1517  140.8197  161.1348 H   0  0  0  0  0  0  0  0  0  0  0  0
  153.3171  144.0919  160.6597 H   0  0  0  0  0  0  0  0  0  0  0  0
  152.3535  145.7820  159.1242 H   0  0  0  0  0  0  0  0  0  0  0  0
  150.8412  145.0710  157.2829 H   0  0  0  0  0  0  0  0  0  0  0  0
  150.2957  142.7027  156.9648 H   0  0  0  0  0  0  0  0  0  0  0  0
  150.0508  139.1560  157.7283 H   0  0  0  0  0  0  0  0  0  0  0  0
  149.3871  140.7894  157.6294 H   0  0  0  0  0  0  0  0  0  0  0  0
  151.0079  141.4242  155.9151 H   0  0  0  0  0  0  0  0  0  0  0  0
  151.9152  139.9477  156.1149 H   0  0  0  0  0  0  0  0  0  0  0  0
  151.8419  137.8106  155.6500 H   0  0  0  0  0  0  0  0  0  0  0  0
  150.7595  136.5554  155.0678 H   0  0  0  0  0  0  0  0  0  0  0  0
  151.5818  137.0316  152.9472 H   0  0  0  0  0  0  0  0  0  0  0  0
  146.8620  139.2954  152.1420 H   0  0  0  0  0  0  0  0  0  0  0  0
  145.8820  141.5510  152.5917 H   0  0  0  0  0  0  0  0  0  0  0  0
  146.8728  143.0510  154.2818 H   0  0  0  0  0  0  0  0  0  0  0  0
  148.8782  142.3672  155.5912 H   0  0  0  0  0  0  0  0  0  0  0  0
  149.0401  137.6133  153.0179 H   0  0  0  0  0  0  0  0  0  0  0  0
  1  2  1  0  0  0  0
  1 22  1  0  0  0  0
  1 23  1  0  0  0  0
  1 24  1  0  0  0  0
  2  7  1  0  0  0  0
  2  3  2  0  0  0  0
  3  4  1  0  0  0  0
  3 25  1  0  0  0  0
  4  5  2  0  0  0  0
  4 26  1  0  0  0  0
  5  6  1  0  0  0  0
  5 27  1  0  0  0  0
  6  7  2  0  0  0  0
  6 28  1  0  0  0  0
  7  8  1  0  0  0  0
  8  9  1  0  0  0  0
  9 10  1  0  0  0  0
  9 29  1  0  0  0  0
  9 30  1  0  0  0  0
 10 11  1  0  0  0  0
 10 31  1  0  0  0  0
 10 32  1  0  0  0  0
 11 21  1  0  0  0  0
 11 12  1  0  0  0  0
 12 13  1  0  0  0  0
 12 15  2  0  0  0  0
 13 14  1  0  0  0  0
 13 33  1  0  0  0  0
 13 34  1  0  0  0  0
 14 35  1  0  0  0  0
 15 16  1  0  0  0  0
 15 40  1  0  0  0  0
 16 21  2  0  0  0  0
 16 17  1  0  0  0  0
 17 18  2  0  0  0  0
 17 36  1  0  0  0  0
 18 19  1  0  0  0  0
 18 37  1  0  0  0  0
 19 20  2  0  0  0  0
 19 38  1  0  0  0  0
 20 21  1  0  0  0  0
 20 39  1  0  0  0  0
M  CHG  1  15   1
M  END
> <s_m_source_file>
AV-unprocessed.smi

> <i_m_source_file_index>
520

> <i_lp_mmshare_version>
43012

> <i_f3d_flags>
0

> <s_epik_input>
W0NIM11jMVtjSF1bY0hdW2NIXVtjSF1jMU9bQ0gyXVtDSDJdbihjKG4yKVtDSDJdW09IXSljKGMyMylbY0hdW2NIXVtjSF1bY0hdMw==

> <s_epik_cmdline>
J2VwaWtfcHl0aG9uJywgJy1waCcsICc3LjAnLCAnLXRuJywgJzgnLCAnLW1hJywgJzIwMCcsICctbWV0YWxfYmluZGluZycsICctaW1hZScsICc8aW5maWxlLm1hZT4nLCAnLW9tYWUnLCAnPG91dGZpbGUubWFlPic=

> <r_lp_tautomer_probability>
1

> <r_epik_Ionization_Penalty>
1.50718

> <r_epik_Ionization_Penalty_Charging>
1.50632

> <r_epik_Ionization_Penalty_Neutral>
0.000855784

> <r_epik_State_Penalty>
1.59697

> <r_epik_Charging_Adjusted_Penalty>
3.1033

> <i_epik_Tot_Q>
1

> <i_epik_Tot_abs_Q>
1

> <r_epik_Metal_State_Penalty>
5.64835

> <b_epik_Metal_Only>
0

> <s_lp_Force_Field>
OPLS_2005

> <r_lp_Energy>
16.7784

> <b_lp_Chiralities_Consistent>
1

> <s_lp_Variant>
AV-unprocessed.smi:520-2

> <Gold.Version>
5.8.1

> <Gold.Id.Protein>
6NUR|6NUR_protein|mol2

> <Gold.PLP.Fitness>
64.7132

> <Gold.PLP.PLP>
-53.5198

> <Gold.PLP.part.hbond>
-4.0000

> <Gold.PLP.part.metal>
0.0000

> <Gold.PLP.part.buried>
1.1151

> <Gold.PLP.part.nonpolar>
-49.3373

> <Gold.PLP.part.repulsive>
0.0618

> <Gold.PLP.ligand.clash>
0.0000

> <Gold.PLP.ligand.torsion>
0.4213

> <Gold.PLP.Chemscore.Hbond>
4.0000

> <Gold.PLP.Chemscore.CHOScore>
0.0000

> <Gold.PLP.Chemscore.Metal>
0.0000

> <Gold.Chemscore.Hbonds>
donor molecule, donor type, donor heavy atom, donor atom, acceptor molecule, acceptor atom, score
      L1  H    14    35       P1  7949  1.00
      L1  H    15    40       P1  7948  2.00
      P1  H 10752 10765       L1    14  1.00

> <Gold.PLP.Chemscore.Internal.Correction>
0.0360

> <Gold.Rescore>
     Score         DG    S(hbond)    S(metal)    S(lipo)     H(rot)  DE(clash)    DE(int)     intcor
     23.37     -23.89       2.36        0.00     138.55       2.23       0.11       0.41       ----

> <Gold.Chemscore.Fitness>
23.3692

> <Gold.Chemscore.DG>
-23.8861

> <Gold.Chemscore.ZeroCoef>
-5.4800

> <Gold.Chemscore.Hbond>
2.3633

> <Gold.Chemscore.Metal>
0.0000

> <Gold.Chemscore.Lipo>
138.5535

> <Gold.Chemscore.Internal_Hbond>
0.0000

> <Gold.Chemscore.DEClash>
0.1078

> <Gold.Chemscore.DEInternal>
0.4091

> <Gold.Chemscore.Rot>
2.2258

> <Gold.Chemscore.Internal.Correction>
   9.000000E+99

> <Gold.Chemscore.Hbonds>
donor molecule, donor type, donor heavy atom, donor atom, acceptor molecule, acceptor atom, score
      L1  H    14    35       P1  7949  0.93
      L1  H    15    40       P1  7948  1.00
      P1  H 10752 10765       L1    14  0.21

> <Gold.Chemscore.Hbond.Weighted>
-7.8935

> <Gold.Chemscore.Metal.Weighted>
-0.0000

> <Gold.Chemscore.Lipo.Weighted>
-16.2108

> <Gold.Chemscore.Internal_Hbond.Weighted>
0.0000

> <Gold.Chemscore.DEClash.Weighted>
0.1078

> <Gold.Chemscore.DEInternal.Weighted>
0.4091

> <Gold.Chemscore.Rot.Weighted>
5.6982

> <Gold.Chemscore.Internal.Correction.Weighted>
   9.000000E+99

> <Gold.Protein.RotatedTorsions>
[ 6907 6896 6895 6894 ] final   86.18 input  -60.11 | X-H torsion
[ 7974 7965 7964 7962 ] final  154.17 input  175.53 | X-H torsion
[ 8008 7997 7996 7995 ] final  110.32 input   59.86 | X-H torsion
[ 10167 10162 10161 10158 ] final   60.06 input  -65.29 | X-H torsion
[ 10718 10713 10712 10709 ] final  -17.87 input   66.30 | X-H torsion
[ 10763 10752 10751 10750 ] final  133.54 input  -60.55 | X-H torsion
[ 11005 11000 10999 10996 ] final  130.51 input  -57.11 | X-H torsion

> <Gold.Protein.ActiveResidues>
 VAL166  LYS551  ARG553  GLY616  TRP617  ASP618  TYR619  PRO620  LYS621  CYS622 
 ASP623  PHE694  ASN695  SER759  ASP760  ASP761  ALA762  ILE779  LEU786  VAL792 
 PHE793  MET794  SER795  GLU796  ALA797  LYS798  CYS799  TRP800  GLU811  SER814 

> <Gold.Protein.RotatedAtoms>
  152.5389  134.2472  159.8884 H   0  0  0  0  0  0  0  0  0  0  0  0  # atno 6907 bound_to 6896
  151.2437  133.4379  159.2616 H   0  0  0  0  0  0  0  0  0  0  0  0  # atno 6908 bound_to 6896
  151.0603  134.9746  159.8313 H   0  0  0  0  0  0  0  0  0  0  0  0  # atno 6909 bound_to 6896
  144.8106  139.6898  143.6143 H   0  0  0  0  0  0  0  0  0  0  0  0  # atno 7974 bound_to 7965
  156.2044  140.3041  155.9596 H   0  0  0  0  0  0  0  0  0  0  0  0  # atno 8008 bound_to 7997
  155.2876  140.0440  157.3037 H   0  0  0  0  0  0  0  0  0  0  0  0  # atno 8009 bound_to 7997
  154.5614  140.2321  155.8339 H   0  0  0  0  0  0  0  0  0  0  0  0  # atno 8010 bound_to 7997
  140.1697  144.4289  150.6667 H   0  0  0  0  0  0  0  0  0  0  0  0  # atno 10167 bound_to 10162
  156.5675  130.4741  149.6378 H   0  0  0  0  0  0  0  0  0  0  0  0  # atno 10718 bound_to 10713
  153.8089  135.3132  155.3398 H   0  0  0  0  0  0  0  0  0  0  0  0  # atno 10763 bound_to 10752
  154.8059  135.4698  154.0395 H   0  0  0  0  0  0  0  0  0  0  0  0  # atno 10764 bound_to 10752
  153.1767  135.6887  153.8622 H   0  0  0  0  0  0  0  0  0  0  0  0  # atno 10765 bound_to 10752
  139.9676  134.9586  156.9304 H   0  0  0  0  0  0  0  0  0  0  0  0  # atno 11005 bound_to 11000
  146.2404  139.5989  142.9495 LP  0  0  0  0  0  0  0  0  0  0  0  0  # atno 17320 bound_to 7965
  145.5333  141.0425  143.2371 LP  0  0  0  0  0  0  0  0  0  0  0  0  # atno 17321 bound_to 7965
  140.6590  143.2246  151.5901 LP  0  0  0  0  0  0  0  0  0  0  0  0  # atno 17342 bound_to 10162
  139.5343  144.2825  152.1218 LP  0  0  0  0  0  0  0  0  0  0  0  0  # atno 17343 bound_to 10162
  156.2744  130.7035  151.1841 LP  0  0  0  0  0  0  0  0  0  0  0  0  # atno 17370 bound_to 10713
  157.7355  131.0571  150.5465 LP  0  0  0  0  0  0  0  0  0  0  0  0  # atno 17371 bound_to 10713
  140.5362  134.0765  155.7329 LP  0  0  0  0  0  0  0  0  0  0  0  0  # atno 17394 bound_to 11000
  141.1356  133.9227  157.2441 LP  0  0  0  0  0  0  0  0  0  0  0  0  # atno 17395 bound_to 11000

$$$$
