AV-unprocessed.smi:1589|AV-procd|sdf|6393|dock4
  -GOLD-   22720 7 23D 1   1.00000     0.00000
 Structure written by MMmdl.
 44 45  0  0  0  0  0  0  0  0  2 V2000
  145.4375  128.5123  152.5880 C   0  0  0  0  0  0  0  0  0  0  0  0
  146.2167  129.0372  151.3634 C   0  0  0  0  0  0  0  0  0  0  0  0
  147.3999  128.0859  151.0887 C   0  0  0  0  0  0  0  0  0  0  0  0
  146.6598  130.4602  151.5256 N   0  3  0  0  0  0  0  0  0  0  0  0
  147.0446  130.8085  152.9281 C   0  0  0  0  0  0  0  0  0  0  0  0
  147.4367  132.2892  153.0832 C   0  0  0  0  0  0  0  0  0  0  0  0
  146.3347  133.1242  152.5942 N   0  0  0  0  0  0  0  0  0  0  0  0
  145.4302  133.7917  153.3549 C   0  0  0  0  0  0  0  0  0  0  0  0
  145.4116  133.7122  154.5832 O   0  0  0  0  0  0  0  0  0  0  0  0
  144.5305  134.5017  152.6480 N   0  0  0  0  0  0  0  0  0  0  0  0
  143.4989  135.3344  153.1493 C   0  0  0  0  0  0  0  0  0  0  0  0
  142.5682  135.0897  154.1984 C   0  0  0  0  0  0  0  0  0  0  0  0
  141.7594  136.1247  154.3668 N   0  0  0  0  0  0  0  0  0  0  0  0
  142.1552  137.0380  153.4451 N   0  0  0  0  0  0  0  0  0  0  0  0
  141.4691  138.3170  153.3574 C   0  0  0  0  0  0  0  0  0  0  0  0
  139.9441  138.1598  153.3259 C   0  0  0  0  0  0  0  0  0  0  0  0
  139.3005  138.7484  152.3147 N   0  0  0  0  0  0  0  0  0  0  0  0
  139.3498  137.5180  154.1908 O   0  0  0  0  0  0  0  0  0  0  0  0
  143.2126  136.5817  152.6820 C   0  0  0  0  0  0  0  0  0  0  0  0
  146.1366  132.9020  151.1625 C   0  0  0  0  0  0  0  0  0  0  0  0
  145.6983  131.4435  150.9388 C   0  0  0  0  0  0  0  0  0  0  0  0
  145.2216  127.4481  152.4889 H   0  0  0  0  0  0  0  0  0  0  0  0
  144.4721  129.0044  152.7054 H   0  0  0  0  0  0  0  0  0  0  0  0
  146.0051  128.6464  153.5096 H   0  0  0  0  0  0  0  0  0  0  0  0
  145.5458  128.9921  150.5040 H   0  0  0  0  0  0  0  0  0  0  0  0
  147.0734  127.0455  151.0806 H   0  0  0  0  0  0  0  0  0  0  0  0
  148.1719  128.1805  151.8532 H   0  0  0  0  0  0  0  0  0  0  0  0
  147.8587  128.2641  150.1165 H   0  0  0  0  0  0  0  0  0  0  0  0
  146.2157  130.5757  153.5986 H   0  0  0  0  0  0  0  0  0  0  0  0
  147.8961  130.2103  153.2493 H   0  0  0  0  0  0  0  0  0  0  0  0
  147.7183  132.4893  154.1170 H   0  0  0  0  0  0  0  0  0  0  0  0
  148.3325  132.5001  152.4971 H   0  0  0  0  0  0  0  0  0  0  0  0
  144.6165  134.4669  151.6429 H   0  0  0  0  0  0  0  0  0  0  0  0
  142.4461  134.2243  154.8323 H   0  0  0  0  0  0  0  0  0  0  0  0
  141.7664  138.9242  154.2136 H   0  0  0  0  0  0  0  0  0  0  0  0
  141.7943  138.8444  152.4593 H   0  0  0  0  0  0  0  0  0  0  0  0
  138.2955  138.6804  152.2457 H   0  0  0  0  0  0  0  0  0  0  0  0
  139.8243  139.2640  151.6221 H   0  0  0  0  0  0  0  0  0  0  0  0
  143.6593  137.1744  151.8973 H   0  0  0  0  0  0  0  0  0  0  0  0
  145.4037  133.5844  150.7293 H   0  0  0  0  0  0  0  0  0  0  0  0
  147.0686  133.1005  150.6311 H   0  0  0  0  0  0  0  0  0  0  0  0
  145.6015  131.2902  149.8651 H   0  0  0  0  0  0  0  0  0  0  0  0
  144.7103  131.2870  151.3754 H   0  0  0  0  0  0  0  0  0  0  0  0
  147.5072  130.5532  150.9841 H   0  0  0  0  0  0  0  0  0  0  0  0
  1  2  1  0  0  0  0
  1 22  1  0  0  0  0
  1 23  1  0  0  0  0
  1 24  1  0  0  0  0
  2  3  1  0  0  0  0
  2  4  1  0  0  0  0
  2 25  1  0  0  0  0
  3 26  1  0  0  0  0
  3 27  1  0  0  0  0
  3 28  1  0  0  0  0
  4 21  1  0  0  0  0
  4  5  1  0  0  0  0
  4 44  1  0  0  0  0
  5  6  1  0  0  0  0
  5 29  1  0  0  0  0
  5 30  1  0  0  0  0
  6  7  1  0  0  0  0
  6 31  1  0  0  0  0
  6 32  1  0  0  0  0
  7  8  1  0  0  0  0
  7 20  1  0  0  0  0
  8  9  2  0  0  0  0
  8 10  1  0  0  0  0
 10 11  1  0  0  0  0
 10 33  1  0  0  0  0
 11 19  2  0  0  0  0
 11 12  1  0  0  0  0
 12 13  2  0  0  0  0
 12 34  1  0  0  0  0
 13 14  1  0  0  0  0
 14 15  1  0  0  0  0
 14 19  1  0  0  0  0
 15 16  1  0  0  0  0
 15 35  1  0  0  0  0
 15 36  1  0  0  0  0
 16 17  1  0  0  0  0
 16 18  2  0  0  0  0
 17 37  1  0  0  0  0
 17 38  1  0  0  0  0
 19 39  1  0  0  0  0
 20 21  1  0  0  0  0
 20 40  1  0  0  0  0
 20 41  1  0  0  0  0
 21 42  1  0  0  0  0
 21 43  1  0  0  0  0
M  CHG  1   4   1
M  END
> <s_m_source_file>
AV-unprocessed.smi

> <i_m_source_file_index>
1589

> <i_lp_mmshare_version>
43012

> <i_f3d_flags>
0

> <s_epik_input>
W0NIM11bQ0hdKFtDSDNdKU4xW0NIMl1bQ0gyXU4oW0NIMl1bQ0gyXTEpQyg9TylbTkhdYzJbY0hdbm4oW2NIXTIpW0NIMl1DKD1PKVtOSDJd

> <s_epik_cmdline>
J2VwaWtfcHl0aG9uJywgJy1waCcsICc3LjAnLCAnLXRuJywgJzgnLCAnLW1hJywgJzIwMCcsICctbWV0YWxfYmluZGluZycsICctaW1hZScsICc8aW5maWxlLm1hZT4nLCAnLW9tYWUnLCAnPG91dGZpbGUubWFlPic=

> <r_lp_tautomer_probability>
1

> <r_epik_Ionization_Penalty>
0.241469

> <r_epik_Ionization_Penalty_Charging>
0.241445

> <r_epik_Ionization_Penalty_Neutral>
2.46507e-05

> <r_epik_State_Penalty>
0.232445

> <r_epik_Charging_Adjusted_Penalty>
0.47389

> <i_epik_Tot_Q>
1

> <i_epik_Tot_abs_Q>
1

> <r_epik_Metal_State_Penalty>
0.232446

> <b_epik_Metal_Only>
0

> <s_lp_Force_Field>
OPLS_2005

> <r_lp_Energy>
56.898

> <b_lp_Chiralities_Consistent>
1

> <s_lp_Variant>
AV-unprocessed.smi:1589-1

> <Gold.Version>
5.8.1

> <Gold.Id.Protein>
6NUR|6NUR_protein|mol2

> <Gold.PLP.Fitness>
44.9003

> <Gold.PLP.PLP>
-36.0569

> <Gold.PLP.part.hbond>
-2.0000

> <Gold.PLP.part.metal>
0.0000

> <Gold.PLP.part.buried>
-5.9985

> <Gold.PLP.part.nonpolar>
-29.2437

> <Gold.PLP.part.repulsive>
0.3284

> <Gold.PLP.ligand.clash>
1.4385

> <Gold.PLP.ligand.torsion>
1.3842

> <Gold.PLP.Chemscore.Hbond>
2.0000

> <Gold.PLP.Chemscore.CHOScore>
2.3090

> <Gold.PLP.Chemscore.Metal>
0.0000

> <Gold.Chemscore.Hbonds>
donor molecule, donor type, donor heavy atom, donor atom, acceptor molecule, acceptor atom, score
      L1  H     4    44       P1 10747  1.00
      L1  H    17    38       P1 10160  1.00
      L1  C    12    34       P1 10957  1.00
      L1  C    12    34       P1 11000  0.32
      L1  C    19    39       P1 10171  1.00

> <Gold.PLP.Chemscore.Internal.Correction>
0.1231

> <Gold.Rescore>
     Score         DG    S(hbond)    S(metal)    S(lipo)     H(rot)  DE(clash)    DE(int)     intcor
     14.12     -16.33       1.98        0.00      76.34       1.84       0.26       1.96       ----

> <Gold.Chemscore.Fitness>
14.1164

> <Gold.Chemscore.DG>
-16.3305

> <Gold.Chemscore.ZeroCoef>
-5.4800

> <Gold.Chemscore.Hbond>
1.9842

> <Gold.Chemscore.Metal>
0.0000

> <Gold.Chemscore.Lipo>
76.3383

> <Gold.Chemscore.Internal_Hbond>
0.0000

> <Gold.Chemscore.DEClash>
0.2588

> <Gold.Chemscore.DEInternal>
1.9553

> <Gold.Chemscore.Rot>
1.8392

> <Gold.Chemscore.Internal.Correction>
   9.000000E+99

> <Gold.Chemscore.Hbonds>
donor molecule, donor type, donor heavy atom, donor atom, acceptor molecule, acceptor atom, score
      L1  H     4    44       P1 10747  1.00
      L1  H    17    38       P1 10160  0.97

> <Gold.Chemscore.Hbond.Weighted>
-6.6272

> <Gold.Chemscore.Metal.Weighted>
-0.0000

> <Gold.Chemscore.Lipo.Weighted>
-8.9316

> <Gold.Chemscore.Internal_Hbond.Weighted>
0.0000

> <Gold.Chemscore.DEClash.Weighted>
0.2588

> <Gold.Chemscore.DEInternal.Weighted>
1.9553

> <Gold.Chemscore.Rot.Weighted>
4.7083

> <Gold.Chemscore.Internal.Correction.Weighted>
   9.000000E+99

> <Gold.Protein.RotatedTorsions>
[ 6907 6896 6895 6894 ] final   95.61 input  -60.11 | X-H torsion
[ 7974 7965 7964 7962 ] final -155.29 input  175.53 | X-H torsion
[ 8008 7997 7996 7995 ] final  -81.94 input   59.86 | X-H torsion
[ 10167 10162 10161 10158 ] final   60.00 input  -65.29 | X-H torsion
[ 10718 10713 10712 10709 ] final   71.18 input   66.30 | X-H torsion
[ 10763 10752 10751 10750 ] final -129.91 input  -60.55 | X-H torsion
[ 11005 11000 10999 10996 ] final  107.54 input  -57.11 | X-H torsion

> <Gold.Protein.ActiveResidues>
 VAL166  LYS551  ARG553  GLY616  TRP617  ASP618  TYR619  PRO620  LYS621  CYS622 
 ASP623  PHE694  ASN695  SER759  ASP760  ASP761  ALA762  ILE779  LEU786  VAL792 
 PHE793  MET794  SER795  GLU796  ALA797  LYS798  CYS799  TRP800  GLU811  SER814 

> <Gold.Protein.RotatedAtoms>
  152.5442  134.1014  159.8319 H   0  0  0  0  0  0  0  0  0  0  0  0  # atno 6907 bound_to 6896
  151.1091  133.5179  159.2614 H   0  0  0  0  0  0  0  0  0  0  0  0  # atno 6908 bound_to 6896
  151.1904  135.0409  159.8884 H   0  0  0  0  0  0  0  0  0  0  0  0  # atno 6909 bound_to 6896
  144.7647  140.4269  143.5951 H   0  0  0  0  0  0  0  0  0  0  0  0  # atno 7974 bound_to 7965
  154.6034  140.0640  156.9399 H   0  0  0  0  0  0  0  0  0  0  0  0  # atno 8008 bound_to 7997
  155.2093  140.3321  155.4313 H   0  0  0  0  0  0  0  0  0  0  0  0  # atno 8009 bound_to 7997
  156.2333  140.1851  156.7170 H   0  0  0  0  0  0  0  0  0  0  0  0  # atno 8010 bound_to 7997
  140.1703  144.4283  150.6665 H   0  0  0  0  0  0  0  0  0  0  0  0  # atno 10167 bound_to 10162
  157.6438  130.9515  150.0753 H   0  0  0  0  0  0  0  0  0  0  0  0  # atno 10718 bound_to 10713
  154.8757  135.3880  154.3997 H   0  0  0  0  0  0  0  0  0  0  0  0  # atno 10763 bound_to 10752
  153.4723  135.7030  153.5991 H   0  0  0  0  0  0  0  0  0  0  0  0  # atno 10764 bound_to 10752
  153.4443  135.3849  155.2214 H   0  0  0  0  0  0  0  0  0  0  0  0  # atno 10765 bound_to 10752
  139.8830  134.9404  156.5835 H   0  0  0  0  0  0  0  0  0  0  0  0  # atno 11005 bound_to 11000
  145.6507  139.1564  143.2863 LP  0  0  0  0  0  0  0  0  0  0  0  0  # atno 17320 bound_to 7965
  146.1744  140.6596  142.9218 LP  0  0  0  0  0  0  0  0  0  0  0  0  # atno 17321 bound_to 7965
  140.6586  143.2245  151.5909 LP  0  0  0  0  0  0  0  0  0  0  0  0  # atno 17342 bound_to 10162
  139.5341  144.2832  152.1213 LP  0  0  0  0  0  0  0  0  0  0  0  0  # atno 17343 bound_to 10162
  156.1745  130.3647  149.9119 LP  0  0  0  0  0  0  0  0  0  0  0  0  # atno 17370 bound_to 10713
  156.7087  130.8961  151.3607 LP  0  0  0  0  0  0  0  0  0  0  0  0  # atno 17371 bound_to 10713
  140.8009  133.8506  155.8726 LP  0  0  0  0  0  0  0  0  0  0  0  0  # atno 17394 bound_to 11000
  140.9593  134.1677  157.4667 LP  0  0  0  0  0  0  0  0  0  0  0  0  # atno 17395 bound_to 11000

$$$$
