AV-unprocessed.smi:2137|AV-procd|sdf|8709|dock6
  -GOLD-   2272011473D 1   1.00000     0.00000
 Structure written by MMmdl.
 50 51  0  0  0  0  0  0  0  0  2 V2000
  145.9037  132.0089  149.8047 C   0  0  0  0  0  0  0  0  0  0  0  0
  146.2592  133.2800  150.5886 C   0  0  1  0  0  0  0  0  0  0  0  0
  145.0374  134.1996  150.7522 C   0  0  0  0  0  0  0  0  0  0  0  0
  145.4156  135.4467  151.5608 C   0  0  0  0  0  0  0  0  0  0  0  0
  146.0388  135.0588  152.9110 C   0  0  0  0  0  0  0  0  0  0  0  0
  147.2182  134.1747  152.7224 N   0  3  1  0  0  0  0  0  0  0  0  0
  147.9202  133.8934  154.0005 C   0  0  0  0  0  0  0  0  0  0  0  0
  148.9494  132.7575  153.8671 C   0  0  0  0  0  0  0  0  0  0  0  0
  149.6213  132.4208  155.2048 C   0  0  0  0  0  0  0  0  0  0  0  0
  148.6424  132.4334  156.2843 N   0  0  0  0  0  0  0  0  0  0  0  0
  148.7660  133.1286  157.4239 C   0  0  0  0  0  0  0  0  0  0  0  0
  149.7506  133.8178  157.6921 O   0  0  0  0  0  0  0  0  0  0  0  0
  147.6059  133.0062  158.4203 C   0  0  0  0  0  0  0  0  0  0  0  0
  147.4490  134.2054  159.2531 N   0  0  0  0  0  0  0  0  0  0  0  0
  147.4620  135.4569  158.6646 C   0  0  0  0  0  0  0  0  0  0  0  0
  147.3218  136.6075  159.3586 C   0  0  0  0  0  0  0  0  0  0  0  0
  147.1404  136.5919  160.8050 C   0  0  0  0  0  0  0  0  0  0  0  0
  147.0332  137.6165  161.4801 O   0  0  0  0  0  0  0  0  0  0  0  0
  147.1116  135.2987  161.3794 N   0  0  0  0  0  0  0  0  0  0  0  0
  146.9514  135.1937  162.8152 C   0  0  0  0  0  0  0  0  0  0  0  0
  147.2770  134.0994  160.6504 C   0  0  0  0  0  0  0  0  0  0  0  0
  147.2793  132.9946  161.1993 O   0  0  0  0  0  0  0  0  0  0  0  0
  146.8612  132.9427  151.9676 C   0  0  0  0  0  0  0  0  0  0  0  0
  145.1475  131.4198  150.3248 H   0  0  0  0  0  0  0  0  0  0  0  0
  146.7800  131.3755  149.6633 H   0  0  0  0  0  0  0  0  0  0  0  0
  145.5132  132.2540  148.8165 H   0  0  0  0  0  0  0  0  0  0  0  0
  147.0143  133.8191  150.0139 H   0  0  0  0  0  0  0  0  0  0  0  0
  144.6505  134.4936  149.7757 H   0  0  0  0  0  0  0  0  0  0  0  0
  144.2324  133.6650  151.2586 H   0  0  0  0  0  0  0  0  0  0  0  0
  146.1205  136.0540  150.9910 H   0  0  0  0  0  0  0  0  0  0  0  0
  144.5332  136.0669  151.7218 H   0  0  0  0  0  0  0  0  0  0  0  0
  146.3367  135.9662  153.4381 H   0  0  0  0  0  0  0  0  0  0  0  0
  145.3004  134.5554  153.5373 H   0  0  0  0  0  0  0  0  0  0  0  0
  148.4529  134.7892  154.3232 H   0  0  0  0  0  0  0  0  0  0  0  0
  147.1927  133.6710  154.7826 H   0  0  0  0  0  0  0  0  0  0  0  0
  148.4734  131.8566  153.4803 H   0  0  0  0  0  0  0  0  0  0  0  0
  149.7110  133.0423  153.1398 H   0  0  0  0  0  0  0  0  0  0  0  0
  150.0843  131.4341  155.1616 H   0  0  0  0  0  0  0  0  0  0  0  0
  150.4175  133.1409  155.4020 H   0  0  0  0  0  0  0  0  0  0  0  0
  147.8044  131.8856  156.1521 H   0  0  0  0  0  0  0  0  0  0  0  0
  146.6751  132.7942  157.8909 H   0  0  0  0  0  0  0  0  0  0  0  0
  147.7905  132.1350  159.0501 H   0  0  0  0  0  0  0  0  0  0  0  0
  147.5911  135.5216  157.5940 H   0  0  0  0  0  0  0  0  0  0  0  0
  147.3457  137.5528  158.8367 H   0  0  0  0  0  0  0  0  0  0  0  0
  146.3787  134.2946  163.0480 H   0  0  0  0  0  0  0  0  0  0  0  0
  146.3932  136.0524  163.1905 H   0  0  0  0  0  0  0  0  0  0  0  0
  147.9538  135.1519  163.2435 H   0  0  0  0  0  0  0  0  0  0  0  0
  146.1555  132.3503  152.5527 H   0  0  0  0  0  0  0  0  0  0  0  0
  147.7454  132.3230  151.8235 H   0  0  0  0  0  0  0  0  0  0  0  0
  147.8669  134.6946  152.1488 H   0  0  0  0  0  0  0  0  0  0  0  0
  1  2  1  0  0  0  0
  1 24  1  0  0  0  0
  1 25  1  0  0  0  0
  1 26  1  0  0  0  0
  2 23  1  0  0  0  0
  2  3  1  0  0  0  0
  2 27  1  0  0  0  0
  3  4  1  0  0  0  0
  3 28  1  0  0  0  0
  3 29  1  0  0  0  0
  4  5  1  0  0  0  0
  4 30  1  0  0  0  0
  4 31  1  0  0  0  0
  5  6  1  0  0  0  0
  5 32  1  0  0  0  0
  5 33  1  0  0  0  0
  6  7  1  0  0  0  0
  6 23  1  0  0  0  0
  6 50  1  0  0  0  0
  7  8  1  0  0  0  0
  7 34  1  0  0  0  0
  7 35  1  0  0  0  0
  8  9  1  0  0  0  0
  8 36  1  0  0  0  0
  8 37  1  0  0  0  0
  9 10  1  0  0  0  0
  9 38  1  0  0  0  0
  9 39  1  0  0  0  0
 10 11  1  0  0  0  0
 10 40  1  0  0  0  0
 11 12  2  0  0  0  0
 11 13  1  0  0  0  0
 13 14  1  0  0  0  0
 13 41  1  0  0  0  0
 13 42  1  0  0  0  0
 14 21  1  0  0  0  0
 14 15  1  0  0  0  0
 15 16  2  0  0  0  0
 15 43  1  0  0  0  0
 16 17  1  0  0  0  0
 16 44  1  0  0  0  0
 17 18  2  0  0  0  0
 17 19  1  0  0  0  0
 19 20  1  0  0  0  0
 19 21  1  0  0  0  0
 20 45  1  0  0  0  0
 20 46  1  0  0  0  0
 20 47  1  0  0  0  0
 21 22  2  0  0  0  0
 23 48  1  0  0  0  0
 23 49  1  0  0  0  0
M  CHG  1   6   1
M  END
> <s_m_source_file>
AV-unprocessed.smi

> <i_m_source_file_index>
2137

> <i_lp_mmshare_version>
43012

> <i_f3d_flags>
0

> <s_epik_input>
W0NIM11bQ0BASF0xW0NIMl1bQ0gyXVtDSDJdTihbQ0gyXTEpW0NIMl1bQ0gyXVtDSDJdW05IXUMoPU8pW0NIMl1uMltjSF1bY0hdYyg9TyluKFtDSDNdKWMyPU8=

> <s_epik_cmdline>
J2VwaWtfcHl0aG9uJywgJy1waCcsICc3LjAnLCAnLXRuJywgJzgnLCAnLW1hJywgJzIwMCcsICctbWV0YWxfYmluZGluZycsICctaW1hZScsICc8aW5maWxlLm1hZT4nLCAnLW9tYWUnLCAnPG91dGZpbGUubWFlPic=

> <r_lp_tautomer_probability>
1

> <r_epik_Ionization_Penalty>
0.000384839

> <r_epik_Ionization_Penalty_Charging>
0.000384812

> <r_epik_Ionization_Penalty_Neutral>
2.6907e-08

> <r_epik_State_Penalty>
0.000235226

> <r_epik_Charging_Adjusted_Penalty>
0.000620038

> <i_epik_Tot_Q>
1

> <i_epik_Tot_abs_Q>
1

> <r_epik_Metal_State_Penalty>
-0

> <b_epik_Metal_Only>
0

> <s_lp_Force_Field>
OPLS_2005

> <r_lp_Energy>
25.3587

> <b_lp_Chiralities_Consistent>
1

> <s_lp_Variant>
AV-unprocessed.smi:2137-4

> <Gold.Version>
5.8.1

> <Gold.Id.Protein>
6NUR|6NUR_protein|mol2

> <Gold.PLP.Fitness>
54.0210

> <Gold.PLP.PLP>
-41.1232

> <Gold.PLP.part.hbond>
-4.0000

> <Gold.PLP.part.metal>
0.0000

> <Gold.PLP.part.buried>
-4.1991

> <Gold.PLP.part.nonpolar>
-32.3943

> <Gold.PLP.part.repulsive>
0.0034

> <Gold.PLP.ligand.clash>
0.0000

> <Gold.PLP.ligand.torsion>
0.7622

> <Gold.PLP.Chemscore.Hbond>
4.7760

> <Gold.PLP.Chemscore.CHOScore>
0.0000

> <Gold.PLP.Chemscore.Metal>
0.0000

> <Gold.Chemscore.Hbonds>
donor molecule, donor type, donor heavy atom, donor atom, acceptor molecule, acceptor atom, score
      L1  H     6    50       P1  7948  2.00
      P1  H  6896  6909       L1    12  0.94
      P1  H  6931  6943       L1    18  0.47
      P1  H  6934  6947       L1    18  0.92

> <Gold.PLP.Chemscore.Internal.Correction>
0.0943

> <Gold.Rescore>
     Score         DG    S(hbond)    S(metal)    S(lipo)     H(rot)  DE(clash)    DE(int)     intcor
     18.79     -19.57       3.60        0.00      67.56       2.27       0.03       0.76       ----

> <Gold.Chemscore.Fitness>
18.7857

> <Gold.Chemscore.DG>
-19.5746

> <Gold.Chemscore.ZeroCoef>
-5.4800

> <Gold.Chemscore.Hbond>
3.5969

> <Gold.Chemscore.Metal>
0.0000

> <Gold.Chemscore.Lipo>
67.5591

> <Gold.Chemscore.Internal_Hbond>
0.0000

> <Gold.Chemscore.DEClash>
0.0262

> <Gold.Chemscore.DEInternal>
0.7627

> <Gold.Chemscore.Rot>
2.2748

> <Gold.Chemscore.Internal.Correction>
   9.000000E+99

> <Gold.Chemscore.Hbonds>
donor molecule, donor type, donor heavy atom, donor atom, acceptor molecule, acceptor atom, score
      L1  H     6    50       P1  7948  0.48
      P1  H  6896  6909       L1    12  0.90
      P1  H  6931  6943       L1    18  0.28
      P1  H  6934  6947       L1    18  0.84

> <Gold.Chemscore.Hbond.Weighted>
-12.0136

> <Gold.Chemscore.Metal.Weighted>
-0.0000

> <Gold.Chemscore.Lipo.Weighted>
-7.9044

> <Gold.Chemscore.Internal_Hbond.Weighted>
0.0000

> <Gold.Chemscore.DEClash.Weighted>
0.0262

> <Gold.Chemscore.DEInternal.Weighted>
0.7627

> <Gold.Chemscore.Rot.Weighted>
5.8234

> <Gold.Chemscore.Internal.Correction.Weighted>
   9.000000E+99

> <Gold.Protein.RotatedTorsions>
[ 6907 6896 6895 6894 ] final  -13.07 input  -60.11 | X-H torsion
[ 7974 7965 7964 7962 ] final   20.82 input  175.53 | X-H torsion
[ 8008 7997 7996 7995 ] final  168.26 input   59.86 | X-H torsion
[ 10167 10162 10161 10158 ] final  -25.83 input  -65.29 | X-H torsion
[ 10718 10713 10712 10709 ] final  -83.47 input   66.30 | X-H torsion
[ 10763 10752 10751 10750 ] final  -46.45 input  -60.55 | X-H torsion
[ 11005 11000 10999 10996 ] final   40.78 input  -57.11 | X-H torsion

> <Gold.Protein.ActiveResidues>
 VAL166  LYS551  ARG553  GLY616  TRP617  ASP618  TYR619  PRO620  LYS621  CYS622 
 ASP623  PHE694  ASN695  SER759  ASP760  ASP761  ALA762  ILE779  LEU786  VAL792 
 PHE793  MET794  SER795  GLU796  ALA797  LYS798  CYS799  TRP800  GLU811  SER814 

> <Gold.Protein.RotatedAtoms>
  151.3606  135.0903  159.9432 H   0  0  0  0  0  0  0  0  0  0  0  0  # atno 6907 bound_to 6896
  152.5163  133.9262  159.7569 H   0  0  0  0  0  0  0  0  0  0  0  0  # atno 6908 bound_to 6896
  150.9656  133.6344  159.2776 H   0  0  0  0  0  0  0  0  0  0  0  0  # atno 6909 bound_to 6896
  146.2096  139.8115  142.8699 H   0  0  0  0  0  0  0  0  0  0  0  0  # atno 7974 bound_to 7965
  156.1562  140.1595  156.8689 H   0  0  0  0  0  0  0  0  0  0  0  0  # atno 8008 bound_to 7997
  154.5117  140.0799  156.8039 H   0  0  0  0  0  0  0  0  0  0  0  0  # atno 8009 bound_to 7997
  155.3799  140.3404  155.4248 H   0  0  0  0  0  0  0  0  0  0  0  0  # atno 8010 bound_to 7997
  140.7285  143.4231  151.0920 H   0  0  0  0  0  0  0  0  0  0  0  0  # atno 10167 bound_to 10162
  156.0018  130.4667  150.4262 H   0  0  0  0  0  0  0  0  0  0  0  0  # atno 10718 bound_to 10713
  154.0451  135.6639  153.4794 H   0  0  0  0  0  0  0  0  0  0  0  0  # atno 10763 bound_to 10752
  153.0486  135.5099  154.7805 H   0  0  0  0  0  0  0  0  0  0  0  0  # atno 10764 bound_to 10752
  154.6793  135.3042  154.9601 H   0  0  0  0  0  0  0  0  0  0  0  0  # atno 10765 bound_to 10752
  140.1898  134.4001  155.8153 H   0  0  0  0  0  0  0  0  0  0  0  0  # atno 11005 bound_to 11000
  145.3191  141.0239  143.3510 LP  0  0  0  0  0  0  0  0  0  0  0  0  # atno 17320 bound_to 7965
  144.8880  139.4813  143.6691 LP  0  0  0  0  0  0  0  0  0  0  0  0  # atno 17321 bound_to 7965
  139.7879  143.8261  152.3147 LP  0  0  0  0  0  0  0  0  0  0  0  0  # atno 17342 bound_to 10162
  139.8234  144.7285  150.9542 LP  0  0  0  0  0  0  0  0  0  0  0  0  # atno 17343 bound_to 10162
  157.2315  131.0505  151.2490 LP  0  0  0  0  0  0  0  0  0  0  0  0  # atno 17370 bound_to 10713
  157.3707  130.7179  149.6563 LP  0  0  0  0  0  0  0  0  0  0  0  0  # atno 17371 bound_to 10713
  141.2226  133.7040  156.8075 LP  0  0  0  0  0  0  0  0  0  0  0  0  # atno 17394 bound_to 11000
  140.2173  134.8783  157.3339 LP  0  0  0  0  0  0  0  0  0  0  0  0  # atno 17395 bound_to 11000

$$$$
