AV-unprocessed.smi:1677|AV-procd|sdf|6727|dock1
  -GOLD-   22720 7473D 1   1.00000     0.00000
 Structure written by MMmdl.
 36 37  0  0  0  0  0  0  0  0  1 V2000
  148.9579  141.3955  154.3538 C   0  0  0  0  0  0  0  0  0  0  0  0
  149.8583  140.7912  155.4438 C   0  0  1  0  0  0  0  0  0  0  0  0
  151.1708  140.1956  154.8901 C   0  0  0  0  0  0  0  0  0  0  0  0
  151.3127  138.7817  155.1820 N   0  0  0  0  0  0  0  0  0  0  0  0
  151.4718  138.1984  156.4321 C   0  0  0  0  0  0  0  0  0  0  0  0
  151.5675  136.8411  156.2234 C   0  0  0  0  0  0  0  0  0  0  0  0
  151.4732  136.5686  154.8605 N   0  0  0  0  0  0  0  0  0  0  0  0
  151.3271  137.7658  154.3077 C   0  0  0  0  0  0  0  0  0  0  0  0
  150.1546  141.8171  156.4391 N   0  0  0  0  0  0  0  0  0  0  0  0
  150.8568  141.6286  157.5675 C   0  0  0  0  0  0  0  0  0  0  0  0
  151.3490  140.5451  157.8841 O   0  0  0  0  0  0  0  0  0  0  0  0
  151.0329  142.8539  158.4741 C   0  0  1  0  0  0  0  0  0  0  0  0
  151.8857  142.5096  159.7163 C   0  0  0  0  0  0  0  0  0  0  0  0
  152.2790  143.7490  160.5007 C   0  0  0  0  0  0  0  0  0  0  0  0
  152.2019  144.9947  160.0016 C   0  0  0  0  0  0  0  0  0  0  0  0
  151.7190  145.3034  158.5953 C   0  0  0  0  0  0  0  0  0  0  0  0
  151.6512  144.0431  157.7112 C   0  0  0  0  0  0  0  0  0  0  0  0
  148.6370  140.6407  153.6357 H   0  0  0  0  0  0  0  0  0  0  0  0
  149.4748  142.1819  153.8028 H   0  0  0  0  0  0  0  0  0  0  0  0
  148.0567  141.8301  154.7876 H   0  0  0  0  0  0  0  0  0  0  0  0
  149.2912  139.9921  155.9254 H   0  0  0  0  0  0  0  0  0  0  0  0
  151.2240  140.3338  153.8091 H   0  0  0  0  0  0  0  0  0  0  0  0
  152.0328  140.7136  155.3130 H   0  0  0  0  0  0  0  0  0  0  0  0
  151.5012  138.7818  157.3407 H   0  0  0  0  0  0  0  0  0  0  0  0
  151.6965  136.0464  156.9434 H   0  0  0  0  0  0  0  0  0  0  0  0
  151.2222  137.9068  153.2419 H   0  0  0  0  0  0  0  0  0  0  0  0
  149.7914  142.7418  156.2593 H   0  0  0  0  0  0  0  0  0  0  0  0
  150.0449  143.1654  158.8189 H   0  0  0  0  0  0  0  0  0  0  0  0
  151.3258  141.8447  160.3751 H   0  0  0  0  0  0  0  0  0  0  0  0
  152.8000  141.9841  159.4371 H   0  0  0  0  0  0  0  0  0  0  0  0
  152.6473  143.5943  161.5043 H   0  0  0  0  0  0  0  0  0  0  0  0
  152.4837  145.8373  160.6159 H   0  0  0  0  0  0  0  0  0  0  0  0
  150.7338  145.7646  158.6710 H   0  0  0  0  0  0  0  0  0  0  0  0
  152.3811  146.0407  158.1409 H   0  0  0  0  0  0  0  0  0  0  0  0
  152.6603  143.7827  157.3868 H   0  0  0  0  0  0  0  0  0  0  0  0
  151.0840  144.2604  156.8050 H   0  0  0  0  0  0  0  0  0  0  0  0
  1  2  1  0  0  0  0
  1 18  1  0  0  0  0
  1 19  1  0  0  0  0
  1 20  1  0  0  0  0
  2  3  1  0  0  0  0
  2  9  1  0  0  0  0
  2 21  1  0  0  0  0
  3  4  1  0  0  0  0
  3 22  1  0  0  0  0
  3 23  1  0  0  0  0
  4  8  1  0  0  0  0
  4  5  1  0  0  0  0
  5  6  2  0  0  0  0
  5 24  1  0  0  0  0
  6  7  1  0  0  0  0
  6 25  1  0  0  0  0
  7  8  2  0  0  0  0
  8 26  1  0  0  0  0
  9 10  1  0  0  0  0
  9 27  1  0  0  0  0
 10 11  2  0  0  0  0
 10 12  1  0  0  0  0
 12 17  1  0  0  0  0
 12 13  1  0  0  0  0
 12 28  1  0  0  0  0
 13 14  1  0  0  0  0
 13 29  1  0  0  0  0
 13 30  1  0  0  0  0
 14 15  2  0  0  0  0
 14 31  1  0  0  0  0
 15 16  1  0  0  0  0
 15 32  1  0  0  0  0
 16 17  1  0  0  0  0
 16 33  1  0  0  0  0
 16 34  1  0  0  0  0
 17 35  1  0  0  0  0
 17 36  1  0  0  0  0
M  END
> <s_m_source_file>
AV-unprocessed.smi

> <i_m_source_file_index>
1677

> <i_lp_mmshare_version>
43012

> <i_f3d_flags>
0

> <s_epik_input>
W2NIXTFuW2NIXVtjSF1uMVtDSDJdW0NAQEhdKFtDSDNdKVtOSF1DKD1PKVtDQEBIXTJbQ0gyXVtDSF09W0NIXVtDSDJdW0NIMl0y

> <s_epik_cmdline>
J2VwaWtfcHl0aG9uJywgJy1waCcsICc3LjAnLCAnLXRuJywgJzgnLCAnLW1hJywgJzIwMCcsICctbWV0YWxfYmluZGluZycsICctaW1hZScsICc8aW5maWxlLm1hZT4nLCAnLW9tYWUnLCAnPG91dGZpbGUubWFlPic=

> <r_lp_tautomer_probability>
1

> <r_epik_Ionization_Penalty>
0.640435

> <r_epik_Ionization_Penalty_Charging>
0.640435

> <r_epik_Ionization_Penalty_Neutral>
2.11108e-08

> <r_epik_State_Penalty>
0.658069

> <r_epik_Charging_Adjusted_Penalty>
1.2985

> <i_epik_Tot_Q>
0

> <i_epik_Tot_abs_Q>
0

> <r_epik_Metal_State_Penalty>
0.311689

> <b_epik_Metal_Only>
0

> <s_lp_Force_Field>
OPLS_2005

> <r_lp_Energy>
10.2331

> <b_lp_Chiralities_Consistent>
1

> <s_lp_Variant>
AV-unprocessed.smi:1677-8

> <Gold.Version>
5.8.1

> <Gold.Id.Protein>
6NUR|6NUR_protein|mol2

> <Gold.PLP.Fitness>
41.7306

> <Gold.PLP.PLP>
-36.7196

> <Gold.PLP.part.hbond>
-1.2254

> <Gold.PLP.part.metal>
0.0000

> <Gold.PLP.part.buried>
-1.0910

> <Gold.PLP.part.nonpolar>
-33.9831

> <Gold.PLP.part.repulsive>
0.2093

> <Gold.PLP.ligand.clash>
0.0000

> <Gold.PLP.ligand.torsion>
0.8175

> <Gold.PLP.Chemscore.Hbond>
1.4388

> <Gold.PLP.Chemscore.CHOScore>
0.7613

> <Gold.PLP.Chemscore.Metal>
0.0000

> <Gold.Chemscore.Hbonds>
donor molecule, donor type, donor heavy atom, donor atom, acceptor molecule, acceptor atom, score
      L1  H     9    27       P1  8028  0.44
      P1  H 10752 10764       L1     7  1.00
      L1  C     8    26       P1  7949  0.76

> <Gold.PLP.Chemscore.Internal.Correction>
0.0458

> <Gold.Rescore>
     Score         DG    S(hbond)    S(metal)    S(lipo)     H(rot)  DE(clash)    DE(int)     intcor
     14.14     -18.72       1.84        0.00      98.82       1.75       1.60       2.97       ----

> <Gold.Chemscore.Fitness>
14.1426

> <Gold.Chemscore.DG>
-18.7164

> <Gold.Chemscore.ZeroCoef>
-5.4800

> <Gold.Chemscore.Hbond>
1.8409

> <Gold.Chemscore.Metal>
0.0000

> <Gold.Chemscore.Lipo>
98.8154

> <Gold.Chemscore.Internal_Hbond>
0.0000

> <Gold.Chemscore.DEClash>
1.6014

> <Gold.Chemscore.DEInternal>
2.9723

> <Gold.Chemscore.Rot>
1.7475

> <Gold.Chemscore.Internal.Correction>
   9.000000E+99

> <Gold.Chemscore.Hbonds>
donor molecule, donor type, donor heavy atom, donor atom, acceptor molecule, acceptor atom, score
      L1  H     9    27       P1  8028  0.44
      P1  H 10752 10764       L1     7  0.67

> <Gold.Chemscore.Hbond.Weighted>
-6.1485

> <Gold.Chemscore.Metal.Weighted>
-0.0000

> <Gold.Chemscore.Lipo.Weighted>
-11.5614

> <Gold.Chemscore.Internal_Hbond.Weighted>
0.0000

> <Gold.Chemscore.DEClash.Weighted>
1.6014

> <Gold.Chemscore.DEInternal.Weighted>
2.9723

> <Gold.Chemscore.Rot.Weighted>
4.4735

> <Gold.Chemscore.Internal.Correction.Weighted>
   9.000000E+99

> <Gold.Protein.RotatedTorsions>
[ 6907 6896 6895 6894 ] final  108.29 input  -60.11 | X-H torsion
[ 7974 7965 7964 7962 ] final  -21.91 input  175.53 | X-H torsion
[ 8008 7997 7996 7995 ] final  -38.87 input   59.86 | X-H torsion
[ 10167 10162 10161 10158 ] final  124.79 input  -65.29 | X-H torsion
[ 10718 10713 10712 10709 ] final -105.01 input   66.30 | X-H torsion
[ 10763 10752 10751 10750 ] final  -76.99 input  -60.55 | X-H torsion
[ 11005 11000 10999 10996 ] final  146.42 input  -57.11 | X-H torsion

> <Gold.Protein.ActiveResidues>
 VAL166  LYS551  ARG553  GLY616  TRP617  ASP618  TYR619  PRO620  LYS621  CYS622 
 ASP623  PHE694  ASN695  SER759  ASP760  ASP761  ALA762  ILE779  LEU786  VAL792 
 PHE793  MET794  SER795  GLU796  ALA797  LYS798  CYS799  TRP800  GLU811  SER814 

> <Gold.Protein.RotatedAtoms>
  152.5118  133.9110  159.7487 H   0  0  0  0  0  0  0  0  0  0  0  0  # atno 6907 bound_to 6896
  150.9503  133.6548  159.2780 H   0  0  0  0  0  0  0  0  0  0  0  0  # atno 6908 bound_to 6896
  151.3829  135.0948  159.9554 H   0  0  0  0  0  0  0  0  0  0  0  0  # atno 6909 bound_to 6896
  146.1706  140.4406  142.8534 H   0  0  0  0  0  0  0  0  0  0  0  0  # atno 7974 bound_to 7965
  154.4030  140.1566  156.2770 H   0  0  0  0  0  0  0  0  0  0  0  0  # atno 8008 bound_to 7997
  155.8903  140.3439  155.5929 H   0  0  0  0  0  0  0  0  0  0  0  0  # atno 8009 bound_to 7997
  155.7566  140.0812  157.2166 H   0  0  0  0  0  0  0  0  0  0  0  0  # atno 8010 bound_to 7997
  139.5721  144.6944  151.3750 H   0  0  0  0  0  0  0  0  0  0  0  0  # atno 10167 bound_to 10162
  156.0328  130.5543  150.7478 H   0  0  0  0  0  0  0  0  0  0  0  0  # atno 10718 bound_to 10713
  154.5071  135.5779  153.6575 H   0  0  0  0  0  0  0  0  0  0  0  0  # atno 10763 bound_to 10752
  152.9889  135.6149  154.2928 H   0  0  0  0  0  0  0  0  0  0  0  0  # atno 10764 bound_to 10752
  154.2840  135.2850  155.2664 H   0  0  0  0  0  0  0  0  0  0  0  0  # atno 10765 bound_to 10752
  140.0791  134.9107  157.1472 H   0  0  0  0  0  0  0  0  0  0  0  0  # atno 11005 bound_to 11000
  144.8157  140.6464  143.6386 LP  0  0  0  0  0  0  0  0  0  0  0  0  # atno 17320 bound_to 7965
  145.4350  139.1543  143.4001 LP  0  0  0  0  0  0  0  0  0  0  0  0  # atno 17321 bound_to 7965
  140.7005  143.7642  150.7396 LP  0  0  0  0  0  0  0  0  0  0  0  0  # atno 17342 bound_to 10162
  140.1151  143.4663  152.2347 LP  0  0  0  0  0  0  0  0  0  0  0  0  # atno 17343 bound_to 10162
  157.5030  131.0920  151.0291 LP  0  0  0  0  0  0  0  0  0  0  0  0  # atno 17370 bound_to 10713
  157.0667  130.5847  149.5395 LP  0  0  0  0  0  0  0  0  0  0  0  0  # atno 17371 bound_to 10713
  140.3513  134.2595  155.7198 LP  0  0  0  0  0  0  0  0  0  0  0  0  # atno 17394 bound_to 11000
  141.2040  133.7897  157.0308 LP  0  0  0  0  0  0  0  0  0  0  0  0  # atno 17395 bound_to 11000

$$$$
