AV-unprocessed.smi:2520|AV-procd|sdf|9909|dock10
  -GOLD-   2272013543D 1   1.00000     0.00000
 Structure written by MMmdl.
 41 44  0  0  0  0  0  0  0  0  1 V2000
  148.2274  139.1200  158.6570 O   0  0  0  0  0  0  0  0  0  0  0  0
  149.0307  138.2898  158.2355 C   0  0  0  0  0  0  0  0  0  0  0  0
  149.1482  137.0767  158.8164 N   0  0  0  0  0  0  0  0  0  0  0  0
  148.4695  136.4934  159.9268 C   0  0  0  0  0  0  0  0  0  0  0  0
  148.3012  135.0943  159.8474 C   0  0  0  0  0  0  0  0  0  0  0  0
  147.6451  134.4373  160.9023 C   0  0  0  0  0  0  0  0  0  0  0  0
  147.1996  135.2281  161.9750 C   0  0  0  0  0  0  0  0  0  0  0  0
  147.3836  136.5651  162.0140 N   0  0  0  0  0  0  0  0  0  0  0  0
  148.0087  137.1816  161.0056 N   0  0  0  0  0  0  0  0  0  0  0  0
  149.8357  138.5226  157.1884 N   0  0  0  0  0  0  0  0  0  0  0  0
  149.8718  139.7433  156.3842 C   0  0  2  0  0  0  0  0  0  0  0  0
  150.7542  139.6015  155.1226 C   0  0  2  0  0  0  0  0  0  0  0  0
  151.2652  138.2691  154.6284 C   0  0  0  0  0  0  0  0  0  0  0  0
  152.6791  138.2077  155.2140 C   0  0  0  0  0  0  0  0  0  0  0  0
  152.6681  139.1343  156.2979 O   0  0  0  0  0  0  0  0  0  0  0  0
  151.8802  140.2566  155.9071 C   0  0  2  0  0  0  0  0  0  0  0  0
  150.8703  140.7805  156.9495 C   0  0  0  0  0  0  0  0  0  0  0  0
  151.2827  140.7355  158.4215 C   0  0  0  0  0  0  0  0  0  0  0  0
  151.9721  142.0656  158.7311 C   0  0  0  0  0  0  0  0  0  0  0  0
  151.4271  143.0596  157.7012 C   0  0  0  0  0  0  0  0  0  0  0  0
  150.4871  142.2518  156.8007 C   0  0  0  0  0  0  0  0  0  0  0  0
  149.8570  136.4866  158.4060 H   0  0  0  0  0  0  0  0  0  0  0  0
  148.6649  134.5344  158.9979 H   0  0  0  0  0  0  0  0  0  0  0  0
  147.4897  133.3687  160.8896 H   0  0  0  0  0  0  0  0  0  0  0  0
  146.6883  134.7827  162.8155 H   0  0  0  0  0  0  0  0  0  0  0  0
  150.4699  137.7857  156.9127 H   0  0  0  0  0  0  0  0  0  0  0  0
  148.8924  140.1713  156.1648 H   0  0  0  0  0  0  0  0  0  0  0  0
  150.3987  140.2583  154.3272 H   0  0  0  0  0  0  0  0  0  0  0  0
  150.6550  137.4374  154.9804 H   0  0  0  0  0  0  0  0  0  0  0  0
  151.2890  138.2147  153.5397 H   0  0  0  0  0  0  0  0  0  0  0  0
  152.9536  137.2066  155.5475 H   0  0  0  0  0  0  0  0  0  0  0  0
  153.4125  138.5357  154.4761 H   0  0  0  0  0  0  0  0  0  0  0  0
  152.4366  141.0101  155.3477 H   0  0  0  0  0  0  0  0  0  0  0  0
  150.3975  140.6345  159.0512 H   0  0  0  0  0  0  0  0  0  0  0  0
  151.9303  139.8900  158.6555 H   0  0  0  0  0  0  0  0  0  0  0  0
  151.7844  142.3873  159.7561 H   0  0  0  0  0  0  0  0  0  0  0  0
  153.0514  141.9643  158.6099 H   0  0  0  0  0  0  0  0  0  0  0  0
  150.9044  143.8917  158.1741 H   0  0  0  0  0  0  0  0  0  0  0  0
  152.2482  143.4767  157.1171 H   0  0  0  0  0  0  0  0  0  0  0  0
  150.5351  142.5947  155.7665 H   0  0  0  0  0  0  0  0  0  0  0  0
  149.4582  142.4011  157.1317 H   0  0  0  0  0  0  0  0  0  0  0  0
  1  2  2  0  0  0  0
  2  3  1  0  0  0  0
  2 10  1  0  0  0  0
  3  4  1  0  0  0  0
  3 22  1  0  0  0  0
  4  9  1  0  0  0  0
  4  5  2  0  0  0  0
  5  6  1  0  0  0  0
  5 23  1  0  0  0  0
  6  7  2  0  0  0  0
  6 24  1  0  0  0  0
  7  8  1  0  0  0  0
  7 25  1  0  0  0  0
  8  9  2  0  0  0  0
 10 11  1  0  0  0  0
 10 26  1  0  0  0  0
 11 17  1  0  0  0  0
 11 12  1  0  0  0  0
 11 27  1  0  0  0  0
 12 16  1  0  0  0  0
 12 13  1  0  0  0  0
 12 28  1  0  0  0  0
 13 14  1  0  0  0  0
 13 29  1  0  0  0  0
 13 30  1  0  0  0  0
 14 15  1  0  0  0  0
 14 31  1  0  0  0  0
 14 32  1  0  0  0  0
 15 16  1  0  0  0  0
 16 17  1  0  0  0  0
 16 33  1  0  0  0  0
 17 21  1  0  0  0  0
 17 18  1  0  0  0  0
 18 19  1  0  0  0  0
 18 34  1  0  0  0  0
 18 35  1  0  0  0  0
 19 20  1  0  0  0  0
 19 36  1  0  0  0  0
 19 37  1  0  0  0  0
 20 21  1  0  0  0  0
 20 38  1  0  0  0  0
 20 39  1  0  0  0  0
 21 40  1  0  0  0  0
 21 41  1  0  0  0  0
M  END
> <s_m_source_file>
AV-unprocessed.smi

> <i_m_source_file_index>
2520

> <i_lp_mmshare_version>
43012

> <i_f3d_flags>
0

> <s_epik_input>
bjFuW2NIXVtjSF1bY0hdYzFbTkhdQyg9TylbTkhdW0NAQEhdMltDQEBIXShbQ0gyXVtDSDJdTzMpW0NASF0zQzI0W0NIMl1bQ0gyXVtDSDJdW0NIMl00

> <s_epik_cmdline>
J2VwaWtfcHl0aG9uJywgJy1waCcsICc3LjAnLCAnLXRuJywgJzgnLCAnLW1hJywgJzIwMCcsICctbWV0YWxfYmluZGluZycsICctaW1hZScsICc8aW5maWxlLm1hZT4nLCAnLW9tYWUnLCAnPG91dGZpbGUubWFlPic=

> <r_lp_tautomer_probability>
1

> <r_epik_Ionization_Penalty>
0.00552561

> <r_epik_Ionization_Penalty_Charging>
0

> <r_epik_Ionization_Penalty_Neutral>
0.00552561

> <r_epik_State_Penalty>
-0

> <r_epik_Charging_Adjusted_Penalty>
0

> <i_epik_Tot_Q>
0

> <i_epik_Tot_abs_Q>
0

> <r_epik_Metal_State_Penalty>
-0

> <b_epik_Metal_Only>
0

> <s_lp_Force_Field>
OPLS_2005

> <r_lp_Energy>
62.4196

> <b_lp_Chiralities_Consistent>
1

> <s_lp_Variant>
AV-unprocessed.smi:2520-3

> <Gold.Version>
5.8.1

> <Gold.Id.Protein>
6NUR|6NUR_protein|mol2

> <Gold.PLP.Fitness>
41.9728

> <Gold.PLP.PLP>
-34.5575

> <Gold.PLP.part.hbond>
-4.0866

> <Gold.PLP.part.metal>
0.0000

> <Gold.PLP.part.buried>
-2.6605

> <Gold.PLP.part.nonpolar>
-28.4692

> <Gold.PLP.part.repulsive>
0.1887

> <Gold.PLP.ligand.clash>
0.0000

> <Gold.PLP.ligand.torsion>
0.4374

> <Gold.PLP.Chemscore.Hbond>
2.6960

> <Gold.PLP.Chemscore.CHOScore>
0.0000

> <Gold.PLP.Chemscore.Metal>
0.0000

> <Gold.Chemscore.Hbonds>
donor molecule, donor type, donor heavy atom, donor atom, acceptor molecule, acceptor atom, score
      P1  H  6931  6943       L1     9  0.96
      P1  H  6934  6947       L1     9  0.74
      P1  H  7997  8008       L1    15  1.00

> <Gold.PLP.Chemscore.Internal.Correction>
0.2021

> <Gold.Rescore>
     Score         DG    S(hbond)    S(metal)    S(lipo)     H(rot)  DE(clash)    DE(int)     intcor
     16.72     -18.46       1.60        0.00      87.28       1.00       0.54       1.21       ----

> <Gold.Chemscore.Fitness>
16.7209

> <Gold.Chemscore.DG>
-18.4618

> <Gold.Chemscore.ZeroCoef>
-5.4800

> <Gold.Chemscore.Hbond>
1.5960

> <Gold.Chemscore.Metal>
0.0000

> <Gold.Chemscore.Lipo>
87.2756

> <Gold.Chemscore.Internal_Hbond>
0.0000

> <Gold.Chemscore.DEClash>
0.5352

> <Gold.Chemscore.DEInternal>
1.2056

> <Gold.Chemscore.Rot>
1.0000

> <Gold.Chemscore.Internal.Correction>
   9.000000E+99

> <Gold.Chemscore.Hbonds>
donor molecule, donor type, donor heavy atom, donor atom, acceptor molecule, acceptor atom, score
      P1  H  6931  6943       L1     9  0.23
      P1  H  6934  6947       L1     9  0.35
      P1  H  7997  8008       L1    15  0.22

> <Gold.Chemscore.Hbond.Weighted>
-5.3305

> <Gold.Chemscore.Metal.Weighted>
-0.0000

> <Gold.Chemscore.Lipo.Weighted>
-10.2112

> <Gold.Chemscore.Internal_Hbond.Weighted>
0.0000

> <Gold.Chemscore.DEClash.Weighted>
0.5352

> <Gold.Chemscore.DEInternal.Weighted>
1.2056

> <Gold.Chemscore.Rot.Weighted>
2.5600

> <Gold.Chemscore.Internal.Correction.Weighted>
   9.000000E+99

> <Gold.Protein.RotatedTorsions>
[ 6907 6896 6895 6894 ] final  -46.98 input  -60.11 | X-H torsion
[ 7974 7965 7964 7962 ] final  -44.30 input  175.53 | X-H torsion
[ 8008 7997 7996 7995 ] final  -66.89 input   59.86 | X-H torsion
[ 10167 10162 10161 10158 ] final  -82.12 input  -65.29 | X-H torsion
[ 10718 10713 10712 10709 ] final -126.17 input   66.30 | X-H torsion
[ 10763 10752 10751 10750 ] final -173.27 input  -60.55 | X-H torsion
[ 11005 11000 10999 10996 ] final    3.32 input  -57.11 | X-H torsion

> <Gold.Protein.ActiveResidues>
 VAL166  LYS551  ARG553  GLY616  TRP617  ASP618  TYR619  PRO620  LYS621  CYS622 
 ASP623  PHE694  ASN695  SER759  ASP760  ASP761  ALA762  ILE779  LEU786  VAL792 
 PHE793  MET794  SER795  GLU796  ALA797  LYS798  CYS799  TRP800  GLU811  SER814 

> <Gold.Protein.RotatedAtoms>
  150.9055  134.8470  159.7389 H   0  0  0  0  0  0  0  0  0  0  0  0  # atno 6907 bound_to 6896
  152.4916  134.4438  159.9562 H   0  0  0  0  0  0  0  0  0  0  0  0  # atno 6908 bound_to 6896
  151.4485  133.3584  159.2827 H   0  0  0  0  0  0  0  0  0  0  0  0  # atno 6909 bound_to 6896
  145.9934  140.7155  142.9305 H   0  0  0  0  0  0  0  0  0  0  0  0  # atno 7974 bound_to 7965
  154.4764  140.0903  156.7271 H   0  0  0  0  0  0  0  0  0  0  0  0  # atno 8008 bound_to 7997
  155.4586  140.3460  155.4291 H   0  0  0  0  0  0  0  0  0  0  0  0  # atno 8009 bound_to 7997
  156.1122  140.1451  156.9310 H   0  0  0  0  0  0  0  0  0  0  0  0  # atno 8010 bound_to 7997
  140.4349  143.2535  151.8707 H   0  0  0  0  0  0  0  0  0  0  0  0  # atno 10167 bound_to 10162
  156.1741  130.6687  151.0218 H   0  0  0  0  0  0  0  0  0  0  0  0  # atno 10718 bound_to 10713
  154.6097  135.2863  155.0445 H   0  0  0  0  0  0  0  0  0  0  0  0  # atno 10763 bound_to 10752
  154.1680  135.6477  153.5006 H   0  0  0  0  0  0  0  0  0  0  0  0  # atno 10764 bound_to 10752
  153.0190  135.5394  154.6846 H   0  0  0  0  0  0  0  0  0  0  0  0  # atno 10765 bound_to 10752
  140.5944  133.9894  155.8103 H   0  0  0  0  0  0  0  0  0  0  0  0  # atno 11005 bound_to 11000
  144.6896  140.3109  143.7248 LP  0  0  0  0  0  0  0  0  0  0  0  0  # atno 17320 bound_to 7965
  145.7596  139.1820  143.2275 LP  0  0  0  0  0  0  0  0  0  0  0  0  # atno 17321 bound_to 7965
  139.4786  144.5294  151.8689 LP  0  0  0  0  0  0  0  0  0  0  0  0  # atno 17342 bound_to 10162
  140.4385  144.2019  150.5890 LP  0  0  0  0  0  0  0  0  0  0  0  0  # atno 17343 bound_to 10162
  157.6823  131.0834  150.7337 LP  0  0  0  0  0  0  0  0  0  0  0  0  # atno 17370 bound_to 10713
  156.7395  130.4734  149.5481 LP  0  0  0  0  0  0  0  0  0  0  0  0  # atno 17371 bound_to 10713
  141.0913  133.9911  157.3232 LP  0  0  0  0  0  0  0  0  0  0  0  0  # atno 17394 bound_to 11000
  139.9260  135.0201  156.8234 LP  0  0  0  0  0  0  0  0  0  0  0  0  # atno 17395 bound_to 11000

$$$$
