AV-unprocessed.smi:1782|AV-procd|sdf|7189|dock4
  -GOLD-   22720 8433D 1   1.00000     0.00000
 Structure written by MMmdl.
 42 44  0  0  0  0  0  0  0  0  2 V2000
  148.8799  140.2570  157.1404 O   0  0  0  0  0  0  0  0  0  0  0  0
  149.2212  141.3150  156.6102 C   0  0  0  0  0  0  0  0  0  0  0  0
  150.7054  141.6853  156.4800 C   0  0  0  0  0  0  0  0  0  0  0  0
  151.3075  142.1155  157.7538 N   0  0  0  0  0  0  0  0  0  0  0  0
  150.8839  143.3512  158.2747 C   0  0  0  0  0  0  0  0  0  0  0  0
  151.3706  143.8355  159.4251 C   0  0  0  0  0  0  0  0  0  0  0  0
  152.3542  143.0532  160.1332 C   0  0  0  0  0  0  0  0  0  0  0  0
  152.7840  141.8624  159.6554 C   0  0  0  0  0  0  0  0  0  0  0  0
  153.8256  141.0225  160.3911 C   0  0  0  0  0  0  0  0  0  0  0  0
  153.4715  139.7366  160.3967 F   0  0  0  0  0  0  0  0  0  0  0  0
  155.0148  141.1245  159.7965 F   0  0  0  0  0  0  0  0  0  0  0  0
  153.9692  141.4111  161.6591 F   0  0  0  0  0  0  0  0  0  0  0  0
  152.2425  141.3387  158.3845 C   0  0  0  0  0  0  0  0  0  0  0  0
  152.6048  140.2622  157.9061 O   0  0  0  0  0  0  0  0  0  0  0  0
  148.3457  142.1952  156.1031 N   0  0  0  0  0  0  0  0  0  0  0  0
  146.8964  142.0365  156.1365 C   0  0  1  0  0  0  0  0  0  0  0  0
  146.1201  143.1336  155.4136 C   0  0  0  0  0  0  0  0  0  0  0  0
  144.7653  142.4662  155.1524 C   0  0  0  0  0  0  0  0  0  0  0  0
  145.0182  141.0063  155.0611 N   0  3  2  0  0  0  0  0  0  0  0  0
  144.0849  140.1929  155.8708 C   0  0  0  0  0  0  0  0  0  0  0  0
  142.6795  140.7440  155.9072 C   0  0  0  0  0  0  0  0  0  0  0  0
  143.5864  140.8990  157.1089 C   0  0  0  0  0  0  0  0  0  0  0  0
  146.4420  140.7801  155.3944 C   0  0  0  0  0  0  0  0  0  0  0  0
  151.2346  140.8213  156.0754 H   0  0  0  0  0  0  0  0  0  0  0  0
  150.8246  142.4690  155.7291 H   0  0  0  0  0  0  0  0  0  0  0  0
  150.1508  143.8775  157.6809 H   0  0  0  0  0  0  0  0  0  0  0  0
  151.0385  144.7885  159.8102 H   0  0  0  0  0  0  0  0  0  0  0  0
  152.7457  143.4414  161.0616 H   0  0  0  0  0  0  0  0  0  0  0  0
  148.7095  143.0366  155.6787 H   0  0  0  0  0  0  0  0  0  0  0  0
  146.5585  141.9753  157.1731 H   0  0  0  0  0  0  0  0  0  0  0  0
  146.0330  144.0509  155.9969 H   0  0  0  0  0  0  0  0  0  0  0  0
  146.6035  143.3796  154.4667 H   0  0  0  0  0  0  0  0  0  0  0  0
  144.0899  142.6805  155.9827 H   0  0  0  0  0  0  0  0  0  0  0  0
  144.2943  142.8390  154.2426 H   0  0  0  0  0  0  0  0  0  0  0  0
  144.2575  139.1178  155.8782 H   0  0  0  0  0  0  0  0  0  0  0  0
  142.4608  141.6366  155.3238 H   0  0  0  0  0  0  0  0  0  0  0  0
  141.8619  140.0304  155.9889 H   0  0  0  0  0  0  0  0  0  0  0  0
  143.3656  140.2875  157.9815 H   0  0  0  0  0  0  0  0  0  0  0  0
  143.9685  141.8953  157.3242 H   0  0  0  0  0  0  0  0  0  0  0  0
  146.9904  140.6718  154.4574 H   0  0  0  0  0  0  0  0  0  0  0  0
  146.6032  139.8708  155.9757 H   0  0  0  0  0  0  0  0  0  0  0  0
  144.8933  140.7304  154.0976 H   0  0  0  0  0  0  0  0  0  0  0  0
  1  2  2  0  0  0  0
  2  3  1  0  0  0  0
  2 15  1  0  0  0  0
  3  4  1  0  0  0  0
  3 24  1  0  0  0  0
  3 25  1  0  0  0  0
  4 13  1  0  0  0  0
  4  5  1  0  0  0  0
  5  6  2  0  0  0  0
  5 26  1  0  0  0  0
  6  7  1  0  0  0  0
  6 27  1  0  0  0  0
  7  8  2  0  0  0  0
  7 28  1  0  0  0  0
  8  9  1  0  0  0  0
  8 13  1  0  0  0  0
  9 10  1  0  0  0  0
  9 11  1  0  0  0  0
  9 12  1  0  0  0  0
 13 14  2  0  0  0  0
 15 16  1  0  0  0  0
 15 29  1  0  0  0  0
 16 23  1  0  0  0  0
 16 17  1  0  0  0  0
 16 30  1  0  0  0  0
 17 18  1  0  0  0  0
 17 31  1  0  0  0  0
 17 32  1  0  0  0  0
 18 19  1  0  0  0  0
 18 33  1  0  0  0  0
 18 34  1  0  0  0  0
 19 20  1  0  0  0  0
 19 23  1  0  0  0  0
 19 42  1  0  0  0  0
 20 22  1  0  0  0  0
 20 21  1  0  0  0  0
 20 35  1  0  0  0  0
 21 22  1  0  0  0  0
 21 36  1  0  0  0  0
 21 37  1  0  0  0  0
 22 38  1  0  0  0  0
 22 39  1  0  0  0  0
 23 40  1  0  0  0  0
 23 41  1  0  0  0  0
M  CHG  1  19   1
M  END
> <s_m_source_file>
AV-unprocessed.smi

> <i_m_source_file_index>
1782

> <i_lp_mmshare_version>
43012

> <i_f3d_flags>
0

> <s_epik_input>
W0NIMl0xW0NIMl1bQ0hdMU4oW0NIMl0yKVtDSDJdW0NIMl1bQ0BIXTJbTkhdQyg9TylbQ0gyXW4zW2NIXVtjSF1bY0hdYyhDKEYpKEYpRiljMz1P

> <s_epik_cmdline>
J2VwaWtfcHl0aG9uJywgJy1waCcsICc3LjAnLCAnLXRuJywgJzgnLCAnLW1hJywgJzIwMCcsICctbWV0YWxfYmluZGluZycsICctaW1hZScsICc8aW5maWxlLm1hZT4nLCAnLW9tYWUnLCAnPG91dGZpbGUubWFlPic=

> <r_lp_tautomer_probability>
1

> <r_epik_Ionization_Penalty>
0.00106789

> <r_epik_Ionization_Penalty_Charging>
0.00106781

> <r_epik_Ionization_Penalty_Neutral>
8.2288e-08

> <r_epik_State_Penalty>
0.000699156

> <r_epik_Charging_Adjusted_Penalty>
0.00176697

> <i_epik_Tot_Q>
1

> <i_epik_Tot_abs_Q>
1

> <r_epik_Metal_State_Penalty>
-0

> <b_epik_Metal_Only>
0

> <s_lp_Force_Field>
OPLS_2005

> <r_lp_Energy>
46.9995

> <b_lp_Chiralities_Consistent>
1

> <s_lp_Variant>
AV-unprocessed.smi:1782-2

> <Gold.Version>
5.8.1

> <Gold.Id.Protein>
6NUR|6NUR_protein|mol2

> <Gold.PLP.Fitness>
50.3021

> <Gold.PLP.PLP>
-37.6829

> <Gold.PLP.part.hbond>
-2.9542

> <Gold.PLP.part.metal>
0.0000

> <Gold.PLP.part.buried>
-4.7030

> <Gold.PLP.part.nonpolar>
-30.9985

> <Gold.PLP.part.repulsive>
0.0567

> <Gold.PLP.ligand.clash>
0.0000

> <Gold.PLP.ligand.torsion>
1.5385

> <Gold.PLP.Chemscore.Hbond>
3.6860

> <Gold.PLP.Chemscore.CHOScore>
1.0000

> <Gold.PLP.Chemscore.Metal>
0.0000

> <Gold.Chemscore.Hbonds>
donor molecule, donor type, donor heavy atom, donor atom, acceptor molecule, acceptor atom, score
      L1  H    15    29       P1  8028  1.00
      L1  H    19    42       P1 10175  1.95
      P1  H  7997  8009       L1    14  0.69
      L1  C     5    26       P1  8028  1.00

> <Gold.PLP.Chemscore.Internal.Correction>
1.6382

> <Gold.Rescore>
     Score         DG    S(hbond)    S(metal)    S(lipo)     H(rot)  DE(clash)    DE(int)     intcor
     14.18     -18.13       2.73        0.00      69.68       1.81       0.20       3.75       ----

> <Gold.Chemscore.Fitness>
14.1776

> <Gold.Chemscore.DG>
-18.1275

> <Gold.Chemscore.ZeroCoef>
-5.4800

> <Gold.Chemscore.Hbond>
2.7330

> <Gold.Chemscore.Metal>
0.0000

> <Gold.Chemscore.Lipo>
69.6840

> <Gold.Chemscore.Internal_Hbond>
0.0000

> <Gold.Chemscore.DEClash>
0.1974

> <Gold.Chemscore.DEInternal>
3.7525

> <Gold.Chemscore.Rot>
1.8101

> <Gold.Chemscore.Internal.Correction>
   9.000000E+99

> <Gold.Chemscore.Hbonds>
donor molecule, donor type, donor heavy atom, donor atom, acceptor molecule, acceptor atom, score
      L1  H    15    29       P1  8028  0.94
      L1  H    19    42       P1 10175  0.86
      P1  H  7997  8009       L1    14  0.64

> <Gold.Chemscore.Hbond.Weighted>
-9.1283

> <Gold.Chemscore.Metal.Weighted>
-0.0000

> <Gold.Chemscore.Lipo.Weighted>
-8.1530

> <Gold.Chemscore.Internal_Hbond.Weighted>
0.0000

> <Gold.Chemscore.DEClash.Weighted>
0.1974

> <Gold.Chemscore.DEInternal.Weighted>
3.7525

> <Gold.Chemscore.Rot.Weighted>
4.6338

> <Gold.Chemscore.Internal.Correction.Weighted>
   9.000000E+99

> <Gold.Protein.RotatedTorsions>
[ 6907 6896 6895 6894 ] final  -49.01 input  -60.11 | X-H torsion
[ 7974 7965 7964 7962 ] final -143.47 input  175.53 | X-H torsion
[ 8008 7997 7996 7995 ] final  161.59 input   59.86 | X-H torsion
[ 10167 10162 10161 10158 ] final -129.84 input  -65.29 | X-H torsion
[ 10718 10713 10712 10709 ] final   47.94 input   66.30 | X-H torsion
[ 10763 10752 10751 10750 ] final  -14.31 input  -60.55 | X-H torsion
[ 11005 11000 10999 10996 ] final  -14.64 input  -57.11 | X-H torsion

> <Gold.Protein.ActiveResidues>
 VAL166  LYS551  ARG553  GLY616  TRP617  ASP618  TYR619  PRO620  LYS621  CYS622 
 ASP623  PHE694  ASN695  SER759  ASP760  ASP761  ALA762  ILE779  LEU786  VAL792 
 PHE793  MET794  SER795  GLU796  ALA797  LYS798  CYS799  TRP800  GLU811  SER814 

> <Gold.Protein.RotatedAtoms>
  150.8847  134.8243  159.7250 H   0  0  0  0  0  0  0  0  0  0  0  0  # atno 6907 bound_to 6896
  152.4800  134.4741  159.9654 H   0  0  0  0  0  0  0  0  0  0  0  0  # atno 6908 bound_to 6896
  151.4811  133.3507  159.2874 H   0  0  0  0  0  0  0  0  0  0  0  0  # atno 6909 bound_to 6896
  144.8367  140.5830  143.5479 H   0  0  0  0  0  0  0  0  0  0  0  0  # atno 7974 bound_to 7965
  156.2092  140.1773  156.7732 H   0  0  0  0  0  0  0  0  0  0  0  0  # atno 8008 bound_to 7997
  154.5698  140.0684  156.8977 H   0  0  0  0  0  0  0  0  0  0  0  0  # atno 8009 bound_to 7997
  155.2693  140.3341  155.4269 H   0  0  0  0  0  0  0  0  0  0  0  0  # atno 8010 bound_to 7997
  139.9356  143.6222  152.2518 H   0  0  0  0  0  0  0  0  0  0  0  0  # atno 10167 bound_to 10162
  157.4637  130.8212  149.7913 H   0  0  0  0  0  0  0  0  0  0  0  0  # atno 10718 bound_to 10713
  153.5263  135.7015  153.5706 H   0  0  0  0  0  0  0  0  0  0  0  0  # atno 10763 bound_to 10752
  153.3733  135.3939  155.1804 H   0  0  0  0  0  0  0  0  0  0  0  0  # atno 10764 bound_to 10752
  154.8689  135.3817  154.4756 H   0  0  0  0  0  0  0  0  0  0  0  0  # atno 10765 bound_to 10752
  140.7885  133.8307  155.9357 H   0  0  0  0  0  0  0  0  0  0  0  0  # atno 11005 bound_to 11000
  145.4780  139.1497  143.3777 LP  0  0  0  0  0  0  0  0  0  0  0  0  # atno 17320 bound_to 7965
  146.2665  140.4915  142.8832 LP  0  0  0  0  0  0  0  0  0  0  0  0  # atno 17321 bound_to 7965
  139.6746  144.7659  151.1719 LP  0  0  0  0  0  0  0  0  0  0  0  0  # atno 17342 bound_to 10162
  140.7625  143.5813  150.8891 LP  0  0  0  0  0  0  0  0  0  0  0  0  # atno 17343 bound_to 10162
  156.0040  130.3865  150.2499 LP  0  0  0  0  0  0  0  0  0  0  0  0  # atno 17370 bound_to 10713
  157.0678  131.0108  151.3201 LP  0  0  0  0  0  0  0  0  0  0  0  0  # atno 17371 bound_to 10713
  140.9413  134.1897  157.4795 LP  0  0  0  0  0  0  0  0  0  0  0  0  # atno 17394 bound_to 11000
  139.8734  134.9873  156.5361 LP  0  0  0  0  0  0  0  0  0  0  0  0  # atno 17395 bound_to 11000

$$$$
