AV-unprocessed.smi:375|AV-procd|sdf|2454|dock5
  -GOLD-   2262022393D 1   1.00000     0.00000
 Structure written by MMmdl.
 36 38  0  0  0  0  0  0  0  0  1 V2000
  154.6111  141.3093  160.1194 C   0  0  0  0  0  0  0  0  0  0  0  0
  153.3790  141.4116  159.3469 N   0  0  0  0  0  0  0  0  0  0  0  0
  152.8213  140.4544  158.5685 C   0  0  0  0  0  0  0  0  0  0  0  0
  153.2686  139.3233  158.3794 O   0  0  0  0  0  0  0  0  0  0  0  0
  151.6854  140.9601  158.0326 N   0  0  0  0  0  0  0  0  0  0  0  0
  150.7748  140.2768  157.1160 C   0  0  0  0  0  0  0  0  0  0  0  0
  150.8843  140.8281  155.6808 C   0  0  1  0  0  0  0  0  0  0  0  0
  151.9988  140.2277  155.0495 O   0  0  0  0  0  0  0  0  0  0  0  0
  149.5972  140.5749  154.9058 C   0  0  0  0  0  0  0  0  0  0  0  0
  148.7557  141.6518  154.5453 C   0  0  0  0  0  0  0  0  0  0  0  0
  147.5718  141.4195  153.8192 C   0  0  0  0  0  0  0  0  0  0  0  0
  147.2221  140.1089  153.4436 C   0  0  0  0  0  0  0  0  0  0  0  0
  148.0593  139.0321  153.7914 C   0  0  0  0  0  0  0  0  0  0  0  0
  149.2443  139.2619  154.5177 C   0  0  0  0  0  0  0  0  0  0  0  0
  150.0416  138.2132  154.8345 F   0  0  0  0  0  0  0  0  0  0  0  0
  151.5166  142.2801  158.4748 C   0  0  0  0  0  0  0  0  0  0  0  0
  150.5156  143.2283  158.2005 C   0  0  0  0  0  0  0  0  0  0  0  0
  150.6408  144.4961  158.8157 C   0  0  0  0  0  0  0  0  0  0  0  0
  151.7358  144.7844  159.6716 C   0  0  0  0  0  0  0  0  0  0  0  0
  152.7303  143.8117  159.9288 C   0  0  0  0  0  0  0  0  0  0  0  0
  152.5816  142.5620  159.3037 C   0  0  0  0  0  0  0  0  0  0  0  0
  155.1159  140.3551  159.9632 H   0  0  0  0  0  0  0  0  0  0  0  0
  154.3963  141.4081  161.1837 H   0  0  0  0  0  0  0  0  0  0  0  0
  155.3016  142.1035  159.8345 H   0  0  0  0  0  0  0  0  0  0  0  0
  150.9244  139.1957  157.1358 H   0  0  0  0  0  0  0  0  0  0  0  0
  149.7640  140.4404  157.4918 H   0  0  0  0  0  0  0  0  0  0  0  0
  151.0708  141.9022  155.7085 H   0  0  0  0  0  0  0  0  0  0  0  0
  152.4260  139.6597  155.6723 H   0  0  0  0  0  0  0  0  0  0  0  0
  149.0171  142.6629  154.8215 H   0  0  0  0  0  0  0  0  0  0  0  0
  146.9329  142.2474  153.5488 H   0  0  0  0  0  0  0  0  0  0  0  0
  146.3147  139.9301  152.8859 H   0  0  0  0  0  0  0  0  0  0  0  0
  147.7937  138.0271  153.4983 H   0  0  0  0  0  0  0  0  0  0  0  0
  149.6854  143.0033  157.5477 H   0  0  0  0  0  0  0  0  0  0  0  0
  149.8936  145.2540  158.6313 H   0  0  0  0  0  0  0  0  0  0  0  0
  151.8118  145.7589  160.1314 H   0  0  0  0  0  0  0  0  0  0  0  0
  153.5676  144.0232  160.5773 H   0  0  0  0  0  0  0  0  0  0  0  0
  1  2  1  0  0  0  0
  1 22  1  0  0  0  0
  1 23  1  0  0  0  0
  1 24  1  0  0  0  0
  2 21  1  0  0  0  0
  2  3  1  0  0  0  0
  3  4  2  0  0  0  0
  3  5  1  0  0  0  0
  5  6  1  0  0  0  0
  5 16  1  0  0  0  0
  6  7  1  0  0  0  0
  6 25  1  0  0  0  0
  6 26  1  0  0  0  0
  7  8  1  0  0  0  0
  7  9  1  0  0  0  0
  7 27  1  0  0  0  0
  8 28  1  0  0  0  0
  9 14  1  0  0  0  0
  9 10  2  0  0  0  0
 10 11  1  0  0  0  0
 10 29  1  0  0  0  0
 11 12  2  0  0  0  0
 11 30  1  0  0  0  0
 12 13  1  0  0  0  0
 12 31  1  0  0  0  0
 13 14  2  0  0  0  0
 13 32  1  0  0  0  0
 14 15  1  0  0  0  0
 16 21  2  0  0  0  0
 16 17  1  0  0  0  0
 17 18  2  0  0  0  0
 17 33  1  0  0  0  0
 18 19  1  0  0  0  0
 18 34  1  0  0  0  0
 19 20  2  0  0  0  0
 19 35  1  0  0  0  0
 20 21  1  0  0  0  0
 20 36  1  0  0  0  0
M  END
> <s_m_source_file>
AV-unprocessed.smi

> <i_m_source_file_index>
375

> <i_lp_mmshare_version>
43012

> <i_f3d_flags>
0

> <s_epik_input>
W2NIXTFbY0hdW2NIXVtjSF1jKGMxMiluKFtDSDNdKWMoPU8pbjJbQ0gyXVtDQEhdKFtPSF0pYzNbY0hdW2NIXVtjSF1bY0hdYzNG

> <s_epik_cmdline>
J2VwaWtfcHl0aG9uJywgJy1waCcsICc3LjAnLCAnLXRuJywgJzgnLCAnLW1hJywgJzIwMCcsICctbWV0YWxfYmluZGluZycsICctaW1hZScsICc8aW5maWxlLm1hZT4nLCAnLW9tYWUnLCAnPG91dGZpbGUubWFlPic=

> <r_lp_tautomer_probability>
1

> <r_epik_Ionization_Penalty>
1.34619e-06

> <r_epik_Ionization_Penalty_Charging>
2.57375e-09

> <r_epik_Ionization_Penalty_Neutral>
1.34362e-06

> <r_epik_State_Penalty>
-0

> <r_epik_Charging_Adjusted_Penalty>
2.57375e-09

> <i_epik_Tot_Q>
0

> <i_epik_Tot_abs_Q>
0

> <r_epik_Metal_State_Penalty>
-0

> <b_epik_Metal_Only>
0

> <s_lp_Force_Field>
OPLS_2005

> <r_lp_Energy>
44.2188

> <b_lp_Chiralities_Consistent>
1

> <s_lp_Variant>
AV-unprocessed.smi:375-2

> <Gold.Version>
5.8.1

> <Gold.Id.Protein>
6NUR|6NUR_protein|mol2

> <Gold.PLP.Fitness>
51.6143

> <Gold.PLP.PLP>
-48.8753

> <Gold.PLP.part.hbond>
-1.9803

> <Gold.PLP.part.metal>
0.0000

> <Gold.PLP.part.buried>
-3.0798

> <Gold.PLP.part.nonpolar>
-43.3346

> <Gold.PLP.part.repulsive>
0.0000

> <Gold.PLP.ligand.clash>
0.0000

> <Gold.PLP.ligand.torsion>
0.5262

> <Gold.PLP.Chemscore.Hbond>
1.2612

> <Gold.PLP.Chemscore.CHOScore>
0.0000

> <Gold.PLP.Chemscore.Metal>
0.0000

> <Gold.Chemscore.Hbonds>
donor molecule, donor type, donor heavy atom, donor atom, acceptor molecule, acceptor atom, score
      P1  H  7989  7998       L1     8  0.58
      P1  H  7997  8009       L1     4  0.60

> <Gold.PLP.Chemscore.Internal.Correction>
0.0080

> <Gold.Rescore>
     Score         DG    S(hbond)    S(metal)    S(lipo)     H(rot)  DE(clash)    DE(int)     intcor
     14.86     -16.97       0.62        0.00     120.99       1.85       0.49       1.62       ----

> <Gold.Chemscore.Fitness>
14.8605

> <Gold.Chemscore.DG>
-16.9733

> <Gold.Chemscore.ZeroCoef>
-5.4800

> <Gold.Chemscore.Hbond>
0.6182

> <Gold.Chemscore.Metal>
0.0000

> <Gold.Chemscore.Lipo>
120.9862

> <Gold.Chemscore.Internal_Hbond>
0.0000

> <Gold.Chemscore.DEClash>
0.4891

> <Gold.Chemscore.DEInternal>
1.6237

> <Gold.Chemscore.Rot>
1.8465

> <Gold.Chemscore.Internal.Correction>
   9.000000E+99

> <Gold.Chemscore.Hbonds>
donor molecule, donor type, donor heavy atom, donor atom, acceptor molecule, acceptor atom, score
      P1  H  7989  7998       L1     8  0.07
      P1  H  7997  8009       L1     4  0.04

> <Gold.Chemscore.Hbond.Weighted>
-2.0649

> <Gold.Chemscore.Metal.Weighted>
-0.0000

> <Gold.Chemscore.Lipo.Weighted>
-14.1554

> <Gold.Chemscore.Internal_Hbond.Weighted>
0.0000

> <Gold.Chemscore.DEClash.Weighted>
0.4891

> <Gold.Chemscore.DEInternal.Weighted>
1.6237

> <Gold.Chemscore.Rot.Weighted>
4.7270

> <Gold.Chemscore.Internal.Correction.Weighted>
   9.000000E+99

> <Gold.Protein.RotatedTorsions>
[ 6907 6896 6895 6894 ] final  -11.52 input  -60.11 | X-H torsion
[ 7974 7965 7964 7962 ] final  -44.20 input  175.53 | X-H torsion
[ 8008 7997 7996 7995 ] final  146.17 input   59.86 | X-H torsion
[ 10167 10162 10161 10158 ] final  -26.60 input  -65.29 | X-H torsion
[ 10718 10713 10712 10709 ] final -120.32 input   66.30 | X-H torsion
[ 10763 10752 10751 10750 ] final    1.72 input  -60.55 | X-H torsion
[ 11005 11000 10999 10996 ] final   99.13 input  -57.11 | X-H torsion

> <Gold.Protein.ActiveResidues>
 VAL166  LYS551  ARG553  GLY616  TRP617  ASP618  TYR619  PRO620  LYS621  CYS622 
 ASP623  PHE694  ASN695  SER759  ASP760  ASP761  ALA762  ILE779  LEU786  VAL792 
 PHE793  MET794  SER795  GLU796  ALA797  LYS798  CYS799  TRP800  GLU811  SER814 

> <Gold.Protein.RotatedAtoms>
  151.3850  135.0946  159.9507 H   0  0  0  0  0  0  0  0  0  0  0  0  # atno 6907 bound_to 6896
  152.5097  133.9035  159.7463 H   0  0  0  0  0  0  0  0  0  0  0  0  # atno 6908 bound_to 6896
  150.9476  133.6529  159.2807 H   0  0  0  0  0  0  0  0  0  0  0  0  # atno 6909 bound_to 6896
  145.9943  140.7145  142.9301 H   0  0  0  0  0  0  0  0  0  0  0  0  # atno 7974 bound_to 7965
  156.2863  140.2189  156.5333 H   0  0  0  0  0  0  0  0  0  0  0  0  # atno 8008 bound_to 7997
  154.7430  140.0486  157.0850 H   0  0  0  0  0  0  0  0  0  0  0  0  # atno 8009 bound_to 7997
  155.0206  140.3123  155.4798 H   0  0  0  0  0  0  0  0  0  0  0  0  # atno 8010 bound_to 7997
  140.7282  143.4164  151.1021 H   0  0  0  0  0  0  0  0  0  0  0  0  # atno 10167 bound_to 10162
  156.1249  130.6351  150.9526 H   0  0  0  0  0  0  0  0  0  0  0  0  # atno 10718 bound_to 10713
  153.3045  135.6958  153.7172 H   0  0  0  0  0  0  0  0  0  0  0  0  # atno 10763 bound_to 10752
  153.6073  135.3451  155.2967 H   0  0  0  0  0  0  0  0  0  0  0  0  # atno 10764 bound_to 10752
  154.8559  135.4355  154.2166 H   0  0  0  0  0  0  0  0  0  0  0  0  # atno 10765 bound_to 10752
  139.8771  134.9081  156.4560 H   0  0  0  0  0  0  0  0  0  0  0  0  # atno 11005 bound_to 11000
  144.6899  140.3124  143.7246 LP  0  0  0  0  0  0  0  0  0  0  0  0  # atno 17320 bound_to 7965
  145.7583  139.1816  143.2282 LP  0  0  0  0  0  0  0  0  0  0  0  0  # atno 17321 bound_to 7965
  139.7805  143.8363  152.3136 LP  0  0  0  0  0  0  0  0  0  0  0  0  # atno 17342 bound_to 10162
  139.8312  144.7253  150.9448 LP  0  0  0  0  0  0  0  0  0  0  0  0  # atno 17343 bound_to 10162
  157.6431  131.0907  150.8210 LP  0  0  0  0  0  0  0  0  0  0  0  0  # atno 17370 bound_to 10713
  156.8302  130.5013  149.5332 LP  0  0  0  0  0  0  0  0  0  0  0  0  # atno 17371 bound_to 10713
  140.8898  133.7856  155.9559 LP  0  0  0  0  0  0  0  0  0  0  0  0  # atno 17394 bound_to 11000
  140.8765  134.2663  157.5165 LP  0  0  0  0  0  0  0  0  0  0  0  0  # atno 17395 bound_to 11000

$$$$
