AV-unprocessed.smi:1908|AV-procd|sdf|7734|dock7
  -GOLD-   22720 9473D 1   1.00000     0.00000
 Structure written by MMmdl.
 27 27  0  0  0  0  0  0  0  0  2 V2000
  150.8996  145.2681  158.9006 C   0  0  0  0  0  0  0  0  0  0  0  0
  150.9557  143.7350  158.9201 C   0  0  0  0  0  0  0  0  0  0  0  0
  152.3443  143.2218  159.3310 C   0  0  0  0  0  0  0  0  0  0  0  0
  150.5908  143.2188  157.6044 N   0  0  0  0  0  0  0  0  0  0  0  0
  150.7850  141.9604  157.1805 C   0  0  0  0  0  0  0  0  0  0  0  0
  151.3267  141.0916  157.8655 O   0  0  0  0  0  0  0  0  0  0  0  0
  150.3238  141.6498  155.7504 C   0  0  0  0  0  0  0  0  0  0  0  0
  150.5837  140.2544  155.3615 N   0  0  0  0  0  0  0  0  0  0  0  0
  151.8979  139.7715  155.4911 C   0  0  0  0  0  0  0  0  0  0  0  0
  152.2252  138.5063  155.1660 C   0  0  0  0  0  0  0  0  0  0  0  0
  151.1741  137.6277  154.6681 C   0  0  0  0  0  0  0  0  0  0  0  0
  151.4557  136.4703  154.3631 O   0  0  0  0  0  0  0  0  0  0  0  0
  149.9136  138.1416  154.5638 N   0  5  0  0  0  0  0  0  0  0  0  0
  149.5950  139.4303  154.8998 C   0  0  0  0  0  0  0  0  0  0  0  0
  148.4501  139.8735  154.8000 O   0  0  0  0  0  0  0  0  0  0  0  0
  151.1382  145.6808  159.8812 H   0  0  0  0  0  0  0  0  0  0  0  0
  149.9037  145.6204  158.6296 H   0  0  0  0  0  0  0  0  0  0  0  0
  151.6077  145.6839  158.1832 H   0  0  0  0  0  0  0  0  0  0  0  0
  150.2264  143.3881  159.6541 H   0  0  0  0  0  0  0  0  0  0  0  0
  152.6231  143.5952  160.3166 H   0  0  0  0  0  0  0  0  0  0  0  0
  153.1108  143.5426  158.6248 H   0  0  0  0  0  0  0  0  0  0  0  0
  152.3661  142.1324  159.3762 H   0  0  0  0  0  0  0  0  0  0  0  0
  150.1392  143.8629  156.9715 H   0  0  0  0  0  0  0  0  0  0  0  0
  149.2620  141.8793  155.6407 H   0  0  0  0  0  0  0  0  0  0  0  0
  150.8356  142.3353  155.0740 H   0  0  0  0  0  0  0  0  0  0  0  0
  152.6140  140.4835  155.8741 H   0  0  0  0  0  0  0  0  0  0  0  0
  153.2387  138.1493  155.2744 H   0  0  0  0  0  0  0  0  0  0  0  0
  1  2  1  0  0  0  0
  1 16  1  0  0  0  0
  1 17  1  0  0  0  0
  1 18  1  0  0  0  0
  2  3  1  0  0  0  0
  2  4  1  0  0  0  0
  2 19  1  0  0  0  0
  3 20  1  0  0  0  0
  3 21  1  0  0  0  0
  3 22  1  0  0  0  0
  4  5  1  0  0  0  0
  4 23  1  0  0  0  0
  5  6  2  0  0  0  0
  5  7  1  0  0  0  0
  7  8  1  0  0  0  0
  7 24  1  0  0  0  0
  7 25  1  0  0  0  0
  8 14  1  0  0  0  0
  8  9  1  0  0  0  0
  9 10  2  0  0  0  0
  9 26  1  0  0  0  0
 10 11  1  0  0  0  0
 10 27  1  0  0  0  0
 11 12  2  0  0  0  0
 11 13  1  0  0  0  0
 13 14  1  0  0  0  0
 14 15  2  0  0  0  0
M  CHG  1  13  -1
M  END
> <s_m_source_file>
AV-unprocessed.smi

> <i_m_source_file_index>
1908

> <i_lp_mmshare_version>
43012

> <i_f3d_flags>
0

> <s_epik_input>
W0NIM11bQ0hdKFtDSDNdKVtOSF1DKD1PKVtDSDJdbjFbY0hdW2NIXWMoPU8pW25IXWMxPU8=

> <s_epik_cmdline>
J2VwaWtfcHl0aG9uJywgJy1waCcsICc3LjAnLCAnLXRuJywgJzgnLCAnLW1hJywgJzIwMCcsICctbWV0YWxfYmluZGluZycsICctaW1hZScsICc8aW5maWxlLm1hZT4nLCAnLW9tYWUnLCAnPG91dGZpbGUubWFlPic=

> <r_lp_tautomer_probability>
0.999537

> <r_epik_Ionization_Penalty>
3.07884

> <r_epik_Ionization_Penalty_Charging>
2.69291e-08

> <r_epik_Ionization_Penalty_Neutral>
3.07884

> <r_epik_State_Penalty>
3.07787

> <r_epik_Charging_Adjusted_Penalty>
3.07787

> <i_epik_Tot_Q>
-1

> <i_epik_Tot_abs_Q>
1

> <r_epik_Metal_State_Penalty>
0.459857

> <b_epik_Metal_Only>
1

> <s_lp_Force_Field>
OPLS_2005

> <r_lp_Energy>
10.6939

> <b_lp_Chiralities_Consistent>
1

> <s_lp_Variant>
AV-unprocessed.smi:1908-2

> <Gold.Version>
5.8.1

> <Gold.Id.Protein>
6NUR|6NUR_protein|mol2

> <Gold.PLP.Fitness>
36.0622

> <Gold.PLP.PLP>
-30.5129

> <Gold.PLP.part.hbond>
-2.0000

> <Gold.PLP.part.metal>
0.0000

> <Gold.PLP.part.buried>
-3.3678

> <Gold.PLP.part.nonpolar>
-26.1183

> <Gold.PLP.part.repulsive>
1.5846

> <Gold.PLP.ligand.clash>
0.0000

> <Gold.PLP.ligand.torsion>
0.2295

> <Gold.PLP.Chemscore.Hbond>
2.0000

> <Gold.PLP.Chemscore.CHOScore>
0.0000

> <Gold.PLP.Chemscore.Metal>
0.0000

> <Gold.Chemscore.Hbonds>
donor molecule, donor type, donor heavy atom, donor atom, acceptor molecule, acceptor atom, score
      L1  H     4    23       P1  8028  1.00
      P1  H 10752 10764       L1    12  1.00

> <Gold.PLP.Chemscore.Internal.Correction>
0.0083

> <Gold.Rescore>
     Score         DG    S(hbond)    S(metal)    S(lipo)     H(rot)  DE(clash)    DE(int)     intcor
     13.09     -14.53       1.98        0.00      58.54       1.72       0.05       1.39       ----

> <Gold.Chemscore.Fitness>
13.0861

> <Gold.Chemscore.DG>
-14.5348

> <Gold.Chemscore.ZeroCoef>
-5.4800

> <Gold.Chemscore.Hbond>
1.9813

> <Gold.Chemscore.Metal>
0.0000

> <Gold.Chemscore.Lipo>
58.5436

> <Gold.Chemscore.Internal_Hbond>
0.0000

> <Gold.Chemscore.DEClash>
0.0544

> <Gold.Chemscore.DEInternal>
1.3943

> <Gold.Chemscore.Rot>
1.7236

> <Gold.Chemscore.Internal.Correction>
   9.000000E+99

> <Gold.Chemscore.Hbonds>
donor molecule, donor type, donor heavy atom, donor atom, acceptor molecule, acceptor atom, score
      L1  H     4    23       P1  8028  0.95
      P1  H 10752 10764       L1    12  1.00

> <Gold.Chemscore.Hbond.Weighted>
-6.6176

> <Gold.Chemscore.Metal.Weighted>
-0.0000

> <Gold.Chemscore.Lipo.Weighted>
-6.8496

> <Gold.Chemscore.Internal_Hbond.Weighted>
0.0000

> <Gold.Chemscore.DEClash.Weighted>
0.0544

> <Gold.Chemscore.DEInternal.Weighted>
1.3943

> <Gold.Chemscore.Rot.Weighted>
4.4124

> <Gold.Chemscore.Internal.Correction.Weighted>
   9.000000E+99

> <Gold.Protein.RotatedTorsions>
[ 6907 6896 6895 6894 ] final  -96.39 input  -60.11 | X-H torsion
[ 7974 7965 7964 7962 ] final  130.43 input  175.53 | X-H torsion
[ 8008 7997 7996 7995 ] final  -82.68 input   59.86 | X-H torsion
[ 10167 10162 10161 10158 ] final  -45.58 input  -65.29 | X-H torsion
[ 10718 10713 10712 10709 ] final    0.69 input   66.30 | X-H torsion
[ 10763 10752 10751 10750 ] final  -74.25 input  -60.55 | X-H torsion
[ 11005 11000 10999 10996 ] final -100.87 input  -57.11 | X-H torsion

> <Gold.Protein.ActiveResidues>
 VAL166  LYS551  ARG553  GLY616  TRP617  ASP618  TYR619  PRO620  LYS621  CYS622 
 ASP623  PHE694  ASN695  SER759  ASP760  ASP761  ALA762  ILE779  LEU786  VAL792 
 PHE793  MET794  SER795  GLU796  ALA797  LYS798  CYS799  TRP800  GLU811  SER814 

> <Gold.Protein.RotatedAtoms>
  150.6987  134.1510  159.4140 H   0  0  0  0  0  0  0  0  0  0  0  0  # atno 6907 bound_to 6896
  151.9493  135.0174  160.0550 H   0  0  0  0  0  0  0  0  0  0  0  0  # atno 6908 bound_to 6896
  152.2025  133.4816  159.5103 H   0  0  0  0  0  0  0  0  0  0  0  0  # atno 6909 bound_to 6896
  145.0180  139.4158  143.5211 H   0  0  0  0  0  0  0  0  0  0  0  0  # atno 7974 bound_to 7965
  154.6112  140.0629  156.9496 H   0  0  0  0  0  0  0  0  0  0  0  0  # atno 8008 bound_to 7997
  155.1970  140.3312  155.4331 H   0  0  0  0  0  0  0  0  0  0  0  0  # atno 8009 bound_to 7997
  156.2377  140.1871  156.7056 H   0  0  0  0  0  0  0  0  0  0  0  0  # atno 8010 bound_to 7997
  140.6852  143.2872  151.3659 H   0  0  0  0  0  0  0  0  0  0  0  0  # atno 10167 bound_to 10162
  156.8371  130.5508  149.5681 H   0  0  0  0  0  0  0  0  0  0  0  0  # atno 10718 bound_to 10713
  154.4705  135.5871  153.6318 H   0  0  0  0  0  0  0  0  0  0  0  0  # atno 10763 bound_to 10752
  152.9834  135.6065  154.3373 H   0  0  0  0  0  0  0  0  0  0  0  0  # atno 10764 bound_to 10752
  154.3254  135.2843  155.2478 H   0  0  0  0  0  0  0  0  0  0  0  0  # atno 10765 bound_to 10752
  141.1253  133.8433  157.1159 H   0  0  0  0  0  0  0  0  0  0  0  0  # atno 11005 bound_to 11000
  146.3481  139.9662  142.8711 LP  0  0  0  0  0  0  0  0  0  0  0  0  # atno 17320 bound_to 7965
  145.1933  140.9822  143.4198 LP  0  0  0  0  0  0  0  0  0  0  0  0  # atno 17321 bound_to 7965
  139.6205  144.0916  152.2387 LP  0  0  0  0  0  0  0  0  0  0  0  0  # atno 17342 bound_to 10162
  140.0359  144.6045  150.7450 LP  0  0  0  0  0  0  0  0  0  0  0  0  # atno 17343 bound_to 10162
  156.0901  130.5889  150.9718 LP  0  0  0  0  0  0  0  0  0  0  0  0  # atno 17370 bound_to 10713
  157.6376  131.0914  150.8317 LP  0  0  0  0  0  0  0  0  0  0  0  0  # atno 17371 bound_to 10713
  140.0247  134.9930  157.0661 LP  0  0  0  0  0  0  0  0  0  0  0  0  # atno 17394 bound_to 11000
  140.4383  134.1708  155.7172 LP  0  0  0  0  0  0  0  0  0  0  0  0  # atno 17395 bound_to 11000

$$$$
