AV-unprocessed.smi:2237|AV-procd|sdf|9048|dock2
  -GOLD-   2272012253D 1   1.00000     0.00000
 Structure written by MMmdl.
 55 57  0  0  0  0  0  0  0  0  3 V2000
  153.5256  141.4265  160.0396 C   0  0  0  0  0  0  0  0  0  0  0  0
  152.7977  142.5573  159.3435 C   0  0  0  0  0  0  0  0  0  0  0  0
  152.9914  143.8956  159.7380 C   0  0  0  0  0  0  0  0  0  0  0  0
  152.2833  144.8981  159.0513 C   0  0  0  0  0  0  0  0  0  0  0  0
  151.4178  144.5238  158.0051 C   0  0  0  0  0  0  0  0  0  0  0  0
  151.2834  143.1577  157.6695 C   0  0  0  0  0  0  0  0  0  0  0  0
  150.3870  142.8843  156.6022 N   0  0  0  0  0  0  0  0  0  0  0  0
  150.1329  141.7019  156.0140 C   0  0  0  0  0  0  0  0  0  0  0  0
  150.6733  140.6323  156.2975 O   0  0  0  0  0  0  0  0  0  0  0  0
  149.2035  141.8252  155.0548 N   0  0  0  0  0  0  0  0  0  0  0  0
  148.6991  140.7296  154.2322 C   0  0  2  0  0  0  0  0  0  0  0  0
  147.3950  141.1284  153.5252 C   0  0  0  0  0  0  0  0  0  0  0  0
  146.8177  139.9474  152.7300 C   0  0  0  0  0  0  0  0  0  0  0  0
  146.5637  138.7618  153.5999 N   0  3  1  0  0  0  0  0  0  0  0  0
  145.8401  137.6661  152.8691 C   0  0  2  0  0  0  0  0  0  0  0  0
  144.3029  137.8404  152.9296 C   0  0  0  0  0  0  0  0  0  0  0  0
  143.7422  137.5502  154.3344 C   0  0  0  0  0  0  0  0  0  0  0  0
  144.0961  136.1798  154.7795 N   0  3  2  0  0  0  0  0  0  0  0  0
  143.4922  135.8368  156.0852 C   0  0  0  0  0  0  0  0  0  0  0  0
  145.5606  135.9449  154.7553 C   0  0  0  0  0  0  0  0  0  0  0  0
  146.1436  136.2265  153.3571 C   0  0  0  0  0  0  0  0  0  0  0  0
  147.8233  138.3464  154.2853 C   0  0  0  0  0  0  0  0  0  0  0  0
  148.4361  139.4960  155.1040 C   0  0  0  0  0  0  0  0  0  0  0  0
  151.9703  142.1983  158.3383 N   0  0  0  0  0  0  0  0  0  0  0  0
  154.0045  141.7708  160.9566 H   0  0  0  0  0  0  0  0  0  0  0  0
  154.2942  141.0142  159.3855 H   0  0  0  0  0  0  0  0  0  0  0  0
  152.8303  140.6278  160.2998 H   0  0  0  0  0  0  0  0  0  0  0  0
  153.6630  144.1496  160.5449 H   0  0  0  0  0  0  0  0  0  0  0  0
  152.4010  145.9370  159.3218 H   0  0  0  0  0  0  0  0  0  0  0  0
  150.8660  145.2817  157.4683 H   0  0  0  0  0  0  0  0  0  0  0  0
  149.8762  143.6809  156.2519 H   0  0  0  0  0  0  0  0  0  0  0  0
  148.8129  142.7412  154.8881 H   0  0  0  0  0  0  0  0  0  0  0  0
  149.4490  140.4676  153.4829 H   0  0  0  0  0  0  0  0  0  0  0  0
  146.6608  141.4699  154.2566 H   0  0  0  0  0  0  0  0  0  0  0  0
  147.5739  141.9682  152.8524 H   0  0  0  0  0  0  0  0  0  0  0  0
  145.9045  140.2874  152.2462 H   0  0  0  0  0  0  0  0  0  0  0  0
  147.5056  139.6698  151.9295 H   0  0  0  0  0  0  0  0  0  0  0  0
  146.1554  137.7210  151.8257 H   0  0  0  0  0  0  0  0  0  0  0  0
  143.9832  138.8271  152.6008 H   0  0  0  0  0  0  0  0  0  0  0  0
  143.8429  137.1473  152.2234 H   0  0  0  0  0  0  0  0  0  0  0  0
  144.1196  138.2803  155.0522 H   0  0  0  0  0  0  0  0  0  0  0  0
  142.6564  137.6546  154.3197 H   0  0  0  0  0  0  0  0  0  0  0  0
  143.8761  136.4822  156.8765 H   0  0  0  0  0  0  0  0  0  0  0  0
  143.7110  134.8021  156.3511 H   0  0  0  0  0  0  0  0  0  0  0  0
  142.4079  135.9474  156.0494 H   0  0  0  0  0  0  0  0  0  0  0  0
  146.0429  136.5715  155.5066 H   0  0  0  0  0  0  0  0  0  0  0  0
  145.7639  134.9092  155.0308 H   0  0  0  0  0  0  0  0  0  0  0  0
  145.6914  135.5240  152.6550 H   0  0  0  0  0  0  0  0  0  0  0  0
  147.2070  135.9930  153.3195 H   0  0  0  0  0  0  0  0  0  0  0  0
  147.6405  137.5342  154.9860 H   0  0  0  0  0  0  0  0  0  0  0  0
  148.5394  137.9819  153.5471 H   0  0  0  0  0  0  0  0  0  0  0  0
  149.3661  139.1615  155.5659 H   0  0  0  0  0  0  0  0  0  0  0  0
  147.7621  139.7562  155.9218 H   0  0  0  0  0  0  0  0  0  0  0  0
  145.9433  139.0701  154.3347 H   0  0  0  0  0  0  0  0  0  0  0  0
  143.6917  135.5450  154.1052 H   0  0  0  0  0  0  0  0  0  0  0  0
  1  2  1  0  0  0  0
  1 25  1  0  0  0  0
  1 26  1  0  0  0  0
  1 27  1  0  0  0  0
  2 24  1  0  0  0  0
  2  3  2  0  0  0  0
  3  4  1  0  0  0  0
  3 28  1  0  0  0  0
  4  5  2  0  0  0  0
  4 29  1  0  0  0  0
  5  6  1  0  0  0  0
  5 30  1  0  0  0  0
  6  7  1  0  0  0  0
  6 24  2  0  0  0  0
  7  8  1  0  0  0  0
  7 31  1  0  0  0  0
  8  9  2  0  0  0  0
  8 10  1  0  0  0  0
 10 11  1  0  0  0  0
 10 32  1  0  0  0  0
 11 23  1  0  0  0  0
 11 12  1  0  0  0  0
 11 33  1  0  0  0  0
 12 13  1  0  0  0  0
 12 34  1  0  0  0  0
 12 35  1  0  0  0  0
 13 14  1  0  0  0  0
 13 36  1  0  0  0  0
 13 37  1  0  0  0  0
 14 15  1  0  0  0  0
 14 22  1  0  0  0  0
 14 54  1  0  0  0  0
 15 21  1  0  0  0  0
 15 16  1  0  0  0  0
 15 38  1  0  0  0  0
 16 17  1  0  0  0  0
 16 39  1  0  0  0  0
 16 40  1  0  0  0  0
 17 18  1  0  0  0  0
 17 41  1  0  0  0  0
 17 42  1  0  0  0  0
 18 19  1  0  0  0  0
 18 20  1  0  0  0  0
 18 55  1  0  0  0  0
 19 43  1  0  0  0  0
 19 44  1  0  0  0  0
 19 45  1  0  0  0  0
 20 21  1  0  0  0  0
 20 46  1  0  0  0  0
 20 47  1  0  0  0  0
 21 48  1  0  0  0  0
 21 49  1  0  0  0  0
 22 23  1  0  0  0  0
 22 50  1  0  0  0  0
 22 51  1  0  0  0  0
 23 52  1  0  0  0  0
 23 53  1  0  0  0  0
M  CHG  1  14   1
M  CHG  1  18   1
M  END
> <s_m_source_file>
AV-unprocessed.smi

> <i_m_source_file_index>
2237

> <i_lp_mmshare_version>
43012

> <i_f3d_flags>
0

> <s_epik_input>
W0NIM11jMVtjSF1bY0hdW2NIXWMobjEpW05IXUMoPU8pW05IXVtDSF0yW0NIMl1bQ0gyXU4oW0NIMl1bQ0gyXTIpW0NIXTNbQ0gyXVtDSDJdTihbQ0gzXSlbQ0gyXVtDSDJdMw==

> <s_epik_cmdline>
J2VwaWtfcHl0aG9uJywgJy1waCcsICc3LjAnLCAnLXRuJywgJzgnLCAnLW1hJywgJzIwMCcsICctbWV0YWxfYmluZGluZycsICctaW1hZScsICc8aW5maWxlLm1hZT4nLCAnLW9tYWUnLCAnPG91dGZpbGUubWFlPic=

> <r_epik_Ionization_Penalty>
0.180851

> <r_epik_Ionization_Penalty_Charging>
0.180787

> <r_epik_Ionization_Penalty_Neutral>
6.38624e-05

> <r_epik_State_Penalty>
0.153592

> <r_epik_Charging_Adjusted_Penalty>
0.334379

> <i_epik_Tot_Q>
2

> <i_epik_Tot_abs_Q>
2

> <r_epik_Metal_State_Penalty>
0.153595

> <b_epik_Metal_Only>
0

> <s_lp_Force_Field>
OPLS_2005

> <r_lp_Energy>
45.5508

> <b_lp_Chiralities_Consistent>
1

> <s_lp_Variant>
AV-unprocessed.smi:2237-3

> <Gold.Version>
5.8.1

> <Gold.Id.Protein>
6NUR|6NUR_protein|mol2

> <Gold.PLP.Fitness>
41.2367

> <Gold.PLP.PLP>
-38.2300

> <Gold.PLP.part.hbond>
-2.0000

> <Gold.PLP.part.metal>
0.0000

> <Gold.PLP.part.buried>
-0.5253

> <Gold.PLP.part.nonpolar>
-35.8863

> <Gold.PLP.part.repulsive>
0.2720

> <Gold.PLP.ligand.clash>
0.0000

> <Gold.PLP.ligand.torsion>
1.0476

> <Gold.PLP.Chemscore.Hbond>
1.6895

> <Gold.PLP.Chemscore.CHOScore>
0.0000

> <Gold.PLP.Chemscore.Metal>
0.0000

> <Gold.Chemscore.Hbonds>
donor molecule, donor type, donor heavy atom, donor atom, acceptor molecule, acceptor atom, score
      L1  H     7    31       P1  8028  1.00
      L1  H    10    32       P1  8028  0.66

> <Gold.PLP.Chemscore.Internal.Correction>
0.0333

> <Gold.Rescore>
     Score         DG    S(hbond)    S(metal)    S(lipo)     H(rot)  DE(clash)    DE(int)     intcor
     15.93     -21.17       1.84        0.00     108.43       1.23       1.69       3.55       ----

> <Gold.Chemscore.Fitness>
15.9315

> <Gold.Chemscore.DG>
-21.1709

> <Gold.Chemscore.ZeroCoef>
-5.4800

> <Gold.Chemscore.Hbond>
1.8419

> <Gold.Chemscore.Metal>
0.0000

> <Gold.Chemscore.Lipo>
108.4304

> <Gold.Chemscore.Internal_Hbond>
0.0000

> <Gold.Chemscore.DEClash>
1.6863

> <Gold.Chemscore.DEInternal>
3.5532

> <Gold.Chemscore.Rot>
1.2295

> <Gold.Chemscore.Internal.Correction>
   9.000000E+99

> <Gold.Chemscore.Hbonds>
donor molecule, donor type, donor heavy atom, donor atom, acceptor molecule, acceptor atom, score
      L1  H     7    31       P1  8028  0.95
      L1  H    10    32       P1  8028  0.65

> <Gold.Chemscore.Hbond.Weighted>
-6.1520

> <Gold.Chemscore.Metal.Weighted>
-0.0000

> <Gold.Chemscore.Lipo.Weighted>
-12.6864

> <Gold.Chemscore.Internal_Hbond.Weighted>
0.0000

> <Gold.Chemscore.DEClash.Weighted>
1.6863

> <Gold.Chemscore.DEInternal.Weighted>
3.5532

> <Gold.Chemscore.Rot.Weighted>
3.1474

> <Gold.Chemscore.Internal.Correction.Weighted>
   9.000000E+99

> <Gold.Protein.RotatedTorsions>
[ 6907 6896 6895 6894 ] final  -47.21 input  -60.11 | X-H torsion
[ 7974 7965 7964 7962 ] final -168.14 input  175.53 | X-H torsion
[ 8008 7997 7996 7995 ] final  173.21 input   59.86 | X-H torsion
[ 10167 10162 10161 10158 ] final  -11.08 input  -65.29 | X-H torsion
[ 10718 10713 10712 10709 ] final  166.49 input   66.30 | X-H torsion
[ 10763 10752 10751 10750 ] final   39.50 input  -60.55 | X-H torsion
[ 11005 11000 10999 10996 ] final   33.68 input  -57.11 | X-H torsion

> <Gold.Protein.ActiveResidues>
 VAL166  LYS551  ARG553  GLY616  TRP617  ASP618  TYR619  PRO620  LYS621  CYS622 
 ASP623  PHE694  ASN695  SER759  ASP760  ASP761  ALA762  ILE779  LEU786  VAL792 
 PHE793  MET794  SER795  GLU796  ALA797  LYS798  CYS799  TRP800  GLU811  SER814 

> <Gold.Protein.RotatedAtoms>
  150.9032  134.8445  159.7373 H   0  0  0  0  0  0  0  0  0  0  0  0  # atno 6907 bound_to 6896
  152.4904  134.4471  159.9572 H   0  0  0  0  0  0  0  0  0  0  0  0  # atno 6908 bound_to 6896
  151.4521  133.3575  159.2832 H   0  0  0  0  0  0  0  0  0  0  0  0  # atno 6909 bound_to 6896
  144.7209  140.2414  143.6291 H   0  0  0  0  0  0  0  0  0  0  0  0  # atno 7974 bound_to 7965
  156.1098  140.1466  156.9354 H   0  0  0  0  0  0  0  0  0  0  0  0  # atno 8008 bound_to 7997
  154.4759  140.0894  156.7304 H   0  0  0  0  0  0  0  0  0  0  0  0  # atno 8009 bound_to 7997
  155.4616  140.3438  155.4316 H   0  0  0  0  0  0  0  0  0  0  0  0  # atno 8010 bound_to 7997
  140.7130  143.5678  150.9125 H   0  0  0  0  0  0  0  0  0  0  0  0  # atno 10167 bound_to 10162
  157.0651  131.0351  151.2632 H   0  0  0  0  0  0  0  0  0  0  0  0  # atno 10718 bound_to 10713
  152.9965  135.6219  154.2475 H   0  0  0  0  0  0  0  0  0  0  0  0  # atno 10763 bound_to 10752
  154.2214  135.2796  155.2925 H   0  0  0  0  0  0  0  0  0  0  0  0  # atno 10764 bound_to 10752
  154.5525  135.5729  153.6993 H   0  0  0  0  0  0  0  0  0  0  0  0  # atno 10765 bound_to 10752
  140.2606  134.3196  155.7859 H   0  0  0  0  0  0  0  0  0  0  0  0  # atno 11005 bound_to 11000
  145.8316  139.2089  143.1879 LP  0  0  0  0  0  0  0  0  0  0  0  0  # atno 17320 bound_to 7965
  146.0425  140.8150  142.9821 LP  0  0  0  0  0  0  0  0  0  0  0  0  # atno 17321 bound_to 7965
  139.9404  143.6388  152.3055 LP  0  0  0  0  0  0  0  0  0  0  0  0  # atno 17342 bound_to 10162
  139.6871  144.7650  151.1504 LP  0  0  0  0  0  0  0  0  0  0  0  0  # atno 17343 bound_to 10162
  157.4923  130.7829  149.7520 LP  0  0  0  0  0  0  0  0  0  0  0  0  # atno 17370 bound_to 10713
  155.9967  130.3904  150.2770 LP  0  0  0  0  0  0  0  0  0  0  0  0  # atno 17371 bound_to 10713
  141.2191  133.7407  156.9181 LP  0  0  0  0  0  0  0  0  0  0  0  0  # atno 17394 bound_to 11000
  140.1468  134.9257  157.2540 LP  0  0  0  0  0  0  0  0  0  0  0  0  # atno 17395 bound_to 11000

$$$$
