AV-unprocessed.smi:986|AV-procd|sdf|4320|dock9
  -GOLD-   22720 2223D 1   1.00000     0.00000
 Structure written by MMmdl.
 31 31  0  0  0  0  0  0  0  0  1 V2000
  148.7831  140.5952  154.1245 C   0  0  0  0  0  0  0  0  0  0  0  0
  148.9860  139.0791  154.2752 C   0  0  0  0  0  0  0  0  0  0  0  0
  150.4475  138.6799  154.0323 C   0  0  0  0  0  0  0  0  0  0  0  0
  148.1307  138.3531  153.3433 N   0  0  0  0  0  0  0  0  0  0  0  0
  146.7869  138.3961  153.3043 C   0  0  0  0  0  0  0  0  0  0  0  0
  146.1187  139.0752  154.0830 O   0  0  0  0  0  0  0  0  0  0  0  0
  146.0644  137.5529  152.2397 C   0  0  0  0  0  0  0  0  0  0  0  0
  146.4329  136.1374  152.2428 N   0  0  0  0  0  0  0  0  0  0  0  0
  145.5922  135.1159  152.4741 C   0  0  0  0  0  0  0  0  0  0  0  0
  144.4120  135.2650  152.7879 O   0  0  0  0  0  0  0  0  0  0  0  0
  146.1656  133.7109  152.2925 C   0  0  0  0  0  0  0  0  0  0  0  0
  145.3877  132.9635  151.3201 N   0  0  0  0  0  0  0  0  0  0  0  0
  145.7698  132.3010  150.2263 C   0  0  0  0  0  0  0  0  0  0  0  0
  144.7678  131.7486  149.5570 N   0  0  0  0  0  0  0  0  0  0  0  0
  143.7240  132.1339  150.3501 C   0  0  0  0  0  0  0  0  0  0  0  0
  144.0408  132.8667  151.4176 N   0  0  0  0  0  0  0  0  0  0  0  0
  149.4207  141.1454  154.8167 H   0  0  0  0  0  0  0  0  0  0  0  0
  147.7519  140.8811  154.3336 H   0  0  0  0  0  0  0  0  0  0  0  0
  149.0229  140.9289  153.1143 H   0  0  0  0  0  0  0  0  0  0  0  0
  148.7235  138.7894  155.2943 H   0  0  0  0  0  0  0  0  0  0  0  0
  151.1125  139.1781  154.7381 H   0  0  0  0  0  0  0  0  0  0  0  0
  150.7697  138.9491  153.0258 H   0  0  0  0  0  0  0  0  0  0  0  0
  150.5878  137.6049  154.1503 H   0  0  0  0  0  0  0  0  0  0  0  0
  148.5984  137.7745  152.6607 H   0  0  0  0  0  0  0  0  0  0  0  0
  144.9909  137.6226  152.4166 H   0  0  0  0  0  0  0  0  0  0  0  0
  146.2438  137.9900  151.2560 H   0  0  0  0  0  0  0  0  0  0  0  0
  147.3878  135.9190  151.9988 H   0  0  0  0  0  0  0  0  0  0  0  0
  147.2002  133.7674  151.9516 H   0  0  0  0  0  0  0  0  0  0  0  0
  146.1662  133.1766  153.2439 H   0  0  0  0  0  0  0  0  0  0  0  0
  146.7998  132.2281  149.9093 H   0  0  0  0  0  0  0  0  0  0  0  0
  142.6997  131.8693  150.1321 H   0  0  0  0  0  0  0  0  0  0  0  0
  1  2  1  0  0  0  0
  1 17  1  0  0  0  0
  1 18  1  0  0  0  0
  1 19  1  0  0  0  0
  2  3  1  0  0  0  0
  2  4  1  0  0  0  0
  2 20  1  0  0  0  0
  3 21  1  0  0  0  0
  3 22  1  0  0  0  0
  3 23  1  0  0  0  0
  4  5  1  0  0  0  0
  4 24  1  0  0  0  0
  5  6  2  0  0  0  0
  5  7  1  0  0  0  0
  7  8  1  0  0  0  0
  7 25  1  0  0  0  0
  7 26  1  0  0  0  0
  8  9  1  0  0  0  0
  8 27  1  0  0  0  0
  9 10  2  0  0  0  0
  9 11  1  0  0  0  0
 11 12  1  0  0  0  0
 11 28  1  0  0  0  0
 11 29  1  0  0  0  0
 12 16  1  0  0  0  0
 12 13  1  0  0  0  0
 13 14  2  0  0  0  0
 13 30  1  0  0  0  0
 14 15  1  0  0  0  0
 15 16  2  0  0  0  0
 15 31  1  0  0  0  0
M  END
> <s_m_source_file>
AV-unprocessed.smi

> <i_m_source_file_index>
986

> <i_lp_mmshare_version>
43012

> <i_f3d_flags>
0

> <s_epik_input>
W0NIM11bQ0hdKFtDSDNdKVtOSF1DKD1PKVtDSDJdW05IXUMoPU8pW0NIMl1uMVtjSF1uW2NIXW4x

> <s_epik_cmdline>
J2VwaWtfcHl0aG9uJywgJy1waCcsICc3LjAnLCAnLXRuJywgJzgnLCAnLW1hJywgJzIwMCcsICctbWV0YWxfYmluZGluZycsICctaW1hZScsICc8aW5maWxlLm1hZT4nLCAnLW9tYWUnLCAnPG91dGZpbGUubWFlPic=

> <r_lp_tautomer_probability>
1

> <r_epik_Ionization_Penalty>
7.25916e-06

> <r_epik_Ionization_Penalty_Charging>
0

> <r_epik_Ionization_Penalty_Neutral>
7.25916e-06

> <r_epik_State_Penalty>
-0

> <r_epik_Charging_Adjusted_Penalty>
0

> <i_epik_Tot_Q>
0

> <i_epik_Tot_abs_Q>
0

> <r_epik_Metal_State_Penalty>
-0

> <b_epik_Metal_Only>
0

> <s_lp_Force_Field>
OPLS_2005

> <r_lp_Energy>
0.116245

> <b_lp_Chiralities_Consistent>
1

> <s_lp_Variant>
AV-unprocessed.smi:986-1

> <Gold.Version>
5.8.1

> <Gold.Id.Protein>
6NUR|6NUR_protein|mol2

> <Gold.PLP.Fitness>
37.9778

> <Gold.PLP.PLP>
-26.2331

> <Gold.PLP.part.hbond>
-3.6473

> <Gold.PLP.part.metal>
0.0000

> <Gold.PLP.part.buried>
-3.7469

> <Gold.PLP.part.nonpolar>
-21.4167

> <Gold.PLP.part.repulsive>
0.6172

> <Gold.PLP.ligand.clash>
0.0000

> <Gold.PLP.ligand.torsion>
0.1221

> <Gold.PLP.Chemscore.Hbond>
2.0000

> <Gold.PLP.Chemscore.CHOScore>
1.9877

> <Gold.PLP.Chemscore.Metal>
0.0000

> <Gold.Chemscore.Hbonds>
donor molecule, donor type, donor heavy atom, donor atom, acceptor molecule, acceptor atom, score
      L1  H     4    24       P1  7948  1.00
      L1  H     8    27       P1  7948  1.00
      P1  H 10785 10796       L1    14  0.01
      L1  C    13    30       P1 10747  0.86
      L1  C    15    31       P1 10952  1.00

> <Gold.PLP.Chemscore.Internal.Correction>
0.0260

> <Gold.Rescore>
     Score         DG    S(hbond)    S(metal)    S(lipo)     H(rot)  DE(clash)    DE(int)     intcor
      6.83      -8.19       1.97        0.00      33.26       3.03       0.01       1.35       ----

> <Gold.Chemscore.Fitness>
6.8298

> <Gold.Chemscore.DG>
-8.1878

> <Gold.Chemscore.ZeroCoef>
-5.4800

> <Gold.Chemscore.Hbond>
1.9704

> <Gold.Chemscore.Metal>
0.0000

> <Gold.Chemscore.Lipo>
33.2554

> <Gold.Chemscore.Internal_Hbond>
0.0000

> <Gold.Chemscore.DEClash>
0.0073

> <Gold.Chemscore.DEInternal>
1.3507

> <Gold.Chemscore.Rot>
3.0329

> <Gold.Chemscore.Internal.Correction>
   9.000000E+99

> <Gold.Chemscore.Hbonds>
donor molecule, donor type, donor heavy atom, donor atom, acceptor molecule, acceptor atom, score
      L1  H     4    24       P1  7948  0.98
      L1  H     8    27       P1  7948  0.96

> <Gold.Chemscore.Hbond.Weighted>
-6.5813

> <Gold.Chemscore.Metal.Weighted>
-0.0000

> <Gold.Chemscore.Lipo.Weighted>
-3.8909

> <Gold.Chemscore.Internal_Hbond.Weighted>
0.0000

> <Gold.Chemscore.DEClash.Weighted>
0.0073

> <Gold.Chemscore.DEInternal.Weighted>
1.3507

> <Gold.Chemscore.Rot.Weighted>
7.7643

> <Gold.Chemscore.Internal.Correction.Weighted>
   9.000000E+99

> <Gold.Protein.RotatedTorsions>
[ 6907 6896 6895 6894 ] final -140.75 input  -60.11 | X-H torsion
[ 7974 7965 7964 7962 ] final -136.78 input  175.53 | X-H torsion
[ 8008 7997 7996 7995 ] final -141.29 input   59.86 | X-H torsion
[ 10167 10162 10161 10158 ] final   70.00 input  -65.29 | X-H torsion
[ 10718 10713 10712 10709 ] final  -61.41 input   66.30 | X-H torsion
[ 10763 10752 10751 10750 ] final  160.40 input  -60.55 | X-H torsion
[ 11005 11000 10999 10996 ] final   -9.13 input  -57.11 | X-H torsion

> <Gold.Protein.ActiveResidues>
 VAL166  LYS551  ARG553  GLY616  TRP617  ASP618  TYR619  PRO620  LYS621  CYS622 
 ASP623  PHE694  ASN695  SER759  ASP760  ASP761  ALA762  ILE779  LEU786  VAL792 
 PHE793  MET794  SER795  GLU796  ALA797  LYS798  CYS799  TRP800  GLU811  SER814 

> <Gold.Protein.RotatedAtoms>
  151.0647  133.5515  159.2631 H   0  0  0  0  0  0  0  0  0  0  0  0  # atno 6907 bound_to 6896
  151.2477  135.0610  159.9059 H   0  0  0  0  0  0  0  0  0  0  0  0  # atno 6908 bound_to 6896
  152.5403  134.0412  159.8122 H   0  0  0  0  0  0  0  0  0  0  0  0  # atno 6909 bound_to 6896
  144.8898  140.6625  143.5153 H   0  0  0  0  0  0  0  0  0  0  0  0  # atno 7974 bound_to 7965
  155.4753  140.0556  157.2974 H   0  0  0  0  0  0  0  0  0  0  0  0  # atno 8008 bound_to 7997
  154.4682  140.2028  156.0017 H   0  0  0  0  0  0  0  0  0  0  0  0  # atno 8009 bound_to 7997
  156.1010  140.3219  155.7947 H   0  0  0  0  0  0  0  0  0  0  0  0  # atno 8010 bound_to 7997
  140.0617  144.5227  150.7289 H   0  0  0  0  0  0  0  0  0  0  0  0  # atno 10167 bound_to 10162
  156.0924  130.4198  150.0990 H   0  0  0  0  0  0  0  0  0  0  0  0  # atno 10718 bound_to 10713
  154.2468  135.2773  155.2832 H   0  0  0  0  0  0  0  0  0  0  0  0  # atno 10763 bound_to 10752
  154.5499  135.5678  153.6916 H   0  0  0  0  0  0  0  0  0  0  0  0  # atno 10764 bound_to 10752
  152.9988  135.6272  154.2614 H   0  0  0  0  0  0  0  0  0  0  0  0  # atno 10765 bound_to 10752
  140.7309  133.8750  155.8892 H   0  0  0  0  0  0  0  0  0  0  0  0  # atno 11005 bound_to 11000
  145.3804  139.1638  143.4283 LP  0  0  0  0  0  0  0  0  0  0  0  0  # atno 17320 bound_to 7965
  146.3046  140.3884  142.8691 LP  0  0  0  0  0  0  0  0  0  0  0  0  # atno 17321 bound_to 7965
  140.7168  143.2552  151.4407 LP  0  0  0  0  0  0  0  0  0  0  0  0  # atno 17342 bound_to 10162
  139.5889  144.1542  152.2064 LP  0  0  0  0  0  0  0  0  0  0  0  0  # atno 17343 bound_to 10162
  156.8997  130.9616  151.3578 LP  0  0  0  0  0  0  0  0  0  0  0  0  # atno 17370 bound_to 10713
  157.6076  130.8559  149.8900 LP  0  0  0  0  0  0  0  0  0  0  0  0  # atno 17371 bound_to 10713
  140.9922  134.1263  157.4397 LP  0  0  0  0  0  0  0  0  0  0  0  0  # atno 17394 bound_to 11000
  139.8826  135.0044  156.6245 LP  0  0  0  0  0  0  0  0  0  0  0  0  # atno 17395 bound_to 11000

$$$$
