AV-unprocessed.smi:1732|AV-procd|sdf|6977|dock8
  -GOLD-   22720 8193D 1   1.00000     0.00000
 Structure written by MMmdl.
 35 36  0  0  0  0  0  0  0  0  2 V2000
  151.2067  140.6099  155.0917 O   0  0  0  0  0  0  0  0  0  0  0  0
  150.5392  140.0437  155.9566 C   0  0  0  0  0  0  0  0  0  0  0  0
  149.4796  139.0292  155.5357 C   0  0  0  0  0  0  0  0  0  0  0  0
  148.8278  139.5168  154.3728 O   0  0  0  0  0  0  0  0  0  0  0  0
  148.3047  140.8287  154.5194 C   0  0  0  0  0  0  0  0  0  0  0  0
  147.2968  140.8762  155.6667 C   0  0  0  0  0  0  0  0  0  0  0  0
  146.4213  142.0992  155.3720 C   0  0  0  0  0  0  0  0  0  0  0  0
  146.5319  142.3535  153.8601 C   0  0  0  0  0  0  0  0  0  0  0  0
  147.4816  141.2828  153.3108 C   0  0  0  0  0  0  0  0  0  0  0  0
  150.6702  140.2199  157.2859 N   0  0  0  0  0  0  0  0  0  0  0  0
  151.5242  141.0858  157.9897 C   0  0  0  0  0  0  0  0  0  0  0  0
  151.1314  142.2457  158.5856 C   0  0  0  0  0  0  0  0  0  0  0  0
  152.0583  143.0987  159.3189 C   0  0  0  0  0  0  0  0  0  0  0  0
  151.6789  144.4414  159.9180 C   0  0  0  0  0  0  0  0  0  0  0  0
  150.3597  144.6286  159.8717 F   0  0  0  0  0  0  0  0  0  0  0  0
  152.0721  144.5286  161.1888 F   0  0  0  0  0  0  0  0  0  0  0  0
  152.2614  145.4247  159.2333 F   0  0  0  0  0  0  0  0  0  0  0  0
  153.3448  142.5958  159.3202 C   0  0  0  0  0  0  0  0  0  0  0  0
  153.8099  141.4477  158.7804 N   0  5  0  0  0  0  0  0  0  0  0  0
  152.9335  140.6553  158.1006 C   0  0  0  0  0  0  0  0  0  0  0  0
  153.2906  139.5971  157.5816 O   0  0  0  0  0  0  0  0  0  0  0  0
  149.9505  138.0661  155.3319 H   0  0  0  0  0  0  0  0  0  0  0  0
  148.7718  138.8852  156.3532 H   0  0  0  0  0  0  0  0  0  0  0  0
  149.1033  141.5451  154.7222 H   0  0  0  0  0  0  0  0  0  0  0  0
  146.6784  139.9773  155.6500 H   0  0  0  0  0  0  0  0  0  0  0  0
  147.7767  140.9282  156.6445 H   0  0  0  0  0  0  0  0  0  0  0  0
  145.3896  141.9341  155.6844 H   0  0  0  0  0  0  0  0  0  0  0  0
  146.7926  142.9665  155.9194 H   0  0  0  0  0  0  0  0  0  0  0  0
  145.5601  142.3111  153.3676 H   0  0  0  0  0  0  0  0  0  0  0  0
  146.9434  143.3478  153.6831 H   0  0  0  0  0  0  0  0  0  0  0  0
  148.0999  141.6540  152.4932 H   0  0  0  0  0  0  0  0  0  0  0  0
  146.8985  140.4431  152.9295 H   0  0  0  0  0  0  0  0  0  0  0  0
  150.1059  139.6232  157.8736 H   0  0  0  0  0  0  0  0  0  0  0  0
  150.1015  142.5612  158.5517 H   0  0  0  0  0  0  0  0  0  0  0  0
  154.1168  143.2103  159.8308 H   0  0  0  0  0  0  0  0  0  0  0  0
  1  2  2  0  0  0  0
  2  3  1  0  0  0  0
  2 10  1  0  0  0  0
  3  4  1  0  0  0  0
  3 22  1  0  0  0  0
  3 23  1  0  0  0  0
  4  5  1  0  0  0  0
  5  9  1  0  0  0  0
  5  6  1  0  0  0  0
  5 24  1  0  0  0  0
  6  7  1  0  0  0  0
  6 25  1  0  0  0  0
  6 26  1  0  0  0  0
  7  8  1  0  0  0  0
  7 27  1  0  0  0  0
  7 28  1  0  0  0  0
  8  9  1  0  0  0  0
  8 29  1  0  0  0  0
  8 30  1  0  0  0  0
  9 31  1  0  0  0  0
  9 32  1  0  0  0  0
 10 11  1  0  0  0  0
 10 33  1  0  0  0  0
 11 20  1  0  0  0  0
 11 12  2  0  0  0  0
 12 13  1  0  0  0  0
 12 34  1  0  0  0  0
 13 14  1  0  0  0  0
 13 18  2  0  0  0  0
 14 15  1  0  0  0  0
 14 16  1  0  0  0  0
 14 17  1  0  0  0  0
 18 19  1  0  0  0  0
 18 35  1  0  0  0  0
 19 20  1  0  0  0  0
 20 21  2  0  0  0  0
M  CHG  1  19  -1
M  END
> <s_m_source_file>
AV-unprocessed.smi

> <i_m_source_file_index>
1732

> <i_lp_mmshare_version>
43012

> <i_f3d_flags>
0

> <s_epik_input>
W0NIMl0xW0NIMl1bQ0gyXVtDSDJdW0NIXTFPW0NIMl1DKD1PKVtOSF1jMltjSF1jKEMoRikoRilGKVtjSF1bbkhdYzI9Tw==

> <s_epik_cmdline>
J2VwaWtfcHl0aG9uJywgJy1waCcsICc3LjAnLCAnLXRuJywgJzgnLCAnLW1hJywgJzIwMCcsICctbWV0YWxfYmluZGluZycsICctaW1hZScsICc8aW5maWxlLm1hZT4nLCAnLW9tYWUnLCAnPG91dGZpbGUubWFlPic=

> <r_epik_Ionization_Penalty>
2.40879

> <r_epik_Ionization_Penalty_Charging>
0.039975

> <r_epik_Ionization_Penalty_Neutral>
2.36882

> <r_epik_State_Penalty>
2.52443

> <r_epik_Charging_Adjusted_Penalty>
2.5644

> <i_epik_Tot_Q>
-1

> <i_epik_Tot_abs_Q>
1

> <r_epik_Metal_State_Penalty>
0.506326

> <b_epik_Metal_Only>
0

> <s_lp_Force_Field>
OPLS_2005

> <r_lp_Energy>
39.1091

> <b_lp_Chiralities_Consistent>
1

> <s_lp_Variant>
AV-unprocessed.smi:1732-2

> <Gold.Version>
5.8.1

> <Gold.Id.Protein>
6NUR|6NUR_protein|mol2

> <Gold.PLP.Fitness>
42.1343

> <Gold.PLP.PLP>
-38.7198

> <Gold.PLP.part.hbond>
-2.5742

> <Gold.PLP.part.metal>
0.0000

> <Gold.PLP.part.buried>
-3.5979

> <Gold.PLP.part.nonpolar>
-31.7846

> <Gold.PLP.part.repulsive>
0.2077

> <Gold.PLP.ligand.clash>
0.0000

> <Gold.PLP.ligand.torsion>
1.2164

> <Gold.PLP.Chemscore.Hbond>
1.9260

> <Gold.PLP.Chemscore.CHOScore>
0.0000

> <Gold.PLP.Chemscore.Metal>
0.0000

> <Gold.Chemscore.Hbonds>
donor molecule, donor type, donor heavy atom, donor atom, acceptor molecule, acceptor atom, score
      P1  H  7989  7998       L1     1  0.90
      P1  H  7997  8008       L1    21  0.99

> <Gold.PLP.Chemscore.Internal.Correction>
0.0693

> <Gold.Rescore>
     Score         DG    S(hbond)    S(metal)    S(lipo)     H(rot)  DE(clash)    DE(int)     intcor
     12.50     -15.34       1.47        0.00      76.76       1.58       1.79       1.06       ----

> <Gold.Chemscore.Fitness>
12.4963

> <Gold.Chemscore.DG>
-15.3444

> <Gold.Chemscore.ZeroCoef>
-5.4800

> <Gold.Chemscore.Hbond>
1.4740

> <Gold.Chemscore.Metal>
0.0000

> <Gold.Chemscore.Lipo>
76.7623

> <Gold.Chemscore.Internal_Hbond>
0.0000

> <Gold.Chemscore.DEClash>
1.7902

> <Gold.Chemscore.DEInternal>
1.0579

> <Gold.Chemscore.Rot>
1.5781

> <Gold.Chemscore.Internal.Correction>
   9.000000E+99

> <Gold.Chemscore.Hbonds>
donor molecule, donor type, donor heavy atom, donor atom, acceptor molecule, acceptor atom, score
      P1  H  7989  7998       L1     1  0.88
      P1  H  7997  8008       L1    21  0.26

> <Gold.Chemscore.Hbond.Weighted>
-4.9231

> <Gold.Chemscore.Metal.Weighted>
-0.0000

> <Gold.Chemscore.Lipo.Weighted>
-8.9812

> <Gold.Chemscore.Internal_Hbond.Weighted>
0.0000

> <Gold.Chemscore.DEClash.Weighted>
1.7902

> <Gold.Chemscore.DEInternal.Weighted>
1.0579

> <Gold.Chemscore.Rot.Weighted>
4.0399

> <Gold.Chemscore.Internal.Correction.Weighted>
   9.000000E+99

> <Gold.Protein.RotatedTorsions>
[ 6907 6896 6895 6894 ] final  -84.28 input  -60.11 | X-H torsion
[ 7974 7965 7964 7962 ] final   48.00 input  175.53 | X-H torsion
[ 8008 7997 7996 7995 ] final  -57.82 input   59.86 | X-H torsion
[ 10167 10162 10161 10158 ] final  -89.14 input  -65.29 | X-H torsion
[ 10718 10713 10712 10709 ] final  -11.08 input   66.30 | X-H torsion
[ 10763 10752 10751 10750 ] final   20.60 input  -60.55 | X-H torsion
[ 11005 11000 10999 10996 ] final   37.07 input  -57.11 | X-H torsion

> <Gold.Protein.ActiveResidues>
 VAL166  LYS551  ARG553  GLY616  TRP617  ASP618  TYR619  PRO620  LYS621  CYS622 
 ASP623  PHE694  ASN695  SER759  ASP760  ASP761  ALA762  ILE779  LEU786  VAL792 
 PHE793  MET794  SER795  GLU796  ALA797  LYS798  CYS799  TRP800  GLU811  SER814 

> <Gold.Protein.RotatedAtoms>
  150.6878  134.3382  159.4856 H   0  0  0  0  0  0  0  0  0  0  0  0  # atno 6907 bound_to 6896
  152.1238  134.9183  160.0571 H   0  0  0  0  0  0  0  0  0  0  0  0  # atno 6908 bound_to 6896
  152.0379  133.3930  159.4361 H   0  0  0  0  0  0  0  0  0  0  0  0  # atno 6909 bound_to 6896
  146.0245  139.4690  142.9876 H   0  0  0  0  0  0  0  0  0  0  0  0  # atno 7974 bound_to 7965
  154.4283  140.1098  156.5859 H   0  0  0  0  0  0  0  0  0  0  0  0  # atno 8008 bound_to 7997
  155.6063  140.3494  155.4590 H   0  0  0  0  0  0  0  0  0  0  0  0  # atno 8009 bound_to 7997
  156.0134  140.1224  157.0420 H   0  0  0  0  0  0  0  0  0  0  0  0  # atno 8010 bound_to 7997
  140.3678  143.2809  151.9537 H   0  0  0  0  0  0  0  0  0  0  0  0  # atno 10167 bound_to 10162
  156.6641  130.4990  149.6021 H   0  0  0  0  0  0  0  0  0  0  0  0  # atno 10718 bound_to 10713
  153.1064  135.6686  153.9579 H   0  0  0  0  0  0  0  0  0  0  0  0  # atno 10763 bound_to 10752
  153.9135  135.3022  155.3450 H   0  0  0  0  0  0  0  0  0  0  0  0  # atno 10764 bound_to 10752
  154.7485  135.5046  153.9323 H   0  0  0  0  0  0  0  0  0  0  0  0  # atno 10765 bound_to 10752
  140.2262  134.3582  155.7983 H   0  0  0  0  0  0  0  0  0  0  0  0  # atno 11005 bound_to 11000
  145.7140  141.0097  143.1438 LP  0  0  0  0  0  0  0  0  0  0  0  0  # atno 17320 bound_to 7965
  144.7004  139.8791  143.7446 LP  0  0  0  0  0  0  0  0  0  0  0  0  # atno 17321 bound_to 7965
  139.4807  144.5935  151.7731 LP  0  0  0  0  0  0  0  0  0  0  0  0  # atno 17342 bound_to 10162
  140.5064  144.1092  150.5983 LP  0  0  0  0  0  0  0  0  0  0  0  0  # atno 17343 bound_to 10162
  156.1988  130.6606  151.1144 LP  0  0  0  0  0  0  0  0  0  0  0  0  # atno 17370 bound_to 10713
  157.7099  131.0739  150.6536 LP  0  0  0  0  0  0  0  0  0  0  0  0  # atno 17371 bound_to 10713
  141.2220  133.7220  156.8656 LP  0  0  0  0  0  0  0  0  0  0  0  0  # atno 17394 bound_to 11000
  140.1798  134.9041  157.2935 LP  0  0  0  0  0  0  0  0  0  0  0  0  # atno 17395 bound_to 11000

$$$$
