AV-unprocessed.smi:594|AV-procd|sdf|3015|dock4
  -GOLD-   2262023523D 1   1.00000     0.00000
 Structure written by MMmdl.
 40 41  0  0  0  0  0  0  0  0  3 V2000
  143.3805  137.0781  152.7551 C   0  0  0  0  0  0  0  0  0  0  0  0
  144.1890  135.7788  152.5982 C   0  0  1  0  0  0  0  0  0  0  0  0
  144.4418  135.4450  151.1128 C   0  0  0  0  0  0  0  0  0  0  0  0
  145.2073  134.1219  150.9508 C   0  0  0  0  0  0  0  0  0  0  0  0
  146.5251  134.1383  151.7392 C   0  0  0  0  0  0  0  0  0  0  0  0
  146.2804  134.4641  153.2223 C   0  0  0  0  0  0  0  0  0  0  0  0
  145.5107  135.7910  153.4065 C   0  0  1  0  0  0  0  0  0  0  0  0
  146.3454  136.9342  153.0357 N   0  0  0  0  0  0  0  0  0  0  0  0
  146.4620  138.0755  153.7303 C   0  0  0  0  0  0  0  0  0  0  0  0
  145.8382  138.3040  154.7673 O   0  0  0  0  0  0  0  0  0  0  0  0
  147.4236  139.1206  153.1487 C   0  0  0  0  0  0  0  0  0  0  0  0
  148.4688  139.5328  154.1006 N   0  0  0  0  0  0  0  0  0  0  0  0
  149.7552  138.9876  153.9187 C   0  0  0  0  0  0  0  0  0  0  0  0
  150.7854  139.2974  154.7301 C   0  0  0  0  0  0  0  0  0  0  0  0
  152.1002  138.7292  154.5278 N   0  3  0  0  0  0  0  0  0  0  0  0
  153.0735  139.3208  154.9836 O   0  0  0  0  0  0  0  0  0  0  0  0
  152.2044  137.6739  153.9094 O   0  5  0  0  0  0  0  0  0  0  0  0
  150.5328  140.2242  155.8165 C   0  0  0  0  0  0  0  0  0  0  0  0
  149.3055  140.7512  155.9943 C   0  0  0  0  0  0  0  0  0  0  0  0
  148.1863  140.4140  155.1088 C   0  0  0  0  0  0  0  0  0  0  0  0
  147.0630  140.8940  155.2640 O   0  0  0  0  0  0  0  0  0  0  0  0
  143.8976  137.9321  152.3170 H   0  0  0  0  0  0  0  0  0  0  0  0
  143.1980  137.3018  153.8066 H   0  0  0  0  0  0  0  0  0  0  0  0
  142.4105  136.9952  152.2643 H   0  0  0  0  0  0  0  0  0  0  0  0
  143.5728  134.9767  153.0072 H   0  0  0  0  0  0  0  0  0  0  0  0
  143.4926  135.3817  150.5794 H   0  0  0  0  0  0  0  0  0  0  0  0
  145.0047  136.2508  150.6399 H   0  0  0  0  0  0  0  0  0  0  0  0
  144.5853  133.2955  151.2970 H   0  0  0  0  0  0  0  0  0  0  0  0
  145.4084  133.9359  149.8954 H   0  0  0  0  0  0  0  0  0  0  0  0
  147.0231  133.1727  151.6492 H   0  0  0  0  0  0  0  0  0  0  0  0
  147.2031  134.8749  151.3061 H   0  0  0  0  0  0  0  0  0  0  0  0
  145.7070  133.6536  153.6740 H   0  0  0  0  0  0  0  0  0  0  0  0
  147.2298  134.4935  153.7582 H   0  0  0  0  0  0  0  0  0  0  0  0
  145.2530  135.8913  154.4625 H   0  0  0  0  0  0  0  0  0  0  0  0
  146.8907  136.8387  152.1913 H   0  0  0  0  0  0  0  0  0  0  0  0
  147.8835  138.7304  152.2385 H   0  0  0  0  0  0  0  0  0  0  0  0
  146.8341  139.9790  152.8240 H   0  0  0  0  0  0  0  0  0  0  0  0
  149.8424  138.3136  153.0787 H   0  0  0  0  0  0  0  0  0  0  0  0
  151.3262  140.5030  156.4945 H   0  0  0  0  0  0  0  0  0  0  0  0
  149.1399  141.4402  156.8095 H   0  0  0  0  0  0  0  0  0  0  0  0
  1  2  1  0  0  0  0
  1 22  1  0  0  0  0
  1 23  1  0  0  0  0
  1 24  1  0  0  0  0
  2  7  1  0  0  0  0
  2  3  1  0  0  0  0
  2 25  1  0  0  0  0
  3  4  1  0  0  0  0
  3 26  1  0  0  0  0
  3 27  1  0  0  0  0
  4  5  1  0  0  0  0
  4 28  1  0  0  0  0
  4 29  1  0  0  0  0
  5  6  1  0  0  0  0
  5 30  1  0  0  0  0
  5 31  1  0  0  0  0
  6  7  1  0  0  0  0
  6 32  1  0  0  0  0
  6 33  1  0  0  0  0
  7  8  1  0  0  0  0
  7 34  1  0  0  0  0
  8  9  1  0  0  0  0
  8 35  1  0  0  0  0
  9 10  2  0  0  0  0
  9 11  1  0  0  0  0
 11 12  1  0  0  0  0
 11 36  1  0  0  0  0
 11 37  1  0  0  0  0
 12 20  1  0  0  0  0
 12 13  1  0  0  0  0
 13 14  2  0  0  0  0
 13 38  1  0  0  0  0
 14 15  1  0  0  0  0
 14 18  1  0  0  0  0
 15 16  2  0  0  0  0
 15 17  1  0  0  0  0
 18 19  2  0  0  0  0
 18 39  1  0  0  0  0
 19 20  1  0  0  0  0
 19 40  1  0  0  0  0
 20 21  2  0  0  0  0
M  CHG  1  15   1
M  CHG  1  17  -1
M  END
> <s_m_source_file>
AV-unprocessed.smi

> <i_m_source_file_index>
594

> <i_lp_mmshare_version>
43012

> <i_f3d_flags>
0

> <s_epik_input>
W0NIM11bQ0BASF0xW0NIMl1bQ0gyXVtDSDJdW0NIMl1bQ0BIXTFbTkhdQyg9TylbQ0gyXW4yW2NIXWMoW04rXSg9TylbTy1dKVtjSF1bY0hdYzI9Tw==

> <s_epik_cmdline>
J2VwaWtfcHl0aG9uJywgJy1waCcsICc3LjAnLCAnLXRuJywgJzgnLCAnLW1hJywgJzIwMCcsICctbWV0YWxfYmluZGluZycsICctaW1hZScsICc8aW5maWxlLm1hZT4nLCAnLW9tYWUnLCAnPG91dGZpbGUubWFlPic=

> <r_lp_tautomer_probability>
1

> <r_epik_Ionization_Penalty>
1.91305e-08

> <r_epik_Ionization_Penalty_Charging>
8.35811e-11

> <r_epik_Ionization_Penalty_Neutral>
1.90469e-08

> <r_epik_State_Penalty>
-0

> <r_epik_Charging_Adjusted_Penalty>
8.35811e-11

> <i_epik_Tot_Q>
0

> <i_epik_Tot_abs_Q>
2

> <r_epik_Metal_State_Penalty>
-0

> <b_epik_Metal_Only>
0

> <s_lp_Force_Field>
OPLS_2005

> <r_lp_Energy>
20.421

> <b_lp_Chiralities_Consistent>
1

> <s_lp_Variant>
AV-unprocessed.smi:594-2

> <Gold.Version>
5.8.1

> <Gold.Id.Protein>
6NUR|6NUR_protein|mol2

> <Gold.PLP.Fitness>
41.7240

> <Gold.PLP.PLP>
-31.9594

> <Gold.PLP.part.hbond>
-3.0000

> <Gold.PLP.part.metal>
0.0000

> <Gold.PLP.part.buried>
-0.4725

> <Gold.PLP.part.nonpolar>
-28.2836

> <Gold.PLP.part.repulsive>
0.3260

> <Gold.PLP.ligand.clash>
0.0000

> <Gold.PLP.ligand.torsion>
0.7053

> <Gold.PLP.Chemscore.Hbond>
2.5520

> <Gold.PLP.Chemscore.CHOScore>
1.1685

> <Gold.PLP.Chemscore.Metal>
0.0000

> <Gold.Chemscore.Hbonds>
donor molecule, donor type, donor heavy atom, donor atom, acceptor molecule, acceptor atom, score
      L1  H     8    35       P1  7948  0.45
      P1  H  7997  8008       L1    16  1.00
      P1  H 10752 10765       L1    17  0.65
      L1  C    13    38       P1  7948  1.00
      L1  C    13    38       P1  7957  0.35

> <Gold.PLP.Chemscore.Internal.Correction>
0.0135

> <Gold.Rescore>
     Score         DG    S(hbond)    S(metal)    S(lipo)     H(rot)  DE(clash)    DE(int)     intcor
     15.83     -16.79       2.44        0.00      60.78       1.55       0.06       0.90       ----

> <Gold.Chemscore.Fitness>
15.8265

> <Gold.Chemscore.DG>
-16.7868

> <Gold.Chemscore.ZeroCoef>
-5.4800

> <Gold.Chemscore.Hbond>
2.4446

> <Gold.Chemscore.Metal>
0.0000

> <Gold.Chemscore.Lipo>
60.7779

> <Gold.Chemscore.Internal_Hbond>
0.0000

> <Gold.Chemscore.DEClash>
0.0559

> <Gold.Chemscore.DEInternal>
0.9044

> <Gold.Chemscore.Rot>
1.5505

> <Gold.Chemscore.Internal.Correction>
   9.000000E+99

> <Gold.Chemscore.Hbonds>
donor molecule, donor type, donor heavy atom, donor atom, acceptor molecule, acceptor atom, score
      L1  H     8    35       P1  7948  0.44
      P1  H  7997  8008       L1    16  1.00
      P1  H 10752 10765       L1    17  0.62

> <Gold.Chemscore.Hbond.Weighted>
-8.1649

> <Gold.Chemscore.Metal.Weighted>
-0.0000

> <Gold.Chemscore.Lipo.Weighted>
-7.1110

> <Gold.Chemscore.Internal_Hbond.Weighted>
0.0000

> <Gold.Chemscore.DEClash.Weighted>
0.0559

> <Gold.Chemscore.DEInternal.Weighted>
0.9044

> <Gold.Chemscore.Rot.Weighted>
3.9692

> <Gold.Chemscore.Internal.Correction.Weighted>
   9.000000E+99

> <Gold.Protein.RotatedTorsions>
[ 6907 6896 6895 6894 ] final  120.02 input  -60.11 | X-H torsion
[ 7974 7965 7964 7962 ] final  -85.55 input  175.53 | X-H torsion
[ 8008 7997 7996 7995 ] final  -15.19 input   59.86 | X-H torsion
[ 10167 10162 10161 10158 ] final -177.18 input  -65.29 | X-H torsion
[ 10718 10713 10712 10709 ] final  -87.24 input   66.30 | X-H torsion
[ 10763 10752 10751 10750 ] final  150.62 input  -60.55 | X-H torsion
[ 11005 11000 10999 10996 ] final -172.61 input  -57.11 | X-H torsion

> <Gold.Protein.ActiveResidues>
 VAL166  LYS551  ARG553  GLY616  TRP617  ASP618  TYR619  PRO620  LYS621  CYS622 
 ASP623  PHE694  ASN695  SER759  ASP760  ASP761  ALA762  ILE779  LEU786  VAL792 
 PHE793  MET794  SER795  GLU796  ALA797  LYS798  CYS799  TRP800  GLU811  SER814 

> <Gold.Protein.RotatedAtoms>
  152.4429  133.7482  159.6678 H   0  0  0  0  0  0  0  0  0  0  0  0  # atno 6907 bound_to 6896
  150.8323  133.8060  159.3099 H   0  0  0  0  0  0  0  0  0  0  0  0  # atno 6908 bound_to 6896
  151.5710  135.1065  160.0047 H   0  0  0  0  0  0  0  0  0  0  0  0  # atno 6909 bound_to 6896
  145.4917  140.9552  143.1808 H   0  0  0  0  0  0  0  0  0  0  0  0  # atno 7974 bound_to 7965
  154.5150  140.2203  155.9083 H   0  0  0  0  0  0  0  0  0  0  0  0  # atno 8008 bound_to 7997
  156.1597  140.3144  155.8752 H   0  0  0  0  0  0  0  0  0  0  0  0  # atno 8009 bound_to 7997
  155.3776  140.0470  157.3035 H   0  0  0  0  0  0  0  0  0  0  0  0  # atno 8010 bound_to 7997
  139.5493  144.2153  152.1046 H   0  0  0  0  0  0  0  0  0  0  0  0  # atno 10167 bound_to 10162
  155.9986  130.4793  150.4837 H   0  0  0  0  0  0  0  0  0  0  0  0  # atno 10718 bound_to 10713
  154.0905  135.2853  155.3272 H   0  0  0  0  0  0  0  0  0  0  0  0  # atno 10763 bound_to 10752
  154.6623  135.5330  153.8037 H   0  0  0  0  0  0  0  0  0  0  0  0  # atno 10764 bound_to 10752
  153.0415  135.6537  154.1075 H   0  0  0  0  0  0  0  0  0  0  0  0  # atno 10765 bound_to 10752
  140.4950  134.5948  157.4968 H   0  0  0  0  0  0  0  0  0  0  0  0  # atno 11005 bound_to 11000
  144.7830  139.6486  143.7146 LP  0  0  0  0  0  0  0  0  0  0  0  0  # atno 17320 bound_to 7965
  146.2280  139.5759  142.9574 LP  0  0  0  0  0  0  0  0  0  0  0  0  # atno 17321 bound_to 7965
  140.1645  144.4994  150.6614 LP  0  0  0  0  0  0  0  0  0  0  0  0  # atno 17342 bound_to 10162
  140.6750  143.2301  151.5529 LP  0  0  0  0  0  0  0  0  0  0  0  0  # atno 17343 bound_to 10162
  157.2839  131.0612  151.2179 LP  0  0  0  0  0  0  0  0  0  0  0  0  # atno 17370 bound_to 10713
  157.3216  130.6940  149.6272 LP  0  0  0  0  0  0  0  0  0  0  0  0  # atno 17371 bound_to 10713
  139.9746  134.7236  155.9974 LP  0  0  0  0  0  0  0  0  0  0  0  0  # atno 17394 bound_to 11000
  141.1464  133.6555  156.3882 LP  0  0  0  0  0  0  0  0  0  0  0  0  # atno 17395 bound_to 11000

$$$$
