AV-unprocessed.smi:1813|AV-procd|sdf|7344|dock3
  -GOLD-   22720 9 03D 1   1.00000     0.00000
 Structure written by MMmdl.
 39 40  0  0  0  0  0  0  0  0  3 V2000
  152.1999  139.8377  158.4429 C   0  0  0  0  0  0  0  0  0  0  0  0
  152.6154  139.8203  157.0452 N   0  5  0  0  0  0  0  0  0  0  0  0
  151.7758  140.0875  156.0094 C   0  0  0  0  0  0  0  0  0  0  0  0
  151.8800  139.8423  154.8030 O   0  0  0  0  0  0  0  0  0  0  0  0
  150.4995  140.7828  156.4967 C   0  0  0  0  0  0  0  0  0  0  0  0
  149.3215  140.2423  155.7739 N   0  3  2  0  0  0  0  0  0  0  0  0
  149.1691  140.8286  154.4185 C   0  0  0  0  0  0  0  0  0  0  0  0
  148.0404  140.1337  153.6390 C   0  0  0  0  0  0  0  0  0  0  0  0
  146.7099  140.1978  154.4062 C   0  0  1  0  0  0  0  0  0  0  0  0
  145.6881  139.4444  153.6851 N   0  0  0  0  0  0  0  0  0  0  0  0
  145.6633  138.1109  153.5472 C   0  0  0  0  0  0  0  0  0  0  0  0
  146.5159  137.3629  154.0268 O   0  0  0  0  0  0  0  0  0  0  0  0
  144.6015  137.7171  152.8225 N   0  0  0  0  0  0  0  0  0  0  0  0
  144.2140  136.3953  152.4796 C   0  0  0  0  0  0  0  0  0  0  0  0
  143.4018  135.6310  153.2191 N   0  0  0  0  0  0  0  0  0  0  0  0
  143.1875  134.3789  152.6375 C   0  0  0  0  0  0  0  0  0  0  0  0
  143.8496  134.2054  151.4476 C   0  0  0  0  0  0  0  0  0  0  0  0
  144.7734  135.6166  151.0066 S   0  0  0  0  0  0  0  0  0  0  0  0
  146.9031  139.6322  155.8252 C   0  0  0  0  0  0  0  0  0  0  0  0
  148.0584  140.3372  156.5540 C   0  0  0  0  0  0  0  0  0  0  0  0
  152.9995  139.5116  159.1076 H   0  0  0  0  0  0  0  0  0  0  0  0
  151.3508  139.1815  158.6358 H   0  0  0  0  0  0  0  0  0  0  0  0
  151.9102  140.8351  158.7751 H   0  0  0  0  0  0  0  0  0  0  0  0
  150.3575  140.7050  157.5771 H   0  0  0  0  0  0  0  0  0  0  0  0
  150.6167  141.8453  156.2787 H   0  0  0  0  0  0  0  0  0  0  0  0
  148.9685  141.8979  154.5032 H   0  0  0  0  0  0  0  0  0  0  0  0
  150.1020  140.7228  153.8637 H   0  0  0  0  0  0  0  0  0  0  0  0
  147.9299  140.5981  152.6585 H   0  0  0  0  0  0  0  0  0  0  0  0
  148.3158  139.0933  153.4591 H   0  0  0  0  0  0  0  0  0  0  0  0
  146.4056  141.2440  154.4773 H   0  0  0  0  0  0  0  0  0  0  0  0
  144.9452  139.9787  153.2588 H   0  0  0  0  0  0  0  0  0  0  0  0
  143.9936  138.4471  152.4816 H   0  0  0  0  0  0  0  0  0  0  0  0
  142.5465  133.6695  153.1398 H   0  0  0  0  0  0  0  0  0  0  0  0
  143.8487  133.3369  150.8059 H   0  0  0  0  0  0  0  0  0  0  0  0
  145.9850  139.7421  156.4038 H   0  0  0  0  0  0  0  0  0  0  0  0
  147.1089  138.5618  155.7743 H   0  0  0  0  0  0  0  0  0  0  0  0
  148.1840  139.8825  157.5367 H   0  0  0  0  0  0  0  0  0  0  0  0
  147.8119  141.3866  156.7230 H   0  0  0  0  0  0  0  0  0  0  0  0
  149.5114  139.2592  155.6396 H   0  0  0  0  0  0  0  0  0  0  0  0
  1  2  1  0  0  0  0
  1 21  1  0  0  0  0
  1 22  1  0  0  0  0
  1 23  1  0  0  0  0
  2  3  1  0  0  0  0
  3  4  2  0  0  0  0
  3  5  1  0  0  0  0
  5  6  1  0  0  0  0
  5 24  1  0  0  0  0
  5 25  1  0  0  0  0
  6 20  1  0  0  0  0
  6  7  1  0  0  0  0
  6 39  1  0  0  0  0
  7  8  1  0  0  0  0
  7 26  1  0  0  0  0
  7 27  1  0  0  0  0
  8  9  1  0  0  0  0
  8 28  1  0  0  0  0
  8 29  1  0  0  0  0
  9 10  1  0  0  0  0
  9 19  1  0  0  0  0
  9 30  1  0  0  0  0
 10 11  1  0  0  0  0
 10 31  1  0  0  0  0
 11 12  2  0  0  0  0
 11 13  1  0  0  0  0
 13 14  1  0  0  0  0
 13 32  1  0  0  0  0
 14 18  1  0  0  0  0
 14 15  2  0  0  0  0
 15 16  1  0  0  0  0
 16 17  2  0  0  0  0
 16 33  1  0  0  0  0
 17 18  1  0  0  0  0
 17 34  1  0  0  0  0
 19 20  1  0  0  0  0
 19 35  1  0  0  0  0
 19 36  1  0  0  0  0
 20 37  1  0  0  0  0
 20 38  1  0  0  0  0
M  CHG  1   2  -1
M  CHG  1   6   1
M  END
> <s_m_source_file>
AV-unprocessed.smi

> <i_m_source_file_index>
1813

> <i_lp_mmshare_version>
43012

> <i_f3d_flags>
0

> <s_epik_input>
W0NIM11bTkhdQyg9TylbQ0gyXU4xW0NIMl1bQ0gyXVtDSF0oW0NIMl1bQ0gyXTEpW05IXUMoPU8pW05IXWMybltjSF1bY0hdczI=

> <s_epik_cmdline>
J2VwaWtfcHl0aG9uJywgJy1waCcsICc3LjAnLCAnLXRuJywgJzgnLCAnLW1hJywgJzIwMCcsICctbWV0YWxfYmluZGluZycsICctaW1hZScsICc8aW5maWxlLm1hZT4nLCAnLW9tYWUnLCAnPG91dGZpbGUubWFlPic=

> <r_lp_tautomer_probability>
0.999

> <r_epik_Ionization_Penalty>
6.14232

> <r_epik_Ionization_Penalty_Charging>
6.14218

> <r_epik_Ionization_Penalty_Neutral>
0.000139308

> <r_epik_State_Penalty>
6.98503

> <r_epik_Charging_Adjusted_Penalty>
13.1272

> <i_epik_Tot_Q>
0

> <i_epik_Tot_abs_Q>
2

> <r_epik_Metal_State_Penalty>
2.95036

> <b_epik_Metal_Only>
1

> <s_lp_Force_Field>
OPLS_2005

> <r_lp_Energy>
7.46639

> <b_lp_Chiralities_Consistent>
1

> <s_lp_Variant>
AV-unprocessed.smi:1813-5

> <Gold.Version>
5.8.1

> <Gold.Id.Protein>
6NUR|6NUR_protein|mol2

> <Gold.PLP.Fitness>
42.0042

> <Gold.PLP.PLP>
-27.1116

> <Gold.PLP.part.hbond>
-4.4353

> <Gold.PLP.part.metal>
0.0000

> <Gold.PLP.part.buried>
-3.0529

> <Gold.PLP.part.nonpolar>
-21.1060

> <Gold.PLP.part.repulsive>
0.3094

> <Gold.PLP.ligand.clash>
0.0000

> <Gold.PLP.ligand.torsion>
1.4179

> <Gold.PLP.Chemscore.Hbond>
4.8720

> <Gold.PLP.Chemscore.CHOScore>
0.9989

> <Gold.PLP.Chemscore.Metal>
0.0000

> <Gold.Chemscore.Hbonds>
donor molecule, donor type, donor heavy atom, donor atom, acceptor molecule, acceptor atom, score
      L1  H    10    31       P1 10175  1.00
      L1  H    13    32       P1 10175  0.91
      P1  H  7989  7998       L1     4  0.96
      P1  H  7997  8010       L1     2  2.00
      L1  C    16    33       P1 10957  1.00

> <Gold.PLP.Chemscore.Internal.Correction>
0.1155

> <Gold.Rescore>
     Score         DG    S(hbond)    S(metal)    S(lipo)     H(rot)  DE(clash)    DE(int)     intcor
     15.30     -19.14       3.71        0.00      48.73       1.73       0.19       3.66       ----

> <Gold.Chemscore.Fitness>
15.2987

> <Gold.Chemscore.DG>
-19.1436

> <Gold.Chemscore.ZeroCoef>
-5.4800

> <Gold.Chemscore.Hbond>
3.7107

> <Gold.Chemscore.Metal>
0.0000

> <Gold.Chemscore.Lipo>
48.7316

> <Gold.Chemscore.Internal_Hbond>
0.0000

> <Gold.Chemscore.DEClash>
0.1889

> <Gold.Chemscore.DEInternal>
3.6560

> <Gold.Chemscore.Rot>
1.7312

> <Gold.Chemscore.Internal.Correction>
   9.000000E+99

> <Gold.Chemscore.Hbonds>
donor molecule, donor type, donor heavy atom, donor atom, acceptor molecule, acceptor atom, score
      L1  H    10    31       P1 10175  0.97
      L1  H    13    32       P1 10175  0.85
      P1  H  7989  7998       L1     4  0.92
      P1  H  7997  8010       L1     2  0.87

> <Gold.Chemscore.Hbond.Weighted>
-12.3938

> <Gold.Chemscore.Metal.Weighted>
-0.0000

> <Gold.Chemscore.Lipo.Weighted>
-5.7016

> <Gold.Chemscore.Internal_Hbond.Weighted>
0.0000

> <Gold.Chemscore.DEClash.Weighted>
0.1889

> <Gold.Chemscore.DEInternal.Weighted>
3.6560

> <Gold.Chemscore.Rot.Weighted>
4.4319

> <Gold.Chemscore.Internal.Correction.Weighted>
   9.000000E+99

> <Gold.Protein.RotatedTorsions>
[ 6907 6896 6895 6894 ] final   30.42 input  -60.11 | X-H torsion
[ 7974 7965 7964 7962 ] final -107.70 input  175.53 | X-H torsion
[ 8008 7997 7996 7995 ] final   57.44 input   59.86 | X-H torsion
[ 10167 10162 10161 10158 ] final -135.07 input  -65.29 | X-H torsion
[ 10718 10713 10712 10709 ] final    5.05 input   66.30 | X-H torsion
[ 10763 10752 10751 10750 ] final  178.03 input  -60.55 | X-H torsion
[ 11005 11000 10999 10996 ] final   80.43 input  -57.11 | X-H torsion

> <Gold.Protein.ActiveResidues>
 VAL166  LYS551  ARG553  GLY616  TRP617  ASP618  TYR619  PRO620  LYS621  CYS622 
 ASP623  PHE694  ASN695  SER759  ASP760  ASP761  ALA762  ILE779  LEU786  VAL792 
 PHE793  MET794  SER795  GLU796  ALA797  LYS798  CYS799  TRP800  GLU811  SER814 

> <Gold.Protein.RotatedAtoms>
  152.0458  134.9684  160.0574 H   0  0  0  0  0  0  0  0  0  0  0  0  # atno 6907 bound_to 6896
  152.1104  133.4293  159.4637 H   0  0  0  0  0  0  0  0  0  0  0  0  # atno 6908 bound_to 6896
  150.6843  134.2573  159.4578 H   0  0  0  0  0  0  0  0  0  0  0  0  # atno 6909 bound_to 6896
  145.2021  140.9060  143.3363 H   0  0  0  0  0  0  0  0  0  0  0  0  # atno 7974 bound_to 7965
  155.5338  140.3482  155.4432 H   0  0  0  0  0  0  0  0  0  0  0  0  # atno 8008 bound_to 7997
  156.0700  140.1360  156.9867 H   0  0  0  0  0  0  0  0  0  0  0  0  # atno 8009 bound_to 7997
  154.4523  140.0968  156.6629 H   0  0  0  0  0  0  0  0  0  0  0  0  # atno 8010 bound_to 7997
  139.8816  143.6831  152.2626 H   0  0  0  0  0  0  0  0  0  0  0  0  # atno 10167 bound_to 10162
  156.9017  130.5724  149.5648 H   0  0  0  0  0  0  0  0  0  0  0  0  # atno 10718 bound_to 10713
  154.5023  135.2784  155.1411 H   0  0  0  0  0  0  0  0  0  0  0  0  # atno 10763 bound_to 10752
  154.3039  135.6242  153.5440 H   0  0  0  0  0  0  0  0  0  0  0  0  # atno 10764 bound_to 10752
  152.9904  135.5703  154.5468 H   0  0  0  0  0  0  0  0  0  0  0  0  # atno 10765 bound_to 10752
  139.9135  134.7920  156.1908 H   0  0  0  0  0  0  0  0  0  0  0  0  # atno 11005 bound_to 11000
  144.9938  139.3664  143.6201 LP  0  0  0  0  0  0  0  0  0  0  0  0  # atno 17320 bound_to 7965
  146.3415  139.9132  142.8777 LP  0  0  0  0  0  0  0  0  0  0  0  0  # atno 17321 bound_to 7965
  139.7190  144.7606  151.0986 LP  0  0  0  0  0  0  0  0  0  0  0  0  # atno 17342 bound_to 10162
  140.7743  143.5232  150.9512 LP  0  0  0  0  0  0  0  0  0  0  0  0  # atno 17343 bound_to 10162
  156.0578  130.5637  150.9130 LP  0  0  0  0  0  0  0  0  0  0  0  0  # atno 17370 bound_to 10713
  157.6022  131.0940  150.8941 LP  0  0  0  0  0  0  0  0  0  0  0  0  # atno 17371 bound_to 10713
  141.0585  133.6853  156.1906 LP  0  0  0  0  0  0  0  0  0  0  0  0  # atno 17394 bound_to 11000
  140.6699  134.4879  157.5587 LP  0  0  0  0  0  0  0  0  0  0  0  0  # atno 17395 bound_to 11000

$$$$
