AV-unprocessed.smi:3321|AV-procd|sdf|12769|dock5
  -GOLD-   2272019113D 1   1.00000     0.00000
 Structure written by MMmdl.
 41 42  0  0  0  0  0  0  0  0  2 V2000
  144.8964  135.2988  153.9446 C   0  0  0  0  0  0  0  0  0  0  0  0
  146.2270  135.9097  153.4758 C   0  0  2  0  0  0  0  0  0  0  0  0
  146.4828  135.5136  152.0708 N   0  3  0  0  0  0  0  0  0  0  0  0
  145.5944  136.1463  151.0721 C   0  0  0  0  0  0  0  0  0  0  0  0
  144.3710  135.2641  150.7854 C   0  0  0  0  0  0  0  0  0  0  0  0
  144.7370  133.8691  150.6329 N   0  0  0  0  0  0  0  0  0  0  0  0
  143.9104  132.7682  150.5503 C   0  0  0  0  0  0  0  0  0  0  0  0
  144.7100  131.6695  150.4162 C   0  0  0  0  0  0  0  0  0  0  0  0
  146.0279  132.2057  150.4325 C   0  0  0  0  0  0  0  0  0  0  0  0
  146.0405  133.5226  150.5646 N   0  0  0  0  0  0  0  0  0  0  0  0
  147.3727  135.4678  154.4114 C   0  0  0  0  0  0  0  0  0  0  0  0
  148.0239  136.3457  154.9809 O   0  0  0  0  0  0  0  0  0  0  0  0
  147.6391  134.1489  154.5860 N   0  0  0  0  0  0  0  0  0  0  0  0
  148.7096  133.5804  155.4165 C   0  0  0  0  0  0  0  0  0  0  0  0
  149.8105  133.0388  154.4872 C   0  0  0  0  0  0  0  0  0  0  0  0
  149.2321  131.9989  153.5072 C   0  0  0  0  0  0  0  0  0  0  0  0
  147.9669  132.5191  152.7968 C   0  0  0  0  0  0  0  0  0  0  0  0
  146.9627  133.1013  153.8093 C   0  0  0  0  0  0  0  0  0  0  0  0
  144.6645  135.5784  154.9731 H   0  0  0  0  0  0  0  0  0  0  0  0
  144.9183  134.2090  153.8966 H   0  0  0  0  0  0  0  0  0  0  0  0
  144.0696  135.6402  153.3212 H   0  0  0  0  0  0  0  0  0  0  0  0
  146.1346  136.9951  153.4716 H   0  0  0  0  0  0  0  0  0  0  0  0
  147.4426  135.7364  151.8473 H   0  0  0  0  0  0  0  0  0  0  0  0
  145.2710  137.1194  151.4442 H   0  0  0  0  0  0  0  0  0  0  0  0
  146.1486  136.3234  150.1495 H   0  0  0  0  0  0  0  0  0  0  0  0
  143.6427  135.3442  151.5939 H   0  0  0  0  0  0  0  0  0  0  0  0
  143.8711  135.5926  149.8730 H   0  0  0  0  0  0  0  0  0  0  0  0
  142.8346  132.8560  150.5918 H   0  0  0  0  0  0  0  0  0  0  0  0
  144.4014  130.6389  150.3217 H   0  0  0  0  0  0  0  0  0  0  0  0
  146.9686  131.6808  150.3532 H   0  0  0  0  0  0  0  0  0  0  0  0
  149.1274  134.2753  156.1417 H   0  0  0  0  0  0  0  0  0  0  0  0
  148.3022  132.7650  156.0161 H   0  0  0  0  0  0  0  0  0  0  0  0
  150.2565  133.8628  153.9284 H   0  0  0  0  0  0  0  0  0  0  0  0
  150.6131  132.5912  155.0741 H   0  0  0  0  0  0  0  0  0  0  0  0
  149.9858  131.7112  152.7738 H   0  0  0  0  0  0  0  0  0  0  0  0
  148.9799  131.0933  154.0603 H   0  0  0  0  0  0  0  0  0  0  0  0
  148.2440  133.2900  152.0764 H   0  0  0  0  0  0  0  0  0  0  0  0
  147.5017  131.7151  152.2259 H   0  0  0  0  0  0  0  0  0  0  0  0
  146.6092  132.3182  154.4818 H   0  0  0  0  0  0  0  0  0  0  0  0
  146.0758  133.4617  153.2867 H   0  0  0  0  0  0  0  0  0  0  0  0
  146.3581  134.5139  152.0006 H   0  0  0  0  0  0  0  0  0  0  0  0
  1  2  1  0  0  0  0
  1 19  1  0  0  0  0
  1 20  1  0  0  0  0
  1 21  1  0  0  0  0
  2  3  1  0  0  0  0
  2 11  1  0  0  0  0
  2 22  1  0  0  0  0
  3  4  1  0  0  0  0
  3 23  1  0  0  0  0
  3 41  1  0  0  0  0
  4  5  1  0  0  0  0
  4 24  1  0  0  0  0
  4 25  1  0  0  0  0
  5  6  1  0  0  0  0
  5 26  1  0  0  0  0
  5 27  1  0  0  0  0
  6 10  1  0  0  0  0
  6  7  1  0  0  0  0
  7  8  2  0  0  0  0
  7 28  1  0  0  0  0
  8  9  1  0  0  0  0
  8 29  1  0  0  0  0
  9 10  2  0  0  0  0
  9 30  1  0  0  0  0
 11 12  2  0  0  0  0
 11 13  1  0  0  0  0
 13 18  1  0  0  0  0
 13 14  1  0  0  0  0
 14 15  1  0  0  0  0
 14 31  1  0  0  0  0
 14 32  1  0  0  0  0
 15 16  1  0  0  0  0
 15 33  1  0  0  0  0
 15 34  1  0  0  0  0
 16 17  1  0  0  0  0
 16 35  1  0  0  0  0
 16 36  1  0  0  0  0
 17 18  1  0  0  0  0
 17 37  1  0  0  0  0
 17 38  1  0  0  0  0
 18 39  1  0  0  0  0
 18 40  1  0  0  0  0
M  CHG  1   3   1
M  END
> <s_m_source_file>
AV-unprocessed.smi

> <i_m_source_file_index>
3321

> <i_lp_mmshare_version>
43012

> <i_f3d_flags>
0

> <s_epik_input>
W0NIMl0xW0NIMl1bQ0gyXVtDSDJdW0NIMl1OMUMoPU8pW0NASF0oW0NIM10pW05IXVtDSDJdW0NIMl1uMltjSF1bY0hdW2NIXW4y

> <s_epik_cmdline>
J2VwaWtfcHl0aG9uJywgJy1waCcsICc3LjAnLCAnLXRuJywgJzgnLCAnLW1hJywgJzIwMCcsICctbWV0YWxfYmluZGluZycsICctaW1hZScsICc8aW5maWxlLm1hZT4nLCAnLW9tYWUnLCAnPG91dGZpbGUubWFlPic=

> <r_lp_tautomer_probability>
1

> <r_epik_Ionization_Penalty>
0.202061

> <r_epik_Ionization_Penalty_Charging>
0.202058

> <r_epik_Ionization_Penalty_Neutral>
2.46932e-06

> <r_epik_State_Penalty>
0.191938

> <r_epik_Charging_Adjusted_Penalty>
0.393996

> <i_epik_Tot_Q>
1

> <i_epik_Tot_abs_Q>
1

> <r_epik_Metal_State_Penalty>
0.192188

> <b_epik_Metal_Only>
0

> <s_lp_Force_Field>
OPLS_2005

> <r_lp_Energy>
26.3396

> <b_lp_Chiralities_Consistent>
1

> <s_lp_Variant>
AV-unprocessed.smi:3321-1

> <Gold.Version>
5.8.1

> <Gold.Id.Protein>
6NUR|6NUR_protein|mol2

> <Gold.PLP.Fitness>
40.8034

> <Gold.PLP.PLP>
-29.6331

> <Gold.PLP.part.hbond>
-1.0000

> <Gold.PLP.part.metal>
0.0000

> <Gold.PLP.part.buried>
-2.8005

> <Gold.PLP.part.nonpolar>
-26.0756

> <Gold.PLP.part.repulsive>
0.3288

> <Gold.PLP.ligand.clash>
0.0000

> <Gold.PLP.ligand.torsion>
0.4573

> <Gold.PLP.Chemscore.Hbond>
2.0000

> <Gold.PLP.Chemscore.CHOScore>
2.0000

> <Gold.PLP.Chemscore.Metal>
0.0000

> <Gold.Chemscore.Hbonds>
donor molecule, donor type, donor heavy atom, donor atom, acceptor molecule, acceptor atom, score
      L1  H     3    23       P1  7948  2.00
      L1  C     7    28       P1 10186  0.78
      L1  C     9    30       P1 10747  1.00

> <Gold.PLP.Chemscore.Internal.Correction>
0.0850

> <Gold.Rescore>
     Score         DG    S(hbond)    S(metal)    S(lipo)     H(rot)  DE(clash)    DE(int)     intcor
      8.87     -12.36       1.00        0.00      69.48       1.79       0.00       3.49       ----

> <Gold.Chemscore.Fitness>
8.8653

> <Gold.Chemscore.DG>
-12.3568

> <Gold.Chemscore.ZeroCoef>
-5.4800

> <Gold.Chemscore.Hbond>
0.9992

> <Gold.Chemscore.Metal>
0.0000

> <Gold.Chemscore.Lipo>
69.4770

> <Gold.Chemscore.Internal_Hbond>
0.0000

> <Gold.Chemscore.DEClash>
0.0040

> <Gold.Chemscore.DEInternal>
3.4875

> <Gold.Chemscore.Rot>
1.7928

> <Gold.Chemscore.Internal.Correction>
   9.000000E+99

> <Gold.Chemscore.Hbonds>
donor molecule, donor type, donor heavy atom, donor atom, acceptor molecule, acceptor atom, score
      L1  H     3    23       P1  7948  0.96

> <Gold.Chemscore.Hbond.Weighted>
-3.3374

> <Gold.Chemscore.Metal.Weighted>
-0.0000

> <Gold.Chemscore.Lipo.Weighted>
-8.1288

> <Gold.Chemscore.Internal_Hbond.Weighted>
0.0000

> <Gold.Chemscore.DEClash.Weighted>
0.0040

> <Gold.Chemscore.DEInternal.Weighted>
3.4875

> <Gold.Chemscore.Rot.Weighted>
4.5895

> <Gold.Chemscore.Internal.Correction.Weighted>
   9.000000E+99

> <Gold.Protein.RotatedTorsions>
[ 6907 6896 6895 6894 ] final -109.76 input  -60.11 | X-H torsion
[ 7974 7965 7964 7962 ] final   39.29 input  175.53 | X-H torsion
[ 8008 7997 7996 7995 ] final  126.07 input   59.86 | X-H torsion
[ 10167 10162 10161 10158 ] final   -9.59 input  -65.29 | X-H torsion
[ 10718 10713 10712 10709 ] final  127.26 input   66.30 | X-H torsion
[ 10763 10752 10751 10750 ] final  126.92 input  -60.55 | X-H torsion
[ 11005 11000 10999 10996 ] final -116.79 input  -57.11 | X-H torsion

> <Gold.Protein.ActiveResidues>
 VAL166  LYS551  ARG553  GLY616  TRP617  ASP618  TYR619  PRO620  LYS621  CYS622 
 ASP623  PHE694  ASN695  SER759  ASP760  ASP761  ALA762  ILE779  LEU786  VAL792 
 PHE793  MET794  SER795  GLU796  ALA797  LYS798  CYS799  TRP800  GLU811  SER814 

> <Gold.Protein.RotatedAtoms>
  150.7582  133.9482  159.3477 H   0  0  0  0  0  0  0  0  0  0  0  0  # atno 6907 bound_to 6896
  151.7397  135.0855  160.0323 H   0  0  0  0  0  0  0  0  0  0  0  0  # atno 6908 bound_to 6896
  152.3536  133.6173  159.5999 H   0  0  0  0  0  0  0  0  0  0  0  0  # atno 6909 bound_to 6896
  146.0995  139.5669  142.9423 H   0  0  0  0  0  0  0  0  0  0  0  0  # atno 7974 bound_to 7965
  156.2853  140.2701  156.2051 H   0  0  0  0  0  0  0  0  0  0  0  0  # atno 8008 bound_to 7997
  155.0321  140.0386  157.2496 H   0  0  0  0  0  0  0  0  0  0  0  0  # atno 8009 bound_to 7997
  154.7345  140.2713  155.6432 H   0  0  0  0  0  0  0  0  0  0  0  0  # atno 8010 bound_to 7997
  140.7091  143.5841  150.8961 H   0  0  0  0  0  0  0  0  0  0  0  0  # atno 10167 bound_to 10162
  157.5348  131.1098  150.8952 H   0  0  0  0  0  0  0  0  0  0  0  0  # atno 10718 bound_to 10713
  153.7011  135.3283  155.3225 H   0  0  0  0  0  0  0  0  0  0  0  0  # atno 10763 bound_to 10752
  154.8412  135.4454  154.1410 H   0  0  0  0  0  0  0  0  0  0  0  0  # atno 10764 bound_to 10752
  153.2478  135.6978  153.7791 H   0  0  0  0  0  0  0  0  0  0  0  0  # atno 10765 bound_to 10752
  141.0399  133.9852  157.3012 H   0  0  0  0  0  0  0  0  0  0  0  0  # atno 11005 bound_to 11000
  145.5881  141.0373  143.2085 LP  0  0  0  0  0  0  0  0  0  0  0  0  # atno 17320 bound_to 7965
  144.7422  139.7418  143.7306 LP  0  0  0  0  0  0  0  0  0  0  0  0  # atno 17321 bound_to 7965
  139.9567  143.6210  152.3014 LP  0  0  0  0  0  0  0  0  0  0  0  0  # atno 17342 bound_to 10162
  139.6748  144.7659  151.1716 LP  0  0  0  0  0  0  0  0  0  0  0  0  # atno 17343 bound_to 10162
  156.9522  130.5424  149.5283 LP  0  0  0  0  0  0  0  0  0  0  0  0  # atno 17370 bound_to 10713
  156.0450  130.5528  150.8860 LP  0  0  0  0  0  0  0  0  0  0  0  0  # atno 17371 bound_to 10713
  139.9268  135.0201  156.8261 LP  0  0  0  0  0  0  0  0  0  0  0  0  # atno 17394 bound_to 11000
  140.6254  133.9955  155.7637 LP  0  0  0  0  0  0  0  0  0  0  0  0  # atno 17395 bound_to 11000

$$$$
