AV-unprocessed.smi:3132|AV-procd|sdf|11929|dock4
  -GOLD-   2272017313D 1   1.00000     0.00000
 Structure written by MMmdl.
 34 35  0  0  0  0  0  0  0  0  2 V2000
  149.9479  139.6494  157.9198 C   0  0  0  0  0  0  0  0  0  0  0  0
  150.1344  140.9798  157.1782 C   0  0  2  0  0  0  0  0  0  0  0  0
  150.7080  140.7571  155.7618 C   0  0  0  0  0  0  0  0  0  0  0  0
  149.7464  140.1349  154.8454 N   0  0  0  0  0  0  0  0  0  0  0  0
  148.4937  140.5889  154.5191 C   0  0  0  0  0  0  0  0  0  0  0  0
  147.9613  139.6740  153.6478 C   0  0  0  0  0  0  0  0  0  0  0  0
  148.9131  138.7051  153.4739 N   0  3  0  0  0  0  0  0  0  0  0  0
  149.9989  138.9885  154.2008 C   0  0  0  0  0  0  0  0  0  0  0  0
  151.0131  141.8435  157.9658 N   0  0  0  0  0  0  0  0  0  0  0  0
  152.2845  141.5716  158.3004 C   0  0  0  0  0  0  0  0  0  0  0  0
  152.8722  140.5477  157.9496 O   0  0  0  0  0  0  0  0  0  0  0  0
  152.9790  142.5930  159.2066 C   0  0  2  0  0  0  0  0  0  0  0  0
  153.5592  141.9933  160.5007 C   0  0  0  0  0  0  0  0  0  0  0  0
  152.6305  142.5097  161.5817 C   0  0  0  0  0  0  0  0  0  0  0  0
  152.1857  143.8417  160.9957 C   0  0  0  0  0  0  0  0  0  0  0  0
  151.9994  143.5446  159.6204 O   0  0  0  0  0  0  0  0  0  0  0  0
  149.2763  138.9867  157.3731 H   0  0  0  0  0  0  0  0  0  0  0  0
  149.5180  139.8074  158.9097 H   0  0  0  0  0  0  0  0  0  0  0  0
  150.8973  139.1280  158.0480 H   0  0  0  0  0  0  0  0  0  0  0  0
  149.1479  141.4386  157.0908 H   0  0  0  0  0  0  0  0  0  0  0  0
  151.0330  141.7011  155.3221 H   0  0  0  0  0  0  0  0  0  0  0  0
  151.5854  140.1097  155.8033 H   0  0  0  0  0  0  0  0  0  0  0  0
  148.0807  141.4993  154.9291 H   0  0  0  0  0  0  0  0  0  0  0  0
  147.0016  139.6398  153.1532 H   0  0  0  0  0  0  0  0  0  0  0  0
  150.8978  138.4012  154.2631 H   0  0  0  0  0  0  0  0  0  0  0  0
  150.6147  142.7079  158.3037 H   0  0  0  0  0  0  0  0  0  0  0  0
  153.7669  143.1089  158.6552 H   0  0  0  0  0  0  0  0  0  0  0  0
  153.6248  140.9042  160.5008 H   0  0  0  0  0  0  0  0  0  0  0  0
  154.5669  142.3786  160.6620 H   0  0  0  0  0  0  0  0  0  0  0  0
  151.7736  141.8437  161.6914 H   0  0  0  0  0  0  0  0  0  0  0  0
  153.1157  142.6097  162.5531 H   0  0  0  0  0  0  0  0  0  0  0  0
  151.2717  144.2208  161.4529 H   0  0  0  0  0  0  0  0  0  0  0  0
  152.9673  144.5952  161.1042 H   0  0  0  0  0  0  0  0  0  0  0  0
  148.8107  137.8888  152.8841 H   0  0  0  0  0  0  0  0  0  0  0  0
  1  2  1  0  0  0  0
  1 17  1  0  0  0  0
  1 18  1  0  0  0  0
  1 19  1  0  0  0  0
  2  3  1  0  0  0  0
  2  9  1  0  0  0  0
  2 20  1  0  0  0  0
  3  4  1  0  0  0  0
  3 21  1  0  0  0  0
  3 22  1  0  0  0  0
  4  8  1  0  0  0  0
  4  5  1  0  0  0  0
  5  6  2  0  0  0  0
  5 23  1  0  0  0  0
  6  7  1  0  0  0  0
  6 24  1  0  0  0  0
  7  8  2  0  0  0  0
  7 34  1  0  0  0  0
  8 25  1  0  0  0  0
  9 10  1  0  0  0  0
  9 26  1  0  0  0  0
 10 11  2  0  0  0  0
 10 12  1  0  0  0  0
 12 16  1  0  0  0  0
 12 13  1  0  0  0  0
 12 27  1  0  0  0  0
 13 14  1  0  0  0  0
 13 28  1  0  0  0  0
 13 29  1  0  0  0  0
 14 15  1  0  0  0  0
 14 30  1  0  0  0  0
 14 31  1  0  0  0  0
 15 16  1  0  0  0  0
 15 32  1  0  0  0  0
 15 33  1  0  0  0  0
M  CHG  1   7   1
M  END
> <s_m_source_file>
AV-unprocessed.smi

> <i_m_source_file_index>
3132

> <i_lp_mmshare_version>
43012

> <i_f3d_flags>
0

> <s_epik_input>
W2NIXTFuW2NIXVtjSF1uMVtDSDJdW0NAQEhdKFtDSDNdKVtOSF1DKD1PKVtDQEBIXTJbQ0gyXVtDSDJdW0NIMl1PMg==

> <s_epik_cmdline>
J2VwaWtfcHl0aG9uJywgJy1waCcsICc3LjAnLCAnLXRuJywgJzgnLCAnLW1hJywgJzIwMCcsICctbWV0YWxfYmluZGluZycsICctaW1hZScsICc8aW5maWxlLm1hZT4nLCAnLW9tYWUnLCAnPG91dGZpbGUubWFlPic=

> <r_lp_tautomer_probability>
1

> <r_epik_Ionization_Penalty>
0.250802

> <r_epik_Ionization_Penalty_Charging>
0

> <r_epik_Ionization_Penalty_Neutral>
0.250802

> <r_epik_State_Penalty>
0.242139

> <r_epik_Charging_Adjusted_Penalty>
0.242139

> <i_epik_Tot_Q>
1

> <i_epik_Tot_abs_Q>
1

> <r_epik_Metal_State_Penalty>
0.533361

> <b_epik_Metal_Only>
0

> <s_lp_Force_Field>
OPLS_2005

> <r_lp_Energy>
20.2127

> <b_lp_Chiralities_Consistent>
1

> <s_lp_Variant>
AV-unprocessed.smi:3132-1

> <Gold.Version>
5.8.1

> <Gold.Id.Protein>
6NUR|6NUR_protein|mol2

> <Gold.PLP.Fitness>
43.1788

> <Gold.PLP.PLP>
-35.1921

> <Gold.PLP.part.hbond>
-3.0000

> <Gold.PLP.part.metal>
0.0000

> <Gold.PLP.part.buried>
-1.7694

> <Gold.PLP.part.nonpolar>
-29.5277

> <Gold.PLP.part.repulsive>
0.1158

> <Gold.PLP.ligand.clash>
0.0000

> <Gold.PLP.ligand.torsion>
0.1748

> <Gold.PLP.Chemscore.Hbond>
2.7706

> <Gold.PLP.Chemscore.CHOScore>
0.0000

> <Gold.PLP.Chemscore.Metal>
0.0000

> <Gold.Chemscore.Hbonds>
donor molecule, donor type, donor heavy atom, donor atom, acceptor molecule, acceptor atom, score
      L1  H     7    34       P1  7948  2.00
      P1  H  7997  8009       L1    11  0.80

> <Gold.PLP.Chemscore.Internal.Correction>
0.0244

> <Gold.Rescore>
     Score         DG    S(hbond)    S(metal)    S(lipo)     H(rot)  DE(clash)    DE(int)     intcor
     14.03     -15.11       1.83        0.00      72.31       1.93       0.05       1.03       ----

> <Gold.Chemscore.Fitness>
14.0306

> <Gold.Chemscore.DG>
-15.1065

> <Gold.Chemscore.ZeroCoef>
-5.4800

> <Gold.Chemscore.Hbond>
1.8292

> <Gold.Chemscore.Metal>
0.0000

> <Gold.Chemscore.Lipo>
72.3080

> <Gold.Chemscore.Internal_Hbond>
0.0000

> <Gold.Chemscore.DEClash>
0.0489

> <Gold.Chemscore.DEInternal>
1.0269

> <Gold.Chemscore.Rot>
1.9308

> <Gold.Chemscore.Internal.Correction>
   9.000000E+99

> <Gold.Chemscore.Hbonds>
donor molecule, donor type, donor heavy atom, donor atom, acceptor molecule, acceptor atom, score
      L1  H     7    34       P1  7948  1.00
      P1  H  7997  8009       L1    11  0.77

> <Gold.Chemscore.Hbond.Weighted>
-6.1094

> <Gold.Chemscore.Metal.Weighted>
-0.0000

> <Gold.Chemscore.Lipo.Weighted>
-8.4600

> <Gold.Chemscore.Internal_Hbond.Weighted>
0.0000

> <Gold.Chemscore.DEClash.Weighted>
0.0489

> <Gold.Chemscore.DEInternal.Weighted>
1.0269

> <Gold.Chemscore.Rot.Weighted>
4.9429

> <Gold.Chemscore.Internal.Correction.Weighted>
   9.000000E+99

> <Gold.Protein.RotatedTorsions>
[ 6907 6896 6895 6894 ] final   67.68 input  -60.11 | X-H torsion
[ 7974 7965 7964 7962 ] final  -13.15 input  175.53 | X-H torsion
[ 8008 7997 7996 7995 ] final  164.25 input   59.86 | X-H torsion
[ 10167 10162 10161 10158 ] final   34.54 input  -65.29 | X-H torsion
[ 10718 10713 10712 10709 ] final  -29.70 input   66.30 | X-H torsion
[ 10763 10752 10751 10750 ] final  -62.79 input  -60.55 | X-H torsion
[ 11005 11000 10999 10996 ] final   87.49 input  -57.11 | X-H torsion

> <Gold.Protein.ActiveResidues>
 VAL166  LYS551  ARG553  GLY616  TRP617  ASP618  TYR619  PRO620  LYS621  CYS622 
 ASP623  PHE694  ASN695  SER759  ASP760  ASP761  ALA762  ILE779  LEU786  VAL792 
 PHE793  MET794  SER795  GLU796  ALA797  LYS798  CYS799  TRP800  GLU811  SER814 

> <Gold.Protein.RotatedAtoms>
  152.4568  134.5273  159.9800 H   0  0  0  0  0  0  0  0  0  0  0  0  # atno 6907 bound_to 6896
  151.5332  133.3439  159.2930 H   0  0  0  0  0  0  0  0  0  0  0  0  # atno 6908 bound_to 6896
  150.8516  134.7872  159.7075 H   0  0  0  0  0  0  0  0  0  0  0  0  # atno 6909 bound_to 6896
  146.2125  140.3161  142.8386 H   0  0  0  0  0  0  0  0  0  0  0  0  # atno 7974 bound_to 7965
  156.1894  140.1702  156.8121 H   0  0  0  0  0  0  0  0  0  0  0  0  # atno 8008 bound_to 7997
  154.5453  140.0728  156.8611 H   0  0  0  0  0  0  0  0  0  0  0  0  # atno 8009 bound_to 7997
  155.3134  140.3369  155.4245 H   0  0  0  0  0  0  0  0  0  0  0  0  # atno 8010 bound_to 7997
  140.4305  144.1331  150.6159 H   0  0  0  0  0  0  0  0  0  0  0  0  # atno 10167 bound_to 10162
  156.4091  130.4404  149.7265 H   0  0  0  0  0  0  0  0  0  0  0  0  # atno 10718 bound_to 10713
  154.3053  135.6226  153.5442 H   0  0  0  0  0  0  0  0  0  0  0  0  # atno 10763 bound_to 10752
  152.9836  135.5688  154.5238 H   0  0  0  0  0  0  0  0  0  0  0  0  # atno 10764 bound_to 10752
  154.4877  135.2866  155.1497 H   0  0  0  0  0  0  0  0  0  0  0  0  # atno 10765 bound_to 10752
  139.8918  134.8426  156.2868 H   0  0  0  0  0  0  0  0  0  0  0  0  # atno 11005 bound_to 11000
  144.8954  140.7576  143.5900 LP  0  0  0  0  0  0  0  0  0  0  0  0  # atno 17320 bound_to 7965
  145.3085  139.1826  143.4652 LP  0  0  0  0  0  0  0  0  0  0  0  0  # atno 17321 bound_to 7965
  140.4432  143.2517  151.9445 LP  0  0  0  0  0  0  0  0  0  0  0  0  # atno 17342 bound_to 10162
  139.4785  144.5634  151.8203 LP  0  0  0  0  0  0  0  0  0  0  0  0  # atno 17343 bound_to 10162
  156.4251  130.7788  151.2806 LP  0  0  0  0  0  0  0  0  0  0  0  0  # atno 17370 bound_to 10713
  157.7506  131.0171  150.3571 LP  0  0  0  0  0  0  0  0  0  0  0  0  # atno 17371 bound_to 10713
  141.0003  133.7155  156.0949 LP  0  0  0  0  0  0  0  0  0  0  0  0  # atno 17394 bound_to 11000
  140.7507  134.4048  157.5541 LP  0  0  0  0  0  0  0  0  0  0  0  0  # atno 17395 bound_to 11000

$$$$
