AV-unprocessed.smi:3014|AV-procd|sdf|11468|dock5
  -GOLD-   2272016403D 1   1.00000     0.00000
 Structure written by MMmdl.
 45 46  0  0  0  0  0  0  0  0  1 V2000
  150.9915  144.3678  159.0909 C   0  0  0  0  0  0  0  0  0  0  0  0
  151.5967  143.1705  159.8376 C   0  0  2  0  0  0  0  0  0  0  0  0
  152.6594  143.6227  160.8581 C   0  0  0  0  0  0  0  0  0  0  0  0
  153.2739  142.4254  161.6003 C   0  0  0  0  0  0  0  0  0  0  0  0
  153.8609  141.4044  160.6144 C   0  0  0  0  0  0  0  0  0  0  0  0
  152.8007  140.9324  159.6057 C   0  0  2  0  0  0  0  0  0  0  0  0
  153.4471  140.0506  158.6901 O   0  0  0  0  0  0  0  0  0  0  0  0
  152.9966  138.6979  158.6879 C   0  0  0  0  0  0  0  0  0  0  0  0
  153.6718  137.8930  159.8040 C   0  0  0  0  0  0  0  0  0  0  0  0
  153.2847  136.7500  160.0476 O   0  0  0  0  0  0  0  0  0  0  0  0
  154.6733  138.5183  160.4502 N   0  0  0  0  0  0  0  0  0  0  0  0
  155.4778  138.0210  161.5086 C   0  0  0  0  0  0  0  0  0  0  0  0
  156.1206  138.9944  162.3032 C   0  0  0  0  0  0  0  0  0  0  0  0
  156.9242  138.5294  163.3620 C   0  0  0  0  0  0  0  0  0  0  0  0
  157.0783  137.2133  163.6120 N   0  0  0  0  0  0  0  0  0  0  0  0
  156.4355  136.3556  162.8100 C   0  0  0  0  0  0  0  0  0  0  0  0
  156.5923  134.9902  163.0648 N   0  0  0  0  0  0  0  0  0  0  0  0
  156.9168  134.5053  164.4036 C   0  0  0  0  0  0  0  0  0  0  0  0
  156.4441  134.0004  162.0018 C   0  0  0  0  0  0  0  0  0  0  0  0
  155.6519  136.7046  161.7814 N   0  0  0  0  0  0  0  0  0  0  0  0
  152.1908  142.1373  158.8597 C   0  0  0  0  0  0  0  0  0  0  0  0
  151.7508  144.9058  158.5221 H   0  0  0  0  0  0  0  0  0  0  0  0
  150.5344  145.0731  159.7853 H   0  0  0  0  0  0  0  0  0  0  0  0
  150.2185  144.0458  158.3926 H   0  0  0  0  0  0  0  0  0  0  0  0
  150.7890  142.6845  160.3873 H   0  0  0  0  0  0  0  0  0  0  0  0
  153.4487  144.1769  160.3483 H   0  0  0  0  0  0  0  0  0  0  0  0
  152.2160  144.3106  161.5790 H   0  0  0  0  0  0  0  0  0  0  0  0
  154.0500  142.7700  162.2843 H   0  0  0  0  0  0  0  0  0  0  0  0
  152.5116  141.9439  162.2140 H   0  0  0  0  0  0  0  0  0  0  0  0
  154.7020  141.8526  160.0838 H   0  0  0  0  0  0  0  0  0  0  0  0
  154.2598  140.5490  161.1607 H   0  0  0  0  0  0  0  0  0  0  0  0
  152.0166  140.4145  160.1599 H   0  0  0  0  0  0  0  0  0  0  0  0
  151.9099  138.6421  158.7593 H   0  0  0  0  0  0  0  0  0  0  0  0
  153.2719  138.2489  157.7335 H   0  0  0  0  0  0  0  0  0  0  0  0
  154.8835  139.4579  160.1472 H   0  0  0  0  0  0  0  0  0  0  0  0
  156.0055  140.0518  162.1142 H   0  0  0  0  0  0  0  0  0  0  0  0
  157.4457  139.2174  164.0109 H   0  0  0  0  0  0  0  0  0  0  0  0
  156.1337  134.7854  165.1090 H   0  0  0  0  0  0  0  0  0  0  0  0
  157.8581  134.9360  164.7469 H   0  0  0  0  0  0  0  0  0  0  0  0
  157.0182  133.4206  164.4318 H   0  0  0  0  0  0  0  0  0  0  0  0
  157.1801  134.1743  161.2164 H   0  0  0  0  0  0  0  0  0  0  0  0
  155.4487  134.0613  161.5607 H   0  0  0  0  0  0  0  0  0  0  0  0
  156.5824  132.9833  162.3688 H   0  0  0  0  0  0  0  0  0  0  0  0
  151.4129  141.8019  158.1738 H   0  0  0  0  0  0  0  0  0  0  0  0
  152.9581  142.6116  158.2460 H   0  0  0  0  0  0  0  0  0  0  0  0
  1  2  1  0  0  0  0
  1 22  1  0  0  0  0
  1 23  1  0  0  0  0
  1 24  1  0  0  0  0
  2 21  1  0  0  0  0
  2  3  1  0  0  0  0
  2 25  1  0  0  0  0
  3  4  1  0  0  0  0
  3 26  1  0  0  0  0
  3 27  1  0  0  0  0
  4  5  1  0  0  0  0
  4 28  1  0  0  0  0
  4 29  1  0  0  0  0
  5  6  1  0  0  0  0
  5 30  1  0  0  0  0
  5 31  1  0  0  0  0
  6  7  1  0  0  0  0
  6 21  1  0  0  0  0
  6 32  1  0  0  0  0
  7  8  1  0  0  0  0
  8  9  1  0  0  0  0
  8 33  1  0  0  0  0
  8 34  1  0  0  0  0
  9 10  2  0  0  0  0
  9 11  1  0  0  0  0
 11 12  1  0  0  0  0
 11 35  1  0  0  0  0
 12 20  1  0  0  0  0
 12 13  2  0  0  0  0
 13 14  1  0  0  0  0
 13 36  1  0  0  0  0
 14 15  2  0  0  0  0
 14 37  1  0  0  0  0
 15 16  1  0  0  0  0
 16 17  1  0  0  0  0
 16 20  2  0  0  0  0
 17 18  1  0  0  0  0
 17 19  1  0  0  0  0
 18 38  1  0  0  0  0
 18 39  1  0  0  0  0
 18 40  1  0  0  0  0
 19 41  1  0  0  0  0
 19 42  1  0  0  0  0
 19 43  1  0  0  0  0
 21 44  1  0  0  0  0
 21 45  1  0  0  0  0
M  END
> <s_m_source_file>
AV-unprocessed.smi

> <i_m_source_file_index>
3014

> <i_lp_mmshare_version>
43012

> <i_f3d_flags>
0

> <s_epik_input>
W0NIM11bQ0BASF0xW0NIMl1bQ0gyXVtDSDJdW0NASF0oW0NIMl0xKU9bQ0gyXUMoPU8pW05IXWMyW2NIXVtjSF1uYyhuMilOKFtDSDNdKVtDSDNd

> <s_epik_cmdline>
J2VwaWtfcHl0aG9uJywgJy1waCcsICc3LjAnLCAnLXRuJywgJzgnLCAnLW1hJywgJzIwMCcsICctbWV0YWxfYmluZGluZycsICctaW1hZScsICc8aW5maWxlLm1hZT4nLCAnLW9tYWUnLCAnPG91dGZpbGUubWFlPic=

> <r_lp_tautomer_probability>
1

> <r_epik_Ionization_Penalty>
0.000308195

> <r_epik_Ionization_Penalty_Charging>
0

> <r_epik_Ionization_Penalty_Neutral>
0.000308195

> <r_epik_State_Penalty>
-0

> <r_epik_Charging_Adjusted_Penalty>
0

> <i_epik_Tot_Q>
0

> <i_epik_Tot_abs_Q>
0

> <r_epik_Metal_State_Penalty>
-0

> <b_epik_Metal_Only>
0

> <s_lp_Force_Field>
OPLS_2005

> <r_lp_Energy>
8.92974

> <b_lp_Chiralities_Consistent>
1

> <s_lp_Variant>
AV-unprocessed.smi:3014-3

> <Gold.Version>
5.8.1

> <Gold.Id.Protein>
6NUR|6NUR_protein|mol2

> <Gold.PLP.Fitness>
45.9883

> <Gold.PLP.PLP>
-42.6191

> <Gold.PLP.part.hbond>
-2.0000

> <Gold.PLP.part.metal>
0.0000

> <Gold.PLP.part.buried>
-5.3458

> <Gold.PLP.part.nonpolar>
-34.7732

> <Gold.PLP.part.repulsive>
0.0887

> <Gold.PLP.ligand.clash>
0.0000

> <Gold.PLP.ligand.torsion>
1.3250

> <Gold.PLP.Chemscore.Hbond>
2.0000

> <Gold.PLP.Chemscore.CHOScore>
0.0000

> <Gold.PLP.Chemscore.Metal>
0.0000

> <Gold.Chemscore.Hbonds>
donor molecule, donor type, donor heavy atom, donor atom, acceptor molecule, acceptor atom, score
      P1  H  6896  6908       L1    10  0.28
      P1  H  7997  8010       L1     7  1.00

> <Gold.PLP.Chemscore.Internal.Correction>
0.0193

> <Gold.Rescore>
     Score         DG    S(hbond)    S(metal)    S(lipo)     H(rot)  DE(clash)    DE(int)     intcor
     17.78     -20.47       1.91        0.00     104.83       1.43       0.02       2.67       ----

> <Gold.Chemscore.Fitness>
17.7824

> <Gold.Chemscore.DG>
-20.4745

> <Gold.Chemscore.ZeroCoef>
-5.4800

> <Gold.Chemscore.Hbond>
1.9140

> <Gold.Chemscore.Metal>
0.0000

> <Gold.Chemscore.Lipo>
104.8282

> <Gold.Chemscore.Internal_Hbond>
0.0000

> <Gold.Chemscore.DEClash>
0.0243

> <Gold.Chemscore.DEInternal>
2.6678

> <Gold.Chemscore.Rot>
1.4310

> <Gold.Chemscore.Internal.Correction>
   9.000000E+99

> <Gold.Chemscore.Hbonds>
donor molecule, donor type, donor heavy atom, donor atom, acceptor molecule, acceptor atom, score
      P1  H  6896  6908       L1    10  0.28
      P1  H  7997  8010       L1     7  0.32

> <Gold.Chemscore.Hbond.Weighted>
-6.3929

> <Gold.Chemscore.Metal.Weighted>
-0.0000

> <Gold.Chemscore.Lipo.Weighted>
-12.2649

> <Gold.Chemscore.Internal_Hbond.Weighted>
0.0000

> <Gold.Chemscore.DEClash.Weighted>
0.0243

> <Gold.Chemscore.DEInternal.Weighted>
2.6678

> <Gold.Chemscore.Rot.Weighted>
3.6632

> <Gold.Chemscore.Internal.Correction.Weighted>
   9.000000E+99

> <Gold.Protein.RotatedTorsions>
[ 6907 6896 6895 6894 ] final -118.17 input  -60.11 | X-H torsion
[ 7974 7965 7964 7962 ] final  -91.22 input  175.53 | X-H torsion
[ 8008 7997 7996 7995 ] final   21.15 input   59.86 | X-H torsion
[ 10167 10162 10161 10158 ] final  -10.94 input  -65.29 | X-H torsion
[ 10718 10713 10712 10709 ] final -146.90 input   66.30 | X-H torsion
[ 10763 10752 10751 10750 ] final  143.66 input  -60.55 | X-H torsion
[ 11005 11000 10999 10996 ] final   72.10 input  -57.11 | X-H torsion

> <Gold.Protein.ActiveResidues>
 VAL166  LYS551  ARG553  GLY616  TRP617  ASP618  TYR619  PRO620  LYS621  CYS622 
 ASP623  PHE694  ASN695  SER759  ASP760  ASP761  ALA762  ILE779  LEU786  VAL792 
 PHE793  MET794  SER795  GLU796  ALA797  LYS798  CYS799  TRP800  GLU811  SER814 

> <Gold.Protein.RotatedAtoms>
  150.8198  133.8274  159.3144 H   0  0  0  0  0  0  0  0  0  0  0  0  # atno 6907 bound_to 6896
  151.6035  135.1044  160.0075 H   0  0  0  0  0  0  0  0  0  0  0  0  # atno 6908 bound_to 6896
  152.4287  133.7199  159.6584 H   0  0  0  0  0  0  0  0  0  0  0  0  # atno 6909 bound_to 6896
  145.4160  140.9548  143.2208 H   0  0  0  0  0  0  0  0  0  0  0  0  # atno 7974 bound_to 7965
  154.9463  140.3060  155.5096 H   0  0  0  0  0  0  0  0  0  0  0  0  # atno 8008 bound_to 7997
  156.2991  140.2327  156.4474 H   0  0  0  0  0  0  0  0  0  0  0  0  # atno 8009 bound_to 7997
  154.8097  140.0429  157.1322 H   0  0  0  0  0  0  0  0  0  0  0  0  # atno 8010 bound_to 7997
  140.7126  143.5693  150.9109 H   0  0  0  0  0  0  0  0  0  0  0  0  # atno 10167 bound_to 10162
  156.4007  130.7932  151.2142 H   0  0  0  0  0  0  0  0  0  0  0  0  # atno 10718 bound_to 10713
  153.9760  135.2946  155.3424 H   0  0  0  0  0  0  0  0  0  0  0  0  # atno 10763 bound_to 10752
  154.7295  135.5074  153.8944 H   0  0  0  0  0  0  0  0  0  0  0  0  # atno 10764 bound_to 10752
  153.0877  135.6698  154.0029 H   0  0  0  0  0  0  0  0  0  0  0  0  # atno 10765 bound_to 10752
  139.9508  134.7230  156.0866 H   0  0  0  0  0  0  0  0  0  0  0  0  # atno 11005 bound_to 11000
  144.8277  139.5681  143.6958 LP  0  0  0  0  0  0  0  0  0  0  0  0  # atno 17320 bound_to 7965
  146.2681  139.6568  142.9315 LP  0  0  0  0  0  0  0  0  0  0  0  0  # atno 17321 bound_to 7965
  139.9419  143.6372  152.3051 LP  0  0  0  0  0  0  0  0  0  0  0  0  # atno 17342 bound_to 10162
  139.6859  144.7651  151.1524 LP  0  0  0  0  0  0  0  0  0  0  0  0  # atno 17343 bound_to 10162
  157.7503  131.0287  150.4063 LP  0  0  0  0  0  0  0  0  0  0  0  0  # atno 17370 bound_to 10713
  156.4342  130.3978  149.6740 LP  0  0  0  0  0  0  0  0  0  0  0  0  # atno 17371 bound_to 10713
  141.1171  133.6624  156.3120 LP  0  0  0  0  0  0  0  0  0  0  0  0  # atno 17394 bound_to 11000
  140.5723  134.5828  157.5460 LP  0  0  0  0  0  0  0  0  0  0  0  0  # atno 17395 bound_to 11000

$$$$
