AV-unprocessed.smi:3019|AV-procd|sdf|11490|dock4
  -GOLD-   2272016433D 1   1.00000     0.00000
 Structure written by MMmdl.
 30 31  0  0  0  0  0  0  0  0  1 V2000
  152.1997  145.1150  158.8223 C   0  0  0  0  0  0  0  0  0  0  0  0
  151.5628  143.7889  159.2640 C   0  0  0  0  0  0  0  0  0  0  0  0
  152.3380  143.1330  160.4159 C   0  0  0  0  0  0  0  0  0  0  0  0
  151.3837  142.8480  158.1122 C   0  0  0  0  0  0  0  0  0  0  0  0
  150.7606  143.2087  156.9882 N   0  0  0  0  0  0  0  0  0  0  0  0
  150.7278  142.1616  156.1380 N   0  0  0  0  0  0  0  0  0  0  0  0
  151.3711  141.2201  156.8302 C   0  0  0  0  0  0  0  0  0  0  0  0
  151.5534  139.8312  156.2998 C   0  0  1  0  0  0  0  0  0  0  0  0
  150.2338  139.2329  155.7741 C   0  0  0  0  0  0  0  0  0  0  0  0
  150.4740  137.9185  155.1807 N   0  0  0  0  0  0  0  0  0  0  0  0
  151.5023  137.9876  154.1435 C   0  0  0  0  0  0  0  0  0  0  0  0
  152.7900  138.6169  154.7055 C   0  0  0  0  0  0  0  0  0  0  0  0
  152.5000  139.9059  155.2353 O   0  0  0  0  0  0  0  0  0  0  0  0
  151.7871  141.5812  158.0816 N   0  0  0  0  0  0  0  0  0  0  0  0
  151.6031  145.5972  158.0474 H   0  0  0  0  0  0  0  0  0  0  0  0
  153.2028  144.9612  158.4231 H   0  0  0  0  0  0  0  0  0  0  0  0
  152.2782  145.8104  159.6584 H   0  0  0  0  0  0  0  0  0  0  0  0
  150.5680  144.0262  159.6439 H   0  0  0  0  0  0  0  0  0  0  0  0
  151.8332  142.2312  160.7638 H   0  0  0  0  0  0  0  0  0  0  0  0
  152.4257  143.8101  161.2659 H   0  0  0  0  0  0  0  0  0  0  0  0
  153.3461  142.8528  160.1085 H   0  0  0  0  0  0  0  0  0  0  0  0
  151.9573  139.2063  157.0990 H   0  0  0  0  0  0  0  0  0  0  0  0
  149.5083  139.1510  156.5839 H   0  0  0  0  0  0  0  0  0  0  0  0
  149.7983  139.8992  155.0284 H   0  0  0  0  0  0  0  0  0  0  0  0
  151.7104  136.9904  153.7555 H   0  0  0  0  0  0  0  0  0  0  0  0
  151.1422  138.5823  153.3032 H   0  0  0  0  0  0  0  0  0  0  0  0
  153.2326  137.9823  155.4751 H   0  0  0  0  0  0  0  0  0  0  0  0
  153.5320  138.7212  153.9139 H   0  0  0  0  0  0  0  0  0  0  0  0
  149.6110  137.5643  154.7807 H   0  0  0  0  0  0  0  0  0  0  0  0
  150.3546  144.1078  156.7716 H   0  0  0  0  0  0  0  0  0  0  0  0
  1  2  1  0  0  0  0
  1 15  1  0  0  0  0
  1 16  1  0  0  0  0
  1 17  1  0  0  0  0
  2  3  1  0  0  0  0
  2  4  1  0  0  0  0
  2 18  1  0  0  0  0
  3 19  1  0  0  0  0
  3 20  1  0  0  0  0
  3 21  1  0  0  0  0
  4 14  2  0  0  0  0
  4  5  1  0  0  0  0
  5  6  1  0  0  0  0
  5 30  1  0  0  0  0
  6  7  2  0  0  0  0
  7  8  1  0  0  0  0
  7 14  1  0  0  0  0
  8 13  1  0  0  0  0
  8  9  1  0  0  0  0
  8 22  1  0  0  0  0
  9 10  1  0  0  0  0
  9 23  1  0  0  0  0
  9 24  1  0  0  0  0
 10 11  1  0  0  0  0
 10 29  1  0  0  0  0
 11 12  1  0  0  0  0
 11 25  1  0  0  0  0
 11 26  1  0  0  0  0
 12 13  1  0  0  0  0
 12 27  1  0  0  0  0
 12 28  1  0  0  0  0
M  END
> <s_m_source_file>
AV-unprocessed.smi

> <i_m_source_file_index>
3019

> <i_lp_mmshare_version>
43012

> <i_f3d_flags>
0

> <s_epik_input>
W0NIM11bQ0hdKFtDSDNdKWMxbltuSF1jKG4xKVtDQEBIXTJbQ0gyXVtOSF1bQ0gyXVtDSDJdTzI=

> <s_epik_cmdline>
J2VwaWtfcHl0aG9uJywgJy1waCcsICc3LjAnLCAnLXRuJywgJzgnLCAnLW1hJywgJzIwMCcsICctbWV0YWxfYmluZGluZycsICctaW1hZScsICc8aW5maWxlLm1hZT4nLCAnLW9tYWUnLCAnPG91dGZpbGUubWFlPic=

> <r_lp_tautomer_probability>
0.948284

> <r_epik_Ionization_Penalty>
1.10045

> <r_epik_Ionization_Penalty_Charging>
0

> <r_epik_Ionization_Penalty_Neutral>
1.10045

> <r_epik_State_Penalty>
1.2625

> <r_epik_Charging_Adjusted_Penalty>
1.2625

> <i_epik_Tot_Q>
0

> <i_epik_Tot_abs_Q>
0

> <r_epik_Metal_State_Penalty>
1.57133

> <b_epik_Metal_Only>
0

> <s_lp_Force_Field>
OPLS_2005

> <r_lp_Energy>
11.2718

> <b_lp_Chiralities_Consistent>
1

> <s_lp_Variant>
AV-unprocessed.smi:3019-6

> <Gold.Version>
5.8.1

> <Gold.Id.Protein>
6NUR|6NUR_protein|mol2

> <Gold.PLP.Fitness>
35.8752

> <Gold.PLP.PLP>
-30.6406

> <Gold.PLP.part.hbond>
-2.8705

> <Gold.PLP.part.metal>
0.0000

> <Gold.PLP.part.buried>
-4.6960

> <Gold.PLP.part.nonpolar>
-23.0542

> <Gold.PLP.part.repulsive>
0.1345

> <Gold.PLP.ligand.clash>
0.0000

> <Gold.PLP.ligand.torsion>
0.2355

> <Gold.PLP.Chemscore.Hbond>
1.8829

> <Gold.PLP.Chemscore.CHOScore>
0.0000

> <Gold.PLP.Chemscore.Metal>
0.0000

> <Gold.Chemscore.Hbonds>
donor molecule, donor type, donor heavy atom, donor atom, acceptor molecule, acceptor atom, score
      L1  H     5    30       P1  8028  0.74
      P1  H  7989  7998       L1    13  0.45
      P1  H  7997  8010       L1    13  0.68

> <Gold.PLP.Chemscore.Internal.Correction>
0.0570

> <Gold.Rescore>
     Score         DG    S(hbond)    S(metal)    S(lipo)     H(rot)  DE(clash)    DE(int)     intcor
     14.55     -14.80       1.49        0.00      64.86       1.26       0.06       0.20       ----

> <Gold.Chemscore.Fitness>
14.5454

> <Gold.Chemscore.DG>
-14.8039

> <Gold.Chemscore.ZeroCoef>
-5.4800

> <Gold.Chemscore.Hbond>
1.4853

> <Gold.Chemscore.Metal>
0.0000

> <Gold.Chemscore.Lipo>
64.8561

> <Gold.Chemscore.Internal_Hbond>
0.0000

> <Gold.Chemscore.DEClash>
0.0557

> <Gold.Chemscore.DEInternal>
0.2029

> <Gold.Chemscore.Rot>
1.2598

> <Gold.Chemscore.Internal.Correction>
   9.000000E+99

> <Gold.Chemscore.Hbonds>
donor molecule, donor type, donor heavy atom, donor atom, acceptor molecule, acceptor atom, score
      L1  H     5    30       P1  8028  0.73
      P1  H  7989  7998       L1    13  0.11
      P1  H  7997  8010       L1    13  0.05

> <Gold.Chemscore.Hbond.Weighted>
-4.9609

> <Gold.Chemscore.Metal.Weighted>
-0.0000

> <Gold.Chemscore.Lipo.Weighted>
-7.5882

> <Gold.Chemscore.Internal_Hbond.Weighted>
0.0000

> <Gold.Chemscore.DEClash.Weighted>
0.0557

> <Gold.Chemscore.DEInternal.Weighted>
0.2029

> <Gold.Chemscore.Rot.Weighted>
3.2251

> <Gold.Chemscore.Internal.Correction.Weighted>
   9.000000E+99

> <Gold.Protein.RotatedTorsions>
[ 6907 6896 6895 6894 ] final  116.67 input  -60.11 | X-H torsion
[ 7974 7965 7964 7962 ] final    5.57 input  175.53 | X-H torsion
[ 8008 7997 7996 7995 ] final   93.71 input   59.86 | X-H torsion
[ 10167 10162 10161 10158 ] final   39.65 input  -65.29 | X-H torsion
[ 10718 10713 10712 10709 ] final   53.22 input   66.30 | X-H torsion
[ 10763 10752 10751 10750 ] final  126.28 input  -60.55 | X-H torsion
[ 11005 11000 10999 10996 ] final   53.22 input  -57.11 | X-H torsion

> <Gold.Protein.ActiveResidues>
 VAL166  LYS551  ARG553  GLY616  TRP617  ASP618  TYR619  PRO620  LYS621  CYS622 
 ASP623  PHE694  ASN695  SER759  ASP760  ASP761  ALA762  ILE779  LEU786  VAL792 
 PHE793  MET794  SER795  GLU796  ALA797  LYS798  CYS799  TRP800  GLU811  SER814 

> <Gold.Protein.RotatedAtoms>
  152.4663  133.7930  159.6911 H   0  0  0  0  0  0  0  0  0  0  0  0  # atno 6907 bound_to 6896
  150.8629  133.7607  159.2993 H   0  0  0  0  0  0  0  0  0  0  0  0  # atno 6908 bound_to 6896
  151.5167  135.1069  159.9920 H   0  0  0  0  0  0  0  0  0  0  0  0  # atno 6909 bound_to 6896
  146.2440  140.0364  142.8385 H   0  0  0  0  0  0  0  0  0  0  0  0  # atno 7974 bound_to 7965
  156.0497  140.3309  155.7337 H   0  0  0  0  0  0  0  0  0  0  0  0  # atno 8008 bound_to 7997
  155.5619  140.0620  157.2844 H   0  0  0  0  0  0  0  0  0  0  0  0  # atno 8009 bound_to 7997
  154.4430  140.1876  156.0779 H   0  0  0  0  0  0  0  0  0  0  0  0  # atno 8010 bound_to 7997
  140.3819  144.1969  150.6130 H   0  0  0  0  0  0  0  0  0  0  0  0  # atno 10167 bound_to 10162
  157.5147  130.8524  149.8480 H   0  0  0  0  0  0  0  0  0  0  0  0  # atno 10718 bound_to 10713
  153.6908  135.3299  155.3201 H   0  0  0  0  0  0  0  0  0  0  0  0  # atno 10763 bound_to 10752
  154.8440  135.4431  154.1511 H   0  0  0  0  0  0  0  0  0  0  0  0  # atno 10764 bound_to 10752
  153.2552  135.6985  153.7715 H   0  0  0  0  0  0  0  0  0  0  0  0  # atno 10765 bound_to 10752
  140.0785  134.5371  155.8971 H   0  0  0  0  0  0  0  0  0  0  0  0  # atno 11005 bound_to 11000
  145.1109  140.9404  143.4657 LP  0  0  0  0  0  0  0  0  0  0  0  0  # atno 17320 bound_to 7965
  145.0577  139.3130  143.5896 LP  0  0  0  0  0  0  0  0  0  0  0  0  # atno 17321 bound_to 7965
  140.4929  143.2341  151.8792 LP  0  0  0  0  0  0  0  0  0  0  0  0  # atno 17342 bound_to 10162
  139.4795  144.5146  151.8886 LP  0  0  0  0  0  0  0  0  0  0  0  0  # atno 17343 bound_to 10162
  156.0312  130.3764  150.1682 LP  0  0  0  0  0  0  0  0  0  0  0  0  # atno 17370 bound_to 10713
  156.9871  130.9882  151.3423 LP  0  0  0  0  0  0  0  0  0  0  0  0  # atno 17371 bound_to 10713
  141.2038  133.6634  156.6084 LP  0  0  0  0  0  0  0  0  0  0  0  0  # atno 17394 bound_to 11000
  140.3523  134.7758  157.4475 LP  0  0  0  0  0  0  0  0  0  0  0  0  # atno 17395 bound_to 11000

$$$$
