AV-unprocessed.smi:2764|AV-procd|sdf|10640|dock4
  -GOLD-   2272015 93D 1   1.00000     0.00000
 Structure written by MMmdl.
 47 49  0  0  0  0  0  0  0  0  2 V2000
  151.0149  136.4113  155.9586 O   0  0  0  0  0  0  0  0  0  0  0  0
  150.4217  136.4119  154.8798 C   0  0  0  0  0  0  0  0  0  0  0  0
  150.1592  135.3207  154.1390 N   0  0  0  0  0  0  0  0  0  0  0  0
  150.4520  133.9635  154.4401 C   0  0  0  0  0  0  0  0  0  0  0  0
  149.8189  133.0156  153.6040 C   0  0  0  0  0  0  0  0  0  0  0  0
  150.0394  131.6417  153.8231 C   0  0  0  0  0  0  0  0  0  0  0  0
  150.8879  131.2528  154.8746 C   0  0  0  0  0  0  0  0  0  0  0  0
  151.1289  129.9440  155.1243 F   0  0  0  0  0  0  0  0  0  0  0  0
  151.4795  132.2588  155.6606 C   0  0  0  0  0  0  0  0  0  0  0  0
  151.2695  133.5761  155.4515 N   0  0  0  0  0  0  0  0  0  0  0  0
  149.9499  137.5222  154.2885 N   0  0  0  0  0  0  0  0  0  0  0  0
  150.0225  138.8983  154.7860 C   0  0  2  0  0  0  0  0  0  0  0  0
  151.4128  139.2612  155.3423 C   0  0  0  0  0  0  0  0  0  0  0  0
  151.4461  140.7229  155.8201 C   0  0  0  0  0  0  0  0  0  0  0  0
  150.3838  140.9836  156.8274 N   0  3  1  0  0  0  0  0  0  0  0  0
  150.4783  142.3392  157.4293 C   0  0  0  0  0  0  0  0  0  0  0  0
  151.8664  142.6041  158.0432 C   0  0  2  0  0  0  0  0  0  0  0  0
  152.2373  141.7316  159.2274 C   0  0  0  0  0  0  0  0  0  0  0  0
  153.3528  142.5382  159.8862 C   0  0  0  0  0  0  0  0  0  0  0  0
  153.0735  143.9039  159.5936 O   0  0  0  0  0  0  0  0  0  0  0  0
  151.9955  143.9933  158.6685 C   0  0  0  0  0  0  0  0  0  0  0  0
  149.0318  140.6810  156.2865 C   0  0  0  0  0  0  0  0  0  0  0  0
  148.9337  139.2166  155.8294 C   0  0  0  0  0  0  0  0  0  0  0  0
  149.6779  135.4755  153.2656 H   0  0  0  0  0  0  0  0  0  0  0  0
  149.1689  133.3329  152.8016 H   0  0  0  0  0  0  0  0  0  0  0  0
  149.5649  130.9014  153.1959 H   0  0  0  0  0  0  0  0  0  0  0  0
  152.1363  132.0014  156.4784 H   0  0  0  0  0  0  0  0  0  0  0  0
  149.4829  137.4026  153.4011 H   0  0  0  0  0  0  0  0  0  0  0  0
  149.8402  139.5296  153.9153 H   0  0  0  0  0  0  0  0  0  0  0  0
  151.6755  138.6114  156.1775 H   0  0  0  0  0  0  0  0  0  0  0  0
  152.1752  139.1061  154.5781 H   0  0  0  0  0  0  0  0  0  0  0  0
  152.4248  140.9297  156.2551 H   0  0  0  0  0  0  0  0  0  0  0  0
  151.3228  141.4014  154.9742 H   0  0  0  0  0  0  0  0  0  0  0  0
  150.3148  143.0919  156.6565 H   0  0  0  0  0  0  0  0  0  0  0  0
  149.6841  142.4960  158.1615 H   0  0  0  0  0  0  0  0  0  0  0  0
  152.6334  142.5028  157.2731 H   0  0  0  0  0  0  0  0  0  0  0  0
  151.3933  141.6371  159.9123 H   0  0  0  0  0  0  0  0  0  0  0  0
  152.5618  140.7308  158.9412 H   0  0  0  0  0  0  0  0  0  0  0  0
  153.4107  142.3646  160.9608 H   0  0  0  0  0  0  0  0  0  0  0  0
  154.3183  142.2814  159.4489 H   0  0  0  0  0  0  0  0  0  0  0  0
  152.1730  144.7714  157.9257 H   0  0  0  0  0  0  0  0  0  0  0  0
  151.0911  144.2544  159.2200 H   0  0  0  0  0  0  0  0  0  0  0  0
  148.2715  140.8710  157.0428 H   0  0  0  0  0  0  0  0  0  0  0  0
  148.8152  141.3487  155.4510 H   0  0  0  0  0  0  0  0  0  0  0  0
  147.9451  139.0261  155.4103 H   0  0  0  0  0  0  0  0  0  0  0  0
  149.0305  138.5690  156.7012 H   0  0  0  0  0  0  0  0  0  0  0  0
  150.5514  140.3305  157.5796 H   0  0  0  0  0  0  0  0  0  0  0  0
  1  2  2  0  0  0  0
  2  3  1  0  0  0  0
  2 11  1  0  0  0  0
  3  4  1  0  0  0  0
  3 24  1  0  0  0  0
  4 10  1  0  0  0  0
  4  5  2  0  0  0  0
  5  6  1  0  0  0  0
  5 25  1  0  0  0  0
  6  7  2  0  0  0  0
  6 26  1  0  0  0  0
  7  8  1  0  0  0  0
  7  9  1  0  0  0  0
  9 10  2  0  0  0  0
  9 27  1  0  0  0  0
 11 12  1  0  0  0  0
 11 28  1  0  0  0  0
 12 23  1  0  0  0  0
 12 13  1  0  0  0  0
 12 29  1  0  0  0  0
 13 14  1  0  0  0  0
 13 30  1  0  0  0  0
 13 31  1  0  0  0  0
 14 15  1  0  0  0  0
 14 32  1  0  0  0  0
 14 33  1  0  0  0  0
 15 16  1  0  0  0  0
 15 22  1  0  0  0  0
 15 47  1  0  0  0  0
 16 17  1  0  0  0  0
 16 34  1  0  0  0  0
 16 35  1  0  0  0  0
 17 21  1  0  0  0  0
 17 18  1  0  0  0  0
 17 36  1  0  0  0  0
 18 19  1  0  0  0  0
 18 37  1  0  0  0  0
 18 38  1  0  0  0  0
 19 20  1  0  0  0  0
 19 39  1  0  0  0  0
 19 40  1  0  0  0  0
 20 21  1  0  0  0  0
 21 41  1  0  0  0  0
 21 42  1  0  0  0  0
 22 23  1  0  0  0  0
 22 43  1  0  0  0  0
 22 44  1  0  0  0  0
 23 45  1  0  0  0  0
 23 46  1  0  0  0  0
M  CHG  1  15   1
M  END
> <s_m_source_file>
AV-unprocessed.smi

> <i_m_source_file_index>
2764

> <i_lp_mmshare_version>
43012

> <i_f3d_flags>
0

> <s_epik_input>
bjFbY0hdYyhGKVtjSF1bY0hdYzFbTkhdQyg9TylbTkhdW0NIXTJbQ0gyXVtDSDJdTihbQ0gyXVtDSDJdMilbQ0gyXVtDQEBIXTNbQ0gyXVtDSDJdT1tDSDJdMw==

> <s_epik_cmdline>
J2VwaWtfcHl0aG9uJywgJy1waCcsICc3LjAnLCAnLXRuJywgJzgnLCAnLW1hJywgJzIwMCcsICctbWV0YWxfYmluZGluZycsICctaW1hZScsICc8aW5maWxlLm1hZT4nLCAnLW9tYWUnLCAnPG91dGZpbGUubWFlPic=

> <r_epik_Ionization_Penalty>
0.0075076

> <r_epik_Ionization_Penalty_Charging>
0.00747775

> <r_epik_Ionization_Penalty_Neutral>
2.98483e-05

> <r_epik_State_Penalty>
0.00558817

> <r_epik_Charging_Adjusted_Penalty>
0.0130659

> <i_epik_Tot_Q>
1

> <i_epik_Tot_abs_Q>
1

> <r_epik_Metal_State_Penalty>
-0

> <b_epik_Metal_Only>
0

> <s_lp_Force_Field>
OPLS_2005

> <r_lp_Energy>
38.4399

> <b_lp_Chiralities_Consistent>
1

> <s_lp_Variant>
AV-unprocessed.smi:2764-1

> <Gold.Version>
5.8.1

> <Gold.Id.Protein>
6NUR|6NUR_protein|mol2

> <Gold.PLP.Fitness>
45.4625

> <Gold.PLP.PLP>
-40.1152

> <Gold.PLP.part.hbond>
-2.4021

> <Gold.PLP.part.metal>
0.0000

> <Gold.PLP.part.buried>
-4.3077

> <Gold.PLP.part.nonpolar>
-33.5448

> <Gold.PLP.part.repulsive>
0.1279

> <Gold.PLP.ligand.clash>
0.0000

> <Gold.PLP.ligand.torsion>
0.2907

> <Gold.PLP.Chemscore.Hbond>
1.9600

> <Gold.PLP.Chemscore.CHOScore>
0.0000

> <Gold.PLP.Chemscore.Metal>
0.0000

> <Gold.Chemscore.Hbonds>
donor molecule, donor type, donor heavy atom, donor atom, acceptor molecule, acceptor atom, score
      L1  H     3    24       P1  7948  0.45
      L1  H    11    28       P1  7948  0.99

> <Gold.PLP.Chemscore.Internal.Correction>
0.0486

> <Gold.Rescore>
     Score         DG    S(hbond)    S(metal)    S(lipo)     H(rot)  DE(clash)    DE(int)     intcor
     16.36     -17.97       1.56        0.00      94.95       1.49       0.24       1.37       ----

> <Gold.Chemscore.Fitness>
16.3645

> <Gold.Chemscore.DG>
-17.9718

> <Gold.Chemscore.ZeroCoef>
-5.4800

> <Gold.Chemscore.Hbond>
1.5553

> <Gold.Chemscore.Metal>
0.0000

> <Gold.Chemscore.Lipo>
94.9495

> <Gold.Chemscore.Internal_Hbond>
0.0000

> <Gold.Chemscore.DEClash>
0.2387

> <Gold.Chemscore.DEInternal>
1.3686

> <Gold.Chemscore.Rot>
1.4891

> <Gold.Chemscore.Internal.Correction>
   9.000000E+99

> <Gold.Chemscore.Hbonds>
donor molecule, donor type, donor heavy atom, donor atom, acceptor molecule, acceptor atom, score
      L1  H     3    24       P1  7948  0.02
      L1  H    11    28       P1  7948  0.86

> <Gold.Chemscore.Hbond.Weighted>
-5.1948

> <Gold.Chemscore.Metal.Weighted>
-0.0000

> <Gold.Chemscore.Lipo.Weighted>
-11.1091

> <Gold.Chemscore.Internal_Hbond.Weighted>
0.0000

> <Gold.Chemscore.DEClash.Weighted>
0.2387

> <Gold.Chemscore.DEInternal.Weighted>
1.3686

> <Gold.Chemscore.Rot.Weighted>
3.8121

> <Gold.Chemscore.Internal.Correction.Weighted>
   9.000000E+99

> <Gold.Protein.RotatedTorsions>
[ 6907 6896 6895 6894 ] final -161.13 input  -60.11 | X-H torsion
[ 7974 7965 7964 7962 ] final  -24.26 input  175.53 | X-H torsion
[ 8008 7997 7996 7995 ] final  -48.50 input   59.86 | X-H torsion
[ 10167 10162 10161 10158 ] final  -24.37 input  -65.29 | X-H torsion
[ 10718 10713 10712 10709 ] final -152.27 input   66.30 | X-H torsion
[ 10763 10752 10751 10750 ] final  171.76 input  -60.55 | X-H torsion
[ 11005 11000 10999 10996 ] final -174.77 input  -57.11 | X-H torsion

> <Gold.Protein.ActiveResidues>
 VAL166  LYS551  ARG553  GLY616  TRP617  ASP618  TYR619  PRO620  LYS621  CYS622 
 ASP623  PHE694  ASN695  SER759  ASP760  ASP761  ALA762  ILE779  LEU786  VAL792 
 PHE793  MET794  SER795  GLU796  ALA797  LYS798  CYS799  TRP800  GLU811  SER814 

> <Gold.Protein.RotatedAtoms>
  151.3599  133.3893  159.2688 H   0  0  0  0  0  0  0  0  0  0  0  0  # atno 6907 bound_to 6896
  150.9734  134.9104  159.7812 H   0  0  0  0  0  0  0  0  0  0  0  0  # atno 6908 bound_to 6896
  152.5192  134.3561  159.9320 H   0  0  0  0  0  0  0  0  0  0  0  0  # atno 6909 bound_to 6896
  146.1566  140.4727  142.8589 H   0  0  0  0  0  0  0  0  0  0  0  0  # atno 7974 bound_to 7965
  154.4030  140.1320  156.4350 H   0  0  0  0  0  0  0  0  0  0  0  0  # atno 8008 bound_to 7997
  155.7514  140.3488  155.5132 H   0  0  0  0  0  0  0  0  0  0  0  0  # atno 8009 bound_to 7997
  155.8945  140.1009  157.1384 H   0  0  0  0  0  0  0  0  0  0  0  0  # atno 8010 bound_to 7997
  140.7288  143.4359  151.0730 H   0  0  0  0  0  0  0  0  0  0  0  0  # atno 10167 bound_to 10162
  156.4702  130.8255  151.2484 H   0  0  0  0  0  0  0  0  0  0  0  0  # atno 10718 bound_to 10713
  154.4164  135.2757  155.2004 H   0  0  0  0  0  0  0  0  0  0  0  0  # atno 10763 bound_to 10752
  154.3968  135.6053  153.5878 H   0  0  0  0  0  0  0  0  0  0  0  0  # atno 10764 bound_to 10752
  152.9832  135.5916  154.4453 H   0  0  0  0  0  0  0  0  0  0  0  0  # atno 10765 bound_to 10752
  140.4707  134.6168  157.4881 H   0  0  0  0  0  0  0  0  0  0  0  0  # atno 11005 bound_to 11000
  144.7971  140.6143  143.6503 LP  0  0  0  0  0  0  0  0  0  0  0  0  # atno 17320 bound_to 7965
  145.4694  139.1505  143.3823 LP  0  0  0  0  0  0  0  0  0  0  0  0  # atno 17321 bound_to 7965
  139.8021  143.8069  152.3164 LP  0  0  0  0  0  0  0  0  0  0  0  0  # atno 17342 bound_to 10162
  139.8089  144.7344  150.9723 LP  0  0  0  0  0  0  0  0  0  0  0  0  # atno 17343 bound_to 10162
  157.7492  131.0078  150.3206 LP  0  0  0  0  0  0  0  0  0  0  0  0  # atno 17370 bound_to 10713
  156.3626  130.3849  149.7239 LP  0  0  0  0  0  0  0  0  0  0  0  0  # atno 17371 bound_to 10713
  139.9887  134.7020  155.9728 LP  0  0  0  0  0  0  0  0  0  0  0  0  # atno 17394 bound_to 11000
  141.1578  133.6541  156.4218 LP  0  0  0  0  0  0  0  0  0  0  0  0  # atno 17395 bound_to 11000

$$$$
