AV-unprocessed.smi:682|AV-procd|sdf|3327|dock2
  -GOLD-   22720 0293D 1   1.00000     0.00000
 Structure written by MMmdl.
 41 42  0  0  0  0  0  0  0  0  1 V2000
  146.4286  142.7703  154.3880 C   0  0  0  0  0  0  0  0  0  0  0  0
  146.8491  141.5610  155.0076 O   0  0  0  0  0  0  0  0  0  0  0  0
  147.8595  140.7946  154.3377 C   0  0  2  0  0  0  0  0  0  0  0  0
  149.2068  141.5269  154.3767 C   0  0  0  0  0  0  0  0  0  0  0  0
  147.3240  140.2694  152.9915 C   0  0  0  0  0  0  0  0  0  0  0  0
  146.6887  139.1231  153.7760 C   0  0  1  0  0  0  0  0  0  0  0  0
  146.7481  137.8504  153.0649 N   0  0  0  0  0  0  0  0  0  0  0  0
  145.6729  137.1318  152.7147 C   0  0  0  0  0  0  0  0  0  0  0  0
  144.5157  137.4856  152.9413 O   0  0  0  0  0  0  0  0  0  0  0  0
  146.0259  135.9900  152.1021 N   0  0  0  0  0  0  0  0  0  0  0  0
  145.1645  134.9769  151.6099 C   0  0  0  0  0  0  0  0  0  0  0  0
  143.9707  134.5488  152.2468 C   0  0  0  0  0  0  0  0  0  0  0  0
  143.3749  133.5899  151.5539 N   0  0  0  0  0  0  0  0  0  0  0  0
  144.1703  133.3917  150.4745 N   0  0  0  0  0  0  0  0  0  0  0  0
  143.7991  132.3932  149.4949 C   0  0  0  0  0  0  0  0  0  0  0  0
  145.2738  134.2214  150.4767 C   0  0  0  0  0  0  0  0  0  0  0  0
  147.7848  139.3205  154.8550 C   0  0  0  0  0  0  0  0  0  0  0  0
  149.0701  138.4854  154.6984 C   0  0  0  0  0  0  0  0  0  0  0  0
  147.3370  139.1245  156.3078 C   0  0  0  0  0  0  0  0  0  0  0  0
  145.5525  143.1518  154.9122 H   0  0  0  0  0  0  0  0  0  0  0  0
  146.1530  142.6292  153.3434 H   0  0  0  0  0  0  0  0  0  0  0  0
  147.1986  143.5395  154.4468 H   0  0  0  0  0  0  0  0  0  0  0  0
  150.0091  140.9221  153.9555 H   0  0  0  0  0  0  0  0  0  0  0  0
  149.4903  141.7798  155.3985 H   0  0  0  0  0  0  0  0  0  0  0  0
  149.1882  142.4483  153.7953 H   0  0  0  0  0  0  0  0  0  0  0  0
  146.6078  140.9088  152.4764 H   0  0  0  0  0  0  0  0  0  0  0  0
  148.1188  139.9492  152.3154 H   0  0  0  0  0  0  0  0  0  0  0  0
  145.6893  139.3854  154.1314 H   0  0  0  0  0  0  0  0  0  0  0  0
  147.6640  137.4907  152.8399 H   0  0  0  0  0  0  0  0  0  0  0  0
  147.0143  135.8225  151.9846 H   0  0  0  0  0  0  0  0  0  0  0  0
  143.5249  134.8945  153.1678 H   0  0  0  0  0  0  0  0  0  0  0  0
  144.5418  132.3568  148.6975 H   0  0  0  0  0  0  0  0  0  0  0  0
  142.8292  132.6421  149.0637 H   0  0  0  0  0  0  0  0  0  0  0  0
  143.7408  131.4132  149.9695 H   0  0  0  0  0  0  0  0  0  0  0  0
  146.0133  134.1958  149.6900 H   0  0  0  0  0  0  0  0  0  0  0  0
  148.8948  137.4309  154.9142 H   0  0  0  0  0  0  0  0  0  0  0  0
  149.8521  138.8261  155.3777 H   0  0  0  0  0  0  0  0  0  0  0  0
  149.4768  138.5395  153.6885 H   0  0  0  0  0  0  0  0  0  0  0  0
  147.2427  138.0677  156.5594 H   0  0  0  0  0  0  0  0  0  0  0  0
  146.3644  139.5776  156.5002 H   0  0  0  0  0  0  0  0  0  0  0  0
  148.0461  139.5689  157.0065 H   0  0  0  0  0  0  0  0  0  0  0  0
  1  2  1  0  0  0  0
  1 20  1  0  0  0  0
  1 21  1  0  0  0  0
  1 22  1  0  0  0  0
  2  3  1  0  0  0  0
  3 17  1  0  0  0  0
  3  4  1  0  0  0  0
  3  5  1  0  0  0  0
  4 23  1  0  0  0  0
  4 24  1  0  0  0  0
  4 25  1  0  0  0  0
  5  6  1  0  0  0  0
  5 26  1  0  0  0  0
  5 27  1  0  0  0  0
  6  7  1  0  0  0  0
  6 17  1  0  0  0  0
  6 28  1  0  0  0  0
  7  8  1  0  0  0  0
  7 29  1  0  0  0  0
  8  9  2  0  0  0  0
  8 10  1  0  0  0  0
 10 11  1  0  0  0  0
 10 30  1  0  0  0  0
 11 16  2  0  0  0  0
 11 12  1  0  0  0  0
 12 13  2  0  0  0  0
 12 31  1  0  0  0  0
 13 14  1  0  0  0  0
 14 15  1  0  0  0  0
 14 16  1  0  0  0  0
 15 32  1  0  0  0  0
 15 33  1  0  0  0  0
 15 34  1  0  0  0  0
 16 35  1  0  0  0  0
 17 18  1  0  0  0  0
 17 19  1  0  0  0  0
 18 36  1  0  0  0  0
 18 37  1  0  0  0  0
 18 38  1  0  0  0  0
 19 39  1  0  0  0  0
 19 40  1  0  0  0  0
 19 41  1  0  0  0  0
M  END
> <s_m_source_file>
AV-unprocessed.smi

> <i_m_source_file_index>
682

> <i_lp_mmshare_version>
43012

> <i_f3d_flags>
0

> <s_epik_input>
W0NIM11PW0NAQF0xKFtDSDNdKVtDSDJdW0NASF0oQzEoW0NIM10pW0NIM10pW05IXUMoPU8pW05IXWMyW2NIXW5uKFtDSDNdKVtjSF0y

> <s_epik_cmdline>
J2VwaWtfcHl0aG9uJywgJy1waCcsICc3LjAnLCAnLXRuJywgJzgnLCAnLW1hJywgJzIwMCcsICctbWV0YWxfYmluZGluZycsICctaW1hZScsICc8aW5maWxlLm1hZT4nLCAnLW9tYWUnLCAnPG91dGZpbGUubWFlPic=

> <r_lp_tautomer_probability>
1

> <r_epik_Ionization_Penalty>
0.000192302

> <r_epik_Ionization_Penalty_Charging>
0

> <r_epik_Ionization_Penalty_Neutral>
0.000192302

> <r_epik_State_Penalty>
-0

> <r_epik_Charging_Adjusted_Penalty>
0

> <i_epik_Tot_Q>
0

> <i_epik_Tot_abs_Q>
0

> <r_epik_Metal_State_Penalty>
-0

> <b_epik_Metal_Only>
0

> <s_lp_Force_Field>
OPLS_2005

> <r_lp_Energy>
24.7984

> <b_lp_Chiralities_Consistent>
1

> <s_lp_Variant>
AV-unprocessed.smi:682-2

> <Gold.Version>
5.8.1

> <Gold.Id.Protein>
6NUR|6NUR_protein|mol2

> <Gold.PLP.Fitness>
36.9332

> <Gold.PLP.PLP>
-28.7077

> <Gold.PLP.part.hbond>
-2.0000

> <Gold.PLP.part.metal>
0.0000

> <Gold.PLP.part.buried>
-1.1036

> <Gold.PLP.part.nonpolar>
-26.0466

> <Gold.PLP.part.repulsive>
0.5495

> <Gold.PLP.ligand.clash>
0.0000

> <Gold.PLP.ligand.torsion>
0.5613

> <Gold.PLP.Chemscore.Hbond>
1.9913

> <Gold.PLP.Chemscore.CHOScore>
1.0000

> <Gold.PLP.Chemscore.Metal>
0.0000

> <Gold.Chemscore.Hbonds>
donor molecule, donor type, donor heavy atom, donor atom, acceptor molecule, acceptor atom, score
      L1  H     7    29       P1  7948  0.98
      L1  H    10    30       P1  7948  1.00
      L1  C    16    35       P1  7921  1.00

> <Gold.PLP.Chemscore.Internal.Correction>
0.3744

> <Gold.Rescore>
     Score         DG    S(hbond)    S(metal)    S(lipo)     H(rot)  DE(clash)    DE(int)     intcor
     14.94     -16.71       1.96        0.00      67.10       1.23       0.65       1.12       ----

> <Gold.Chemscore.Fitness>
14.9435

> <Gold.Chemscore.DG>
-16.7123

> <Gold.Chemscore.ZeroCoef>
-5.4800

> <Gold.Chemscore.Hbond>
1.9578

> <Gold.Chemscore.Metal>
0.0000

> <Gold.Chemscore.Lipo>
67.1036

> <Gold.Chemscore.Internal_Hbond>
0.0000

> <Gold.Chemscore.DEClash>
0.6462

> <Gold.Chemscore.DEInternal>
1.1226

> <Gold.Chemscore.Rot>
1.2336

> <Gold.Chemscore.Internal.Correction>
   9.000000E+99

> <Gold.Chemscore.Hbonds>
donor molecule, donor type, donor heavy atom, donor atom, acceptor molecule, acceptor atom, score
      L1  H     7    29       P1  7948  0.89
      L1  H    10    30       P1  7948  0.98

> <Gold.Chemscore.Hbond.Weighted>
-6.5392

> <Gold.Chemscore.Metal.Weighted>
-0.0000

> <Gold.Chemscore.Lipo.Weighted>
-7.8511

> <Gold.Chemscore.Internal_Hbond.Weighted>
0.0000

> <Gold.Chemscore.DEClash.Weighted>
0.6462

> <Gold.Chemscore.DEInternal.Weighted>
1.1226

> <Gold.Chemscore.Rot.Weighted>
3.1581

> <Gold.Chemscore.Internal.Correction.Weighted>
   9.000000E+99

> <Gold.Protein.RotatedTorsions>
[ 6907 6896 6895 6894 ] final -130.61 input  -60.11 | X-H torsion
[ 7974 7965 7964 7962 ] final  -35.46 input  175.53 | X-H torsion
[ 8008 7997 7996 7995 ] final -176.45 input   59.86 | X-H torsion
[ 10167 10162 10161 10158 ] final   87.65 input  -65.29 | X-H torsion
[ 10718 10713 10712 10709 ] final  107.75 input   66.30 | X-H torsion
[ 10763 10752 10751 10750 ] final  -94.74 input  -60.55 | X-H torsion
[ 11005 11000 10999 10996 ] final  -63.43 input  -57.11 | X-H torsion

> <Gold.Protein.ActiveResidues>
 VAL166  LYS551  ARG553  GLY616  TRP617  ASP618  TYR619  PRO620  LYS621  CYS622 
 ASP623  PHE694  ASN695  SER759  ASP760  ASP761  ALA762  ILE779  LEU786  VAL792 
 PHE793  MET794  SER795  GLU796  ALA797  LYS798  CYS799  TRP800  GLU811  SER814 

> <Gold.Protein.RotatedAtoms>
  150.9416  133.6650  159.2789 H   0  0  0  0  0  0  0  0  0  0  0  0  # atno 6907 bound_to 6896
  151.4037  135.0973  159.9573 H   0  0  0  0  0  0  0  0  0  0  0  0  # atno 6908 bound_to 6896
  152.5072  133.8904  159.7446 H   0  0  0  0  0  0  0  0  0  0  0  0  # atno 6909 bound_to 6896
  146.0744  140.6162  142.8937 H   0  0  0  0  0  0  0  0  0  0  0  0  # atno 7974 bound_to 7965
  155.9949  140.1208  157.0603 H   0  0  0  0  0  0  0  0  0  0  0  0  # atno 8008 bound_to 7997
  154.4223  140.1118  156.5686 H   0  0  0  0  0  0  0  0  0  0  0  0  # atno 8009 bound_to 7997
  155.6292  140.3473  155.4679 H   0  0  0  0  0  0  0  0  0  0  0  0  # atno 8010 bound_to 7997
  139.8752  144.6471  150.8904 H   0  0  0  0  0  0  0  0  0  0  0  0  # atno 10167 bound_to 10162
  157.6615  131.0879  150.6202 H   0  0  0  0  0  0  0  0  0  0  0  0  # atno 10718 bound_to 10713
  154.7084  135.5146  153.8629 H   0  0  0  0  0  0  0  0  0  0  0  0  # atno 10763 bound_to 10752
  153.0760  135.6616  154.0154 H   0  0  0  0  0  0  0  0  0  0  0  0  # atno 10764 bound_to 10752
  154.0001  135.3011  155.3383 H   0  0  0  0  0  0  0  0  0  0  0  0  # atno 10765 bound_to 10752
  141.1393  133.6652  156.5679 H   0  0  0  0  0  0  0  0  0  0  0  0  # atno 11005 bound_to 11000
  144.7252  140.4502  143.6978 LP  0  0  0  0  0  0  0  0  0  0  0  0  # atno 17320 bound_to 7965
  145.6332  139.1539  143.2957 LP  0  0  0  0  0  0  0  0  0  0  0  0  # atno 17321 bound_to 7965
  140.7754  143.3631  151.1791 LP  0  0  0  0  0  0  0  0  0  0  0  0  # atno 17342 bound_to 10162
  139.7247  143.9168  152.2998 LP  0  0  0  0  0  0  0  0  0  0  0  0  # atno 17343 bound_to 10162
  156.6505  130.4484  149.5721 LP  0  0  0  0  0  0  0  0  0  0  0  0  # atno 17370 bound_to 10713
  156.2141  130.6697  151.1300 LP  0  0  0  0  0  0  0  0  0  0  0  0  # atno 17371 bound_to 10713
  140.3936  134.7419  157.4737 LP  0  0  0  0  0  0  0  0  0  0  0  0  # atno 17394 bound_to 11000
  140.0548  134.6079  155.8818 LP  0  0  0  0  0  0  0  0  0  0  0  0  # atno 17395 bound_to 11000

$$$$
