AV-unprocessed.smi:1473|AV-procd|sdf|5968|dock2
  -GOLD-   22720 6 53D 1   1.00000     0.00000
 Structure written by MMmdl.
 34 35  0  0  0  0  0  0  0  0  3 V2000
  155.3548  137.9910  157.3901 N   0  0  0  0  0  0  0  0  0  0  0  0
  153.6760  137.6281  157.3933 S   0  0  0  0  0  0  0  0  0  0  0  0
  153.5639  136.2232  156.9691 O   0  0  0  0  0  0  0  0  0  0  0  0
  153.1830  137.9987  158.7294 O   0  0  0  0  0  0  0  0  0  0  0  0
  153.2686  138.6872  156.2364 N   0  5  0  0  0  0  0  0  0  0  0  0
  151.9417  138.6317  155.6453 C   0  0  0  0  0  0  0  0  0  0  0  0
  151.2033  139.9589  155.7577 C   0  0  0  0  0  0  0  0  0  0  0  0
  150.1089  140.2504  154.9094 C   0  0  0  0  0  0  0  0  0  0  0  0
  149.4367  141.4805  155.0521 C   0  0  0  0  0  0  0  0  0  0  0  0
  149.8363  142.3615  155.9942 N   0  3  0  0  0  0  0  0  0  0  0  0
  150.8706  142.1286  156.8316 C   0  0  0  0  0  0  0  0  0  0  0  0
  151.1702  143.1204  157.7741 N   0  0  0  0  0  0  0  0  0  0  0  0
  150.0295  143.5017  158.5976 C   0  0  0  0  0  0  0  0  0  0  0  0
  150.4182  144.6667  159.5237 C   0  0  0  0  0  0  0  0  0  0  0  0
  151.5511  144.2963  160.3048 O   0  0  0  0  0  0  0  0  0  0  0  0
  152.6842  143.9921  159.4962 C   0  0  0  0  0  0  0  0  0  0  0  0
  152.3526  142.8116  158.5669 C   0  0  0  0  0  0  0  0  0  0  0  0
  151.5902  140.9166  156.7250 C   0  0  0  0  0  0  0  0  0  0  0  0
  155.6597  138.4127  156.5138 H   0  0  0  0  0  0  0  0  0  0  0  0
  155.9235  137.1989  157.6872 H   0  0  0  0  0  0  0  0  0  0  0  0
  151.9768  138.3406  154.5948 H   0  0  0  0  0  0  0  0  0  0  0  0
  151.3281  137.8722  156.1305 H   0  0  0  0  0  0  0  0  0  0  0  0
  149.7733  139.5463  154.1598 H   0  0  0  0  0  0  0  0  0  0  0  0
  148.5919  141.7801  154.4493 H   0  0  0  0  0  0  0  0  0  0  0  0
  149.1937  143.7913  157.9593 H   0  0  0  0  0  0  0  0  0  0  0  0
  149.6995  142.6517  159.1963 H   0  0  0  0  0  0  0  0  0  0  0  0
  150.6392  145.5664  158.9467 H   0  0  0  0  0  0  0  0  0  0  0  0
  149.5907  144.9102  160.1902 H   0  0  0  0  0  0  0  0  0  0  0  0
  152.9790  144.8708  158.9200 H   0  0  0  0  0  0  0  0  0  0  0  0
  153.5245  143.7380  160.1422 H   0  0  0  0  0  0  0  0  0  0  0  0
  152.1763  141.9124  159.1590 H   0  0  0  0  0  0  0  0  0  0  0  0
  153.1967  142.6046  157.9078 H   0  0  0  0  0  0  0  0  0  0  0  0
  152.4175  140.7242  157.3948 H   0  0  0  0  0  0  0  0  0  0  0  0
  149.3277  143.2414  156.0827 H   0  0  0  0  0  0  0  0  0  0  0  0
  1  2  1  0  0  0  0
  1 19  1  0  0  0  0
  1 20  1  0  0  0  0
  2  3  2  0  0  0  0
  2  4  2  0  0  0  0
  2  5  1  0  0  0  0
  5  6  1  0  0  0  0
  6  7  1  0  0  0  0
  6 21  1  0  0  0  0
  6 22  1  0  0  0  0
  7 18  1  0  0  0  0
  7  8  2  0  0  0  0
  8  9  1  0  0  0  0
  8 23  1  0  0  0  0
  9 10  2  0  0  0  0
  9 24  1  0  0  0  0
 10 11  1  0  0  0  0
 10 34  1  0  0  0  0
 11 12  1  0  0  0  0
 11 18  2  0  0  0  0
 12 17  1  0  0  0  0
 12 13  1  0  0  0  0
 13 14  1  0  0  0  0
 13 25  1  0  0  0  0
 13 26  1  0  0  0  0
 14 15  1  0  0  0  0
 14 27  1  0  0  0  0
 14 28  1  0  0  0  0
 15 16  1  0  0  0  0
 16 17  1  0  0  0  0
 16 29  1  0  0  0  0
 16 30  1  0  0  0  0
 17 31  1  0  0  0  0
 17 32  1  0  0  0  0
 18 33  1  0  0  0  0
M  CHG  1   5  -1
M  CHG  1  10   1
M  END
> <s_m_source_file>
AV-unprocessed.smi

> <i_m_source_file_index>
1473

> <i_lp_mmshare_version>
43012

> <i_f3d_flags>
0

> <s_epik_input>
W05IMl1TKD1PKSg9TylbTkhdW0NIMl1jMVtjSF1bY0hdbmMoW2NIXTEpTjJbQ0gyXVtDSDJdT1tDSDJdW0NIMl0y

> <s_epik_cmdline>
J2VwaWtfcHl0aG9uJywgJy1waCcsICc3LjAnLCAnLXRuJywgJzgnLCAnLW1hJywgJzIwMCcsICctbWV0YWxfYmluZGluZycsICctaW1hZScsICc8aW5maWxlLm1hZT4nLCAnLW9tYWUnLCAnPG91dGZpbGUubWFlPic=

> <r_epik_Ionization_Penalty>
0.903927

> <r_epik_Ionization_Penalty_Charging>
0.902194

> <r_epik_Ionization_Penalty_Neutral>
0.00173209

> <r_epik_State_Penalty>
1.45154

> <r_epik_Charging_Adjusted_Penalty>
2.35374

> <i_epik_Tot_Q>
0

> <i_epik_Tot_abs_Q>
2

> <r_epik_Metal_State_Penalty>
1.803

> <b_epik_Metal_Only>
0

> <s_lp_Force_Field>
OPLS_2005

> <r_lp_Energy>
13.8401

> <b_lp_Chiralities_Consistent>
1

> <s_lp_Variant>
AV-unprocessed.smi:1473-3

> <Gold.Version>
5.8.1

> <Gold.Id.Protein>
6NUR|6NUR_protein|mol2

> <Gold.PLP.Fitness>
46.1437

> <Gold.PLP.PLP>
-32.0916

> <Gold.PLP.part.hbond>
-4.0000

> <Gold.PLP.part.metal>
0.0000

> <Gold.PLP.part.buried>
-5.1939

> <Gold.PLP.part.nonpolar>
-24.0493

> <Gold.PLP.part.repulsive>
0.3295

> <Gold.PLP.ligand.clash>
0.0000

> <Gold.PLP.ligand.torsion>
0.9926

> <Gold.PLP.Chemscore.Hbond>
5.0000

> <Gold.PLP.Chemscore.CHOScore>
0.0000

> <Gold.PLP.Chemscore.Metal>
0.0000

> <Gold.Chemscore.Hbonds>
donor molecule, donor type, donor heavy atom, donor atom, acceptor molecule, acceptor atom, score
      L1  H    10    34       P1  8028  2.00
      P1  H  7997  8009       L1     5  2.00
      P1  H 10752 10764       L1     3  1.00

> <Gold.PLP.Chemscore.Internal.Correction>
1.0372

> <Gold.Rescore>
     Score         DG    S(hbond)    S(metal)    S(lipo)     H(rot)  DE(clash)    DE(int)     intcor
     18.13     -18.91       2.90        0.00      73.70       1.91       0.01       0.77       ----

> <Gold.Chemscore.Fitness>
18.1299

> <Gold.Chemscore.DG>
-18.9091

> <Gold.Chemscore.ZeroCoef>
-5.4800

> <Gold.Chemscore.Hbond>
2.9047

> <Gold.Chemscore.Metal>
0.0000

> <Gold.Chemscore.Lipo>
73.6956

> <Gold.Chemscore.Internal_Hbond>
0.0000

> <Gold.Chemscore.DEClash>
0.0099

> <Gold.Chemscore.DEInternal>
0.7693

> <Gold.Chemscore.Rot>
1.9121

> <Gold.Chemscore.Internal.Correction>
   9.000000E+99

> <Gold.Chemscore.Hbonds>
donor molecule, donor type, donor heavy atom, donor atom, acceptor molecule, acceptor atom, score
      L1  H    10    34       P1  8028  0.97
      P1  H  7997  8009       L1     5  0.52
      P1  H 10752 10764       L1     3  1.00

> <Gold.Chemscore.Hbond.Weighted>
-9.7018

> <Gold.Chemscore.Metal.Weighted>
-0.0000

> <Gold.Chemscore.Lipo.Weighted>
-8.6224

> <Gold.Chemscore.Internal_Hbond.Weighted>
0.0000

> <Gold.Chemscore.DEClash.Weighted>
0.0099

> <Gold.Chemscore.DEInternal.Weighted>
0.7693

> <Gold.Chemscore.Rot.Weighted>
4.8950

> <Gold.Chemscore.Internal.Correction.Weighted>
   9.000000E+99

> <Gold.Protein.RotatedTorsions>
[ 6907 6896 6895 6894 ] final -123.43 input  -60.11 | X-H torsion
[ 7974 7965 7964 7962 ] final -107.97 input  175.53 | X-H torsion
[ 8008 7997 7996 7995 ] final -167.94 input   59.86 | X-H torsion
[ 10167 10162 10161 10158 ] final -144.14 input  -65.29 | X-H torsion
[ 10718 10713 10712 10709 ] final -179.29 input   66.30 | X-H torsion
[ 10763 10752 10751 10750 ] final    7.85 input  -60.55 | X-H torsion
[ 11005 11000 10999 10996 ] final   69.56 input  -57.11 | X-H torsion

> <Gold.Protein.ActiveResidues>
 VAL166  LYS551  ARG553  GLY616  TRP617  ASP618  TYR619  PRO620  LYS621  CYS622 
 ASP623  PHE694  ASN695  SER759  ASP760  ASP761  ALA762  ILE779  LEU786  VAL792 
 PHE793  MET794  SER795  GLU796  ALA797  LYS798  CYS799  TRP800  GLU811  SER814 

> <Gold.Protein.RotatedAtoms>
  150.8671  133.7559  159.2973 H   0  0  0  0  0  0  0  0  0  0  0  0  # atno 6907 bound_to 6896
  151.5183  135.1065  159.9881 H   0  0  0  0  0  0  0  0  0  0  0  0  # atno 6908 bound_to 6896
  152.4668  133.7897  159.6951 H   0  0  0  0  0  0  0  0  0  0  0  0  # atno 6909 bound_to 6896
  145.1987  140.9047  143.3382 H   0  0  0  0  0  0  0  0  0  0  0  0  # atno 7974 bound_to 7965
  155.8846  140.1014  157.1462 H   0  0  0  0  0  0  0  0  0  0  0  0  # atno 8008 bound_to 7997
  154.4008  140.1322  156.4302 H   0  0  0  0  0  0  0  0  0  0  0  0  # atno 8009 bound_to 7997
  155.7604  140.3463  155.5197 H   0  0  0  0  0  0  0  0  0  0  0  0  # atno 8010 bound_to 7997
  139.7927  143.7944  152.2651 H   0  0  0  0  0  0  0  0  0  0  0  0  # atno 10167 bound_to 10162
  156.8569  130.9738  151.3087 H   0  0  0  0  0  0  0  0  0  0  0  0  # atno 10718 bound_to 10713
  153.2316  135.6893  153.7883 H   0  0  0  0  0  0  0  0  0  0  0  0  # atno 10763 bound_to 10752
  153.7045  135.3292  155.3233 H   0  0  0  0  0  0  0  0  0  0  0  0  # atno 10764 bound_to 10752
  154.8316  135.4576  154.1204 H   0  0  0  0  0  0  0  0  0  0  0  0  # atno 10765 bound_to 10752
  139.9647  134.7002  156.0572 H   0  0  0  0  0  0  0  0  0  0  0  0  # atno 11005 bound_to 11000
  144.9969  139.3635  143.6187 LP  0  0  0  0  0  0  0  0  0  0  0  0  # atno 17320 bound_to 7965
  146.3422  139.9175  142.8771 LP  0  0  0  0  0  0  0  0  0  0  0  0  # atno 17321 bound_to 7965
  139.8040  144.7363  150.9787 LP  0  0  0  0  0  0  0  0  0  0  0  0  # atno 17342 bound_to 10162
  140.7820  143.4317  151.0685 LP  0  0  0  0  0  0  0  0  0  0  0  0  # atno 17343 bound_to 10162
  157.6272  130.8701  149.9210 LP  0  0  0  0  0  0  0  0  0  0  0  0  # atno 17370 bound_to 10713
  156.0798  130.3674  150.0604 LP  0  0  0  0  0  0  0  0  0  0  0  0  # atno 17371 bound_to 10713
  141.1326  133.6583  156.3505 LP  0  0  0  0  0  0  0  0  0  0  0  0  # atno 17394 bound_to 11000
  140.5423  134.6108  157.5383 LP  0  0  0  0  0  0  0  0  0  0  0  0  # atno 17395 bound_to 11000

$$$$
