AV-unprocessed.smi:2061|AV-procd|sdf|8380|dock3
  -GOLD-   2272011 53D 1   1.00000     0.00000
 Structure written by MMmdl.
 45 46  0  0  0  0  0  0  0  0  3 V2000
  147.4522  136.5716  163.2687 C   0  0  0  0  0  0  0  0  0  0  0  0
  147.5741  136.0976  161.8607 C   0  0  0  0  0  0  0  0  0  0  0  0
  147.4722  134.8627  161.2856 C   0  0  0  0  0  0  0  0  0  0  0  0
  147.6884  135.1282  159.9058 C   0  0  0  0  0  0  0  0  0  0  0  0
  147.6934  134.2168  158.9205 N   0  5  0  0  0  0  0  0  0  0  0  0
  148.4140  134.4342  157.7969 C   0  0  0  0  0  0  0  0  0  0  0  0
  149.6438  134.4696  157.7104 O   0  0  0  0  0  0  0  0  0  0  0  0
  147.6625  134.6322  156.7044 N   0  0  0  0  0  0  0  0  0  0  0  0
  148.1675  134.9176  155.3644 C   0  0  0  0  0  0  0  0  0  0  0  0
  148.0427  133.7091  154.3966 C   0  0  2  0  0  0  0  0  0  0  0  0
  149.4254  133.0376  154.2072 C   0  0  0  0  0  0  0  0  0  0  0  0
  147.4061  134.1289  153.1048 N   0  3  1  0  0  0  0  0  0  0  0  0
  147.1305  133.0234  152.1453 C   0  0  0  0  0  0  0  0  0  0  0  0
  146.5054  133.5540  150.8407 C   0  0  1  0  0  0  0  0  0  0  0  0
  146.1294  132.4206  149.8794 C   0  0  0  0  0  0  0  0  0  0  0  0
  145.3238  134.2825  151.1436 O   0  0  0  0  0  0  0  0  0  0  0  0
  145.5869  135.4106  151.9661 C   0  0  1  0  0  0  0  0  0  0  0  0
  144.2756  136.1841  152.1455 C   0  0  0  0  0  0  0  0  0  0  0  0
  146.1638  134.9240  153.3082 C   0  0  0  0  0  0  0  0  0  0  0  0
  147.9214  136.4081  159.6672 N   0  0  0  0  0  0  0  0  0  0  0  0
  147.8428  137.0380  160.9150 O   0  0  0  0  0  0  0  0  0  0  0  0
  148.3541  136.3363  163.8334 H   0  0  0  0  0  0  0  0  0  0  0  0
  146.6072  136.0942  163.7648 H   0  0  0  0  0  0  0  0  0  0  0  0
  147.2998  137.6505  163.3080 H   0  0  0  0  0  0  0  0  0  0  0  0
  147.2698  133.9203  161.7723 H   0  0  0  0  0  0  0  0  0  0  0  0
  146.6601  134.5891  156.8180 H   0  0  0  0  0  0  0  0  0  0  0  0
  147.6434  135.7989  154.9982 H   0  0  0  0  0  0  0  0  0  0  0  0
  149.2143  135.2075  155.4582 H   0  0  0  0  0  0  0  0  0  0  0  0
  147.3904  132.9604  154.8488 H   0  0  0  0  0  0  0  0  0  0  0  0
  149.8853  132.7796  155.1608 H   0  0  0  0  0  0  0  0  0  0  0  0
  150.1181  133.6933  153.6784 H   0  0  0  0  0  0  0  0  0  0  0  0
  149.3530  132.0991  153.6579 H   0  0  0  0  0  0  0  0  0  0  0  0
  148.0512  132.5073  151.8757 H   0  0  0  0  0  0  0  0  0  0  0  0
  146.4690  132.2930  152.6144 H   0  0  0  0  0  0  0  0  0  0  0  0
  147.2139  134.2136  150.3362 H   0  0  0  0  0  0  0  0  0  0  0  0
  147.0055  131.8345  149.6006 H   0  0  0  0  0  0  0  0  0  0  0  0
  145.6896  132.8165  148.9635 H   0  0  0  0  0  0  0  0  0  0  0  0
  145.4036  131.7435  150.3311 H   0  0  0  0  0  0  0  0  0  0  0  0
  146.3073  136.0624  151.4686 H   0  0  0  0  0  0  0  0  0  0  0  0
  144.4233  137.0710  152.7622 H   0  0  0  0  0  0  0  0  0  0  0  0
  143.5149  135.5665  152.6238 H   0  0  0  0  0  0  0  0  0  0  0  0
  143.8816  136.5117  151.1832 H   0  0  0  0  0  0  0  0  0  0  0  0
  145.4260  134.3139  153.8322 H   0  0  0  0  0  0  0  0  0  0  0  0
  146.3510  135.7945  153.9332 H   0  0  0  0  0  0  0  0  0  0  0  0
  148.0720  134.7341  152.6465 H   0  0  0  0  0  0  0  0  0  0  0  0
  1  2  1  0  0  0  0
  1 22  1  0  0  0  0
  1 23  1  0  0  0  0
  1 24  1  0  0  0  0
  2 21  1  0  0  0  0
  2  3  2  0  0  0  0
  3  4  1  0  0  0  0
  3 25  1  0  0  0  0
  4  5  1  0  0  0  0
  4 20  2  0  0  0  0
  5  6  1  0  0  0  0
  6  7  2  0  0  0  0
  6  8  1  0  0  0  0
  8  9  1  0  0  0  0
  8 26  1  0  0  0  0
  9 10  1  0  0  0  0
  9 27  1  0  0  0  0
  9 28  1  0  0  0  0
 10 11  1  0  0  0  0
 10 12  1  0  0  0  0
 10 29  1  0  0  0  0
 11 30  1  0  0  0  0
 11 31  1  0  0  0  0
 11 32  1  0  0  0  0
 12 19  1  0  0  0  0
 12 13  1  0  0  0  0
 12 45  1  0  0  0  0
 13 14  1  0  0  0  0
 13 33  1  0  0  0  0
 13 34  1  0  0  0  0
 14 15  1  0  0  0  0
 14 16  1  0  0  0  0
 14 35  1  0  0  0  0
 15 36  1  0  0  0  0
 15 37  1  0  0  0  0
 15 38  1  0  0  0  0
 16 17  1  0  0  0  0
 17 18  1  0  0  0  0
 17 19  1  0  0  0  0
 17 39  1  0  0  0  0
 18 40  1  0  0  0  0
 18 41  1  0  0  0  0
 18 42  1  0  0  0  0
 19 43  1  0  0  0  0
 19 44  1  0  0  0  0
 20 21  1  0  0  0  0
M  CHG  1   5  -1
M  CHG  1  12   1
M  END
> <s_m_source_file>
AV-unprocessed.smi

> <i_m_source_file_index>
2061

> <i_lp_mmshare_version>
43012

> <i_f3d_flags>
0

> <s_epik_input>
W0NIM11jMVtjSF1jKG5vMSlbTkhdQyg9TylbTkhdW0NIMl1bQ0BIXShbQ0gzXSlOMltDSDJdW0NAQEhdKFtDSDNdKU9bQ0BASF0oW0NIM10pW0NIMl0y

> <s_epik_cmdline>
J2VwaWtfcHl0aG9uJywgJy1waCcsICc3LjAnLCAnLXRuJywgJzgnLCAnLW1hJywgJzIwMCcsICctbWV0YWxfYmluZGluZycsICctaW1hZScsICc8aW5maWxlLm1hZT4nLCAnLW9tYWUnLCAnPG91dGZpbGUubWFlPic=

> <r_epik_Ionization_Penalty>
6.73511

> <r_epik_Ionization_Penalty_Charging>
6.73502

> <r_epik_Ionization_Penalty_Neutral>
9.50841e-05

> <r_epik_State_Penalty>
6.93549

> <r_epik_Charging_Adjusted_Penalty>
13.6705

> <i_epik_Tot_Q>
0

> <i_epik_Tot_abs_Q>
2

> <r_epik_Metal_State_Penalty>
2.87211

> <b_epik_Metal_Only>
1

> <s_lp_Force_Field>
OPLS_2005

> <r_lp_Energy>
7.84015

> <b_lp_Chiralities_Consistent>
1

> <s_lp_Variant>
AV-unprocessed.smi:2061-21

> <Gold.Version>
5.8.1

> <Gold.Id.Protein>
6NUR|6NUR_protein|mol2

> <Gold.PLP.Fitness>
44.6667

> <Gold.PLP.PLP>
-33.7334

> <Gold.PLP.part.hbond>
-4.0000

> <Gold.PLP.part.metal>
0.0000

> <Gold.PLP.part.buried>
-5.3219

> <Gold.PLP.part.nonpolar>
-25.9843

> <Gold.PLP.part.repulsive>
0.1467

> <Gold.PLP.ligand.clash>
0.0000

> <Gold.PLP.ligand.torsion>
1.5830

> <Gold.PLP.Chemscore.Hbond>
4.6320

> <Gold.PLP.Chemscore.CHOScore>
0.0000

> <Gold.PLP.Chemscore.Metal>
0.0000

> <Gold.Chemscore.Hbonds>
donor molecule, donor type, donor heavy atom, donor atom, acceptor molecule, acceptor atom, score
      L1  H    12    45       P1  7948  2.00
      P1  H  6896  6907       L1     7  0.96
      P1  H  6931  6943       L1    21  0.96
      P1  H  6934  6947       L1    21  0.73

> <Gold.PLP.Chemscore.Internal.Correction>
0.2033

> <Gold.Rescore>
     Score         DG    S(hbond)    S(metal)    S(lipo)     H(rot)  DE(clash)    DE(int)     intcor
     18.46     -20.27       3.06        0.00      73.06       1.56       0.17       1.65       ----

> <Gold.Chemscore.Fitness>
18.4614

> <Gold.Chemscore.DG>
-20.2749

> <Gold.Chemscore.ZeroCoef>
-5.4800

> <Gold.Chemscore.Hbond>
3.0621

> <Gold.Chemscore.Metal>
0.0000

> <Gold.Chemscore.Lipo>
73.0637

> <Gold.Chemscore.Internal_Hbond>
0.0000

> <Gold.Chemscore.DEClash>
0.1674

> <Gold.Chemscore.DEInternal>
1.6461

> <Gold.Chemscore.Rot>
1.5550

> <Gold.Chemscore.Internal.Correction>
   9.000000E+99

> <Gold.Chemscore.Hbonds>
donor molecule, donor type, donor heavy atom, donor atom, acceptor molecule, acceptor atom, score
      L1  H    12    45       P1  7948  0.65
      P1  H  6896  6907       L1     7  0.86
      P1  H  6931  6943       L1    21  0.31
      P1  H  6934  6947       L1    21  0.67

> <Gold.Chemscore.Hbond.Weighted>
-10.2273

> <Gold.Chemscore.Metal.Weighted>
-0.0000

> <Gold.Chemscore.Lipo.Weighted>
-8.5485

> <Gold.Chemscore.Internal_Hbond.Weighted>
0.0000

> <Gold.Chemscore.DEClash.Weighted>
0.1674

> <Gold.Chemscore.DEInternal.Weighted>
1.6461

> <Gold.Chemscore.Rot.Weighted>
3.9809

> <Gold.Chemscore.Internal.Correction.Weighted>
   9.000000E+99

> <Gold.Protein.RotatedTorsions>
[ 6907 6896 6895 6894 ] final -113.89 input  -60.11 | X-H torsion
[ 7974 7965 7964 7962 ] final -123.23 input  175.53 | X-H torsion
[ 8008 7997 7996 7995 ] final   57.97 input   59.86 | X-H torsion
[ 10167 10162 10161 10158 ] final  107.05 input  -65.29 | X-H torsion
[ 10718 10713 10712 10709 ] final  110.13 input   66.30 | X-H torsion
[ 10763 10752 10751 10750 ] final  -74.91 input  -60.55 | X-H torsion
[ 11005 11000 10999 10996 ] final   29.80 input  -57.11 | X-H torsion

> <Gold.Protein.ActiveResidues>
 VAL166  LYS551  ARG553  GLY616  TRP617  ASP618  TYR619  PRO620  LYS621  CYS622 
 ASP623  PHE694  ASN695  SER759  ASP760  ASP761  ALA762  ILE779  LEU786  VAL792 
 PHE793  MET794  SER795  GLU796  ALA797  LYS798  CYS799  TRP800  GLU811  SER814 

> <Gold.Protein.RotatedAtoms>
  150.7862  133.8880  159.3304 H   0  0  0  0  0  0  0  0  0  0  0  0  # atno 6907 bound_to 6896
  151.6730  135.0971  160.0211 H   0  0  0  0  0  0  0  0  0  0  0  0  # atno 6908 bound_to 6896
  152.3926  133.6662  159.6285 H   0  0  0  0  0  0  0  0  0  0  0  0  # atno 6909 bound_to 6896
  145.0209  140.7987  143.4382 H   0  0  0  0  0  0  0  0  0  0  0  0  # atno 7974 bound_to 7965
  155.5424  140.3484  155.4450 H   0  0  0  0  0  0  0  0  0  0  0  0  # atno 8008 bound_to 7997
  156.0642  140.1347  156.9932 H   0  0  0  0  0  0  0  0  0  0  0  0  # atno 8009 bound_to 7997
  154.4495  140.0979  156.6547 H   0  0  0  0  0  0  0  0  0  0  0  0  # atno 8010 bound_to 7997
  139.6959  144.7101  151.1269 H   0  0  0  0  0  0  0  0  0  0  0  0  # atno 10167 bound_to 10162
  157.6509  131.0927  150.6556 H   0  0  0  0  0  0  0  0  0  0  0  0  # atno 10718 bound_to 10713
  154.4795  135.5848  153.6379 H   0  0  0  0  0  0  0  0  0  0  0  0  # atno 10763 bound_to 10752
  152.9845  135.6086  154.3264 H   0  0  0  0  0  0  0  0  0  0  0  0  # atno 10764 bound_to 10752
  154.3154  135.2844  155.2525 H   0  0  0  0  0  0  0  0  0  0  0  0  # atno 10765 bound_to 10752
  140.3011  134.2755  155.7753 H   0  0  0  0  0  0  0  0  0  0  0  0  # atno 11005 bound_to 11000
  145.1897  139.2307  143.5249 LP  0  0  0  0  0  0  0  0  0  0  0  0  # atno 17320 bound_to 7965
  146.3485  140.1690  142.8590 LP  0  0  0  0  0  0  0  0  0  0  0  0  # atno 17321 bound_to 7965
  140.7696  143.5493  150.9223 LP  0  0  0  0  0  0  0  0  0  0  0  0  # atno 17342 bound_to 10162
  139.9172  143.6649  152.3104 LP  0  0  0  0  0  0  0  0  0  0  0  0  # atno 17343 bound_to 10162
  156.6867  130.4583  149.5611 LP  0  0  0  0  0  0  0  0  0  0  0  0  # atno 17370 bound_to 10713
  156.1890  130.6548  151.1040 LP  0  0  0  0  0  0  0  0  0  0  0  0  # atno 17371 bound_to 10713
  141.2128  133.7647  156.9769 LP  0  0  0  0  0  0  0  0  0  0  0  0  # atno 17394 bound_to 11000
  140.1108  134.9478  157.2062 LP  0  0  0  0  0  0  0  0  0  0  0  0  # atno 17395 bound_to 11000

$$$$
