AV-unprocessed.smi:217|AV-procd|sdf|1661|dock10
  -GOLD-   2262020 63D 1   1.00000     0.00000
 Structure written by MMmdl.
 57 61  0  0  0  0  0  0  0  0  1 V2000
  146.3876  132.0700  151.1471 O   0  0  0  0  0  0  0  0  0  0  0  0
  146.2076  133.3552  150.5885 C   0  0  0  0  0  0  0  0  0  0  0  0
  145.3771  134.2567  151.5168 C   0  0  0  0  0  0  0  0  0  0  0  0
  143.9014  133.8083  151.4793 C   0  0  0  0  0  0  0  0  0  0  0  0
  143.4262  133.6908  150.1535 O   0  0  0  0  0  0  0  0  0  0  0  0
  145.9635  134.4724  152.9302 C   0  0  0  0  0  0  0  0  0  0  0  0
  145.5782  135.9517  152.8568 C   0  0  0  0  0  0  0  0  0  0  0  0
  146.3692  136.9578  153.5031 N   0  0  0  0  0  0  0  0  0  0  0  0
  146.2090  138.3214  153.4039 C   0  0  0  0  0  0  0  0  0  0  0  0
  147.0241  139.0323  154.1345 N   0  0  0  0  0  0  0  0  0  0  0  0
  147.7851  138.0877  154.8133 C   0  0  0  0  0  0  0  0  0  0  0  0
  148.8320  138.1623  155.7761 C   0  0  0  0  0  0  0  0  0  0  0  0
  149.3385  139.3404  156.2238 N   0  0  0  0  0  0  0  0  0  0  0  0
  150.5831  139.2206  156.9816 C   0  0  0  0  0  0  0  0  0  0  0  0
  151.2804  140.5844  157.1145 C   0  0  0  0  0  0  0  0  0  0  0  0
  150.3397  141.6425  157.7257 C   0  0  0  0  0  0  0  0  0  0  0  0
  151.0309  143.0161  157.8422 C   0  0  1  0  0  0  0  0  0  0  0  0
  150.2940  144.0338  158.7144 C   0  0  0  0  0  0  0  0  0  0  0  0
  151.3940  144.9813  159.1653 C   0  0  0  0  0  0  0  0  0  0  0  0
  152.6866  144.2071  158.8925 C   0  0  0  0  0  0  0  0  0  0  0  0
  152.2698  142.8995  158.5248 O   0  0  0  0  0  0  0  0  0  0  0  0
  149.0546  141.7107  156.8758 C   0  0  0  0  0  0  0  0  0  0  0  0
  148.3935  140.3289  156.7461 C   0  0  0  0  0  0  0  0  0  0  0  0
  149.3239  136.9872  156.2540 N   0  0  0  0  0  0  0  0  0  0  0  0
  148.8349  135.8222  155.8201 C   0  0  0  0  0  0  0  0  0  0  0  0
  147.8697  135.6043  154.9258 N   0  0  0  0  0  0  0  0  0  0  0  0
  147.3695  136.7771  154.4422 C   0  0  0  0  0  0  0  0  0  0  0  0
  145.6060  135.7738  151.3369 C   0  0  0  0  0  0  0  0  0  0  0  0
  147.2581  131.7693  150.9347 H   0  0  0  0  0  0  0  0  0  0  0  0
  147.1842  133.7893  150.3737 H   0  0  0  0  0  0  0  0  0  0  0  0
  145.7115  133.2316  149.6254 H   0  0  0  0  0  0  0  0  0  0  0  0
  143.7722  132.8398  151.9624 H   0  0  0  0  0  0  0  0  0  0  0  0
  143.2590  134.5019  152.0223 H   0  0  0  0  0  0  0  0  0  0  0  0
  142.5359  134.0068  150.1251 H   0  0  0  0  0  0  0  0  0  0  0  0
  145.4670  133.9185  153.7278 H   0  0  0  0  0  0  0  0  0  0  0  0
  147.0448  134.3270  152.9719 H   0  0  0  0  0  0  0  0  0  0  0  0
  144.5565  136.1011  153.2100 H   0  0  0  0  0  0  0  0  0  0  0  0
  145.4657  138.7771  152.7658 H   0  0  0  0  0  0  0  0  0  0  0  0
  150.3526  138.8243  157.9713 H   0  0  0  0  0  0  0  0  0  0  0  0
  151.2679  138.5130  156.5158 H   0  0  0  0  0  0  0  0  0  0  0  0
  152.1746  140.4734  157.7281 H   0  0  0  0  0  0  0  0  0  0  0  0
  151.6195  140.9147  156.1317 H   0  0  0  0  0  0  0  0  0  0  0  0
  150.0676  141.3128  158.7296 H   0  0  0  0  0  0  0  0  0  0  0  0
  151.2129  143.4376  156.8515 H   0  0  0  0  0  0  0  0  0  0  0  0
  149.4903  144.5438  158.1826 H   0  0  0  0  0  0  0  0  0  0  0  0
  149.8605  143.5395  159.5850 H   0  0  0  0  0  0  0  0  0  0  0  0
  151.3772  145.9100  158.5935 H   0  0  0  0  0  0  0  0  0  0  0  0
  151.2855  145.2341  160.2204 H   0  0  0  0  0  0  0  0  0  0  0  0
  153.2349  144.6564  158.0634 H   0  0  0  0  0  0  0  0  0  0  0  0
  153.3465  144.1761  159.7597 H   0  0  0  0  0  0  0  0  0  0  0  0
  148.3407  142.4076  157.3155 H   0  0  0  0  0  0  0  0  0  0  0  0
  149.2899  142.0949  155.8824 H   0  0  0  0  0  0  0  0  0  0  0  0
  147.5288  140.4053  156.0855 H   0  0  0  0  0  0  0  0  0  0  0  0
  148.0285  139.9995  157.7200 H   0  0  0  0  0  0  0  0  0  0  0  0
  149.2818  134.9381  156.2500 H   0  0  0  0  0  0  0  0  0  0  0  0
  146.5817  136.0072  150.9060 H   0  0  0  0  0  0  0  0  0  0  0  0
  144.8104  136.2972  150.8057 H   0  0  0  0  0  0  0  0  0  0  0  0
  1  2  1  0  0  0  0
  1 29  1  0  0  0  0
  2  3  1  0  0  0  0
  2 30  1  0  0  0  0
  2 31  1  0  0  0  0
  3 28  1  0  0  0  0
  3  4  1  0  0  0  0
  3  6  1  0  0  0  0
  4  5  1  0  0  0  0
  4 32  1  0  0  0  0
  4 33  1  0  0  0  0
  5 34  1  0  0  0  0
  6  7  1  0  0  0  0
  6 35  1  0  0  0  0
  6 36  1  0  0  0  0
  7  8  1  0  0  0  0
  7 28  1  0  0  0  0
  7 37  1  0  0  0  0
  8 27  1  0  0  0  0
  8  9  1  0  0  0  0
  9 10  2  0  0  0  0
  9 38  1  0  0  0  0
 10 11  1  0  0  0  0
 11 27  2  0  0  0  0
 11 12  1  0  0  0  0
 12 13  1  0  0  0  0
 12 24  2  0  0  0  0
 13 23  1  0  0  0  0
 13 14  1  0  0  0  0
 14 15  1  0  0  0  0
 14 39  1  0  0  0  0
 14 40  1  0  0  0  0
 15 16  1  0  0  0  0
 15 41  1  0  0  0  0
 15 42  1  0  0  0  0
 16 17  1  0  0  0  0
 16 22  1  0  0  0  0
 16 43  1  0  0  0  0
 17 21  1  0  0  0  0
 17 18  1  0  0  0  0
 17 44  1  0  0  0  0
 18 19  1  0  0  0  0
 18 45  1  0  0  0  0
 18 46  1  0  0  0  0
 19 20  1  0  0  0  0
 19 47  1  0  0  0  0
 19 48  1  0  0  0  0
 20 21  1  0  0  0  0
 20 49  1  0  0  0  0
 20 50  1  0  0  0  0
 22 23  1  0  0  0  0
 22 51  1  0  0  0  0
 22 52  1  0  0  0  0
 23 53  1  0  0  0  0
 23 54  1  0  0  0  0
 24 25  1  0  0  0  0
 25 26  2  0  0  0  0
 25 55  1  0  0  0  0
 26 27  1  0  0  0  0
 28 56  1  0  0  0  0
 28 57  1  0  0  0  0
M  END
> <s_m_source_file>
AV-unprocessed.smi

> <i_m_source_file_index>
217

> <i_lp_mmshare_version>
43012

> <i_f3d_flags>
0

> <s_epik_input>
W09IXVtDSDJdQzEoW0NIMl1bT0hdKVtDSDJdW0NIXShbQ0gyXTEpbihbY0hdbjIpYyhjMjMpbltjSF1uYzNONFtDSDJdW0NIMl1bQ0hdKFtDSDJdW0NIMl00KVtDQEBIXTVbQ0gyXVtDSDJdW0NIMl1PNQ==

> <s_epik_cmdline>
J2VwaWtfcHl0aG9uJywgJy1waCcsICc3LjAnLCAnLXRuJywgJzgnLCAnLW1hJywgJzIwMCcsICctbWV0YWxfYmluZGluZycsICctaW1hZScsICc8aW5maWxlLm1hZT4nLCAnLW9tYWUnLCAnPG91dGZpbGUubWFlPic=

> <r_lp_tautomer_probability>
1

> <r_epik_Ionization_Penalty>
0.0037022

> <r_epik_Ionization_Penalty_Charging>
0

> <r_epik_Ionization_Penalty_Neutral>
0.0037022

> <r_epik_State_Penalty>
0.00257654

> <r_epik_Charging_Adjusted_Penalty>
0.00257654

> <i_epik_Tot_Q>
0

> <i_epik_Tot_abs_Q>
0

> <r_epik_Metal_State_Penalty>
-0

> <b_epik_Metal_Only>
0

> <s_lp_Force_Field>
OPLS_2005

> <r_lp_Energy>
55.0996

> <b_lp_Chiralities_Consistent>
1

> <s_lp_Variant>
AV-unprocessed.smi:217-2

> <Gold.Version>
5.8.1

> <Gold.Id.Protein>
6NUR|6NUR_protein|mol2

> <Gold.PLP.Fitness>
43.7258

> <Gold.PLP.PLP>
-35.2546

> <Gold.PLP.part.hbond>
-2.0000

> <Gold.PLP.part.metal>
0.0000

> <Gold.PLP.part.buried>
-4.5454

> <Gold.PLP.part.nonpolar>
-29.2489

> <Gold.PLP.part.repulsive>
0.2907

> <Gold.PLP.ligand.clash>
0.0000

> <Gold.PLP.ligand.torsion>
0.7090

> <Gold.PLP.Chemscore.Hbond>
2.0000

> <Gold.PLP.Chemscore.CHOScore>
1.0000

> <Gold.PLP.Chemscore.Metal>
0.0000

> <Gold.Chemscore.Hbonds>
donor molecule, donor type, donor heavy atom, donor atom, acceptor molecule, acceptor atom, score
      L1  H     1    29       P1 10747  0.94
      L1  H     5    34       P1 10186  1.00
      L1  C     9    38       P1 10175  1.00

> <Gold.PLP.Chemscore.Internal.Correction>
0.8893

> <Gold.Rescore>
     Score         DG    S(hbond)    S(metal)    S(lipo)     H(rot)  DE(clash)    DE(int)     intcor
     12.26     -15.17       1.98        0.00      98.14       3.28       1.23       1.68       ----

> <Gold.Chemscore.Fitness>
12.2649

> <Gold.Chemscore.DG>
-15.1740

> <Gold.Chemscore.ZeroCoef>
-5.4800

> <Gold.Chemscore.Hbond>
1.9824

> <Gold.Chemscore.Metal>
0.0000

> <Gold.Chemscore.Lipo>
98.1378

> <Gold.Chemscore.Internal_Hbond>
0.0000

> <Gold.Chemscore.DEClash>
1.2281

> <Gold.Chemscore.DEInternal>
1.6811

> <Gold.Chemscore.Rot>
3.2848

> <Gold.Chemscore.Internal.Correction>
   9.000000E+99

> <Gold.Chemscore.Hbonds>
donor molecule, donor type, donor heavy atom, donor atom, acceptor molecule, acceptor atom, score
      L1  H     1    29       P1 10747  0.90
      L1  H     5    34       P1 10186  0.98

> <Gold.Chemscore.Hbond.Weighted>
-6.6211

> <Gold.Chemscore.Metal.Weighted>
-0.0000

> <Gold.Chemscore.Lipo.Weighted>
-11.4821

> <Gold.Chemscore.Internal_Hbond.Weighted>
0.0000

> <Gold.Chemscore.DEClash.Weighted>
1.2281

> <Gold.Chemscore.DEInternal.Weighted>
1.6811

> <Gold.Chemscore.Rot.Weighted>
8.4092

> <Gold.Chemscore.Internal.Correction.Weighted>
   9.000000E+99

> <Gold.Protein.RotatedTorsions>
[ 6907 6896 6895 6894 ] final -111.23 input  -60.11 | X-H torsion
[ 7974 7965 7964 7962 ] final   12.68 input  175.53 | X-H torsion
[ 8008 7997 7996 7995 ] final  144.01 input   59.86 | X-H torsion
[ 10167 10162 10161 10158 ] final  -53.04 input  -65.29 | X-H torsion
[ 10718 10713 10712 10709 ] final  -91.33 input   66.30 | X-H torsion
[ 10763 10752 10751 10750 ] final  -54.24 input  -60.55 | X-H torsion
[ 11005 11000 10999 10996 ] final  153.56 input  -57.11 | X-H torsion

> <Gold.Protein.ActiveResidues>
 VAL166  LYS551  ARG553  GLY616  TRP617  ASP618  TYR619  PRO620  LYS621  CYS622 
 ASP623  PHE694  ASN695  SER759  ASP760  ASP761  ALA762  ILE779  LEU786  VAL792 
 PHE793  MET794  SER795  GLU796  ALA797  LYS798  CYS799  TRP800  GLU811  SER814 

> <Gold.Protein.RotatedAtoms>
  150.7677  133.9265  159.3413 H   0  0  0  0  0  0  0  0  0  0  0  0  # atno 6907 bound_to 6896
  151.7159  135.0902  160.0285 H   0  0  0  0  0  0  0  0  0  0  0  0  # atno 6908 bound_to 6896
  152.3680  133.6344  159.6101 H   0  0  0  0  0  0  0  0  0  0  0  0  # atno 6909 bound_to 6896
  146.2346  139.9300  142.8497 H   0  0  0  0  0  0  0  0  0  0  0  0  # atno 7974 bound_to 7965
  156.2918  140.2247  156.4983 H   0  0  0  0  0  0  0  0  0  0  0  0  # atno 8008 bound_to 7997
  154.7711  140.0466  157.1074 H   0  0  0  0  0  0  0  0  0  0  0  0  # atno 8009 bound_to 7997
  154.9872  140.3085  155.4924 H   0  0  0  0  0  0  0  0  0  0  0  0  # atno 8010 bound_to 7997
  140.6506  143.2563  151.4734 H   0  0  0  0  0  0  0  0  0  0  0  0  # atno 10167 bound_to 10162
  155.9993  130.4944  150.5458 H   0  0  0  0  0  0  0  0  0  0  0  0  # atno 10718 bound_to 10713
  154.1716  135.6458  153.5011 H   0  0  0  0  0  0  0  0  0  0  0  0  # atno 10763 bound_to 10752
  153.0083  135.5385  154.6606 H   0  0  0  0  0  0  0  0  0  0  0  0  # atno 10764 bound_to 10752
  154.5947  135.2937  155.0571 H   0  0  0  0  0  0  0  0  0  0  0  0  # atno 10765 bound_to 10752
  140.1408  134.8740  157.2329 H   0  0  0  0  0  0  0  0  0  0  0  0  # atno 11005 bound_to 11000
  145.2053  140.9872  143.4132 LP  0  0  0  0  0  0  0  0  0  0  0  0  # atno 17320 bound_to 7965
  144.9738  139.3853  143.6296 LP  0  0  0  0  0  0  0  0  0  0  0  0  # atno 17321 bound_to 7965
  139.5721  144.1905  152.1851 LP  0  0  0  0  0  0  0  0  0  0  0  0  # atno 17342 bound_to 10162
  140.1204  144.5378  150.6866 LP  0  0  0  0  0  0  0  0  0  0  0  0  # atno 17343 bound_to 10162
  157.3388  131.0713  151.1804 LP  0  0  0  0  0  0  0  0  0  0  0  0  # atno 17370 bound_to 10713
  157.2660  130.6681  149.5997 LP  0  0  0  0  0  0  0  0  0  0  0  0  # atno 17371 bound_to 10713
  140.2724  134.3445  155.7369 LP  0  0  0  0  0  0  0  0  0  0  0  0  # atno 17394 bound_to 11000
  141.2185  133.7431  156.9242 LP  0  0  0  0  0  0  0  0  0  0  0  0  # atno 17395 bound_to 11000

$$$$
