AV-unprocessed.smi:546|AV-procd|sdf|2884|dock1
  -GOLD-   2262023373D 1   1.00000     0.00000
 Structure written by MMmdl.
 52 54  0  0  0  0  0  0  0  0  1 V2000
  146.4200  138.1901  153.1778 C   0  0  0  0  0  0  0  0  0  0  0  0
  146.5686  136.9455  154.0553 C   0  0  0  0  0  0  0  0  0  0  0  0
  146.3447  137.3161  155.4035 O   0  0  0  0  0  0  0  0  0  0  0  0
  146.8428  136.3672  156.3309 C   0  0  0  0  0  0  0  0  0  0  0  0
  146.9415  136.9979  157.7280 C   0  0  0  0  0  0  0  0  0  0  0  0
  148.3220  137.0696  158.1924 N   0  0  0  0  0  0  0  0  0  0  0  0
  148.8381  136.5755  159.3461 C   0  0  0  0  0  0  0  0  0  0  0  0
  148.0309  135.9412  160.2857 N   0  0  0  0  0  0  0  0  0  0  0  0
  147.8935  134.4869  160.3086 C   0  0  0  0  0  0  0  0  0  0  0  0
  147.7139  133.9306  161.7320 C   0  0  2  0  0  0  0  0  0  0  0  0
  147.6135  132.3992  161.7242 C   0  0  0  0  0  0  0  0  0  0  0  0
  146.4780  134.5716  162.3827 C   0  0  0  0  0  0  0  0  0  0  0  0
  146.5542  136.1066  162.3214 C   0  0  1  0  0  0  0  0  0  0  0  0
  147.5208  136.6898  163.3649 C   0  0  0  0  0  0  0  0  0  0  0  0
  146.8571  136.5806  160.8816 C   0  0  0  0  0  0  0  0  0  0  0  0
  150.1492  136.7728  159.5068 N   0  0  0  0  0  0  0  0  0  0  0  0
  150.4985  137.4578  158.3523 C   0  0  0  0  0  0  0  0  0  0  0  0
  149.4180  137.6520  157.5545 C   0  0  0  0  0  0  0  0  0  0  0  0
  149.5056  138.3588  156.2701 C   0  0  0  0  0  0  0  0  0  0  0  0
  148.5406  138.5568  155.5353 O   0  0  0  0  0  0  0  0  0  0  0  0
  150.7622  138.7740  155.9782 N   0  0  0  0  0  0  0  0  0  0  0  0
  151.8911  138.6087  156.7335 C   0  0  0  0  0  0  0  0  0  0  0  0
  152.9665  139.0458  156.3253 O   0  0  0  0  0  0  0  0  0  0  0  0
  151.7647  137.9511  157.9324 N   0  0  0  0  0  0  0  0  0  0  0  0
  152.9092  137.7262  158.8175 C   0  0  0  0  0  0  0  0  0  0  0  0
  150.8786  139.2633  155.1029 H   0  0  0  0  0  0  0  0  0  0  0  0
  146.5886  137.9494  152.1281 H   0  0  0  0  0  0  0  0  0  0  0  0
  147.1377  138.9589  153.4656 H   0  0  0  0  0  0  0  0  0  0  0  0
  145.4200  138.6151  153.2687 H   0  0  0  0  0  0  0  0  0  0  0  0
  145.8509  136.1829  153.7500 H   0  0  0  0  0  0  0  0  0  0  0  0
  147.5691  136.5259  153.9397 H   0  0  0  0  0  0  0  0  0  0  0  0
  146.1903  135.4936  156.3611 H   0  0  0  0  0  0  0  0  0  0  0  0
  147.8280  136.0320  156.0080 H   0  0  0  0  0  0  0  0  0  0  0  0
  146.5087  137.9972  157.7286 H   0  0  0  0  0  0  0  0  0  0  0  0
  146.3527  136.4246  158.4438 H   0  0  0  0  0  0  0  0  0  0  0  0
  147.0486  134.2019  159.6802 H   0  0  0  0  0  0  0  0  0  0  0  0
  148.7800  134.0437  159.8530 H   0  0  0  0  0  0  0  0  0  0  0  0
  148.5958  134.1962  162.3162 H   0  0  0  0  0  0  0  0  0  0  0  0
  146.7511  132.0607  161.1492 H   0  0  0  0  0  0  0  0  0  0  0  0
  147.5141  132.0073  162.7367 H   0  0  0  0  0  0  0  0  0  0  0  0
  148.5042  131.9506  161.2833 H   0  0  0  0  0  0  0  0  0  0  0  0
  145.5819  134.2394  161.8563 H   0  0  0  0  0  0  0  0  0  0  0  0
  146.3683  134.2354  163.4143 H   0  0  0  0  0  0  0  0  0  0  0  0
  145.5667  136.4882  162.5835 H   0  0  0  0  0  0  0  0  0  0  0  0
  148.5513  136.3901  163.1799 H   0  0  0  0  0  0  0  0  0  0  0  0
  147.2577  136.3572  164.3692 H   0  0  0  0  0  0  0  0  0  0  0  0
  147.4833  137.7791  163.3650 H   0  0  0  0  0  0  0  0  0  0  0  0
  146.9901  137.6630  160.8674 H   0  0  0  0  0  0  0  0  0  0  0  0
  145.9987  136.3720  160.2418 H   0  0  0  0  0  0  0  0  0  0  0  0
  153.8440  138.1537  158.4538 H   0  0  0  0  0  0  0  0  0  0  0  0
  153.0692  136.6560  158.9528 H   0  0  0  0  0  0  0  0  0  0  0  0
  152.7128  138.1617  159.7977 H   0  0  0  0  0  0  0  0  0  0  0  0
  1  2  1  0  0  0  0
  1 27  1  0  0  0  0
  1 28  1  0  0  0  0
  1 29  1  0  0  0  0
  2  3  1  0  0  0  0
  2 30  1  0  0  0  0
  2 31  1  0  0  0  0
  3  4  1  0  0  0  0
  4  5  1  0  0  0  0
  4 32  1  0  0  0  0
  4 33  1  0  0  0  0
  5  6  1  0  0  0  0
  5 34  1  0  0  0  0
  5 35  1  0  0  0  0
  6 18  1  0  0  0  0
  6  7  1  0  0  0  0
  7  8  1  0  0  0  0
  7 16  2  0  0  0  0
  8 15  1  0  0  0  0
  8  9  1  0  0  0  0
  9 10  1  0  0  0  0
  9 36  1  0  0  0  0
  9 37  1  0  0  0  0
 10 11  1  0  0  0  0
 10 12  1  0  0  0  0
 10 38  1  0  0  0  0
 11 39  1  0  0  0  0
 11 40  1  0  0  0  0
 11 41  1  0  0  0  0
 12 13  1  0  0  0  0
 12 42  1  0  0  0  0
 12 43  1  0  0  0  0
 13 14  1  0  0  0  0
 13 15  1  0  0  0  0
 13 44  1  0  0  0  0
 14 45  1  0  0  0  0
 14 46  1  0  0  0  0
 14 47  1  0  0  0  0
 15 48  1  0  0  0  0
 15 49  1  0  0  0  0
 16 17  1  0  0  0  0
 17 24  1  0  0  0  0
 17 18  2  0  0  0  0
 18 19  1  0  0  0  0
 19 20  2  0  0  0  0
 19 21  1  0  0  0  0
 21 26  1  0  0  0  0
 21 22  1  0  0  0  0
 22 23  2  0  0  0  0
 22 24  1  0  0  0  0
 24 25  1  0  0  0  0
 25 50  1  0  0  0  0
 25 51  1  0  0  0  0
 25 52  1  0  0  0  0
M  END
> <s_m_source_file>
AV-unprocessed.smi

> <i_m_source_file_index>
546

> <i_lp_mmshare_version>
43012

> <i_f3d_flags>
0

> <s_epik_input>
W0NIM11uMWMoPU8pW25IXWMoPU8pYyhjMTIpbihbQ0gyXVtDSDJdT1tDSDJdW0NIM10pYyhuMilOM1tDSDJdW0NAQEhdKFtDSDNdKVtDSDJdW0NAQEhdKFtDSDNdKVtDSDJdMw==

> <s_epik_cmdline>
J2VwaWtfcHl0aG9uJywgJy1waCcsICc3LjAnLCAnLXRuJywgJzgnLCAnLW1hJywgJzIwMCcsICctbWV0YWxfYmluZGluZycsICctaW1hZScsICc8aW5maWxlLm1hZT4nLCAnLW9tYWUnLCAnPG91dGZpbGUubWFlPic=

> <r_lp_tautomer_probability>
1

> <r_epik_Ionization_Penalty>
0.000576472

> <r_epik_Ionization_Penalty_Charging>
0.000118943

> <r_epik_Ionization_Penalty_Neutral>
0.000457529

> <r_epik_State_Penalty>
-0

> <r_epik_Charging_Adjusted_Penalty>
0.000118943

> <i_epik_Tot_Q>
0

> <i_epik_Tot_abs_Q>
0

> <r_epik_Metal_State_Penalty>
0.0916165

> <b_epik_Metal_Only>
0

> <s_lp_Force_Field>
OPLS_2005

> <r_lp_Energy>
41.9283

> <b_lp_Chiralities_Consistent>
1

> <s_lp_Variant>
AV-unprocessed.smi:546-2

> <Gold.Version>
5.8.1

> <Gold.Id.Protein>
6NUR|6NUR_protein|mol2

> <Gold.PLP.Fitness>
36.3476

> <Gold.PLP.PLP>
-33.0661

> <Gold.PLP.part.hbond>
-1.8639

> <Gold.PLP.part.metal>
0.0000

> <Gold.PLP.part.buried>
-6.0647

> <Gold.PLP.part.nonpolar>
-26.0647

> <Gold.PLP.part.repulsive>
0.1048

> <Gold.PLP.ligand.clash>
0.0000

> <Gold.PLP.ligand.torsion>
1.8133

> <Gold.PLP.Chemscore.Hbond>
2.0000

> <Gold.PLP.Chemscore.CHOScore>
0.0000

> <Gold.PLP.Chemscore.Metal>
0.0000

> <Gold.Chemscore.Hbonds>
donor molecule, donor type, donor heavy atom, donor atom, acceptor molecule, acceptor atom, score
      P1  H  6896  6907       L1    16  1.00
      P1  H  7997  8008       L1    23  1.00

> <Gold.PLP.Chemscore.Internal.Correction>
0.9080

> <Gold.Rescore>
     Score         DG    S(hbond)    S(metal)    S(lipo)     H(rot)  DE(clash)    DE(int)     intcor
     13.96     -15.84       1.92        0.00      67.64       1.55       0.01       1.87       ----

> <Gold.Chemscore.Fitness>
13.9622

> <Gold.Chemscore.DG>
-15.8442

> <Gold.Chemscore.ZeroCoef>
-5.4800

> <Gold.Chemscore.Hbond>
1.9189

> <Gold.Chemscore.Metal>
0.0000

> <Gold.Chemscore.Lipo>
67.6413

> <Gold.Chemscore.Internal_Hbond>
0.0000

> <Gold.Chemscore.DEClash>
0.0149

> <Gold.Chemscore.DEInternal>
1.8671

> <Gold.Chemscore.Rot>
1.5465

> <Gold.Chemscore.Internal.Correction>
   9.000000E+99

> <Gold.Chemscore.Hbonds>
donor molecule, donor type, donor heavy atom, donor atom, acceptor molecule, acceptor atom, score
      P1  H  6896  6907       L1    16  0.65
      P1  H  7997  8008       L1    23  0.98

> <Gold.Chemscore.Hbond.Weighted>
-6.4093

> <Gold.Chemscore.Metal.Weighted>
-0.0000

> <Gold.Chemscore.Lipo.Weighted>
-7.9140

> <Gold.Chemscore.Internal_Hbond.Weighted>
0.0000

> <Gold.Chemscore.DEClash.Weighted>
0.0149

> <Gold.Chemscore.DEInternal.Weighted>
1.8671

> <Gold.Chemscore.Rot.Weighted>
3.9591

> <Gold.Chemscore.Internal.Correction.Weighted>
   9.000000E+99

> <Gold.Protein.RotatedTorsions>
[ 6907 6896 6895 6894 ] final  -33.29 input  -60.11 | X-H torsion
[ 7974 7965 7964 7962 ] final   98.64 input  175.53 | X-H torsion
[ 8008 7997 7996 7995 ] final  -32.44 input   59.86 | X-H torsion
[ 10167 10162 10161 10158 ] final   76.55 input  -65.29 | X-H torsion
[ 10718 10713 10712 10709 ] final   11.83 input   66.30 | X-H torsion
[ 10763 10752 10751 10750 ] final   99.13 input  -60.55 | X-H torsion
[ 11005 11000 10999 10996 ] final  114.56 input  -57.11 | X-H torsion

> <Gold.Protein.ActiveResidues>
 VAL166  LYS551  ARG553  GLY616  TRP617  ASP618  TYR619  PRO620  LYS621  CYS622 
 ASP623  PHE694  ASN695  SER759  ASP760  ASP761  ALA762  ILE779  LEU786  VAL792 
 PHE793  MET794  SER795  GLU796  ALA797  LYS798  CYS799  TRP800  GLU811  SER814 

> <Gold.Protein.RotatedAtoms>
  151.0675  134.9777  159.8291 H   0  0  0  0  0  0  0  0  0  0  0  0  # atno 6907 bound_to 6896
  152.5404  134.2340  159.8846 H   0  0  0  0  0  0  0  0  0  0  0  0  # atno 6908 bound_to 6896
  151.2363  133.4380  159.2639 H   0  0  0  0  0  0  0  0  0  0  0  0  # atno 6909 bound_to 6896
  145.4095  139.2336  143.3256 H   0  0  0  0  0  0  0  0  0  0  0  0  # atno 7974 bound_to 7965
  154.4180  140.1737  156.1727 H   0  0  0  0  0  0  0  0  0  0  0  0  # atno 8008 bound_to 7997
  155.9747  140.3382  155.6584 H   0  0  0  0  0  0  0  0  0  0  0  0  # atno 8009 bound_to 7997
  155.6579  140.0697  157.2555 H   0  0  0  0  0  0  0  0  0  0  0  0  # atno 8010 bound_to 7997
  139.9910  144.5757  150.7818 H   0  0  0  0  0  0  0  0  0  0  0  0  # atno 10167 bound_to 10162
  157.0013  130.6080  149.5696 H   0  0  0  0  0  0  0  0  0  0  0  0  # atno 10718 bound_to 10713
  153.2976  135.4124  155.1223 H   0  0  0  0  0  0  0  0  0  0  0  0  # atno 10763 bound_to 10752
  154.8539  135.3533  154.5896 H   0  0  0  0  0  0  0  0  0  0  0  0  # atno 10764 bound_to 10752
  153.6320  135.7060  153.5330 H   0  0  0  0  0  0  0  0  0  0  0  0  # atno 10765 bound_to 10752
  139.8984  134.9570  156.6911 H   0  0  0  0  0  0  0  0  0  0  0  0  # atno 11005 bound_to 11000
  146.2712  140.4804  142.8814 LP  0  0  0  0  0  0  0  0  0  0  0  0  # atno 17320 bound_to 7965
  144.8319  140.6720  143.6286 LP  0  0  0  0  0  0  0  0  0  0  0  0  # atno 17321 bound_to 7965
  140.7454  143.2876  151.3421 LP  0  0  0  0  0  0  0  0  0  0  0  0  # atno 17342 bound_to 10162
  139.6340  144.0666  152.2500 LP  0  0  0  0  0  0  0  0  0  0  0  0  # atno 17343 bound_to 10162
  156.0170  130.5264  150.8164 LP  0  0  0  0  0  0  0  0  0  0  0  0  # atno 17370 bound_to 10713
  157.5388  131.0940  150.9855 LP  0  0  0  0  0  0  0  0  0  0  0  0  # atno 17371 bound_to 10713
  140.7224  133.9129  155.8156 LP  0  0  0  0  0  0  0  0  0  0  0  0  # atno 17394 bound_to 11000
  141.0217  134.0880  157.4113 LP  0  0  0  0  0  0  0  0  0  0  0  0  # atno 17395 bound_to 11000

$$$$
