AV-unprocessed.smi:2990|AV-procd|sdf|11393|dock9
  -GOLD-   2272016313D 1   1.00000     0.00000
 Structure written by MMmdl.
 39 41  0  0  0  0  0  0  0  0  1 V2000
  151.5730  137.8867  155.5158 C   0  0  0  0  0  0  0  0  0  0  0  0
  150.3978  138.7066  155.0867 C   0  0  0  0  0  0  0  0  0  0  0  0
  149.3329  138.1668  154.4938 N   0  0  0  0  0  0  0  0  0  0  0  0
  148.5230  139.2632  154.2691 C   0  0  0  0  0  0  0  0  0  0  0  0
  147.2472  139.3548  153.6678 C   0  0  0  0  0  0  0  0  0  0  0  0
  146.6040  140.6040  153.5452 C   0  0  0  0  0  0  0  0  0  0  0  0
  147.2250  141.7766  154.0219 C   0  0  0  0  0  0  0  0  0  0  0  0
  148.4952  141.7074  154.6260 C   0  0  0  0  0  0  0  0  0  0  0  0
  149.1339  140.4584  154.7447 C   0  0  0  0  0  0  0  0  0  0  0  0
  150.3541  140.0486  155.2740 N   0  0  0  0  0  0  0  0  0  0  0  0
  151.3623  140.9003  155.8908 C   0  0  0  0  0  0  0  0  0  0  0  0
  150.8420  141.6279  157.1473 C   0  0  2  0  0  0  0  0  0  0  0  0
  150.7822  143.0201  156.9081 O   0  0  0  0  0  0  0  0  0  0  0  0
  151.7324  141.3872  158.3751 C   0  0  0  0  0  0  0  0  0  0  0  0
  151.9504  142.6241  159.0413 O   0  0  0  0  0  0  0  0  0  0  0  0
  152.5983  142.6040  160.2579 C   0  0  0  0  0  0  0  0  0  0  0  0
  153.5018  141.5449  160.4849 C   0  0  0  0  0  0  0  0  0  0  0  0
  154.2063  141.4454  161.7002 C   0  0  0  0  0  0  0  0  0  0  0  0
  154.0124  142.4097  162.7064 C   0  0  0  0  0  0  0  0  0  0  0  0
  153.1139  143.4716  162.4939 C   0  0  0  0  0  0  0  0  0  0  0  0
  152.4097  143.5712  161.2780 C   0  0  0  0  0  0  0  0  0  0  0  0
  151.3987  136.8310  155.3054 H   0  0  0  0  0  0  0  0  0  0  0  0
  151.7455  137.9980  156.5859 H   0  0  0  0  0  0  0  0  0  0  0  0
  152.4680  138.1993  154.9776 H   0  0  0  0  0  0  0  0  0  0  0  0
  146.7632  138.4625  153.2996 H   0  0  0  0  0  0  0  0  0  0  0  0
  145.6296  140.6626  153.0828 H   0  0  0  0  0  0  0  0  0  0  0  0
  146.7258  142.7294  153.9235 H   0  0  0  0  0  0  0  0  0  0  0  0
  148.9722  142.6033  154.9947 H   0  0  0  0  0  0  0  0  0  0  0  0
  152.2321  140.2909  156.1367 H   0  0  0  0  0  0  0  0  0  0  0  0
  151.7042  141.6247  155.1506 H   0  0  0  0  0  0  0  0  0  0  0  0
  149.8296  141.2934  157.3752 H   0  0  0  0  0  0  0  0  0  0  0  0
  149.9661  143.2141  156.4724 H   0  0  0  0  0  0  0  0  0  0  0  0
  151.2596  140.6661  159.0443 H   0  0  0  0  0  0  0  0  0  0  0  0
  152.6914  140.9751  158.0558 H   0  0  0  0  0  0  0  0  0  0  0  0
  153.6566  140.8002  159.7180 H   0  0  0  0  0  0  0  0  0  0  0  0
  154.8949  140.6289  161.8603 H   0  0  0  0  0  0  0  0  0  0  0  0
  154.5513  142.3349  163.6393 H   0  0  0  0  0  0  0  0  0  0  0  0
  152.9632  144.2119  163.2656 H   0  0  0  0  0  0  0  0  0  0  0  0
  151.7289  144.3995  161.1535 H   0  0  0  0  0  0  0  0  0  0  0  0
  1  2  1  0  0  0  0
  1 22  1  0  0  0  0
  1 23  1  0  0  0  0
  1 24  1  0  0  0  0
  2 10  1  0  0  0  0
  2  3  2  0  0  0  0
  3  4  1  0  0  0  0
  4  9  2  0  0  0  0
  4  5  1  0  0  0  0
  5  6  2  0  0  0  0
  5 25  1  0  0  0  0
  6  7  1  0  0  0  0
  6 26  1  0  0  0  0
  7  8  2  0  0  0  0
  7 27  1  0  0  0  0
  8  9  1  0  0  0  0
  8 28  1  0  0  0  0
  9 10  1  0  0  0  0
 10 11  1  0  0  0  0
 11 12  1  0  0  0  0
 11 29  1  0  0  0  0
 11 30  1  0  0  0  0
 12 13  1  0  0  0  0
 12 14  1  0  0  0  0
 12 31  1  0  0  0  0
 13 32  1  0  0  0  0
 14 15  1  0  0  0  0
 14 33  1  0  0  0  0
 14 34  1  0  0  0  0
 15 16  1  0  0  0  0
 16 21  1  0  0  0  0
 16 17  2  0  0  0  0
 17 18  1  0  0  0  0
 17 35  1  0  0  0  0
 18 19  2  0  0  0  0
 18 36  1  0  0  0  0
 19 20  1  0  0  0  0
 19 37  1  0  0  0  0
 20 21  2  0  0  0  0
 20 38  1  0  0  0  0
 21 39  1  0  0  0  0
M  END
> <s_m_source_file>
AV-unprocessed.smi

> <i_m_source_file_index>
2990

> <i_lp_mmshare_version>
43012

> <i_f3d_flags>
0

> <s_epik_input>
W2NIXTFbY0hdW2NIXVtjSF1jKGMxMiluKGMobjIpW0NIM10pW0NIMl1bQ0BIXShbT0hdKVtDSDJdT2MzW2NIXVtjSF1bY0hdW2NIXVtjSF0z

> <s_epik_cmdline>
J2VwaWtfcHl0aG9uJywgJy1waCcsICc3LjAnLCAnLXRuJywgJzgnLCAnLW1hJywgJzIwMCcsICctbWV0YWxfYmluZGluZycsICctaW1hZScsICc8aW5maWxlLm1hZT4nLCAnLW9tYWUnLCAnPG91dGZpbGUubWFlPic=

> <r_lp_tautomer_probability>
1

> <r_epik_Ionization_Penalty>
0.119634

> <r_epik_Ionization_Penalty_Charging>
0

> <r_epik_Ionization_Penalty_Neutral>
0.119634

> <r_epik_State_Penalty>
0.10919

> <r_epik_Charging_Adjusted_Penalty>
0.10919

> <i_epik_Tot_Q>
0

> <i_epik_Tot_abs_Q>
0

> <r_epik_Metal_State_Penalty>
0.000119887

> <b_epik_Metal_Only>
0

> <s_lp_Force_Field>
OPLS_2005

> <r_lp_Energy>
14.3575

> <b_lp_Chiralities_Consistent>
1

> <s_lp_Variant>
AV-unprocessed.smi:2990-1

> <Gold.Version>
5.8.1

> <Gold.Id.Protein>
6NUR|6NUR_protein|mol2

> <Gold.PLP.Fitness>
48.6786

> <Gold.PLP.PLP>
-51.0647

> <Gold.PLP.part.hbond>
-1.0000

> <Gold.PLP.part.metal>
0.0000

> <Gold.PLP.part.buried>
-1.3928

> <Gold.PLP.part.nonpolar>
-47.5131

> <Gold.PLP.part.repulsive>
0.2230

> <Gold.PLP.ligand.clash>
1.4216

> <Gold.PLP.ligand.torsion>
1.7692

> <Gold.PLP.Chemscore.Hbond>
0.8320

> <Gold.PLP.Chemscore.CHOScore>
0.0000

> <Gold.PLP.Chemscore.Metal>
0.0000

> <Gold.Chemscore.Hbonds>
donor molecule, donor type, donor heavy atom, donor atom, acceptor molecule, acceptor atom, score
      L1  H    13    32       P1  8028  0.85

> <Gold.PLP.Chemscore.Internal.Correction>
0.0779

> <Gold.Rescore>
     Score         DG    S(hbond)    S(metal)    S(lipo)     H(rot)  DE(clash)    DE(int)     intcor
     16.17     -18.09       0.61        0.00     134.93       2.04       0.09       1.83       ----

> <Gold.Chemscore.Fitness>
16.1731

> <Gold.Chemscore.DG>
-18.0890

> <Gold.Chemscore.ZeroCoef>
-5.4800

> <Gold.Chemscore.Hbond>
0.6093

> <Gold.Chemscore.Metal>
0.0000

> <Gold.Chemscore.Lipo>
134.9270

> <Gold.Chemscore.Internal_Hbond>
0.0000

> <Gold.Chemscore.DEClash>
0.0899

> <Gold.Chemscore.DEInternal>
1.8260

> <Gold.Chemscore.Rot>
2.0361

> <Gold.Chemscore.Internal.Correction>
   9.000000E+99

> <Gold.Chemscore.Hbonds>
donor molecule, donor type, donor heavy atom, donor atom, acceptor molecule, acceptor atom, score
      L1  H    13    32       P1  8028  0.79

> <Gold.Chemscore.Hbond.Weighted>
-2.0350

> <Gold.Chemscore.Metal.Weighted>
-0.0000

> <Gold.Chemscore.Lipo.Weighted>
-15.7865

> <Gold.Chemscore.Internal_Hbond.Weighted>
0.0000

> <Gold.Chemscore.DEClash.Weighted>
0.0899

> <Gold.Chemscore.DEInternal.Weighted>
1.8260

> <Gold.Chemscore.Rot.Weighted>
5.2124

> <Gold.Chemscore.Internal.Correction.Weighted>
   9.000000E+99

> <Gold.Protein.RotatedTorsions>
[ 6907 6896 6895 6894 ] final   87.84 input  -60.11 | X-H torsion
[ 7974 7965 7964 7962 ] final  -93.65 input  175.53 | X-H torsion
[ 8008 7997 7996 7995 ] final  -92.73 input   59.86 | X-H torsion
[ 10167 10162 10161 10158 ] final  -88.86 input  -65.29 | X-H torsion
[ 10718 10713 10712 10709 ] final  -83.99 input   66.30 | X-H torsion
[ 10763 10752 10751 10750 ] final -125.47 input  -60.55 | X-H torsion
[ 11005 11000 10999 10996 ] final -163.49 input  -57.11 | X-H torsion

> <Gold.Protein.ActiveResidues>
 VAL166  LYS551  ARG553  GLY616  TRP617  ASP618  TYR619  PRO620  LYS621  CYS622 
 ASP623  PHE694  ASN695  SER759  ASP760  ASP761  ALA762  ILE779  LEU786  VAL792 
 PHE793  MET794  SER795  GLU796  ALA797  LYS798  CYS799  TRP800  GLU811  SER814 

> <Gold.Protein.RotatedAtoms>
  152.5417  134.2214  159.8788 H   0  0  0  0  0  0  0  0  0  0  0  0  # atno 6907 bound_to 6896
  151.2191  133.4506  159.2608 H   0  0  0  0  0  0  0  0  0  0  0  0  # atno 6908 bound_to 6896
  151.0823  134.9879  159.8418 H   0  0  0  0  0  0  0  0  0  0  0  0  # atno 6909 bound_to 6896
  145.3837  140.9520  143.2379 H   0  0  0  0  0  0  0  0  0  0  0  0  # atno 7974 bound_to 7965
  154.7268  140.0506  157.0690 H   0  0  0  0  0  0  0  0  0  0  0  0  # atno 8008 bound_to 7997
  155.0354  140.3162  155.4724 H   0  0  0  0  0  0  0  0  0  0  0  0  # atno 8009 bound_to 7997
  156.2831  140.2142  156.5476 H   0  0  0  0  0  0  0  0  0  0  0  0  # atno 8010 bound_to 7997
  140.3705  143.2797  151.9506 H   0  0  0  0  0  0  0  0  0  0  0  0  # atno 10167 bound_to 10162
  156.0011  130.4683  150.4342 H   0  0  0  0  0  0  0  0  0  0  0  0  # atno 10718 bound_to 10713
  154.8736  135.4028  154.3273 H   0  0  0  0  0  0  0  0  0  0  0  0  # atno 10763 bound_to 10752
  153.4092  135.7020  153.6376 H   0  0  0  0  0  0  0  0  0  0  0  0  # atno 10764 bound_to 10752
  153.5086  135.3712  155.2546 H   0  0  0  0  0  0  0  0  0  0  0  0  # atno 10765 bound_to 10752
  140.5975  134.4981  157.5201 H   0  0  0  0  0  0  0  0  0  0  0  0  # atno 11005 bound_to 11000
  144.8489  139.5352  143.6865 LP  0  0  0  0  0  0  0  0  0  0  0  0  # atno 17320 bound_to 7965
  146.2830  139.6928  142.9215 LP  0  0  0  0  0  0  0  0  0  0  0  0  # atno 17321 bound_to 7965
  139.4804  144.5911  151.7770 LP  0  0  0  0  0  0  0  0  0  0  0  0  # atno 17342 bound_to 10162
  140.5038  144.1129  150.5977 LP  0  0  0  0  0  0  0  0  0  0  0  0  # atno 17343 bound_to 10162
  157.2388  131.0521  151.2449 LP  0  0  0  0  0  0  0  0  0  0  0  0  # atno 17370 bound_to 10713
  157.3640  130.7146  149.6520 LP  0  0  0  0  0  0  0  0  0  0  0  0  # atno 17371 bound_to 10713
  139.9247  134.8080  156.1105 LP  0  0  0  0  0  0  0  0  0  0  0  0  # atno 17394 bound_to 11000
  141.0894  133.6720  156.2507 LP  0  0  0  0  0  0  0  0  0  0  0  0  # atno 17395 bound_to 11000

$$$$
