AV-unprocessed.smi:3055|AV-procd|sdf|11644|dock3
  -GOLD-   2272017 33D 1   1.00000     0.00000
 Structure written by MMmdl.
 47 49  0  0  0  0  0  0  0  0  2 V2000
  150.6732  140.3957  155.0799 O   0  0  0  0  0  0  0  0  0  0  0  0
  151.2817  139.7997  155.9697 C   0  0  0  0  0  0  0  0  0  0  0  0
  151.6443  140.4028  157.1130 N   0  0  0  0  0  0  0  0  0  0  0  0
  151.3489  141.7887  157.4478 C   0  0  0  0  0  0  0  0  0  0  0  0
  152.2001  142.2472  158.6390 C   0  0  0  0  0  0  0  0  0  0  0  0
  151.7858  143.5511  159.1154 N   0  0  0  0  0  0  0  0  0  0  0  0
  152.2752  144.2320  160.2222 C   0  0  0  0  0  0  0  0  0  0  0  0
  151.5858  145.4216  160.2879 C   0  0  0  0  0  0  0  0  0  0  0  0
  150.6736  145.4935  159.2374 N   0  0  0  0  0  0  0  0  0  0  0  0
  150.8495  144.3507  158.5866 C   0  0  0  0  0  0  0  0  0  0  0  0
  151.6665  138.5023  155.8638 N   0  0  0  0  0  0  0  0  0  0  0  0
  152.4806  137.7586  156.8379 C   0  0  0  0  0  0  0  0  0  0  0  0
  151.5446  136.8603  157.6633 C   0  0  0  0  0  0  0  0  0  0  0  0
  150.7207  135.9314  156.7504 C   0  0  0  0  0  0  0  0  0  0  0  0
  150.0147  136.7017  155.6030 C   0  0  2  0  0  0  0  0  0  0  0  0
  149.3417  135.7788  154.6467 N   0  3  0  0  0  0  0  0  0  0  0  0
  150.0564  134.5130  154.3725 C   0  0  0  0  0  0  0  0  0  0  0  0
  148.9919  133.5665  153.8311 C   0  0  0  0  0  0  0  0  0  0  0  0
  147.7653  133.9263  154.6607 C   0  0  0  0  0  0  0  0  0  0  0  0
  147.9468  135.4119  155.0018 C   0  0  0  0  0  0  0  0  0  0  0  0
  151.0556  137.5959  154.8838 C   0  0  0  0  0  0  0  0  0  0  0  0
  152.1558  139.8635  157.7962 H   0  0  0  0  0  0  0  0  0  0  0  0
  151.5459  142.4174  156.5781 H   0  0  0  0  0  0  0  0  0  0  0  0
  150.2885  141.8892  157.6862 H   0  0  0  0  0  0  0  0  0  0  0  0
  152.1190  141.5375  159.4635 H   0  0  0  0  0  0  0  0  0  0  0  0
  153.2544  142.2950  158.3618 H   0  0  0  0  0  0  0  0  0  0  0  0
  153.0503  143.8244  160.8546 H   0  0  0  0  0  0  0  0  0  0  0  0
  151.6745  146.2245  161.0046 H   0  0  0  0  0  0  0  0  0  0  0  0
  150.2823  144.0887  157.7053 H   0  0  0  0  0  0  0  0  0  0  0  0
  153.2108  137.1471  156.3055 H   0  0  0  0  0  0  0  0  0  0  0  0
  153.0674  138.3936  157.5016 H   0  0  0  0  0  0  0  0  0  0  0  0
  152.1226  136.2678  158.3730 H   0  0  0  0  0  0  0  0  0  0  0  0
  150.8716  137.4823  158.2553 H   0  0  0  0  0  0  0  0  0  0  0  0
  151.3853  135.1786  156.3240 H   0  0  0  0  0  0  0  0  0  0  0  0
  149.9969  135.3926  157.3622 H   0  0  0  0  0  0  0  0  0  0  0  0
  149.2481  137.3427  156.0426 H   0  0  0  0  0  0  0  0  0  0  0  0
  150.8779  134.6517  153.6688 H   0  0  0  0  0  0  0  0  0  0  0  0
  150.4655  134.1121  155.3018 H   0  0  0  0  0  0  0  0  0  0  0  0
  148.8048  133.7802  152.7778 H   0  0  0  0  0  0  0  0  0  0  0  0
  149.2725  132.5164  153.9191 H   0  0  0  0  0  0  0  0  0  0  0  0
  146.8320  133.7260  154.1337 H   0  0  0  0  0  0  0  0  0  0  0  0
  147.7603  133.3375  155.5792 H   0  0  0  0  0  0  0  0  0  0  0  0
  147.7406  135.5738  156.0611 H   0  0  0  0  0  0  0  0  0  0  0  0
  147.2586  136.0358  154.4307 H   0  0  0  0  0  0  0  0  0  0  0  0
  150.6071  138.1475  154.0569 H   0  0  0  0  0  0  0  0  0  0  0  0
  151.8321  136.9788  154.4286 H   0  0  0  0  0  0  0  0  0  0  0  0
  149.2859  136.2591  153.7599 H   0  0  0  0  0  0  0  0  0  0  0  0
  1  2  2  0  0  0  0
  2  3  1  0  0  0  0
  2 11  1  0  0  0  0
  3  4  1  0  0  0  0
  3 22  1  0  0  0  0
  4  5  1  0  0  0  0
  4 23  1  0  0  0  0
  4 24  1  0  0  0  0
  5  6  1  0  0  0  0
  5 25  1  0  0  0  0
  5 26  1  0  0  0  0
  6 10  1  0  0  0  0
  6  7  1  0  0  0  0
  7  8  2  0  0  0  0
  7 27  1  0  0  0  0
  8  9  1  0  0  0  0
  8 28  1  0  0  0  0
  9 10  2  0  0  0  0
 10 29  1  0  0  0  0
 11 21  1  0  0  0  0
 11 12  1  0  0  0  0
 12 13  1  0  0  0  0
 12 30  1  0  0  0  0
 12 31  1  0  0  0  0
 13 14  1  0  0  0  0
 13 32  1  0  0  0  0
 13 33  1  0  0  0  0
 14 15  1  0  0  0  0
 14 34  1  0  0  0  0
 14 35  1  0  0  0  0
 15 16  1  0  0  0  0
 15 21  1  0  0  0  0
 15 36  1  0  0  0  0
 16 20  1  0  0  0  0
 16 17  1  0  0  0  0
 16 47  1  0  0  0  0
 17 18  1  0  0  0  0
 17 37  1  0  0  0  0
 17 38  1  0  0  0  0
 18 19  1  0  0  0  0
 18 39  1  0  0  0  0
 18 40  1  0  0  0  0
 19 20  1  0  0  0  0
 19 41  1  0  0  0  0
 19 42  1  0  0  0  0
 20 43  1  0  0  0  0
 20 44  1  0  0  0  0
 21 45  1  0  0  0  0
 21 46  1  0  0  0  0
M  CHG  1  16   1
M  END
> <s_m_source_file>
AV-unprocessed.smi

> <i_m_source_file_index>
3055

> <i_lp_mmshare_version>
43012

> <i_f3d_flags>
0

> <s_epik_input>
W2NIXTFuW2NIXVtjSF1uMVtDSDJdW0NIMl1bTkhdQyg9TylOMltDSDJdW0NIMl1bQ0gyXVtDQEhdKFtDSDJdMilOM1tDSDJdW0NIMl1bQ0gyXVtDSDJdMw==

> <s_epik_cmdline>
J2VwaWtfcHl0aG9uJywgJy1waCcsICc3LjAnLCAnLXRuJywgJzgnLCAnLW1hJywgJzIwMCcsICctbWV0YWxfYmluZGluZycsICctaW1hZScsICc8aW5maWxlLm1hZT4nLCAnLW9tYWUnLCAnPG91dGZpbGUubWFlPic=

> <r_lp_tautomer_probability>
1

> <r_epik_Ionization_Penalty>
0.618392

> <r_epik_Ionization_Penalty_Charging>
0.618355

> <r_epik_Ionization_Penalty_Neutral>
3.68592e-05

> <r_epik_State_Penalty>
0.635579

> <r_epik_Charging_Adjusted_Penalty>
1.25393

> <i_epik_Tot_Q>
1

> <i_epik_Tot_abs_Q>
1

> <r_epik_Metal_State_Penalty>
0.306847

> <b_epik_Metal_Only>
0

> <s_lp_Force_Field>
OPLS_2005

> <r_lp_Energy>
57.1272

> <b_lp_Chiralities_Consistent>
1

> <s_lp_Variant>
AV-unprocessed.smi:3055-4

> <Gold.Version>
5.8.1

> <Gold.Id.Protein>
6NUR|6NUR_protein|mol2

> <Gold.PLP.Fitness>
48.3361

> <Gold.PLP.PLP>
-37.8644

> <Gold.PLP.part.hbond>
-3.2848

> <Gold.PLP.part.metal>
0.0000

> <Gold.PLP.part.buried>
-5.1706

> <Gold.PLP.part.nonpolar>
-28.8649

> <Gold.PLP.part.repulsive>
0.3798

> <Gold.PLP.ligand.clash>
0.0000

> <Gold.PLP.ligand.torsion>
0.8105

> <Gold.PLP.Chemscore.Hbond>
3.0000

> <Gold.PLP.Chemscore.CHOScore>
1.0000

> <Gold.PLP.Chemscore.Metal>
0.0000

> <Gold.Chemscore.Hbonds>
donor molecule, donor type, donor heavy atom, donor atom, acceptor molecule, acceptor atom, score
      L1  H    16    47       P1  7948  1.98
      P1  H  7989  7998       L1     1  1.00
      L1  C    10    29       P1  8028  1.00

> <Gold.PLP.Chemscore.Internal.Correction>
0.0928

> <Gold.Rescore>
     Score         DG    S(hbond)    S(metal)    S(lipo)     H(rot)  DE(clash)    DE(int)     intcor
     15.91     -16.69       1.91        0.00      80.89       1.81       0.03       0.75       ----

> <Gold.Chemscore.Fitness>
15.9121

> <Gold.Chemscore.DG>
-16.6923

> <Gold.Chemscore.ZeroCoef>
-5.4800

> <Gold.Chemscore.Hbond>
1.9079

> <Gold.Chemscore.Metal>
0.0000

> <Gold.Chemscore.Lipo>
80.8949

> <Gold.Chemscore.Internal_Hbond>
0.0000

> <Gold.Chemscore.DEClash>
0.0289

> <Gold.Chemscore.DEInternal>
0.7512

> <Gold.Chemscore.Rot>
1.8066

> <Gold.Chemscore.Internal.Correction>
   9.000000E+99

> <Gold.Chemscore.Hbonds>
donor molecule, donor type, donor heavy atom, donor atom, acceptor molecule, acceptor atom, score
      L1  H    16    47       P1  7948  0.83
      P1  H  7989  7998       L1     1  0.93

> <Gold.Chemscore.Hbond.Weighted>
-6.3725

> <Gold.Chemscore.Metal.Weighted>
-0.0000

> <Gold.Chemscore.Lipo.Weighted>
-9.4647

> <Gold.Chemscore.Internal_Hbond.Weighted>
0.0000

> <Gold.Chemscore.DEClash.Weighted>
0.0289

> <Gold.Chemscore.DEInternal.Weighted>
0.7512

> <Gold.Chemscore.Rot.Weighted>
4.6249

> <Gold.Chemscore.Internal.Correction.Weighted>
   9.000000E+99

> <Gold.Protein.RotatedTorsions>
[ 6907 6896 6895 6894 ] final -105.59 input  -60.11 | X-H torsion
[ 7974 7965 7964 7962 ] final    5.48 input  175.53 | X-H torsion
[ 8008 7997 7996 7995 ] final  -48.30 input   59.86 | X-H torsion
[ 10167 10162 10161 10158 ] final  -44.63 input  -65.29 | X-H torsion
[ 10718 10713 10712 10709 ] final -115.66 input   66.30 | X-H torsion
[ 10763 10752 10751 10750 ] final -130.84 input  -60.55 | X-H torsion
[ 11005 11000 10999 10996 ] final  144.59 input  -57.11 | X-H torsion

> <Gold.Protein.ActiveResidues>
 VAL166  LYS551  ARG553  GLY616  TRP617  ASP618  TYR619  PRO620  LYS621  CYS622 
 ASP623  PHE694  ASN695  SER759  ASP760  ASP761  ALA762  ILE779  LEU786  VAL792 
 PHE793  MET794  SER795  GLU796  ALA797  LYS798  CYS799  TRP800  GLU811  SER814 

> <Gold.Protein.RotatedAtoms>
  150.7344  134.0104  159.3667 H   0  0  0  0  0  0  0  0  0  0  0  0  # atno 6907 bound_to 6896
  151.8063  135.0692  160.0416 H   0  0  0  0  0  0  0  0  0  0  0  0  # atno 6908 bound_to 6896
  152.3104  133.5711  159.5713 H   0  0  0  0  0  0  0  0  0  0  0  0  # atno 6909 bound_to 6896
  146.2440  140.0378  142.8384 H   0  0  0  0  0  0  0  0  0  0  0  0  # atno 7974 bound_to 7965
  154.4027  140.1325  156.4316 H   0  0  0  0  0  0  0  0  0  0  0  0  # atno 8008 bound_to 7997
  155.7545  140.3487  155.5147 H   0  0  0  0  0  0  0  0  0  0  0  0  # atno 8009 bound_to 7997
  155.8918  140.1004  157.1403 H   0  0  0  0  0  0  0  0  0  0  0  0  # atno 8010 bound_to 7997
  140.6889  143.2920  151.3523 H   0  0  0  0  0  0  0  0  0  0  0  0  # atno 10167 bound_to 10162
  156.0910  130.6093  150.8935 H   0  0  0  0  0  0  0  0  0  0  0  0  # atno 10718 bound_to 10713
  154.8754  135.3849  154.4149 H   0  0  0  0  0  0  0  0  0  0  0  0  # atno 10763 bound_to 10752
  153.4859  135.7030  153.5917 H   0  0  0  0  0  0  0  0  0  0  0  0  # atno 10764 bound_to 10752
  153.4312  135.3878  155.2139 H   0  0  0  0  0  0  0  0  0  0  0  0  # atno 10765 bound_to 10752
  140.0644  134.9187  157.1239 H   0  0  0  0  0  0  0  0  0  0  0  0  # atno 11005 bound_to 11000
  145.1096  140.9397  143.4664 LP  0  0  0  0  0  0  0  0  0  0  0  0  # atno 17320 bound_to 7965
  145.0589  139.3121  143.5890 LP  0  0  0  0  0  0  0  0  0  0  0  0  # atno 17321 bound_to 7965
  139.6273  144.0789  152.2445 LP  0  0  0  0  0  0  0  0  0  0  0  0  # atno 17342 bound_to 10162
  140.0252  144.6122  150.7533 LP  0  0  0  0  0  0  0  0  0  0  0  0  # atno 17343 bound_to 10162
  157.6060  131.0939  150.8879 LP  0  0  0  0  0  0  0  0  0  0  0  0  # atno 17370 bound_to 10713
  156.9027  130.5252  149.5282 LP  0  0  0  0  0  0  0  0  0  0  0  0  # atno 17371 bound_to 10713
  140.3721  134.2379  155.7177 LP  0  0  0  0  0  0  0  0  0  0  0  0  # atno 17394 bound_to 11000
  141.1986  133.8030  157.0572 LP  0  0  0  0  0  0  0  0  0  0  0  0  # atno 17395 bound_to 11000

$$$$
