AV-unprocessed.smi:3140|AV-procd|sdf|11961|dock5
  -GOLD-   2272017363D 1   1.00000     0.00000
 Structure written by MMmdl.
 37 38  0  0  0  0  0  0  0  0  1 V2000
  147.7797  141.7507  156.2891 C   0  0  0  0  0  0  0  0  0  0  0  0
  149.1880  141.1544  156.1177 C   0  0  1  0  0  0  0  0  0  0  0  0
  149.3847  140.6094  154.6885 C   0  0  0  0  0  0  0  0  0  0  0  0
  150.3622  139.5357  154.6324 N   0  0  0  0  0  0  0  0  0  0  0  0
  150.1887  138.2456  154.1771 C   0  0  0  0  0  0  0  0  0  0  0  0
  151.3835  137.5999  154.3184 C   0  0  0  0  0  0  0  0  0  0  0  0
  152.2398  138.5922  154.8724 C   0  0  0  0  0  0  0  0  0  0  0  0
  151.6269  139.7505  155.0562 N   0  0  0  0  0  0  0  0  0  0  0  0
  150.1991  142.1735  156.3796 N   0  0  0  0  0  0  0  0  0  0  0  0
  150.6762  142.1449  157.7536 C   0  0  0  0  0  0  0  0  0  0  0  0
  151.6522  143.3095  157.9775 C   0  0  0  0  0  0  0  0  0  0  0  0
  152.0985  143.3684  159.3661 N   0  0  0  0  0  0  0  0  0  0  0  0
  152.8669  142.2795  159.9455 C   0  0  0  0  0  0  0  0  0  0  0  0
  152.9650  142.6138  161.4410 C   0  0  0  0  0  0  0  0  0  0  0  0
  152.5374  144.0801  161.5694 C   0  0  0  0  0  0  0  0  0  0  0  0
  151.9124  144.3835  160.2181 C   0  0  0  0  0  0  0  0  0  0  0  0
  151.3224  145.4357  159.9768 O   0  0  0  0  0  0  0  0  0  0  0  0
  147.0148  141.0117  156.0497 H   0  0  0  0  0  0  0  0  0  0  0  0
  147.6270  142.6067  155.6307 H   0  0  0  0  0  0  0  0  0  0  0  0
  147.5949  142.0784  157.3117 H   0  0  0  0  0  0  0  0  0  0  0  0
  149.3147  140.3289  156.8196 H   0  0  0  0  0  0  0  0  0  0  0  0
  148.4420  140.2130  154.3096 H   0  0  0  0  0  0  0  0  0  0  0  0
  149.6811  141.4069  154.0044 H   0  0  0  0  0  0  0  0  0  0  0  0
  149.2390  137.8991  153.7973 H   0  0  0  0  0  0  0  0  0  0  0  0
  151.6112  136.5753  154.0643 H   0  0  0  0  0  0  0  0  0  0  0  0
  153.2820  138.5062  155.1426 H   0  0  0  0  0  0  0  0  0  0  0  0
  149.8431  143.0890  156.1437 H   0  0  0  0  0  0  0  0  0  0  0  0
  149.8385  142.2223  158.4457 H   0  0  0  0  0  0  0  0  0  0  0  0
  151.1772  141.1957  157.9476 H   0  0  0  0  0  0  0  0  0  0  0  0
  152.5196  143.2025  157.3241 H   0  0  0  0  0  0  0  0  0  0  0  0
  151.1804  144.2573  157.7119 H   0  0  0  0  0  0  0  0  0  0  0  0
  152.3827  141.3168  159.7762 H   0  0  0  0  0  0  0  0  0  0  0  0
  153.8551  142.2521  159.4848 H   0  0  0  0  0  0  0  0  0  0  0  0
  152.2855  141.9794  162.0116 H   0  0  0  0  0  0  0  0  0  0  0  0
  153.9711  142.4463  161.8267 H   0  0  0  0  0  0  0  0  0  0  0  0
  151.8257  144.2327  162.3812 H   0  0  0  0  0  0  0  0  0  0  0  0
  153.3961  144.7332  161.7272 H   0  0  0  0  0  0  0  0  0  0  0  0
  1  2  1  0  0  0  0
  1 18  1  0  0  0  0
  1 19  1  0  0  0  0
  1 20  1  0  0  0  0
  2  3  1  0  0  0  0
  2  9  1  0  0  0  0
  2 21  1  0  0  0  0
  3  4  1  0  0  0  0
  3 22  1  0  0  0  0
  3 23  1  0  0  0  0
  4  8  1  0  0  0  0
  4  5  1  0  0  0  0
  5  6  2  0  0  0  0
  5 24  1  0  0  0  0
  6  7  1  0  0  0  0
  6 25  1  0  0  0  0
  7  8  2  0  0  0  0
  7 26  1  0  0  0  0
  9 10  1  0  0  0  0
  9 27  1  0  0  0  0
 10 11  1  0  0  0  0
 10 28  1  0  0  0  0
 10 29  1  0  0  0  0
 11 12  1  0  0  0  0
 11 30  1  0  0  0  0
 11 31  1  0  0  0  0
 12 16  1  0  0  0  0
 12 13  1  0  0  0  0
 13 14  1  0  0  0  0
 13 32  1  0  0  0  0
 13 33  1  0  0  0  0
 14 15  1  0  0  0  0
 14 34  1  0  0  0  0
 14 35  1  0  0  0  0
 15 16  1  0  0  0  0
 15 36  1  0  0  0  0
 15 37  1  0  0  0  0
 16 17  2  0  0  0  0
M  END
> <s_m_source_file>
AV-unprocessed.smi

> <i_m_source_file_index>
3140

> <i_lp_mmshare_version>
43012

> <i_f3d_flags>
0

> <s_epik_input>
bjFbY0hdW2NIXVtjSF1uMVtDSDJdW0NAQEhdKFtDSDNdKVtOSF1bQ0gyXVtDSDJdTjJbQ0gyXVtDSDJdW0NIMl1DMj1P

> <s_epik_cmdline>
J2VwaWtfcHl0aG9uJywgJy1waCcsICc3LjAnLCAnLXRuJywgJzgnLCAnLW1hJywgJzIwMCcsICctbWV0YWxfYmluZGluZycsICctaW1hZScsICc8aW5maWxlLm1hZT4nLCAnLW9tYWUnLCAnPG91dGZpbGUubWFlPic=

> <r_lp_tautomer_probability>
1

> <r_epik_Ionization_Penalty>
2.53587

> <r_epik_Ionization_Penalty_Charging>
0

> <r_epik_Ionization_Penalty_Neutral>
2.53587

> <r_epik_State_Penalty>
2.70334

> <r_epik_Charging_Adjusted_Penalty>
2.70334

> <i_epik_Tot_Q>
0

> <i_epik_Tot_abs_Q>
0

> <r_epik_Metal_State_Penalty>
2.7033

> <b_epik_Metal_Only>
0

> <s_lp_Force_Field>
OPLS_2005

> <r_lp_Energy>
20.5339

> <b_lp_Chiralities_Consistent>
1

> <s_lp_Variant>
AV-unprocessed.smi:3140-4

> <Gold.Version>
5.8.1

> <Gold.Id.Protein>
6NUR|6NUR_protein|mol2

> <Gold.PLP.Fitness>
48.6797

> <Gold.PLP.PLP>
-44.3304

> <Gold.PLP.part.hbond>
-2.0570

> <Gold.PLP.part.metal>
0.0000

> <Gold.PLP.part.buried>
-4.4280

> <Gold.PLP.part.nonpolar>
-38.2699

> <Gold.PLP.part.repulsive>
0.2353

> <Gold.PLP.ligand.clash>
0.0000

> <Gold.PLP.ligand.torsion>
0.8027

> <Gold.PLP.Chemscore.Hbond>
1.0000

> <Gold.PLP.Chemscore.CHOScore>
0.9653

> <Gold.PLP.Chemscore.Metal>
0.0000

> <Gold.Chemscore.Hbonds>
donor molecule, donor type, donor heavy atom, donor atom, acceptor molecule, acceptor atom, score
      L1  H     9    27       P1  8028  1.00
      P1  H  7989  7998       L1     8  0.10
      L1  C     5    24       P1  7948  0.84

> <Gold.PLP.Chemscore.Internal.Correction>
0.0588

> <Gold.Rescore>
     Score         DG    S(hbond)    S(metal)    S(lipo)     H(rot)  DE(clash)    DE(int)     intcor
     13.81     -14.78       1.00        0.00      94.22       1.97       0.02       0.94       ----

> <Gold.Chemscore.Fitness>
13.8103

> <Gold.Chemscore.DG>
-14.7798

> <Gold.Chemscore.ZeroCoef>
-5.4800

> <Gold.Chemscore.Hbond>
0.9953

> <Gold.Chemscore.Metal>
0.0000

> <Gold.Chemscore.Lipo>
94.2233

> <Gold.Chemscore.Internal_Hbond>
0.0000

> <Gold.Chemscore.DEClash>
0.0248

> <Gold.Chemscore.DEInternal>
0.9447

> <Gold.Chemscore.Rot>
1.9722

> <Gold.Chemscore.Internal.Correction>
   9.000000E+99

> <Gold.Chemscore.Hbonds>
donor molecule, donor type, donor heavy atom, donor atom, acceptor molecule, acceptor atom, score
      L1  H     9    27       P1  8028  0.99

> <Gold.Chemscore.Hbond.Weighted>
-3.3244

> <Gold.Chemscore.Metal.Weighted>
-0.0000

> <Gold.Chemscore.Lipo.Weighted>
-11.0241

> <Gold.Chemscore.Internal_Hbond.Weighted>
0.0000

> <Gold.Chemscore.DEClash.Weighted>
0.0248

> <Gold.Chemscore.DEInternal.Weighted>
0.9447

> <Gold.Chemscore.Rot.Weighted>
5.0487

> <Gold.Chemscore.Internal.Correction.Weighted>
   9.000000E+99

> <Gold.Protein.RotatedTorsions>
[ 6907 6896 6895 6894 ] final -174.26 input  -60.11 | X-H torsion
[ 7974 7965 7964 7962 ] final  148.95 input  175.53 | X-H torsion
[ 8008 7997 7996 7995 ] final  -27.56 input   59.86 | X-H torsion
[ 10167 10162 10161 10158 ] final -126.24 input  -65.29 | X-H torsion
[ 10718 10713 10712 10709 ] final -150.80 input   66.30 | X-H torsion
[ 10763 10752 10751 10750 ] final   96.40 input  -60.55 | X-H torsion
[ 11005 11000 10999 10996 ] final  167.61 input  -57.11 | X-H torsion

> <Gold.Protein.ActiveResidues>
 VAL166  LYS551  ARG553  GLY616  TRP617  ASP618  TYR619  PRO620  LYS621  CYS622 
 ASP623  PHE694  ASN695  SER759  ASP760  ASP761  ALA762  ILE779  LEU786  VAL792 
 PHE793  MET794  SER795  GLU796  ALA797  LYS798  CYS799  TRP800  GLU811  SER814 

> <Gold.Protein.RotatedAtoms>
  151.5694  133.3392  159.2986 H   0  0  0  0  0  0  0  0  0  0  0  0  # atno 6907 bound_to 6896
  150.8376  134.7658  159.6917 H   0  0  0  0  0  0  0  0  0  0  0  0  # atno 6908 bound_to 6896
  152.4450  134.5521  159.9921 H   0  0  0  0  0  0  0  0  0  0  0  0  # atno 6909 bound_to 6896
  144.8475  139.6219  143.5989 H   0  0  0  0  0  0  0  0  0  0  0  0  # atno 7974 bound_to 7965
  154.4372  140.1869  156.0951 H   0  0  0  0  0  0  0  0  0  0  0  0  # atno 8008 bound_to 7997
  156.0335  140.3328  155.7140 H   0  0  0  0  0  0  0  0  0  0  0  0  # atno 8009 bound_to 7997
  155.5804  140.0621  157.2775 H   0  0  0  0  0  0  0  0  0  0  0  0  # atno 8010 bound_to 7997
  139.9736  143.5819  152.2404 H   0  0  0  0  0  0  0  0  0  0  0  0  # atno 10167 bound_to 10162
  156.4509  130.8167  151.2398 H   0  0  0  0  0  0  0  0  0  0  0  0  # atno 10718 bound_to 10713
  153.2645  135.4220  155.0927 H   0  0  0  0  0  0  0  0  0  0  0  0  # atno 10763 bound_to 10752
  154.8433  135.3457  154.6331 H   0  0  0  0  0  0  0  0  0  0  0  0  # atno 10764 bound_to 10752
  153.6751  135.7041  153.5192 H   0  0  0  0  0  0  0  0  0  0  0  0  # atno 10765 bound_to 10752
  140.2786  134.7768  157.3738 H   0  0  0  0  0  0  0  0  0  0  0  0  # atno 11005 bound_to 11000
  146.2756  139.6745  142.9265 LP  0  0  0  0  0  0  0  0  0  0  0  0  # atno 17320 bound_to 7965
  145.4568  141.0431  143.2774 LP  0  0  0  0  0  0  0  0  0  0  0  0  # atno 17321 bound_to 7965
  139.6463  144.7658  151.2238 LP  0  0  0  0  0  0  0  0  0  0  0  0  # atno 17342 bound_to 10162
  140.7513  143.6234  150.8491 LP  0  0  0  0  0  0  0  0  0  0  0  0  # atno 17343 bound_to 10162
  157.7503  131.0138  150.3439 LP  0  0  0  0  0  0  0  0  0  0  0  0  # atno 17370 bound_to 10713
  156.3817  130.3881  149.7096 LP  0  0  0  0  0  0  0  0  0  0  0  0  # atno 17371 bound_to 10713
  140.1305  134.5102  155.8110 LP  0  0  0  0  0  0  0  0  0  0  0  0  # atno 17394 bound_to 11000
  141.2166  133.6788  156.7030 LP  0  0  0  0  0  0  0  0  0  0  0  0  # atno 17395 bound_to 11000

$$$$
