AV-unprocessed.smi:3111|AV-procd|sdf|11835|dock5
  -GOLD-   2272017213D 1   1.00000     0.00000
 Structure written by MMmdl.
 30 30  0  0  0  0  0  0  0  0  2 V2000
  148.5463  126.0138  151.3820 C   0  0  0  0  0  0  0  0  0  0  0  0
  149.0681  127.1483  152.1286 N   0  0  0  0  0  0  0  0  0  0  0  0
  148.3068  128.1039  152.6794 C   0  0  0  0  0  0  0  0  0  0  0  0
  147.0760  128.1065  152.6106 O   0  0  0  0  0  0  0  0  0  0  0  0
  149.0594  129.2124  153.4285 C   0  0  0  0  0  0  0  0  0  0  0  0
  148.8112  130.5418  152.8762 N   0  0  0  0  0  0  0  0  0  0  0  0
  148.3520  131.5950  153.5713 C   0  0  0  0  0  0  0  0  0  0  0  0
  148.0314  131.5308  154.7587 O   0  0  0  0  0  0  0  0  0  0  0  0
  148.2742  132.9274  152.8101 C   0  0  1  0  0  0  0  0  0  0  0  0
  149.6531  133.4412  152.3533 C   0  0  0  0  0  0  0  0  0  0  0  0
  147.3334  132.8196  151.6822 N   0  0  0  0  0  0  0  0  0  0  0  0
  146.3263  131.8992  151.5350 C   0  0  0  0  0  0  0  0  0  0  0  0
  145.7217  132.1655  150.3335 C   0  0  0  0  0  0  0  0  0  0  0  0
  146.3832  133.2361  149.7952 N   0  3  0  0  0  0  0  0  0  0  0  0
  147.3616  133.6328  150.6149 C   0  0  0  0  0  0  0  0  0  0  0  0
  149.3674  125.3803  151.0460 H   0  0  0  0  0  0  0  0  0  0  0  0
  147.9923  126.3483  150.5040 H   0  0  0  0  0  0  0  0  0  0  0  0
  147.8834  125.4107  152.0037 H   0  0  0  0  0  0  0  0  0  0  0  0
  150.0707  127.2117  152.2317 H   0  0  0  0  0  0  0  0  0  0  0  0
  148.7364  129.2093  154.4698 H   0  0  0  0  0  0  0  0  0  0  0  0
  150.1297  128.9978  153.4306 H   0  0  0  0  0  0  0  0  0  0  0  0
  149.0524  130.6807  151.9057 H   0  0  0  0  0  0  0  0  0  0  0  0
  147.8597  133.6698  153.4945 H   0  0  0  0  0  0  0  0  0  0  0  0
  150.3330  133.5481  153.1994 H   0  0  0  0  0  0  0  0  0  0  0  0
  149.5650  134.4200  151.8809 H   0  0  0  0  0  0  0  0  0  0  0  0
  150.1230  132.7694  151.6339 H   0  0  0  0  0  0  0  0  0  0  0  0
  146.1200  131.1402  152.2756 H   0  0  0  0  0  0  0  0  0  0  0  0
  144.8933  131.6850  149.8336 H   0  0  0  0  0  0  0  0  0  0  0  0
  148.0452  134.4458  150.4449 H   0  0  0  0  0  0  0  0  0  0  0  0
  146.1680  133.6655  148.9040 H   0  0  0  0  0  0  0  0  0  0  0  0
  1  2  1  0  0  0  0
  1 16  1  0  0  0  0
  1 17  1  0  0  0  0
  1 18  1  0  0  0  0
  2  3  1  0  0  0  0
  2 19  1  0  0  0  0
  3  4  2  0  0  0  0
  3  5  1  0  0  0  0
  5  6  1  0  0  0  0
  5 20  1  0  0  0  0
  5 21  1  0  0  0  0
  6  7  1  0  0  0  0
  6 22  1  0  0  0  0
  7  8  2  0  0  0  0
  7  9  1  0  0  0  0
  9 10  1  0  0  0  0
  9 11  1  0  0  0  0
  9 23  1  0  0  0  0
 10 24  1  0  0  0  0
 10 25  1  0  0  0  0
 10 26  1  0  0  0  0
 11 15  1  0  0  0  0
 11 12  1  0  0  0  0
 12 13  2  0  0  0  0
 12 27  1  0  0  0  0
 13 14  1  0  0  0  0
 13 28  1  0  0  0  0
 14 15  2  0  0  0  0
 14 30  1  0  0  0  0
 15 29  1  0  0  0  0
M  CHG  1  14   1
M  END
> <s_m_source_file>
AV-unprocessed.smi

> <i_m_source_file_index>
3111

> <i_lp_mmshare_version>
43012

> <i_f3d_flags>
0

> <s_epik_input>
W0NIM11bTkhdQyg9TylbQ0gyXVtOSF1DKD1PKVtDQEhdKFtDSDNdKW4xW2NIXVtjSF1uW2NIXTE=

> <s_epik_cmdline>
J2VwaWtfcHl0aG9uJywgJy1waCcsICc3LjAnLCAnLXRuJywgJzgnLCAnLW1hJywgJzIwMCcsICctbWV0YWxfYmluZGluZycsICctaW1hZScsICc8aW5maWxlLm1hZT4nLCAnLW9tYWUnLCAnPG91dGZpbGUubWFlPic=

> <r_lp_tautomer_probability>
1

> <r_epik_Ionization_Penalty>
0.581414

> <r_epik_Ionization_Penalty_Charging>
0

> <r_epik_Ionization_Penalty_Neutral>
0.581414

> <r_epik_State_Penalty>
0.594207

> <r_epik_Charging_Adjusted_Penalty>
0.594207

> <i_epik_Tot_Q>
1

> <i_epik_Tot_abs_Q>
1

> <r_epik_Metal_State_Penalty>
0.784638

> <b_epik_Metal_Only>
0

> <s_lp_Force_Field>
OPLS_2005

> <r_lp_Energy>
5.66591

> <b_lp_Chiralities_Consistent>
1

> <s_lp_Variant>
AV-unprocessed.smi:3111-4

> <Gold.Version>
5.8.1

> <Gold.Id.Protein>
6NUR|6NUR_protein|mol2

> <Gold.PLP.Fitness>
40.0470

> <Gold.PLP.PLP>
-29.3578

> <Gold.PLP.part.hbond>
-3.0000

> <Gold.PLP.part.metal>
0.0000

> <Gold.PLP.part.buried>
-4.5015

> <Gold.PLP.part.nonpolar>
-22.1860

> <Gold.PLP.part.repulsive>
0.4136

> <Gold.PLP.ligand.clash>
0.0000

> <Gold.PLP.ligand.torsion>
0.7037

> <Gold.PLP.Chemscore.Hbond>
3.0000

> <Gold.PLP.Chemscore.CHOScore>
1.0000

> <Gold.PLP.Chemscore.Metal>
0.0000

> <Gold.Chemscore.Hbonds>
donor molecule, donor type, donor heavy atom, donor atom, acceptor molecule, acceptor atom, score
      L1  H     2    19       P1 10737  0.84
      L1  H     6    22       P1 10747  0.95
      L1  H    14    30       P1  7921  0.25

> <Gold.PLP.Chemscore.Internal.Correction>
0.0965

> <Gold.Rescore>
     Score         DG    S(hbond)    S(metal)    S(lipo)     H(rot)  DE(clash)    DE(int)     intcor
     10.60     -10.70       1.98        0.00      39.21       2.33       0.03       0.07       ----

> <Gold.Chemscore.Fitness>
10.6003

> <Gold.Chemscore.DG>
-10.6963

> <Gold.Chemscore.ZeroCoef>
-5.4800

> <Gold.Chemscore.Hbond>
1.9750

> <Gold.Chemscore.Metal>
0.0000

> <Gold.Chemscore.Lipo>
39.2075

> <Gold.Chemscore.Internal_Hbond>
0.0000

> <Gold.Chemscore.DEClash>
0.0265

> <Gold.Chemscore.DEInternal>
0.0695

> <Gold.Chemscore.Rot>
2.3311

> <Gold.Chemscore.Internal.Correction>
   9.000000E+99

> <Gold.Chemscore.Hbonds>
donor molecule, donor type, donor heavy atom, donor atom, acceptor molecule, acceptor atom, score
      L1  H     2    19       P1 10737  0.83
      L1  H     6    22       P1 10747  0.21

> <Gold.Chemscore.Hbond.Weighted>
-6.5966

> <Gold.Chemscore.Metal.Weighted>
-0.0000

> <Gold.Chemscore.Lipo.Weighted>
-4.5873

> <Gold.Chemscore.Internal_Hbond.Weighted>
0.0000

> <Gold.Chemscore.DEClash.Weighted>
0.0265

> <Gold.Chemscore.DEInternal.Weighted>
0.0695

> <Gold.Chemscore.Rot.Weighted>
5.9676

> <Gold.Chemscore.Internal.Correction.Weighted>
   9.000000E+99

> <Gold.Protein.RotatedTorsions>
[ 6907 6896 6895 6894 ] final  -26.86 input  -60.11 | X-H torsion
[ 7974 7965 7964 7962 ] final  174.56 input  175.53 | X-H torsion
[ 8008 7997 7996 7995 ] final  -47.42 input   59.86 | X-H torsion
[ 10167 10162 10161 10158 ] final  -35.68 input  -65.29 | X-H torsion
[ 10718 10713 10712 10709 ] final -136.16 input   66.30 | X-H torsion
[ 10763 10752 10751 10750 ] final -171.97 input  -60.55 | X-H torsion
[ 11005 11000 10999 10996 ] final   57.69 input  -57.11 | X-H torsion

> <Gold.Protein.ActiveResidues>
 VAL166  LYS551  ARG553  GLY616  TRP617  ASP618  TYR619  PRO620  LYS621  CYS622 
 ASP623  PHE694  ASN695  SER759  ASP760  ASP761  ALA762  ILE779  LEU786  VAL792 
 PHE793  MET794  SER795  GLU796  ALA797  LYS798  CYS799  TRP800  GLU811  SER814 

> <Gold.Protein.RotatedAtoms>
  151.1550  135.0246  159.8684 H   0  0  0  0  0  0  0  0  0  0  0  0  # atno 6907 bound_to 6896
  152.5452  134.1345  159.8463 H   0  0  0  0  0  0  0  0  0  0  0  0  # atno 6908 bound_to 6896
  151.1434  133.4910  159.2629 H   0  0  0  0  0  0  0  0  0  0  0  0  # atno 6909 bound_to 6896
  144.7219  139.9815  143.6439 H   0  0  0  0  0  0  0  0  0  0  0  0  # atno 7974 bound_to 7965
  154.4016  140.1347  156.4172 H   0  0  0  0  0  0  0  0  0  0  0  0  # atno 8008 bound_to 7997
  155.7678  140.3484  155.5211 H   0  0  0  0  0  0  0  0  0  0  0  0  # atno 8009 bound_to 7997
  155.8797  140.0985  157.1484 H   0  0  0  0  0  0  0  0  0  0  0  0  # atno 8010 bound_to 7997
  140.7160  143.3461  151.2254 H   0  0  0  0  0  0  0  0  0  0  0  0  # atno 10167 bound_to 10162
  156.2740  130.7282  151.1258 H   0  0  0  0  0  0  0  0  0  0  0  0  # atno 10718 bound_to 10713
  154.6245  135.2879  155.0288 H   0  0  0  0  0  0  0  0  0  0  0  0  # atno 10763 bound_to 10752
  154.1471  135.6509  153.4959 H   0  0  0  0  0  0  0  0  0  0  0  0  # atno 10764 bound_to 10752
  153.0251  135.5346  154.7048 H   0  0  0  0  0  0  0  0  0  0  0  0  # atno 10765 bound_to 10752
  140.0433  134.5841  155.9354 H   0  0  0  0  0  0  0  0  0  0  0  0  # atno 11005 bound_to 11000
  146.0484  139.3487  143.0654 LP  0  0  0  0  0  0  0  0  0  0  0  0  # atno 17320 bound_to 7965
  145.8246  140.9661  143.0881 LP  0  0  0  0  0  0  0  0  0  0  0  0  # atno 17321 bound_to 7965
  139.6980  143.9580  152.2892 LP  0  0  0  0  0  0  0  0  0  0  0  0  # atno 17342 bound_to 10162
  139.9264  144.6768  150.8408 LP  0  0  0  0  0  0  0  0  0  0  0  0  # atno 17343 bound_to 10162
  157.7293  131.0625  150.5780 LP  0  0  0  0  0  0  0  0  0  0  0  0  # atno 17370 bound_to 10713
  156.5879  130.4321  149.5949 LP  0  0  0  0  0  0  0  0  0  0  0  0  # atno 17371 bound_to 10713
  141.1894  133.6565  156.5367 LP  0  0  0  0  0  0  0  0  0  0  0  0  # atno 17394 bound_to 11000
  140.4033  134.7337  157.4793 LP  0  0  0  0  0  0  0  0  0  0  0  0  # atno 17395 bound_to 11000

$$$$
