AV-unprocessed.smi:158|AV-procd|sdf|1329|dock4
  -GOLD-   2262019 23D 1   1.00000     0.00000
 Structure written by MMmdl.
 31 33  0  0  0  0  0  0  0  0  1 V2000
  154.5320  136.0543  160.9970 N   0  0  0  0  0  0  0  0  0  0  0  0
  154.3861  137.2114  160.3359 C   0  0  0  0  0  0  0  0  0  0  0  0
  155.4296  138.0728  160.3083 N   0  0  0  0  0  0  0  0  0  0  0  0
  155.3264  139.2387  159.6582 C   0  0  0  0  0  0  0  0  0  0  0  0
  156.7167  140.2582  159.6862 Cl  0  0  0  0  0  0  0  0  0  0  0  0
  154.2668  139.7018  158.9874 N   0  0  0  0  0  0  0  0  0  0  0  0
  153.2118  138.8359  159.0124 C   0  0  0  0  0  0  0  0  0  0  0  0
  153.1927  137.5743  159.6649 C   0  0  0  0  0  0  0  0  0  0  0  0
  151.9578  136.9659  159.4846 N   0  0  0  0  0  0  0  0  0  0  0  0
  151.2874  137.8248  158.7638 C   0  0  0  0  0  0  0  0  0  0  0  0
  151.9658  138.9776  158.4340 N   0  0  0  0  0  0  0  0  0  0  0  0
  151.4642  140.1311  157.6243 C   0  0  2  0  0  0  0  0  0  0  0  0
  150.0900  140.2811  157.8308 O   0  0  0  0  0  0  0  0  0  0  0  0
  149.4117  140.3928  156.5783 C   0  0  1  0  0  0  0  0  0  0  0  0
  148.2931  141.4391  156.6983 C   0  0  0  0  0  0  0  0  0  0  0  0
  148.7524  142.5820  157.3884 O   0  0  0  0  0  0  0  0  0  0  0  0
  150.5221  140.7462  155.5814 C   0  0  2  0  0  0  0  0  0  0  0  0
  150.2204  140.4077  154.2422 O   0  0  0  0  0  0  0  0  0  0  0  0
  151.6821  139.9330  156.1207 C   0  0  2  0  0  0  0  0  0  0  0  0
  151.5531  138.6402  155.8060 F   0  0  0  0  0  0  0  0  0  0  0  0
  151.9852  141.0048  158.0184 H   0  0  0  0  0  0  0  0  0  0  0  0
  148.9929  139.4115  156.3465 H   0  0  0  0  0  0  0  0  0  0  0  0
  150.7592  141.8095  155.6413 H   0  0  0  0  0  0  0  0  0  0  0  0
  152.6668  140.2771  155.8036 H   0  0  0  0  0  0  0  0  0  0  0  0
  153.7676  135.3951  161.0312 H   0  0  0  0  0  0  0  0  0  0  0  0
  155.4054  135.8430  161.4574 H   0  0  0  0  0  0  0  0  0  0  0  0
  150.2706  137.6393  158.4500 H   0  0  0  0  0  0  0  0  0  0  0  0
  147.9665  141.7494  155.7054 H   0  0  0  0  0  0  0  0  0  0  0  0
  147.4225  141.0266  157.2092 H   0  0  0  0  0  0  0  0  0  0  0  0
  149.0581  143.2127  156.7544 H   0  0  0  0  0  0  0  0  0  0  0  0
  149.2838  140.4614  154.1244 H   0  0  0  0  0  0  0  0  0  0  0  0
  1  2  1  0  0  0  0
  1 25  1  0  0  0  0
  1 26  1  0  0  0  0
  2  8  1  0  0  0  0
  2  3  2  0  0  0  0
  3  4  1  0  0  0  0
  4  5  1  0  0  0  0
  4  6  2  0  0  0  0
  6  7  1  0  0  0  0
  7 11  1  0  0  0  0
  7  8  2  0  0  0  0
  8  9  1  0  0  0  0
  9 10  2  0  0  0  0
 10 11  1  0  0  0  0
 10 27  1  0  0  0  0
 11 12  1  0  0  0  0
 12 21  1  0  0  0  0
 12 19  1  0  0  0  0
 12 13  1  0  0  0  0
 13 14  1  0  0  0  0
 14 22  1  0  0  0  0
 14 15  1  0  0  0  0
 14 17  1  0  0  0  0
 15 16  1  0  0  0  0
 15 28  1  0  0  0  0
 15 29  1  0  0  0  0
 16 30  1  0  0  0  0
 17 23  1  0  0  0  0
 17 18  1  0  0  0  0
 17 19  1  0  0  0  0
 18 31  1  0  0  0  0
 19 24  1  0  0  0  0
 19 20  1  0  0  0  0
M  END
> <s_m_source_file>
AV-unprocessed.smi

> <i_m_source_file_index>
158

> <i_lp_mmshare_version>
43012

> <i_f3d_flags>
0

> <s_epik_input>
Q2xjKG4xKW5jKFtOSDJdKWMoYzEyKW5bY0hdbjJbQ0BASF0zT1tDQEhdKFtDSDJdW09IXSlbQ0BASF0oW09IXSlbQ0BASF0zRg==

> <s_epik_cmdline>
J2VwaWtfcHl0aG9uJywgJy1waCcsICc3LjAnLCAnLXRuJywgJzgnLCAnLW1hJywgJzIwMCcsICctbWV0YWxfYmluZGluZycsICctaW1hZScsICc8aW5maWxlLm1hZT4nLCAnLW9tYWUnLCAnPG91dGZpbGUubWFlPic=

> <r_lp_tautomer_probability>
1

> <r_epik_Ionization_Penalty>
6.51543e-05

> <r_epik_Ionization_Penalty_Charging>
0

> <r_epik_Ionization_Penalty_Neutral>
6.51543e-05

> <r_epik_State_Penalty>
-0

> <r_epik_Charging_Adjusted_Penalty>
0

> <i_epik_Tot_Q>
0

> <i_epik_Tot_abs_Q>
0

> <r_epik_Metal_State_Penalty>
-0

> <b_epik_Metal_Only>
0

> <s_epik_Chemistry_Notes>
This compound contains an acetal/aminal-like group ( X-CH(R)-Y where X, Y are N, S, or O) that may be acid/base labile, releasing an aldehyde.

> <s_lp_Force_Field>
OPLS_2005

> <r_lp_Energy>
35.9636

> <b_lp_Chiralities_Consistent>
1

> <s_lp_Variant>
AV-unprocessed.smi:158-7

> <Gold.Version>
5.8.1

> <Gold.Id.Protein>
6NUR|6NUR_protein|mol2

> <Gold.PLP.Fitness>
36.6688

> <Gold.PLP.PLP>
-26.4632

> <Gold.PLP.part.hbond>
-4.6786

> <Gold.PLP.part.metal>
0.0000

> <Gold.PLP.part.buried>
-4.5030

> <Gold.PLP.part.nonpolar>
-17.9520

> <Gold.PLP.part.repulsive>
0.0624

> <Gold.PLP.ligand.clash>
0.0000

> <Gold.PLP.ligand.torsion>
0.8394

> <Gold.PLP.Chemscore.Hbond>
3.9600

> <Gold.PLP.Chemscore.CHOScore>
0.0000

> <Gold.PLP.Chemscore.Metal>
0.0000

> <Gold.Chemscore.Hbonds>
donor molecule, donor type, donor heavy atom, donor atom, acceptor molecule, acceptor atom, score
      L1  H    16    30       P1  8028  1.00
      P1  H  6896  6908       L1     9  1.00
      P1  H  7989  7998       L1    18  0.91
      P1  H  7997  8009       L1     6  1.00

> <Gold.PLP.Chemscore.Internal.Correction>
0.0044

> <Gold.Rescore>
     Score         DG    S(hbond)    S(metal)    S(lipo)     H(rot)  DE(clash)    DE(int)     intcor
     11.64     -12.42       3.42        0.00      30.08       3.12       0.00       0.78       ----

> <Gold.Chemscore.Fitness>
11.6388

> <Gold.Chemscore.DG>
-12.4241

> <Gold.Chemscore.ZeroCoef>
-5.4800

> <Gold.Chemscore.Hbond>
3.4192

> <Gold.Chemscore.Metal>
0.0000

> <Gold.Chemscore.Lipo>
30.0767

> <Gold.Chemscore.Internal_Hbond>
0.0000

> <Gold.Chemscore.DEClash>
0.0009

> <Gold.Chemscore.DEInternal>
0.7844

> <Gold.Chemscore.Rot>
3.1230

> <Gold.Chemscore.Internal.Correction>
   9.000000E+99

> <Gold.Chemscore.Hbonds>
donor molecule, donor type, donor heavy atom, donor atom, acceptor molecule, acceptor atom, score
      L1  H    16    30       P1  8028  0.91
      P1  H  6896  6908       L1     9  0.98
      P1  H  7989  7998       L1    18  0.27
      P1  H  7997  8009       L1     6  0.48

> <Gold.Chemscore.Hbond.Weighted>
-11.4201

> <Gold.Chemscore.Metal.Weighted>
-0.0000

> <Gold.Chemscore.Lipo.Weighted>
-3.5190

> <Gold.Chemscore.Internal_Hbond.Weighted>
0.0000

> <Gold.Chemscore.DEClash.Weighted>
0.0009

> <Gold.Chemscore.DEInternal.Weighted>
0.7844

> <Gold.Chemscore.Rot.Weighted>
7.9950

> <Gold.Chemscore.Internal.Correction.Weighted>
   9.000000E+99

> <Gold.Protein.RotatedTorsions>
[ 6907 6896 6895 6894 ] final -126.72 input  -60.11 | X-H torsion
[ 7974 7965 7964 7962 ] final    2.36 input  175.53 | X-H torsion
[ 8008 7997 7996 7995 ] final  139.94 input   59.86 | X-H torsion
[ 10167 10162 10161 10158 ] final   12.98 input  -65.29 | X-H torsion
[ 10718 10713 10712 10709 ] final  165.83 input   66.30 | X-H torsion
[ 10763 10752 10751 10750 ] final    2.52 input  -60.55 | X-H torsion
[ 11005 11000 10999 10996 ] final    3.16 input  -57.11 | X-H torsion

> <Gold.Protein.ActiveResidues>
 VAL166  LYS551  ARG553  GLY616  TRP617  ASP618  TYR619  PRO620  LYS621  CYS622 
 ASP623  PHE694  ASN695  SER759  ASP760  ASP761  ALA762  ILE779  LEU786  VAL792 
 PHE793  MET794  SER795  GLU796  ALA797  LYS798  CYS799  TRP800  GLU811  SER814 

> <Gold.Protein.RotatedAtoms>
  150.8998  133.7133  159.2881 H   0  0  0  0  0  0  0  0  0  0  0  0  # atno 6907 bound_to 6896
  151.4655  135.1040  159.9746 H   0  0  0  0  0  0  0  0  0  0  0  0  # atno 6908 bound_to 6896
  152.4870  133.8351  159.7179 H   0  0  0  0  0  0  0  0  0  0  0  0  # atno 6909 bound_to 6896
  146.2443  140.0848  142.8355 H   0  0  0  0  0  0  0  0  0  0  0  0  # atno 7974 bound_to 7965
  156.2984  140.2354  156.4320 H   0  0  0  0  0  0  0  0  0  0  0  0  # atno 8008 bound_to 7997
  154.8262  140.0435  157.1465 H   0  0  0  0  0  0  0  0  0  0  0  0  # atno 8009 bound_to 7997
  154.9259  140.3010  155.5196 H   0  0  0  0  0  0  0  0  0  0  0  0  # atno 8010 bound_to 7997
  140.6032  143.8561  150.6987 H   0  0  0  0  0  0  0  0  0  0  0  0  # atno 10167 bound_to 10162
  157.0745  131.0375  151.2599 H   0  0  0  0  0  0  0  0  0  0  0  0  # atno 10718 bound_to 10713
  153.2946  135.6951  153.7261 H   0  0  0  0  0  0  0  0  0  0  0  0  # atno 10763 bound_to 10752
  153.6199  135.3429  155.3008 H   0  0  0  0  0  0  0  0  0  0  0  0  # atno 10764 bound_to 10752
  154.8533  135.4383  154.2038 H   0  0  0  0  0  0  0  0  0  0  0  0  # atno 10765 bound_to 10752
  140.5962  133.9878  155.8111 H   0  0  0  0  0  0  0  0  0  0  0  0  # atno 11005 bound_to 11000
  145.0701  140.9149  143.4887 LP  0  0  0  0  0  0  0  0  0  0  0  0  # atno 17320 bound_to 7965
  145.0981  139.2842  143.5700 LP  0  0  0  0  0  0  0  0  0  0  0  0  # atno 17321 bound_to 7965
  140.2112  143.3882  152.1717 LP  0  0  0  0  0  0  0  0  0  0  0  0  # atno 17342 bound_to 10162
  139.5306  144.7154  151.5069 LP  0  0  0  0  0  0  0  0  0  0  0  0  # atno 17343 bound_to 10162
  157.4851  130.7788  149.7452 LP  0  0  0  0  0  0  0  0  0  0  0  0  # atno 17370 bound_to 10713
  155.9941  130.3920  150.2873 LP  0  0  0  0  0  0  0  0  0  0  0  0  # atno 17371 bound_to 10713
  141.0902  133.9928  157.3249 LP  0  0  0  0  0  0  0  0  0  0  0  0  # atno 17394 bound_to 11000
  139.9252  135.0201  156.8209 LP  0  0  0  0  0  0  0  0  0  0  0  0  # atno 17395 bound_to 11000

$$$$
