AV-unprocessed.smi:3303|AV-procd|sdf|12657|dock1
  -GOLD-   2272018593D 1   1.00000     0.00000
 Structure written by MMmdl.
 45 46  0  0  0  0  0  0  0  0  3 V2000
  147.0782  142.5465  154.3396 C   0  0  0  0  0  0  0  0  0  0  0  0
  148.0770  141.4099  154.0573 C   0  0  2  0  0  0  0  0  0  0  0  0
  147.3251  140.1497  153.5821 C   0  0  0  0  0  0  0  0  0  0  0  0
  148.2458  139.0223  153.2816 N   0  3  2  0  0  0  0  0  0  0  0  0
  147.5074  137.8802  152.6896 C   0  0  0  0  0  0  0  0  0  0  0  0
  149.0845  138.6584  154.4627 C   0  0  1  0  0  0  0  0  0  0  0  0
  150.0666  137.5089  154.1629 C   0  0  0  0  0  0  0  0  0  0  0  0
  149.8679  139.8916  154.9574 C   0  0  0  0  0  0  0  0  0  0  0  0
  148.9470  141.0766  155.2879 C   0  0  1  0  0  0  0  0  0  0  0  0
  149.7668  142.2425  155.6907 N   0  3  0  0  0  0  0  0  0  0  0  0
  150.6087  142.0248  156.8839 C   0  0  0  0  0  0  0  0  0  0  0  0
  151.4592  143.2648  157.1901 C   0  0  0  0  0  0  0  0  0  0  0  0
  151.8893  143.3195  158.6431 C   0  0  0  0  0  0  0  0  0  0  0  0
  151.5936  144.4450  159.4410 C   0  0  0  0  0  0  0  0  0  0  0  0
  152.0078  144.4393  160.7872 C   0  0  0  0  0  0  0  0  0  0  0  0
  152.6974  143.3148  161.2797 C   0  0  0  0  0  0  0  0  0  0  0  0
  152.9425  142.2405  160.4015 C   0  0  0  0  0  0  0  0  0  0  0  0
  152.5469  142.2345  159.1096 N   0  0  0  0  0  0  0  0  0  0  0  0
  146.4086  142.2926  155.1620 H   0  0  0  0  0  0  0  0  0  0  0  0
  146.4623  142.7533  153.4637 H   0  0  0  0  0  0  0  0  0  0  0  0
  147.5867  143.4750  154.6002 H   0  0  0  0  0  0  0  0  0  0  0  0
  148.7319  141.7353  153.2470 H   0  0  0  0  0  0  0  0  0  0  0  0
  146.6035  139.8333  154.3374 H   0  0  0  0  0  0  0  0  0  0  0  0
  146.7527  140.3924  152.6855 H   0  0  0  0  0  0  0  0  0  0  0  0
  146.8788  137.3910  153.4346 H   0  0  0  0  0  0  0  0  0  0  0  0
  148.1858  137.1396  152.2671 H   0  0  0  0  0  0  0  0  0  0  0  0
  146.8660  138.2146  151.8733 H   0  0  0  0  0  0  0  0  0  0  0  0
  148.4174  138.3304  155.2621 H   0  0  0  0  0  0  0  0  0  0  0  0
  150.7303  137.3334  155.0101 H   0  0  0  0  0  0  0  0  0  0  0  0
  150.6911  137.7320  153.2973 H   0  0  0  0  0  0  0  0  0  0  0  0
  149.5507  136.5673  153.9754 H   0  0  0  0  0  0  0  0  0  0  0  0
  150.4475  139.6267  155.8430 H   0  0  0  0  0  0  0  0  0  0  0  0
  150.5914  140.1902  154.1965 H   0  0  0  0  0  0  0  0  0  0  0  0
  148.2937  140.7832  156.1121 H   0  0  0  0  0  0  0  0  0  0  0  0
  150.3690  142.4948  154.9198 H   0  0  0  0  0  0  0  0  0  0  0  0
  149.9712  141.7938  157.7385 H   0  0  0  0  0  0  0  0  0  0  0  0
  151.2507  141.1593  156.7141 H   0  0  0  0  0  0  0  0  0  0  0  0
  152.3489  143.2755  156.5584 H   0  0  0  0  0  0  0  0  0  0  0  0
  150.9006  144.1702  156.9487 H   0  0  0  0  0  0  0  0  0  0  0  0
  151.0618  145.2933  159.0355 H   0  0  0  0  0  0  0  0  0  0  0  0
  151.7990  145.2815  161.4305 H   0  0  0  0  0  0  0  0  0  0  0  0
  153.0301  143.2760  162.3064 H   0  0  0  0  0  0  0  0  0  0  0  0
  153.4682  141.3622  160.7457 H   0  0  0  0  0  0  0  0  0  0  0  0
  149.1466  143.0177  155.8780 H   0  0  0  0  0  0  0  0  0  0  0  0
  148.8778  139.3510  152.5653 H   0  0  0  0  0  0  0  0  0  0  0  0
  1  2  1  0  0  0  0
  1 19  1  0  0  0  0
  1 20  1  0  0  0  0
  1 21  1  0  0  0  0
  2  9  1  0  0  0  0
  2  3  1  0  0  0  0
  2 22  1  0  0  0  0
  3  4  1  0  0  0  0
  3 23  1  0  0  0  0
  3 24  1  0  0  0  0
  4  5  1  0  0  0  0
  4  6  1  0  0  0  0
  4 45  1  0  0  0  0
  5 25  1  0  0  0  0
  5 26  1  0  0  0  0
  5 27  1  0  0  0  0
  6  7  1  0  0  0  0
  6  8  1  0  0  0  0
  6 28  1  0  0  0  0
  7 29  1  0  0  0  0
  7 30  1  0  0  0  0
  7 31  1  0  0  0  0
  8  9  1  0  0  0  0
  8 32  1  0  0  0  0
  8 33  1  0  0  0  0
  9 10  1  0  0  0  0
  9 34  1  0  0  0  0
 10 11  1  0  0  0  0
 10 35  1  0  0  0  0
 10 44  1  0  0  0  0
 11 12  1  0  0  0  0
 11 36  1  0  0  0  0
 11 37  1  0  0  0  0
 12 13  1  0  0  0  0
 12 38  1  0  0  0  0
 12 39  1  0  0  0  0
 13 18  1  0  0  0  0
 13 14  2  0  0  0  0
 14 15  1  0  0  0  0
 14 40  1  0  0  0  0
 15 16  2  0  0  0  0
 15 41  1  0  0  0  0
 16 17  1  0  0  0  0
 16 42  1  0  0  0  0
 17 18  2  0  0  0  0
 17 43  1  0  0  0  0
M  CHG  1   4   1
M  CHG  1  10   1
M  END
> <s_m_source_file>
AV-unprocessed.smi

> <i_m_source_file_index>
3303

> <i_lp_mmshare_version>
43012

> <i_f3d_flags>
0

> <s_epik_input>
W0NIM11bQ0BASF0xW0NIMl1OKFtDSDNdKVtDQEBIXShbQ0gzXSlbQ0gyXVtDQEhdMVtOSF1bQ0gyXVtDSDJdYzJbY0hdW2NIXVtjSF1bY0hdbjI=

> <s_epik_cmdline>
J2VwaWtfcHl0aG9uJywgJy1waCcsICc3LjAnLCAnLXRuJywgJzgnLCAnLW1hJywgJzIwMCcsICctbWV0YWxfYmluZGluZycsICctaW1hZScsICc8aW5maWxlLm1hZT4nLCAnLW9tYWUnLCAnPG91dGZpbGUubWFlPic=

> <r_epik_Ionization_Penalty>
0.0769462

> <r_epik_Ionization_Penalty_Charging>
0.0759813

> <r_epik_Ionization_Penalty_Neutral>
0.000964829

> <r_epik_State_Penalty>
0.0654373

> <r_epik_Charging_Adjusted_Penalty>
0.141419

> <i_epik_Tot_Q>
2

> <i_epik_Tot_abs_Q>
2

> <r_epik_Metal_State_Penalty>
0.0656439

> <b_epik_Metal_Only>
0

> <s_lp_Force_Field>
OPLS_2005

> <r_lp_Energy>
29.1913

> <b_lp_Chiralities_Consistent>
1

> <s_lp_Variant>
AV-unprocessed.smi:3303-1

> <Gold.Version>
5.8.1

> <Gold.Id.Protein>
6NUR|6NUR_protein|mol2

> <Gold.PLP.Fitness>
46.9236

> <Gold.PLP.PLP>
-38.1590

> <Gold.PLP.part.hbond>
-2.5484

> <Gold.PLP.part.metal>
0.0000

> <Gold.PLP.part.buried>
3.1925

> <Gold.PLP.part.nonpolar>
-39.2516

> <Gold.PLP.part.repulsive>
0.2315

> <Gold.PLP.ligand.clash>
0.0000

> <Gold.PLP.ligand.torsion>
0.1443

> <Gold.PLP.Chemscore.Hbond>
3.0000

> <Gold.PLP.Chemscore.CHOScore>
0.0000

> <Gold.PLP.Chemscore.Metal>
0.0000

> <Gold.Chemscore.Hbonds>
donor molecule, donor type, donor heavy atom, donor atom, acceptor molecule, acceptor atom, score
      L1  H     4    45       P1  7957  1.00
      L1  H    10    44       P1  8028  1.82

> <Gold.PLP.Chemscore.Internal.Correction>
0.0532

> <Gold.Rescore>
     Score         DG    S(hbond)    S(metal)    S(lipo)     H(rot)  DE(clash)    DE(int)     intcor
     20.90     -23.85       1.92        0.00     132.38       1.37       2.70       0.25       ----

> <Gold.Chemscore.Fitness>
20.9000

> <Gold.Chemscore.DG>
-23.8549

> <Gold.Chemscore.ZeroCoef>
-5.4800

> <Gold.Chemscore.Hbond>
1.9177

> <Gold.Chemscore.Metal>
0.0000

> <Gold.Chemscore.Lipo>
132.3768

> <Gold.Chemscore.Internal_Hbond>
0.0000

> <Gold.Chemscore.DEClash>
2.7042

> <Gold.Chemscore.DEInternal>
0.2506

> <Gold.Chemscore.Rot>
1.3744

> <Gold.Chemscore.Internal.Correction>
   9.000000E+99

> <Gold.Chemscore.Hbonds>
donor molecule, donor type, donor heavy atom, donor atom, acceptor molecule, acceptor atom, score
      L1  H     4    45       P1  7957  1.00
      L1  H    10    44       P1  8028  0.88

> <Gold.Chemscore.Hbond.Weighted>
-6.4052

> <Gold.Chemscore.Metal.Weighted>
-0.0000

> <Gold.Chemscore.Lipo.Weighted>
-15.4881

> <Gold.Chemscore.Internal_Hbond.Weighted>
0.0000

> <Gold.Chemscore.DEClash.Weighted>
2.7042

> <Gold.Chemscore.DEInternal.Weighted>
0.2506

> <Gold.Chemscore.Rot.Weighted>
3.5185

> <Gold.Chemscore.Internal.Correction.Weighted>
   9.000000E+99

> <Gold.Protein.RotatedTorsions>
[ 6907 6896 6895 6894 ] final   12.63 input  -60.11 | X-H torsion
[ 7974 7965 7964 7962 ] final   55.14 input  175.53 | X-H torsion
[ 8008 7997 7996 7995 ] final -117.15 input   59.86 | X-H torsion
[ 10167 10162 10161 10158 ] final -135.32 input  -65.29 | X-H torsion
[ 10718 10713 10712 10709 ] final -148.27 input   66.30 | X-H torsion
[ 10763 10752 10751 10750 ] final   72.34 input  -60.55 | X-H torsion
[ 11005 11000 10999 10996 ] final -167.61 input  -57.11 | X-H torsion

> <Gold.Protein.ActiveResidues>
 VAL166  LYS551  ARG553  GLY616  TRP617  ASP618  TYR619  PRO620  LYS621  CYS622 
 ASP623  PHE694  ASN695  SER759  ASP760  ASP761  ALA762  ILE779  LEU786  VAL792 
 PHE793  MET794  SER795  GLU796  ALA797  LYS798  CYS799  TRP800  GLU811  SER814 

> <Gold.Protein.RotatedAtoms>
  151.7734  135.0780  160.0362 H   0  0  0  0  0  0  0  0  0  0  0  0  # atno 6907 bound_to 6896
  152.3273  133.5915  159.5794 H   0  0  0  0  0  0  0  0  0  0  0  0  # atno 6908 bound_to 6896
  150.7402  133.9837  159.3626 H   0  0  0  0  0  0  0  0  0  0  0  0  # atno 6909 bound_to 6896
  145.9535  139.3994  143.0291 H   0  0  0  0  0  0  0  0  0  0  0  0  # atno 7974 bound_to 7965
  155.0791  140.0394  157.2633 H   0  0  0  0  0  0  0  0  0  0  0  0  # atno 8008 bound_to 7997
  154.6921  140.2655  155.6777 H   0  0  0  0  0  0  0  0  0  0  0  0  # atno 8009 bound_to 7997
  156.2732  140.2757  156.1503 H   0  0  0  0  0  0  0  0  0  0  0  0  # atno 8010 bound_to 7997
  139.8790  143.6862  152.2630 H   0  0  0  0  0  0  0  0  0  0  0  0  # atno 10167 bound_to 10162
  156.4182  130.8015  151.2237 H   0  0  0  0  0  0  0  0  0  0  0  0  # atno 10718 bound_to 10713
  153.0453  135.5103  154.7729 H   0  0  0  0  0  0  0  0  0  0  0  0  # atno 10763 bound_to 10752
  154.6634  135.2942  154.9839 H   0  0  0  0  0  0  0  0  0  0  0  0  # atno 10764 bound_to 10752
  154.0682  135.6681  153.4873 H   0  0  0  0  0  0  0  0  0  0  0  0  # atno 10765 bound_to 10752
  140.5513  134.5425  157.5123 H   0  0  0  0  0  0  0  0  0  0  0  0  # atno 11005 bound_to 11000
  145.8138  140.9713  143.0935 LP  0  0  0  0  0  0  0  0  0  0  0  0  # atno 17320 bound_to 7965
  144.6800  139.9955  143.7484 LP  0  0  0  0  0  0  0  0  0  0  0  0  # atno 17321 bound_to 7965
  139.7213  144.7602  151.0951 LP  0  0  0  0  0  0  0  0  0  0  0  0  # atno 17342 bound_to 10162
  140.7748  143.5204  150.9543 LP  0  0  0  0  0  0  0  0  0  0  0  0  # atno 17343 bound_to 10162
  157.7508  131.0236  150.3842 LP  0  0  0  0  0  0  0  0  0  0  0  0  # atno 17370 bound_to 10713
  156.4154  130.3942  149.6862 LP  0  0  0  0  0  0  0  0  0  0  0  0  # atno 17371 bound_to 10713
  139.9454  134.7712  156.0576 LP  0  0  0  0  0  0  0  0  0  0  0  0  # atno 17394 bound_to 11000
  141.1170  133.6624  156.3118 LP  0  0  0  0  0  0  0  0  0  0  0  0  # atno 17395 bound_to 11000

$$$$
