AV-unprocessed.smi:101|AV-procd|sdf|919|dock7
  -GOLD-   2262017423D 1   1.00000     0.00000
 Structure written by MMmdl.
 44 46  0  0  0  0  0  0  0  0  1 V2000
  145.5359  143.6824  153.4279 C   0  0  0  0  0  0  0  0  0  0  0  0
  145.8414  143.0220  154.7621 C   0  0  0  0  0  0  0  0  0  0  0  0
  146.6318  141.9233  154.8659 C   0  0  0  0  0  0  0  0  0  0  0  0
  146.9265  141.2973  156.0696 N   0  0  0  0  0  0  0  0  0  0  0  0
  147.8008  140.0661  156.1205 C   0  0  2  0  0  0  0  0  0  0  0  0
  149.0601  140.4353  156.5937 O   0  0  0  0  0  0  0  0  0  0  0  0
  150.0659  139.7837  155.8303 C   0  0  2  0  0  0  0  0  0  0  0  0
  151.3995  140.5384  155.9216 C   0  0  0  0  0  0  0  0  0  0  0  0
  151.3591  141.4152  157.0350 O   0  0  0  0  0  0  0  0  0  0  0  0
  152.2195  141.2471  158.0577 C   0  0  0  0  0  0  0  0  0  0  0  0
  152.9583  140.2670  158.1731 O   0  0  0  0  0  0  0  0  0  0  0  0
  152.1852  142.3726  159.0358 C   0  0  0  0  0  0  0  0  0  0  0  0
  152.7572  142.1950  160.3170 C   0  0  0  0  0  0  0  0  0  0  0  0
  152.7419  143.2402  161.2611 C   0  0  0  0  0  0  0  0  0  0  0  0
  152.1558  144.4769  160.9345 C   0  0  0  0  0  0  0  0  0  0  0  0
  151.5840  144.6669  159.6629 C   0  0  0  0  0  0  0  0  0  0  0  0
  151.5968  143.6220  158.7184 C   0  0  0  0  0  0  0  0  0  0  0  0
  149.4545  139.6783  154.4273 C   0  0  2  0  0  0  0  0  0  0  0  0
  149.6509  140.8701  153.6883 O   0  0  0  0  0  0  0  0  0  0  0  0
  147.9724  139.4633  154.7134 C   0  0  1  0  0  0  0  0  0  0  0  0
  147.6748  138.0807  154.7079 O   0  0  0  0  0  0  0  0  0  0  0  0
  146.3623  141.7927  157.2629 C   0  0  0  0  0  0  0  0  0  0  0  0
  146.5489  141.2690  158.3605 O   0  0  0  0  0  0  0  0  0  0  0  0
  145.5560  142.9246  157.1580 N   0  0  0  0  0  0  0  0  0  0  0  0
  145.2490  143.5976  155.9728 C   0  0  0  0  0  0  0  0  0  0  0  0
  144.5261  144.5919  156.0089 O   0  0  0  0  0  0  0  0  0  0  0  0
  145.1552  143.2863  158.0110 H   0  0  0  0  0  0  0  0  0  0  0  0
  146.0246  143.1676  152.6003 H   0  0  0  0  0  0  0  0  0  0  0  0
  145.8794  144.7175  153.4273 H   0  0  0  0  0  0  0  0  0  0  0  0
  144.4622  143.6771  153.2369 H   0  0  0  0  0  0  0  0  0  0  0  0
  147.0478  141.5144  153.9567 H   0  0  0  0  0  0  0  0  0  0  0  0
  147.3531  139.3837  156.8458 H   0  0  0  0  0  0  0  0  0  0  0  0
  150.1865  138.7739  156.2268 H   0  0  0  0  0  0  0  0  0  0  0  0
  152.2195  139.8318  156.0569 H   0  0  0  0  0  0  0  0  0  0  0  0
  151.5887  141.0952  155.0026 H   0  0  0  0  0  0  0  0  0  0  0  0
  153.2152  141.2550  160.5898 H   0  0  0  0  0  0  0  0  0  0  0  0
  153.1817  143.0925  162.2364 H   0  0  0  0  0  0  0  0  0  0  0  0
  152.1454  145.2788  161.6580 H   0  0  0  0  0  0  0  0  0  0  0  0
  151.1351  145.6162  159.4105 H   0  0  0  0  0  0  0  0  0  0  0  0
  151.1492  143.8017  157.7517 H   0  0  0  0  0  0  0  0  0  0  0  0
  149.8939  138.8594  153.8557 H   0  0  0  0  0  0  0  0  0  0  0  0
  149.3585  140.7271  152.8010 H   0  0  0  0  0  0  0  0  0  0  0  0
  147.3285  139.9604  153.9856 H   0  0  0  0  0  0  0  0  0  0  0  0
  146.9244  137.9321  155.2626 H   0  0  0  0  0  0  0  0  0  0  0  0
  1  2  1  0  0  0  0
  1 28  1  0  0  0  0
  1 29  1  0  0  0  0
  1 30  1  0  0  0  0
  2 25  1  0  0  0  0
  2  3  2  0  0  0  0
  3  4  1  0  0  0  0
  3 31  1  0  0  0  0
  4  5  1  0  0  0  0
  4 22  1  0  0  0  0
  5 20  1  0  0  0  0
  5  6  1  0  0  0  0
  5 32  1  0  0  0  0
  6  7  1  0  0  0  0
  7  8  1  0  0  0  0
  7 18  1  0  0  0  0
  7 33  1  0  0  0  0
  8  9  1  0  0  0  0
  8 34  1  0  0  0  0
  8 35  1  0  0  0  0
  9 10  1  0  0  0  0
 10 11  2  0  0  0  0
 10 12  1  0  0  0  0
 12 17  1  0  0  0  0
 12 13  2  0  0  0  0
 13 14  1  0  0  0  0
 13 36  1  0  0  0  0
 14 15  2  0  0  0  0
 14 37  1  0  0  0  0
 15 16  1  0  0  0  0
 15 38  1  0  0  0  0
 16 17  2  0  0  0  0
 16 39  1  0  0  0  0
 17 40  1  0  0  0  0
 18 19  1  0  0  0  0
 18 20  1  0  0  0  0
 18 41  1  0  0  0  0
 19 42  1  0  0  0  0
 20 21  1  0  0  0  0
 20 43  1  0  0  0  0
 21 44  1  0  0  0  0
 22 23  2  0  0  0  0
 22 24  1  0  0  0  0
 24 27  1  0  0  0  0
 24 25  1  0  0  0  0
 25 26  2  0  0  0  0
M  END
> <s_m_source_file>
AV-unprocessed.smi

> <i_m_source_file_index>
101

> <i_lp_mmshare_version>
43012

> <i_f3d_flags>
0

> <s_epik_input>
Tz1jMVtuSF1jKD1PKW4oW2NIXWMxW0NIM10pW0NAQEhdMk9bQ0BIXShbQ0BASF0oW09IXSlbQ0BIXTJbT0hdKVtDSDJdT0MoPU8pYzNbY0hdW2NIXVtjSF1bY0hdW2NIXTM=

> <s_epik_cmdline>
J2VwaWtfcHl0aG9uJywgJy1waCcsICc3LjAnLCAnLXRuJywgJzgnLCAnLW1hJywgJzIwMCcsICctbWV0YWxfYmluZGluZycsICctaW1hZScsICc8aW5maWxlLm1hZT4nLCAnLW9tYWUnLCAnPG91dGZpbGUubWFlPic=

> <r_lp_tautomer_probability>
0.999537

> <r_epik_Ionization_Penalty>
0.00263537

> <r_epik_Ionization_Penalty_Charging>
0.00263428

> <r_epik_Ionization_Penalty_Neutral>
1.09111e-06

> <r_epik_State_Penalty>
0.00183335

> <r_epik_Charging_Adjusted_Penalty>
0.00446763

> <i_epik_Tot_Q>
0

> <i_epik_Tot_abs_Q>
0

> <r_epik_Metal_State_Penalty>
1.00528

> <b_epik_Metal_Only>
0

> <s_epik_Chemistry_Notes>
This compound has an ester and may undergo hydrolysis at high or low pH. This compound contains an acetal/aminal-like group ( X-CH(R)-Y where X, Y are N, S, or O) that may be acid/base labile, releasing an aldehyde.

> <s_lp_Force_Field>
OPLS_2005

> <r_lp_Energy>
30.9331

> <b_lp_Chiralities_Consistent>
1

> <s_lp_Variant>
AV-unprocessed.smi:101-7

> <Gold.Version>
5.8.1

> <Gold.Id.Protein>
6NUR|6NUR_protein|mol2

> <Gold.PLP.Fitness>
51.1696

> <Gold.PLP.PLP>
-47.3375

> <Gold.PLP.part.hbond>
-5.0000

> <Gold.PLP.part.metal>
0.0000

> <Gold.PLP.part.buried>
-6.0219

> <Gold.PLP.part.nonpolar>
-35.5100

> <Gold.PLP.part.repulsive>
0.1658

> <Gold.PLP.ligand.clash>
0.0000

> <Gold.PLP.ligand.torsion>
1.6009

> <Gold.PLP.Chemscore.Hbond>
2.3322

> <Gold.PLP.Chemscore.CHOScore>
0.0000

> <Gold.PLP.Chemscore.Metal>
0.0000

> <Gold.Chemscore.Hbonds>
donor molecule, donor type, donor heavy atom, donor atom, acceptor molecule, acceptor atom, score
      L1  H    19    42       P1  7957  1.00
      P1  H  6934  6946       L1    23  0.05
      P1  H  7989  7998       L1    19  0.38
      P1  H  7997  8010       L1    11  0.81

> <Gold.PLP.Chemscore.Internal.Correction>
0.0373

> <Gold.Rescore>
     Score         DG    S(hbond)    S(metal)    S(lipo)     H(rot)  DE(clash)    DE(int)     intcor
     15.12     -16.47       2.25        0.00     102.31       3.32       0.04       1.31       ----

> <Gold.Chemscore.Fitness>
15.1218

> <Gold.Chemscore.DG>
-16.4714

> <Gold.Chemscore.ZeroCoef>
-5.4800

> <Gold.Chemscore.Hbond>
2.2495

> <Gold.Chemscore.Metal>
0.0000

> <Gold.Chemscore.Lipo>
102.3095

> <Gold.Chemscore.Internal_Hbond>
0.0000

> <Gold.Chemscore.DEClash>
0.0391

> <Gold.Chemscore.DEInternal>
1.3105

> <Gold.Chemscore.Rot>
3.3172

> <Gold.Chemscore.Internal.Correction>
   9.000000E+99

> <Gold.Chemscore.Hbonds>
donor molecule, donor type, donor heavy atom, donor atom, acceptor molecule, acceptor atom, score
      L1  H    19    42       P1  7957  0.95
      P1  H  6934  6946       L1    23  0.06
      P1  H  7989  7998       L1    19  0.04
      P1  H  7997  8010       L1    11  0.75

> <Gold.Chemscore.Hbond.Weighted>
-7.5133

> <Gold.Chemscore.Metal.Weighted>
-0.0000

> <Gold.Chemscore.Lipo.Weighted>
-11.9702

> <Gold.Chemscore.Internal_Hbond.Weighted>
0.0000

> <Gold.Chemscore.DEClash.Weighted>
0.0391

> <Gold.Chemscore.DEInternal.Weighted>
1.3105

> <Gold.Chemscore.Rot.Weighted>
8.4920

> <Gold.Chemscore.Internal.Correction.Weighted>
   9.000000E+99

> <Gold.Protein.RotatedTorsions>
[ 6907 6896 6895 6894 ] final  -48.24 input  -60.11 | X-H torsion
[ 7974 7965 7964 7962 ] final   56.23 input  175.53 | X-H torsion
[ 8008 7997 7996 7995 ] final   25.30 input   59.86 | X-H torsion
[ 10167 10162 10161 10158 ] final   -4.68 input  -65.29 | X-H torsion
[ 10718 10713 10712 10709 ] final  136.72 input   66.30 | X-H torsion
[ 10763 10752 10751 10750 ] final  -94.79 input  -60.55 | X-H torsion
[ 11005 11000 10999 10996 ] final  -18.49 input  -57.11 | X-H torsion

> <Gold.Protein.ActiveResidues>
 VAL166  LYS551  ARG553  GLY616  TRP617  ASP618  TYR619  PRO620  LYS621  CYS622 
 ASP623  PHE694  ASN695  SER759  ASP760  ASP761  ALA762  ILE779  LEU786  VAL792 
 PHE793  MET794  SER795  GLU796  ALA797  LYS798  CYS799  TRP800  GLU811  SER814 

> <Gold.Protein.RotatedAtoms>
  150.8925  134.8330  159.7303 H   0  0  0  0  0  0  0  0  0  0  0  0  # atno 6907 bound_to 6896
  152.4845  134.4626  159.9620 H   0  0  0  0  0  0  0  0  0  0  0  0  # atno 6908 bound_to 6896
  151.4687  133.3535  159.2855 H   0  0  0  0  0  0  0  0  0  0  0  0  # atno 6909 bound_to 6896
  145.9420  139.3896  143.0358 H   0  0  0  0  0  0  0  0  0  0  0  0  # atno 7974 bound_to 7965
  155.0095  140.3135  155.4835 H   0  0  0  0  0  0  0  0  0  0  0  0  # atno 8008 bound_to 7997
  156.2911  140.2217  156.5150 H   0  0  0  0  0  0  0  0  0  0  0  0  # atno 8009 bound_to 7997
  154.7547  140.0463  157.0911 H   0  0  0  0  0  0  0  0  0  0  0  0  # atno 8010 bound_to 7997
  140.6936  143.6395  150.8448 H   0  0  0  0  0  0  0  0  0  0  0  0  # atno 10167 bound_to 10162
  157.4436  131.1060  151.0115 H   0  0  0  0  0  0  0  0  0  0  0  0  # atno 10718 bound_to 10713
  154.7088  135.5144  153.8635 H   0  0  0  0  0  0  0  0  0  0  0  0  # atno 10763 bound_to 10752
  153.0763  135.6617  154.0148 H   0  0  0  0  0  0  0  0  0  0  0  0  # atno 10764 bound_to 10752
  153.9994  135.3012  155.3384 H   0  0  0  0  0  0  0  0  0  0  0  0  # atno 10765 bound_to 10752
  140.8273  133.8023  155.9722 H   0  0  0  0  0  0  0  0  0  0  0  0  # atno 11005 bound_to 11000
  145.8287  140.9642  143.0860 LP  0  0  0  0  0  0  0  0  0  0  0  0  # atno 17320 bound_to 7965
  144.6780  140.0135  143.7484 LP  0  0  0  0  0  0  0  0  0  0  0  0  # atno 17321 bound_to 7965
  140.0111  143.5642  152.2838 LP  0  0  0  0  0  0  0  0  0  0  0  0  # atno 17342 bound_to 10162
  139.6366  144.7650  151.2425 LP  0  0  0  0  0  0  0  0  0  0  0  0  # atno 17343 bound_to 10162
  157.0969  130.5965  149.5451 LP  0  0  0  0  0  0  0  0  0  0  0  0  # atno 17370 bound_to 10713
  155.9958  130.5026  150.7474 LP  0  0  0  0  0  0  0  0  0  0  0  0  # atno 17371 bound_to 10713
  140.9035  134.2349  157.5028 LP  0  0  0  0  0  0  0  0  0  0  0  0  # atno 17394 bound_to 11000
  139.8706  134.9717  156.4748 LP  0  0  0  0  0  0  0  0  0  0  0  0  # atno 17395 bound_to 11000

$$$$
