AV-unprocessed.smi:37|AV-procd|sdf|327|dock2
  -GOLD-   2262016153D 1   1.00000     0.00000
 Structure written by MMmdl.
 43 44  0  0  0  0  0  0  0  0  2 V2000
  146.7259  133.8616  162.3393 C   0  0  0  0  0  0  0  0  0  0  0  0
  147.7029  135.0393  162.4574 C   0  0  0  0  0  0  0  0  0  0  0  0
  147.6431  135.9650  161.2441 C   0  0  0  0  0  0  0  0  0  0  0  0
  147.3431  137.1537  161.3587 O   0  0  0  0  0  0  0  0  0  0  0  0
  147.9368  135.3345  160.0961 O   0  0  0  0  0  0  0  0  0  0  0  0
  147.6118  135.9441  158.8582 C   0  0  0  0  0  0  0  0  0  0  0  0
  148.8781  136.5621  158.2512 C   0  0  2  0  0  0  0  0  0  0  0  0
  149.3993  137.5945  159.0805 O   0  0  0  0  0  0  0  0  0  0  0  0
  150.1099  138.5175  158.3048 C   0  0  1  0  0  0  0  0  0  0  0  0
  151.5637  138.5275  158.7208 N   0  0  0  0  0  0  0  0  0  0  0  0
  152.0242  137.7252  159.7520 C   0  0  0  0  0  0  0  0  0  0  0  0
  153.3215  137.7392  160.1203 C   0  0  0  0  0  0  0  0  0  0  0  0
  153.7409  136.9467  161.1217 F   0  0  0  0  0  0  0  0  0  0  0  0
  154.2621  138.6159  159.4244 C   0  0  0  0  0  0  0  0  0  0  0  0
  155.4433  138.6274  159.7680 O   0  0  0  0  0  0  0  0  0  0  0  0
  153.7802  139.3927  158.4110 N   0  5  0  0  0  0  0  0  0  0  0  0
  152.4689  139.3790  158.0317 C   0  0  0  0  0  0  0  0  0  0  0  0
  152.0248  140.0664  157.1117 O   0  0  0  0  0  0  0  0  0  0  0  0
  149.9060  138.1362  156.8225 C   0  0  1  0  0  0  0  0  0  0  0  0
  151.4003  137.0456  156.0632 Br  0  0  0  0  0  0  0  0  0  0  0  0
  148.6728  137.2533  156.9008 C   0  0  2  0  0  0  0  0  0  0  0  0
  147.4882  138.0435  156.9323 O   0  0  0  0  0  0  0  0  0  0  0  0
  147.1793  138.8517  155.9023 C   0  0  0  0  0  0  0  0  0  0  0  0
  147.8061  138.9493  154.8473 O   0  0  0  0  0  0  0  0  0  0  0  0
  145.9348  139.6955  156.1694 C   0  0  0  0  0  0  0  0  0  0  0  0
  146.2208  141.2009  156.0785 C   0  0  0  0  0  0  0  0  0  0  0  0
  146.8277  133.1930  163.1941 H   0  0  0  0  0  0  0  0  0  0  0  0
  146.9158  133.2772  161.4383 H   0  0  0  0  0  0  0  0  0  0  0  0
  145.6900  134.2017  162.3089 H   0  0  0  0  0  0  0  0  0  0  0  0
  147.4841  135.6184  163.3548 H   0  0  0  0  0  0  0  0  0  0  0  0
  148.7213  134.6649  162.5637 H   0  0  0  0  0  0  0  0  0  0  0  0
  147.2133  135.1830  158.1859 H   0  0  0  0  0  0  0  0  0  0  0  0
  146.8395  136.7030  158.9923 H   0  0  0  0  0  0  0  0  0  0  0  0
  149.6431  135.7923  158.1355 H   0  0  0  0  0  0  0  0  0  0  0  0
  149.7209  139.5071  158.5507 H   0  0  0  0  0  0  0  0  0  0  0  0
  151.3462  137.0667  160.2738 H   0  0  0  0  0  0  0  0  0  0  0  0
  149.7855  139.0236  156.2001 H   0  0  0  0  0  0  0  0  0  0  0  0
  148.6261  136.5284  156.0867 H   0  0  0  0  0  0  0  0  0  0  0  0
  145.1610  139.4177  155.4533 H   0  0  0  0  0  0  0  0  0  0  0  0
  145.5508  139.4521  157.1604 H   0  0  0  0  0  0  0  0  0  0  0  0
  145.3257  141.7760  156.3160 H   0  0  0  0  0  0  0  0  0  0  0  0
  146.5394  141.4888  155.0757 H   0  0  0  0  0  0  0  0  0  0  0  0
  147.0013  141.4997  156.7792 H   0  0  0  0  0  0  0  0  0  0  0  0
  1  2  1  0  0  0  0
  1 27  1  0  0  0  0
  1 28  1  0  0  0  0
  1 29  1  0  0  0  0
  2  3  1  0  0  0  0
  2 30  1  0  0  0  0
  2 31  1  0  0  0  0
  3  4  2  0  0  0  0
  3  5  1  0  0  0  0
  5  6  1  0  0  0  0
  6  7  1  0  0  0  0
  6 32  1  0  0  0  0
  6 33  1  0  0  0  0
  7 21  1  0  0  0  0
  7  8  1  0  0  0  0
  7 34  1  0  0  0  0
  8  9  1  0  0  0  0
  9 10  1  0  0  0  0
  9 19  1  0  0  0  0
  9 35  1  0  0  0  0
 10 17  1  0  0  0  0
 10 11  1  0  0  0  0
 11 12  2  0  0  0  0
 11 36  1  0  0  0  0
 12 13  1  0  0  0  0
 12 14  1  0  0  0  0
 14 15  2  0  0  0  0
 14 16  1  0  0  0  0
 16 17  1  0  0  0  0
 17 18  2  0  0  0  0
 19 20  1  0  0  0  0
 19 21  1  0  0  0  0
 19 37  1  0  0  0  0
 21 22  1  0  0  0  0
 21 38  1  0  0  0  0
 22 23  1  0  0  0  0
 23 24  2  0  0  0  0
 23 25  1  0  0  0  0
 25 26  1  0  0  0  0
 25 39  1  0  0  0  0
 25 40  1  0  0  0  0
 26 41  1  0  0  0  0
 26 42  1  0  0  0  0
 26 43  1  0  0  0  0
M  CHG  1  16  -1
M  END
> <s_m_source_file>
AV-unprocessed.smi

> <i_m_source_file_index>
37

> <i_lp_mmshare_version>
43012

> <i_f3d_flags>
0

> <s_epik_input>
W0NIM11bQ0gyXUMoPU8pT1tDSDJdW0NAQEhdMU9bQ0BASF0objJbY0hdYyhGKWMoPU8pW25IXWMyPU8pW0NAQEhdKEJyKVtDQEhdMU9DKD1PKVtDSDJdW0NIM10=

> <s_epik_cmdline>
J2VwaWtfcHl0aG9uJywgJy1waCcsICc3LjAnLCAnLXRuJywgJzgnLCAnLW1hJywgJzIwMCcsICctbWV0YWxfYmluZGluZycsICctaW1hZScsICc8aW5maWxlLm1hZT4nLCAnLW9tYWUnLCAnPG91dGZpbGUubWFlPic=

> <r_epik_Ionization_Penalty>
1.08158

> <r_epik_Ionization_Penalty_Charging>
9.05154e-09

> <r_epik_Ionization_Penalty_Neutral>
1.08158

> <r_epik_State_Penalty>
1.13706

> <r_epik_Charging_Adjusted_Penalty>
1.13706

> <i_epik_Tot_Q>
-1

> <i_epik_Tot_abs_Q>
1

> <r_epik_Metal_State_Penalty>
0.00343535

> <b_epik_Metal_Only>
0

> <s_epik_Chemistry_Notes>
This compound has an ester and may undergo hydrolysis at high or low pH. This compound contains an acetal/aminal-like group ( X-CH(R)-Y where X, Y are N, S, or O) that may be acid/base labile, releasing an aldehyde.

> <s_lp_Force_Field>
OPLS_2005

> <r_lp_Energy>
34.9368

> <b_lp_Chiralities_Consistent>
1

> <s_lp_Variant>
AV-unprocessed.smi:37-25

> <Gold.Version>
5.8.1

> <Gold.Id.Protein>
6NUR|6NUR_protein|mol2

> <Gold.PLP.Fitness>
40.7028

> <Gold.PLP.PLP>
-30.2579

> <Gold.PLP.part.hbond>
-3.9601

> <Gold.PLP.part.metal>
0.0000

> <Gold.PLP.part.buried>
-5.4363

> <Gold.PLP.part.nonpolar>
-20.4184

> <Gold.PLP.part.repulsive>
0.0228

> <Gold.PLP.ligand.clash>
0.0000

> <Gold.PLP.ligand.torsion>
0.5286

> <Gold.PLP.Chemscore.Hbond>
3.7440

> <Gold.PLP.Chemscore.CHOScore>
0.0000

> <Gold.PLP.Chemscore.Metal>
0.0000

> <Gold.Chemscore.Hbonds>
donor molecule, donor type, donor heavy atom, donor atom, acceptor molecule, acceptor atom, score
      P1  H  6931  6943       L1     4  0.77
      P1  H  6934  6947       L1     4  0.98
      P1  H  7997  8009       L1    16  2.00

> <Gold.PLP.Chemscore.Internal.Correction>
0.2702

> <Gold.Rescore>
     Score         DG    S(hbond)    S(metal)    S(lipo)     H(rot)  DE(clash)    DE(int)     intcor
      9.05     -10.89       2.66        0.00      41.71       3.27       0.00       1.84       ----

> <Gold.Chemscore.Fitness>
9.0460

> <Gold.Chemscore.DG>
-10.8884

> <Gold.Chemscore.ZeroCoef>
-5.4800

> <Gold.Chemscore.Hbond>
2.6623

> <Gold.Chemscore.Metal>
0.0000

> <Gold.Chemscore.Lipo>
41.7065

> <Gold.Chemscore.Internal_Hbond>
0.0000

> <Gold.Chemscore.DEClash>
0.0000

> <Gold.Chemscore.DEInternal>
1.8424

> <Gold.Chemscore.Rot>
3.2669

> <Gold.Chemscore.Internal.Correction>
   9.000000E+99

> <Gold.Chemscore.Hbonds>
donor molecule, donor type, donor heavy atom, donor atom, acceptor molecule, acceptor atom, score
      P1  H  6931  6943       L1     4  0.55
      P1  H  6934  6947       L1     4  0.93
      P1  H  7997  8009       L1    16  0.88

> <Gold.Chemscore.Hbond.Weighted>
-8.8921

> <Gold.Chemscore.Metal.Weighted>
-0.0000

> <Gold.Chemscore.Lipo.Weighted>
-4.8797

> <Gold.Chemscore.Internal_Hbond.Weighted>
0.0000

> <Gold.Chemscore.DEClash.Weighted>
0.0000

> <Gold.Chemscore.DEInternal.Weighted>
1.8424

> <Gold.Chemscore.Rot.Weighted>
8.3634

> <Gold.Chemscore.Internal.Correction.Weighted>
   9.000000E+99

> <Gold.Protein.RotatedTorsions>
[ 6907 6896 6895 6894 ] final  148.37 input  -60.11 | X-H torsion
[ 7974 7965 7964 7962 ] final   56.30 input  175.53 | X-H torsion
[ 8008 7997 7996 7995 ] final  126.34 input   59.86 | X-H torsion
[ 10167 10162 10161 10158 ] final  102.24 input  -65.29 | X-H torsion
[ 10718 10713 10712 10709 ] final  110.56 input   66.30 | X-H torsion
[ 10763 10752 10751 10750 ] final  145.65 input  -60.55 | X-H torsion
[ 11005 11000 10999 10996 ] final -171.48 input  -57.11 | X-H torsion

> <Gold.Protein.ActiveResidues>
 VAL166  LYS551  ARG553  GLY616  TRP617  ASP618  TYR619  PRO620  LYS621  CYS622 
 ASP623  PHE694  ASN695  SER759  ASP760  ASP761  ALA762  ILE779  LEU786  VAL792 
 PHE793  MET794  SER795  GLU796  ALA797  LYS798  CYS799  TRP800  GLU811  SER814 

> <Gold.Protein.RotatedAtoms>
  152.1424  133.4472  159.4772 H   0  0  0  0  0  0  0  0  0  0  0  0  # atno 6907 bound_to 6896
  150.6887  134.2289  159.4435 H   0  0  0  0  0  0  0  0  0  0  0  0  # atno 6908 bound_to 6896
  152.0181  134.9838  160.0620 H   0  0  0  0  0  0  0  0  0  0  0  0  # atno 6909 bound_to 6896
  145.9413  139.3890  143.0362 H   0  0  0  0  0  0  0  0  0  0  0  0  # atno 7974 bound_to 7965
  156.2861  140.2695  156.2095 H   0  0  0  0  0  0  0  0  0  0  0  0  # atno 8008 bound_to 7997
  155.0279  140.0386  157.2480 H   0  0  0  0  0  0  0  0  0  0  0  0  # atno 8009 bound_to 7997
  154.7380  140.2719  155.6403 H   0  0  0  0  0  0  0  0  0  0  0  0  # atno 8010 bound_to 7997
  139.7367  144.7022  151.0638 H   0  0  0  0  0  0  0  0  0  0  0  0  # atno 10167 bound_to 10162
  157.6488  131.0935  150.6620 H   0  0  0  0  0  0  0  0  0  0  0  0  # atno 10718 bound_to 10713
  154.0089  135.2916  155.3394 H   0  0  0  0  0  0  0  0  0  0  0  0  # atno 10763 bound_to 10752
  154.7115  135.5147  153.8676 H   0  0  0  0  0  0  0  0  0  0  0  0  # atno 10764 bound_to 10752
  153.0732  135.6654  154.0323 H   0  0  0  0  0  0  0  0  0  0  0  0  # atno 10765 bound_to 10752
  140.5078  134.5831  157.5009 H   0  0  0  0  0  0  0  0  0  0  0  0  # atno 11005 bound_to 11000
  145.8296  140.9637  143.0856 LP  0  0  0  0  0  0  0  0  0  0  0  0  # atno 17320 bound_to 7965
  144.6779  140.0146  143.7484 LP  0  0  0  0  0  0  0  0  0  0  0  0  # atno 17321 bound_to 7965
  140.7780  143.4975  150.9814 LP  0  0  0  0  0  0  0  0  0  0  0  0  # atno 17342 bound_to 10162
  139.8663  143.7250  152.3170 LP  0  0  0  0  0  0  0  0  0  0  0  0  # atno 17343 bound_to 10162
  156.6933  130.4601  149.5593 LP  0  0  0  0  0  0  0  0  0  0  0  0  # atno 17370 bound_to 10713
  156.1846  130.6521  151.0991 LP  0  0  0  0  0  0  0  0  0  0  0  0  # atno 17371 bound_to 10713
  139.9676  134.7346  156.0106 LP  0  0  0  0  0  0  0  0  0  0  0  0  # atno 17394 bound_to 11000
  141.1402  133.6566  156.3707 LP  0  0  0  0  0  0  0  0  0  0  0  0  # atno 17395 bound_to 11000

$$$$
