AV-unprocessed.smi:2069|AV-procd|sdf|8438|dock9
  -GOLD-   2272011133D 1   1.00000     0.00000
 Structure written by MMmdl.
 38 39  0  0  0  0  0  0  0  0  3 V2000
  150.9544  141.2020  156.4396 C   0  0  0  0  0  0  0  0  0  0  0  0
  150.8972  139.7390  156.1613 C   0  0  0  0  0  0  0  0  0  0  0  0
  150.3195  138.8673  156.9914 N   0  0  0  0  0  0  0  0  0  0  0  0
  150.3920  137.5657  156.5159 N   0  0  0  0  0  0  0  0  0  0  0  0
  151.0120  137.4726  155.3311 C   0  0  0  0  0  0  0  0  0  0  0  0
  151.1898  136.3003  154.6998 N   0  5  0  0  0  0  0  0  0  0  0  0
  150.5344  135.1979  155.1258 C   0  0  0  0  0  0  0  0  0  0  0  0
  150.7162  134.6040  156.1914 O   0  0  0  0  0  0  0  0  0  0  0  0
  149.6026  134.7592  154.2678 N   0  0  0  0  0  0  0  0  0  0  0  0
  148.7287  133.6087  154.4770 C   0  0  0  0  0  0  0  0  0  0  0  0
  149.1132  132.3859  153.6002 C   0  0  1  0  0  0  0  0  0  0  0  0
  149.5650  131.2090  154.4996 C   0  0  0  0  0  0  0  0  0  0  0  0
  147.9895  132.0272  152.6740 N   0  3  0  0  0  0  0  0  0  0  0  0
  146.9870  131.1284  153.3107 C   0  0  0  0  0  0  0  0  0  0  0  0
  145.8879  130.7246  152.3151 C   0  0  0  0  0  0  0  0  0  0  0  0
  145.2530  131.8900  151.8116 O   0  0  0  0  0  0  0  0  0  0  0  0
  146.1680  132.7132  151.1047 C   0  0  0  0  0  0  0  0  0  0  0  0
  147.2894  133.1830  152.0471 C   0  0  0  0  0  0  0  0  0  0  0  0
  151.5817  139.0227  154.7122 S   0  0  0  0  0  0  0  0  0  0  0  0
  149.9988  141.6652  156.1941 H   0  0  0  0  0  0  0  0  0  0  0  0
  151.7352  141.6713  155.8408 H   0  0  0  0  0  0  0  0  0  0  0  0
  151.1710  141.3781  157.4935 H   0  0  0  0  0  0  0  0  0  0  0  0
  149.4893  135.2713  153.4050 H   0  0  0  0  0  0  0  0  0  0  0  0
  148.7826  133.3371  155.5316 H   0  0  0  0  0  0  0  0  0  0  0  0
  147.7053  133.9376  154.3035 H   0  0  0  0  0  0  0  0  0  0  0  0
  149.9702  132.6525  152.9797 H   0  0  0  0  0  0  0  0  0  0  0  0
  150.3572  131.5056  155.1870 H   0  0  0  0  0  0  0  0  0  0  0  0
  149.9789  130.3846  153.9194 H   0  0  0  0  0  0  0  0  0  0  0  0
  148.7391  130.8264  155.1002 H   0  0  0  0  0  0  0  0  0  0  0  0
  147.4511  130.2195  153.6880 H   0  0  0  0  0  0  0  0  0  0  0  0
  146.5388  131.6320  154.1688 H   0  0  0  0  0  0  0  0  0  0  0  0
  146.2994  130.1320  151.4964 H   0  0  0  0  0  0  0  0  0  0  0  0
  145.1415  130.1049  152.8126 H   0  0  0  0  0  0  0  0  0  0  0  0
  146.5783  132.1721  150.2504 H   0  0  0  0  0  0  0  0  0  0  0  0
  145.6301  133.5733  150.7056 H   0  0  0  0  0  0  0  0  0  0  0  0
  146.8794  133.8282  152.8257 H   0  0  0  0  0  0  0  0  0  0  0  0
  147.9800  133.7819  151.4543 H   0  0  0  0  0  0  0  0  0  0  0  0
  148.4064  131.5108  151.9125 H   0  0  0  0  0  0  0  0  0  0  0  0
  1  2  1  0  0  0  0
  1 20  1  0  0  0  0
  1 21  1  0  0  0  0
  1 22  1  0  0  0  0
  2 19  1  0  0  0  0
  2  3  2  0  0  0  0
  3  4  1  0  0  0  0
  4  5  2  0  0  0  0
  5  6  1  0  0  0  0
  5 19  1  0  0  0  0
  6  7  1  0  0  0  0
  7  8  2  0  0  0  0
  7  9  1  0  0  0  0
  9 10  1  0  0  0  0
  9 23  1  0  0  0  0
 10 11  1  0  0  0  0
 10 24  1  0  0  0  0
 10 25  1  0  0  0  0
 11 12  1  0  0  0  0
 11 13  1  0  0  0  0
 11 26  1  0  0  0  0
 12 27  1  0  0  0  0
 12 28  1  0  0  0  0
 12 29  1  0  0  0  0
 13 18  1  0  0  0  0
 13 14  1  0  0  0  0
 13 38  1  0  0  0  0
 14 15  1  0  0  0  0
 14 30  1  0  0  0  0
 14 31  1  0  0  0  0
 15 16  1  0  0  0  0
 15 32  1  0  0  0  0
 15 33  1  0  0  0  0
 16 17  1  0  0  0  0
 17 18  1  0  0  0  0
 17 34  1  0  0  0  0
 17 35  1  0  0  0  0
 18 36  1  0  0  0  0
 18 37  1  0  0  0  0
M  CHG  1   6  -1
M  CHG  1  13   1
M  END
> <s_m_source_file>
AV-unprocessed.smi

> <i_m_source_file_index>
2069

> <i_lp_mmshare_version>
43012

> <i_f3d_flags>
0

> <s_epik_input>
W0NIM11jMW5uYyhzMSlbTkhdQyg9TylbTkhdW0NIMl1bQ0BIXShbQ0gzXSlOMltDSDJdW0NIMl1PW0NIMl1bQ0gyXTI=

> <s_epik_cmdline>
J2VwaWtfcHl0aG9uJywgJy1waCcsICc3LjAnLCAnLXRuJywgJzgnLCAnLW1hJywgJzIwMCcsICctbWV0YWxfYmluZGluZycsICctaW1hZScsICc8aW5maWxlLm1hZT4nLCAnLW9tYWUnLCAnPG91dGZpbGUubWFlPic=

> <r_lp_tautomer_probability>
1

> <r_epik_Ionization_Penalty>
3.53072

> <r_epik_Ionization_Penalty_Charging>
3.4216

> <r_epik_Ionization_Penalty_Neutral>
0.109115

> <r_epik_State_Penalty>
3.61496

> <r_epik_Charging_Adjusted_Penalty>
7.03656

> <i_epik_Tot_Q>
0

> <i_epik_Tot_abs_Q>
2

> <r_epik_Metal_State_Penalty>
1.13918

> <b_epik_Metal_Only>
1

> <s_lp_Force_Field>
OPLS_2005

> <r_lp_Energy>
13.0561

> <b_lp_Chiralities_Consistent>
1

> <s_lp_Variant>
AV-unprocessed.smi:2069-8

> <Gold.Version>
5.8.1

> <Gold.Id.Protein>
6NUR|6NUR_protein|mol2

> <Gold.PLP.Fitness>
38.7058

> <Gold.PLP.PLP>
-31.4547

> <Gold.PLP.part.hbond>
-3.0000

> <Gold.PLP.part.metal>
0.0000

> <Gold.PLP.part.buried>
-4.5909

> <Gold.PLP.part.nonpolar>
-25.0725

> <Gold.PLP.part.repulsive>
0.3464

> <Gold.PLP.ligand.clash>
0.0000

> <Gold.PLP.ligand.torsion>
1.8868

> <Gold.PLP.Chemscore.Hbond>
3.6500

> <Gold.PLP.Chemscore.CHOScore>
0.0000

> <Gold.PLP.Chemscore.Metal>
0.0000

> <Gold.Chemscore.Hbonds>
donor molecule, donor type, donor heavy atom, donor atom, acceptor molecule, acceptor atom, score
      L1  H     9    23       P1  7948  0.65
      L1  H    13    38       P1 10747  1.00
      P1  H 10752 10764       L1     6  1.90

> <Gold.PLP.Chemscore.Internal.Correction>
0.0747

> <Gold.Rescore>
     Score         DG    S(hbond)    S(metal)    S(lipo)     H(rot)  DE(clash)    DE(int)     intcor
     13.74     -15.52       1.96        0.00      65.35       1.62       0.03       1.75       ----

> <Gold.Chemscore.Fitness>
13.7390

> <Gold.Chemscore.DG>
-15.5240

> <Gold.Chemscore.ZeroCoef>
-5.4800

> <Gold.Chemscore.Hbond>
1.9592

> <Gold.Chemscore.Metal>
0.0000

> <Gold.Chemscore.Lipo>
65.3452

> <Gold.Chemscore.Internal_Hbond>
0.0000

> <Gold.Chemscore.DEClash>
0.0301

> <Gold.Chemscore.DEInternal>
1.7549

> <Gold.Chemscore.Rot>
1.6192

> <Gold.Chemscore.Internal.Correction>
   9.000000E+99

> <Gold.Chemscore.Hbonds>
donor molecule, donor type, donor heavy atom, donor atom, acceptor molecule, acceptor atom, score
      L1  H     9    23       P1  7948  0.06
      L1  H    13    38       P1 10747  1.00
      P1  H 10752 10764       L1     6  0.21

> <Gold.Chemscore.Hbond.Weighted>
-6.5438

> <Gold.Chemscore.Metal.Weighted>
-0.0000

> <Gold.Chemscore.Lipo.Weighted>
-7.6454

> <Gold.Chemscore.Internal_Hbond.Weighted>
0.0000

> <Gold.Chemscore.DEClash.Weighted>
0.0301

> <Gold.Chemscore.DEInternal.Weighted>
1.7549

> <Gold.Chemscore.Rot.Weighted>
4.1452

> <Gold.Chemscore.Internal.Correction.Weighted>
   9.000000E+99

> <Gold.Protein.RotatedTorsions>
[ 6907 6896 6895 6894 ] final  106.97 input  -60.11 | X-H torsion
[ 7974 7965 7964 7962 ] final   99.01 input  175.53 | X-H torsion
[ 8008 7997 7996 7995 ] final -145.37 input   59.86 | X-H torsion
[ 10167 10162 10161 10158 ] final -123.45 input  -65.29 | X-H torsion
[ 10718 10713 10712 10709 ] final -148.62 input   66.30 | X-H torsion
[ 10763 10752 10751 10750 ] final  -57.48 input  -60.55 | X-H torsion
[ 11005 11000 10999 10996 ] final  179.42 input  -57.11 | X-H torsion

> <Gold.Protein.ActiveResidues>
 VAL166  LYS551  ARG553  GLY616  TRP617  ASP618  TYR619  PRO620  LYS621  CYS622 
 ASP623  PHE694  ASN695  SER759  ASP760  ASP761  ALA762  ILE779  LEU786  VAL792 
 PHE793  MET794  SER795  GLU796  ALA797  LYS798  CYS799  TRP800  GLU811  SER814 

> <Gold.Protein.RotatedAtoms>
  152.5173  133.9303  159.7577 H   0  0  0  0  0  0  0  0  0  0  0  0  # atno 6907 bound_to 6896
  150.9655  133.6391  159.2754 H   0  0  0  0  0  0  0  0  0  0  0  0  # atno 6908 bound_to 6896
  151.3621  135.0911  159.9490 H   0  0  0  0  0  0  0  0  0  0  0  0  # atno 6909 bound_to 6896
  145.4046  139.2342  143.3281 H   0  0  0  0  0  0  0  0  0  0  0  0  # atno 7974 bound_to 7965
  155.5420  140.0609  157.2868 H   0  0  0  0  0  0  0  0  0  0  0  0  # atno 8008 bound_to 7997
  154.4449  140.1917  156.0645 H   0  0  0  0  0  0  0  0  0  0  0  0  # atno 8009 bound_to 7997
  156.0577  140.3276  155.7429 H   0  0  0  0  0  0  0  0  0  0  0  0  # atno 8010 bound_to 7997
  140.0034  143.5517  152.2294 H   0  0  0  0  0  0  0  0  0  0  0  0  # atno 10167 bound_to 10162
  156.4226  130.8036  151.2260 H   0  0  0  0  0  0  0  0  0  0  0  0  # atno 10718 bound_to 10713
  154.2230  135.6374  153.5151 H   0  0  0  0  0  0  0  0  0  0  0  0  # atno 10763 bound_to 10752
  152.9965  135.5501  154.6093 H   0  0  0  0  0  0  0  0  0  0  0  0  # atno 10764 bound_to 10752
  154.5558  135.2905  155.0940 H   0  0  0  0  0  0  0  0  0  0  0  0  # atno 10765 bound_to 10752
  140.4060  134.6735  157.4588 H   0  0  0  0  0  0  0  0  0  0  0  0  # atno 11005 bound_to 11000
  146.2735  140.4748  142.8805 LP  0  0  0  0  0  0  0  0  0  0  0  0  # atno 17320 bound_to 7965
  144.8351  140.6768  143.6266 LP  0  0  0  0  0  0  0  0  0  0  0  0  # atno 17321 bound_to 7965
  139.6256  144.7636  151.2646 LP  0  0  0  0  0  0  0  0  0  0  0  0  # atno 17342 bound_to 10162
  140.7410  143.6570  150.8198 LP  0  0  0  0  0  0  0  0  0  0  0  0  # atno 17343 bound_to 10162
  157.7508  131.0223  150.3787 LP  0  0  0  0  0  0  0  0  0  0  0  0  # atno 17370 bound_to 10713
  156.4107  130.3933  149.6893 LP  0  0  0  0  0  0  0  0  0  0  0  0  # atno 17371 bound_to 10713
  140.0302  134.6417  155.9117 LP  0  0  0  0  0  0  0  0  0  0  0  0  # atno 17394 bound_to 11000
  141.1839  133.6552  156.5136 LP  0  0  0  0  0  0  0  0  0  0  0  0  # atno 17395 bound_to 11000

$$$$
