AV-unprocessed.smi:460|AV-procd|sdf|2627|dock5
  -GOLD-   2262023 33D 1   1.00000     0.00000
 Structure written by MMmdl.
 46 48  0  0  0  0  0  0  0  0  1 V2000
  147.9057  141.1092  153.8991 C   0  0  0  0  0  0  0  0  0  0  0  0
  148.9673  141.7112  154.8333 C   0  0  0  0  0  0  0  0  0  0  0  0
  149.8390  140.6795  155.5815 C   0  0  1  0  0  0  0  0  0  0  0  0
  150.6690  140.0245  154.6414 O   0  0  0  0  0  0  0  0  0  0  0  0
  150.6189  141.2704  156.7275 C   0  0  0  0  0  0  0  0  0  0  0  0
  150.7912  142.5870  156.8732 N   0  0  0  0  0  0  0  0  0  0  0  0
  151.5376  142.6747  158.0309 C   0  0  0  0  0  0  0  0  0  0  0  0
  152.0549  143.8027  158.7071 C   0  0  0  0  0  0  0  0  0  0  0  0
  152.8074  143.6433  159.8892 C   0  0  0  0  0  0  0  0  0  0  0  0
  153.0499  142.3568  160.4125 C   0  0  0  0  0  0  0  0  0  0  0  0
  152.5391  141.2207  159.7564 C   0  0  0  0  0  0  0  0  0  0  0  0
  151.7922  141.3847  158.5742 C   0  0  0  0  0  0  0  0  0  0  0  0
  151.1742  140.4978  157.6968 N   0  0  0  0  0  0  0  0  0  0  0  0
  151.1622  139.0454  157.8182 C   0  0  0  0  0  0  0  0  0  0  0  0
  149.7332  138.4826  157.8315 C   0  0  0  0  0  0  0  0  0  0  0  0
  149.5289  137.8016  159.0611 O   0  0  0  0  0  0  0  0  0  0  0  0
  149.2632  136.4503  159.0423 C   0  0  0  0  0  0  0  0  0  0  0  0
  149.4659  135.6243  157.9089 C   0  0  0  0  0  0  0  0  0  0  0  0
  149.1663  134.2509  157.9667 C   0  0  0  0  0  0  0  0  0  0  0  0
  148.6636  133.6907  159.1538 C   0  0  0  0  0  0  0  0  0  0  0  0
  148.4602  134.5028  160.2844 C   0  0  0  0  0  0  0  0  0  0  0  0
  148.7580  135.8883  160.2369 C   0  0  0  0  0  0  0  0  0  0  0  0
  148.5875  136.7463  161.3042 O   0  0  0  0  0  0  0  0  0  0  0  0
  148.0996  136.2143  162.5262 C   0  0  0  0  0  0  0  0  0  0  0  0
  147.3036  141.8958  153.4440 H   0  0  0  0  0  0  0  0  0  0  0  0
  147.2294  140.4472  154.4403 H   0  0  0  0  0  0  0  0  0  0  0  0
  148.3609  140.5377  153.0900 H   0  0  0  0  0  0  0  0  0  0  0  0
  149.6113  142.3615  154.2413 H   0  0  0  0  0  0  0  0  0  0  0  0
  148.4772  142.3616  155.5589 H   0  0  0  0  0  0  0  0  0  0  0  0
  149.1882  139.8992  155.9753 H   0  0  0  0  0  0  0  0  0  0  0  0
  151.0846  139.2920  155.0697 H   0  0  0  0  0  0  0  0  0  0  0  0
  151.8757  144.7921  158.3131 H   0  0  0  0  0  0  0  0  0  0  0  0
  153.2016  144.5118  160.3962 H   0  0  0  0  0  0  0  0  0  0  0  0
  153.6300  142.2417  161.3163 H   0  0  0  0  0  0  0  0  0  0  0  0
  152.7287  140.2338  160.1514 H   0  0  0  0  0  0  0  0  0  0  0  0
  151.7169  138.6260  156.9783 H   0  0  0  0  0  0  0  0  0  0  0  0
  151.7017  138.7438  158.7150 H   0  0  0  0  0  0  0  0  0  0  0  0
  149.0160  139.2974  157.7258 H   0  0  0  0  0  0  0  0  0  0  0  0
  149.5974  137.7992  156.9919 H   0  0  0  0  0  0  0  0  0  0  0  0
  149.8474  136.0229  156.9812 H   0  0  0  0  0  0  0  0  0  0  0  0
  149.3216  133.6274  157.0987 H   0  0  0  0  0  0  0  0  0  0  0  0
  148.4326  132.6364  159.1977 H   0  0  0  0  0  0  0  0  0  0  0  0
  148.0722  134.0384  161.1779 H   0  0  0  0  0  0  0  0  0  0  0  0
  148.0468  137.0116  163.2676 H   0  0  0  0  0  0  0  0  0  0  0  0
  148.7634  135.4429  162.9187 H   0  0  0  0  0  0  0  0  0  0  0  0
  147.0953  135.8047  162.4099 H   0  0  0  0  0  0  0  0  0  0  0  0
  1  2  1  0  0  0  0
  1 25  1  0  0  0  0
  1 26  1  0  0  0  0
  1 27  1  0  0  0  0
  2  3  1  0  0  0  0
  2 28  1  0  0  0  0
  2 29  1  0  0  0  0
  3  4  1  0  0  0  0
  3  5  1  0  0  0  0
  3 30  1  0  0  0  0
  4 31  1  0  0  0  0
  5 13  1  0  0  0  0
  5  6  2  0  0  0  0
  6  7  1  0  0  0  0
  7 12  2  0  0  0  0
  7  8  1  0  0  0  0
  8  9  2  0  0  0  0
  8 32  1  0  0  0  0
  9 10  1  0  0  0  0
  9 33  1  0  0  0  0
 10 11  2  0  0  0  0
 10 34  1  0  0  0  0
 11 12  1  0  0  0  0
 11 35  1  0  0  0  0
 12 13  1  0  0  0  0
 13 14  1  0  0  0  0
 14 15  1  0  0  0  0
 14 36  1  0  0  0  0
 14 37  1  0  0  0  0
 15 16  1  0  0  0  0
 15 38  1  0  0  0  0
 15 39  1  0  0  0  0
 16 17  1  0  0  0  0
 17 22  1  0  0  0  0
 17 18  2  0  0  0  0
 18 19  1  0  0  0  0
 18 40  1  0  0  0  0
 19 20  2  0  0  0  0
 19 41  1  0  0  0  0
 20 21  1  0  0  0  0
 20 42  1  0  0  0  0
 21 22  2  0  0  0  0
 21 43  1  0  0  0  0
 22 23  1  0  0  0  0
 23 24  1  0  0  0  0
 24 44  1  0  0  0  0
 24 45  1  0  0  0  0
 24 46  1  0  0  0  0
M  END
> <s_m_source_file>
AV-unprocessed.smi

> <i_m_source_file_index>
460

> <i_lp_mmshare_version>
43012

> <i_f3d_flags>
0

> <s_epik_input>
W2NIXTFbY0hdW2NIXVtjSF1jKGMxMiluKGMobjIpW0NAQEhdKFtPSF0pW0NIMl1bQ0gzXSlbQ0gyXVtDSDJdT2MzW2NIXVtjSF1bY0hdW2NIXWMzT1tDSDNd

> <s_epik_cmdline>
J2VwaWtfcHl0aG9uJywgJy1waCcsICc3LjAnLCAnLXRuJywgJzgnLCAnLW1hJywgJzIwMCcsICctbWV0YWxfYmluZGluZycsICctaW1hZScsICc8aW5maWxlLm1hZT4nLCAnLW9tYWUnLCAnPG91dGZpbGUubWFlPic=

> <r_lp_tautomer_probability>
1

> <r_epik_Ionization_Penalty>
0.0507825

> <r_epik_Ionization_Penalty_Charging>
0

> <r_epik_Ionization_Penalty_Neutral>
0.0507825

> <r_epik_State_Penalty>
0.0434615

> <r_epik_Charging_Adjusted_Penalty>
0.0434615

> <i_epik_Tot_Q>
0

> <i_epik_Tot_abs_Q>
0

> <r_epik_Metal_State_Penalty>
4.50935e-05

> <b_epik_Metal_Only>
0

> <s_lp_Force_Field>
OPLS_2005

> <r_lp_Energy>
20.6013

> <b_lp_Chiralities_Consistent>
1

> <s_lp_Variant>
AV-unprocessed.smi:460-2

> <Gold.Version>
5.8.1

> <Gold.Id.Protein>
6NUR|6NUR_protein|mol2

> <Gold.PLP.Fitness>
55.0714

> <Gold.PLP.PLP>
-49.6284

> <Gold.PLP.part.hbond>
-4.5815

> <Gold.PLP.part.metal>
0.0000

> <Gold.PLP.part.buried>
-3.1727

> <Gold.PLP.part.nonpolar>
-41.3046

> <Gold.PLP.part.repulsive>
0.1195

> <Gold.PLP.ligand.clash>
0.0000

> <Gold.PLP.ligand.torsion>
1.3445

> <Gold.PLP.Chemscore.Hbond>
2.6552

> <Gold.PLP.Chemscore.CHOScore>
0.0000

> <Gold.PLP.Chemscore.Metal>
0.0000

> <Gold.Chemscore.Hbonds>
donor molecule, donor type, donor heavy atom, donor atom, acceptor molecule, acceptor atom, score
      P1  H  6931  6943       L1    23  0.85
      P1  H  7989  7998       L1     4  1.00

> <Gold.PLP.Chemscore.Internal.Correction>
0.1664

> <Gold.Rescore>
     Score         DG    S(hbond)    S(metal)    S(lipo)     H(rot)  DE(clash)    DE(int)     intcor
     19.58     -21.37       2.23        0.00     123.66       2.36       0.07       1.73       ----

> <Gold.Chemscore.Fitness>
19.5759

> <Gold.Chemscore.DG>
-21.3744

> <Gold.Chemscore.ZeroCoef>
-5.4800

> <Gold.Chemscore.Hbond>
2.2349

> <Gold.Chemscore.Metal>
0.0000

> <Gold.Chemscore.Lipo>
123.6607

> <Gold.Chemscore.Internal_Hbond>
0.0000

> <Gold.Chemscore.DEClash>
0.0727

> <Gold.Chemscore.DEInternal>
1.7257

> <Gold.Chemscore.Rot>
2.3587

> <Gold.Chemscore.Internal.Correction>
   9.000000E+99

> <Gold.Chemscore.Hbonds>
donor molecule, donor type, donor heavy atom, donor atom, acceptor molecule, acceptor atom, score
      P1  H  6931  6943       L1    23  0.15
      P1  H  7989  7998       L1     4  0.92

> <Gold.Chemscore.Hbond.Weighted>
-7.4645

> <Gold.Chemscore.Metal.Weighted>
-0.0000

> <Gold.Chemscore.Lipo.Weighted>
-14.4683

> <Gold.Chemscore.Internal_Hbond.Weighted>
0.0000

> <Gold.Chemscore.DEClash.Weighted>
0.0727

> <Gold.Chemscore.DEInternal.Weighted>
1.7257

> <Gold.Chemscore.Rot.Weighted>
6.0384

> <Gold.Chemscore.Internal.Correction.Weighted>
   9.000000E+99

> <Gold.Protein.RotatedTorsions>
[ 6907 6896 6895 6894 ] final  166.62 input  -60.11 | X-H torsion
[ 7974 7965 7964 7962 ] final   36.58 input  175.53 | X-H torsion
[ 8008 7997 7996 7995 ] final    2.18 input   59.86 | X-H torsion
[ 10167 10162 10161 10158 ] final   72.80 input  -65.29 | X-H torsion
[ 10718 10713 10712 10709 ] final -141.25 input   66.30 | X-H torsion
[ 10763 10752 10751 10750 ] final   65.85 input  -60.55 | X-H torsion
[ 11005 11000 10999 10996 ] final -132.80 input  -57.11 | X-H torsion

> <Gold.Protein.ActiveResidues>
 VAL166  LYS551  ARG553  GLY616  TRP617  ASP618  TYR619  PRO620  LYS621  CYS622 
 ASP623  PHE694  ASN695  SER759  ASP760  ASP761  ALA762  ILE779  LEU786  VAL792 
 PHE793  MET794  SER795  GLU796  ALA797  LYS798  CYS799  TRP800  GLU811  SER814 

> <Gold.Protein.RotatedAtoms>
  151.8760  133.3485  159.3750 H   0  0  0  0  0  0  0  0  0  0  0  0  # atno 6907 bound_to 6896
  150.7140  134.5065  159.5596 H   0  0  0  0  0  0  0  0  0  0  0  0  # atno 6908 bound_to 6896
  152.2608  134.8037  160.0482 H   0  0  0  0  0  0  0  0  0  0  0  0  # atno 6909 bound_to 6896
  146.1201  139.6000  142.9295 H   0  0  0  0  0  0  0  0  0  0  0  0  # atno 7974 bound_to 7965
  154.6885  140.2648  155.6836 H   0  0  0  0  0  0  0  0  0  0  0  0  # atno 8008 bound_to 7997
  156.2723  140.2796  156.1378 H   0  0  0  0  0  0  0  0  0  0  0  0  # atno 8009 bound_to 7997
  155.0930  140.0373  157.2664 H   0  0  0  0  0  0  0  0  0  0  0  0  # atno 8010 bound_to 7997
  140.0313  144.5463  150.7504 H   0  0  0  0  0  0  0  0  0  0  0  0  # atno 10167 bound_to 10162
  156.3318  130.7590  151.1710 H   0  0  0  0  0  0  0  0  0  0  0  0  # atno 10718 bound_to 10713
  153.0114  135.5342  154.6732 H   0  0  0  0  0  0  0  0  0  0  0  0  # atno 10763 bound_to 10752
  154.5911  135.2859  155.0637 H   0  0  0  0  0  0  0  0  0  0  0  0  # atno 10764 bound_to 10752
  154.1729  135.6529  153.5066 H   0  0  0  0  0  0  0  0  0  0  0  0  # atno 10765 bound_to 10752
  140.9137  134.1534  157.4369 H   0  0  0  0  0  0  0  0  0  0  0  0  # atno 11005 bound_to 11000
  145.5484  141.0415  143.2292 LP  0  0  0  0  0  0  0  0  0  0  0  0  # atno 17320 bound_to 7965
  144.7589  139.7005  143.7242 LP  0  0  0  0  0  0  0  0  0  0  0  0  # atno 17321 bound_to 7965
  140.7300  143.2679  151.3984 LP  0  0  0  0  0  0  0  0  0  0  0  0  # atno 17342 bound_to 10162
  139.6074  144.1169  152.2263 LP  0  0  0  0  0  0  0  0  0  0  0  0  # atno 17343 bound_to 10162
  157.7432  131.0479  150.4968 LP  0  0  0  0  0  0  0  0  0  0  0  0  # atno 17370 bound_to 10713
  156.5135  130.4145  149.6288 LP  0  0  0  0  0  0  0  0  0  0  0  0  # atno 17371 bound_to 10713
  139.8762  134.9945  156.5699 LP  0  0  0  0  0  0  0  0  0  0  0  0  # atno 17394 bound_to 11000
  140.8077  133.8454  155.8782 LP  0  0  0  0  0  0  0  0  0  0  0  0  # atno 17395 bound_to 11000

$$$$
