AV-unprocessed.smi:1920|AV-procd|sdf|7778|dock9
  -GOLD-   22720 9523D 1   1.00000     0.00000
 Structure written by MMmdl.
 37 38  0  0  0  0  0  0  0  0  2 V2000
  150.3172  138.1713  156.9618 C   0  0  0  0  0  0  0  0  0  0  0  0
  151.5806  139.0415  156.9211 C   0  0  1  0  0  0  0  0  0  0  0  0
  151.7582  139.7048  155.5386 C   0  0  0  0  0  0  0  0  0  0  0  0
  150.6558  140.6083  155.1920 N   0  0  0  0  0  0  0  0  0  0  0  0
  149.6674  140.3940  154.2656 C   0  0  0  0  0  0  0  0  0  0  0  0
  148.8712  141.5100  154.2784 C   0  0  0  0  0  0  0  0  0  0  0  0
  149.4025  142.3546  155.2159 N   0  3  0  0  0  0  0  0  0  0  0  0
  150.4850  141.8027  155.7737 C   0  0  0  0  0  0  0  0  0  0  0  0
  151.4964  140.0436  157.9831 N   0  0  0  0  0  0  0  0  0  0  0  0
  152.4812  140.3694  158.8356 C   0  0  0  0  0  0  0  0  0  0  0  0
  153.6074  139.8744  158.7899 O   0  0  0  0  0  0  0  0  0  0  0  0
  152.1459  141.4255  159.8942 C   0  0  0  0  0  0  0  0  0  0  0  0
  152.7983  142.7997  159.6273 C   0  0  2  0  0  0  0  0  0  0  0  0
  152.4883  143.8350  160.6818 C   0  0  0  0  0  0  0  0  0  0  0  0
  152.0017  144.9623  160.1680 C   0  0  0  0  0  0  0  0  0  0  0  0
  151.8873  144.9094  158.6699 C   0  0  0  0  0  0  0  0  0  0  0  0
  152.3056  143.4647  158.3164 C   0  0  0  0  0  0  0  0  0  0  0  0
  150.3572  137.3851  156.2073 H   0  0  0  0  0  0  0  0  0  0  0  0
  149.4198  138.7631  156.7777 H   0  0  0  0  0  0  0  0  0  0  0  0
  150.2042  137.6875  157.9326 H   0  0  0  0  0  0  0  0  0  0  0  0
  152.4295  138.3806  157.1070 H   0  0  0  0  0  0  0  0  0  0  0  0
  152.6721  140.3001  155.5210 H   0  0  0  0  0  0  0  0  0  0  0  0
  151.8575  138.9525  154.7541 H   0  0  0  0  0  0  0  0  0  0  0  0
  149.6109  139.4906  153.6756 H   0  0  0  0  0  0  0  0  0  0  0  0
  147.9902  141.7599  153.7051 H   0  0  0  0  0  0  0  0  0  0  0  0
  151.1038  142.2407  156.5365 H   0  0  0  0  0  0  0  0  0  0  0  0
  150.6056  140.5053  158.0988 H   0  0  0  0  0  0  0  0  0  0  0  0
  151.0615  141.5359  159.9250 H   0  0  0  0  0  0  0  0  0  0  0  0
  152.4462  141.0622  160.8786 H   0  0  0  0  0  0  0  0  0  0  0  0
  153.8834  142.6918  159.5870 H   0  0  0  0  0  0  0  0  0  0  0  0
  152.6686  143.6628  161.7330 H   0  0  0  0  0  0  0  0  0  0  0  0
  151.7259  145.8380  160.7367 H   0  0  0  0  0  0  0  0  0  0  0  0
  150.8669  145.1261  158.3522 H   0  0  0  0  0  0  0  0  0  0  0  0
  152.5568  145.6442  158.2220 H   0  0  0  0  0  0  0  0  0  0  0  0
  153.0816  143.4523  157.5505 H   0  0  0  0  0  0  0  0  0  0  0  0
  151.4483  142.9285  157.9074 H   0  0  0  0  0  0  0  0  0  0  0  0
  149.0326  143.2665  155.4533 H   0  0  0  0  0  0  0  0  0  0  0  0
  1  2  1  0  0  0  0
  1 18  1  0  0  0  0
  1 19  1  0  0  0  0
  1 20  1  0  0  0  0
  2  3  1  0  0  0  0
  2  9  1  0  0  0  0
  2 21  1  0  0  0  0
  3  4  1  0  0  0  0
  3 22  1  0  0  0  0
  3 23  1  0  0  0  0
  4  8  1  0  0  0  0
  4  5  1  0  0  0  0
  5  6  2  0  0  0  0
  5 24  1  0  0  0  0
  6  7  1  0  0  0  0
  6 25  1  0  0  0  0
  7  8  2  0  0  0  0
  7 37  1  0  0  0  0
  8 26  1  0  0  0  0
  9 10  1  0  0  0  0
  9 27  1  0  0  0  0
 10 11  2  0  0  0  0
 10 12  1  0  0  0  0
 12 13  1  0  0  0  0
 12 28  1  0  0  0  0
 12 29  1  0  0  0  0
 13 17  1  0  0  0  0
 13 14  1  0  0  0  0
 13 30  1  0  0  0  0
 14 15  2  0  0  0  0
 14 31  1  0  0  0  0
 15 16  1  0  0  0  0
 15 32  1  0  0  0  0
 16 17  1  0  0  0  0
 16 33  1  0  0  0  0
 16 34  1  0  0  0  0
 17 35  1  0  0  0  0
 17 36  1  0  0  0  0
M  CHG  1   7   1
M  END
> <s_m_source_file>
AV-unprocessed.smi

> <i_m_source_file_index>
1920

> <i_lp_mmshare_version>
43012

> <i_f3d_flags>
0

> <s_epik_input>
W2NIXTFuW2NIXVtjSF1uMVtDSDJdW0NAQEhdKFtDSDNdKVtOSF1DKD1PKVtDSDJdW0NAQEhdMltDSF09W0NIXVtDSDJdW0NIMl0y

> <s_epik_cmdline>
J2VwaWtfcHl0aG9uJywgJy1waCcsICc3LjAnLCAnLXRuJywgJzgnLCAnLW1hJywgJzIwMCcsICctbWV0YWxfYmluZGluZycsICctaW1hZScsICc8aW5maWxlLm1hZT4nLCAnLW9tYWUnLCAnPG91dGZpbGUubWFlPic=

> <r_lp_tautomer_probability>
1

> <r_epik_Ionization_Penalty>
0.24816

> <r_epik_Ionization_Penalty_Charging>
0

> <r_epik_Ionization_Penalty_Neutral>
0.24816

> <r_epik_State_Penalty>
0.2394

> <r_epik_Charging_Adjusted_Penalty>
0.2394

> <i_epik_Tot_Q>
1

> <i_epik_Tot_abs_Q>
1

> <r_epik_Metal_State_Penalty>
0.531457

> <b_epik_Metal_Only>
0

> <s_lp_Force_Field>
OPLS_2005

> <r_lp_Energy>
20.1539

> <b_lp_Chiralities_Consistent>
1

> <s_lp_Variant>
AV-unprocessed.smi:1920-2

> <Gold.Version>
5.8.1

> <Gold.Id.Protein>
6NUR|6NUR_protein|mol2

> <Gold.PLP.Fitness>
50.6376

> <Gold.PLP.PLP>
-41.8577

> <Gold.PLP.part.hbond>
-2.0000

> <Gold.PLP.part.metal>
0.0000

> <Gold.PLP.part.buried>
-2.9084

> <Gold.PLP.part.nonpolar>
-36.1848

> <Gold.PLP.part.repulsive>
0.2685

> <Gold.PLP.ligand.clash>
0.0090

> <Gold.PLP.ligand.torsion>
0.4913

> <Gold.PLP.Chemscore.Hbond>
3.0000

> <Gold.PLP.Chemscore.CHOScore>
0.2503

> <Gold.PLP.Chemscore.Metal>
0.0000

> <Gold.Chemscore.Hbonds>
donor molecule, donor type, donor heavy atom, donor atom, acceptor molecule, acceptor atom, score
      L1  H     7    37       P1  8028  1.69
      P1  H  7997  8009       L1    11  1.00
      L1  C     5    24       P1  7957  0.56

> <Gold.PLP.Chemscore.Internal.Correction>
0.0206

> <Gold.Rescore>
     Score         DG    S(hbond)    S(metal)    S(lipo)     H(rot)  DE(clash)    DE(int)     intcor
     17.83     -18.60       1.93        0.00     101.06       2.01       0.11       0.66       ----

> <Gold.Chemscore.Fitness>
17.8272

> <Gold.Chemscore.DG>
-18.5972

> <Gold.Chemscore.ZeroCoef>
-5.4800

> <Gold.Chemscore.Hbond>
1.9302

> <Gold.Chemscore.Metal>
0.0000

> <Gold.Chemscore.Lipo>
101.0555

> <Gold.Chemscore.Internal_Hbond>
0.0000

> <Gold.Chemscore.DEClash>
0.1093

> <Gold.Chemscore.DEInternal>
0.6607

> <Gold.Chemscore.Rot>
2.0130

> <Gold.Chemscore.Internal.Correction>
   9.000000E+99

> <Gold.Chemscore.Hbonds>
donor molecule, donor type, donor heavy atom, donor atom, acceptor molecule, acceptor atom, score
      L1  H     7    37       P1  8028  0.82
      P1  H  7997  8009       L1    11  0.91

> <Gold.Chemscore.Hbond.Weighted>
-6.4470

> <Gold.Chemscore.Metal.Weighted>
-0.0000

> <Gold.Chemscore.Lipo.Weighted>
-11.8235

> <Gold.Chemscore.Internal_Hbond.Weighted>
0.0000

> <Gold.Chemscore.DEClash.Weighted>
0.1093

> <Gold.Chemscore.DEInternal.Weighted>
0.6607

> <Gold.Chemscore.Rot.Weighted>
5.1533

> <Gold.Chemscore.Internal.Correction.Weighted>
   9.000000E+99

> <Gold.Protein.RotatedTorsions>
[ 6907 6896 6895 6894 ] final  -76.27 input  -60.11 | X-H torsion
[ 7974 7965 7964 7962 ] final  -41.12 input  175.53 | X-H torsion
[ 8008 7997 7996 7995 ] final  129.86 input   59.86 | X-H torsion
[ 10167 10162 10161 10158 ] final  -74.18 input  -65.29 | X-H torsion
[ 10718 10713 10712 10709 ] final   53.45 input   66.30 | X-H torsion
[ 10763 10752 10751 10750 ] final  123.34 input  -60.55 | X-H torsion
[ 11005 11000 10999 10996 ] final  -64.53 input  -57.11 | X-H torsion

> <Gold.Protein.ActiveResidues>
 VAL166  LYS551  ARG553  GLY616  TRP617  ASP618  TYR619  PRO620  LYS621  CYS622 
 ASP623  PHE694  ASN695  SER759  ASP760  ASP761  ALA762  ILE779  LEU786  VAL792 
 PHE793  MET794  SER795  GLU796  ALA797  LYS798  CYS799  TRP800  GLU811  SER814 

> <Gold.Protein.RotatedAtoms>
  150.7033  134.4597  159.5374 H   0  0  0  0  0  0  0  0  0  0  0  0  # atno 6907 bound_to 6896
  152.2274  134.8352  160.0487 H   0  0  0  0  0  0  0  0  0  0  0  0  # atno 6908 bound_to 6896
  151.9180  133.3543  159.3924 H   0  0  0  0  0  0  0  0  0  0  0  0  # atno 6909 bound_to 6896
  146.0241  140.6813  142.9164 H   0  0  0  0  0  0  0  0  0  0  0  0  # atno 7974 bound_to 7965
  156.2944  140.2610  156.2668 H   0  0  0  0  0  0  0  0  0  0  0  0  # atno 8008 bound_to 7997
  154.9734  140.0390  157.2263 H   0  0  0  0  0  0  0  0  0  0  0  0  # atno 8009 bound_to 7997
  154.7838  140.2800  155.6048 H   0  0  0  0  0  0  0  0  0  0  0  0  # atno 8010 bound_to 7997
  140.5048  143.2354  151.7692 H   0  0  0  0  0  0  0  0  0  0  0  0  # atno 10167 bound_to 10162
  157.5168  130.8538  149.8506 H   0  0  0  0  0  0  0  0  0  0  0  0  # atno 10718 bound_to 10713
  153.6440  135.3374  155.3080 H   0  0  0  0  0  0  0  0  0  0  0  0  # atno 10763 bound_to 10752
  154.8553  135.4325  154.1975 H   0  0  0  0  0  0  0  0  0  0  0  0  # atno 10764 bound_to 10752
  153.2900  135.7016  153.7376 H   0  0  0  0  0  0  0  0  0  0  0  0  # atno 10765 bound_to 10752
  141.1427  133.6667  156.5847 H   0  0  0  0  0  0  0  0  0  0  0  0  # atno 11005 bound_to 11000
  144.7002  140.3618  143.7162 LP  0  0  0  0  0  0  0  0  0  0  0  0  # atno 17320 bound_to 7965
  145.7146  139.1693  143.2519 LP  0  0  0  0  0  0  0  0  0  0  0  0  # atno 17321 bound_to 7965
  139.4881  144.4472  151.9696 LP  0  0  0  0  0  0  0  0  0  0  0  0  # atno 17342 bound_to 10162
  140.3562  144.3029  150.5941 LP  0  0  0  0  0  0  0  0  0  0  0  0  # atno 17343 bound_to 10162
  156.0326  130.3760  150.1646 LP  0  0  0  0  0  0  0  0  0  0  0  0  # atno 17370 bound_to 10713
  156.9835  130.9871  151.3432 LP  0  0  0  0  0  0  0  0  0  0  0  0  # atno 17371 bound_to 10713
  140.3810  134.7523  157.4661 LP  0  0  0  0  0  0  0  0  0  0  0  0  # atno 17394 bound_to 11000
  140.0638  134.5959  155.8719 LP  0  0  0  0  0  0  0  0  0  0  0  0  # atno 17395 bound_to 11000

$$$$
