AV-unprocessed.smi:922|AV-procd|sdf|4175|dock9
  -GOLD-   22720 2 83D 1   1.00000     0.00000
 Structure written by MMmdl.
 33 34  0  0  0  0  0  0  0  0  1 V2000
  148.1700  144.1045  159.6790 C   0  0  0  0  0  0  0  0  0  0  0  0
  149.3294  143.5271  158.8612 C   0  0  2  0  0  0  0  0  0  0  0  0
  149.0211  142.1060  158.3541 C   0  0  0  0  0  0  0  0  0  0  0  0
  150.1845  141.5425  157.6817 N   0  0  0  0  0  0  0  0  0  0  0  0
  150.1876  141.0027  156.3945 C   0  0  0  0  0  0  0  0  0  0  0  0
  149.5239  141.7173  155.3088 C   0  0  0  0  0  0  0  0  0  0  0  0
  149.4858  141.2839  154.0960 N   0  0  0  0  0  0  0  0  0  0  0  0
  150.1017  140.0920  153.8115 N   0  0  0  0  0  0  0  0  0  0  0  0
  150.7573  139.2949  154.6862 C   0  0  0  0  0  0  0  0  0  0  0  0
  151.2724  138.2386  154.3244 O   0  0  0  0  0  0  0  0  0  0  0  0
  150.7795  139.8151  156.0617 C   0  0  0  0  0  0  0  0  0  0  0  0
  151.5487  138.8102  157.2445 Cl  0  0  0  0  0  0  0  0  0  0  0  0
  151.3368  141.5143  158.5759 C   0  0  0  0  0  0  0  0  0  0  0  0
  151.6639  142.9292  159.1066 C   0  0  0  0  0  0  0  0  0  0  0  0
  152.6886  142.8314  160.2472 C   0  0  0  0  0  0  0  0  0  0  0  0
  152.2230  143.8482  157.9993 C   0  0  0  0  0  0  0  0  0  0  0  0
  150.4862  143.4911  159.6982 O   0  0  0  0  0  0  0  0  0  0  0  0
  150.0367  139.8132  152.8431 H   0  0  0  0  0  0  0  0  0  0  0  0
  147.2611  144.1671  159.0801 H   0  0  0  0  0  0  0  0  0  0  0  0
  148.4049  145.1089  160.0320 H   0  0  0  0  0  0  0  0  0  0  0  0
  147.9551  143.4862  160.5511 H   0  0  0  0  0  0  0  0  0  0  0  0
  149.5101  144.1955  158.0204 H   0  0  0  0  0  0  0  0  0  0  0  0
  148.7608  141.4595  159.1931 H   0  0  0  0  0  0  0  0  0  0  0  0
  148.1546  142.1090  157.6931 H   0  0  0  0  0  0  0  0  0  0  0  0
  149.0553  142.6623  155.5839 H   0  0  0  0  0  0  0  0  0  0  0  0
  151.1115  140.8415  159.4044 H   0  0  0  0  0  0  0  0  0  0  0  0
  152.2100  141.1031  158.0683 H   0  0  0  0  0  0  0  0  0  0  0  0
  153.6266  142.3949  159.9024 H   0  0  0  0  0  0  0  0  0  0  0  0
  152.3147  142.2107  161.0622 H   0  0  0  0  0  0  0  0  0  0  0  0
  152.9130  143.8148  160.6616 H   0  0  0  0  0  0  0  0  0  0  0  0
  153.1779  143.4741  157.6290 H   0  0  0  0  0  0  0  0  0  0  0  0
  152.3878  144.8587  158.3741 H   0  0  0  0  0  0  0  0  0  0  0  0
  151.5583  143.9197  157.1393 H   0  0  0  0  0  0  0  0  0  0  0  0
  1  2  1  0  0  0  0
  1 19  1  0  0  0  0
  1 20  1  0  0  0  0
  1 21  1  0  0  0  0
  2 17  1  0  0  0  0
  2  3  1  0  0  0  0
  2 22  1  0  0  0  0
  3  4  1  0  0  0  0
  3 23  1  0  0  0  0
  3 24  1  0  0  0  0
  4  5  1  0  0  0  0
  4 13  1  0  0  0  0
  5 11  2  0  0  0  0
  5  6  1  0  0  0  0
  6  7  2  0  0  0  0
  6 25  1  0  0  0  0
  7  8  1  0  0  0  0
  8 18  1  0  0  0  0
  8  9  1  0  0  0  0
  9 10  2  0  0  0  0
  9 11  1  0  0  0  0
 11 12  1  0  0  0  0
 13 14  1  0  0  0  0
 13 26  1  0  0  0  0
 13 27  1  0  0  0  0
 14 15  1  0  0  0  0
 14 16  1  0  0  0  0
 14 17  1  0  0  0  0
 15 28  1  0  0  0  0
 15 29  1  0  0  0  0
 15 30  1  0  0  0  0
 16 31  1  0  0  0  0
 16 32  1  0  0  0  0
 16 33  1  0  0  0  0
M  END
> <s_m_source_file>
AV-unprocessed.smi

> <i_m_source_file_index>
922

> <i_lp_mmshare_version>
43012

> <i_f3d_flags>
0

> <s_epik_input>
W0NIM11bQ0BASF0oTzEpW0NIMl1OKFtDSDJdQzEoW0NIM10pW0NIM10pYzJbY0hdbltuSF1jKD1PKWMyQ2w=

> <s_epik_cmdline>
J2VwaWtfcHl0aG9uJywgJy1waCcsICc3LjAnLCAnLXRuJywgJzgnLCAnLW1hJywgJzIwMCcsICctbWV0YWxfYmluZGluZycsICctaW1hZScsICc8aW5maWxlLm1hZT4nLCAnLW9tYWUnLCAnPG91dGZpbGUubWFlPic=

> <r_lp_tautomer_probability>
0.986175

> <r_epik_Ionization_Penalty>
0.00909695

> <r_epik_Ionization_Penalty_Charging>
0.00909694

> <r_epik_Ionization_Penalty_Neutral>
4.87729e-09

> <r_epik_State_Penalty>
1.54226

> <r_epik_Charging_Adjusted_Penalty>
1.55136

> <i_epik_Tot_Q>
0

> <i_epik_Tot_abs_Q>
0

> <r_epik_Metal_State_Penalty>
3.93934

> <b_epik_Metal_Only>
0

> <s_lp_Force_Field>
OPLS_2005

> <r_lp_Energy>
35.5656

> <b_lp_Chiralities_Consistent>
1

> <s_lp_Variant>
AV-unprocessed.smi:922-3

> <Gold.Version>
5.8.1

> <Gold.Id.Protein>
6NUR|6NUR_protein|mol2

> <Gold.PLP.Fitness>
34.6950

> <Gold.PLP.PLP>
-27.3741

> <Gold.PLP.part.hbond>
-3.7442

> <Gold.PLP.part.metal>
0.0000

> <Gold.PLP.part.buried>
-1.0121

> <Gold.PLP.part.nonpolar>
-25.0654

> <Gold.PLP.part.repulsive>
3.9675

> <Gold.PLP.ligand.clash>
0.0000

> <Gold.PLP.ligand.torsion>
0.7033

> <Gold.PLP.Chemscore.Hbond>
1.5988

> <Gold.PLP.Chemscore.CHOScore>
1.0000

> <Gold.PLP.Chemscore.Metal>
0.0000

> <Gold.Chemscore.Hbonds>
donor molecule, donor type, donor heavy atom, donor atom, acceptor molecule, acceptor atom, score
      L1  H     8    18       P1  7957  1.00
      P1  H  8011  8017       L1     7  0.60
      L1  C     6    25       P1  8028  1.00

> <Gold.PLP.Chemscore.Internal.Correction>
0.9312

> <Gold.Rescore>
     Score         DG    S(hbond)    S(metal)    S(lipo)     H(rot)  DE(clash)    DE(int)     intcor
     16.35     -17.46       1.03        0.00      73.01       0.00       0.20       0.90       ----

> <Gold.Chemscore.Fitness>
16.3532

> <Gold.Chemscore.DG>
-17.4564

> <Gold.Chemscore.ZeroCoef>
-5.4800

> <Gold.Chemscore.Hbond>
1.0281

> <Gold.Chemscore.Metal>
0.0000

> <Gold.Chemscore.Lipo>
73.0115

> <Gold.Chemscore.Internal_Hbond>
0.0000

> <Gold.Chemscore.DEClash>
0.2003

> <Gold.Chemscore.DEInternal>
0.9029

> <Gold.Chemscore.Rot>
0.0000

> <Gold.Chemscore.Internal.Correction>
   9.000000E+99

> <Gold.Chemscore.Hbonds>
donor molecule, donor type, donor heavy atom, donor atom, acceptor molecule, acceptor atom, score
      L1  H     8    18       P1  7957  0.98
      P1  H  8011  8017       L1     7  0.23

> <Gold.Chemscore.Hbond.Weighted>
-3.4340

> <Gold.Chemscore.Metal.Weighted>
-0.0000

> <Gold.Chemscore.Lipo.Weighted>
-8.5423

> <Gold.Chemscore.Internal_Hbond.Weighted>
0.0000

> <Gold.Chemscore.DEClash.Weighted>
0.2003

> <Gold.Chemscore.DEInternal.Weighted>
0.9029

> <Gold.Chemscore.Rot.Weighted>
0.0000

> <Gold.Chemscore.Internal.Correction.Weighted>
   9.000000E+99

> <Gold.Protein.RotatedTorsions>
[ 6907 6896 6895 6894 ] final  -87.76 input  -60.11 | X-H torsion
[ 7974 7965 7964 7962 ] final -132.73 input  175.53 | X-H torsion
[ 8008 7997 7996 7995 ] final  166.72 input   59.86 | X-H torsion
[ 10167 10162 10161 10158 ] final  147.11 input  -65.29 | X-H torsion
[ 10718 10713 10712 10709 ] final  -68.38 input   66.30 | X-H torsion
[ 10763 10752 10751 10750 ] final   31.06 input  -60.55 | X-H torsion
[ 11005 11000 10999 10996 ] final   52.75 input  -57.11 | X-H torsion

> <Gold.Protein.ActiveResidues>
 VAL166  LYS551  ARG553  GLY616  TRP617  ASP618  TYR619  PRO620  LYS621  CYS622 
 ASP623  PHE694  ASN695  SER759  ASP760  ASP761  ALA762  ILE779  LEU786  VAL792 
 PHE793  MET794  SER795  GLU796  ALA797  LYS798  CYS799  TRP800  GLU811  SER814 

> <Gold.Protein.RotatedAtoms>
  150.6867  134.2847  159.4641 H   0  0  0  0  0  0  0  0  0  0  0  0  # atno 6907 bound_to 6896
  152.0757  134.9501  160.0583 H   0  0  0  0  0  0  0  0  0  0  0  0  # atno 6908 bound_to 6896
  152.0874  133.4148  159.4565 H   0  0  0  0  0  0  0  0  0  0  0  0  # atno 6909 bound_to 6896
  144.9258  140.7069  143.4937 H   0  0  0  0  0  0  0  0  0  0  0  0  # atno 7974 bound_to 7965
  156.1695  140.1636  156.8473 H   0  0  0  0  0  0  0  0  0  0  0  0  # atno 8008 bound_to 7997
  154.5242  140.0771  156.8262 H   0  0  0  0  0  0  0  0  0  0  0  0  # atno 8009 bound_to 7997
  155.3542  140.3391  155.4242 H   0  0  0  0  0  0  0  0  0  0  0  0  # atno 8010 bound_to 7997
  139.4895  144.5780  151.6928 H   0  0  0  0  0  0  0  0  0  0  0  0  # atno 10167 bound_to 10162
  156.0508  130.4294  150.1992 H   0  0  0  0  0  0  0  0  0  0  0  0  # atno 10718 bound_to 10713
  153.0337  135.6448  154.1140 H   0  0  0  0  0  0  0  0  0  0  0  0  # atno 10763 bound_to 10752
  154.0859  135.2870  155.3283 H   0  0  0  0  0  0  0  0  0  0  0  0  # atno 10764 bound_to 10752
  154.6498  135.5430  153.7952 H   0  0  0  0  0  0  0  0  0  0  0  0  # atno 10765 bound_to 10752
  140.0824  134.5321  155.8934 H   0  0  0  0  0  0  0  0  0  0  0  0  # atno 11005 bound_to 11000
  145.3222  139.1785  143.4582 LP  0  0  0  0  0  0  0  0  0  0  0  0  # atno 17320 bound_to 7965
  146.3225  140.3240  142.8635 LP  0  0  0  0  0  0  0  0  0  0  0  0  # atno 17321 bound_to 7965
  140.5380  144.0625  150.6077 LP  0  0  0  0  0  0  0  0  0  0  0  0  # atno 17342 bound_to 10162
  140.3637  143.2893  152.0355 LP  0  0  0  0  0  0  0  0  0  0  0  0  # atno 17343 bound_to 10162
  157.0076  130.9941  151.3374 LP  0  0  0  0  0  0  0  0  0  0  0  0  # atno 17370 bound_to 10713
  157.5432  130.8134  149.8054 LP  0  0  0  0  0  0  0  0  0  0  0  0  # atno 17371 bound_to 10713
  141.2051  133.6644  156.6160 LP  0  0  0  0  0  0  0  0  0  0  0  0  # atno 17394 bound_to 11000
  140.3469  134.7801  157.4439 LP  0  0  0  0  0  0  0  0  0  0  0  0  # atno 17395 bound_to 11000

$$$$
