AV-unprocessed.smi:2764|AV-procd|sdf|10641|dock4
  -GOLD-   2272015 93D 1   1.00000     0.00000
 Structure written by MMmdl.
 47 49  0  0  0  0  0  0  0  0  2 V2000
  148.1778  140.7319  155.8889 O   0  0  0  0  0  0  0  0  0  0  0  0
  148.9220  139.7775  156.1154 C   0  0  0  0  0  0  0  0  0  0  0  0
  150.0876  139.8400  156.7833 N   0  0  0  0  0  0  0  0  0  0  0  0
  150.7218  140.9856  157.3343 C   0  0  0  0  0  0  0  0  0  0  0  0
  151.6821  140.7150  158.3358 C   0  0  0  0  0  0  0  0  0  0  0  0
  152.3713  141.7835  158.9419 C   0  0  0  0  0  0  0  0  0  0  0  0
  152.0794  143.0960  158.5305 C   0  0  0  0  0  0  0  0  0  0  0  0
  152.7159  144.1549  159.0846 F   0  0  0  0  0  0  0  0  0  0  0  0
  151.1089  143.2801  157.5283 C   0  0  0  0  0  0  0  0  0  0  0  0
  150.4485  142.2567  156.9458 N   0  0  0  0  0  0  0  0  0  0  0  0
  148.6563  138.5256  155.7129 N   0  0  0  0  0  0  0  0  0  0  0  0
  147.4852  138.1287  154.9363 C   0  0  2  0  0  0  0  0  0  0  0  0
  147.3917  136.5971  154.8158 C   0  0  0  0  0  0  0  0  0  0  0  0
  146.2059  136.1833  153.9277 C   0  0  0  0  0  0  0  0  0  0  0  0
  146.2924  136.8102  152.5826 N   0  3  1  0  0  0  0  0  0  0  0  0
  145.2332  136.3303  151.6565 C   0  0  0  0  0  0  0  0  0  0  0  0
  145.6201  135.0105  150.9617 C   0  0  1  0  0  0  0  0  0  0  0  0
  146.0788  133.9362  151.9281 C   0  0  0  0  0  0  0  0  0  0  0  0
  145.9517  132.6707  151.0862 C   0  0  0  0  0  0  0  0  0  0  0  0
  144.8710  132.9103  150.1903 O   0  0  0  0  0  0  0  0  0  0  0  0
  144.4801  134.2781  150.2512 C   0  0  0  0  0  0  0  0  0  0  0  0
  146.3549  138.2930  152.6765 C   0  0  0  0  0  0  0  0  0  0  0  0
  147.5494  138.7474  153.5316 C   0  0  0  0  0  0  0  0  0  0  0  0
  150.5885  138.9711  156.8968 H   0  0  0  0  0  0  0  0  0  0  0  0
  151.8940  139.7000  158.6393 H   0  0  0  0  0  0  0  0  0  0  0  0
  153.1099  141.5981  159.7078 H   0  0  0  0  0  0  0  0  0  0  0  0
  150.8558  144.2723  157.1849 H   0  0  0  0  0  0  0  0  0  0  0  0
  149.3197  137.8005  155.9442 H   0  0  0  0  0  0  0  0  0  0  0  0
  146.5873  138.5024  155.4325 H   0  0  0  0  0  0  0  0  0  0  0  0
  148.3169  136.1997  154.3955 H   0  0  0  0  0  0  0  0  0  0  0  0
  147.2825  136.1457  155.8027 H   0  0  0  0  0  0  0  0  0  0  0  0
  146.2012  135.0971  153.8277 H   0  0  0  0  0  0  0  0  0  0  0  0
  145.2639  136.4641  154.4018 H   0  0  0  0  0  0  0  0  0  0  0  0
  144.3189  136.1429  152.2218 H   0  0  0  0  0  0  0  0  0  0  0  0
  144.9739  137.1012  150.9293 H   0  0  0  0  0  0  0  0  0  0  0  0
  146.4260  135.1941  150.2489 H   0  0  0  0  0  0  0  0  0  0  0  0
  147.0913  134.0960  152.3001 H   0  0  0  0  0  0  0  0  0  0  0  0
  145.4058  133.8811  152.7851 H   0  0  0  0  0  0  0  0  0  0  0  0
  146.8577  132.5092  150.5011 H   0  0  0  0  0  0  0  0  0  0  0  0
  145.7772  131.7825  151.6939 H   0  0  0  0  0  0  0  0  0  0  0  0
  143.5573  134.3435  150.8293 H   0  0  0  0  0  0  0  0  0  0  0  0
  144.2861  134.6736  149.2539 H   0  0  0  0  0  0  0  0  0  0  0  0
  146.4407  138.7319  151.6836 H   0  0  0  0  0  0  0  0  0  0  0  0
  145.4253  138.6702  153.1060 H   0  0  0  0  0  0  0  0  0  0  0  0
  147.5581  139.8356  153.6022 H   0  0  0  0  0  0  0  0  0  0  0  0
  148.4797  138.4613  153.0380 H   0  0  0  0  0  0  0  0  0  0  0  0
  147.1711  136.5019  152.1912 H   0  0  0  0  0  0  0  0  0  0  0  0
  1  2  2  0  0  0  0
  2  3  1  0  0  0  0
  2 11  1  0  0  0  0
  3  4  1  0  0  0  0
  3 24  1  0  0  0  0
  4 10  1  0  0  0  0
  4  5  2  0  0  0  0
  5  6  1  0  0  0  0
  5 25  1  0  0  0  0
  6  7  2  0  0  0  0
  6 26  1  0  0  0  0
  7  8  1  0  0  0  0
  7  9  1  0  0  0  0
  9 10  2  0  0  0  0
  9 27  1  0  0  0  0
 11 12  1  0  0  0  0
 11 28  1  0  0  0  0
 12 23  1  0  0  0  0
 12 13  1  0  0  0  0
 12 29  1  0  0  0  0
 13 14  1  0  0  0  0
 13 30  1  0  0  0  0
 13 31  1  0  0  0  0
 14 15  1  0  0  0  0
 14 32  1  0  0  0  0
 14 33  1  0  0  0  0
 15 16  1  0  0  0  0
 15 22  1  0  0  0  0
 15 47  1  0  0  0  0
 16 17  1  0  0  0  0
 16 34  1  0  0  0  0
 16 35  1  0  0  0  0
 17 21  1  0  0  0  0
 17 18  1  0  0  0  0
 17 36  1  0  0  0  0
 18 19  1  0  0  0  0
 18 37  1  0  0  0  0
 18 38  1  0  0  0  0
 19 20  1  0  0  0  0
 19 39  1  0  0  0  0
 19 40  1  0  0  0  0
 20 21  1  0  0  0  0
 21 41  1  0  0  0  0
 21 42  1  0  0  0  0
 22 23  1  0  0  0  0
 22 43  1  0  0  0  0
 22 44  1  0  0  0  0
 23 45  1  0  0  0  0
 23 46  1  0  0  0  0
M  CHG  1  15   1
M  END
> <s_m_source_file>
AV-unprocessed.smi

> <i_m_source_file_index>
2764

> <i_lp_mmshare_version>
43012

> <i_f3d_flags>
0

> <s_epik_input>
bjFbY0hdYyhGKVtjSF1bY0hdYzFbTkhdQyg9TylbTkhdW0NIXTJbQ0gyXVtDSDJdTihbQ0gyXVtDSDJdMilbQ0gyXVtDQEBIXTNbQ0gyXVtDSDJdT1tDSDJdMw==

> <s_epik_cmdline>
J2VwaWtfcHl0aG9uJywgJy1waCcsICc3LjAnLCAnLXRuJywgJzgnLCAnLW1hJywgJzIwMCcsICctbWV0YWxfYmluZGluZycsICctaW1hZScsICc8aW5maWxlLm1hZT4nLCAnLW9tYWUnLCAnPG91dGZpbGUubWFlPic=

> <r_epik_Ionization_Penalty>
0.0075076

> <r_epik_Ionization_Penalty_Charging>
0.00747775

> <r_epik_Ionization_Penalty_Neutral>
2.98483e-05

> <r_epik_State_Penalty>
0.00558817

> <r_epik_Charging_Adjusted_Penalty>
0.0130659

> <i_epik_Tot_Q>
1

> <i_epik_Tot_abs_Q>
1

> <r_epik_Metal_State_Penalty>
-0

> <b_epik_Metal_Only>
0

> <s_lp_Force_Field>
OPLS_2005

> <r_lp_Energy>
37.3143

> <b_lp_Chiralities_Consistent>
1

> <s_lp_Variant>
AV-unprocessed.smi:2764-2

> <Gold.Version>
5.8.1

> <Gold.Id.Protein>
6NUR|6NUR_protein|mol2

> <Gold.PLP.Fitness>
41.2145

> <Gold.PLP.PLP>
-33.6705

> <Gold.PLP.part.hbond>
-1.0000

> <Gold.PLP.part.metal>
0.0000

> <Gold.PLP.part.buried>
-4.2868

> <Gold.PLP.part.nonpolar>
-29.8712

> <Gold.PLP.part.repulsive>
0.3675

> <Gold.PLP.ligand.clash>
0.0000

> <Gold.PLP.ligand.torsion>
0.5450

> <Gold.PLP.Chemscore.Hbond>
2.0000

> <Gold.PLP.Chemscore.CHOScore>
0.8636

> <Gold.PLP.Chemscore.Metal>
0.0000

> <Gold.Chemscore.Hbonds>
donor molecule, donor type, donor heavy atom, donor atom, acceptor molecule, acceptor atom, score
      L1  H    15    47       P1  7948  2.00
      L1  C     9    27       P1  8028  0.87

> <Gold.PLP.Chemscore.Internal.Correction>
0.0433

> <Gold.Rescore>
     Score         DG    S(hbond)    S(metal)    S(lipo)     H(rot)  DE(clash)    DE(int)     intcor
     13.24     -15.31       1.00        0.00      88.11       1.49       0.22       1.85       ----

> <Gold.Chemscore.Fitness>
13.2361

> <Gold.Chemscore.DG>
-15.3119

> <Gold.Chemscore.ZeroCoef>
-5.4800

> <Gold.Chemscore.Hbond>
0.9986

> <Gold.Chemscore.Metal>
0.0000

> <Gold.Chemscore.Lipo>
88.1098

> <Gold.Chemscore.Internal_Hbond>
0.0000

> <Gold.Chemscore.DEClash>
0.2217

> <Gold.Chemscore.DEInternal>
1.8541

> <Gold.Chemscore.Rot>
1.4891

> <Gold.Chemscore.Internal.Correction>
   9.000000E+99

> <Gold.Chemscore.Hbonds>
donor molecule, donor type, donor heavy atom, donor atom, acceptor molecule, acceptor atom, score
      L1  H    15    47       P1  7948  1.00

> <Gold.Chemscore.Hbond.Weighted>
-3.3352

> <Gold.Chemscore.Metal.Weighted>
-0.0000

> <Gold.Chemscore.Lipo.Weighted>
-10.3088

> <Gold.Chemscore.Internal_Hbond.Weighted>
0.0000

> <Gold.Chemscore.DEClash.Weighted>
0.2217

> <Gold.Chemscore.DEInternal.Weighted>
1.8541

> <Gold.Chemscore.Rot.Weighted>
3.8121

> <Gold.Chemscore.Internal.Correction.Weighted>
   9.000000E+99

> <Gold.Protein.RotatedTorsions>
[ 6907 6896 6895 6894 ] final -134.90 input  -60.11 | X-H torsion
[ 7974 7965 7964 7962 ] final -118.67 input  175.53 | X-H torsion
[ 8008 7997 7996 7995 ] final  116.01 input   59.86 | X-H torsion
[ 10167 10162 10161 10158 ] final  160.30 input  -65.29 | X-H torsion
[ 10718 10713 10712 10709 ] final   30.40 input   66.30 | X-H torsion
[ 10763 10752 10751 10750 ] final  -21.18 input  -60.55 | X-H torsion
[ 11005 11000 10999 10996 ] final -178.00 input  -57.11 | X-H torsion

> <Gold.Protein.ActiveResidues>
 VAL166  LYS551  ARG553  GLY616  TRP617  ASP618  TYR619  PRO620  LYS621  CYS622 
 ASP623  PHE694  ASN695  SER759  ASP760  ASP761  ALA762  ILE779  LEU786  VAL792 
 PHE793  MET794  SER795  GLU796  ALA797  LYS798  CYS799  TRP800  GLU811  SER814 

> <Gold.Protein.RotatedAtoms>
  150.9914  133.6146  159.2707 H   0  0  0  0  0  0  0  0  0  0  0  0  # atno 6907 bound_to 6896
  151.3365  135.0853  159.9366 H   0  0  0  0  0  0  0  0  0  0  0  0  # atno 6908 bound_to 6896
  152.5247  133.9533  159.7737 H   0  0  0  0  0  0  0  0  0  0  0  0  # atno 6909 bound_to 6896
  145.0711  140.8360  143.4095 H   0  0  0  0  0  0  0  0  0  0  0  0  # atno 7974 bound_to 7965
  156.2414  140.2926  156.0456 H   0  0  0  0  0  0  0  0  0  0  0  0  # atno 8008 bound_to 7997
  155.1938  140.0407  157.2922 H   0  0  0  0  0  0  0  0  0  0  0  0  # atno 8009 bound_to 7997
  154.6176  140.2468  155.7596 H   0  0  0  0  0  0  0  0  0  0  0  0  # atno 8010 bound_to 7997
  139.4839  144.4647  151.8657 H   0  0  0  0  0  0  0  0  0  0  0  0  # atno 10167 bound_to 10162
  157.2591  130.7152  149.6445 H   0  0  0  0  0  0  0  0  0  0  0  0  # atno 10718 bound_to 10713
  153.6320  135.6988  153.5272 H   0  0  0  0  0  0  0  0  0  0  0  0  # atno 10763 bound_to 10752
  153.2852  135.4174  155.1115 H   0  0  0  0  0  0  0  0  0  0  0  0  # atno 10764 bound_to 10752
  154.8520  135.3611  154.5863 H   0  0  0  0  0  0  0  0  0  0  0  0  # atno 10765 bound_to 10752
  140.4346  134.6487  157.4728 H   0  0  0  0  0  0  0  0  0  0  0  0  # atno 11005 bound_to 11000
  145.1291  139.2644  143.5549 LP  0  0  0  0  0  0  0  0  0  0  0  0  # atno 17320 bound_to 7965
  146.3528  140.0936  142.8611 LP  0  0  0  0  0  0  0  0  0  0  0  0  # atno 17321 bound_to 7965
  140.4112  144.2366  150.5889 LP  0  0  0  0  0  0  0  0  0  0  0  0  # atno 17342 bound_to 10162
  140.4964  143.2331  151.8743 LP  0  0  0  0  0  0  0  0  0  0  0  0  # atno 17343 bound_to 10162
  155.9664  130.4403  150.5294 LP  0  0  0  0  0  0  0  0  0  0  0  0  # atno 17370 bound_to 10713
  157.3195  131.0679  151.1942 LP  0  0  0  0  0  0  0  0  0  0  0  0  # atno 17371 bound_to 10713
  140.0111  134.6689  155.9379 LP  0  0  0  0  0  0  0  0  0  0  0  0  # atno 17394 bound_to 11000
  141.1731  133.6538  156.4726 LP  0  0  0  0  0  0  0  0  0  0  0  0  # atno 17395 bound_to 11000

$$$$
