AV-unprocessed.smi:2772|AV-procd|sdf|10673|dock4
  -GOLD-   2272015123D 1   1.00000     0.00000
 Structure written by MMmdl.
 56 58  0  0  0  0  0  0  0  0  4 V2000
  152.8917  144.0050  162.5288 C   0  0  0  0  0  0  0  0  0  0  0  0
  152.2949  143.7050  161.1701 C   0  0  0  0  0  0  0  0  0  0  0  0
  152.6048  142.5315  160.4515 C   0  0  0  0  0  0  0  0  0  0  0  0
  152.0097  142.3194  159.1909 C   0  0  0  0  0  0  0  0  0  0  0  0
  151.1091  143.2747  158.6705 C   0  0  0  0  0  0  0  0  0  0  0  0
  150.5432  143.0225  157.3908 N   0  0  0  0  0  0  0  0  0  0  0  0
  150.3761  141.8428  156.7679 C   0  0  0  0  0  0  0  0  0  0  0  0
  150.7135  140.7485  157.2179 O   0  0  0  0  0  0  0  0  0  0  0  0
  149.8018  142.0077  155.5675 N   0  0  0  0  0  0  0  0  0  0  0  0
  149.4859  140.9430  154.6183 C   0  0  2  0  0  0  0  0  0  0  0  0
  148.1296  140.3072  154.9768 C   0  0  0  0  0  0  0  0  0  0  0  0
  147.8511  139.0621  154.1124 C   0  0  0  0  0  0  0  0  0  0  0  0
  148.9395  138.0492  154.2308 N   0  3  2  0  0  0  0  0  0  0  0  0
  149.0026  137.3222  155.5464 C   0  0  2  0  0  0  0  0  0  0  0  0
  150.0701  136.1981  155.5465 C   0  0  0  0  0  0  0  0  0  0  0  0
  150.0845  135.3967  156.8596 C   0  0  0  0  0  0  0  0  0  0  0  0
  148.7524  134.8187  157.1483 N   0  3  1  0  0  0  0  0  0  0  0  0
  148.7635  133.9395  158.3376 C   0  0  0  0  0  0  0  0  0  0  0  0
  147.7160  135.8725  157.2334 C   0  0  0  0  0  0  0  0  0  0  0  0
  147.6420  136.6859  155.9295 C   0  0  0  0  0  0  0  0  0  0  0  0
  150.2212  138.6609  153.7753 C   0  0  0  0  0  0  0  0  0  0  0  0
  150.6056  139.8859  154.6276 C   0  0  0  0  0  0  0  0  0  0  0  0
  150.8478  144.4394  159.4348 C   0  0  0  0  0  0  0  0  0  0  0  0
  151.4397  144.6055  160.6377 N   0  3  0  0  0  0  0  0  0  0  0  0
  153.5489  143.1989  162.8560 H   0  0  0  0  0  0  0  0  0  0  0  0
  152.1035  144.1238  163.2729 H   0  0  0  0  0  0  0  0  0  0  0  0
  153.4741  144.9260  162.4931 H   0  0  0  0  0  0  0  0  0  0  0  0
  153.2898  141.8014  160.8576 H   0  0  0  0  0  0  0  0  0  0  0  0
  152.2420  141.4240  158.6323 H   0  0  0  0  0  0  0  0  0  0  0  0
  150.2793  143.8428  156.8648 H   0  0  0  0  0  0  0  0  0  0  0  0
  149.5647  142.9480  155.2865 H   0  0  0  0  0  0  0  0  0  0  0  0
  149.4112  141.3413  153.6047 H   0  0  0  0  0  0  0  0  0  0  0  0
  148.1037  140.0396  156.0338 H   0  0  0  0  0  0  0  0  0  0  0  0
  147.3328  141.0378  154.8317 H   0  0  0  0  0  0  0  0  0  0  0  0
  146.8716  138.6441  154.3336 H   0  0  0  0  0  0  0  0  0  0  0  0
  147.7860  139.3675  153.0670 H   0  0  0  0  0  0  0  0  0  0  0  0
  149.2695  138.0334  156.3282 H   0  0  0  0  0  0  0  0  0  0  0  0
  149.8960  135.5213  154.7087 H   0  0  0  0  0  0  0  0  0  0  0  0
  151.0707  136.6077  155.4173 H   0  0  0  0  0  0  0  0  0  0  0  0
  150.8215  134.5956  156.7877 H   0  0  0  0  0  0  0  0  0  0  0  0
  150.3933  136.0373  157.6874 H   0  0  0  0  0  0  0  0  0  0  0  0
  149.0183  134.4999  159.2383 H   0  0  0  0  0  0  0  0  0  0  0  0
  149.4917  133.1368  158.2164 H   0  0  0  0  0  0  0  0  0  0  0  0
  147.7858  133.4795  158.4856 H   0  0  0  0  0  0  0  0  0  0  0  0
  146.7459  135.4144  157.4309 H   0  0  0  0  0  0  0  0  0  0  0  0
  147.9319  136.5318  158.0757 H   0  0  0  0  0  0  0  0  0  0  0  0
  146.8793  137.4490  156.0774 H   0  0  0  0  0  0  0  0  0  0  0  0
  147.2916  136.0443  155.1197 H   0  0  0  0  0  0  0  0  0  0  0  0
  151.0341  137.9388  153.7388 H   0  0  0  0  0  0  0  0  0  0  0  0
  150.0951  138.9789  152.7391 H   0  0  0  0  0  0  0  0  0  0  0  0
  151.5269  140.3243  154.2417 H   0  0  0  0  0  0  0  0  0  0  0  0
  150.8250  139.5743  155.6493 H   0  0  0  0  0  0  0  0  0  0  0  0
  150.2020  145.2503  159.1345 H   0  0  0  0  0  0  0  0  0  0  0  0
  148.7225  137.3381  153.5466 H   0  0  0  0  0  0  0  0  0  0  0  0
  148.5104  134.2313  156.3628 H   0  0  0  0  0  0  0  0  0  0  0  0
  151.2321  145.4525  161.1674 H   0  0  0  0  0  0  0  0  0  0  0  0
  1  2  1  0  0  0  0
  1 25  1  0  0  0  0
  1 26  1  0  0  0  0
  1 27  1  0  0  0  0
  2 24  1  0  0  0  0
  2  3  2  0  0  0  0
  3  4  1  0  0  0  0
  3 28  1  0  0  0  0
  4  5  2  0  0  0  0
  4 29  1  0  0  0  0
  5  6  1  0  0  0  0
  5 23  1  0  0  0  0
  6  7  1  0  0  0  0
  6 30  1  0  0  0  0
  7  8  2  0  0  0  0
  7  9  1  0  0  0  0
  9 10  1  0  0  0  0
  9 31  1  0  0  0  0
 10 22  1  0  0  0  0
 10 11  1  0  0  0  0
 10 32  1  0  0  0  0
 11 12  1  0  0  0  0
 11 33  1  0  0  0  0
 11 34  1  0  0  0  0
 12 13  1  0  0  0  0
 12 35  1  0  0  0  0
 12 36  1  0  0  0  0
 13 14  1  0  0  0  0
 13 21  1  0  0  0  0
 13 54  1  0  0  0  0
 14 20  1  0  0  0  0
 14 15  1  0  0  0  0
 14 37  1  0  0  0  0
 15 16  1  0  0  0  0
 15 38  1  0  0  0  0
 15 39  1  0  0  0  0
 16 17  1  0  0  0  0
 16 40  1  0  0  0  0
 16 41  1  0  0  0  0
 17 18  1  0  0  0  0
 17 19  1  0  0  0  0
 17 55  1  0  0  0  0
 18 42  1  0  0  0  0
 18 43  1  0  0  0  0
 18 44  1  0  0  0  0
 19 20  1  0  0  0  0
 19 45  1  0  0  0  0
 19 46  1  0  0  0  0
 20 47  1  0  0  0  0
 20 48  1  0  0  0  0
 21 22  1  0  0  0  0
 21 49  1  0  0  0  0
 21 50  1  0  0  0  0
 22 51  1  0  0  0  0
 22 52  1  0  0  0  0
 23 24  2  0  0  0  0
 23 53  1  0  0  0  0
 24 56  1  0  0  0  0
M  CHG  1  13   1
M  CHG  1  17   1
M  CHG  1  24   1
M  END
> <s_m_source_file>
AV-unprocessed.smi

> <i_m_source_file_index>
2772

> <i_lp_mmshare_version>
43012

> <i_f3d_flags>
0

> <s_epik_input>
W0NIM11jMVtjSF1bY0hdYyhbY0hdbjEpW05IXUMoPU8pW05IXVtDSF0yW0NIMl1bQ0gyXU4oW0NIMl1bQ0gyXTIpW0NIXTNbQ0gyXVtDSDJdTihbQ0gzXSlbQ0gyXVtDSDJdMw==

> <s_epik_cmdline>
J2VwaWtfcHl0aG9uJywgJy1waCcsICc3LjAnLCAnLXRuJywgJzgnLCAnLW1hJywgJzIwMCcsICctbWV0YWxfYmluZGluZycsICctaW1hZScsICc8aW5maWxlLm1hZT4nLCAnLW9tYWUnLCAnPG91dGZpbGUubWFlPic=

> <r_epik_Ionization_Penalty>
2.34117

> <r_epik_Ionization_Penalty_Charging>
2.34115

> <r_epik_Ionization_Penalty_Neutral>
2.22786e-05

> <r_epik_State_Penalty>
2.43944

> <r_epik_Charging_Adjusted_Penalty>
4.78059

> <i_epik_Tot_Q>
3

> <i_epik_Tot_abs_Q>
3

> <r_epik_Metal_State_Penalty>
2.45906

> <b_epik_Metal_Only>
0

> <s_lp_Force_Field>
OPLS_2005

> <r_lp_Energy>
52.8488

> <b_lp_Chiralities_Consistent>
1

> <s_lp_Variant>
AV-unprocessed.smi:2772-10

> <Gold.Version>
5.8.1

> <Gold.Id.Protein>
6NUR|6NUR_protein|mol2

> <Gold.PLP.Fitness>
45.9666

> <Gold.PLP.PLP>
-35.6622

> <Gold.PLP.part.hbond>
-3.0000

> <Gold.PLP.part.metal>
0.0000

> <Gold.PLP.part.buried>
-1.9503

> <Gold.PLP.part.nonpolar>
-30.9305

> <Gold.PLP.part.repulsive>
0.3597

> <Gold.PLP.ligand.clash>
0.6424

> <Gold.PLP.ligand.torsion>
0.4639

> <Gold.PLP.Chemscore.Hbond>
3.9440

> <Gold.PLP.Chemscore.CHOScore>
0.0000

> <Gold.PLP.Chemscore.Metal>
0.0000

> <Gold.Chemscore.Hbonds>
donor molecule, donor type, donor heavy atom, donor atom, acceptor molecule, acceptor atom, score
      L1  H     6    30       P1  8028  0.96
      L1  H     9    31       P1  8028  1.00
      L1  H    13    54       P1  7948  2.00

> <Gold.PLP.Chemscore.Internal.Correction>
0.0425

> <Gold.Rescore>
     Score         DG    S(hbond)    S(metal)    S(lipo)     H(rot)  DE(clash)    DE(int)     intcor
     20.24     -25.24       2.94        0.00     111.81       1.22       1.65       3.35       ----

> <Gold.Chemscore.Fitness>
20.2406

> <Gold.Chemscore.DG>
-25.2380

> <Gold.Chemscore.ZeroCoef>
-5.4800

> <Gold.Chemscore.Hbond>
2.9356

> <Gold.Chemscore.Metal>
0.0000

> <Gold.Chemscore.Lipo>
111.8119

> <Gold.Chemscore.Internal_Hbond>
0.0000

> <Gold.Chemscore.DEClash>
1.6515

> <Gold.Chemscore.DEInternal>
3.3459

> <Gold.Chemscore.Rot>
1.2222

> <Gold.Chemscore.Internal.Correction>
   9.000000E+99

> <Gold.Chemscore.Hbonds>
donor molecule, donor type, donor heavy atom, donor atom, acceptor molecule, acceptor atom, score
      L1  H     6    30       P1  8028  0.86
      L1  H     9    31       P1  8028  0.96
      L1  H    13    54       P1  7948  0.93

> <Gold.Chemscore.Hbond.Weighted>
-9.8049

> <Gold.Chemscore.Metal.Weighted>
-0.0000

> <Gold.Chemscore.Lipo.Weighted>
-13.0820

> <Gold.Chemscore.Internal_Hbond.Weighted>
0.0000

> <Gold.Chemscore.DEClash.Weighted>
1.6515

> <Gold.Chemscore.DEInternal.Weighted>
3.3459

> <Gold.Chemscore.Rot.Weighted>
3.1289

> <Gold.Chemscore.Internal.Correction.Weighted>
   9.000000E+99

> <Gold.Protein.RotatedTorsions>
[ 6907 6896 6895 6894 ] final  107.05 input  -60.11 | X-H torsion
[ 7974 7965 7964 7962 ] final   80.72 input  175.53 | X-H torsion
[ 8008 7997 7996 7995 ] final   66.99 input   59.86 | X-H torsion
[ 10167 10162 10161 10158 ] final   98.96 input  -65.29 | X-H torsion
[ 10718 10713 10712 10709 ] final  175.27 input   66.30 | X-H torsion
[ 10763 10752 10751 10750 ] final -163.24 input  -60.55 | X-H torsion
[ 11005 11000 10999 10996 ] final  -85.77 input  -57.11 | X-H torsion

> <Gold.Protein.ActiveResidues>
 VAL166  LYS551  ARG553  GLY616  TRP617  ASP618  TYR619  PRO620  LYS621  CYS622 
 ASP623  PHE694  ASN695  SER759  ASP760  ASP761  ALA762  ILE779  LEU786  VAL792 
 PHE793  MET794  SER795  GLU796  ALA797  LYS798  CYS799  TRP800  GLU811  SER814 

> <Gold.Protein.RotatedAtoms>
  152.5170  133.9292  159.7571 H   0  0  0  0  0  0  0  0  0  0  0  0  # atno 6907 bound_to 6896
  150.9646  133.6400  159.2755 H   0  0  0  0  0  0  0  0  0  0  0  0  # atno 6908 bound_to 6896
  151.3633  135.0914  159.9494 H   0  0  0  0  0  0  0  0  0  0  0  0  # atno 6909 bound_to 6896
  145.6476  139.2440  143.1995 H   0  0  0  0  0  0  0  0  0  0  0  0  # atno 7974 bound_to 7965
  155.6859  140.3496  155.4874 H   0  0  0  0  0  0  0  0  0  0  0  0  # atno 8008 bound_to 7997
  155.9566  140.1129  157.0954 H   0  0  0  0  0  0  0  0  0  0  0  0  # atno 8009 bound_to 7997
  154.4133  140.1184  156.5110 H   0  0  0  0  0  0  0  0  0  0  0  0  # atno 8010 bound_to 7997
  139.7661  144.6938  151.0222 H   0  0  0  0  0  0  0  0  0  0  0  0  # atno 10167 bound_to 10162
  156.9373  130.9990  151.2975 H   0  0  0  0  0  0  0  0  0  0  0  0  # atno 10718 bound_to 10713
  154.7141  135.3012  154.9151 H   0  0  0  0  0  0  0  0  0  0  0  0  # atno 10763 bound_to 10752
  154.0044  135.6703  153.4765 H   0  0  0  0  0  0  0  0  0  0  0  0  # atno 10764 bound_to 10752
  153.0779  135.5025  154.8357 H   0  0  0  0  0  0  0  0  0  0  0  0  # atno 10765 bound_to 10752
  141.1637  133.7417  156.9063 H   0  0  0  0  0  0  0  0  0  0  0  0  # atno 11005 bound_to 11000
  146.1230  140.7284  142.9448 LP  0  0  0  0  0  0  0  0  0  0  0  0  # atno 17320 bound_to 7965
  144.7134  140.4124  143.7063 LP  0  0  0  0  0  0  0  0  0  0  0  0  # atno 17321 bound_to 7965
  140.7811  143.4641  151.0236 LP  0  0  0  0  0  0  0  0  0  0  0  0  # atno 17342 bound_to 10162
  139.8326  143.7670  152.3180 LP  0  0  0  0  0  0  0  0  0  0  0  0  # atno 17343 bound_to 10162
  157.5808  130.8375  149.8520 LP  0  0  0  0  0  0  0  0  0  0  0  0  # atno 17370 bound_to 10713
  156.0420  130.3736  150.1411 LP  0  0  0  0  0  0  0  0  0  0  0  0  # atno 17371 bound_to 10713
  140.1547  134.9206  157.2639 LP  0  0  0  0  0  0  0  0  0  0  0  0  # atno 17394 bound_to 11000
  140.2681  134.3493  155.7383 LP  0  0  0  0  0  0  0  0  0  0  0  0  # atno 17395 bound_to 11000

$$$$
