AV-unprocessed.smi:2370|AV-procd|sdf|9435|dock4
  -GOLD-   2272013 63D 1   1.00000     0.00000
 Structure written by MMmdl.
 37 38  0  0  0  0  0  0  0  0  1 V2000
  148.5711  139.0762  154.3897 C   0  0  0  0  0  0  0  0  0  0  0  0
  149.6217  139.4277  155.2808 O   0  0  0  0  0  0  0  0  0  0  0  0
  150.6912  138.4879  155.3918 C   0  0  0  0  0  0  0  0  0  0  0  0
  150.2399  137.1839  156.0706 C   0  0  0  0  0  0  0  0  0  0  0  0
  149.5613  137.4460  157.3363 N   0  0  0  0  0  0  0  0  0  0  0  0
  149.2950  136.5343  158.2823 C   0  0  0  0  0  0  0  0  0  0  0  0
  149.6201  135.3496  158.1970 O   0  0  0  0  0  0  0  0  0  0  0  0
  148.6194  137.0809  159.3082 N   0  0  0  0  0  0  0  0  0  0  0  0
  148.1043  136.4345  160.4631 C   0  0  0  0  0  0  0  0  0  0  0  0
  147.8415  135.0404  160.4519 C   0  0  0  0  0  0  0  0  0  0  0  0
  147.3528  134.4179  161.6181 C   0  0  0  0  0  0  0  0  0  0  0  0
  147.0549  132.9330  161.6265 C   0  0  0  0  0  0  0  0  0  0  0  0
  147.1503  135.2025  162.7691 C   0  0  0  0  0  0  0  0  0  0  0  0
  147.4554  136.5738  162.6991 C   0  0  0  0  0  0  0  0  0  0  0  0
  147.9253  137.1715  161.5837 N   0  0  0  0  0  0  0  0  0  0  0  0
  151.3838  138.3936  154.0179 C   0  0  0  0  0  0  0  0  0  0  0  0
  152.7315  138.4934  154.7334 C   0  0  0  0  0  0  0  0  0  0  0  0
  151.9854  139.1657  155.8866 C   0  0  0  0  0  0  0  0  0  0  0  0
  147.7742  139.8155  154.4684 H   0  0  0  0  0  0  0  0  0  0  0  0
  148.1426  138.1022  154.6268 H   0  0  0  0  0  0  0  0  0  0  0  0
  148.9046  139.0699  153.3524 H   0  0  0  0  0  0  0  0  0  0  0  0
  149.5962  136.6095  155.4026 H   0  0  0  0  0  0  0  0  0  0  0  0
  151.0907  136.5328  156.2688 H   0  0  0  0  0  0  0  0  0  0  0  0
  149.2464  138.3928  157.4891 H   0  0  0  0  0  0  0  0  0  0  0  0
  148.3382  138.0432  159.1911 H   0  0  0  0  0  0  0  0  0  0  0  0
  148.0175  134.4407  159.5714 H   0  0  0  0  0  0  0  0  0  0  0  0
  146.8364  132.5785  162.6342 H   0  0  0  0  0  0  0  0  0  0  0  0
  147.9087  132.3714  161.2465 H   0  0  0  0  0  0  0  0  0  0  0  0
  146.1933  132.7189  160.9939 H   0  0  0  0  0  0  0  0  0  0  0  0
  146.7769  134.7684  163.6850 H   0  0  0  0  0  0  0  0  0  0  0  0
  147.3202  137.2086  163.5623 H   0  0  0  0  0  0  0  0  0  0  0  0
  151.2306  137.4586  153.4798 H   0  0  0  0  0  0  0  0  0  0  0  0
  151.1883  139.2555  153.3770 H   0  0  0  0  0  0  0  0  0  0  0  0
  153.1423  137.5191  155.0025 H   0  0  0  0  0  0  0  0  0  0  0  0
  153.4687  139.1234  154.2354 H   0  0  0  0  0  0  0  0  0  0  0  0
  151.9702  140.2530  155.7911 H   0  0  0  0  0  0  0  0  0  0  0  0
  152.3144  138.8557  156.8787 H   0  0  0  0  0  0  0  0  0  0  0  0
  1  2  1  0  0  0  0
  1 19  1  0  0  0  0
  1 20  1  0  0  0  0
  1 21  1  0  0  0  0
  2  3  1  0  0  0  0
  3 18  1  0  0  0  0
  3  4  1  0  0  0  0
  3 16  1  0  0  0  0
  4  5  1  0  0  0  0
  4 22  1  0  0  0  0
  4 23  1  0  0  0  0
  5  6  1  0  0  0  0
  5 24  1  0  0  0  0
  6  7  2  0  0  0  0
  6  8  1  0  0  0  0
  8  9  1  0  0  0  0
  8 25  1  0  0  0  0
  9 15  1  0  0  0  0
  9 10  2  0  0  0  0
 10 11  1  0  0  0  0
 10 26  1  0  0  0  0
 11 12  1  0  0  0  0
 11 13  2  0  0  0  0
 12 27  1  0  0  0  0
 12 28  1  0  0  0  0
 12 29  1  0  0  0  0
 13 14  1  0  0  0  0
 13 30  1  0  0  0  0
 14 15  2  0  0  0  0
 14 31  1  0  0  0  0
 16 17  1  0  0  0  0
 16 32  1  0  0  0  0
 16 33  1  0  0  0  0
 17 18  1  0  0  0  0
 17 34  1  0  0  0  0
 17 35  1  0  0  0  0
 18 36  1  0  0  0  0
 18 37  1  0  0  0  0
M  END
> <s_m_source_file>
AV-unprocessed.smi

> <i_m_source_file_index>
2370

> <i_lp_mmshare_version>
43012

> <i_f3d_flags>
0

> <s_epik_input>
W0NIMl0xW0NIMl1bQ0gyXUMxKE9bQ0gzXSlbQ0gyXVtOSF1DKD1PKVtOSF1jMltjSF1jKFtDSDNdKVtjSF1bY0hdbjI=

> <s_epik_cmdline>
J2VwaWtfcHl0aG9uJywgJy1waCcsICc3LjAnLCAnLXRuJywgJzgnLCAnLW1hJywgJzIwMCcsICctbWV0YWxfYmluZGluZycsICctaW1hZScsICc8aW5maWxlLm1hZT4nLCAnLW9tYWUnLCAnPG91dGZpbGUubWFlPic=

> <r_lp_tautomer_probability>
1

> <r_epik_Ionization_Penalty>
9.08611e-05

> <r_epik_Ionization_Penalty_Charging>
0

> <r_epik_Ionization_Penalty_Neutral>
9.08611e-05

> <r_epik_State_Penalty>
-0

> <r_epik_Charging_Adjusted_Penalty>
0

> <i_epik_Tot_Q>
0

> <i_epik_Tot_abs_Q>
0

> <r_epik_Metal_State_Penalty>
-0

> <b_epik_Metal_Only>
0

> <s_lp_Force_Field>
OPLS_2005

> <r_lp_Energy>
22.0857

> <b_lp_Chiralities_Consistent>
1

> <s_lp_Variant>
AV-unprocessed.smi:2370-1

> <Gold.Version>
5.8.1

> <Gold.Id.Protein>
6NUR|6NUR_protein|mol2

> <Gold.PLP.Fitness>
42.5608

> <Gold.PLP.PLP>
-34.9106

> <Gold.PLP.part.hbond>
-3.0000

> <Gold.PLP.part.metal>
0.0000

> <Gold.PLP.part.buried>
-4.8643

> <Gold.PLP.part.nonpolar>
-27.3042

> <Gold.PLP.part.repulsive>
0.2865

> <Gold.PLP.ligand.clash>
0.0000

> <Gold.PLP.ligand.torsion>
0.4631

> <Gold.PLP.Chemscore.Hbond>
2.7680

> <Gold.PLP.Chemscore.CHOScore>
0.0000

> <Gold.PLP.Chemscore.Metal>
0.0000

> <Gold.Chemscore.Hbonds>
donor molecule, donor type, donor heavy atom, donor atom, acceptor molecule, acceptor atom, score
      P1  H  6896  6909       L1     7  1.00
      P1  H  6931  6943       L1    15  1.00
      P1  H  6934  6947       L1    15  0.55

> <Gold.PLP.Chemscore.Internal.Correction>
0.2725

> <Gold.Rescore>
     Score         DG    S(hbond)    S(metal)    S(lipo)     H(rot)  DE(clash)    DE(int)     intcor
     16.31     -18.40       2.23        0.00      78.53       1.45       0.23       1.86       ----

> <Gold.Chemscore.Fitness>
16.3120

> <Gold.Chemscore.DG>
-18.3992

> <Gold.Chemscore.ZeroCoef>
-5.4800

> <Gold.Chemscore.Hbond>
2.2303

> <Gold.Chemscore.Metal>
0.0000

> <Gold.Chemscore.Lipo>
78.5295

> <Gold.Chemscore.Internal_Hbond>
0.0000

> <Gold.Chemscore.DEClash>
0.2261

> <Gold.Chemscore.DEInternal>
1.8611

> <Gold.Chemscore.Rot>
1.4523

> <Gold.Chemscore.Internal.Correction>
   9.000000E+99

> <Gold.Chemscore.Hbonds>
donor molecule, donor type, donor heavy atom, donor atom, acceptor molecule, acceptor atom, score
      P1  H  6896  6909       L1     7  0.98
      P1  H  6931  6943       L1    15  0.74
      P1  H  6934  6947       L1    15  0.30

> <Gold.Chemscore.Hbond.Weighted>
-7.4492

> <Gold.Chemscore.Metal.Weighted>
-0.0000

> <Gold.Chemscore.Lipo.Weighted>
-9.1880

> <Gold.Chemscore.Internal_Hbond.Weighted>
0.0000

> <Gold.Chemscore.DEClash.Weighted>
0.2261

> <Gold.Chemscore.DEInternal.Weighted>
1.8611

> <Gold.Chemscore.Rot.Weighted>
3.7179

> <Gold.Chemscore.Internal.Correction.Weighted>
   9.000000E+99

> <Gold.Protein.RotatedTorsions>
[ 6907 6896 6895 6894 ] final   40.91 input  -60.11 | X-H torsion
[ 7974 7965 7964 7962 ] final  -38.23 input  175.53 | X-H torsion
[ 8008 7997 7996 7995 ] final  159.73 input   59.86 | X-H torsion
[ 10167 10162 10161 10158 ] final -154.51 input  -65.29 | X-H torsion
[ 10718 10713 10712 10709 ] final   10.99 input   66.30 | X-H torsion
[ 10763 10752 10751 10750 ] final  160.71 input  -60.55 | X-H torsion
[ 11005 11000 10999 10996 ] final -131.91 input  -57.11 | X-H torsion

> <Gold.Protein.ActiveResidues>
 VAL166  LYS551  ARG553  GLY616  TRP617  ASP618  TYR619  PRO620  LYS621  CYS622 
 ASP623  PHE694  ASN695  SER759  ASP760  ASP761  ALA762  ILE779  LEU786  VAL792 
 PHE793  MET794  SER795  GLU796  ALA797  LYS798  CYS799  TRP800  GLU811  SER814 

> <Gold.Protein.RotatedAtoms>
  152.1885  134.8693  160.0519 H   0  0  0  0  0  0  0  0  0  0  0  0  # atno 6907 bound_to 6896
  151.9590  133.3684  159.4036 H   0  0  0  0  0  0  0  0  0  0  0  0  # atno 6908 bound_to 6896
  150.6930  134.4184  159.5237 H   0  0  0  0  0  0  0  0  0  0  0  0  # atno 6909 bound_to 6896
  146.0505  140.6488  142.9044 H   0  0  0  0  0  0  0  0  0  0  0  0  # atno 7974 bound_to 7965
  156.2219  140.1823  156.7455 H   0  0  0  0  0  0  0  0  0  0  0  0  # atno 8008 bound_to 7997
  154.5880  140.0655  156.9226 H   0  0  0  0  0  0  0  0  0  0  0  0  # atno 8009 bound_to 7997
  155.2386  140.3320  155.4297 H   0  0  0  0  0  0  0  0  0  0  0  0  # atno 8010 bound_to 7997
  139.7008  143.9267  152.2427 H   0  0  0  0  0  0  0  0  0  0  0  0  # atno 10167 bound_to 10162
  156.9891  130.6035  149.5684 H   0  0  0  0  0  0  0  0  0  0  0  0  # atno 10718 bound_to 10713
  154.2517  135.2771  155.2814 H   0  0  0  0  0  0  0  0  0  0  0  0  # atno 10763 bound_to 10752
  154.5459  135.5689  153.6883 H   0  0  0  0  0  0  0  0  0  0  0  0  # atno 10764 bound_to 10752
  152.9979  135.6262  154.2664 H   0  0  0  0  0  0  0  0  0  0  0  0  # atno 10765 bound_to 10752
  140.9217  134.1435  157.4308 H   0  0  0  0  0  0  0  0  0  0  0  0  # atno 11005 bound_to 11000
  144.7120  140.4073  143.7073 LP  0  0  0  0  0  0  0  0  0  0  0  0  # atno 17320 bound_to 7965
  145.6733  139.1603  143.2742 LP  0  0  0  0  0  0  0  0  0  0  0  0  # atno 17321 bound_to 7965
  139.9109  144.6857  150.8564 LP  0  0  0  0  0  0  0  0  0  0  0  0  # atno 17342 bound_to 10162
  140.7709  143.3444  151.2141 LP  0  0  0  0  0  0  0  0  0  0  0  0  # atno 17343 bound_to 10162
  156.0214  130.5309  150.8286 LP  0  0  0  0  0  0  0  0  0  0  0  0  # atno 17370 bound_to 10713
  157.5472  131.0943  150.9746 LP  0  0  0  0  0  0  0  0  0  0  0  0  # atno 17371 bound_to 10713
  139.8777  134.9974  156.5843 LP  0  0  0  0  0  0  0  0  0  0  0  0  # atno 17394 bound_to 11000
  140.7979  133.8529  155.8701 LP  0  0  0  0  0  0  0  0  0  0  0  0  # atno 17395 bound_to 11000

$$$$
