AV-unprocessed.smi:3263|AV-procd|sdf|12488|dock5
  -GOLD-   2272018383D 1   1.00000     0.00000
 Structure written by MMmdl.
 41 43  0  0  0  0  0  0  0  0  1 V2000
  145.4248  128.8799  152.6726 O   0  0  0  0  0  0  0  0  0  0  0  0
  146.3399  129.6177  152.3065 C   0  0  0  0  0  0  0  0  0  0  0  0
  146.4310  131.0562  152.8266 C   0  0  0  0  0  0  0  0  0  0  0  0
  145.4022  132.0098  152.1779 C   0  0  2  0  0  0  0  0  0  0  0  0
  144.2272  131.2909  151.4706 C   0  0  0  0  0  0  0  0  0  0  0  0
  144.2699  131.8702  150.0452 C   0  0  1  0  0  0  0  0  0  0  0  0
  143.8442  133.3498  150.0760 C   0  0  0  0  0  0  0  0  0  0  0  0
  145.0563  134.0373  150.7320 C   0  0  0  0  0  0  0  0  0  0  0  0
  145.9984  132.8543  151.0278 C   0  0  2  0  0  0  0  0  0  0  0  0
  145.7696  131.9751  149.8017 C   0  0  0  0  0  0  0  0  0  0  0  0
  147.3008  129.2310  151.4536 N   0  0  0  0  0  0  0  0  0  0  0  0
  147.3953  127.9116  150.8404 C   0  0  0  0  0  0  0  0  0  0  0  0
  148.7211  127.2174  151.1931 C   0  0  0  0  0  0  0  0  0  0  0  0
  148.8952  125.9057  150.4515 C   0  0  0  0  0  0  0  0  0  0  0  0
  147.8852  124.9204  150.4823 C   0  0  0  0  0  0  0  0  0  0  0  0
  148.0937  123.7236  149.7698 C   0  0  0  0  0  0  0  0  0  0  0  0
  149.2966  123.5596  149.0563 C   0  0  0  0  0  0  0  0  0  0  0  0
  150.2422  124.6038  149.0882 C   0  0  0  0  0  0  0  0  0  0  0  0
  150.0528  125.7549  149.7686 N   0  0  0  0  0  0  0  0  0  0  0  0
  146.2719  131.0293  153.9050 H   0  0  0  0  0  0  0  0  0  0  0  0
  147.4426  131.4356  152.6766 H   0  0  0  0  0  0  0  0  0  0  0  0
  145.0177  132.6781  152.9505 H   0  0  0  0  0  0  0  0  0  0  0  0
  144.3805  130.2113  151.4385 H   0  0  0  0  0  0  0  0  0  0  0  0
  143.2726  131.4735  151.9651 H   0  0  0  0  0  0  0  0  0  0  0  0
  143.7248  131.2723  149.3143 H   0  0  0  0  0  0  0  0  0  0  0  0
  143.6868  133.7319  149.0665 H   0  0  0  0  0  0  0  0  0  0  0  0
  142.9234  133.5023  150.6402 H   0  0  0  0  0  0  0  0  0  0  0  0
  145.5216  134.7365  150.0360 H   0  0  0  0  0  0  0  0  0  0  0  0
  144.7859  134.5940  151.6302 H   0  0  0  0  0  0  0  0  0  0  0  0
  147.0329  133.1584  151.1902 H   0  0  0  0  0  0  0  0  0  0  0  0
  146.2842  131.0142  149.8474 H   0  0  0  0  0  0  0  0  0  0  0  0
  146.0216  132.4689  148.8615 H   0  0  0  0  0  0  0  0  0  0  0  0
  148.0160  129.9001  151.2081 H   0  0  0  0  0  0  0  0  0  0  0  0
  146.5477  127.2947  151.1441 H   0  0  0  0  0  0  0  0  0  0  0  0
  147.3161  128.0371  149.7602 H   0  0  0  0  0  0  0  0  0  0  0  0
  149.5613  127.8716  150.9554 H   0  0  0  0  0  0  0  0  0  0  0  0
  148.7745  127.0287  152.2663 H   0  0  0  0  0  0  0  0  0  0  0  0
  146.9712  125.0769  151.0365 H   0  0  0  0  0  0  0  0  0  0  0  0
  147.3438  122.9461  149.7702 H   0  0  0  0  0  0  0  0  0  0  0  0
  149.4898  122.6556  148.4979 H   0  0  0  0  0  0  0  0  0  0  0  0
  151.1755  124.5125  148.5523 H   0  0  0  0  0  0  0  0  0  0  0  0
  1  2  2  0  0  0  0
  2  3  1  0  0  0  0
  2 11  1  0  0  0  0
  3  4  1  0  0  0  0
  3 20  1  0  0  0  0
  3 21  1  0  0  0  0
  4  9  1  0  0  0  0
  4  5  1  0  0  0  0
  4 22  1  0  0  0  0
  5  6  1  0  0  0  0
  5 23  1  0  0  0  0
  5 24  1  0  0  0  0
  6 10  1  0  0  0  0
  6  7  1  0  0  0  0
  6 25  1  0  0  0  0
  7  8  1  0  0  0  0
  7 26  1  0  0  0  0
  7 27  1  0  0  0  0
  8  9  1  0  0  0  0
  8 28  1  0  0  0  0
  8 29  1  0  0  0  0
  9 10  1  0  0  0  0
  9 30  1  0  0  0  0
 10 31  1  0  0  0  0
 10 32  1  0  0  0  0
 11 12  1  0  0  0  0
 11 33  1  0  0  0  0
 12 13  1  0  0  0  0
 12 34  1  0  0  0  0
 12 35  1  0  0  0  0
 13 14  1  0  0  0  0
 13 36  1  0  0  0  0
 13 37  1  0  0  0  0
 14 19  1  0  0  0  0
 14 15  2  0  0  0  0
 15 16  1  0  0  0  0
 15 38  1  0  0  0  0
 16 17  2  0  0  0  0
 16 39  1  0  0  0  0
 17 18  1  0  0  0  0
 17 40  1  0  0  0  0
 18 19  2  0  0  0  0
 18 41  1  0  0  0  0
M  END
> <s_m_source_file>
AV-unprocessed.smi

> <i_m_source_file_index>
3263

> <i_lp_mmshare_version>
43012

> <i_f3d_flags>
0

> <s_epik_input>
W0NIMl0xW0NIMl1bQ0BASF0oW0NIMl0yKVtDQEBIXShbQ0gyXVtDQEhdMTIpW0NIMl1DKD1PKVtOSF1bQ0gyXVtDSDJdYzNbY0hdW2NIXVtjSF1bY0hdbjM=

> <s_epik_cmdline>
J2VwaWtfcHl0aG9uJywgJy1waCcsICc3LjAnLCAnLXRuJywgJzgnLCAnLW1hJywgJzIwMCcsICctbWV0YWxfYmluZGluZycsICctaW1hZScsICc8aW5maWxlLm1hZT4nLCAnLW9tYWUnLCAnPG91dGZpbGUubWFlPic=

> <r_epik_Ionization_Penalty>
0.0273541

> <r_epik_Ionization_Penalty_Charging>
0

> <r_epik_Ionization_Penalty_Neutral>
0.0273541

> <r_epik_State_Penalty>
0.0223838

> <r_epik_Charging_Adjusted_Penalty>
0.0223838

> <i_epik_Tot_Q>
0

> <i_epik_Tot_abs_Q>
0

> <r_epik_Metal_State_Penalty>
0.0213927

> <b_epik_Metal_Only>
0

> <s_lp_Force_Field>
OPLS_2005

> <r_lp_Energy>
45.3245

> <b_lp_Chiralities_Consistent>
1

> <s_lp_Variant>
AV-unprocessed.smi:3263-3

> <Gold.Version>
5.8.1

> <Gold.Id.Protein>
6NUR|6NUR_protein|mol2

> <Gold.PLP.Fitness>
44.6251

> <Gold.PLP.PLP>
-43.6591

> <Gold.PLP.part.hbond>
-0.9545

> <Gold.PLP.part.metal>
0.0000

> <Gold.PLP.part.buried>
-5.3019

> <Gold.PLP.part.nonpolar>
-38.1335

> <Gold.PLP.part.repulsive>
0.8025

> <Gold.PLP.ligand.clash>
0.0000

> <Gold.PLP.ligand.torsion>
0.8307

> <Gold.PLP.Chemscore.Hbond>
0.8640

> <Gold.PLP.Chemscore.CHOScore>
0.0000

> <Gold.PLP.Chemscore.Metal>
0.0000

> <Gold.Chemscore.Hbonds>
donor molecule, donor type, donor heavy atom, donor atom, acceptor molecule, acceptor atom, score
      L1  H    11    33       P1 10747  1.00

> <Gold.PLP.Chemscore.Internal.Correction>
0.0354

> <Gold.Rescore>
     Score         DG    S(hbond)    S(metal)    S(lipo)     H(rot)  DE(clash)    DE(int)     intcor
     15.79     -19.17       0.94        0.00     121.93       1.46       1.49       1.89       ----

> <Gold.Chemscore.Fitness>
15.7875

> <Gold.Chemscore.DG>
-19.1678

> <Gold.Chemscore.ZeroCoef>
-5.4800

> <Gold.Chemscore.Hbond>
0.9427

> <Gold.Chemscore.Metal>
0.0000

> <Gold.Chemscore.Lipo>
121.9263

> <Gold.Chemscore.Internal_Hbond>
0.0000

> <Gold.Chemscore.DEClash>
1.4933

> <Gold.Chemscore.DEInternal>
1.8870

> <Gold.Chemscore.Rot>
1.4555

> <Gold.Chemscore.Internal.Correction>
   9.000000E+99

> <Gold.Chemscore.Hbonds>
donor molecule, donor type, donor heavy atom, donor atom, acceptor molecule, acceptor atom, score
      L1  H    11    33       P1 10747  0.93

> <Gold.Chemscore.Hbond.Weighted>
-3.1485

> <Gold.Chemscore.Metal.Weighted>
-0.0000

> <Gold.Chemscore.Lipo.Weighted>
-14.2654

> <Gold.Chemscore.Internal_Hbond.Weighted>
0.0000

> <Gold.Chemscore.DEClash.Weighted>
1.4933

> <Gold.Chemscore.DEInternal.Weighted>
1.8870

> <Gold.Chemscore.Rot.Weighted>
3.7260

> <Gold.Chemscore.Internal.Correction.Weighted>
   9.000000E+99

> <Gold.Protein.RotatedTorsions>
[ 6907 6896 6895 6894 ] final  172.88 input  -60.11 | X-H torsion
[ 7974 7965 7964 7962 ] final   -7.68 input  175.53 | X-H torsion
[ 8008 7997 7996 7995 ] final  -38.49 input   59.86 | X-H torsion
[ 10167 10162 10161 10158 ] final  149.99 input  -65.29 | X-H torsion
[ 10718 10713 10712 10709 ] final   35.48 input   66.30 | X-H torsion
[ 10763 10752 10751 10750 ] final  138.10 input  -60.55 | X-H torsion
[ 11005 11000 10999 10996 ] final  125.31 input  -57.11 | X-H torsion

> <Gold.Protein.ActiveResidues>
 VAL166  LYS551  ARG553  GLY616  TRP617  ASP618  TYR619  PRO620  LYS621  CYS622 
 ASP623  PHE694  ASN695  SER759  ASP760  ASP761  ALA762  ILE779  LEU786  VAL792 
 PHE793  MET794  SER795  GLU796  ALA797  LYS798  CYS799  TRP800  GLU811  SER814 

> <Gold.Protein.RotatedAtoms>
  151.7773  133.3346  159.3461 H   0  0  0  0  0  0  0  0  0  0  0  0  # atno 6907 bound_to 6896
  150.7439  134.5963  159.6023 H   0  0  0  0  0  0  0  0  0  0  0  0  # atno 6908 bound_to 6896
  152.3300  134.7273  160.0343 H   0  0  0  0  0  0  0  0  0  0  0  0  # atno 6909 bound_to 6896
  146.2300  140.2356  142.8341 H   0  0  0  0  0  0  0  0  0  0  0  0  # atno 7974 bound_to 7965
  154.4036  140.1576  156.2708 H   0  0  0  0  0  0  0  0  0  0  0  0  # atno 8008 bound_to 7997
  155.8954  140.3436  155.5965 H   0  0  0  0  0  0  0  0  0  0  0  0  # atno 8009 bound_to 7997
  155.7509  140.0805  157.2192 H   0  0  0  0  0  0  0  0  0  0  0  0  # atno 8010 bound_to 7997
  139.4855  144.5558  151.7320 H   0  0  0  0  0  0  0  0  0  0  0  0  # atno 10167 bound_to 10162
  157.3232  130.7459  149.6798 H   0  0  0  0  0  0  0  0  0  0  0  0  # atno 10718 bound_to 10713
  153.8839  135.3041  155.3446 H   0  0  0  0  0  0  0  0  0  0  0  0  # atno 10763 bound_to 10752
  154.7748  135.4867  153.9725 H   0  0  0  0  0  0  0  0  0  0  0  0  # atno 10764 bound_to 10752
  153.1335  135.6809  153.9237 H   0  0  0  0  0  0  0  0  0  0  0  0  # atno 10765 bound_to 10752
  139.9400  134.9636  156.8539 H   0  0  0  0  0  0  0  0  0  0  0  0  # atno 11005 bound_to 11000
  144.9524  140.8192  143.5563 LP  0  0  0  0  0  0  0  0  0  0  0  0  # atno 17320 bound_to 7965
  145.2318  139.2112  143.5039 LP  0  0  0  0  0  0  0  0  0  0  0  0  # atno 17321 bound_to 7965
  140.5119  144.1012  150.5997 LP  0  0  0  0  0  0  0  0  0  0  0  0  # atno 17342 bound_to 10162
  140.3940  143.2737  152.0026 LP  0  0  0  0  0  0  0  0  0  0  0  0  # atno 17343 bound_to 10162
  155.9688  130.4217  150.4482 LP  0  0  0  0  0  0  0  0  0  0  0  0  # atno 17370 bound_to 10713
  157.2501  131.0544  151.2384 LP  0  0  0  0  0  0  0  0  0  0  0  0  # atno 17371 bound_to 10713
  140.5975  134.0203  155.7524 LP  0  0  0  0  0  0  0  0  0  0  0  0  # atno 17394 bound_to 11000
  141.1031  133.9737  157.3044 LP  0  0  0  0  0  0  0  0  0  0  0  0  # atno 17395 bound_to 11000

$$$$
