AV-unprocessed.smi:2847|AV-procd|sdf|10954|dock6
  -GOLD-   2272015413D 1   1.00000     0.00000
 Structure written by MMmdl.
 45 46  0  0  0  0  0  0  0  0  1 V2000
  146.5381  135.0079  161.8636 C   0  0  0  0  0  0  0  0  0  0  0  0
  145.0689  134.8756  161.3972 C   0  0  0  0  0  0  0  0  0  0  0  0
  144.3187  133.9082  162.3310 C   0  0  0  0  0  0  0  0  0  0  0  0
  144.4543  136.2903  161.5149 C   0  0  0  0  0  0  0  0  0  0  0  0
  144.9905  134.3571  159.9506 C   0  0  0  0  0  0  0  0  0  0  0  0
  143.7728  134.2684  159.3992 N   0  0  0  0  0  0  0  0  0  0  0  0
  143.6991  133.9337  158.0941 C   0  0  0  0  0  0  0  0  0  0  0  0
  144.8512  133.7084  157.3150 C   0  0  0  0  0  0  0  0  0  0  0  0
  144.7009  133.3746  155.9427 N   0  0  0  0  0  0  0  0  0  0  0  0
  145.5616  133.5888  154.9336 C   0  0  0  0  0  0  0  0  0  0  0  0
  146.6712  134.1074  155.0500 O   0  0  0  0  0  0  0  0  0  0  0  0
  145.0549  133.1433  153.7723 N   0  0  0  0  0  0  0  0  0  0  0  0
  145.6560  133.1781  152.4319 C   0  0  2  0  0  0  0  0  0  0  0  0
  147.1304  132.7135  152.5013 C   0  0  0  0  0  0  0  0  0  0  0  0
  145.6117  134.6670  151.9855 C   0  0  0  0  0  0  0  0  0  0  0  0
  146.4726  135.4861  152.7545 O   0  0  0  0  0  0  0  0  0  0  0  0
  144.9113  132.2571  151.4485 C   0  0  0  0  0  0  0  0  0  0  0  0
  144.8210  132.4998  149.9590 C   0  0  0  0  0  0  0  0  0  0  0  0
  143.5759  132.5850  150.8211 C   0  0  0  0  0  0  0  0  0  0  0  0
  146.0876  133.8816  157.9815 C   0  0  0  0  0  0  0  0  0  0  0  0
  146.1464  134.2179  159.2880 N   0  0  0  0  0  0  0  0  0  0  0  0
  146.5990  135.4221  162.8707 H   0  0  0  0  0  0  0  0  0  0  0  0
  147.1064  135.6654  161.2046 H   0  0  0  0  0  0  0  0  0  0  0  0
  147.0474  134.0439  161.8898 H   0  0  0  0  0  0  0  0  0  0  0  0
  144.7512  132.9078  162.2952 H   0  0  0  0  0  0  0  0  0  0  0  0
  143.2681  133.8220  162.0509 H   0  0  0  0  0  0  0  0  0  0  0  0
  144.3563  134.2464  163.3671 H   0  0  0  0  0  0  0  0  0  0  0  0
  144.5498  136.6809  162.5287 H   0  0  0  0  0  0  0  0  0  0  0  0
  143.3903  136.2958  161.2755 H   0  0  0  0  0  0  0  0  0  0  0  0
  144.9478  136.9953  160.8447 H   0  0  0  0  0  0  0  0  0  0  0  0
  142.7097  133.8485  157.6689 H   0  0  0  0  0  0  0  0  0  0  0  0
  143.8570  132.8725  155.7080 H   0  0  0  0  0  0  0  0  0  0  0  0
  144.1302  132.7403  153.8116 H   0  0  0  0  0  0  0  0  0  0  0  0
  147.6349  132.8700  151.5473 H   0  0  0  0  0  0  0  0  0  0  0  0
  147.2134  131.6515  152.7328 H   0  0  0  0  0  0  0  0  0  0  0  0
  147.6938  133.2536  153.2630 H   0  0  0  0  0  0  0  0  0  0  0  0
  145.9164  134.7796  150.9461 H   0  0  0  0  0  0  0  0  0  0  0  0
  144.6058  135.0772  152.0722 H   0  0  0  0  0  0  0  0  0  0  0  0
  147.3365  135.4558  152.3723 H   0  0  0  0  0  0  0  0  0  0  0  0
  145.0395  131.2058  151.6975 H   0  0  0  0  0  0  0  0  0  0  0  0
  145.2086  133.4271  149.5456 H   0  0  0  0  0  0  0  0  0  0  0  0
  144.9185  131.6336  149.3077 H   0  0  0  0  0  0  0  0  0  0  0  0
  142.8537  131.7750  150.7402 H   0  0  0  0  0  0  0  0  0  0  0  0
  143.1428  133.5701  150.9728 H   0  0  0  0  0  0  0  0  0  0  0  0
  147.0394  133.7826  157.4833 H   0  0  0  0  0  0  0  0  0  0  0  0
  1  2  1  0  0  0  0
  1 22  1  0  0  0  0
  1 23  1  0  0  0  0
  1 24  1  0  0  0  0
  2  3  1  0  0  0  0
  2  4  1  0  0  0  0
  2  5  1  0  0  0  0
  3 25  1  0  0  0  0
  3 26  1  0  0  0  0
  3 27  1  0  0  0  0
  4 28  1  0  0  0  0
  4 29  1  0  0  0  0
  4 30  1  0  0  0  0
  5 21  1  0  0  0  0
  5  6  2  0  0  0  0
  6  7  1  0  0  0  0
  7  8  2  0  0  0  0
  7 31  1  0  0  0  0
  8  9  1  0  0  0  0
  8 20  1  0  0  0  0
  9 10  1  0  0  0  0
  9 32  1  0  0  0  0
 10 11  2  0  0  0  0
 10 12  1  0  0  0  0
 12 13  1  0  0  0  0
 12 33  1  0  0  0  0
 13 14  1  0  0  0  0
 13 15  1  0  0  0  0
 13 17  1  0  0  0  0
 14 34  1  0  0  0  0
 14 35  1  0  0  0  0
 14 36  1  0  0  0  0
 15 16  1  0  0  0  0
 15 37  1  0  0  0  0
 15 38  1  0  0  0  0
 16 39  1  0  0  0  0
 17 19  1  0  0  0  0
 17 18  1  0  0  0  0
 17 40  1  0  0  0  0
 18 19  1  0  0  0  0
 18 41  1  0  0  0  0
 18 42  1  0  0  0  0
 19 43  1  0  0  0  0
 19 44  1  0  0  0  0
 20 21  2  0  0  0  0
 20 45  1  0  0  0  0
M  END
> <s_m_source_file>
AV-unprocessed.smi

> <i_m_source_file_index>
2847

> <i_lp_mmshare_version>
43012

> <i_f3d_flags>
0

> <s_epik_input>
W0NIM11DKFtDSDNdKShbQ0gzXSljMW5bY0hdYyhbY0hdbjEpW05IXUMoPU8pW05IXVtDQEBdKFtDSDNdKShbQ0gyXVtPSF0pW0NIXTJbQ0gyXVtDSDJdMg==

> <s_epik_cmdline>
J2VwaWtfcHl0aG9uJywgJy1waCcsICc3LjAnLCAnLXRuJywgJzgnLCAnLW1hJywgJzIwMCcsICctbWV0YWxfYmluZGluZycsICctaW1hZScsICc8aW5maWxlLm1hZT4nLCAnLW9tYWUnLCAnPG91dGZpbGUubWFlPic=

> <r_lp_tautomer_probability>
1

> <r_epik_Ionization_Penalty>
2.57177e-05

> <r_epik_Ionization_Penalty_Charging>
0

> <r_epik_Ionization_Penalty_Neutral>
2.57177e-05

> <r_epik_State_Penalty>
-0

> <r_epik_Charging_Adjusted_Penalty>
0

> <i_epik_Tot_Q>
0

> <i_epik_Tot_abs_Q>
0

> <r_epik_Metal_State_Penalty>
-0

> <b_epik_Metal_Only>
0

> <s_lp_Force_Field>
OPLS_2005

> <r_lp_Energy>
20.8954

> <b_lp_Chiralities_Consistent>
1

> <s_lp_Variant>
AV-unprocessed.smi:2847-2

> <Gold.Version>
5.8.1

> <Gold.Id.Protein>
6NUR|6NUR_protein|mol2

> <Gold.PLP.Fitness>
37.4309

> <Gold.PLP.PLP>
-26.3797

> <Gold.PLP.part.hbond>
-3.0000

> <Gold.PLP.part.metal>
0.0000

> <Gold.PLP.part.buried>
-4.8633

> <Gold.PLP.part.nonpolar>
-18.6980

> <Gold.PLP.part.repulsive>
0.0434

> <Gold.PLP.ligand.clash>
0.0000

> <Gold.PLP.ligand.torsion>
1.2488

> <Gold.PLP.Chemscore.Hbond>
3.0000

> <Gold.PLP.Chemscore.CHOScore>
0.9999

> <Gold.PLP.Chemscore.Metal>
0.0000

> <Gold.Chemscore.Hbonds>
donor molecule, donor type, donor heavy atom, donor atom, acceptor molecule, acceptor atom, score
      L1  H     9    32       P1 10957  1.00
      L1  H    12    33       P1 10957  1.00
      L1  H    16    39       P1  7948  1.00
      L1  C     7    31       P1 11000  1.00

> <Gold.PLP.Chemscore.Internal.Correction>
1.5492

> <Gold.Rescore>
     Score         DG    S(hbond)    S(metal)    S(lipo)     H(rot)  DE(clash)    DE(int)     intcor
     13.30     -16.94       2.78        0.00      66.04       2.17       0.00       3.64       ----

> <Gold.Chemscore.Fitness>
13.2968

> <Gold.Chemscore.DG>
-16.9400

> <Gold.Chemscore.ZeroCoef>
-5.4800

> <Gold.Chemscore.Hbond>
2.7796

> <Gold.Chemscore.Metal>
0.0000

> <Gold.Chemscore.Lipo>
66.0350

> <Gold.Chemscore.Internal_Hbond>
0.0000

> <Gold.Chemscore.DEClash>
0.0000

> <Gold.Chemscore.DEInternal>
3.6432

> <Gold.Chemscore.Rot>
2.1679

> <Gold.Chemscore.Internal.Correction>
   9.000000E+99

> <Gold.Chemscore.Hbonds>
donor molecule, donor type, donor heavy atom, donor atom, acceptor molecule, acceptor atom, score
      L1  H     9    32       P1 10957  1.00
      L1  H    12    33       P1 10957  0.69
      L1  H    16    39       P1  7948  0.98

> <Gold.Chemscore.Hbond.Weighted>
-9.2838

> <Gold.Chemscore.Metal.Weighted>
-0.0000

> <Gold.Chemscore.Lipo.Weighted>
-7.7261

> <Gold.Chemscore.Internal_Hbond.Weighted>
0.0000

> <Gold.Chemscore.DEClash.Weighted>
0.0000

> <Gold.Chemscore.DEInternal.Weighted>
3.6432

> <Gold.Chemscore.Rot.Weighted>
5.5499

> <Gold.Chemscore.Internal.Correction.Weighted>
   9.000000E+99

> <Gold.Protein.RotatedTorsions>
[ 6907 6896 6895 6894 ] final  156.32 input  -60.11 | X-H torsion
[ 7974 7965 7964 7962 ] final  -47.30 input  175.53 | X-H torsion
[ 8008 7997 7996 7995 ] final -168.66 input   59.86 | X-H torsion
[ 10167 10162 10161 10158 ] final  -84.64 input  -65.29 | X-H torsion
[ 10718 10713 10712 10709 ] final  -73.42 input   66.30 | X-H torsion
[ 10763 10752 10751 10750 ] final  135.44 input  -60.55 | X-H torsion
[ 11005 11000 10999 10996 ] final   40.45 input  -57.11 | X-H torsion

> <Gold.Protein.ActiveResidues>
 VAL166  LYS551  ARG553  GLY616  TRP617  ASP618  TYR619  PRO620  LYS621  CYS622 
 ASP623  PHE694  ASN695  SER759  ASP760  ASP761  ALA762  ILE779  LEU786  VAL792 
 PHE793  MET794  SER795  GLU796  ALA797  LYS798  CYS799  TRP800  GLU811  SER814 

> <Gold.Protein.RotatedAtoms>
  152.0314  133.3939  159.4298 H   0  0  0  0  0  0  0  0  0  0  0  0  # atno 6907 bound_to 6896
  150.6882  134.3516  159.4921 H   0  0  0  0  0  0  0  0  0  0  0  0  # atno 6908 bound_to 6896
  152.1303  134.9139  160.0609 H   0  0  0  0  0  0  0  0  0  0  0  0  # atno 6909 bound_to 6896
  145.9630  140.7460  142.9448 H   0  0  0  0  0  0  0  0  0  0  0  0  # atno 7974 bound_to 7965
  155.8945  140.1030  157.1395 H   0  0  0  0  0  0  0  0  0  0  0  0  # atno 8008 bound_to 7997
  154.4019  140.1304  156.4422 H   0  0  0  0  0  0  0  0  0  0  0  0  # atno 8009 bound_to 7997
  155.7495  140.3465  155.5146 H   0  0  0  0  0  0  0  0  0  0  0  0  # atno 8010 bound_to 7997
  140.4113  143.2621  151.9014 H   0  0  0  0  0  0  0  0  0  0  0  0  # atno 10167 bound_to 10162
  156.0281  130.4394  150.2740 H   0  0  0  0  0  0  0  0  0  0  0  0  # atno 10718 bound_to 10713
  153.8400  135.3092  155.3425 H   0  0  0  0  0  0  0  0  0  0  0  0  # atno 10763 bound_to 10752
  154.7937  135.4768  154.0113 H   0  0  0  0  0  0  0  0  0  0  0  0  # atno 10764 bound_to 10752
  153.1581  135.6856  153.8874 H   0  0  0  0  0  0  0  0  0  0  0  0  # atno 10765 bound_to 10752
  140.1929  134.3964  155.8137 H   0  0  0  0  0  0  0  0  0  0  0  0  # atno 11005 bound_to 11000
  144.6819  140.2622  143.7317 LP  0  0  0  0  0  0  0  0  0  0  0  0  # atno 17320 bound_to 7965
  145.8013  139.1965  143.2046 LP  0  0  0  0  0  0  0  0  0  0  0  0  # atno 17321 bound_to 7965
  139.4782  144.5534  151.8351 LP  0  0  0  0  0  0  0  0  0  0  0  0  # atno 17342 bound_to 10162
  140.4635  144.1689  150.5909 LP  0  0  0  0  0  0  0  0  0  0  0  0  # atno 17343 bound_to 10162
  157.0843  131.0152  151.3145 LP  0  0  0  0  0  0  0  0  0  0  0  0  # atno 17370 bound_to 10713
  157.4903  130.7818  149.7501 LP  0  0  0  0  0  0  0  0  0  0  0  0  # atno 17371 bound_to 10713
  141.2226  133.7055  156.8126 LP  0  0  0  0  0  0  0  0  0  0  0  0  # atno 17394 bound_to 11000
  140.2139  134.8807  157.3305 LP  0  0  0  0  0  0  0  0  0  0  0  0  # atno 17395 bound_to 11000

$$$$
