AV-unprocessed.smi:1978|AV-procd|sdf|8008|dock9
  -GOLD-   2272010193D 1   1.00000     0.00000
 Structure written by MMmdl.
 44 45  0  0  0  0  0  0  0  0  3 V2000
  147.1542  135.2813  162.2045 C   0  0  0  0  0  0  0  0  0  0  0  0
  147.6910  135.7117  160.8828 C   0  0  0  0  0  0  0  0  0  0  0  0
  148.1422  135.0219  159.7931 C   0  0  0  0  0  0  0  0  0  0  0  0
  148.5028  136.0538  158.8862 C   0  0  0  0  0  0  0  0  0  0  0  0
  149.0264  135.7396  157.6043 N   0  0  0  0  0  0  0  0  0  0  0  0
  149.4880  134.5610  157.1478 C   0  0  0  0  0  0  0  0  0  0  0  0
  149.4832  133.5621  157.8769 O   0  0  0  0  0  0  0  0  0  0  0  0
  149.9312  134.6442  155.8628 N   0  5  0  0  0  0  0  0  0  0  0  0
  149.0952  134.9794  154.7090 C   0  0  0  0  0  0  0  0  0  0  0  0
  148.2915  133.7435  154.2215 C   0  0  2  0  0  0  0  0  0  0  0  0
  149.1699  132.4894  153.9656 C   0  0  0  0  0  0  0  0  0  0  0  0
  147.4459  134.1291  153.0473 N   0  3  1  0  0  0  0  0  0  0  0  0
  147.1078  133.0425  152.0802 C   0  0  0  0  0  0  0  0  0  0  0  0
  146.5289  133.6225  150.7802 C   0  0  0  0  0  0  0  0  0  0  0  0
  145.3104  134.5082  151.0653 C   0  0  0  0  0  0  0  0  0  0  0  0
  145.6805  135.6005  152.0794 C   0  0  0  0  0  0  0  0  0  0  0  0
  146.2855  135.0145  153.3727 C   0  0  1  0  0  0  0  0  0  0  0  0
  145.2231  134.3350  154.2619 C   0  0  0  0  0  0  0  0  0  0  0  0
  148.2904  137.2650  159.3795 N   0  0  0  0  0  0  0  0  0  0  0  0
  147.7696  137.0518  160.6614 O   0  0  0  0  0  0  0  0  0  0  0  0
  147.1858  134.1959  162.3029 H   0  0  0  0  0  0  0  0  0  0  0  0
  146.1191  135.6015  162.3239 H   0  0  0  0  0  0  0  0  0  0  0  0
  147.7386  135.7114  163.0179 H   0  0  0  0  0  0  0  0  0  0  0  0
  148.2030  133.9514  159.6663 H   0  0  0  0  0  0  0  0  0  0  0  0
  149.0633  136.5064  156.9494 H   0  0  0  0  0  0  0  0  0  0  0  0
  148.3964  135.7842  154.9431 H   0  0  0  0  0  0  0  0  0  0  0  0
  149.6954  135.3592  153.8818 H   0  0  0  0  0  0  0  0  0  0  0  0
  147.6094  133.4852  155.0329 H   0  0  0  0  0  0  0  0  0  0  0  0
  149.6514  132.1419  154.8813 H   0  0  0  0  0  0  0  0  0  0  0  0
  149.9607  132.6657  153.2344 H   0  0  0  0  0  0  0  0  0  0  0  0
  148.5727  131.6545  153.6007 H   0  0  0  0  0  0  0  0  0  0  0  0
  148.0033  132.4700  151.8362 H   0  0  0  0  0  0  0  0  0  0  0  0
  146.3983  132.3427  152.5219 H   0  0  0  0  0  0  0  0  0  0  0  0
  147.2948  134.2069  150.2686 H   0  0  0  0  0  0  0  0  0  0  0  0
  146.2524  132.8145  150.1024 H   0  0  0  0  0  0  0  0  0  0  0  0
  144.9525  134.9613  150.1404 H   0  0  0  0  0  0  0  0  0  0  0  0
  144.4903  133.9005  151.4492 H   0  0  0  0  0  0  0  0  0  0  0  0
  146.4045  136.2763  151.6221 H   0  0  0  0  0  0  0  0  0  0  0  0
  144.8058  136.2090  152.3114 H   0  0  0  0  0  0  0  0  0  0  0  0
  146.6768  135.8622  153.9372 H   0  0  0  0  0  0  0  0  0  0  0  0
  144.3954  135.0158  154.4608 H   0  0  0  0  0  0  0  0  0  0  0  0
  145.6334  134.0487  155.2298 H   0  0  0  0  0  0  0  0  0  0  0  0
  144.8041  133.4415  153.8001 H   0  0  0  0  0  0  0  0  0  0  0  0
  148.0605  134.7386  152.5263 H   0  0  0  0  0  0  0  0  0  0  0  0
  1  2  1  0  0  0  0
  1 21  1  0  0  0  0
  1 22  1  0  0  0  0
  1 23  1  0  0  0  0
  2 20  1  0  0  0  0
  2  3  2  0  0  0  0
  3  4  1  0  0  0  0
  3 24  1  0  0  0  0
  4  5  1  0  0  0  0
  4 19  2  0  0  0  0
  5  6  1  0  0  0  0
  5 25  1  0  0  0  0
  6  7  2  0  0  0  0
  6  8  1  0  0  0  0
  8  9  1  0  0  0  0
  9 10  1  0  0  0  0
  9 26  1  0  0  0  0
  9 27  1  0  0  0  0
 10 11  1  0  0  0  0
 10 12  1  0  0  0  0
 10 28  1  0  0  0  0
 11 29  1  0  0  0  0
 11 30  1  0  0  0  0
 11 31  1  0  0  0  0
 12 17  1  0  0  0  0
 12 13  1  0  0  0  0
 12 44  1  0  0  0  0
 13 14  1  0  0  0  0
 13 32  1  0  0  0  0
 13 33  1  0  0  0  0
 14 15  1  0  0  0  0
 14 34  1  0  0  0  0
 14 35  1  0  0  0  0
 15 16  1  0  0  0  0
 15 36  1  0  0  0  0
 15 37  1  0  0  0  0
 16 17  1  0  0  0  0
 16 38  1  0  0  0  0
 16 39  1  0  0  0  0
 17 18  1  0  0  0  0
 17 40  1  0  0  0  0
 18 41  1  0  0  0  0
 18 42  1  0  0  0  0
 18 43  1  0  0  0  0
 19 20  1  0  0  0  0
M  CHG  1   8  -1
M  CHG  1  12   1
M  END
> <s_m_source_file>
AV-unprocessed.smi

> <i_m_source_file_index>
1978

> <i_lp_mmshare_version>
43012

> <i_f3d_flags>
0

> <s_epik_input>
W0NIM11jMVtjSF1jKG5vMSlbTkhdQyg9TylbTkhdW0NIMl1bQ0BIXShbQ0gzXSlOMltDSDJdW0NIMl1bQ0gyXVtDSDJdW0NASF0yW0NIM10=

> <s_epik_cmdline>
J2VwaWtfcHl0aG9uJywgJy1waCcsICc3LjAnLCAnLXRuJywgJzgnLCAnLW1hJywgJzIwMCcsICctbWV0YWxfYmluZGluZycsICctaW1hZScsICc8aW5maWxlLm1hZT4nLCAnLW9tYWUnLCAnPG91dGZpbGUubWFlPic=

> <r_epik_Ionization_Penalty>
6.7666

> <r_epik_Ionization_Penalty_Charging>
6.7666

> <r_epik_Ionization_Penalty_Neutral>
5.77131e-06

> <r_epik_State_Penalty>
6.79217

> <r_epik_Charging_Adjusted_Penalty>
13.5588

> <i_epik_Tot_Q>
0

> <i_epik_Tot_abs_Q>
2

> <r_epik_Metal_State_Penalty>
2.72569

> <b_epik_Metal_Only>
1

> <s_lp_Force_Field>
OPLS_2005

> <r_lp_Energy>
20.2617

> <b_lp_Chiralities_Consistent>
1

> <s_lp_Variant>
AV-unprocessed.smi:1978-17

> <Gold.Version>
5.8.1

> <Gold.Id.Protein>
6NUR|6NUR_protein|mol2

> <Gold.PLP.Fitness>
42.0372

> <Gold.PLP.PLP>
-30.8928

> <Gold.PLP.part.hbond>
-4.4227

> <Gold.PLP.part.metal>
0.0000

> <Gold.PLP.part.buried>
-2.8860

> <Gold.PLP.part.nonpolar>
-23.1341

> <Gold.PLP.part.repulsive>
0.1111

> <Gold.PLP.ligand.clash>
0.0000

> <Gold.PLP.ligand.torsion>
1.3081

> <Gold.PLP.Chemscore.Hbond>
4.5200

> <Gold.PLP.Chemscore.CHOScore>
0.0000

> <Gold.PLP.Chemscore.Metal>
0.0000

> <Gold.Chemscore.Hbonds>
donor molecule, donor type, donor heavy atom, donor atom, acceptor molecule, acceptor atom, score
      L1  H    12    44       P1  7948  2.00
      P1  H  6896  6907       L1     7  1.00
      P1  H  6931  6943       L1    20  0.63
      P1  H  6934  6947       L1    20  0.56

> <Gold.PLP.Chemscore.Internal.Correction>
0.2006

> <Gold.Rescore>
     Score         DG    S(hbond)    S(metal)    S(lipo)     H(rot)  DE(clash)    DE(int)     intcor
     14.57     -17.79       2.77        0.00      59.30       1.52       0.35       2.88       ----

> <Gold.Chemscore.Fitness>
14.5669

> <Gold.Chemscore.DG>
-17.7939

> <Gold.Chemscore.ZeroCoef>
-5.4800

> <Gold.Chemscore.Hbond>
2.7738

> <Gold.Chemscore.Metal>
0.0000

> <Gold.Chemscore.Lipo>
59.2989

> <Gold.Chemscore.Internal_Hbond>
0.0000

> <Gold.Chemscore.DEClash>
0.3455

> <Gold.Chemscore.DEInternal>
2.8815

> <Gold.Chemscore.Rot>
1.5190

> <Gold.Chemscore.Internal.Correction>
   9.000000E+99

> <Gold.Chemscore.Hbonds>
donor molecule, donor type, donor heavy atom, donor atom, acceptor molecule, acceptor atom, score
      L1  H    12    44       P1  7948  0.60
      P1  H  6896  6907       L1     7  0.65
      P1  H  6931  6943       L1    20  0.24
      P1  H  6934  6947       L1    20  0.06

> <Gold.Chemscore.Hbond.Weighted>
-9.2646

> <Gold.Chemscore.Metal.Weighted>
-0.0000

> <Gold.Chemscore.Lipo.Weighted>
-6.9380

> <Gold.Chemscore.Internal_Hbond.Weighted>
0.0000

> <Gold.Chemscore.DEClash.Weighted>
0.3455

> <Gold.Chemscore.DEInternal.Weighted>
2.8815

> <Gold.Chemscore.Rot.Weighted>
3.8886

> <Gold.Chemscore.Internal.Correction.Weighted>
   9.000000E+99

> <Gold.Protein.RotatedTorsions>
[ 6907 6896 6895 6894 ] final -116.69 input  -60.11 | X-H torsion
[ 7974 7965 7964 7962 ] final  -14.60 input  175.53 | X-H torsion
[ 8008 7997 7996 7995 ] final -100.55 input   59.86 | X-H torsion
[ 10167 10162 10161 10158 ] final  176.83 input  -65.29 | X-H torsion
[ 10718 10713 10712 10709 ] final  -88.92 input   66.30 | X-H torsion
[ 10763 10752 10751 10750 ] final  -45.02 input  -60.55 | X-H torsion
[ 11005 11000 10999 10996 ] final    2.75 input  -57.11 | X-H torsion

> <Gold.Protein.ActiveResidues>
 VAL166  LYS551  ARG553  GLY616  TRP617  ASP618  TYR619  PRO620  LYS621  CYS622 
 ASP623  PHE694  ASN695  SER759  ASP760  ASP761  ALA762  ILE779  LEU786  VAL792 
 PHE793  MET794  SER795  GLU796  ALA797  LYS798  CYS799  TRP800  GLU811  SER814 

> <Gold.Protein.RotatedAtoms>
  150.8076  133.8481  159.3197 H   0  0  0  0  0  0  0  0  0  0  0  0  # atno 6907 bound_to 6896
  151.6275  135.1024  160.0124 H   0  0  0  0  0  0  0  0  0  0  0  0  # atno 6908 bound_to 6896
  152.4167  133.7010  159.6481 H   0  0  0  0  0  0  0  0  0  0  0  0  # atno 6909 bound_to 6896
  146.2067  140.3372  142.8404 H   0  0  0  0  0  0  0  0  0  0  0  0  # atno 7974 bound_to 7965
  154.8301  140.0440  157.1471 H   0  0  0  0  0  0  0  0  0  0  0  0  # atno 8008 bound_to 7997
  154.9162  140.3020  155.5220 H   0  0  0  0  0  0  0  0  0  0  0  0  # atno 8009 bound_to 7997
  156.2986  140.2349  156.4207 H   0  0  0  0  0  0  0  0  0  0  0  0  # atno 8010 bound_to 7997
  139.5229  144.2869  152.0497 H   0  0  0  0  0  0  0  0  0  0  0  0  # atno 10167 bound_to 10162
  155.9984  130.4853  150.5093 H   0  0  0  0  0  0  0  0  0  0  0  0  # atno 10718 bound_to 10713
  154.0216  135.6668  153.4773 H   0  0  0  0  0  0  0  0  0  0  0  0  # atno 10763 bound_to 10752
  153.0578  135.5046  154.8018 H   0  0  0  0  0  0  0  0  0  0  0  0  # atno 10764 bound_to 10752
  154.6934  135.3065  154.9411 H   0  0  0  0  0  0  0  0  0  0  0  0  # atno 10765 bound_to 10752
  140.6008  133.9838  155.8131 H   0  0  0  0  0  0  0  0  0  0  0  0  # atno 11005 bound_to 11000
  144.8811  140.7401  143.5986 LP  0  0  0  0  0  0  0  0  0  0  0  0  # atno 17320 bound_to 7965
  145.3292  139.1764  143.4546 LP  0  0  0  0  0  0  0  0  0  0  0  0  # atno 17321 bound_to 7965
  140.2322  144.4356  150.6295 LP  0  0  0  0  0  0  0  0  0  0  0  0  # atno 17342 bound_to 10162
  140.6347  143.2193  151.6420 LP  0  0  0  0  0  0  0  0  0  0  0  0  # atno 17343 bound_to 10162
  157.3068  131.0656  151.2029 LP  0  0  0  0  0  0  0  0  0  0  0  0  # atno 17370 bound_to 10713
  157.2990  130.6833  149.6154 LP  0  0  0  0  0  0  0  0  0  0  0  0  # atno 17371 bound_to 10713
  141.0874  133.9970  157.3292 LP  0  0  0  0  0  0  0  0  0  0  0  0  # atno 17394 bound_to 11000
  139.9233  135.0201  156.8145 LP  0  0  0  0  0  0  0  0  0  0  0  0  # atno 17395 bound_to 11000

$$$$
