AV-unprocessed.smi:3058|AV-procd|sdf|11674|dock6
  -GOLD-   2272017 83D 1   1.00000     0.00000
 Structure written by MMmdl.
 39 41  0  0  0  0  0  0  0  0  2 V2000
  149.7237  141.8579  158.2460 O   0  0  0  0  0  0  0  0  0  0  0  0
  150.9164  141.6147  158.4345 C   0  0  0  0  0  0  0  0  0  0  0  0
  151.5854  140.6754  157.7481 N   0  0  0  0  0  0  0  0  0  0  0  0
  151.0048  139.8219  156.7186 C   0  0  0  0  0  0  0  0  0  0  0  0
  150.4725  140.6459  155.5347 C   0  0  0  0  0  0  0  0  0  0  0  0
  149.2631  139.9990  154.8890 C   0  0  0  0  0  0  0  0  0  0  0  0
  148.0905  140.7501  154.6528 C   0  0  0  0  0  0  0  0  0  0  0  0
  146.9806  140.1267  154.0455 C   0  0  0  0  0  0  0  0  0  0  0  0
  147.0689  138.7662  153.6868 C   0  0  0  0  0  0  0  0  0  0  0  0
  148.2077  138.0796  153.9277 N   0  3  0  0  0  0  0  0  0  0  0  0
  149.2919  138.6399  154.5081 C   0  0  0  0  0  0  0  0  0  0  0  0
  151.7330  142.4030  159.4740 C   0  0  1  0  0  0  0  0  0  0  0  0
  152.8659  143.2775  158.8813 C   0  0  0  0  0  0  0  0  0  0  0  0
  152.5788  144.6680  159.4786 C   0  0  1  0  0  0  0  0  0  0  0  0
  151.3385  145.2752  158.7963 C   0  0  0  0  0  0  0  0  0  0  0  0
  150.1824  144.4641  159.4098 C   0  0  0  0  0  0  0  0  0  0  0  0
  150.9211  143.4382  160.2977 C   0  0  2  0  0  0  0  0  0  0  0  0
  152.0406  144.3100  160.8593 C   0  0  0  0  0  0  0  0  0  0  0  0
  152.5649  140.5439  157.9552 H   0  0  0  0  0  0  0  0  0  0  0  0
  151.7449  139.0956  156.3782 H   0  0  0  0  0  0  0  0  0  0  0  0
  150.1934  139.2496  157.1691 H   0  0  0  0  0  0  0  0  0  0  0  0
  150.2065  141.6504  155.8666 H   0  0  0  0  0  0  0  0  0  0  0  0
  151.2487  140.7694  154.7781 H   0  0  0  0  0  0  0  0  0  0  0  0
  148.0417  141.7929  154.9314 H   0  0  0  0  0  0  0  0  0  0  0  0
  146.0754  140.6855  153.8569 H   0  0  0  0  0  0  0  0  0  0  0  0
  146.2696  138.2111  153.2175 H   0  0  0  0  0  0  0  0  0  0  0  0
  150.1430  137.9889  154.6464 H   0  0  0  0  0  0  0  0  0  0  0  0
  152.1831  141.6874  160.1651 H   0  0  0  0  0  0  0  0  0  0  0  0
  153.8368  142.9122  159.2188 H   0  0  0  0  0  0  0  0  0  0  0  0
  152.8944  143.3026  157.7912 H   0  0  0  0  0  0  0  0  0  0  0  0
  153.4453  145.3298  159.4779 H   0  0  0  0  0  0  0  0  0  0  0  0
  151.2353  146.3338  159.0382 H   0  0  0  0  0  0  0  0  0  0  0  0
  151.3805  145.1818  157.7105 H   0  0  0  0  0  0  0  0  0  0  0  0
  149.5572  145.1120  160.0259 H   0  0  0  0  0  0  0  0  0  0  0  0
  149.5311  144.0162  158.6605 H   0  0  0  0  0  0  0  0  0  0  0  0
  150.2857  142.9839  161.0587 H   0  0  0  0  0  0  0  0  0  0  0  0
  152.7552  143.7590  161.4735 H   0  0  0  0  0  0  0  0  0  0  0  0
  151.6802  145.1739  161.4207 H   0  0  0  0  0  0  0  0  0  0  0  0
  148.2509  137.0960  153.6595 H   0  0  0  0  0  0  0  0  0  0  0  0
  1  2  2  0  0  0  0
  2  3  1  0  0  0  0
  2 12  1  0  0  0  0
  3  4  1  0  0  0  0
  3 19  1  0  0  0  0
  4  5  1  0  0  0  0
  4 20  1  0  0  0  0
  4 21  1  0  0  0  0
  5  6  1  0  0  0  0
  5 22  1  0  0  0  0
  5 23  1  0  0  0  0
  6 11  1  0  0  0  0
  6  7  2  0  0  0  0
  7  8  1  0  0  0  0
  7 24  1  0  0  0  0
  8  9  2  0  0  0  0
  8 25  1  0  0  0  0
  9 10  1  0  0  0  0
  9 26  1  0  0  0  0
 10 11  2  0  0  0  0
 10 39  1  0  0  0  0
 11 27  1  0  0  0  0
 12 17  1  0  0  0  0
 12 13  1  0  0  0  0
 12 28  1  0  0  0  0
 13 14  1  0  0  0  0
 13 29  1  0  0  0  0
 13 30  1  0  0  0  0
 14 18  1  0  0  0  0
 14 15  1  0  0  0  0
 14 31  1  0  0  0  0
 15 16  1  0  0  0  0
 15 32  1  0  0  0  0
 15 33  1  0  0  0  0
 16 17  1  0  0  0  0
 16 34  1  0  0  0  0
 16 35  1  0  0  0  0
 17 18  1  0  0  0  0
 17 36  1  0  0  0  0
 18 37  1  0  0  0  0
 18 38  1  0  0  0  0
M  CHG  1  10   1
M  END
> <s_m_source_file>
AV-unprocessed.smi

> <i_m_source_file_index>
3058

> <i_lp_mmshare_version>
43012

> <i_f3d_flags>
0

> <s_epik_input>
W0NIMl0xW0NIMl1bQ0BIXShbQ0gyXTIpW0NAQEhdKFtDSDJdW0NAQEhdMTIpQyg9TylbTkhdW0NIMl1bQ0gyXWMzW2NIXVtjSF1bY0hdbltjSF0z

> <s_epik_cmdline>
J2VwaWtfcHl0aG9uJywgJy1waCcsICc3LjAnLCAnLXRuJywgJzgnLCAnLW1hJywgJzIwMCcsICctbWV0YWxfYmluZGluZycsICctaW1hZScsICc8aW5maWxlLm1hZT4nLCAnLW9tYWUnLCAnPG91dGZpbGUubWFlPic=

> <r_epik_Ionization_Penalty>
2.24375

> <r_epik_Ionization_Penalty_Charging>
2.24375

> <r_epik_Ionization_Penalty_Neutral>
1.89995e-08

> <r_epik_State_Penalty>
2.39035

> <r_epik_Charging_Adjusted_Penalty>
4.63411

> <i_epik_Tot_Q>
1

> <i_epik_Tot_abs_Q>
1

> <r_epik_Metal_State_Penalty>
2.40369

> <b_epik_Metal_Only>
0

> <s_lp_Force_Field>
OPLS_2005

> <r_lp_Energy>
53.8875

> <b_lp_Chiralities_Consistent>
1

> <s_lp_Variant>
AV-unprocessed.smi:3058-6

> <Gold.Version>
5.8.1

> <Gold.Id.Protein>
6NUR|6NUR_protein|mol2

> <Gold.PLP.Fitness>
41.5199

> <Gold.PLP.PLP>
-36.1667

> <Gold.PLP.part.hbond>
-2.0000

> <Gold.PLP.part.metal>
0.0000

> <Gold.PLP.part.buried>
0.7512

> <Gold.PLP.part.nonpolar>
-34.5205

> <Gold.PLP.part.repulsive>
0.2020

> <Gold.PLP.ligand.clash>
0.0000

> <Gold.PLP.ligand.torsion>
0.3282

> <Gold.PLP.Chemscore.Hbond>
2.0000

> <Gold.PLP.Chemscore.CHOScore>
0.0000

> <Gold.PLP.Chemscore.Metal>
0.0000

> <Gold.Chemscore.Hbonds>
donor molecule, donor type, donor heavy atom, donor atom, acceptor molecule, acceptor atom, score
      L1  H    10    39       P1  7948  0.92

> <Gold.PLP.Chemscore.Internal.Correction>
0.0096

> <Gold.Rescore>
     Score         DG    S(hbond)    S(metal)    S(lipo)     H(rot)  DE(clash)    DE(int)     intcor
     15.90     -19.05       0.99        0.00     119.63       1.45       0.61       2.54       ----

> <Gold.Chemscore.Fitness>
15.9032

> <Gold.Chemscore.DG>
-19.0487

> <Gold.Chemscore.ZeroCoef>
-5.4800

> <Gold.Chemscore.Hbond>
0.9868

> <Gold.Chemscore.Metal>
0.0000

> <Gold.Chemscore.Lipo>
119.6317

> <Gold.Chemscore.Internal_Hbond>
0.0000

> <Gold.Chemscore.DEClash>
0.6092

> <Gold.Chemscore.DEInternal>
2.5363

> <Gold.Chemscore.Rot>
1.4548

> <Gold.Chemscore.Internal.Correction>
   9.000000E+99

> <Gold.Chemscore.Hbonds>
donor molecule, donor type, donor heavy atom, donor atom, acceptor molecule, acceptor atom, score
      L1  H    10    39       P1  7948  0.46

> <Gold.Chemscore.Hbond.Weighted>
-3.2960

> <Gold.Chemscore.Metal.Weighted>
-0.0000

> <Gold.Chemscore.Lipo.Weighted>
-13.9969

> <Gold.Chemscore.Internal_Hbond.Weighted>
0.0000

> <Gold.Chemscore.DEClash.Weighted>
0.6092

> <Gold.Chemscore.DEInternal.Weighted>
2.5363

> <Gold.Chemscore.Rot.Weighted>
3.7242

> <Gold.Chemscore.Internal.Correction.Weighted>
   9.000000E+99

> <Gold.Protein.RotatedTorsions>
[ 6907 6896 6895 6894 ] final   97.69 input  -60.11 | X-H torsion
[ 7974 7965 7964 7962 ] final   93.43 input  175.53 | X-H torsion
[ 8008 7997 7996 7995 ] final  -26.95 input   59.86 | X-H torsion
[ 10167 10162 10161 10158 ] final  -19.15 input  -65.29 | X-H torsion
[ 10718 10713 10712 10709 ] final   98.26 input   66.30 | X-H torsion
[ 10763 10752 10751 10750 ] final -112.57 input  -60.55 | X-H torsion
[ 11005 11000 10999 10996 ] final  108.20 input  -57.11 | X-H torsion

> <Gold.Protein.ActiveResidues>
 VAL166  LYS551  ARG553  GLY616  TRP617  ASP618  TYR619  PRO620  LYS621  CYS622 
 ASP623  PHE694  ASN695  SER759  ASP760  ASP761  ALA762  ILE779  LEU786  VAL792 
 PHE793  MET794  SER795  GLU796  ALA797  LYS798  CYS799  TRP800  GLU811  SER814 

> <Gold.Protein.RotatedAtoms>
  152.5420  134.0694  159.8187 H   0  0  0  0  0  0  0  0  0  0  0  0  # atno 6907 bound_to 6896
  151.0811  133.5382  159.2628 H   0  0  0  0  0  0  0  0  0  0  0  0  # atno 6908 bound_to 6896
  151.2209  135.0526  159.9003 H   0  0  0  0  0  0  0  0  0  0  0  0  # atno 6909 bound_to 6896
  145.4790  139.2279  143.2893 H   0  0  0  0  0  0  0  0  0  0  0  0  # atno 7974 bound_to 7965
  154.4400  140.1885  156.0856 H   0  0  0  0  0  0  0  0  0  0  0  0  # atno 8008 bound_to 7997
  156.0405  140.3320  155.7212 H   0  0  0  0  0  0  0  0  0  0  0  0  # atno 8009 bound_to 7997
  155.5706  140.0612  157.2798 H   0  0  0  0  0  0  0  0  0  0  0  0  # atno 8010 bound_to 7997
  140.7265  143.4847  151.0071 H   0  0  0  0  0  0  0  0  0  0  0  0  # atno 10167 bound_to 10162
  157.6899  131.0634  150.4769 H   0  0  0  0  0  0  0  0  0  0  0  0  # atno 10718 bound_to 10713
  154.8356  135.4486  154.1215 H   0  0  0  0  0  0  0  0  0  0  0  0  # atno 10763 bound_to 10752
  153.2449  135.6920  153.7748 H   0  0  0  0  0  0  0  0  0  0  0  0  # atno 10764 bound_to 10752
  153.7082  135.3361  155.3216 H   0  0  0  0  0  0  0  0  0  0  0  0  # atno 10765 bound_to 10752
  139.8840  134.9423  156.5936 H   0  0  0  0  0  0  0  0  0  0  0  0  # atno 11005 bound_to 11000
  146.2352  140.5575  142.8958 LP  0  0  0  0  0  0  0  0  0  0  0  0  # atno 17320 bound_to 7965
  144.7900  140.6013  143.6548 LP  0  0  0  0  0  0  0  0  0  0  0  0  # atno 17321 bound_to 7965
  139.8547  143.7392  152.3176 LP  0  0  0  0  0  0  0  0  0  0  0  0  # atno 17342 bound_to 10162
  139.7586  144.7513  151.0397 LP  0  0  0  0  0  0  0  0  0  0  0  0  # atno 17343 bound_to 10162
  156.5103  130.4138  149.6305 LP  0  0  0  0  0  0  0  0  0  0  0  0  # atno 17370 bound_to 10713
  156.3247  130.7299  151.2218 LP  0  0  0  0  0  0  0  0  0  0  0  0  # atno 17371 bound_to 10713
  140.7937  133.8561  155.8667 LP  0  0  0  0  0  0  0  0  0  0  0  0  # atno 17394 bound_to 11000
  140.9654  134.1600  157.4620 LP  0  0  0  0  0  0  0  0  0  0  0  0  # atno 17395 bound_to 11000

$$$$
