AV-unprocessed.smi:2226|AV-procd|sdf|9015|dock6
  -GOLD-   2272012223D 1   1.00000     0.00000
 Structure written by MMmdl.
 40 42  0  0  0  0  0  0  0  0  2 V2000
  146.8062  139.1060  153.1723 C   0  0  0  0  0  0  0  0  0  0  0  0
  146.3529  140.3130  153.9039 N   0  3  1  0  0  0  0  0  0  0  0  0
  146.1580  140.1219  155.3609 C   0  0  2  0  0  0  0  0  0  0  0  0
  145.3018  141.2853  155.9137 C   0  0  0  0  0  0  0  0  0  0  0  0
  145.8386  142.6855  155.5572 C   0  0  0  0  0  0  0  0  0  0  0  0
  146.3518  142.7705  154.1071 C   0  0  0  0  0  0  0  0  0  0  0  0
  147.1585  141.5318  153.6541 C   0  0  1  0  0  0  0  0  0  0  0  0
  148.5781  141.4094  154.2635 C   0  0  0  0  0  0  0  0  0  0  0  0
  148.6505  140.8655  155.7158 C   0  0  1  0  0  0  0  0  0  0  0  0
  148.7938  141.9226  156.7143 N   0  0  0  0  0  0  0  0  0  0  0  0
  149.2841  141.7843  157.9556 C   0  0  0  0  0  0  0  0  0  0  0  0
  149.6723  140.6915  158.3805 O   0  0  0  0  0  0  0  0  0  0  0  0
  149.2910  143.0129  158.5993 N   0  0  0  0  0  0  0  0  0  0  0  0
  150.3686  143.4312  159.1900 C   0  0  0  0  0  0  0  0  0  0  0  0
  151.6423  142.8884  159.3386 N   0  0  0  0  0  0  0  0  0  0  0  0
  152.4008  143.7710  160.0555 C   0  0  0  0  0  0  0  0  0  0  0  0
  151.6427  144.8236  160.3467 C   0  0  0  0  0  0  0  0  0  0  0  0
  150.3941  144.6438  159.8314 O   0  0  0  0  0  0  0  0  0  0  0  0
  147.5065  139.8905  156.0878 C   0  0  0  0  0  0  0  0  0  0  0  0
  147.8034  138.7880  153.4761 H   0  0  0  0  0  0  0  0  0  0  0  0
  146.8256  139.2981  152.0993 H   0  0  0  0  0  0  0  0  0  0  0  0
  146.1201  138.2767  153.3458 H   0  0  0  0  0  0  0  0  0  0  0  0
  145.5627  139.2179  155.4976 H   0  0  0  0  0  0  0  0  0  0  0  0
  144.2975  141.1937  155.4977 H   0  0  0  0  0  0  0  0  0  0  0  0
  145.1849  141.1931  156.9940 H   0  0  0  0  0  0  0  0  0  0  0  0
  145.0510  143.4245  155.7072 H   0  0  0  0  0  0  0  0  0  0  0  0
  146.6189  142.9804  156.2503 H   0  0  0  0  0  0  0  0  0  0  0  0
  145.4881  142.8721  153.4486 H   0  0  0  0  0  0  0  0  0  0  0  0
  146.9385  143.6793  153.9704 H   0  0  0  0  0  0  0  0  0  0  0  0
  147.2815  141.6304  152.5745 H   0  0  0  0  0  0  0  0  0  0  0  0
  149.1444  140.7226  153.6337 H   0  0  0  0  0  0  0  0  0  0  0  0
  149.1065  142.3590  154.1713 H   0  0  0  0  0  0  0  0  0  0  0  0
  149.5721  140.2844  155.7903 H   0  0  0  0  0  0  0  0  0  0  0  0
  148.4969  142.8472  156.4369 H   0  0  0  0  0  0  0  0  0  0  0  0
  151.9892  142.0027  158.9995 H   0  0  0  0  0  0  0  0  0  0  0  0
  153.4312  143.5444  160.2868 H   0  0  0  0  0  0  0  0  0  0  0  0
  151.8341  145.7383  160.8879 H   0  0  0  0  0  0  0  0  0  0  0  0
  147.3539  139.8679  157.1679 H   0  0  0  0  0  0  0  0  0  0  0  0
  147.8427  138.8834  155.8395 H   0  0  0  0  0  0  0  0  0  0  0  0
  145.4358  140.5116  153.5303 H   0  0  0  0  0  0  0  0  0  0  0  0
  1  2  1  0  0  0  0
  1 20  1  0  0  0  0
  1 21  1  0  0  0  0
  1 22  1  0  0  0  0
  2  7  1  0  0  0  0
  2  3  1  0  0  0  0
  2 40  1  0  0  0  0
  3 19  1  0  0  0  0
  3  4  1  0  0  0  0
  3 23  1  0  0  0  0
  4  5  1  0  0  0  0
  4 24  1  0  0  0  0
  4 25  1  0  0  0  0
  5  6  1  0  0  0  0
  5 26  1  0  0  0  0
  5 27  1  0  0  0  0
  6  7  1  0  0  0  0
  6 28  1  0  0  0  0
  6 29  1  0  0  0  0
  7  8  1  0  0  0  0
  7 30  1  0  0  0  0
  8  9  1  0  0  0  0
  8 31  1  0  0  0  0
  8 32  1  0  0  0  0
  9 10  1  0  0  0  0
  9 19  1  0  0  0  0
  9 33  1  0  0  0  0
 10 34  1  0  0  0  0
 10 11  1  0  0  0  0
 11 13  1  0  0  0  0
 11 12  2  0  0  0  0
 13 14  2  0  0  0  0
 14 18  1  0  0  0  0
 14 15  1  0  0  0  0
 15 35  1  0  0  0  0
 15 16  1  0  0  0  0
 16 36  1  0  0  0  0
 16 17  2  0  0  0  0
 17 37  1  0  0  0  0
 17 18  1  0  0  0  0
 19 38  1  0  0  0  0
 19 39  1  0  0  0  0
M  CHG  1   2   1
M  END
> <s_m_source_file>
AV-unprocessed.smi

> <i_m_source_file_index>
2226

> <i_lp_mmshare_version>
43012

> <i_f3d_flags>
0

> <s_epik_input>
W0NIMl0xW0NIMl1bQ0gyXVtDQEhdKE4oW0NIM10pW0NIXTEyKVtDSDJdW0NASF0oW0NIMl0yKVtOSF1DKD1PKVtOSF1jM25bY0hdW2NIXW8z

> <s_epik_cmdline>
J2VwaWtfcHl0aG9uJywgJy1waCcsICc3LjAnLCAnLXRuJywgJzgnLCAnLW1hJywgJzIwMCcsICctbWV0YWxfYmluZGluZycsICctaW1hZScsICc8aW5maWxlLm1hZT4nLCAnLW9tYWUnLCAnPG91dGZpbGUubWFlPic=

> <r_lp_tautomer_probability>
0.107061

> <r_epik_Ionization_Penalty>
1.08307

> <r_epik_Ionization_Penalty_Charging>
1.08272

> <r_epik_Ionization_Penalty_Neutral>
0.000345913

> <r_epik_State_Penalty>
2.5744

> <r_epik_Charging_Adjusted_Penalty>
3.65713

> <i_epik_Tot_Q>
1

> <i_epik_Tot_abs_Q>
1

> <r_epik_Metal_State_Penalty>
3.72133

> <b_epik_Metal_Only>
0

> <s_lp_Force_Field>
OPLS_2005

> <r_lp_Energy>
59.8055

> <b_lp_Chiralities_Consistent>
1

> <s_lp_Variant>
AV-unprocessed.smi:2226-15

> <Gold.Version>
5.8.1

> <Gold.Id.Protein>
6NUR|6NUR_protein|mol2

> <Gold.PLP.Fitness>
39.0079

> <Gold.PLP.PLP>
-31.2630

> <Gold.PLP.part.hbond>
-2.0000

> <Gold.PLP.part.metal>
0.0000

> <Gold.PLP.part.buried>
-6.3120

> <Gold.PLP.part.nonpolar>
-23.7836

> <Gold.PLP.part.repulsive>
0.6985

> <Gold.PLP.ligand.clash>
0.0000

> <Gold.PLP.ligand.torsion>
0.6536

> <Gold.PLP.Chemscore.Hbond>
3.0000

> <Gold.PLP.Chemscore.CHOScore>
0.0000

> <Gold.PLP.Chemscore.Metal>
0.0000

> <Gold.Chemscore.Hbonds>
donor molecule, donor type, donor heavy atom, donor atom, acceptor molecule, acceptor atom, score
      L1  H     2    40       P1 10175  1.95
      L1  H    10    34       P1  8028  0.94

> <Gold.PLP.Chemscore.Internal.Correction>
0.0520

> <Gold.Rescore>
     Score         DG    S(hbond)    S(metal)    S(lipo)     H(rot)  DE(clash)    DE(int)     intcor
     16.78     -17.43       1.97        0.00      67.88       1.00       0.07       0.59       ----

> <Gold.Chemscore.Fitness>
16.7756

> <Gold.Chemscore.DG>
-17.4336

> <Gold.Chemscore.ZeroCoef>
-5.4800

> <Gold.Chemscore.Hbond>
1.9677

> <Gold.Chemscore.Metal>
0.0000

> <Gold.Chemscore.Lipo>
67.8770

> <Gold.Chemscore.Internal_Hbond>
0.0000

> <Gold.Chemscore.DEClash>
0.0650

> <Gold.Chemscore.DEInternal>
0.5930

> <Gold.Chemscore.Rot>
1.0000

> <Gold.Chemscore.Internal.Correction>
   9.000000E+99

> <Gold.Chemscore.Hbonds>
donor molecule, donor type, donor heavy atom, donor atom, acceptor molecule, acceptor atom, score
      L1  H     2    40       P1 10175  0.89
      L1  H    10    34       P1  8028  0.76

> <Gold.Chemscore.Hbond.Weighted>
-6.5720

> <Gold.Chemscore.Metal.Weighted>
-0.0000

> <Gold.Chemscore.Lipo.Weighted>
-7.9416

> <Gold.Chemscore.Internal_Hbond.Weighted>
0.0000

> <Gold.Chemscore.DEClash.Weighted>
0.0650

> <Gold.Chemscore.DEInternal.Weighted>
0.5930

> <Gold.Chemscore.Rot.Weighted>
2.5600

> <Gold.Chemscore.Internal.Correction.Weighted>
   9.000000E+99

> <Gold.Protein.RotatedTorsions>
[ 6907 6896 6895 6894 ] final   37.82 input  -60.11 | X-H torsion
[ 7974 7965 7964 7962 ] final -128.93 input  175.53 | X-H torsion
[ 8008 7997 7996 7995 ] final   14.98 input   59.86 | X-H torsion
[ 10167 10162 10161 10158 ] final   67.81 input  -65.29 | X-H torsion
[ 10718 10713 10712 10709 ] final  -67.52 input   66.30 | X-H torsion
[ 10763 10752 10751 10750 ] final  -42.66 input  -60.55 | X-H torsion
[ 11005 11000 10999 10996 ] final  -43.65 input  -57.11 | X-H torsion

> <Gold.Protein.ActiveResidues>
 VAL166  LYS551  ARG553  GLY616  TRP617  ASP618  TYR619  PRO620  LYS621  CYS622 
 ASP623  PHE694  ASN695  SER759  ASP760  ASP761  ALA762  ILE779  LEU786  VAL792 
 PHE793  MET794  SER795  GLU796  ALA797  LYS798  CYS799  TRP800  GLU811  SER814 

> <Gold.Protein.RotatedAtoms>
  152.1483  134.9009  160.0549 H   0  0  0  0  0  0  0  0  0  0  0  0  # atno 6907 bound_to 6896
  152.0050  133.3835  159.4205 H   0  0  0  0  0  0  0  0  0  0  0  0  # atno 6908 bound_to 6896
  150.6872  134.3714  159.5037 H   0  0  0  0  0  0  0  0  0  0  0  0  # atno 6909 bound_to 6896
  144.9622  140.7459  143.4722 H   0  0  0  0  0  0  0  0  0  0  0  0  # atno 7974 bound_to 7965
  154.8562  140.2937  155.5567 H   0  0  0  0  0  0  0  0  0  0  0  0  # atno 8008 bound_to 7997
  156.3018  140.2487  156.3461 H   0  0  0  0  0  0  0  0  0  0  0  0  # atno 8009 bound_to 7997
  154.8968  140.0392  157.1859 H   0  0  0  0  0  0  0  0  0  0  0  0  # atno 8010 bound_to 7997
  140.0855  144.5034  150.7133 H   0  0  0  0  0  0  0  0  0  0  0  0  # atno 10167 bound_to 10162
  156.0553  130.4279  150.1867 H   0  0  0  0  0  0  0  0  0  0  0  0  # atno 10718 bound_to 10713
  153.9828  135.6715  153.4751 H   0  0  0  0  0  0  0  0  0  0  0  0  # atno 10763 bound_to 10752
  153.0740  135.4958  154.8363 H   0  0  0  0  0  0  0  0  0  0  0  0  # atno 10764 bound_to 10752
  154.7154  135.3106  154.9093 H   0  0  0  0  0  0  0  0  0  0  0  0  # atno 10765 bound_to 10752
  141.0398  133.6785  156.2762 H   0  0  0  0  0  0  0  0  0  0  0  0  # atno 11005 bound_to 11000
  145.2683  139.1965  143.4855 LP  0  0  0  0  0  0  0  0  0  0  0  0  # atno 17320 bound_to 7965
  146.3356  140.2625  142.8602 LP  0  0  0  0  0  0  0  0  0  0  0  0  # atno 17321 bound_to 7965
  140.7056  143.2465  151.4737 LP  0  0  0  0  0  0  0  0  0  0  0  0  # atno 17342 bound_to 10162
  139.5755  144.1830  152.1896 LP  0  0  0  0  0  0  0  0  0  0  0  0  # atno 17343 bound_to 10162
  156.9944  130.9903  151.3406 LP  0  0  0  0  0  0  0  0  0  0  0  0  # atno 17370 bound_to 10713
  157.5517  130.8187  149.8153 LP  0  0  0  0  0  0  0  0  0  0  0  0  # atno 17371 bound_to 10713
  140.6256  134.5317  157.5553 LP  0  0  0  0  0  0  0  0  0  0  0  0  # atno 17394 bound_to 11000
  139.9267  134.8042  156.1048 LP  0  0  0  0  0  0  0  0  0  0  0  0  # atno 17395 bound_to 11000

$$$$
