AV-unprocessed.smi:1703|AV-procd|sdf|6876|dock9
  -GOLD-   22720 8 83D 1   1.00000     0.00000
 Structure written by MMmdl.
 50 52  0  0  0  0  0  0  0  0  3 V2000
  143.5585  143.3466  154.9013 C   0  0  0  0  0  0  0  0  0  0  0  0
  144.7106  142.4550  155.3768 C   0  0  1  0  0  0  0  0  0  0  0  0
  146.0795  143.1514  155.2200 C   0  0  0  0  0  0  0  0  0  0  0  0
  147.1820  142.3335  155.7899 N   0  3  2  0  0  0  0  0  0  0  0  0
  147.6108  141.1854  154.9459 C   0  0  0  0  0  0  0  0  0  0  0  0
  149.1465  141.0214  154.8810 C   0  0  1  0  0  0  0  0  0  0  0  0
  149.5574  141.0178  153.5292 O   0  0  0  0  0  0  0  0  0  0  0  0
  149.9174  142.1485  155.5970 C   0  0  0  0  0  0  0  0  0  0  0  0
  150.8802  141.6439  156.5925 N   0  0  0  0  0  0  0  0  0  0  0  0
  151.6488  140.5156  156.5720 C   0  0  0  0  0  0  0  0  0  0  0  0
  151.6886  139.4698  155.5070 C   0  0  0  0  0  0  0  0  0  0  0  0
  152.9632  139.3643  154.9105 O   0  0  0  0  0  0  0  0  0  0  0  0
  152.3713  140.4967  157.7268 N   0  3  0  0  0  0  0  0  0  0  0  0
  152.0661  141.6201  158.4947 C   0  0  0  0  0  0  0  0  0  0  0  0
  152.5444  142.0279  159.7361 C   0  0  0  0  0  0  0  0  0  0  0  0
  152.0211  143.2312  160.2519 C   0  0  0  0  0  0  0  0  0  0  0  0
  151.0591  143.9764  159.5406 C   0  0  0  0  0  0  0  0  0  0  0  0
  150.5814  143.5527  158.2829 C   0  0  0  0  0  0  0  0  0  0  0  0
  151.1069  142.3632  157.7749 C   0  0  0  0  0  0  0  0  0  0  0  0
  146.8647  141.9510  157.1873 C   0  0  0  0  0  0  0  0  0  0  0  0
  145.4838  141.2689  157.2824 C   0  0  1  0  0  0  0  0  0  0  0  0
  145.1003  140.9431  158.7298 C   0  0  0  0  0  0  0  0  0  0  0  0
  144.4973  142.1471  156.7503 O   0  0  0  0  0  0  0  0  0  0  0  0
  143.6701  143.6012  153.8469 H   0  0  0  0  0  0  0  0  0  0  0  0
  143.5179  144.2771  155.4683 H   0  0  0  0  0  0  0  0  0  0  0  0
  142.5997  142.8418  155.0209 H   0  0  0  0  0  0  0  0  0  0  0  0
  144.6829  141.5330  154.7947 H   0  0  0  0  0  0  0  0  0  0  0  0
  146.2648  143.3982  154.1759 H   0  0  0  0  0  0  0  0  0  0  0  0
  146.0610  144.1029  155.7532 H   0  0  0  0  0  0  0  0  0  0  0  0
  147.1831  140.2599  155.3347 H   0  0  0  0  0  0  0  0  0  0  0  0
  147.1913  141.3064  153.9488 H   0  0  0  0  0  0  0  0  0  0  0  0
  149.4528  140.0745  155.3214 H   0  0  0  0  0  0  0  0  0  0  0  0
  149.3256  140.1894  153.1380 H   0  0  0  0  0  0  0  0  0  0  0  0
  150.4814  142.7355  154.8711 H   0  0  0  0  0  0  0  0  0  0  0  0
  149.2294  142.8469  156.0713 H   0  0  0  0  0  0  0  0  0  0  0  0
  151.4067  138.5032  155.9247 H   0  0  0  0  0  0  0  0  0  0  0  0
  150.9548  139.7114  154.7375 H   0  0  0  0  0  0  0  0  0  0  0  0
  153.1843  138.4479  154.8359 H   0  0  0  0  0  0  0  0  0  0  0  0
  153.2802  141.4575  160.2843 H   0  0  0  0  0  0  0  0  0  0  0  0
  152.3637  143.5888  161.2125 H   0  0  0  0  0  0  0  0  0  0  0  0
  150.6803  144.8937  159.9684 H   0  0  0  0  0  0  0  0  0  0  0  0
  149.8432  144.1375  157.7553 H   0  0  0  0  0  0  0  0  0  0  0  0
  147.6470  141.3093  157.5947 H   0  0  0  0  0  0  0  0  0  0  0  0
  146.8664  142.8561  157.7965 H   0  0  0  0  0  0  0  0  0  0  0  0
  145.4837  140.3390  156.7116 H   0  0  0  0  0  0  0  0  0  0  0  0
  145.8217  140.2635  159.1840 H   0  0  0  0  0  0  0  0  0  0  0  0
  144.1210  140.4660  158.7756 H   0  0  0  0  0  0  0  0  0  0  0  0
  145.0592  141.8452  159.3408 H   0  0  0  0  0  0  0  0  0  0  0  0
  147.9908  142.9357  155.8472 H   0  0  0  0  0  0  0  0  0  0  0  0
  153.0251  139.7636  157.9708 H   0  0  0  0  0  0  0  0  0  0  0  0
  1  2  1  0  0  0  0
  1 24  1  0  0  0  0
  1 25  1  0  0  0  0
  1 26  1  0  0  0  0
  2 23  1  0  0  0  0
  2  3  1  0  0  0  0
  2 27  1  0  0  0  0
  3  4  1  0  0  0  0
  3 28  1  0  0  0  0
  3 29  1  0  0  0  0
  4  5  1  0  0  0  0
  4 20  1  0  0  0  0
  4 49  1  0  0  0  0
  5  6  1  0  0  0  0
  5 30  1  0  0  0  0
  5 31  1  0  0  0  0
  6  7  1  0  0  0  0
  6  8  1  0  0  0  0
  6 32  1  0  0  0  0
  7 33  1  0  0  0  0
  8  9  1  0  0  0  0
  8 34  1  0  0  0  0
  8 35  1  0  0  0  0
  9 19  1  0  0  0  0
  9 10  1  0  0  0  0
 10 11  1  0  0  0  0
 10 13  2  0  0  0  0
 11 12  1  0  0  0  0
 11 36  1  0  0  0  0
 11 37  1  0  0  0  0
 12 38  1  0  0  0  0
 13 14  1  0  0  0  0
 13 50  1  0  0  0  0
 14 19  2  0  0  0  0
 14 15  1  0  0  0  0
 15 16  2  0  0  0  0
 15 39  1  0  0  0  0
 16 17  1  0  0  0  0
 16 40  1  0  0  0  0
 17 18  2  0  0  0  0
 17 41  1  0  0  0  0
 18 19  1  0  0  0  0
 18 42  1  0  0  0  0
 20 21  1  0  0  0  0
 20 43  1  0  0  0  0
 20 44  1  0  0  0  0
 21 22  1  0  0  0  0
 21 23  1  0  0  0  0
 21 45  1  0  0  0  0
 22 46  1  0  0  0  0
 22 47  1  0  0  0  0
 22 48  1  0  0  0  0
M  CHG  1   4   1
M  CHG  1  13   1
M  END
> <s_m_source_file>
AV-unprocessed.smi

> <i_m_source_file_index>
1703

> <i_lp_mmshare_version>
43012

> <i_f3d_flags>
0

> <s_epik_input>
W0NIM11bQ0BASF0xW0NIMl1OKFtDSDJdW0NASF0oTzEpW0NIM10pW0NIMl1bQ0BIXShbT0hdKVtDSDJdbihjKG4yKVtDSDJdW09IXSljKGMyMylbY0hdW2NIXVtjSF1bY0hdMw==

> <s_epik_cmdline>
J2VwaWtfcHl0aG9uJywgJy1waCcsICc3LjAnLCAnLXRuJywgJzgnLCAnLW1hJywgJzIwMCcsICctbWV0YWxfYmluZGluZycsICctaW1hZScsICc8aW5maWxlLm1hZT4nLCAnLW9tYWUnLCAnPG91dGZpbGUubWFlPic=

> <r_epik_Ionization_Penalty>
2.22579

> <r_epik_Ionization_Penalty_Charging>
2.22492

> <r_epik_Ionization_Penalty_Neutral>
0.000870007

> <r_epik_State_Penalty>
2.3141

> <r_epik_Charging_Adjusted_Penalty>
4.53902

> <i_epik_Tot_Q>
2

> <i_epik_Tot_abs_Q>
2

> <r_epik_Metal_State_Penalty>
6.36517

> <b_epik_Metal_Only>
0

> <s_lp_Force_Field>
OPLS_2005

> <r_lp_Energy>
31.3011

> <b_lp_Chiralities_Consistent>
1

> <s_lp_Variant>
AV-unprocessed.smi:1703-24

> <Gold.Version>
5.8.1

> <Gold.Id.Protein>
6NUR|6NUR_protein|mol2

> <Gold.PLP.Fitness>
47.0088

> <Gold.PLP.PLP>
-38.0468

> <Gold.PLP.part.hbond>
-5.9981

> <Gold.PLP.part.metal>
0.0000

> <Gold.PLP.part.buried>
-0.2336

> <Gold.PLP.part.nonpolar>
-31.3391

> <Gold.PLP.part.repulsive>
0.8580

> <Gold.PLP.ligand.clash>
0.0558

> <Gold.PLP.ligand.torsion>
2.3542

> <Gold.PLP.Chemscore.Hbond>
4.5530

> <Gold.PLP.Chemscore.CHOScore>
0.0000

> <Gold.PLP.Chemscore.Metal>
0.0000

> <Gold.Chemscore.Hbonds>
donor molecule, donor type, donor heavy atom, donor atom, acceptor molecule, acceptor atom, score
      L1  H     4    49       P1  8028  2.00
      L1  H     7    33       P1  7957  0.32
      P1  H  7989  7998       L1     7  0.27
      P1  H  7997  8010       L1    12  1.00
      P1  H  8011  8017       L1     7  1.00

> <Gold.PLP.Chemscore.Internal.Correction>
0.0673

> <Gold.Rescore>
     Score         DG    S(hbond)    S(metal)    S(lipo)     H(rot)  DE(clash)    DE(int)     intcor
     15.66     -19.12       3.11        0.00      94.32       3.04       1.25       2.21       ----

> <Gold.Chemscore.Fitness>
15.6575

> <Gold.Chemscore.DG>
-19.1248

> <Gold.Chemscore.ZeroCoef>
-5.4800

> <Gold.Chemscore.Hbond>
3.1097

> <Gold.Chemscore.Metal>
0.0000

> <Gold.Chemscore.Lipo>
94.3173

> <Gold.Chemscore.Internal_Hbond>
0.0000

> <Gold.Chemscore.DEClash>
1.2531

> <Gold.Chemscore.DEInternal>
2.2143

> <Gold.Chemscore.Rot>
3.0378

> <Gold.Chemscore.Internal.Correction>
   9.000000E+99

> <Gold.Chemscore.Hbonds>
donor molecule, donor type, donor heavy atom, donor atom, acceptor molecule, acceptor atom, score
      L1  H     4    49       P1  8028  0.65
      L1  H     7    33       P1  7957  0.31
      P1  H  7989  7998       L1     7  0.04
      P1  H  7997  8010       L1    12  0.47
      P1  H  8011  8017       L1     7  0.88

> <Gold.Chemscore.Hbond.Weighted>
-10.3864

> <Gold.Chemscore.Metal.Weighted>
-0.0000

> <Gold.Chemscore.Lipo.Weighted>
-11.0351

> <Gold.Chemscore.Internal_Hbond.Weighted>
0.0000

> <Gold.Chemscore.DEClash.Weighted>
1.2531

> <Gold.Chemscore.DEInternal.Weighted>
2.2143

> <Gold.Chemscore.Rot.Weighted>
7.7767

> <Gold.Chemscore.Internal.Correction.Weighted>
   9.000000E+99

> <Gold.Protein.RotatedTorsions>
[ 6907 6896 6895 6894 ] final  -39.08 input  -60.11 | X-H torsion
[ 7974 7965 7964 7962 ] final  -23.93 input  175.53 | X-H torsion
[ 8008 7997 7996 7995 ] final  108.52 input   59.86 | X-H torsion
[ 10167 10162 10161 10158 ] final  -69.91 input  -65.29 | X-H torsion
[ 10718 10713 10712 10709 ] final   96.76 input   66.30 | X-H torsion
[ 10763 10752 10751 10750 ] final  -82.82 input  -60.55 | X-H torsion
[ 11005 11000 10999 10996 ] final   -9.50 input  -57.11 | X-H torsion

> <Gold.Protein.ActiveResidues>
 VAL166  LYS551  ARG553  GLY616  TRP617  ASP618  TYR619  PRO620  LYS621  CYS622 
 ASP623  PHE694  ASN695  SER759  ASP760  ASP761  ALA762  ILE779  LEU786  VAL792 
 PHE793  MET794  SER795  GLU796  ALA797  LYS798  CYS799  TRP800  GLU811  SER814 

> <Gold.Protein.RotatedAtoms>
  150.9946  134.9273  159.7919 H   0  0  0  0  0  0  0  0  0  0  0  0  # atno 6907 bound_to 6896
  152.5261  134.3235  159.9167 H   0  0  0  0  0  0  0  0  0  0  0  0  # atno 6908 bound_to 6896
  151.3241  133.3986  159.2691 H   0  0  0  0  0  0  0  0  0  0  0  0  # atno 6909 bound_to 6896
  146.1586  140.4683  142.8581 H   0  0  0  0  0  0  0  0  0  0  0  0  # atno 7974 bound_to 7965
  156.1909  140.3075  155.9331 H   0  0  0  0  0  0  0  0  0  0  0  0  # atno 8008 bound_to 7997
  155.3174  140.0454  157.3055 H   0  0  0  0  0  0  0  0  0  0  0  0  # atno 8009 bound_to 7997
  154.5451  140.2274  155.8585 H   0  0  0  0  0  0  0  0  0  0  0  0  # atno 8010 bound_to 7997
  140.5394  143.2316  151.7117 H   0  0  0  0  0  0  0  0  0  0  0  0  # atno 10167 bound_to 10162
  157.6922  131.0588  150.4540 H   0  0  0  0  0  0  0  0  0  0  0  0  # atno 10718 bound_to 10713
  154.5804  135.5578  153.7179 H   0  0  0  0  0  0  0  0  0  0  0  0  # atno 10763 bound_to 10752
  153.0079  135.6318  154.1991 H   0  0  0  0  0  0  0  0  0  0  0  0  # atno 10764 bound_to 10752
  154.1931  135.2881  155.2995 H   0  0  0  0  0  0  0  0  0  0  0  0  # atno 10765 bound_to 10752
  140.7348  133.8719  155.8921 H   0  0  0  0  0  0  0  0  0  0  0  0  # atno 11005 bound_to 11000
  144.7996  140.6188  143.6487 LP  0  0  0  0  0  0  0  0  0  0  0  0  # atno 17320 bound_to 7965
  145.4646  139.1509  143.3847 LP  0  0  0  0  0  0  0  0  0  0  0  0  # atno 17321 bound_to 7965
  139.4983  144.3992  152.0199 LP  0  0  0  0  0  0  0  0  0  0  0  0  # atno 17342 bound_to 10162
  140.3100  144.3548  150.6036 LP  0  0  0  0  0  0  0  0  0  0  0  0  # atno 17343 bound_to 10162
  156.4889  130.4091  149.6418 LP  0  0  0  0  0  0  0  0  0  0  0  0  # atno 17370 bound_to 10713
  156.3436  130.7395  151.2344 LP  0  0  0  0  0  0  0  0  0  0  0  0  # atno 17371 bound_to 10713
  140.9889  134.1305  157.4426 LP  0  0  0  0  0  0  0  0  0  0  0  0  # atno 17394 bound_to 11000
  139.8818  135.0034  156.6185 LP  0  0  0  0  0  0  0  0  0  0  0  0  # atno 17395 bound_to 11000

$$$$
