AV-unprocessed.smi:1362|AV-procd|sdf|5560|dock9
  -GOLD-   22720 5153D 1   1.00000     0.00000
 Structure written by MMmdl.
 39 39  0  0  0  0  0  0  0  0  1 V2000
  153.3708  142.6083  162.8060 C   0  0  0  0  0  0  0  0  0  0  0  0
  153.0108  142.5968  161.3364 C   0  0  0  0  0  0  0  0  0  0  0  0
  152.3993  143.7623  160.9056 N   0  0  0  0  0  0  0  0  0  0  0  0
  152.0323  143.8479  159.5743 C   0  0  0  0  0  0  0  0  0  0  0  0
  151.3687  145.1583  159.1883 C   0  0  0  0  0  0  0  0  0  0  0  0
  152.2629  142.8226  158.7152 C   0  0  0  0  0  0  0  0  0  0  0  0
  151.8693  142.8718  157.2400 C   0  0  0  0  0  0  0  0  0  0  0  0
  150.8903  141.7861  156.7939 C   0  0  0  0  0  0  0  0  0  0  0  0
  151.2049  140.5991  156.8738 O   0  0  0  0  0  0  0  0  0  0  0  0
  149.7087  142.2128  156.3218 N   0  0  0  0  0  0  0  0  0  0  0  0
  148.6298  141.3642  155.8196 C   0  0  2  0  0  0  0  0  0  0  0  0
  148.3577  140.2557  156.8536 C   0  0  0  0  0  0  0  0  0  0  0  0
  148.9919  140.8190  154.4128 C   0  0  0  0  0  0  0  0  0  0  0  0
  147.7526  140.3158  153.6470 C   0  0  0  0  0  0  0  0  0  0  0  0
  150.0472  139.6998  154.4704 C   0  0  0  0  0  0  0  0  0  0  0  0
  152.9152  141.5979  159.2365 C   0  0  0  0  0  0  0  0  0  0  0  0
  153.1364  140.6285  158.5117 O   0  0  0  0  0  0  0  0  0  0  0  0
  153.2713  141.5637  160.5944 N   0  0  0  0  0  0  0  0  0  0  0  0
  152.2087  144.5483  161.5105 H   0  0  0  0  0  0  0  0  0  0  0  0
  153.9033  141.6980  163.0849 H   0  0  0  0  0  0  0  0  0  0  0  0
  152.4697  142.6771  163.4160 H   0  0  0  0  0  0  0  0  0  0  0  0
  154.0109  143.4609  163.0347 H   0  0  0  0  0  0  0  0  0  0  0  0
  151.9561  145.6744  158.4287 H   0  0  0  0  0  0  0  0  0  0  0  0
  151.2706  145.8268  160.0446 H   0  0  0  0  0  0  0  0  0  0  0  0
  150.3701  144.9780  158.7905 H   0  0  0  0  0  0  0  0  0  0  0  0
  152.7550  142.8323  156.6044 H   0  0  0  0  0  0  0  0  0  0  0  0
  151.4234  143.8431  157.0251 H   0  0  0  0  0  0  0  0  0  0  0  0
  149.5451  143.2092  156.3008 H   0  0  0  0  0  0  0  0  0  0  0  0
  147.7239  141.9651  155.7203 H   0  0  0  0  0  0  0  0  0  0  0  0
  147.4807  139.6648  156.5921 H   0  0  0  0  0  0  0  0  0  0  0  0
  148.1689  140.6779  157.8413 H   0  0  0  0  0  0  0  0  0  0  0  0
  149.2072  139.5774  156.9411 H   0  0  0  0  0  0  0  0  0  0  0  0
  149.4188  141.6384  153.8323 H   0  0  0  0  0  0  0  0  0  0  0  0
  147.2481  139.5191  154.1947 H   0  0  0  0  0  0  0  0  0  0  0  0
  148.0283  139.9214  152.6686 H   0  0  0  0  0  0  0  0  0  0  0  0
  147.0282  141.1119  153.4745 H   0  0  0  0  0  0  0  0  0  0  0  0
  149.7142  138.8729  155.0983 H   0  0  0  0  0  0  0  0  0  0  0  0
  150.9981  140.0587  154.8625 H   0  0  0  0  0  0  0  0  0  0  0  0
  150.2486  139.2994  153.4764 H   0  0  0  0  0  0  0  0  0  0  0  0
  1 20  1  0  0  0  0
  1 21  1  0  0  0  0
  1 22  1  0  0  0  0
  1  2  1  0  0  0  0
  2  3  1  0  0  0  0
  2 18  2  0  0  0  0
  3  4  1  0  0  0  0
  3 19  1  0  0  0  0
  4  6  2  0  0  0  0
  4  5  1  0  0  0  0
  5 23  1  0  0  0  0
  5 24  1  0  0  0  0
  5 25  1  0  0  0  0
  6 16  1  0  0  0  0
  6  7  1  0  0  0  0
  7  8  1  0  0  0  0
  7 26  1  0  0  0  0
  7 27  1  0  0  0  0
  8  9  2  0  0  0  0
  8 10  1  0  0  0  0
 10 11  1  0  0  0  0
 10 28  1  0  0  0  0
 11 12  1  0  0  0  0
 11 13  1  0  0  0  0
 11 29  1  0  0  0  0
 12 30  1  0  0  0  0
 12 31  1  0  0  0  0
 12 32  1  0  0  0  0
 13 14  1  0  0  0  0
 13 15  1  0  0  0  0
 13 33  1  0  0  0  0
 14 34  1  0  0  0  0
 14 35  1  0  0  0  0
 14 36  1  0  0  0  0
 15 37  1  0  0  0  0
 15 38  1  0  0  0  0
 15 39  1  0  0  0  0
 16 17  2  0  0  0  0
 16 18  1  0  0  0  0
M  END
> <s_m_source_file>
AV-unprocessed.smi

> <i_m_source_file_index>
1362

> <i_lp_mmshare_version>
43012

> <i_f3d_flags>
0

> <s_epik_input>
W0NIM11jMW5jKFtDSDNdKWMoYyg9TylbbkhdMSlbQ0gyXUMoPU8pW05IXVtDQEhdKFtDSDNdKVtDSF0oW0NIM10pW0NIM10=

> <s_epik_cmdline>
J2VwaWtfcHl0aG9uJywgJy1waCcsICc3LjAnLCAnLXRuJywgJzgnLCAnLW1hJywgJzIwMCcsICctbWV0YWxfYmluZGluZycsICctaW1hZScsICc8aW5maWxlLm1hZT4nLCAnLW9tYWUnLCAnPG91dGZpbGUubWFlPic=

> <r_lp_tautomer_probability>
0.156392

> <r_epik_Ionization_Penalty>
0.0140737

> <r_epik_Ionization_Penalty_Charging>
0.0139511

> <r_epik_Ionization_Penalty_Neutral>
0.000122633

> <r_epik_State_Penalty>
1.53034

> <r_epik_Charging_Adjusted_Penalty>
1.54429

> <i_epik_Tot_Q>
0

> <i_epik_Tot_abs_Q>
0

> <r_epik_Metal_State_Penalty>
1.70655

> <b_epik_Metal_Only>
0

> <s_lp_Force_Field>
OPLS_2005

> <r_lp_Energy>
10.2097

> <b_lp_Chiralities_Consistent>
1

> <s_lp_Variant>
AV-unprocessed.smi:1362-3

> <Gold.Version>
5.8.1

> <Gold.Id.Protein>
6NUR|6NUR_protein|mol2

> <Gold.PLP.Fitness>
41.6193

> <Gold.PLP.PLP>
-37.8309

> <Gold.PLP.part.hbond>
-2.0000

> <Gold.PLP.part.metal>
0.0000

> <Gold.PLP.part.buried>
-3.8200

> <Gold.PLP.part.nonpolar>
-31.3918

> <Gold.PLP.part.repulsive>
0.1319

> <Gold.PLP.ligand.clash>
0.0000

> <Gold.PLP.ligand.torsion>
0.3892

> <Gold.PLP.Chemscore.Hbond>
1.5132

> <Gold.PLP.Chemscore.CHOScore>
0.0000

> <Gold.PLP.Chemscore.Metal>
0.0000

> <Gold.Chemscore.Hbonds>
donor molecule, donor type, donor heavy atom, donor atom, acceptor molecule, acceptor atom, score
      L1  H    10    28       P1  8028  1.00
      P1  H  7997  8009       L1    17  0.54

> <Gold.PLP.Chemscore.Internal.Correction>
0.0271

> <Gold.Rescore>
     Score         DG    S(hbond)    S(metal)    S(lipo)     H(rot)  DE(clash)    DE(int)     intcor
     11.09     -17.42       1.86        0.00      85.83       1.69       1.65       4.68       ----

> <Gold.Chemscore.Fitness>
11.0923

> <Gold.Chemscore.DG>
-17.4210

> <Gold.Chemscore.ZeroCoef>
-5.4800

> <Gold.Chemscore.Hbond>
1.8649

> <Gold.Chemscore.Metal>
0.0000

> <Gold.Chemscore.Lipo>
85.8345

> <Gold.Chemscore.Internal_Hbond>
0.0000

> <Gold.Chemscore.DEClash>
1.6474

> <Gold.Chemscore.DEInternal>
4.6812

> <Gold.Chemscore.Rot>
1.6916

> <Gold.Chemscore.Internal.Correction>
   9.000000E+99

> <Gold.Chemscore.Hbonds>
donor molecule, donor type, donor heavy atom, donor atom, acceptor molecule, acceptor atom, score
      L1  H    10    28       P1  8028  0.99
      P1  H  7997  8009       L1    17  0.52

> <Gold.Chemscore.Hbond.Weighted>
-6.2289

> <Gold.Chemscore.Metal.Weighted>
-0.0000

> <Gold.Chemscore.Lipo.Weighted>
-10.0426

> <Gold.Chemscore.Internal_Hbond.Weighted>
0.0000

> <Gold.Chemscore.DEClash.Weighted>
1.6474

> <Gold.Chemscore.DEInternal.Weighted>
4.6812

> <Gold.Chemscore.Rot.Weighted>
4.3305

> <Gold.Chemscore.Internal.Correction.Weighted>
   9.000000E+99

> <Gold.Protein.RotatedTorsions>
[ 6907 6896 6895 6894 ] final  107.99 input  -60.11 | X-H torsion
[ 7974 7965 7964 7962 ] final  -19.01 input  175.53 | X-H torsion
[ 8008 7997 7996 7995 ] final  152.78 input   59.86 | X-H torsion
[ 10167 10162 10161 10158 ] final -147.58 input  -65.29 | X-H torsion
[ 10718 10713 10712 10709 ] final   -3.53 input   66.30 | X-H torsion
[ 10763 10752 10751 10750 ] final -102.55 input  -60.55 | X-H torsion
[ 11005 11000 10999 10996 ] final  130.01 input  -57.11 | X-H torsion

> <Gold.Protein.ActiveResidues>
 VAL166  LYS551  ARG553  GLY616  TRP617  ASP618  TYR619  PRO620  LYS621  CYS622 
 ASP623  PHE694  ASN695  SER759  ASP760  ASP761  ALA762  ILE779  LEU786  VAL792 
 PHE793  MET794  SER795  GLU796  ALA797  LYS798  CYS799  TRP800  GLU811  SER814 

> <Gold.Protein.RotatedAtoms>
  152.5131  133.9153  159.7507 H   0  0  0  0  0  0  0  0  0  0  0  0  # atno 6907 bound_to 6896
  150.9537  133.6512  159.2774 H   0  0  0  0  0  0  0  0  0  0  0  0  # atno 6908 bound_to 6896
  151.3781  135.0940  159.9540 H   0  0  0  0  0  0  0  0  0  0  0  0  # atno 6909 bound_to 6896
  146.1863  140.4002  142.8475 H   0  0  0  0  0  0  0  0  0  0  0  0  # atno 7974 bound_to 7965
  156.2613  140.2011  156.6388 H   0  0  0  0  0  0  0  0  0  0  0  0  # atno 8008 bound_to 7997
  154.6626  140.0559  157.0103 H   0  0  0  0  0  0  0  0  0  0  0  0  # atno 8009 bound_to 7997
  155.1254  140.3228  155.4490 H   0  0  0  0  0  0  0  0  0  0  0  0  # atno 8010 bound_to 7997
  139.7609  143.8378  152.2607 H   0  0  0  0  0  0  0  0  0  0  0  0  # atno 10167 bound_to 10162
  156.7746  130.5311  149.5761 H   0  0  0  0  0  0  0  0  0  0  0  0  # atno 10718 bound_to 10713
  154.7742  135.4856  153.9710 H   0  0  0  0  0  0  0  0  0  0  0  0  # atno 10763 bound_to 10752
  153.1407  135.6772  153.9039 H   0  0  0  0  0  0  0  0  0  0  0  0  # atno 10764 bound_to 10752
  153.8715  135.3143  155.3420 H   0  0  0  0  0  0  0  0  0  0  0  0  # atno 10765 bound_to 10752
  139.9648  134.9593  156.9232 H   0  0  0  0  0  0  0  0  0  0  0  0  # atno 11005 bound_to 11000
  144.8404  140.6847  143.6233 LP  0  0  0  0  0  0  0  0  0  0  0  0  # atno 17320 bound_to 7965
  145.3928  139.1613  143.4220 LP  0  0  0  0  0  0  0  0  0  0  0  0  # atno 17321 bound_to 7965
  139.8384  144.7221  150.9362 LP  0  0  0  0  0  0  0  0  0  0  0  0  # atno 17342 bound_to 10162
  140.7807  143.4006  151.1156 LP  0  0  0  0  0  0  0  0  0  0  0  0  # atno 17343 bound_to 10162
  156.1256  130.6141  151.0258 LP  0  0  0  0  0  0  0  0  0  0  0  0  # atno 17370 bound_to 10713
  157.6675  131.0868  150.7693 LP  0  0  0  0  0  0  0  0  0  0  0  0  # atno 17371 bound_to 10713
  140.5421  134.0709  155.7344 LP  0  0  0  0  0  0  0  0  0  0  0  0  # atno 17394 bound_to 11000
  141.1327  133.9275  157.2501 LP  0  0  0  0  0  0  0  0  0  0  0  0  # atno 17395 bound_to 11000

$$$$
