AV-unprocessed.smi:103|AV-procd|sdf|991|dock7
  -GOLD-   2262017573D 1   1.00000     0.00000
 Structure written by MMmdl.
 53 55  0  0  0  0  0  0  0  0  1 V2000
  151.3828  144.1288  157.6532 C   0  0  0  0  0  0  0  0  0  0  0  0
  150.7731  142.7788  158.0059 C   0  0  0  0  0  0  0  0  0  0  0  0
  150.2539  142.5754  159.1038 O   0  0  0  0  0  0  0  0  0  0  0  0
  150.8739  141.8940  157.0017 O   0  0  0  0  0  0  0  0  0  0  0  0
  150.5655  140.5282  157.2302 C   0  0  0  0  0  0  0  0  0  0  0  0
  151.1590  139.6766  156.0945 C   0  0  2  0  0  0  0  0  0  0  0  0
  150.2561  139.7358  154.9869 O   0  0  0  0  0  0  0  0  0  0  0  0
  149.7391  138.4724  154.6995 C   0  0  2  0  0  0  0  0  0  0  0  0
  148.2947  138.5927  154.3113 N   0  0  0  0  0  0  0  0  0  0  0  0
  147.5460  139.7332  154.1021 C   0  0  0  0  0  0  0  0  0  0  0  0
  148.0962  141.4192  154.3305 S   0  0  0  0  0  0  0  0  0  0  0  0
  146.6345  142.3688  153.7469 C   0  0  0  0  0  0  0  0  0  0  0  0
  148.2647  141.6337  155.7757 O   0  0  0  0  0  0  0  0  0  0  0  0
  149.2208  141.6327  153.4063 O   0  0  0  0  0  0  0  0  0  0  0  0
  146.2841  139.5641  153.8155 N   0  0  0  0  0  0  0  0  0  0  0  0
  146.1615  138.1841  153.7450 C   0  0  0  0  0  0  0  0  0  0  0  0
  145.0897  137.3060  153.4449 C   0  0  0  0  0  0  0  0  0  0  0  0
  143.8563  137.7345  153.1428 N   0  0  0  0  0  0  0  0  0  0  0  0
  145.3213  135.9727  153.4609 N   0  0  0  0  0  0  0  0  0  0  0  0
  146.5429  135.5205  153.7594 C   0  0  0  0  0  0  0  0  0  0  0  0
  147.6387  136.2191  154.0653 N   0  0  0  0  0  0  0  0  0  0  0  0
  147.4080  137.5645  154.0482 C   0  0  0  0  0  0  0  0  0  0  0  0
  149.9623  137.6011  155.9420 C   0  0  2  0  0  0  0  0  0  0  0  0
  148.9244  137.7814  156.9053 O   0  0  0  0  0  0  0  0  0  0  0  0
  148.8260  136.9710  157.9739 C   0  0  0  0  0  0  0  0  0  0  0  0
  147.4549  137.0496  158.6306 C   0  0  0  0  0  0  0  0  0  0  0  0
  149.7019  136.2174  158.3979 O   0  0  0  0  0  0  0  0  0  0  0  0
  151.2801  138.1775  156.4226 C   0  0  2  0  0  0  0  0  0  0  0  0
  151.5270  137.8642  157.7892 O   0  0  0  0  0  0  0  0  0  0  0  0
  152.4859  138.5143  158.4693 C   0  0  0  0  0  0  0  0  0  0  0  0
  152.5680  138.0703  159.9235 C   0  0  0  0  0  0  0  0  0  0  0  0
  153.2324  139.3827  158.0178 O   0  0  0  0  0  0  0  0  0  0  0  0
  151.0441  144.4536  156.6691 H   0  0  0  0  0  0  0  0  0  0  0  0
  152.4707  144.0604  157.6410 H   0  0  0  0  0  0  0  0  0  0  0  0
  151.0908  144.8832  158.3844 H   0  0  0  0  0  0  0  0  0  0  0  0
  150.9947  140.2392  158.1899 H   0  0  0  0  0  0  0  0  0  0  0  0
  149.4889  140.3718  157.2982 H   0  0  0  0  0  0  0  0  0  0  0  0
  152.1334  140.0736  155.8079 H   0  0  0  0  0  0  0  0  0  0  0  0
  150.2499  138.0922  153.8154 H   0  0  0  0  0  0  0  0  0  0  0  0
  146.8372  143.4359  153.8329 H   0  0  0  0  0  0  0  0  0  0  0  0
  145.7663  142.1129  154.3537 H   0  0  0  0  0  0  0  0  0  0  0  0
  146.4336  142.1203  152.7048 H   0  0  0  0  0  0  0  0  0  0  0  0
  143.6591  138.7248  153.1222 H   0  0  0  0  0  0  0  0  0  0  0  0
  143.1280  137.0672  152.9338 H   0  0  0  0  0  0  0  0  0  0  0  0
  146.6601  134.4467  153.7538 H   0  0  0  0  0  0  0  0  0  0  0  0
  150.0731  136.5546  155.6573 H   0  0  0  0  0  0  0  0  0  0  0  0
  146.6727  136.8637  157.8939 H   0  0  0  0  0  0  0  0  0  0  0  0
  147.2983  138.0384  159.0622 H   0  0  0  0  0  0  0  0  0  0  0  0
  147.3664  136.3066  159.4236 H   0  0  0  0  0  0  0  0  0  0  0  0
  152.0649  137.7485  155.7966 H   0  0  0  0  0  0  0  0  0  0  0  0
  152.5761  136.9821  159.9902 H   0  0  0  0  0  0  0  0  0  0  0  0
  151.7101  138.4463  160.4811 H   0  0  0  0  0  0  0  0  0  0  0  0
  153.4775  138.4507  160.3890 H   0  0  0  0  0  0  0  0  0  0  0  0
  1  2  1  0  0  0  0
  1 33  1  0  0  0  0
  1 34  1  0  0  0  0
  1 35  1  0  0  0  0
  2  3  2  0  0  0  0
  2  4  1  0  0  0  0
  4  5  1  0  0  0  0
  5  6  1  0  0  0  0
  5 36  1  0  0  0  0
  5 37  1  0  0  0  0
  6 28  1  0  0  0  0
  6  7  1  0  0  0  0
  6 38  1  0  0  0  0
  7  8  1  0  0  0  0
  8  9  1  0  0  0  0
  8 23  1  0  0  0  0
  8 39  1  0  0  0  0
  9 22  1  0  0  0  0
  9 10  1  0  0  0  0
 10 11  1  0  0  0  0
 10 15  2  0  0  0  0
 11 12  1  0  0  0  0
 11 13  2  0  0  0  0
 11 14  2  0  0  0  0
 12 40  1  0  0  0  0
 12 41  1  0  0  0  0
 12 42  1  0  0  0  0
 15 16  1  0  0  0  0
 16 22  2  0  0  0  0
 16 17  1  0  0  0  0
 17 18  1  0  0  0  0
 17 19  2  0  0  0  0
 18 43  1  0  0  0  0
 18 44  1  0  0  0  0
 19 20  1  0  0  0  0
 20 21  2  0  0  0  0
 20 45  1  0  0  0  0
 21 22  1  0  0  0  0
 23 24  1  0  0  0  0
 23 28  1  0  0  0  0
 23 46  1  0  0  0  0
 24 25  1  0  0  0  0
 25 26  1  0  0  0  0
 25 27  2  0  0  0  0
 26 47  1  0  0  0  0
 26 48  1  0  0  0  0
 26 49  1  0  0  0  0
 28 29  1  0  0  0  0
 28 50  1  0  0  0  0
 29 30  1  0  0  0  0
 30 31  1  0  0  0  0
 30 32  2  0  0  0  0
 31 51  1  0  0  0  0
 31 52  1  0  0  0  0
 31 53  1  0  0  0  0
M  END
> <s_m_source_file>
AV-unprocessed.smi

> <i_m_source_file_index>
103

> <i_lp_mmshare_version>
43012

> <i_f3d_flags>
0

> <s_epik_input>
W0NIM11DKD1PKU9bQ0gyXVtDQEBIXTFPW0NASF0oW0NAQEhdKE9DKD1PKVtDSDNdKVtDQEhdMU9DKD1PKVtDSDNdKW4oYyhuMilTKD1PKSg9TylbQ0gzXSljKGMyMyluW2NIXW5jM1tOSDJd

> <s_epik_cmdline>
J2VwaWtfcHl0aG9uJywgJy1waCcsICc3LjAnLCAnLXRuJywgJzgnLCAnLW1hJywgJzIwMCcsICctbWV0YWxfYmluZGluZycsICctaW1hZScsICc8aW5maWxlLm1hZT4nLCAnLW9tYWUnLCAnPG91dGZpbGUubWFlPic=

> <r_lp_tautomer_probability>
1

> <r_epik_Ionization_Penalty>
1.51338e-05

> <r_epik_Ionization_Penalty_Charging>
0

> <r_epik_Ionization_Penalty_Neutral>
1.51338e-05

> <r_epik_State_Penalty>
-0

> <r_epik_Charging_Adjusted_Penalty>
0

> <i_epik_Tot_Q>
0

> <i_epik_Tot_abs_Q>
0

> <r_epik_Metal_State_Penalty>
-0

> <b_epik_Metal_Only>
0

> <s_epik_Chemistry_Notes>
This compound has an ester and may undergo hydrolysis at high or low pH. This compound contains an acetal/aminal-like group ( X-CH(R)-Y where X, Y are N, S, or O) that may be acid/base labile, releasing an aldehyde.

> <s_lp_Force_Field>
OPLS_2005

> <r_lp_Energy>
16.3317

> <b_lp_Chiralities_Consistent>
1

> <s_lp_Variant>
AV-unprocessed.smi:103-15

> <Gold.Version>
5.8.1

> <Gold.Id.Protein>
6NUR|6NUR_protein|mol2

> <Gold.PLP.Fitness>
42.3064

> <Gold.PLP.PLP>
-32.7965

> <Gold.PLP.part.hbond>
-5.2641

> <Gold.PLP.part.metal>
0.0000

> <Gold.PLP.part.buried>
-6.2143

> <Gold.PLP.part.nonpolar>
-23.6731

> <Gold.PLP.part.repulsive>
3.8424

> <Gold.PLP.ligand.clash>
0.0000

> <Gold.PLP.ligand.torsion>
2.0810

> <Gold.PLP.Chemscore.Hbond>
3.7448

> <Gold.PLP.Chemscore.CHOScore>
0.0000

> <Gold.PLP.Chemscore.Metal>
0.0000

> <Gold.Chemscore.Hbonds>
donor molecule, donor type, donor heavy atom, donor atom, acceptor molecule, acceptor atom, score
      L1  H    18    43       P1 10175  1.00
      P1  H  6896  6907       L1    27  0.57
      P1  H  7989  7998       L1     7  0.25
      P1  H  7997  8009       L1    32  1.00
      P1  H  8011  8017       L1    14  0.65

> <Gold.PLP.Chemscore.Internal.Correction>
2.4374

> <Gold.Rescore>
     Score         DG    S(hbond)    S(metal)    S(lipo)     H(rot)  DE(clash)    DE(int)     intcor
     -1.31     -11.95       3.61        0.00      45.29       4.25       0.29      12.97       ----

> <Gold.Chemscore.Fitness>
-1.3099

> <Gold.Chemscore.DG>
-11.9514

> <Gold.Chemscore.ZeroCoef>
-5.4800

> <Gold.Chemscore.Hbond>
3.6053

> <Gold.Chemscore.Metal>
0.0000

> <Gold.Chemscore.Lipo>
45.2855

> <Gold.Chemscore.Internal_Hbond>
0.0000

> <Gold.Chemscore.DEClash>
0.2931

> <Gold.Chemscore.DEInternal>
12.9682

> <Gold.Chemscore.Rot>
4.2456

> <Gold.Chemscore.Internal.Correction>
   9.000000E+99

> <Gold.Chemscore.Hbonds>
donor molecule, donor type, donor heavy atom, donor atom, acceptor molecule, acceptor atom, score
      L1  H    18    43       P1 10175  0.99
      P1  H  6896  6907       L1    27  0.55
      P1  H  7989  7998       L1     7  0.05
      P1  H  7997  8009       L1    32  1.00
      P1  H  8011  8017       L1    14  0.64

> <Gold.Chemscore.Hbond.Weighted>
-12.0417

> <Gold.Chemscore.Metal.Weighted>
-0.0000

> <Gold.Chemscore.Lipo.Weighted>
-5.2984

> <Gold.Chemscore.Internal_Hbond.Weighted>
0.0000

> <Gold.Chemscore.DEClash.Weighted>
0.2931

> <Gold.Chemscore.DEInternal.Weighted>
12.9682

> <Gold.Chemscore.Rot.Weighted>
10.8687

> <Gold.Chemscore.Internal.Correction.Weighted>
   9.000000E+99

> <Gold.Protein.RotatedTorsions>
[ 6907 6896 6895 6894 ] final  -44.66 input  -60.11 | X-H torsion
[ 7974 7965 7964 7962 ] final  131.71 input  175.53 | X-H torsion
[ 8008 7997 7996 7995 ] final  154.91 input   59.86 | X-H torsion
[ 10167 10162 10161 10158 ] final   71.82 input  -65.29 | X-H torsion
[ 10718 10713 10712 10709 ] final   79.91 input   66.30 | X-H torsion
[ 10763 10752 10751 10750 ] final -160.51 input  -60.55 | X-H torsion
[ 11005 11000 10999 10996 ] final  141.41 input  -57.11 | X-H torsion

> <Gold.Protein.ActiveResidues>
 VAL166  LYS551  ARG553  GLY616  TRP617  ASP618  TYR619  PRO620  LYS621  CYS622 
 ASP623  PHE694  ASN695  SER759  ASP760  ASP761  ALA762  ILE779  LEU786  VAL792 
 PHE793  MET794  SER795  GLU796  ALA797  LYS798  CYS799  TRP800  GLU811  SER814 

> <Gold.Protein.RotatedAtoms>
  150.9304  134.8719  159.7547 H   0  0  0  0  0  0  0  0  0  0  0  0  # atno 6907 bound_to 6896
  152.5035  134.4088  159.9451 H   0  0  0  0  0  0  0  0  0  0  0  0  # atno 6908 bound_to 6896
  151.4115  133.3686  159.2779 H   0  0  0  0  0  0  0  0  0  0  0  0  # atno 6909 bound_to 6896
  145.0045  139.4280  143.5276 H   0  0  0  0  0  0  0  0  0  0  0  0  # atno 7974 bound_to 7965
  156.2506  140.1954  156.6719 H   0  0  0  0  0  0  0  0  0  0  0  0  # atno 8008 bound_to 7997
  154.6386  140.0586  156.9844 H   0  0  0  0  0  0  0  0  0  0  0  0  # atno 8009 bound_to 7997
  155.1598  140.3259  155.4416 H   0  0  0  0  0  0  0  0  0  0  0  0  # atno 8010 bound_to 7997
  140.0420  144.5382  150.7427 H   0  0  0  0  0  0  0  0  0  0  0  0  # atno 10167 bound_to 10162
  157.6791  130.9935  150.2001 H   0  0  0  0  0  0  0  0  0  0  0  0  # atno 10718 bound_to 10713
  154.7384  135.3063  154.8771 H   0  0  0  0  0  0  0  0  0  0  0  0  # atno 10763 bound_to 10752
  153.9593  135.6755  153.4749 H   0  0  0  0  0  0  0  0  0  0  0  0  # atno 10764 bound_to 10752
  153.0985  135.4924  154.8747 H   0  0  0  0  0  0  0  0  0  0  0  0  # atno 10765 bound_to 10752
  140.0399  134.9310  157.0823 H   0  0  0  0  0  0  0  0  0  0  0  0  # atno 11005 bound_to 11000
  146.3458  139.9453  142.8736 LP  0  0  0  0  0  0  0  0  0  0  0  0  # atno 17320 bound_to 7965
  145.2108  140.9894  143.4102 LP  0  0  0  0  0  0  0  0  0  0  0  0  # atno 17321 bound_to 7965
  140.7256  143.2633  151.4132 LP  0  0  0  0  0  0  0  0  0  0  0  0  # atno 17342 bound_to 10162
  139.6008  144.1300  152.2195 LP  0  0  0  0  0  0  0  0  0  0  0  0  # atno 17343 bound_to 10162
  156.2694  130.3720  149.8047 LP  0  0  0  0  0  0  0  0  0  0  0  0  # atno 17370 bound_to 10713
  156.5769  130.8449  151.3372 LP  0  0  0  0  0  0  0  0  0  0  0  0  # atno 17371 bound_to 10713
  140.4086  134.2005  155.7163 LP  0  0  0  0  0  0  0  0  0  0  0  0  # atno 17394 bound_to 11000
  141.1877  133.8275  157.1021 LP  0  0  0  0  0  0  0  0  0  0  0  0  # atno 17395 bound_to 11000

$$$$
