AV-unprocessed.smi:2538|AV-procd|sdf|9982|dock3
  -GOLD-   2272014 33D 1   1.00000     0.00000
 Structure written by MMmdl.
 48 49  0  0  0  0  0  0  0  0  1 V2000
  153.3130  142.5893  161.5614 C   0  0  0  0  0  0  0  0  0  0  0  0
  152.6677  142.2676  160.2247 C   0  0  0  0  0  0  0  0  0  0  0  0
  153.0879  141.1182  159.5182 C   0  0  0  0  0  0  0  0  0  0  0  0
  152.5129  140.7826  158.2731 C   0  0  0  0  0  0  0  0  0  0  0  0
  152.7658  139.7183  157.4246 N   0  0  0  0  0  0  0  0  0  0  0  0
  151.9153  139.9599  156.4314 C   0  0  0  0  0  0  0  0  0  0  0  0
  151.1390  141.0554  156.5376 N   0  0  0  0  0  0  0  0  0  0  0  0
  150.1478  141.5109  155.5807 C   0  0  0  0  0  0  0  0  0  0  0  0
  149.3572  140.3404  154.9612 C   0  0  1  0  0  0  0  0  0  0  0  0
  150.1459  139.7870  153.9253 O   0  0  0  0  0  0  0  0  0  0  0  0
  149.0292  139.2337  155.9903 C   0  0  0  0  0  0  0  0  0  0  0  0
  148.0830  138.2491  155.4371 N   0  0  0  0  0  0  0  0  0  0  0  0
  148.1091  136.9279  156.0731 C   0  0  0  0  0  0  0  0  0  0  0  0
  146.6062  138.7712  154.6900 S   0  0  0  0  0  0  0  0  0  0  0  0
  145.7804  137.5723  154.4764 O   0  0  0  0  0  0  0  0  0  0  0  0
  146.0714  139.8976  155.4700 O   0  0  0  0  0  0  0  0  0  0  0  0
  147.2080  139.4169  153.0554 C   0  0  0  0  0  0  0  0  0  0  0  0
  146.9609  140.9280  152.9408 C   0  0  0  0  0  0  0  0  0  0  0  0
  146.5624  138.6441  151.8967 C   0  0  0  0  0  0  0  0  0  0  0  0
  151.4990  141.6367  157.7483 C   0  0  0  0  0  0  0  0  0  0  0  0
  151.0712  142.7823  158.4424 C   0  0  0  0  0  0  0  0  0  0  0  0
  151.6547  143.1015  159.6865 C   0  0  0  0  0  0  0  0  0  0  0  0
  151.1822  144.3377  160.4311 C   0  0  0  0  0  0  0  0  0  0  0  0
  154.0983  141.8739  161.8066 H   0  0  0  0  0  0  0  0  0  0  0  0
  152.5709  142.5588  162.3594 H   0  0  0  0  0  0  0  0  0  0  0  0
  153.7616  143.5828  161.5421 H   0  0  0  0  0  0  0  0  0  0  0  0
  153.8575  140.4814  159.9286 H   0  0  0  0  0  0  0  0  0  0  0  0
  151.8490  139.3017  155.5769 H   0  0  0  0  0  0  0  0  0  0  0  0
  149.4748  142.2151  156.0718 H   0  0  0  0  0  0  0  0  0  0  0  0
  150.6687  142.0785  154.8104 H   0  0  0  0  0  0  0  0  0  0  0  0
  148.4405  140.7227  154.5095 H   0  0  0  0  0  0  0  0  0  0  0  0
  149.6602  139.8442  153.1165 H   0  0  0  0  0  0  0  0  0  0  0  0
  149.9412  138.7328  156.3202 H   0  0  0  0  0  0  0  0  0  0  0  0
  148.5898  139.6578  156.8940 H   0  0  0  0  0  0  0  0  0  0  0  0
  149.1299  136.5492  156.1310 H   0  0  0  0  0  0  0  0  0  0  0  0
  147.5167  136.2166  155.4978 H   0  0  0  0  0  0  0  0  0  0  0  0
  147.6951  136.9872  157.0800 H   0  0  0  0  0  0  0  0  0  0  0  0
  148.2843  139.2475  153.0199 H   0  0  0  0  0  0  0  0  0  0  0  0
  147.3461  141.3170  151.9979 H   0  0  0  0  0  0  0  0  0  0  0  0
  147.4584  141.4697  153.7460 H   0  0  0  0  0  0  0  0  0  0  0  0
  145.8965  141.1602  152.9868 H   0  0  0  0  0  0  0  0  0  0  0  0
  146.9262  139.0033  150.9339 H   0  0  0  0  0  0  0  0  0  0  0  0
  145.4774  138.7532  151.9047 H   0  0  0  0  0  0  0  0  0  0  0  0
  146.7927  137.5801  151.9570 H   0  0  0  0  0  0  0  0  0  0  0  0
  150.2983  143.4085  158.0213 H   0  0  0  0  0  0  0  0  0  0  0  0
  150.3920  144.8530  159.8843 H   0  0  0  0  0  0  0  0  0  0  0  0
  152.0055  145.0388  160.5702 H   0  0  0  0  0  0  0  0  0  0  0  0
  150.7881  144.0663  161.4108 H   0  0  0  0  0  0  0  0  0  0  0  0
  1  2  1  0  0  0  0
  1 24  1  0  0  0  0
  1 25  1  0  0  0  0
  1 26  1  0  0  0  0
  2 22  1  0  0  0  0
  2  3  2  0  0  0  0
  3  4  1  0  0  0  0
  3 27  1  0  0  0  0
  4 20  2  0  0  0  0
  4  5  1  0  0  0  0
  5  6  2  0  0  0  0
  6  7  1  0  0  0  0
  6 28  1  0  0  0  0
  7  8  1  0  0  0  0
  7 20  1  0  0  0  0
  8  9  1  0  0  0  0
  8 29  1  0  0  0  0
  8 30  1  0  0  0  0
  9 10  1  0  0  0  0
  9 11  1  0  0  0  0
  9 31  1  0  0  0  0
 10 32  1  0  0  0  0
 11 12  1  0  0  0  0
 11 33  1  0  0  0  0
 11 34  1  0  0  0  0
 12 13  1  0  0  0  0
 12 14  1  0  0  0  0
 13 35  1  0  0  0  0
 13 36  1  0  0  0  0
 13 37  1  0  0  0  0
 14 15  2  0  0  0  0
 14 16  2  0  0  0  0
 14 17  1  0  0  0  0
 17 18  1  0  0  0  0
 17 19  1  0  0  0  0
 17 38  1  0  0  0  0
 18 39  1  0  0  0  0
 18 40  1  0  0  0  0
 18 41  1  0  0  0  0
 19 42  1  0  0  0  0
 19 43  1  0  0  0  0
 19 44  1  0  0  0  0
 20 21  1  0  0  0  0
 21 22  2  0  0  0  0
 21 45  1  0  0  0  0
 22 23  1  0  0  0  0
 23 46  1  0  0  0  0
 23 47  1  0  0  0  0
 23 48  1  0  0  0  0
M  END
> <s_m_source_file>
AV-unprocessed.smi

> <i_m_source_file_index>
2538

> <i_lp_mmshare_version>
43012

> <i_f3d_flags>
0

> <s_epik_input>
W0NIM11jKFtjSF0xKWMoW0NIM10pW2NIXWMoYzEyKW4oW2NIXW4yKVtDSDJdW0NASF0oW09IXSlbQ0gyXU4oW0NIM10pUyg9TykoPU8pW0NIXShbQ0gzXSlbQ0gzXQ==

> <s_epik_cmdline>
J2VwaWtfcHl0aG9uJywgJy1waCcsICc3LjAnLCAnLXRuJywgJzgnLCAnLW1hJywgJzIwMCcsICctbWV0YWxfYmluZGluZycsICctaW1hZScsICc8aW5maWxlLm1hZT4nLCAnLW9tYWUnLCAnPG91dGZpbGUubWFlPic=

> <r_epik_Ionization_Penalty>
0.105018

> <r_epik_Ionization_Penalty_Charging>
0

> <r_epik_Ionization_Penalty_Neutral>
0.105018

> <r_epik_State_Penalty>
0.094904

> <r_epik_Charging_Adjusted_Penalty>
0.094904

> <i_epik_Tot_Q>
0

> <i_epik_Tot_abs_Q>
0

> <r_epik_Metal_State_Penalty>
0.000102919

> <b_epik_Metal_Only>
0

> <s_lp_Force_Field>
OPLS_2005

> <r_lp_Energy>
6.99225

> <b_lp_Chiralities_Consistent>
1

> <s_lp_Variant>
AV-unprocessed.smi:2538-2

> <Gold.Version>
5.8.1

> <Gold.Id.Protein>
6NUR|6NUR_protein|mol2

> <Gold.PLP.Fitness>
49.8175

> <Gold.PLP.PLP>
-42.1676

> <Gold.PLP.part.hbond>
-3.0000

> <Gold.PLP.part.metal>
0.0000

> <Gold.PLP.part.buried>
-4.9446

> <Gold.PLP.part.nonpolar>
-34.1717

> <Gold.PLP.part.repulsive>
0.1394

> <Gold.PLP.ligand.clash>
0.0000

> <Gold.PLP.ligand.torsion>
1.9338

> <Gold.PLP.Chemscore.Hbond>
2.9520

> <Gold.PLP.Chemscore.CHOScore>
0.0000

> <Gold.PLP.Chemscore.Metal>
0.0000

> <Gold.Chemscore.Hbonds>
donor molecule, donor type, donor heavy atom, donor atom, acceptor molecule, acceptor atom, score
      L1  H    10    32       P1  7957  1.00
      P1  H  7989  7998       L1    10  0.93
      P1  H  7997  8009       L1     5  1.00

> <Gold.PLP.Chemscore.Internal.Correction>
2.6614

> <Gold.Rescore>
     Score         DG    S(hbond)    S(metal)    S(lipo)     H(rot)  DE(clash)    DE(int)     intcor
     17.34     -20.49       2.18        0.00     116.14       2.29       0.23       2.93       ----

> <Gold.Chemscore.Fitness>
17.3404

> <Gold.Chemscore.DG>
-20.4939

> <Gold.Chemscore.ZeroCoef>
-5.4800

> <Gold.Chemscore.Hbond>
2.1832

> <Gold.Chemscore.Metal>
0.0000

> <Gold.Chemscore.Lipo>
116.1440

> <Gold.Chemscore.Internal_Hbond>
0.0000

> <Gold.Chemscore.DEClash>
0.2268

> <Gold.Chemscore.DEInternal>
2.9267

> <Gold.Chemscore.Rot>
2.2917

> <Gold.Chemscore.Internal.Correction>
   9.000000E+99

> <Gold.Chemscore.Hbonds>
donor molecule, donor type, donor heavy atom, donor atom, acceptor molecule, acceptor atom, score
      L1  H    10    32       P1  7957  0.93
      P1  H  7989  7998       L1    10  0.17
      P1  H  7997  8009       L1     5  0.17

> <Gold.Chemscore.Hbond.Weighted>
-7.2919

> <Gold.Chemscore.Metal.Weighted>
-0.0000

> <Gold.Chemscore.Lipo.Weighted>
-13.5888

> <Gold.Chemscore.Internal_Hbond.Weighted>
0.0000

> <Gold.Chemscore.DEClash.Weighted>
0.2268

> <Gold.Chemscore.DEInternal.Weighted>
2.9267

> <Gold.Chemscore.Rot.Weighted>
5.8669

> <Gold.Chemscore.Internal.Correction.Weighted>
   9.000000E+99

> <Gold.Protein.RotatedTorsions>
[ 6907 6896 6895 6894 ] final    2.46 input  -60.11 | X-H torsion
[ 7974 7965 7964 7962 ] final -148.29 input  175.53 | X-H torsion
[ 8008 7997 7996 7995 ] final  179.97 input   59.86 | X-H torsion
[ 10167 10162 10161 10158 ] final  144.10 input  -65.29 | X-H torsion
[ 10718 10713 10712 10709 ] final -144.58 input   66.30 | X-H torsion
[ 10763 10752 10751 10750 ] final  -13.35 input  -60.55 | X-H torsion
[ 11005 11000 10999 10996 ] final  117.48 input  -57.11 | X-H torsion

> <Gold.Protein.ActiveResidues>
 VAL166  LYS551  ARG553  GLY616  TRP617  ASP618  TYR619  PRO620  LYS621  CYS622 
 ASP623  PHE694  ASN695  SER759  ASP760  ASP761  ALA762  ILE779  LEU786  VAL792 
 PHE793  MET794  SER795  GLU796  ALA797  LYS798  CYS799  TRP800  GLU811  SER814 

> <Gold.Protein.RotatedAtoms>
  151.6093  135.1041  160.0077 H   0  0  0  0  0  0  0  0  0  0  0  0  # atno 6907 bound_to 6896
  152.4217  133.7123  159.6496 H   0  0  0  0  0  0  0  0  0  0  0  0  # atno 6908 bound_to 6896
  150.8104  133.8359  159.3207 H   0  0  0  0  0  0  0  0  0  0  0  0  # atno 6909 bound_to 6896
  144.8039  140.5216  143.5688 H   0  0  0  0  0  0  0  0  0  0  0  0  # atno 7974 bound_to 7965
  156.0373  140.1295  157.0194 H   0  0  0  0  0  0  0  0  0  0  0  0  # atno 8008 bound_to 7997
  154.4375  140.1037  156.6256 H   0  0  0  0  0  0  0  0  0  0  0  0  # atno 8009 bound_to 7997
  155.5719  140.3466  155.4519 H   0  0  0  0  0  0  0  0  0  0  0  0  # atno 8010 bound_to 7997
  139.4954  144.5995  151.6511 H   0  0  0  0  0  0  0  0  0  0  0  0  # atno 10167 bound_to 10162
  156.3719  130.7792  151.1974 H   0  0  0  0  0  0  0  0  0  0  0  0  # atno 10718 bound_to 10713
  153.5120  135.7016  153.5776 H   0  0  0  0  0  0  0  0  0  0  0  0  # atno 10763 bound_to 10752
  153.3862  135.3907  155.1891 H   0  0  0  0  0  0  0  0  0  0  0  0  # atno 10764 bound_to 10752
  154.8702  135.3847  154.4601 H   0  0  0  0  0  0  0  0  0  0  0  0  # atno 10765 bound_to 10752
  139.9076  134.9610  156.7357 H   0  0  0  0  0  0  0  0  0  0  0  0  # atno 11005 bound_to 11000
  145.5486  139.1476  143.3407 LP  0  0  0  0  0  0  0  0  0  0  0  0  # atno 17320 bound_to 7965
  146.2326  140.5625  142.8969 LP  0  0  0  0  0  0  0  0  0  0  0  0  # atno 17321 bound_to 7965
  140.5641  144.0219  150.6184 LP  0  0  0  0  0  0  0  0  0  0  0  0  # atno 17342 bound_to 10162
  140.3314  143.3075  152.0683 LP  0  0  0  0  0  0  0  0  0  0  0  0  # atno 17343 bound_to 10162
  157.7484  131.0369  150.4433 LP  0  0  0  0  0  0  0  0  0  0  0  0  # atno 17370 bound_to 10713
  156.4662  130.4042  149.6546 LP  0  0  0  0  0  0  0  0  0  0  0  0  # atno 17371 bound_to 10713
  140.6889  133.9407  155.7954 LP  0  0  0  0  0  0  0  0  0  0  0  0  # atno 17394 bound_to 11000
  141.0456  134.0559  157.3848 LP  0  0  0  0  0  0  0  0  0  0  0  0  # atno 17395 bound_to 11000

$$$$
