AV-unprocessed.smi:114|AV-procd|sdf|1115|dock5
  -GOLD-   2262018233D 1   1.00000     0.00000
 Structure written by MMmdl.
 32 34  0  0  0  0  0  0  0  0  1 V2000
  144.9835  138.5867  153.5545 N   0  0  0  0  0  0  0  0  0  0  0  0
  146.2215  138.6547  154.0640 C   0  0  0  0  0  0  0  0  0  0  0  0
  146.8178  137.5076  154.4643 N   0  0  0  0  0  0  0  0  0  0  0  0
  148.0532  137.5319  154.9797 C   0  0  0  0  0  0  0  0  0  0  0  0
  148.5741  136.3392  155.3517 F   0  0  0  0  0  0  0  0  0  0  0  0
  148.8313  138.6028  155.1693 N   0  0  0  0  0  0  0  0  0  0  0  0
  148.2340  139.7620  154.7673 C   0  0  0  0  0  0  0  0  0  0  0  0
  146.9343  139.8706  154.2042 C   0  0  0  0  0  0  0  0  0  0  0  0
  146.6542  141.1981  153.9109 N   0  0  0  0  0  0  0  0  0  0  0  0
  147.7323  141.8354  154.2820 C   0  0  0  0  0  0  0  0  0  0  0  0
  148.7309  141.0491  154.8135 N   0  0  0  0  0  0  0  0  0  0  0  0
  150.0638  141.4911  155.3239 C   0  0  2  0  0  0  0  0  0  0  0  0
  150.9791  140.4660  155.0881 O   0  0  0  0  0  0  0  0  0  0  0  0
  151.8296  140.3122  156.2182 C   0  0  2  0  0  0  0  0  0  0  0  0
  152.4032  138.8873  156.2468 C   0  0  0  0  0  0  0  0  0  0  0  0
  153.5539  138.8112  155.4327 O   0  0  0  0  0  0  0  0  0  0  0  0
  150.8867  140.6143  157.3845 C   0  0  1  0  0  0  0  0  0  0  0  0
  151.5758  140.9572  158.5728 O   0  0  0  0  0  0  0  0  0  0  0  0
  150.0150  141.7445  156.8400 C   0  0  1  0  0  0  0  0  0  0  0  0
  150.5365  143.0232  157.1534 O   0  0  0  0  0  0  0  0  0  0  0  0
  150.3095  142.3767  154.7359 H   0  0  0  0  0  0  0  0  0  0  0  0
  152.6220  141.0627  156.1805 H   0  0  0  0  0  0  0  0  0  0  0  0
  150.2622  139.7439  157.5864 H   0  0  0  0  0  0  0  0  0  0  0  0
  148.9934  141.6831  157.2181 H   0  0  0  0  0  0  0  0  0  0  0  0
  144.5184  139.4300  153.2500 H   0  0  0  0  0  0  0  0  0  0  0  0
  144.5186  137.6940  153.4754 H   0  0  0  0  0  0  0  0  0  0  0  0
  147.8273  142.9070  154.1810 H   0  0  0  0  0  0  0  0  0  0  0  0
  152.7040  138.6238  157.2612 H   0  0  0  0  0  0  0  0  0  0  0  0
  151.6608  138.1544  155.9292 H   0  0  0  0  0  0  0  0  0  0  0  0
  153.4361  138.1091  154.8112 H   0  0  0  0  0  0  0  0  0  0  0  0
  151.8126  140.1597  159.0210 H   0  0  0  0  0  0  0  0  0  0  0  0
  150.0855  143.6660  156.6273 H   0  0  0  0  0  0  0  0  0  0  0  0
  1  2  1  0  0  0  0
  1 25  1  0  0  0  0
  1 26  1  0  0  0  0
  2  8  1  0  0  0  0
  2  3  2  0  0  0  0
  3  4  1  0  0  0  0
  4  5  1  0  0  0  0
  4  6  2  0  0  0  0
  6  7  1  0  0  0  0
  7 11  1  0  0  0  0
  7  8  2  0  0  0  0
  8  9  1  0  0  0  0
  9 10  2  0  0  0  0
 10 11  1  0  0  0  0
 10 27  1  0  0  0  0
 11 12  1  0  0  0  0
 12 21  1  0  0  0  0
 12 19  1  0  0  0  0
 12 13  1  0  0  0  0
 13 14  1  0  0  0  0
 14 22  1  0  0  0  0
 14 15  1  0  0  0  0
 14 17  1  0  0  0  0
 15 16  1  0  0  0  0
 15 28  1  0  0  0  0
 15 29  1  0  0  0  0
 16 30  1  0  0  0  0
 17 23  1  0  0  0  0
 17 18  1  0  0  0  0
 17 19  1  0  0  0  0
 18 31  1  0  0  0  0
 19 24  1  0  0  0  0
 19 20  1  0  0  0  0
 20 32  1  0  0  0  0
M  END
> <s_m_source_file>
AV-unprocessed.smi

> <i_m_source_file_index>
114

> <i_lp_mmshare_version>
43012

> <i_f3d_flags>
0

> <s_epik_input>
RmMobjEpbmMoW05IMl0pYyhjMTIpbltjSF1uMltDQEBIXTNPW0NASF0oW0NIMl1bT0hdKVtDQEBIXShbT0hdKVtDQEBIXTNbT0hd

> <s_epik_cmdline>
J2VwaWtfcHl0aG9uJywgJy1waCcsICc3LjAnLCAnLXRuJywgJzgnLCAnLW1hJywgJzIwMCcsICctbWV0YWxfYmluZGluZycsICctaW1hZScsICc8aW5maWxlLm1hZT4nLCAnLW9tYWUnLCAnPG91dGZpbGUubWFlPic=

> <r_lp_tautomer_probability>
1

> <r_epik_Ionization_Penalty>
1.13199e-05

> <r_epik_Ionization_Penalty_Charging>
0

> <r_epik_Ionization_Penalty_Neutral>
1.13199e-05

> <r_epik_State_Penalty>
-0

> <r_epik_Charging_Adjusted_Penalty>
0

> <i_epik_Tot_Q>
0

> <i_epik_Tot_abs_Q>
0

> <r_epik_Metal_State_Penalty>
-0

> <b_epik_Metal_Only>
0

> <s_epik_Chemistry_Notes>
This compound contains an acetal/aminal-like group ( X-CH(R)-Y where X, Y are N, S, or O) that may be acid/base labile, releasing an aldehyde.

> <s_lp_Force_Field>
OPLS_2005

> <r_lp_Energy>
39.1628

> <b_lp_Chiralities_Consistent>
1

> <s_lp_Variant>
AV-unprocessed.smi:114-9

> <Gold.Version>
5.8.1

> <Gold.Id.Protein>
6NUR|6NUR_protein|mol2

> <Gold.PLP.Fitness>
38.5418

> <Gold.PLP.PLP>
-25.6532

> <Gold.PLP.part.hbond>
-3.9797

> <Gold.PLP.part.metal>
0.0000

> <Gold.PLP.part.buried>
-5.2309

> <Gold.PLP.part.nonpolar>
-17.0553

> <Gold.PLP.part.repulsive>
0.4043

> <Gold.PLP.ligand.clash>
0.0000

> <Gold.PLP.ligand.torsion>
0.9541

> <Gold.PLP.Chemscore.Hbond>
3.9280

> <Gold.PLP.Chemscore.CHOScore>
1.0000

> <Gold.PLP.Chemscore.Metal>
0.0000

> <Gold.Chemscore.Hbonds>
donor molecule, donor type, donor heavy atom, donor atom, acceptor molecule, acceptor atom, score
      L1  H     1    25       P1 10175  1.00
      L1  H    20    32       P1  8028  1.00
      P1  H  7989  7998       L1    13  1.00
      P1  H  7997  8010       L1    16  0.88
      L1  C    10    27       P1  8028  1.00

> <Gold.PLP.Chemscore.Internal.Correction>
0.0128

> <Gold.Rescore>
     Score         DG    S(hbond)    S(metal)    S(lipo)     H(rot)  DE(clash)    DE(int)     intcor
      8.00     -10.02       3.54        0.00      25.89       4.03       0.17       1.85       ----

> <Gold.Chemscore.Fitness>
7.9985

> <Gold.Chemscore.DG>
-10.0232

> <Gold.Chemscore.ZeroCoef>
-5.4800

> <Gold.Chemscore.Hbond>
3.5406

> <Gold.Chemscore.Metal>
0.0000

> <Gold.Chemscore.Lipo>
25.8862

> <Gold.Chemscore.Internal_Hbond>
0.0000

> <Gold.Chemscore.DEClash>
0.1739

> <Gold.Chemscore.DEInternal>
1.8509

> <Gold.Chemscore.Rot>
4.0277

> <Gold.Chemscore.Internal.Correction>
   9.000000E+99

> <Gold.Chemscore.Hbonds>
donor molecule, donor type, donor heavy atom, donor atom, acceptor molecule, acceptor atom, score
      L1  H     1    25       P1 10175  0.94
      L1  H    20    32       P1  8028  1.00
      P1  H  7989  7998       L1    13  0.37
      P1  H  7997  8010       L1    16  0.19

> <Gold.Chemscore.Hbond.Weighted>
-11.8255

> <Gold.Chemscore.Metal.Weighted>
-0.0000

> <Gold.Chemscore.Lipo.Weighted>
-3.0287

> <Gold.Chemscore.Internal_Hbond.Weighted>
0.0000

> <Gold.Chemscore.DEClash.Weighted>
0.1739

> <Gold.Chemscore.DEInternal.Weighted>
1.8509

> <Gold.Chemscore.Rot.Weighted>
10.3110

> <Gold.Chemscore.Internal.Correction.Weighted>
   9.000000E+99

> <Gold.Protein.RotatedTorsions>
[ 6907 6896 6895 6894 ] final   91.49 input  -60.11 | X-H torsion
[ 7974 7965 7964 7962 ] final   12.61 input  175.53 | X-H torsion
[ 8008 7997 7996 7995 ] final   93.68 input   59.86 | X-H torsion
[ 10167 10162 10161 10158 ] final   33.18 input  -65.29 | X-H torsion
[ 10718 10713 10712 10709 ] final -107.48 input   66.30 | X-H torsion
[ 10763 10752 10751 10750 ] final    2.79 input  -60.55 | X-H torsion
[ 11005 11000 10999 10996 ] final   62.57 input  -57.11 | X-H torsion

> <Gold.Protein.ActiveResidues>
 VAL166  LYS551  ARG553  GLY616  TRP617  ASP618  TYR619  PRO620  LYS621  CYS622 
 ASP623  PHE694  ASN695  SER759  ASP760  ASP761  ALA762  ILE779  LEU786  VAL792 
 PHE793  MET794  SER795  GLU796  ALA797  LYS798  CYS799  TRP800  GLU811  SER814 

> <Gold.Protein.RotatedAtoms>
  152.5450  134.1648  159.8572 H   0  0  0  0  0  0  0  0  0  0  0  0  # atno 6907 bound_to 6896
  151.1663  133.4805  159.2601 H   0  0  0  0  0  0  0  0  0  0  0  0  # atno 6908 bound_to 6896
  151.1321  135.0146  159.8642 H   0  0  0  0  0  0  0  0  0  0  0  0  # atno 6909 bound_to 6896
  146.2347  139.9311  142.8496 H   0  0  0  0  0  0  0  0  0  0  0  0  # atno 7974 bound_to 7965
  156.0494  140.3310  155.7334 H   0  0  0  0  0  0  0  0  0  0  0  0  # atno 8008 bound_to 7997
  155.5623  140.0620  157.2843 H   0  0  0  0  0  0  0  0  0  0  0  0  # atno 8009 bound_to 7997
  154.4429  140.1875  156.0784 H   0  0  0  0  0  0  0  0  0  0  0  0  # atno 8010 bound_to 7997
  140.4431  144.1158  150.6177 H   0  0  0  0  0  0  0  0  0  0  0  0  # atno 10167 bound_to 10162
  156.0439  130.5665  150.7828 H   0  0  0  0  0  0  0  0  0  0  0  0  # atno 10718 bound_to 10713
  153.2912  135.6948  153.7291 H   0  0  0  0  0  0  0  0  0  0  0  0  # atno 10763 bound_to 10752
  153.6241  135.3422  155.3021 H   0  0  0  0  0  0  0  0  0  0  0  0  # atno 10764 bound_to 10752
  154.8524  135.4393  154.1996 H   0  0  0  0  0  0  0  0  0  0  0  0  # atno 10765 bound_to 10752
  140.0083  134.6336  155.9820 H   0  0  0  0  0  0  0  0  0  0  0  0  # atno 11005 bound_to 11000
  145.2044  140.9868  143.4137 LP  0  0  0  0  0  0  0  0  0  0  0  0  # atno 17320 bound_to 7965
  144.9746  139.3845  143.6292 LP  0  0  0  0  0  0  0  0  0  0  0  0  # atno 17321 bound_to 7965
  140.4295  143.2574  151.9613 LP  0  0  0  0  0  0  0  0  0  0  0  0  # atno 17342 bound_to 10162
  139.4791  144.5757  151.8016 LP  0  0  0  0  0  0  0  0  0  0  0  0  # atno 17343 bound_to 10162
  157.5290  131.0935  150.9979 LP  0  0  0  0  0  0  0  0  0  0  0  0  # atno 17370 bound_to 10713
  157.0290  130.5704  149.5341 LP  0  0  0  0  0  0  0  0  0  0  0  0  # atno 17371 bound_to 10713
  141.1693  133.6537  156.4592 LP  0  0  0  0  0  0  0  0  0  0  0  0  # atno 17394 bound_to 11000
  140.4601  134.6849  157.5081 LP  0  0  0  0  0  0  0  0  0  0  0  0  # atno 17395 bound_to 11000

$$$$
