AV-unprocessed.smi:3034|AV-procd|sdf|11577|dock6
  -GOLD-   2272016543D 1   1.00000     0.00000
 Structure written by MMmdl.
 32 32  0  0  0  0  0  0  0  0  1 V2000
  147.3367  139.1524  153.2390 C   0  0  0  0  0  0  0  0  0  0  0  0
  147.0240  140.6147  153.5732 C   0  0  0  0  0  0  0  0  0  0  0  0
  148.2901  141.4579  153.7716 C   0  0  0  0  0  0  0  0  0  0  0  0
  149.3370  140.7617  155.1163 S   0  0  0  0  0  0  0  0  0  0  0  0
  148.4689  140.1195  156.1148 O   0  0  0  0  0  0  0  0  0  0  0  0
  150.4392  140.0021  154.5064 O   0  0  0  0  0  0  0  0  0  0  0  0
  150.0081  142.1720  155.8415 N   0  0  0  0  0  0  0  0  0  0  0  0
  150.9825  141.9834  156.9166 C   0  0  0  0  0  0  0  0  0  0  0  0
  150.9146  143.1395  157.9299 C   0  0  2  0  0  0  0  0  0  0  0  0
  151.3925  144.3171  157.3065 O   0  0  0  0  0  0  0  0  0  0  0  0
  151.7068  142.8085  159.1877 C   0  0  0  0  0  0  0  0  0  0  0  0
  152.4904  141.6355  159.2472 C   0  0  0  0  0  0  0  0  0  0  0  0
  153.2235  141.3736  160.4207 C   0  0  0  0  0  0  0  0  0  0  0  0
  153.1479  142.2898  161.4867 C   0  0  0  0  0  0  0  0  0  0  0  0
  152.3389  143.4326  161.3311 C   0  0  0  0  0  0  0  0  0  0  0  0
  151.6329  143.6932  160.2101 N   0  0  0  0  0  0  0  0  0  0  0  0
  146.4182  138.5767  153.1225 H   0  0  0  0  0  0  0  0  0  0  0  0
  147.9250  138.6842  154.0287 H   0  0  0  0  0  0  0  0  0  0  0  0
  147.8991  139.0731  152.3083 H   0  0  0  0  0  0  0  0  0  0  0  0
  146.4209  141.0448  152.7730 H   0  0  0  0  0  0  0  0  0  0  0  0
  146.4141  140.6564  154.4761 H   0  0  0  0  0  0  0  0  0  0  0  0
  148.8836  141.4834  152.8574 H   0  0  0  0  0  0  0  0  0  0  0  0
  148.0379  142.4854  154.0346 H   0  0  0  0  0  0  0  0  0  0  0  0
  149.2721  142.8166  156.1282 H   0  0  0  0  0  0  0  0  0  0  0  0
  150.7435  141.0461  157.4210 H   0  0  0  0  0  0  0  0  0  0  0  0
  151.9847  141.8749  156.4997 H   0  0  0  0  0  0  0  0  0  0  0  0
  149.8762  143.3143  158.2154 H   0  0  0  0  0  0  0  0  0  0  0  0
  150.6687  144.7375  156.8684 H   0  0  0  0  0  0  0  0  0  0  0  0
  152.5343  140.9520  158.4120 H   0  0  0  0  0  0  0  0  0  0  0  0
  153.8347  140.4868  160.5004 H   0  0  0  0  0  0  0  0  0  0  0  0
  153.6976  142.1219  162.4010 H   0  0  0  0  0  0  0  0  0  0  0  0
  152.2581  144.1574  162.1278 H   0  0  0  0  0  0  0  0  0  0  0  0
  1  2  1  0  0  0  0
  1 17  1  0  0  0  0
  1 18  1  0  0  0  0
  1 19  1  0  0  0  0
  2  3  1  0  0  0  0
  2 20  1  0  0  0  0
  2 21  1  0  0  0  0
  3  4  1  0  0  0  0
  3 22  1  0  0  0  0
  3 23  1  0  0  0  0
  4  5  2  0  0  0  0
  4  6  2  0  0  0  0
  4  7  1  0  0  0  0
  7  8  1  0  0  0  0
  7 24  1  0  0  0  0
  8  9  1  0  0  0  0
  8 25  1  0  0  0  0
  8 26  1  0  0  0  0
  9 10  1  0  0  0  0
  9 11  1  0  0  0  0
  9 27  1  0  0  0  0
 10 28  1  0  0  0  0
 11 16  1  0  0  0  0
 11 12  2  0  0  0  0
 12 13  1  0  0  0  0
 12 29  1  0  0  0  0
 13 14  2  0  0  0  0
 13 30  1  0  0  0  0
 14 15  1  0  0  0  0
 14 31  1  0  0  0  0
 15 16  2  0  0  0  0
 15 32  1  0  0  0  0
M  END
> <s_m_source_file>
AV-unprocessed.smi

> <i_m_source_file_index>
3034

> <i_lp_mmshare_version>
43012

> <i_f3d_flags>
0

> <s_epik_input>
W0NIM11bQ0gyXVtDSDJdUyg9TykoPU8pW05IXVtDSDJdW0NASF0oW09IXSljMVtjSF1bY0hdW2NIXVtjSF1uMQ==

> <s_epik_cmdline>
J2VwaWtfcHl0aG9uJywgJy1waCcsICc3LjAnLCAnLXRuJywgJzgnLCAnLW1hJywgJzIwMCcsICctbWV0YWxfYmluZGluZycsICctaW1hZScsICc8aW5maWxlLm1hZT4nLCAnLW9tYWUnLCAnPG91dGZpbGUubWFlPic=

> <r_epik_Ionization_Penalty>
0.00187371

> <r_epik_Ionization_Penalty_Charging>
0

> <r_epik_Ionization_Penalty_Neutral>
0.00187371

> <r_epik_State_Penalty>
0.0012608

> <r_epik_Charging_Adjusted_Penalty>
0.0012608

> <i_epik_Tot_Q>
0

> <i_epik_Tot_abs_Q>
0

> <r_epik_Metal_State_Penalty>
0.0168387

> <b_epik_Metal_Only>
0

> <s_lp_Force_Field>
OPLS_2005

> <r_lp_Energy>
4.86563

> <b_lp_Chiralities_Consistent>
1

> <s_lp_Variant>
AV-unprocessed.smi:3034-1

> <Gold.Version>
5.8.1

> <Gold.Id.Protein>
6NUR|6NUR_protein|mol2

> <Gold.PLP.Fitness>
42.4078

> <Gold.PLP.PLP>
-36.3048

> <Gold.PLP.part.hbond>
-3.0000

> <Gold.PLP.part.metal>
0.0000

> <Gold.PLP.part.buried>
-3.9213

> <Gold.PLP.part.nonpolar>
-28.3716

> <Gold.PLP.part.repulsive>
0.1755

> <Gold.PLP.ligand.clash>
0.0000

> <Gold.PLP.ligand.torsion>
0.8562

> <Gold.PLP.Chemscore.Hbond>
2.5440

> <Gold.PLP.Chemscore.CHOScore>
0.0000

> <Gold.PLP.Chemscore.Metal>
0.0000

> <Gold.Chemscore.Hbonds>
donor molecule, donor type, donor heavy atom, donor atom, acceptor molecule, acceptor atom, score
      L1  H     7    24       P1  8028  0.66
      L1  H    10    28       P1  8028  0.80
      P1  H  7989  7998       L1     6  1.00

> <Gold.PLP.Chemscore.Internal.Correction>
0.1835

> <Gold.Rescore>
     Score         DG    S(hbond)    S(metal)    S(lipo)     H(rot)  DE(clash)    DE(int)     intcor
     17.43     -18.56       2.61        0.00      94.64       2.63       0.28       0.84       ----

> <Gold.Chemscore.Fitness>
17.4333

> <Gold.Chemscore.DG>
-18.5589

> <Gold.Chemscore.ZeroCoef>
-5.4800

> <Gold.Chemscore.Hbond>
2.6146

> <Gold.Chemscore.Metal>
0.0000

> <Gold.Chemscore.Lipo>
94.6396

> <Gold.Chemscore.Internal_Hbond>
0.0000

> <Gold.Chemscore.DEClash>
0.2817

> <Gold.Chemscore.DEInternal>
0.8439

> <Gold.Chemscore.Rot>
2.6275

> <Gold.Chemscore.Internal.Correction>
   9.000000E+99

> <Gold.Chemscore.Hbonds>
donor molecule, donor type, donor heavy atom, donor atom, acceptor molecule, acceptor atom, score
      L1  H     7    24       P1  8028  0.63
      L1  H    10    28       P1  8028  0.63
      P1  H  7989  7998       L1     6  0.97

> <Gold.Chemscore.Hbond.Weighted>
-8.7326

> <Gold.Chemscore.Metal.Weighted>
-0.0000

> <Gold.Chemscore.Lipo.Weighted>
-11.0728

> <Gold.Chemscore.Internal_Hbond.Weighted>
0.0000

> <Gold.Chemscore.DEClash.Weighted>
0.2817

> <Gold.Chemscore.DEInternal.Weighted>
0.8439

> <Gold.Chemscore.Rot.Weighted>
6.7265

> <Gold.Chemscore.Internal.Correction.Weighted>
   9.000000E+99

> <Gold.Protein.RotatedTorsions>
[ 6907 6896 6895 6894 ] final  113.13 input  -60.11 | X-H torsion
[ 7974 7965 7964 7962 ] final  106.30 input  175.53 | X-H torsion
[ 8008 7997 7996 7995 ] final -108.12 input   59.86 | X-H torsion
[ 10167 10162 10161 10158 ] final  125.37 input  -65.29 | X-H torsion
[ 10718 10713 10712 10709 ] final   23.89 input   66.30 | X-H torsion
[ 10763 10752 10751 10750 ] final   57.35 input  -60.55 | X-H torsion
[ 11005 11000 10999 10996 ] final  137.17 input  -57.11 | X-H torsion

> <Gold.Protein.ActiveResidues>
 VAL166  LYS551  ARG553  GLY616  TRP617  ASP618  TYR619  PRO620  LYS621  CYS622 
 ASP623  PHE694  ASN695  SER759  ASP760  ASP761  ALA762  ILE779  LEU786  VAL792 
 PHE793  MET794  SER795  GLU796  ALA797  LYS798  CYS799  TRP800  GLU811  SER814 

> <Gold.Protein.RotatedAtoms>
  152.4878  133.8419  159.7156 H   0  0  0  0  0  0  0  0  0  0  0  0  # atno 6907 bound_to 6896
  150.8980  133.7146  159.2893 H   0  0  0  0  0  0  0  0  0  0  0  0  # atno 6908 bound_to 6896
  151.4597  135.1041  159.9773 H   0  0  0  0  0  0  0  0  0  0  0  0  # atno 6909 bound_to 6896
  145.3084  139.2548  143.3776 H   0  0  0  0  0  0  0  0  0  0  0  0  # atno 7974 bound_to 7965
  154.9395  140.0403  157.2089 H   0  0  0  0  0  0  0  0  0  0  0  0  # atno 8008 bound_to 7997
  154.8083  140.2863  155.5850 H   0  0  0  0  0  0  0  0  0  0  0  0  # atno 8009 bound_to 7997
  156.2969  140.2542  156.2966 H   0  0  0  0  0  0  0  0  0  0  0  0  # atno 8010 bound_to 7997
  139.5689  144.6927  151.3833 H   0  0  0  0  0  0  0  0  0  0  0  0  # atno 10167 bound_to 10162
  157.1723  130.6765  149.6082 H   0  0  0  0  0  0  0  0  0  0  0  0  # atno 10718 bound_to 10713
  152.9848  135.5644  154.5377 H   0  0  0  0  0  0  0  0  0  0  0  0  # atno 10763 bound_to 10752
  154.4837  135.2789  155.1552 H   0  0  0  0  0  0  0  0  0  0  0  0  # atno 10764 bound_to 10752
  154.3050  135.6300  153.5494 H   0  0  0  0  0  0  0  0  0  0  0  0  # atno 10765 bound_to 10752
  140.0096  134.9445  157.0248 H   0  0  0  0  0  0  0  0  0  0  0  0  # atno 11005 bound_to 11000
  146.3127  140.3614  142.8665 LP  0  0  0  0  0  0  0  0  0  0  0  0  # atno 17320 bound_to 7965
  144.9036  140.7673  143.5851 LP  0  0  0  0  0  0  0  0  0  0  0  0  # atno 17321 bound_to 7965
  140.6973  143.7717  150.7347 LP  0  0  0  0  0  0  0  0  0  0  0  0  # atno 17342 bound_to 10162
  140.1217  143.4606  152.2309 LP  0  0  0  0  0  0  0  0  0  0  0  0  # atno 17343 bound_to 10162
  155.9736  130.4675  150.6326 LP  0  0  0  0  0  0  0  0  0  0  0  0  # atno 17370 bound_to 10713
  157.4031  131.0813  151.1290 LP  0  0  0  0  0  0  0  0  0  0  0  0  # atno 17371 bound_to 10713
  140.4579  134.1514  155.7188 LP  0  0  0  0  0  0  0  0  0  0  0  0  # atno 17394 bound_to 11000
  141.1701  133.8625  157.1596 LP  0  0  0  0  0  0  0  0  0  0  0  0  # atno 17395 bound_to 11000

$$$$
