AV-unprocessed.smi:1868|AV-procd|sdf|7588|dock8
  -GOLD-   22720 9303D 1   1.00000     0.00000
 Structure written by MMmdl.
 48 50  0  0  0  0  0  0  0  0  3 V2000
  150.6022  145.1635  160.1052 C   0  0  0  0  0  0  0  0  0  0  0  0
  151.5803  144.1721  160.6401 C   0  0  0  0  0  0  0  0  0  0  0  0
  152.0237  144.0997  161.9268 N   0  3  0  0  0  0  0  0  0  0  0  0
  152.9288  143.0455  162.0563 C   0  0  0  0  0  0  0  0  0  0  0  0
  153.6368  142.5822  163.1609 C   0  0  0  0  0  0  0  0  0  0  0  0
  154.4830  141.4737  162.9505 C   0  0  0  0  0  0  0  0  0  0  0  0
  154.6010  140.8702  161.6814 C   0  0  0  0  0  0  0  0  0  0  0  0
  153.8784  141.3491  160.5684 C   0  0  0  0  0  0  0  0  0  0  0  0
  153.0443  142.4454  160.7855 C   0  0  0  0  0  0  0  0  0  0  0  0
  152.1972  143.1742  159.9433 N   0  0  0  0  0  0  0  0  0  0  0  0
  152.0878  142.7913  158.5267 C   0  0  0  0  0  0  0  0  0  0  0  0
  150.8128  141.9819  158.2138 C   0  0  2  0  0  0  0  0  0  0  0  0
  150.8622  140.7553  158.9182 O   0  0  0  0  0  0  0  0  0  0  0  0
  150.6889  141.6953  156.7026 C   0  0  0  0  0  0  0  0  0  0  0  0
  149.3409  141.9991  156.1547 N   0  3  2  0  0  0  0  0  0  0  0  0
  148.2555  141.5682  157.0736 C   0  0  0  0  0  0  0  0  0  0  0  0
  146.8771  142.0139  156.5575 C   0  0  0  0  0  0  0  0  0  0  0  0
  146.6143  141.4847  155.1380 C   0  0  1  0  0  0  0  0  0  0  0  0
  145.2534  141.9485  154.6002 C   0  0  0  0  0  0  0  0  0  0  0  0
  147.7683  141.9152  154.2174 C   0  0  0  0  0  0  0  0  0  0  0  0
  149.1288  141.4708  154.7803 C   0  0  0  0  0  0  0  0  0  0  0  0
  150.2391  145.8125  160.9025 H   0  0  0  0  0  0  0  0  0  0  0  0
  149.7489  144.6501  159.6618 H   0  0  0  0  0  0  0  0  0  0  0  0
  151.0725  145.7828  159.3413 H   0  0  0  0  0  0  0  0  0  0  0  0
  153.5471  143.0418  164.1344 H   0  0  0  0  0  0  0  0  0  0  0  0
  155.0521  141.0779  163.7794 H   0  0  0  0  0  0  0  0  0  0  0  0
  155.2583  140.0213  161.5602 H   0  0  0  0  0  0  0  0  0  0  0  0
  153.9751  140.8790  159.6013 H   0  0  0  0  0  0  0  0  0  0  0  0
  152.1315  143.6985  157.9228 H   0  0  0  0  0  0  0  0  0  0  0  0
  152.9759  142.2124  158.2707 H   0  0  0  0  0  0  0  0  0  0  0  0
  149.9506  142.5430  158.5714 H   0  0  0  0  0  0  0  0  0  0  0  0
  150.0727  140.2668  158.7425 H   0  0  0  0  0  0  0  0  0  0  0  0
  151.4338  142.2650  156.1446 H   0  0  0  0  0  0  0  0  0  0  0  0
  150.9260  140.6433  156.5336 H   0  0  0  0  0  0  0  0  0  0  0  0
  148.2829  140.4834  157.1883 H   0  0  0  0  0  0  0  0  0  0  0  0
  148.4182  141.9956  158.0637 H   0  0  0  0  0  0  0  0  0  0  0  0
  146.1001  141.6623  157.2374 H   0  0  0  0  0  0  0  0  0  0  0  0
  146.8214  143.1035  156.5633 H   0  0  0  0  0  0  0  0  0  0  0  0
  146.5999  140.3944  155.1781 H   0  0  0  0  0  0  0  0  0  0  0  0
  145.2012  143.0357  154.5352 H   0  0  0  0  0  0  0  0  0  0  0  0
  144.4410  141.6143  155.2462 H   0  0  0  0  0  0  0  0  0  0  0  0
  145.0673  141.5461  153.6041 H   0  0  0  0  0  0  0  0  0  0  0  0
  147.6288  141.4918  153.2220 H   0  0  0  0  0  0  0  0  0  0  0  0
  147.7616  142.9993  154.0943 H   0  0  0  0  0  0  0  0  0  0  0  0
  149.9136  141.8190  154.1105 H   0  0  0  0  0  0  0  0  0  0  0  0
  149.1887  140.3813  154.7944 H   0  0  0  0  0  0  0  0  0  0  0  0
  149.2744  143.0052  156.0997 H   0  0  0  0  0  0  0  0  0  0  0  0
  151.7261  144.7274  162.6627 H   0  0  0  0  0  0  0  0  0  0  0  0
  1  2  1  0  0  0  0
  1 22  1  0  0  0  0
  1 23  1  0  0  0  0
  1 24  1  0  0  0  0
  2 10  1  0  0  0  0
  2  3  2  0  0  0  0
  3  4  1  0  0  0  0
  3 48  1  0  0  0  0
  4  9  2  0  0  0  0
  4  5  1  0  0  0  0
  5  6  2  0  0  0  0
  5 25  1  0  0  0  0
  6  7  1  0  0  0  0
  6 26  1  0  0  0  0
  7  8  2  0  0  0  0
  7 27  1  0  0  0  0
  8  9  1  0  0  0  0
  8 28  1  0  0  0  0
  9 10  1  0  0  0  0
 10 11  1  0  0  0  0
 11 12  1  0  0  0  0
 11 29  1  0  0  0  0
 11 30  1  0  0  0  0
 12 13  1  0  0  0  0
 12 14  1  0  0  0  0
 12 31  1  0  0  0  0
 13 32  1  0  0  0  0
 14 15  1  0  0  0  0
 14 33  1  0  0  0  0
 14 34  1  0  0  0  0
 15 21  1  0  0  0  0
 15 16  1  0  0  0  0
 15 47  1  0  0  0  0
 16 17  1  0  0  0  0
 16 35  1  0  0  0  0
 16 36  1  0  0  0  0
 17 18  1  0  0  0  0
 17 37  1  0  0  0  0
 17 38  1  0  0  0  0
 18 19  1  0  0  0  0
 18 20  1  0  0  0  0
 18 39  1  0  0  0  0
 19 40  1  0  0  0  0
 19 41  1  0  0  0  0
 19 42  1  0  0  0  0
 20 21  1  0  0  0  0
 20 43  1  0  0  0  0
 20 44  1  0  0  0  0
 21 45  1  0  0  0  0
 21 46  1  0  0  0  0
M  CHG  1   3   1
M  CHG  1  15   1
M  END
> <s_m_source_file>
AV-unprocessed.smi

> <i_m_source_file_index>
1868

> <i_lp_mmshare_version>
43012

> <i_f3d_flags>
0

> <s_epik_input>
W2NIXTFbY0hdW2NIXVtjSF1jKGMxMiluKGMobjIpW0NIM10pW0NIMl1bQ0BIXShbT0hdKVtDSDJdTjNbQ0gyXVtDSDJdW0NIXShbQ0gzXSlbQ0gyXVtDSDJdMw==

> <s_epik_cmdline>
J2VwaWtfcHl0aG9uJywgJy1waCcsICc3LjAnLCAnLXRuJywgJzgnLCAnLW1hJywgJzIwMCcsICctbWV0YWxfYmluZGluZycsICctaW1hZScsICc8aW5maWxlLm1hZT4nLCAnLW9tYWUnLCAnPG91dGZpbGUubWFlPic=

> <r_epik_Ionization_Penalty>
1.10901

> <r_epik_Ionization_Penalty_Charging>
1.10901

> <r_epik_Ionization_Penalty_Neutral>
6.90208e-07

> <r_epik_State_Penalty>
1.18788

> <r_epik_Charging_Adjusted_Penalty>
2.29689

> <i_epik_Tot_Q>
2

> <i_epik_Tot_abs_Q>
2

> <r_epik_Metal_State_Penalty>
5.19353

> <b_epik_Metal_Only>
0

> <s_lp_Force_Field>
OPLS_2005

> <r_lp_Energy>
30.2902

> <b_lp_Chiralities_Consistent>
1

> <s_lp_Variant>
AV-unprocessed.smi:1868-5

> <Gold.Version>
5.8.1

> <Gold.Id.Protein>
6NUR|6NUR_protein|mol2

> <Gold.PLP.Fitness>
54.2753

> <Gold.PLP.PLP>
-50.3423

> <Gold.PLP.part.hbond>
-2.6738

> <Gold.PLP.part.metal>
0.0000

> <Gold.PLP.part.buried>
-1.0831

> <Gold.PLP.part.nonpolar>
-46.3662

> <Gold.PLP.part.repulsive>
0.1419

> <Gold.PLP.ligand.clash>
0.0000

> <Gold.PLP.ligand.torsion>
1.0557

> <Gold.PLP.Chemscore.Hbond>
2.0000

> <Gold.PLP.Chemscore.CHOScore>
0.0000

> <Gold.PLP.Chemscore.Metal>
0.0000

> <Gold.Chemscore.Hbonds>
donor molecule, donor type, donor heavy atom, donor atom, acceptor molecule, acceptor atom, score
      L1  H    15    47       P1  8028  2.00

> <Gold.PLP.Chemscore.Internal.Correction>
0.0443

> <Gold.Rescore>
     Score         DG    S(hbond)    S(metal)    S(lipo)     H(rot)  DE(clash)    DE(int)     intcor
     17.19     -18.53       1.00        0.00     126.48       1.99       0.37       0.97       ----

> <Gold.Chemscore.Fitness>
17.1904

> <Gold.Chemscore.DG>
-18.5293

> <Gold.Chemscore.ZeroCoef>
-5.4800

> <Gold.Chemscore.Hbond>
0.9988

> <Gold.Chemscore.Metal>
0.0000

> <Gold.Chemscore.Lipo>
126.4811

> <Gold.Chemscore.Internal_Hbond>
0.0000

> <Gold.Chemscore.DEClash>
0.3676

> <Gold.Chemscore.DEInternal>
0.9713

> <Gold.Chemscore.Rot>
1.9863

> <Gold.Chemscore.Internal.Correction>
   9.000000E+99

> <Gold.Chemscore.Hbonds>
donor molecule, donor type, donor heavy atom, donor atom, acceptor molecule, acceptor atom, score
      L1  H    15    47       P1  8028  1.00

> <Gold.Chemscore.Hbond.Weighted>
-3.3360

> <Gold.Chemscore.Metal.Weighted>
-0.0000

> <Gold.Chemscore.Lipo.Weighted>
-14.7983

> <Gold.Chemscore.Internal_Hbond.Weighted>
0.0000

> <Gold.Chemscore.DEClash.Weighted>
0.3676

> <Gold.Chemscore.DEInternal.Weighted>
0.9713

> <Gold.Chemscore.Rot.Weighted>
5.0850

> <Gold.Chemscore.Internal.Correction.Weighted>
   9.000000E+99

> <Gold.Protein.RotatedTorsions>
[ 6907 6896 6895 6894 ] final  129.85 input  -60.11 | X-H torsion
[ 7974 7965 7964 7962 ] final -135.16 input  175.53 | X-H torsion
[ 8008 7997 7996 7995 ] final   49.64 input   59.86 | X-H torsion
[ 10167 10162 10161 10158 ] final  -70.44 input  -65.29 | X-H torsion
[ 10718 10713 10712 10709 ] final -143.52 input   66.30 | X-H torsion
[ 10763 10752 10751 10750 ] final  165.90 input  -60.55 | X-H torsion
[ 11005 11000 10999 10996 ] final   23.88 input  -57.11 | X-H torsion

> <Gold.Protein.ActiveResidues>
 VAL166  LYS551  ARG553  GLY616  TRP617  ASP618  TYR619  PRO620  LYS621  CYS622 
 ASP623  PHE694  ASN695  SER759  ASP760  ASP761  ALA762  ILE779  LEU786  VAL792 
 PHE793  MET794  SER795  GLU796  ALA797  LYS798  CYS799  TRP800  GLU811  SER814 

> <Gold.Protein.RotatedAtoms>
  152.3584  133.6265  159.5996 H   0  0  0  0  0  0  0  0  0  0  0  0  # atno 6907 bound_to 6896
  150.7584  133.9464  159.3481 H   0  0  0  0  0  0  0  0  0  0  0  0  # atno 6908 bound_to 6896
  151.7305  135.0876  160.0350 H   0  0  0  0  0  0  0  0  0  0  0  0  # atno 6909 bound_to 6896
  144.9039  140.6807  143.5068 H   0  0  0  0  0  0  0  0  0  0  0  0  # atno 7974 bound_to 7965
  155.4056  140.3440  155.4260 H   0  0  0  0  0  0  0  0  0  0  0  0  # atno 8008 bound_to 7997
  156.1479  140.1562  156.8850 H   0  0  0  0  0  0  0  0  0  0  0  0  # atno 8009 bound_to 7997
  154.5026  140.0810  156.7810 H   0  0  0  0  0  0  0  0  0  0  0  0  # atno 8010 bound_to 7997
  140.5352  143.2318  151.7189 H   0  0  0  0  0  0  0  0  0  0  0  0  # atno 10167 bound_to 10162
  156.3590  130.7728  151.1893 H   0  0  0  0  0  0  0  0  0  0  0  0  # atno 10718 bound_to 10713
  154.3309  135.2755  155.2472 H   0  0  0  0  0  0  0  0  0  0  0  0  # atno 10763 bound_to 10752
  154.4784  135.5865  153.6375 H   0  0  0  0  0  0  0  0  0  0  0  0  # atno 10764 bound_to 10752
  152.9866  135.6105  154.3501 H   0  0  0  0  0  0  0  0  0  0  0  0  # atno 10765 bound_to 10752
  140.3648  134.2086  155.7670 H   0  0  0  0  0  0  0  0  0  0  0  0  # atno 11005 bound_to 11000
  145.3570  139.1691  143.4404 LP  0  0  0  0  0  0  0  0  0  0  0  0  # atno 17320 bound_to 7965
  146.3123  140.3628  142.8666 LP  0  0  0  0  0  0  0  0  0  0  0  0  # atno 17321 bound_to 7965
  139.4968  144.4053  152.0138 LP  0  0  0  0  0  0  0  0  0  0  0  0  # atno 17342 bound_to 10162
  140.3158  144.3485  150.6022 LP  0  0  0  0  0  0  0  0  0  0  0  0  # atno 17343 bound_to 10162
  157.7471  131.0405  150.4604 LP  0  0  0  0  0  0  0  0  0  0  0  0  # atno 17370 bound_to 10713
  156.4811  130.4074  149.6461 LP  0  0  0  0  0  0  0  0  0  0  0  0  # atno 17371 bound_to 10713
  141.1973  133.8063  157.0634 LP  0  0  0  0  0  0  0  0  0  0  0  0  # atno 17394 bound_to 11000
  140.0598  134.9761  157.1284 LP  0  0  0  0  0  0  0  0  0  0  0  0  # atno 17395 bound_to 11000

$$$$
