AV-unprocessed.smi:2803|AV-procd|sdf|10808|dock5
  -GOLD-   2272015243D 1   1.00000     0.00000
 Structure written by MMmdl.
 42 43  0  0  0  0  0  0  0  0  1 V2000
  148.9671  139.4699  156.9147 C   0  0  0  0  0  0  0  0  0  0  0  0
  150.4655  139.8102  157.0440 C   0  0  2  0  0  0  0  0  0  0  0  0
  151.0253  139.8680  155.6811 C   0  0  0  0  0  0  0  0  0  0  0  0
  151.4662  139.9106  154.6117 N   0  0  0  0  0  0  0  0  0  0  0  0
  151.1595  138.7303  157.7505 N   0  0  0  0  0  0  0  0  0  0  0  0
  152.4459  138.6820  158.1342 C   0  0  0  0  0  0  0  0  0  0  0  0
  153.2549  139.5867  157.9269 O   0  0  0  0  0  0  0  0  0  0  0  0
  152.8820  137.3924  158.8417 C   0  0  0  0  0  0  0  0  0  0  0  0
  153.3935  137.6248  160.1937 N   0  0  0  0  0  0  0  0  0  0  0  0
  153.5658  138.8769  160.7311 C   0  0  0  0  0  0  0  0  0  0  0  0
  154.0265  138.8216  161.9319 N   0  0  0  0  0  0  0  0  0  0  0  0
  154.1514  137.4813  162.1687 N   0  0  0  0  0  0  0  0  0  0  0  0
  154.6658  137.0003  163.4766 C   0  0  0  0  0  0  0  0  0  0  0  0
  153.5654  136.1973  164.2037 C   0  0  0  0  0  0  0  0  0  0  0  0
  155.0878  138.1711  164.3991 C   0  0  0  0  0  0  0  0  0  0  0  0
  155.9049  136.1066  163.2511 C   0  0  0  0  0  0  0  0  0  0  0  0
  153.7650  136.7388  161.1127 C   0  0  0  0  0  0  0  0  0  0  0  0
  153.7537  135.5129  161.0029 O   0  0  0  0  0  0  0  0  0  0  0  0
  150.6278  141.1760  157.7198 C   0  0  0  0  0  0  0  0  0  0  0  0
  149.6382  142.3032  157.5234 C   0  0  0  0  0  0  0  0  0  0  0  0
  151.0378  142.4173  156.9601 C   0  0  0  0  0  0  0  0  0  0  0  0
  148.4527  140.2062  156.2959 H   0  0  0  0  0  0  0  0  0  0  0  0
  148.4632  139.4559  157.8812 H   0  0  0  0  0  0  0  0  0  0  0  0
  148.8206  138.4944  156.4500 H   0  0  0  0  0  0  0  0  0  0  0  0
  150.5918  137.9248  157.9712 H   0  0  0  0  0  0  0  0  0  0  0  0
  152.0349  136.7069  158.9029 H   0  0  0  0  0  0  0  0  0  0  0  0
  153.6343  136.8964  158.2263 H   0  0  0  0  0  0  0  0  0  0  0  0
  153.3150  139.7598  160.1406 H   0  0  0  0  0  0  0  0  0  0  0  0
  153.8991  135.8762  165.1910 H   0  0  0  0  0  0  0  0  0  0  0  0
  153.2808  135.2979  163.6582 H   0  0  0  0  0  0  0  0  0  0  0  0
  152.6654  136.7976  164.3417 H   0  0  0  0  0  0  0  0  0  0  0  0
  154.2505  138.8344  164.6199 H   0  0  0  0  0  0  0  0  0  0  0  0
  155.8828  138.7704  163.9533 H   0  0  0  0  0  0  0  0  0  0  0  0
  155.4636  137.8041  165.3548 H   0  0  0  0  0  0  0  0  0  0  0  0
  156.3360  135.7839  164.1992 H   0  0  0  0  0  0  0  0  0  0  0  0
  156.6823  136.6405  162.7036 H   0  0  0  0  0  0  0  0  0  0  0  0
  155.6668  135.2038  162.6889 H   0  0  0  0  0  0  0  0  0  0  0  0
  151.0207  141.1065  158.7320 H   0  0  0  0  0  0  0  0  0  0  0  0
  148.8226  142.1612  156.8175 H   0  0  0  0  0  0  0  0  0  0  0  0
  149.3962  142.9127  158.3917 H   0  0  0  0  0  0  0  0  0  0  0  0
  151.7247  143.1002  157.4551 H   0  0  0  0  0  0  0  0  0  0  0  0
  151.1529  142.3478  155.8804 H   0  0  0  0  0  0  0  0  0  0  0  0
  1  2  1  0  0  0  0
  1 22  1  0  0  0  0
  1 23  1  0  0  0  0
  1 24  1  0  0  0  0
  2  3  1  0  0  0  0
  2  5  1  0  0  0  0
  2 19  1  0  0  0  0
  3  4  3  0  0  0  0
  5  6  1  0  0  0  0
  5 25  1  0  0  0  0
  6  7  2  0  0  0  0
  6  8  1  0  0  0  0
  8  9  1  0  0  0  0
  8 26  1  0  0  0  0
  8 27  1  0  0  0  0
  9 17  1  0  0  0  0
  9 10  1  0  0  0  0
 10 11  2  0  0  0  0
 10 28  1  0  0  0  0
 11 12  1  0  0  0  0
 12 13  1  0  0  0  0
 12 17  1  0  0  0  0
 13 14  1  0  0  0  0
 13 15  1  0  0  0  0
 13 16  1  0  0  0  0
 14 29  1  0  0  0  0
 14 30  1  0  0  0  0
 14 31  1  0  0  0  0
 15 32  1  0  0  0  0
 15 33  1  0  0  0  0
 15 34  1  0  0  0  0
 16 35  1  0  0  0  0
 16 36  1  0  0  0  0
 16 37  1  0  0  0  0
 17 18  2  0  0  0  0
 19 21  1  0  0  0  0
 19 20  1  0  0  0  0
 19 38  1  0  0  0  0
 20 21  1  0  0  0  0
 20 39  1  0  0  0  0
 20 40  1  0  0  0  0
 21 41  1  0  0  0  0
 21 42  1  0  0  0  0
M  END
> <s_m_source_file>
AV-unprocessed.smi

> <i_m_source_file_index>
2803

> <i_lp_mmshare_version>
43012

> <i_f3d_flags>
0

> <s_epik_input>
W0NIMl0xW0NIMl1bQ0hdMVtDQF0oW0NIM10pKEMjTilbTkhdQyg9TylbQ0gyXW4yW2NIXW5uKGMyPU8pQyhbQ0gzXSkoW0NIM10pW0NIM10=

> <s_epik_cmdline>
J2VwaWtfcHl0aG9uJywgJy1waCcsICc3LjAnLCAnLXRuJywgJzgnLCAnLW1hJywgJzIwMCcsICctbWV0YWxfYmluZGluZycsICctaW1hZScsICc8aW5maWxlLm1hZT4nLCAnLW9tYWUnLCAnPG91dGZpbGUubWFlPic=

> <r_lp_tautomer_probability>
1

> <r_epik_Ionization_Penalty>
4.88615e-06

> <r_epik_Ionization_Penalty_Charging>
4.80261e-08

> <r_epik_Ionization_Penalty_Neutral>
4.83813e-06

> <r_epik_State_Penalty>
-0

> <r_epik_Charging_Adjusted_Penalty>
4.80261e-08

> <i_epik_Tot_Q>
0

> <i_epik_Tot_abs_Q>
0

> <r_epik_Metal_State_Penalty>
-0

> <b_epik_Metal_Only>
0

> <s_lp_Force_Field>
OPLS_2005

> <r_lp_Energy>
31.1455

> <b_lp_Chiralities_Consistent>
1

> <s_lp_Variant>
AV-unprocessed.smi:2803-2

> <Gold.Version>
5.8.1

> <Gold.Id.Protein>
6NUR|6NUR_protein|mol2

> <Gold.PLP.Fitness>
38.3051

> <Gold.PLP.PLP>
-30.9038

> <Gold.PLP.part.hbond>
-2.9709

> <Gold.PLP.part.metal>
0.0000

> <Gold.PLP.part.buried>
-4.3969

> <Gold.PLP.part.nonpolar>
-23.7885

> <Gold.PLP.part.repulsive>
0.1154

> <Gold.PLP.ligand.clash>
0.0000

> <Gold.PLP.ligand.torsion>
1.5667

> <Gold.PLP.Chemscore.Hbond>
3.0000

> <Gold.PLP.Chemscore.CHOScore>
0.0000

> <Gold.PLP.Chemscore.Metal>
0.0000

> <Gold.Chemscore.Hbonds>
donor molecule, donor type, donor heavy atom, donor atom, acceptor molecule, acceptor atom, score
      P1  H  6896  6909       L1    18  1.00
      P1  H  7989  7998       L1     4  0.86
      P1  H  7997  8009       L1     7  1.00

> <Gold.PLP.Chemscore.Internal.Correction>
1.5346

> <Gold.Rescore>
     Score         DG    S(hbond)    S(metal)    S(lipo)     H(rot)  DE(clash)    DE(int)     intcor
     15.18     -16.73       2.91        0.00      57.95       2.05       0.03       1.52       ----

> <Gold.Chemscore.Fitness>
15.1813

> <Gold.Chemscore.DG>
-16.7304

> <Gold.Chemscore.ZeroCoef>
-5.4800

> <Gold.Chemscore.Hbond>
2.9063

> <Gold.Chemscore.Metal>
0.0000

> <Gold.Chemscore.Lipo>
57.9518

> <Gold.Chemscore.Internal_Hbond>
0.0000

> <Gold.Chemscore.DEClash>
0.0295

> <Gold.Chemscore.DEInternal>
1.5196

> <Gold.Chemscore.Rot>
2.0457

> <Gold.Chemscore.Internal.Correction>
   9.000000E+99

> <Gold.Chemscore.Hbonds>
donor molecule, donor type, donor heavy atom, donor atom, acceptor molecule, acceptor atom, score
      P1  H  6896  6909       L1    18  0.94
      P1  H  7989  7998       L1     4  0.84
      P1  H  7997  8009       L1     7  0.98

> <Gold.Chemscore.Hbond.Weighted>
-9.7070

> <Gold.Chemscore.Metal.Weighted>
-0.0000

> <Gold.Chemscore.Lipo.Weighted>
-6.7804

> <Gold.Chemscore.Internal_Hbond.Weighted>
0.0000

> <Gold.Chemscore.DEClash.Weighted>
0.0295

> <Gold.Chemscore.DEInternal.Weighted>
1.5196

> <Gold.Chemscore.Rot.Weighted>
5.2370

> <Gold.Chemscore.Internal.Correction.Weighted>
   9.000000E+99

> <Gold.Protein.RotatedTorsions>
[ 6907 6896 6895 6894 ] final  179.73 input  -60.11 | X-H torsion
[ 7974 7965 7964 7962 ] final  106.69 input  175.53 | X-H torsion
[ 8008 7997 7996 7995 ] final  142.80 input   59.86 | X-H torsion
[ 10167 10162 10161 10158 ] final  -84.46 input  -65.29 | X-H torsion
[ 10718 10713 10712 10709 ] final -140.52 input   66.30 | X-H torsion
[ 10763 10752 10751 10750 ] final   84.78 input  -60.55 | X-H torsion
[ 11005 11000 10999 10996 ] final -132.31 input  -57.11 | X-H torsion

> <Gold.Protein.ActiveResidues>
 VAL166  LYS551  ARG553  GLY616  TRP617  ASP618  TYR619  PRO620  LYS621  CYS622 
 ASP623  PHE694  ASN695  SER759  ASP760  ASP761  ALA762  ILE779  LEU786  VAL792 
 PHE793  MET794  SER795  GLU796  ALA797  LYS798  CYS799  TRP800  GLU811  SER814 

> <Gold.Protein.RotatedAtoms>
  151.6669  133.3315  159.3187 H   0  0  0  0  0  0  0  0  0  0  0  0  # atno 6907 bound_to 6896
  150.7886  134.6895  159.6498 H   0  0  0  0  0  0  0  0  0  0  0  0  # atno 6908 bound_to 6896
  152.3961  134.6366  160.0140 H   0  0  0  0  0  0  0  0  0  0  0  0  # atno 6909 bound_to 6896
  145.3033  139.2562  143.3802 H   0  0  0  0  0  0  0  0  0  0  0  0  # atno 7974 bound_to 7965
  156.2942  140.2279  156.4787 H   0  0  0  0  0  0  0  0  0  0  0  0  # atno 8008 bound_to 7997
  154.7871  140.0456  157.1194 H   0  0  0  0  0  0  0  0  0  0  0  0  # atno 8009 bound_to 7997
  154.9689  140.3064  155.5000 H   0  0  0  0  0  0  0  0  0  0  0  0  # atno 8010 bound_to 7997
  140.4130  143.2615  151.8992 H   0  0  0  0  0  0  0  0  0  0  0  0  # atno 10167 bound_to 10162
  156.3233  130.7546  151.1649 H   0  0  0  0  0  0  0  0  0  0  0  0  # atno 10718 bound_to 10713
  153.1414  135.4641  154.9501 H   0  0  0  0  0  0  0  0  0  0  0  0  # atno 10763 bound_to 10752
  154.7750  135.3170  154.8114 H   0  0  0  0  0  0  0  0  0  0  0  0  # atno 10764 bound_to 10752
  153.8636  135.6910  153.4834 H   0  0  0  0  0  0  0  0  0  0  0  0  # atno 10765 bound_to 10752
  140.9182  134.1479  157.4335 H   0  0  0  0  0  0  0  0  0  0  0  0  # atno 11005 bound_to 11000
  146.3144  140.3553  142.8660 LP  0  0  0  0  0  0  0  0  0  0  0  0  # atno 17320 bound_to 7965
  144.9075  140.7718  143.5828 LP  0  0  0  0  0  0  0  0  0  0  0  0  # atno 17321 bound_to 7965
  139.4782  144.5517  151.8376 LP  0  0  0  0  0  0  0  0  0  0  0  0  # atno 17342 bound_to 10162
  140.4617  144.1713  150.5907 LP  0  0  0  0  0  0  0  0  0  0  0  0  # atno 17343 bound_to 10162
  157.7416  131.0501  150.5084 LP  0  0  0  0  0  0  0  0  0  0  0  0  # atno 17370 bound_to 10713
  156.5239  130.4168  149.6236 LP  0  0  0  0  0  0  0  0  0  0  0  0  # atno 17371 bound_to 10713
  139.8770  134.9961  156.5779 LP  0  0  0  0  0  0  0  0  0  0  0  0  # atno 17394 bound_to 11000
  140.8022  133.8496  155.8737 LP  0  0  0  0  0  0  0  0  0  0  0  0  # atno 17395 bound_to 11000

$$$$
