AV-unprocessed.smi:2904|AV-procd|sdf|11160|dock9
  -GOLD-   2272016 43D 1   1.00000     0.00000
 Structure written by MMmdl.
 39 40  0  0  0  0  0  0  0  0  1 V2000
  151.8706  139.0776  154.9135 C   0  0  0  0  0  0  0  0  0  0  0  0
  151.7188  140.0590  156.0400 C   0  0  0  0  0  0  0  0  0  0  0  0
  152.4719  139.9277  157.1187 N   0  0  0  0  0  0  0  0  0  0  0  0
  152.1159  140.9553  157.9176 N   0  0  0  0  0  0  0  0  0  0  0  0
  152.7397  141.0958  159.2224 C   0  0  0  0  0  0  0  0  0  0  0  0
  153.6817  140.1659  159.3752 F   0  0  0  0  0  0  0  0  0  0  0  0
  153.2741  142.3105  159.3586 F   0  0  0  0  0  0  0  0  0  0  0  0
  151.1083  141.7149  157.3542 C   0  0  0  0  0  0  0  0  0  0  0  0
  150.5177  142.8969  158.0517 C   0  0  0  0  0  0  0  0  0  0  0  0
  150.8294  141.1695  156.1293 C   0  0  0  0  0  0  0  0  0  0  0  0
  149.8207  141.6207  155.0996 C   0  0  0  0  0  0  0  0  0  0  0  0
  148.3796  141.4025  155.5782 C   0  0  0  0  0  0  0  0  0  0  0  0
  147.9721  140.2831  155.8938 O   0  0  0  0  0  0  0  0  0  0  0  0
  147.6107  142.5008  155.6256 N   0  0  0  0  0  0  0  0  0  0  0  0
  146.2142  142.5328  156.0502 C   0  0  0  0  0  0  0  0  0  0  0  0
  145.3518  143.1913  154.9636 C   0  0  0  0  0  0  0  0  0  0  0  0
  143.9042  143.3647  155.4514 C   0  0  0  0  0  0  0  0  0  0  0  0
  143.8845  144.1223  156.6567 O   0  0  0  0  0  0  0  0  0  0  0  0
  144.5743  143.4828  157.7255 C   0  0  0  0  0  0  0  0  0  0  0  0
  146.0595  143.3125  157.3671 C   0  0  0  0  0  0  0  0  0  0  0  0
  151.7171  139.5609  153.9482 H   0  0  0  0  0  0  0  0  0  0  0  0
  151.1436  138.2701  155.0005 H   0  0  0  0  0  0  0  0  0  0  0  0
  152.8657  138.6316  154.9019 H   0  0  0  0  0  0  0  0  0  0  0  0
  152.0031  140.9692  160.0154 H   0  0  0  0  0  0  0  0  0  0  0  0
  149.6785  143.3099  157.4924 H   0  0  0  0  0  0  0  0  0  0  0  0
  151.2602  143.6864  158.1679 H   0  0  0  0  0  0  0  0  0  0  0  0
  150.1554  142.6217  159.0424 H   0  0  0  0  0  0  0  0  0  0  0  0
  149.9513  142.6783  154.8676 H   0  0  0  0  0  0  0  0  0  0  0  0
  149.9543  141.0902  154.1568 H   0  0  0  0  0  0  0  0  0  0  0  0
  148.0228  143.3803  155.3492 H   0  0  0  0  0  0  0  0  0  0  0  0
  145.8560  141.5117  156.1966 H   0  0  0  0  0  0  0  0  0  0  0  0
  145.7612  144.1691  154.7053 H   0  0  0  0  0  0  0  0  0  0  0  0
  145.3697  142.5931  154.0520 H   0  0  0  0  0  0  0  0  0  0  0  0
  143.3157  143.8873  154.6973 H   0  0  0  0  0  0  0  0  0  0  0  0
  143.4286  142.3958  155.6106 H   0  0  0  0  0  0  0  0  0  0  0  0
  144.4737  144.0927  158.6235 H   0  0  0  0  0  0  0  0  0  0  0  0
  144.1142  142.5180  157.9437 H   0  0  0  0  0  0  0  0  0  0  0  0
  146.5814  142.8017  158.1771 H   0  0  0  0  0  0  0  0  0  0  0  0
  146.5194  144.2971  157.2715 H   0  0  0  0  0  0  0  0  0  0  0  0
  1  2  1  0  0  0  0
  1 21  1  0  0  0  0
  1 22  1  0  0  0  0
  1 23  1  0  0  0  0
  2 10  1  0  0  0  0
  2  3  2  0  0  0  0
  3  4  1  0  0  0  0
  4  5  1  0  0  0  0
  4  8  1  0  0  0  0
  5  6  1  0  0  0  0
  5  7  1  0  0  0  0
  5 24  1  0  0  0  0
  8  9  1  0  0  0  0
  8 10  2  0  0  0  0
  9 25  1  0  0  0  0
  9 26  1  0  0  0  0
  9 27  1  0  0  0  0
 10 11  1  0  0  0  0
 11 12  1  0  0  0  0
 11 28  1  0  0  0  0
 11 29  1  0  0  0  0
 12 13  2  0  0  0  0
 12 14  1  0  0  0  0
 14 15  1  0  0  0  0
 14 30  1  0  0  0  0
 15 20  1  0  0  0  0
 15 16  1  0  0  0  0
 15 31  1  0  0  0  0
 16 17  1  0  0  0  0
 16 32  1  0  0  0  0
 16 33  1  0  0  0  0
 17 18  1  0  0  0  0
 17 34  1  0  0  0  0
 17 35  1  0  0  0  0
 18 19  1  0  0  0  0
 19 20  1  0  0  0  0
 19 36  1  0  0  0  0
 19 37  1  0  0  0  0
 20 38  1  0  0  0  0
 20 39  1  0  0  0  0
M  END
> <s_m_source_file>
AV-unprocessed.smi

> <i_m_source_file_index>
2904

> <i_lp_mmshare_version>
43012

> <i_f3d_flags>
0

> <s_epik_input>
W0NIM11jMW5uKFtDSF0oRilGKWMoW0NIM10pYzFbQ0gyXUMoPU8pW05IXVtDSF0yW0NIMl1bQ0gyXU9bQ0gyXVtDSDJdMg==

> <s_epik_cmdline>
J2VwaWtfcHl0aG9uJywgJy1waCcsICc3LjAnLCAnLXRuJywgJzgnLCAnLW1hJywgJzIwMCcsICctbWV0YWxfYmluZGluZycsICctaW1hZScsICc8aW5maWxlLm1hZT4nLCAnLW9tYWUnLCAnPG91dGZpbGUubWFlPic=

> <r_lp_tautomer_probability>
1

> <r_epik_Ionization_Penalty>
3.9362e-07

> <r_epik_Ionization_Penalty_Charging>
0

> <r_epik_Ionization_Penalty_Neutral>
3.9362e-07

> <r_epik_State_Penalty>
-0

> <r_epik_Charging_Adjusted_Penalty>
0

> <i_epik_Tot_Q>
0

> <i_epik_Tot_abs_Q>
0

> <r_epik_Metal_State_Penalty>
-0

> <b_epik_Metal_Only>
0

> <s_lp_Force_Field>
OPLS_2005

> <r_lp_Energy>
7.93396

> <b_lp_Chiralities_Consistent>
1

> <s_lp_Variant>
AV-unprocessed.smi:2904-1

> <Gold.Version>
5.8.1

> <Gold.Id.Protein>
6NUR|6NUR_protein|mol2

> <Gold.PLP.Fitness>
40.5882

> <Gold.PLP.PLP>
-34.8569

> <Gold.PLP.part.hbond>
-2.0000

> <Gold.PLP.part.metal>
0.0000

> <Gold.PLP.part.buried>
-4.5332

> <Gold.PLP.part.nonpolar>
-29.5208

> <Gold.PLP.part.repulsive>
0.1128

> <Gold.PLP.ligand.clash>
0.0000

> <Gold.PLP.ligand.torsion>
0.1440

> <Gold.PLP.Chemscore.Hbond>
2.0000

> <Gold.PLP.Chemscore.CHOScore>
0.0000

> <Gold.PLP.Chemscore.Metal>
0.0000

> <Gold.Chemscore.Hbonds>
donor molecule, donor type, donor heavy atom, donor atom, acceptor molecule, acceptor atom, score
      L1  H    14    30       P1  8028  1.00
      P1  H  7997  8009       L1     3  1.00

> <Gold.PLP.Chemscore.Internal.Correction>
0.0192

> <Gold.Rescore>
     Score         DG    S(hbond)    S(metal)    S(lipo)     H(rot)  DE(clash)    DE(int)     intcor
     14.17     -14.69       1.46        0.00      68.65       1.44       0.34       0.18       ----

> <Gold.Chemscore.Fitness>
14.1715

> <Gold.Chemscore.DG>
-14.6885

> <Gold.Chemscore.ZeroCoef>
-5.4800

> <Gold.Chemscore.Hbond>
1.4573

> <Gold.Chemscore.Metal>
0.0000

> <Gold.Chemscore.Lipo>
68.6539

> <Gold.Chemscore.Internal_Hbond>
0.0000

> <Gold.Chemscore.DEClash>
0.3362

> <Gold.Chemscore.DEInternal>
0.1808

> <Gold.Chemscore.Rot>
1.4419

> <Gold.Chemscore.Internal.Correction>
   9.000000E+99

> <Gold.Chemscore.Hbonds>
donor molecule, donor type, donor heavy atom, donor atom, acceptor molecule, acceptor atom, score
      L1  H    14    30       P1  8028  0.67
      P1  H  7997  8009       L1     3  0.46

> <Gold.Chemscore.Hbond.Weighted>
-4.8673

> <Gold.Chemscore.Metal.Weighted>
-0.0000

> <Gold.Chemscore.Lipo.Weighted>
-8.0325

> <Gold.Chemscore.Internal_Hbond.Weighted>
0.0000

> <Gold.Chemscore.DEClash.Weighted>
0.3362

> <Gold.Chemscore.DEInternal.Weighted>
0.1808

> <Gold.Chemscore.Rot.Weighted>
3.6913

> <Gold.Chemscore.Internal.Correction.Weighted>
   9.000000E+99

> <Gold.Protein.RotatedTorsions>
[ 6907 6896 6895 6894 ] final  -10.34 input  -60.11 | X-H torsion
[ 7974 7965 7964 7962 ] final   76.34 input  175.53 | X-H torsion
[ 8008 7997 7996 7995 ] final -173.20 input   59.86 | X-H torsion
[ 10167 10162 10161 10158 ] final   49.39 input  -65.29 | X-H torsion
[ 10718 10713 10712 10709 ] final  -11.56 input   66.30 | X-H torsion
[ 10763 10752 10751 10750 ] final   23.82 input  -60.55 | X-H torsion
[ 11005 11000 10999 10996 ] final    8.97 input  -57.11 | X-H torsion

> <Gold.Protein.ActiveResidues>
 VAL166  LYS551  ARG553  GLY616  TRP617  ASP618  TYR619  PRO620  LYS621  CYS622 
 ASP623  PHE694  ASN695  SER759  ASP760  ASP761  ALA762  ILE779  LEU786  VAL792 
 PHE793  MET794  SER795  GLU796  ALA797  LYS798  CYS799  TRP800  GLU811  SER814 

> <Gold.Protein.RotatedAtoms>
  151.4035  135.0974  159.9562 H   0  0  0  0  0  0  0  0  0  0  0  0  # atno 6907 bound_to 6896
  152.5043  133.8865  159.7383 H   0  0  0  0  0  0  0  0  0  0  0  0  # atno 6908 bound_to 6896
  150.9344  133.6672  159.2832 H   0  0  0  0  0  0  0  0  0  0  0  0  # atno 6909 bound_to 6896
  145.7041  139.2592  143.1688 H   0  0  0  0  0  0  0  0  0  0  0  0  # atno 7974 bound_to 7965
  155.9544  140.1132  157.0949 H   0  0  0  0  0  0  0  0  0  0  0  0  # atno 8008 bound_to 7997
  154.4117  140.1194  156.5162 H   0  0  0  0  0  0  0  0  0  0  0  0  # atno 8009 bound_to 7997
  155.6801  140.3473  155.4854 H   0  0  0  0  0  0  0  0  0  0  0  0  # atno 8010 bound_to 7997
  140.2833  144.3131  150.6258 H   0  0  0  0  0  0  0  0  0  0  0  0  # atno 10167 bound_to 10162
  156.6572  130.4971  149.6042 H   0  0  0  0  0  0  0  0  0  0  0  0  # atno 10718 bound_to 10713
  153.0809  135.6618  154.0046 H   0  0  0  0  0  0  0  0  0  0  0  0  # atno 10763 bound_to 10752
  153.9668  135.2968  155.3431 H   0  0  0  0  0  0  0  0  0  0  0  0  # atno 10764 bound_to 10752
  154.7209  135.5165  153.8881 H   0  0  0  0  0  0  0  0  0  0  0  0  # atno 10765 bound_to 10752
  140.5309  134.0467  155.7873 H   0  0  0  0  0  0  0  0  0  0  0  0  # atno 11005 bound_to 11000
  146.0772  140.7804  142.9659 LP  0  0  0  0  0  0  0  0  0  0  0  0  # atno 17320 bound_to 7965
  144.6960  140.3432  143.7195 LP  0  0  0  0  0  0  0  0  0  0  0  0  # atno 17321 bound_to 7965
  140.5793  143.2174  151.7457 LP  0  0  0  0  0  0  0  0  0  0  0  0  # atno 17342 bound_to 10162
  139.4957  144.4103  152.0087 LP  0  0  0  0  0  0  0  0  0  0  0  0  # atno 17343 bound_to 10162
  156.2039  130.6637  151.1197 LP  0  0  0  0  0  0  0  0  0  0  0  0  # atno 17370 bound_to 10713
  157.7121  131.0728  150.6461 LP  0  0  0  0  0  0  0  0  0  0  0  0  # atno 17371 bound_to 10713
  141.1282  133.9348  157.2592 LP  0  0  0  0  0  0  0  0  0  0  0  0  # atno 17394 bound_to 11000
  139.9554  135.0166  156.9114 LP  0  0  0  0  0  0  0  0  0  0  0  0  # atno 17395 bound_to 11000

$$$$
