AV-unprocessed.smi:910|AV-procd|sdf|4124|dock2
  -GOLD-   22720 2 23D 1   1.00000     0.00000
 Structure written by MMmdl.
 46 47  0  0  0  0  0  0  0  0  1 V2000
  150.1935  130.9011  154.7822 C   0  0  0  0  0  0  0  0  0  0  0  0
  149.7207  132.3241  154.5812 C   0  0  0  0  0  0  0  0  0  0  0  0
  150.3754  133.3911  155.1313 N   0  0  0  0  0  0  0  0  0  0  0  0
  149.7001  134.5533  154.7658 C   0  0  0  0  0  0  0  0  0  0  0  0
  149.9047  135.8105  155.0154 N   0  0  0  0  0  0  0  0  0  0  0  0
  150.9741  136.1932  155.8124 C   0  0  0  0  0  0  0  0  0  0  0  0
  151.7529  135.4753  156.4476 O   0  0  0  0  0  0  0  0  0  0  0  0
  151.0964  137.5289  155.8077 N   0  0  0  0  0  0  0  0  0  0  0  0
  152.1228  138.2915  156.5115 C   0  0  0  0  0  0  0  0  0  0  0  0
  151.6948  139.7483  156.7398 C   0  0  0  0  0  0  0  0  0  0  0  0
  152.5347  140.3224  157.7303 O   0  0  0  0  0  0  0  0  0  0  0  0
  151.9390  141.3817  158.4680 C   0  0  2  0  0  0  0  0  0  0  0  0
  151.3584  142.4257  157.4912 C   0  0  0  0  0  0  0  0  0  0  0  0
  150.8287  143.6611  158.2338 C   0  0  0  0  0  0  0  0  0  0  0  0
  151.9196  144.2831  159.1168 C   0  0  0  0  0  0  0  0  0  0  0  0
  152.4918  143.2482  160.0975 C   0  0  0  0  0  0  0  0  0  0  0  0
  153.0324  142.0033  159.3655 C   0  0  1  0  0  0  0  0  0  0  0  0
  153.5918  140.9818  160.3703 C   0  0  0  0  0  0  0  0  0  0  0  0
  148.6397  134.1516  153.9928 O   0  0  0  0  0  0  0  0  0  0  0  0
  148.6783  132.7929  153.9004 C   0  0  0  0  0  0  0  0  0  0  0  0
  147.6098  132.0875  153.0962 C   0  0  0  0  0  0  0  0  0  0  0  0
  150.4326  130.4444  153.8217 H   0  0  0  0  0  0  0  0  0  0  0  0
  149.4136  130.3086  155.2606 H   0  0  0  0  0  0  0  0  0  0  0  0
  151.0847  130.8688  155.4097 H   0  0  0  0  0  0  0  0  0  0  0  0
  151.2044  133.3046  155.7014 H   0  0  0  0  0  0  0  0  0  0  0  0
  150.4337  138.0593  155.2609 H   0  0  0  0  0  0  0  0  0  0  0  0
  152.3149  137.8075  157.4694 H   0  0  0  0  0  0  0  0  0  0  0  0
  153.0596  138.2562  155.9532 H   0  0  0  0  0  0  0  0  0  0  0  0
  151.7768  140.3038  155.8058 H   0  0  0  0  0  0  0  0  0  0  0  0
  150.6503  139.7909  157.0519 H   0  0  0  0  0  0  0  0  0  0  0  0
  151.1442  140.9987  159.1113 H   0  0  0  0  0  0  0  0  0  0  0  0
  152.1304  142.7321  156.7842 H   0  0  0  0  0  0  0  0  0  0  0  0
  150.5540  141.9901  156.8991 H   0  0  0  0  0  0  0  0  0  0  0  0
  150.4650  144.3979  157.5171 H   0  0  0  0  0  0  0  0  0  0  0  0
  149.9738  143.3796  158.8500 H   0  0  0  0  0  0  0  0  0  0  0  0
  152.7209  144.6746  158.4888 H   0  0  0  0  0  0  0  0  0  0  0  0
  151.5137  145.1327  159.6667 H   0  0  0  0  0  0  0  0  0  0  0  0
  153.2849  143.7071  160.6886 H   0  0  0  0  0  0  0  0  0  0  0  0
  151.7147  142.9518  160.8034 H   0  0  0  0  0  0  0  0  0  0  0  0
  153.8557  142.3229  158.7246 H   0  0  0  0  0  0  0  0  0  0  0  0
  152.8139  140.6213  161.0439 H   0  0  0  0  0  0  0  0  0  0  0  0
  154.3811  141.4237  160.9789 H   0  0  0  0  0  0  0  0  0  0  0  0
  154.0184  140.1156  159.8636 H   0  0  0  0  0  0  0  0  0  0  0  0
  147.2975  131.1715  153.5979 H   0  0  0  0  0  0  0  0  0  0  0  0
  147.9906  131.8296  152.1079 H   0  0  0  0  0  0  0  0  0  0  0  0
  146.7365  132.7289  152.9751 H   0  0  0  0  0  0  0  0  0  0  0  0
  1 22  1  0  0  0  0
  1 23  1  0  0  0  0
  1 24  1  0  0  0  0
  1  2  1  0  0  0  0
  2  3  1  0  0  0  0
  2 20  2  0  0  0  0
  3 25  1  0  0  0  0
  3  4  1  0  0  0  0
  4 19  1  0  0  0  0
  4  5  2  0  0  0  0
  5  6  1  0  0  0  0
  6  8  1  0  0  0  0
  6  7  2  0  0  0  0
  8  9  1  0  0  0  0
  8 26  1  0  0  0  0
  9 10  1  0  0  0  0
  9 27  1  0  0  0  0
  9 28  1  0  0  0  0
 10 11  1  0  0  0  0
 10 29  1  0  0  0  0
 10 30  1  0  0  0  0
 11 12  1  0  0  0  0
 12 17  1  0  0  0  0
 12 13  1  0  0  0  0
 12 31  1  0  0  0  0
 13 14  1  0  0  0  0
 13 32  1  0  0  0  0
 13 33  1  0  0  0  0
 14 15  1  0  0  0  0
 14 34  1  0  0  0  0
 14 35  1  0  0  0  0
 15 16  1  0  0  0  0
 15 36  1  0  0  0  0
 15 37  1  0  0  0  0
 16 17  1  0  0  0  0
 16 38  1  0  0  0  0
 16 39  1  0  0  0  0
 17 18  1  0  0  0  0
 17 40  1  0  0  0  0
 18 41  1  0  0  0  0
 18 42  1  0  0  0  0
 18 43  1  0  0  0  0
 19 20  1  0  0  0  0
 20 21  1  0  0  0  0
 21 44  1  0  0  0  0
 21 45  1  0  0  0  0
 21 46  1  0  0  0  0
M  END
> <s_m_source_file>
AV-unprocessed.smi

> <i_m_source_file_index>
910

> <i_lp_mmshare_version>
43012

> <i_f3d_flags>
0

> <s_epik_input>
W0NIM11jMW5jKG9jMVtDSDNdKVtOSF1DKD1PKVtOSF1bQ0gyXVtDSDJdT1tDQEBIXTJbQ0gyXVtDSDJdW0NIMl1bQ0gyXVtDQEhdMltDSDNd

> <s_epik_cmdline>
J2VwaWtfcHl0aG9uJywgJy1waCcsICc3LjAnLCAnLXRuJywgJzgnLCAnLW1hJywgJzIwMCcsICctbWV0YWxfYmluZGluZycsICctaW1hZScsICc8aW5maWxlLm1hZT4nLCAnLW9tYWUnLCAnPG91dGZpbGUubWFlPic=

> <r_lp_tautomer_probability>
0.107061

> <r_epik_Ionization_Penalty>
0.727192

> <r_epik_Ionization_Penalty_Charging>
0.726719

> <r_epik_Ionization_Penalty_Neutral>
0.000473387

> <r_epik_State_Penalty>
2.53712

> <r_epik_Charging_Adjusted_Penalty>
3.26383

> <i_epik_Tot_Q>
0

> <i_epik_Tot_abs_Q>
0

> <r_epik_Metal_State_Penalty>
3.71015

> <b_epik_Metal_Only>
0

> <s_lp_Force_Field>
OPLS_2005

> <r_lp_Energy>
31.238

> <b_lp_Chiralities_Consistent>
1

> <s_lp_Variant>
AV-unprocessed.smi:910-9

> <Gold.Version>
5.8.1

> <Gold.Id.Protein>
6NUR|6NUR_protein|mol2

> <Gold.PLP.Fitness>
43.9917

> <Gold.PLP.PLP>
-39.2530

> <Gold.PLP.part.hbond>
-2.0000

> <Gold.PLP.part.metal>
0.0000

> <Gold.PLP.part.buried>
-4.4213

> <Gold.PLP.part.nonpolar>
-33.5237

> <Gold.PLP.part.repulsive>
1.1785

> <Gold.PLP.ligand.clash>
0.0000

> <Gold.PLP.ligand.torsion>
0.4140

> <Gold.PLP.Chemscore.Hbond>
1.8437

> <Gold.PLP.Chemscore.CHOScore>
0.0000

> <Gold.PLP.Chemscore.Metal>
0.0000

> <Gold.Chemscore.Hbonds>
donor molecule, donor type, donor heavy atom, donor atom, acceptor molecule, acceptor atom, score
      P1  H  7997  8009       L1    11  0.70
      P1  H 10752 10764       L1     7  0.65

> <Gold.PLP.Chemscore.Internal.Correction>
0.0356

> <Gold.Rescore>
     Score         DG    S(hbond)    S(metal)    S(lipo)     H(rot)  DE(clash)    DE(int)     intcor
     17.04     -19.06       1.73        0.00     103.05       1.66       0.26       1.76       ----

> <Gold.Chemscore.Fitness>
17.0386

> <Gold.Chemscore.DG>
-19.0604

> <Gold.Chemscore.ZeroCoef>
-5.4800

> <Gold.Chemscore.Hbond>
1.7265

> <Gold.Chemscore.Metal>
0.0000

> <Gold.Chemscore.Lipo>
103.0550

> <Gold.Chemscore.Internal_Hbond>
0.0000

> <Gold.Chemscore.DEClash>
0.2627

> <Gold.Chemscore.DEInternal>
1.7591

> <Gold.Chemscore.Rot>
1.6576

> <Gold.Chemscore.Internal.Correction>
   9.000000E+99

> <Gold.Chemscore.Hbonds>
donor molecule, donor type, donor heavy atom, donor atom, acceptor molecule, acceptor atom, score
      P1  H  7997  8009       L1    11  0.15
      P1  H 10752 10764       L1     7  0.05

> <Gold.Chemscore.Hbond.Weighted>
-5.7666

> <Gold.Chemscore.Metal.Weighted>
-0.0000

> <Gold.Chemscore.Lipo.Weighted>
-12.0574

> <Gold.Chemscore.Internal_Hbond.Weighted>
0.0000

> <Gold.Chemscore.DEClash.Weighted>
0.2627

> <Gold.Chemscore.DEInternal.Weighted>
1.7591

> <Gold.Chemscore.Rot.Weighted>
4.2436

> <Gold.Chemscore.Internal.Correction.Weighted>
   9.000000E+99

> <Gold.Protein.RotatedTorsions>
[ 6907 6896 6895 6894 ] final -126.98 input  -60.11 | X-H torsion
[ 7974 7965 7964 7962 ] final   36.32 input  175.53 | X-H torsion
[ 8008 7997 7996 7995 ] final  172.98 input   59.86 | X-H torsion
[ 10167 10162 10161 10158 ] final -169.37 input  -65.29 | X-H torsion
[ 10718 10713 10712 10709 ] final -118.13 input   66.30 | X-H torsion
[ 10763 10752 10751 10750 ] final  -35.39 input  -60.55 | X-H torsion
[ 11005 11000 10999 10996 ] final  122.03 input  -57.11 | X-H torsion

> <Gold.Protein.ActiveResidues>
 VAL166  LYS551  ARG553  GLY616  TRP617  ASP618  TYR619  PRO620  LYS621  CYS622 
 ASP623  PHE694  ASN695  SER759  ASP760  ASP761  ALA762  ILE779  LEU786  VAL792 
 PHE793  MET794  SER795  GLU796  ALA797  LYS798  CYS799  TRP800  GLU811  SER814 

> <Gold.Protein.RotatedAtoms>
  150.9025  133.7100  159.2874 H   0  0  0  0  0  0  0  0  0  0  0  0  # atno 6907 bound_to 6896
  151.4613  135.1037  159.9735 H   0  0  0  0  0  0  0  0  0  0  0  0  # atno 6908 bound_to 6896
  152.4885  133.8388  159.7197 H   0  0  0  0  0  0  0  0  0  0  0  0  # atno 6909 bound_to 6896
  146.1220  139.6033  142.9283 H   0  0  0  0  0  0  0  0  0  0  0  0  # atno 7974 bound_to 7965
  156.1120  140.1472  156.9325 H   0  0  0  0  0  0  0  0  0  0  0  0  # atno 8008 bound_to 7997
  154.4774  140.0890  156.7338 H   0  0  0  0  0  0  0  0  0  0  0  0  # atno 8009 bound_to 7997
  155.4579  140.3437  155.4311 H   0  0  0  0  0  0  0  0  0  0  0  0  # atno 8010 bound_to 7997
  139.5927  144.1178  152.1653 H   0  0  0  0  0  0  0  0  0  0  0  0  # atno 10167 bound_to 10162
  156.1084  130.6229  150.9252 H   0  0  0  0  0  0  0  0  0  0  0  0  # atno 10718 bound_to 10713
  153.8624  135.6839  153.4781 H   0  0  0  0  0  0  0  0  0  0  0  0  # atno 10763 bound_to 10752
  153.1334  135.4688  154.9382 H   0  0  0  0  0  0  0  0  0  0  0  0  # atno 10764 bound_to 10752
  154.7752  135.3251  154.8056 H   0  0  0  0  0  0  0  0  0  0  0  0  # atno 10765 bound_to 10752
  139.9251  134.9640  156.8048 H   0  0  0  0  0  0  0  0  0  0  0  0  # atno 11005 bound_to 11000
  145.5446  141.0418  143.2312 LP  0  0  0  0  0  0  0  0  0  0  0  0  # atno 17320 bound_to 7965
  144.7606  139.6966  143.7236 LP  0  0  0  0  0  0  0  0  0  0  0  0  # atno 17321 bound_to 7965
  140.0756  144.5743  150.7159 LP  0  0  0  0  0  0  0  0  0  0  0  0  # atno 17342 bound_to 10162
  140.7186  143.2568  151.4352 LP  0  0  0  0  0  0  0  0  0  0  0  0  # atno 17343 bound_to 10162
  157.6263  131.0925  150.8527 LP  0  0  0  0  0  0  0  0  0  0  0  0  # atno 17370 bound_to 10713
  156.8642  130.5124  149.5301 LP  0  0  0  0  0  0  0  0  0  0  0  0  # atno 17371 bound_to 10713
  140.6360  133.9862  155.7684 LP  0  0  0  0  0  0  0  0  0  0  0  0  # atno 17394 bound_to 11000
  141.0802  134.0074  157.3397 LP  0  0  0  0  0  0  0  0  0  0  0  0  # atno 17395 bound_to 11000

$$$$
