AV-unprocessed.smi:1995|AV-procd|sdf|8083|dock3
  -GOLD-   2272010293D 1   1.00000     0.00000
 Structure written by MMmdl.
 42 43  0  0  0  0  0  0  0  0  3 V2000
  148.9197  131.6587  153.7367 C   0  0  0  0  0  0  0  0  0  0  0  0
  148.3915  133.0645  153.4011 C   0  0  0  0  0  0  0  0  0  0  0  0
  148.5039  134.1332  154.5307 C   0  0  2  0  0  0  0  0  0  0  0  0
  150.0015  134.3820  154.8554 C   0  0  0  0  0  0  0  0  0  0  0  0
  147.8365  133.6114  155.8392 C   0  0  0  0  0  0  0  0  0  0  0  0
  148.3656  134.2739  157.0331 N   0  0  0  0  0  0  0  0  0  0  0  0
  148.1743  133.9044  158.3073 C   0  0  0  0  0  0  0  0  0  0  0  0
  147.5904  132.8504  158.5660 O   0  0  0  0  0  0  0  0  0  0  0  0
  148.6455  134.7973  159.2046 N   0  5  0  0  0  0  0  0  0  0  0  0
  148.1050  134.8592  160.4323 C   0  0  0  0  0  0  0  0  0  0  0  0
  147.4862  133.8218  161.0082 N   0  0  0  0  0  0  0  0  0  0  0  0
  146.9983  134.1065  162.2850 C   0  0  0  0  0  0  0  0  0  0  0  0
  147.2457  135.3922  162.6870 C   0  0  0  0  0  0  0  0  0  0  0  0
  148.1043  136.2892  161.4673 S   0  0  0  0  0  0  0  0  0  0  0  0
  147.8292  135.4202  154.1202 N   0  3  0  0  0  0  0  0  0  0  0  0
  146.4369  135.3268  153.5998 C   0  0  0  0  0  0  0  0  0  0  0  0
  145.9954  136.6855  153.0243 C   0  0  0  0  0  0  0  0  0  0  0  0
  146.1175  137.7037  154.0089 O   0  0  0  0  0  0  0  0  0  0  0  0
  147.4589  137.8467  154.4568 C   0  0  0  0  0  0  0  0  0  0  0  0
  147.9070  136.5309  155.1088 C   0  0  0  0  0  0  0  0  0  0  0  0
  148.7616  130.9847  152.8946 H   0  0  0  0  0  0  0  0  0  0  0  0
  148.4076  131.2253  154.5951 H   0  0  0  0  0  0  0  0  0  0  0  0
  149.9894  131.6629  153.9443 H   0  0  0  0  0  0  0  0  0  0  0  0
  148.9179  133.4172  152.5137 H   0  0  0  0  0  0  0  0  0  0  0  0
  147.3497  132.9463  153.1031 H   0  0  0  0  0  0  0  0  0  0  0  0
  150.4541  133.5247  155.3541 H   0  0  0  0  0  0  0  0  0  0  0  0
  150.1354  135.2344  155.5227 H   0  0  0  0  0  0  0  0  0  0  0  0
  150.5901  134.5650  153.9558 H   0  0  0  0  0  0  0  0  0  0  0  0
  146.7508  133.7006  155.7944 H   0  0  0  0  0  0  0  0  0  0  0  0
  148.0251  132.5452  155.9633 H   0  0  0  0  0  0  0  0  0  0  0  0
  148.8720  135.1342  156.8814 H   0  0  0  0  0  0  0  0  0  0  0  0
  146.4845  133.3334  162.8365 H   0  0  0  0  0  0  0  0  0  0  0  0
  146.9763  135.8647  163.6196 H   0  0  0  0  0  0  0  0  0  0  0  0
  146.3485  134.5983  152.7962 H   0  0  0  0  0  0  0  0  0  0  0  0
  145.7613  135.0142  154.3969 H   0  0  0  0  0  0  0  0  0  0  0  0
  146.5904  136.9444  152.1467 H   0  0  0  0  0  0  0  0  0  0  0  0
  144.9564  136.6346  152.6984 H   0  0  0  0  0  0  0  0  0  0  0  0
  148.1136  138.1189  153.6270 H   0  0  0  0  0  0  0  0  0  0  0  0
  147.5040  138.6603  155.1808 H   0  0  0  0  0  0  0  0  0  0  0  0
  147.2625  136.3218  155.9634 H   0  0  0  0  0  0  0  0  0  0  0  0
  148.9162  136.6496  155.4978 H   0  0  0  0  0  0  0  0  0  0  0  0
  148.3749  135.7327  153.3284 H   0  0  0  0  0  0  0  0  0  0  0  0
  1  2  1  0  0  0  0
  1 21  1  0  0  0  0
  1 22  1  0  0  0  0
  1 23  1  0  0  0  0
  2  3  1  0  0  0  0
  2 24  1  0  0  0  0
  2 25  1  0  0  0  0
  3  4  1  0  0  0  0
  3  5  1  0  0  0  0
  3 15  1  0  0  0  0
  4 26  1  0  0  0  0
  4 27  1  0  0  0  0
  4 28  1  0  0  0  0
  5  6  1  0  0  0  0
  5 29  1  0  0  0  0
  5 30  1  0  0  0  0
  6  7  1  0  0  0  0
  6 31  1  0  0  0  0
  7  8  2  0  0  0  0
  7  9  1  0  0  0  0
  9 10  1  0  0  0  0
 10 14  1  0  0  0  0
 10 11  2  0  0  0  0
 11 12  1  0  0  0  0
 12 13  2  0  0  0  0
 12 32  1  0  0  0  0
 13 14  1  0  0  0  0
 13 33  1  0  0  0  0
 15 20  1  0  0  0  0
 15 16  1  0  0  0  0
 15 42  1  0  0  0  0
 16 17  1  0  0  0  0
 16 34  1  0  0  0  0
 16 35  1  0  0  0  0
 17 18  1  0  0  0  0
 17 36  1  0  0  0  0
 17 37  1  0  0  0  0
 18 19  1  0  0  0  0
 19 20  1  0  0  0  0
 19 38  1  0  0  0  0
 19 39  1  0  0  0  0
 20 40  1  0  0  0  0
 20 41  1  0  0  0  0
M  CHG  1   9  -1
M  CHG  1  15   1
M  END
> <s_m_source_file>
AV-unprocessed.smi

> <i_m_source_file_index>
1995

> <i_lp_mmshare_version>
43012

> <i_f3d_flags>
0

> <s_epik_input>
W0NIMl0xW0NIMl1PW0NIMl1bQ0gyXU4xW0NAQF0oW0NIM10pKFtDSDJdW0NIM10pW0NIMl1bTkhdQyg9TylbTkhdYzJuW2NIXVtjSF1zMg==

> <s_epik_cmdline>
J2VwaWtfcHl0aG9uJywgJy1waCcsICc3LjAnLCAnLXRuJywgJzgnLCAnLW1hJywgJzIwMCcsICctbWV0YWxfYmluZGluZycsICctaW1hZScsICc8aW5maWxlLm1hZT4nLCAnLW9tYWUnLCAnPG91dGZpbGUubWFlPic=

> <r_lp_tautomer_probability>
0.999

> <r_epik_Ionization_Penalty>
8.09417

> <r_epik_Ionization_Penalty_Charging>
6.70334

> <r_epik_Ionization_Penalty_Neutral>
1.39083

> <r_epik_State_Penalty>
6.86521

> <r_epik_Charging_Adjusted_Penalty>
13.5685

> <i_epik_Tot_Q>
0

> <i_epik_Tot_abs_Q>
2

> <r_epik_Metal_State_Penalty>
2.79608

> <b_epik_Metal_Only>
1

> <s_lp_Force_Field>
OPLS_2005

> <r_lp_Energy>
20.9753

> <b_lp_Chiralities_Consistent>
1

> <s_lp_Variant>
AV-unprocessed.smi:1995-8

> <Gold.Version>
5.8.1

> <Gold.Id.Protein>
6NUR|6NUR_protein|mol2

> <Gold.PLP.Fitness>
38.4011

> <Gold.PLP.PLP>
-28.4332

> <Gold.PLP.part.hbond>
-2.0000

> <Gold.PLP.part.metal>
0.0000

> <Gold.PLP.part.buried>
-2.5508

> <Gold.PLP.part.nonpolar>
-23.4407

> <Gold.PLP.part.repulsive>
0.1573

> <Gold.PLP.ligand.clash>
0.8743

> <Gold.PLP.ligand.torsion>
0.7864

> <Gold.PLP.Chemscore.Hbond>
4.0000

> <Gold.PLP.Chemscore.CHOScore>
0.0000

> <Gold.PLP.Chemscore.Metal>
0.0000

> <Gold.Chemscore.Hbonds>
donor molecule, donor type, donor heavy atom, donor atom, acceptor molecule, acceptor atom, score
      L1  H    15    42       P1  7948  2.00
      P1  H  6896  6907       L1     9  1.95

> <Gold.PLP.Chemscore.Internal.Correction>
0.4150

> <Gold.Rescore>
     Score         DG    S(hbond)    S(metal)    S(lipo)     H(rot)  DE(clash)    DE(int)     intcor
     10.43     -13.44       1.64        0.00      59.45       1.75       0.00       3.01       ----

> <Gold.Chemscore.Fitness>
10.4283

> <Gold.Chemscore.DG>
-13.4414

> <Gold.Chemscore.ZeroCoef>
-5.4800

> <Gold.Chemscore.Hbond>
1.6444

> <Gold.Chemscore.Metal>
0.0000

> <Gold.Chemscore.Lipo>
59.4450

> <Gold.Chemscore.Internal_Hbond>
0.0000

> <Gold.Chemscore.DEClash>
0.0000

> <Gold.Chemscore.DEInternal>
3.0130

> <Gold.Chemscore.Rot>
1.7523

> <Gold.Chemscore.Internal.Correction>
   9.000000E+99

> <Gold.Chemscore.Hbonds>
donor molecule, donor type, donor heavy atom, donor atom, acceptor molecule, acceptor atom, score
      L1  H    15    42       P1  7948  1.00
      P1  H  6896  6907       L1     9  0.28

> <Gold.Chemscore.Hbond.Weighted>
-5.4922

> <Gold.Chemscore.Metal.Weighted>
-0.0000

> <Gold.Chemscore.Lipo.Weighted>
-6.9551

> <Gold.Chemscore.Internal_Hbond.Weighted>
0.0000

> <Gold.Chemscore.DEClash.Weighted>
0.0000

> <Gold.Chemscore.DEInternal.Weighted>
3.0130

> <Gold.Chemscore.Rot.Weighted>
4.4858

> <Gold.Chemscore.Internal.Correction.Weighted>
   9.000000E+99

> <Gold.Protein.RotatedTorsions>
[ 6907 6896 6895 6894 ] final  -84.13 input  -60.11 | X-H torsion
[ 7974 7965 7964 7962 ] final -179.32 input  175.53 | X-H torsion
[ 8008 7997 7996 7995 ] final -121.27 input   59.86 | X-H torsion
[ 10167 10162 10161 10158 ] final   59.23 input  -65.29 | X-H torsion
[ 10718 10713 10712 10709 ] final   81.10 input   66.30 | X-H torsion
[ 10763 10752 10751 10750 ] final  179.84 input  -60.55 | X-H torsion
[ 11005 11000 10999 10996 ] final -119.59 input  -57.11 | X-H torsion

> <Gold.Protein.ActiveResidues>
 VAL166  LYS551  ARG553  GLY616  TRP617  ASP618  TYR619  PRO620  LYS621  CYS622 
 ASP623  PHE694  ASN695  SER759  ASP760  ASP761  ALA762  ILE779  LEU786  VAL792 
 PHE793  MET794  SER795  GLU796  ALA797  LYS798  CYS799  TRP800  GLU811  SER814 

> <Gold.Protein.RotatedAtoms>
  150.6879  134.3405  159.4865 H   0  0  0  0  0  0  0  0  0  0  0  0  # atno 6907 bound_to 6896
  152.1259  134.9168  160.0570 H   0  0  0  0  0  0  0  0  0  0  0  0  # atno 6908 bound_to 6896
  152.0356  133.3921  159.4352 H   0  0  0  0  0  0  0  0  0  0  0  0  # atno 6909 bound_to 6896
  144.7136  140.0735  143.6428 H   0  0  0  0  0  0  0  0  0  0  0  0  # atno 7974 bound_to 7965
  155.1453  140.0402  157.2808 H   0  0  0  0  0  0  0  0  0  0  0  0  # atno 8008 bound_to 7997
  154.6443  140.2554  155.7259 H   0  0  0  0  0  0  0  0  0  0  0  0  # atno 8009 bound_to 7997
  156.2547  140.2849  156.0850 H   0  0  0  0  0  0  0  0  0  0  0  0  # atno 8010 bound_to 7997
  140.1787  144.4204  150.6626 H   0  0  0  0  0  0  0  0  0  0  0  0  # atno 10167 bound_to 10162
  157.6824  130.9989  150.2177 H   0  0  0  0  0  0  0  0  0  0  0  0  # atno 10718 bound_to 10713
  154.5258  135.2796  155.1223 H   0  0  0  0  0  0  0  0  0  0  0  0  # atno 10763 bound_to 10752
  154.2762  135.6294  153.5333 H   0  0  0  0  0  0  0  0  0  0  0  0  # atno 10764 bound_to 10752
  152.9946  135.5640  154.5759 H   0  0  0  0  0  0  0  0  0  0  0  0  # atno 10765 bound_to 10752
  141.0204  134.0132  157.3290 H   0  0  0  0  0  0  0  0  0  0  0  0  # atno 11005 bound_to 11000
  145.9763  139.2907  143.1069 LP  0  0  0  0  0  0  0  0  0  0  0  0  # atno 17320 bound_to 7965
  145.9061  140.9211  143.0478 LP  0  0  0  0  0  0  0  0  0  0  0  0  # atno 17321 bound_to 7965
  140.6534  143.2231  151.6024 LP  0  0  0  0  0  0  0  0  0  0  0  0  # atno 17342 bound_to 10162
  139.5306  144.2928  152.1138 LP  0  0  0  0  0  0  0  0  0  0  0  0  # atno 17343 bound_to 10162
  156.2835  130.3736  149.7912 LP  0  0  0  0  0  0  0  0  0  0  0  0  # atno 17370 bound_to 10713
  156.5593  130.8376  151.3324 LP  0  0  0  0  0  0  0  0  0  0  0  0  # atno 17371 bound_to 10713
  139.9143  135.0195  156.7817 LP  0  0  0  0  0  0  0  0  0  0  0  0  # atno 17394 bound_to 11000
  140.6582  133.9669  155.7791 LP  0  0  0  0  0  0  0  0  0  0  0  0  # atno 17395 bound_to 11000

$$$$
