AV-unprocessed.smi:1361|AV-procd|sdf|5557|dock10
  -GOLD-   22720 5153D 1   1.00000     0.00000
 Structure written by MMmdl.
 45 46  0  0  0  0  0  0  0  0  2 V2000
  146.0430  136.3859  155.9616 C   0  0  0  0  0  0  0  0  0  0  0  0
  146.6734  137.7580  155.8561 C   0  0  0  0  0  0  0  0  0  0  0  0
  146.6146  138.3896  154.7462 N   0  0  0  0  0  0  0  0  0  0  0  0
  147.1945  139.6653  154.6448 C   0  0  0  0  0  0  0  0  0  0  0  0
  147.0703  140.3421  153.2905 C   0  0  0  0  0  0  0  0  0  0  0  0
  147.8236  140.2416  155.7093 C   0  0  0  0  0  0  0  0  0  0  0  0
  148.4625  141.6284  155.6529 C   0  0  0  0  0  0  0  0  0  0  0  0
  149.9413  141.6840  156.0388 C   0  0  0  0  0  0  0  0  0  0  0  0
  150.7695  141.0304  155.4052 O   0  0  0  0  0  0  0  0  0  0  0  0
  150.2578  142.4700  157.0798 N   0  0  0  0  0  0  0  0  0  0  0  0
  151.6000  142.6769  157.6182 C   0  0  0  0  0  0  0  0  0  0  0  0
  151.7521  141.9069  158.9498 C   0  0  0  0  0  0  0  0  0  0  0  0
  153.0154  142.2550  159.7589 C   0  0  0  0  0  0  0  0  0  0  0  0
  152.7406  142.9626  161.0989 C   0  0  0  0  0  0  0  0  0  0  0  0
  151.6918  144.0944  161.0950 C   0  0  0  0  0  0  0  0  0  0  0  0
  151.9011  145.2144  160.0609 C   0  0  0  0  0  0  0  0  0  0  0  0
  151.1581  145.0238  158.7207 C   0  0  0  0  0  0  0  0  0  0  0  0
  151.9092  144.1924  157.6635 C   0  0  0  0  0  0  0  0  0  0  0  0
  147.8762  139.4768  156.9685 C   0  0  0  0  0  0  0  0  0  0  0  0
  148.4445  139.9422  157.9555 O   0  0  0  0  0  0  0  0  0  0  0  0
  147.2809  138.2501  156.9892 N   0  5  0  0  0  0  0  0  0  0  0  0
  145.7627  136.0056  154.9785 H   0  0  0  0  0  0  0  0  0  0  0  0
  145.1471  136.4311  156.5814 H   0  0  0  0  0  0  0  0  0  0  0  0
  146.7412  135.6801  156.4130 H   0  0  0  0  0  0  0  0  0  0  0  0
  146.5312  141.2853  153.3784 H   0  0  0  0  0  0  0  0  0  0  0  0
  146.5273  139.7132  152.5840 H   0  0  0  0  0  0  0  0  0  0  0  0
  148.0557  140.5406  152.8695 H   0  0  0  0  0  0  0  0  0  0  0  0
  148.3378  142.0241  154.6445 H   0  0  0  0  0  0  0  0  0  0  0  0
  147.9207  142.3309  156.2867 H   0  0  0  0  0  0  0  0  0  0  0  0
  149.5074  142.9700  157.5337 H   0  0  0  0  0  0  0  0  0  0  0  0
  152.3144  142.2502  156.9111 H   0  0  0  0  0  0  0  0  0  0  0  0
  150.8576  142.0250  159.5600 H   0  0  0  0  0  0  0  0  0  0  0  0
  151.7789  140.8409  158.7196 H   0  0  0  0  0  0  0  0  0  0  0  0
  153.5578  141.3335  159.9740 H   0  0  0  0  0  0  0  0  0  0  0  0
  153.7128  142.8438  159.1654 H   0  0  0  0  0  0  0  0  0  0  0  0
  152.4192  142.2147  161.8247 H   0  0  0  0  0  0  0  0  0  0  0  0
  153.6846  143.3523  161.4817 H   0  0  0  0  0  0  0  0  0  0  0  0
  150.6828  143.6916  161.0095 H   0  0  0  0  0  0  0  0  0  0  0  0
  151.7188  144.5477  162.0868 H   0  0  0  0  0  0  0  0  0  0  0  0
  151.5092  146.1295  160.5064 H   0  0  0  0  0  0  0  0  0  0  0  0
  152.9627  145.4076  159.9032 H   0  0  0  0  0  0  0  0  0  0  0  0
  150.1484  144.6445  158.8789 H   0  0  0  0  0  0  0  0  0  0  0  0
  151.0229  146.0195  158.2967 H   0  0  0  0  0  0  0  0  0  0  0  0
  152.9812  144.3653  157.7536 H   0  0  0  0  0  0  0  0  0  0  0  0
  151.6606  144.6001  156.6821 H   0  0  0  0  0  0  0  0  0  0  0  0
  1  2  1  0  0  0  0
  1 22  1  0  0  0  0
  1 23  1  0  0  0  0
  1 24  1  0  0  0  0
  2 21  1  0  0  0  0
  2  3  2  0  0  0  0
  3  4  1  0  0  0  0
  4  5  1  0  0  0  0
  4  6  2  0  0  0  0
  5 25  1  0  0  0  0
  5 26  1  0  0  0  0
  5 27  1  0  0  0  0
  6  7  1  0  0  0  0
  6 19  1  0  0  0  0
  7  8  1  0  0  0  0
  7 28  1  0  0  0  0
  7 29  1  0  0  0  0
  8  9  2  0  0  0  0
  8 10  1  0  0  0  0
 10 11  1  0  0  0  0
 10 30  1  0  0  0  0
 11 18  1  0  0  0  0
 11 12  1  0  0  0  0
 11 31  1  0  0  0  0
 12 13  1  0  0  0  0
 12 32  1  0  0  0  0
 12 33  1  0  0  0  0
 13 14  1  0  0  0  0
 13 34  1  0  0  0  0
 13 35  1  0  0  0  0
 14 15  1  0  0  0  0
 14 36  1  0  0  0  0
 14 37  1  0  0  0  0
 15 16  1  0  0  0  0
 15 38  1  0  0  0  0
 15 39  1  0  0  0  0
 16 17  1  0  0  0  0
 16 40  1  0  0  0  0
 16 41  1  0  0  0  0
 17 18  1  0  0  0  0
 17 42  1  0  0  0  0
 17 43  1  0  0  0  0
 18 44  1  0  0  0  0
 18 45  1  0  0  0  0
 19 20  2  0  0  0  0
 19 21  1  0  0  0  0
M  CHG  1  21  -1
M  END
> <s_m_source_file>
AV-unprocessed.smi

> <i_m_source_file_index>
1361

> <i_lp_mmshare_version>
43012

> <i_f3d_flags>
0

> <s_epik_input>
W0NIM11jMW5jKFtDSDNdKWMoYyg9TylbbkhdMSlbQ0gyXUMoPU8pW05IXVtDSF0yW0NIMl1bQ0gyXVtDSDJdW0NIMl1bQ0gyXVtDSDJdW0NIMl0y

> <s_epik_cmdline>
J2VwaWtfcHl0aG9uJywgJy1waCcsICc3LjAnLCAnLXRuJywgJzgnLCAnLW1hJywgJzIwMCcsICctbWV0YWxfYmluZGluZycsICctaW1hZScsICc8aW5maWxlLm1hZT4nLCAnLW9tYWUnLCAnPG91dGZpbGUubWFlPic=

> <r_lp_tautomer_probability>
0.839158

> <r_epik_Ionization_Penalty>
6.62804

> <r_epik_Ionization_Penalty_Charging>
7.40585e-08

> <r_epik_Ionization_Penalty_Neutral>
6.62804

> <r_epik_State_Penalty>
4.44437

> <r_epik_Charging_Adjusted_Penalty>
4.44437

> <i_epik_Tot_Q>
-1

> <i_epik_Tot_abs_Q>
1

> <r_epik_Metal_State_Penalty>
0.804717

> <b_epik_Metal_Only>
1

> <s_lp_Force_Field>
OPLS_2005

> <r_lp_Energy>
26.9664

> <b_lp_Chiralities_Consistent>
1

> <s_lp_Variant>
AV-unprocessed.smi:1361-3

> <Gold.Version>
5.8.1

> <Gold.Id.Protein>
6NUR|6NUR_protein|mol2

> <Gold.PLP.Fitness>
39.4910

> <Gold.PLP.PLP>
-37.7947

> <Gold.PLP.part.hbond>
-2.4892

> <Gold.PLP.part.metal>
0.0000

> <Gold.PLP.part.buried>
-4.4690

> <Gold.PLP.part.nonpolar>
-30.7882

> <Gold.PLP.part.repulsive>
0.1514

> <Gold.PLP.ligand.clash>
0.0000

> <Gold.PLP.ligand.torsion>
0.1233

> <Gold.PLP.Chemscore.Hbond>
0.6339

> <Gold.PLP.Chemscore.CHOScore>
0.0000

> <Gold.PLP.Chemscore.Metal>
0.0000

> <Gold.Chemscore.Hbonds>
donor molecule, donor type, donor heavy atom, donor atom, acceptor molecule, acceptor atom, score
      P1  H  7989  7998       L1     9  0.61

> <Gold.PLP.Chemscore.Internal.Correction>
0.0412

> <Gold.Rescore>
     Score         DG    S(hbond)    S(metal)    S(lipo)     H(rot)  DE(clash)    DE(int)     intcor
     15.74     -17.20       0.73        0.00     110.80       1.43       0.13       1.32       ----

> <Gold.Chemscore.Fitness>
15.7397

> <Gold.Chemscore.DG>
-17.1981

> <Gold.Chemscore.ZeroCoef>
-5.4800

> <Gold.Chemscore.Hbond>
0.7261

> <Gold.Chemscore.Metal>
0.0000

> <Gold.Chemscore.Lipo>
110.8019

> <Gold.Chemscore.Internal_Hbond>
0.0000

> <Gold.Chemscore.DEClash>
0.1341

> <Gold.Chemscore.DEInternal>
1.3243

> <Gold.Chemscore.Rot>
1.4339

> <Gold.Chemscore.Internal.Correction>
   9.000000E+99

> <Gold.Chemscore.Hbonds>
donor molecule, donor type, donor heavy atom, donor atom, acceptor molecule, acceptor atom, score
      P1  H  7989  7998       L1     9  0.59

> <Gold.Chemscore.Hbond.Weighted>
-2.4251

> <Gold.Chemscore.Metal.Weighted>
-0.0000

> <Gold.Chemscore.Lipo.Weighted>
-12.9638

> <Gold.Chemscore.Internal_Hbond.Weighted>
0.0000

> <Gold.Chemscore.DEClash.Weighted>
0.1341

> <Gold.Chemscore.DEInternal.Weighted>
1.3243

> <Gold.Chemscore.Rot.Weighted>
3.6708

> <Gold.Chemscore.Internal.Correction.Weighted>
   9.000000E+99

> <Gold.Protein.RotatedTorsions>
[ 6907 6896 6895 6894 ] final  -32.88 input  -60.11 | X-H torsion
[ 7974 7965 7964 7962 ] final  119.41 input  175.53 | X-H torsion
[ 8008 7997 7996 7995 ] final  -63.36 input   59.86 | X-H torsion
[ 10167 10162 10161 10158 ] final -155.84 input  -65.29 | X-H torsion
[ 10718 10713 10712 10709 ] final   23.95 input   66.30 | X-H torsion
[ 10763 10752 10751 10750 ] final  132.09 input  -60.55 | X-H torsion
[ 11005 11000 10999 10996 ] final  -55.95 input  -57.11 | X-H torsion

> <Gold.Protein.ActiveResidues>
 VAL166  LYS551  ARG553  GLY616  TRP617  ASP618  TYR619  PRO620  LYS621  CYS622 
 ASP623  PHE694  ASN695  SER759  ASP760  ASP761  ALA762  ILE779  LEU786  VAL792 
 PHE793  MET794  SER795  GLU796  ALA797  LYS798  CYS799  TRP800  GLU811  SER814 

> <Gold.Protein.RotatedAtoms>
  151.0729  134.9810  159.8317 H   0  0  0  0  0  0  0  0  0  0  0  0  # atno 6907 bound_to 6896
  152.5410  134.2276  159.8822 H   0  0  0  0  0  0  0  0  0  0  0  0  # atno 6908 bound_to 6896
  151.2302  133.4411  159.2637 H   0  0  0  0  0  0  0  0  0  0  0  0  # atno 6909 bound_to 6896
  145.1434  139.3254  143.4604 H   0  0  0  0  0  0  0  0  0  0  0  0  # atno 7974 bound_to 7965
  154.4550  140.0976  156.6730 H   0  0  0  0  0  0  0  0  0  0  0  0  # atno 8008 bound_to 7997
  155.5167  140.3478  155.4380 H   0  0  0  0  0  0  0  0  0  0  0  0  # atno 8009 bound_to 7997
  156.0759  140.1361  156.9761 H   0  0  0  0  0  0  0  0  0  0  0  0  # atno 8010 bound_to 7997
  139.6898  143.9439  152.2379 H   0  0  0  0  0  0  0  0  0  0  0  0  # atno 10167 bound_to 10162
  157.1732  130.6769  149.6085 H   0  0  0  0  0  0  0  0  0  0  0  0  # atno 10718 bound_to 10713
  153.7850  135.3163  155.3371 H   0  0  0  0  0  0  0  0  0  0  0  0  # atno 10763 bound_to 10752
  154.8147  135.4644  154.0614 H   0  0  0  0  0  0  0  0  0  0  0  0  # atno 10764 bound_to 10752
  153.1914  135.6909  153.8433 H   0  0  0  0  0  0  0  0  0  0  0  0  # atno 10765 bound_to 10752
  141.1097  133.6611  156.4546 H   0  0  0  0  0  0  0  0  0  0  0  0  # atno 11005 bound_to 11000
  146.3502  140.1481  142.8593 LP  0  0  0  0  0  0  0  0  0  0  0  0  # atno 17320 bound_to 7965
  145.0507  140.9015  143.4997 LP  0  0  0  0  0  0  0  0  0  0  0  0  # atno 17321 bound_to 7965
  139.9252  144.6775  150.8419 LP  0  0  0  0  0  0  0  0  0  0  0  0  # atno 17342 bound_to 10162
  140.7679  143.3347  151.2335 LP  0  0  0  0  0  0  0  0  0  0  0  0  # atno 17343 bound_to 10162
  155.9735  130.4672  150.6316 LP  0  0  0  0  0  0  0  0  0  0  0  0  # atno 17370 bound_to 10713
  157.4024  131.0812  151.1296 LP  0  0  0  0  0  0  0  0  0  0  0  0  # atno 17371 bound_to 10713
  140.4807  134.6667  157.5169 LP  0  0  0  0  0  0  0  0  0  0  0  0  # atno 17394 bound_to 11000
  139.9985  134.6873  155.9569 LP  0  0  0  0  0  0  0  0  0  0  0  0  # atno 17395 bound_to 11000

$$$$
