AV-unprocessed.smi:1708|AV-procd|sdf|6889|dock8
  -GOLD-   22720 8 93D 1   1.00000     0.00000
 Structure written by MMmdl.
 36 38  0  0  0  0  0  0  0  0  1 V2000
  153.6381  140.9165  160.6482 C   0  0  0  0  0  0  0  0  0  0  0  0
  152.8851  141.5315  159.5618 N   0  0  0  0  0  0  0  0  0  0  0  0
  152.5509  140.9657  158.3789 C   0  0  0  0  0  0  0  0  0  0  0  0
  152.8284  139.8221  158.0179 O   0  0  0  0  0  0  0  0  0  0  0  0
  151.8396  141.8711  157.6662 N   0  0  0  0  0  0  0  0  0  0  0  0
  151.2481  141.6561  156.3445 C   0  0  0  0  0  0  0  0  0  0  0  0
  150.3155  140.4259  156.3103 C   0  0  2  0  0  0  0  0  0  0  0  0
  151.1131  139.2640  156.2138 O   0  0  0  0  0  0  0  0  0  0  0  0
  149.2743  140.5073  155.2015 C   0  0  0  0  0  0  0  0  0  0  0  0
  149.1285  139.4520  154.2744 C   0  0  0  0  0  0  0  0  0  0  0  0
  148.1858  139.5475  153.2328 C   0  0  0  0  0  0  0  0  0  0  0  0
  147.3838  140.6985  153.1113 C   0  0  0  0  0  0  0  0  0  0  0  0
  147.5249  141.7540  154.0325 C   0  0  0  0  0  0  0  0  0  0  0  0
  146.7576  142.8631  153.9138 F   0  0  0  0  0  0  0  0  0  0  0  0
  148.4664  141.6581  155.0752 C   0  0  0  0  0  0  0  0  0  0  0  0
  151.7080  143.0480  158.4206 C   0  0  0  0  0  0  0  0  0  0  0  0
  151.0543  144.2622  158.1444 C   0  0  0  0  0  0  0  0  0  0  0  0
  151.0966  145.2623  159.1437 C   0  0  0  0  0  0  0  0  0  0  0  0
  151.7740  145.0370  160.3702 C   0  0  0  0  0  0  0  0  0  0  0  0
  152.4226  143.8057  160.6236 C   0  0  0  0  0  0  0  0  0  0  0  0
  152.3643  142.8302  159.6137 C   0  0  0  0  0  0  0  0  0  0  0  0
  154.0262  139.9347  160.3740 H   0  0  0  0  0  0  0  0  0  0  0  0
  153.0012  140.7957  161.5247 H   0  0  0  0  0  0  0  0  0  0  0  0
  154.4845  141.5459  160.9243 H   0  0  0  0  0  0  0  0  0  0  0  0
  150.6995  142.5488  156.0435 H   0  0  0  0  0  0  0  0  0  0  0  0
  152.0471  141.5382  155.6107 H   0  0  0  0  0  0  0  0  0  0  0  0
  149.7918  140.3587  157.2648 H   0  0  0  0  0  0  0  0  0  0  0  0
  151.8513  139.3586  156.7964 H   0  0  0  0  0  0  0  0  0  0  0  0
  149.7473  138.5702  154.3535 H   0  0  0  0  0  0  0  0  0  0  0  0
  148.0805  138.7390  152.5245 H   0  0  0  0  0  0  0  0  0  0  0  0
  146.6624  140.7722  152.3110 H   0  0  0  0  0  0  0  0  0  0  0  0
  148.5746  142.4768  155.7717 H   0  0  0  0  0  0  0  0  0  0  0  0
  150.5349  144.4299  157.2129 H   0  0  0  0  0  0  0  0  0  0  0  0
  150.6055  146.2086  158.9714 H   0  0  0  0  0  0  0  0  0  0  0  0
  151.7929  145.8140  161.1200 H   0  0  0  0  0  0  0  0  0  0  0  0
  152.9376  143.6246  161.5554 H   0  0  0  0  0  0  0  0  0  0  0  0
  1  2  1  0  0  0  0
  1 22  1  0  0  0  0
  1 23  1  0  0  0  0
  1 24  1  0  0  0  0
  2 21  1  0  0  0  0
  2  3  1  0  0  0  0
  3  4  2  0  0  0  0
  3  5  1  0  0  0  0
  5  6  1  0  0  0  0
  5 16  1  0  0  0  0
  6  7  1  0  0  0  0
  6 25  1  0  0  0  0
  6 26  1  0  0  0  0
  7  8  1  0  0  0  0
  7  9  1  0  0  0  0
  7 27  1  0  0  0  0
  8 28  1  0  0  0  0
  9 15  1  0  0  0  0
  9 10  2  0  0  0  0
 10 11  1  0  0  0  0
 10 29  1  0  0  0  0
 11 12  2  0  0  0  0
 11 30  1  0  0  0  0
 12 13  1  0  0  0  0
 12 31  1  0  0  0  0
 13 14  1  0  0  0  0
 13 15  2  0  0  0  0
 15 32  1  0  0  0  0
 16 21  2  0  0  0  0
 16 17  1  0  0  0  0
 17 18  2  0  0  0  0
 17 33  1  0  0  0  0
 18 19  1  0  0  0  0
 18 34  1  0  0  0  0
 19 20  2  0  0  0  0
 19 35  1  0  0  0  0
 20 21  1  0  0  0  0
 20 36  1  0  0  0  0
M  END
> <s_m_source_file>
AV-unprocessed.smi

> <i_m_source_file_index>
1708

> <i_lp_mmshare_version>
43012

> <i_f3d_flags>
0

> <s_epik_input>
W2NIXTFbY0hdW2NIXVtjSF1jKGMxMiluKFtDSDNdKWMoPU8pbjJbQ0gyXVtDQEhdKFtPSF0pYzNbY0hdW2NIXVtjSF1jKEYpW2NIXTM=

> <s_epik_cmdline>
J2VwaWtfcHl0aG9uJywgJy1waCcsICc3LjAnLCAnLXRuJywgJzgnLCAnLW1hJywgJzIwMCcsICctbWV0YWxfYmluZGluZycsICctaW1hZScsICc8aW5maWxlLm1hZT4nLCAnLW9tYWUnLCAnPG91dGZpbGUubWFlPic=

> <r_lp_tautomer_probability>
1

> <r_epik_Ionization_Penalty>
3.53466e-06

> <r_epik_Ionization_Penalty_Charging>
2.57375e-09

> <r_epik_Ionization_Penalty_Neutral>
3.53208e-06

> <r_epik_State_Penalty>
-0

> <r_epik_Charging_Adjusted_Penalty>
2.57375e-09

> <i_epik_Tot_Q>
0

> <i_epik_Tot_abs_Q>
0

> <r_epik_Metal_State_Penalty>
-0

> <b_epik_Metal_Only>
0

> <s_lp_Force_Field>
OPLS_2005

> <r_lp_Energy>
39.7129

> <b_lp_Chiralities_Consistent>
1

> <s_lp_Variant>
AV-unprocessed.smi:1708-1

> <Gold.Version>
5.8.1

> <Gold.Id.Protein>
6NUR|6NUR_protein|mol2

> <Gold.PLP.Fitness>
51.4727

> <Gold.PLP.PLP>
-49.0734

> <Gold.PLP.part.hbond>
-1.0000

> <Gold.PLP.part.metal>
0.0000

> <Gold.PLP.part.buried>
-2.4750

> <Gold.PLP.part.nonpolar>
-45.2760

> <Gold.PLP.part.repulsive>
0.0000

> <Gold.PLP.ligand.clash>
0.0000

> <Gold.PLP.ligand.torsion>
0.3108

> <Gold.PLP.Chemscore.Hbond>
1.0000

> <Gold.PLP.Chemscore.CHOScore>
0.0000

> <Gold.PLP.Chemscore.Metal>
0.0000

> <Gold.Chemscore.Hbonds>
donor molecule, donor type, donor heavy atom, donor atom, acceptor molecule, acceptor atom, score
      P1  H  7997  8010       L1     4  0.89

> <Gold.PLP.Chemscore.Internal.Correction>
0.0210

> <Gold.Rescore>
     Score         DG    S(hbond)    S(metal)    S(lipo)     H(rot)  DE(clash)    DE(int)     intcor
     17.02     -17.86       0.75        0.00     124.86       1.85       0.50       0.35       ----

> <Gold.Chemscore.Fitness>
17.0175

> <Gold.Chemscore.DG>
-17.8639

> <Gold.Chemscore.ZeroCoef>
-5.4800

> <Gold.Chemscore.Hbond>
0.7491

> <Gold.Chemscore.Metal>
0.0000

> <Gold.Chemscore.Lipo>
124.8627

> <Gold.Chemscore.Internal_Hbond>
0.0000

> <Gold.Chemscore.DEClash>
0.4964

> <Gold.Chemscore.DEInternal>
0.3500

> <Gold.Chemscore.Rot>
1.8465

> <Gold.Chemscore.Internal.Correction>
   9.000000E+99

> <Gold.Chemscore.Hbonds>
donor molecule, donor type, donor heavy atom, donor atom, acceptor molecule, acceptor atom, score
      P1  H  7997  8010       L1     4  0.37

> <Gold.Chemscore.Hbond.Weighted>
-2.5021

> <Gold.Chemscore.Metal.Weighted>
-0.0000

> <Gold.Chemscore.Lipo.Weighted>
-14.6089

> <Gold.Chemscore.Internal_Hbond.Weighted>
0.0000

> <Gold.Chemscore.DEClash.Weighted>
0.4964

> <Gold.Chemscore.DEInternal.Weighted>
0.3500

> <Gold.Chemscore.Rot.Weighted>
4.7270

> <Gold.Chemscore.Internal.Correction.Weighted>
   9.000000E+99

> <Gold.Protein.RotatedTorsions>
[ 6907 6896 6895 6894 ] final -100.02 input  -60.11 | X-H torsion
[ 7974 7965 7964 7962 ] final  -91.73 input  175.53 | X-H torsion
[ 8008 7997 7996 7995 ] final   58.61 input   59.86 | X-H torsion
[ 10167 10162 10161 10158 ] final -120.41 input  -65.29 | X-H torsion
[ 10718 10713 10712 10709 ] final -160.26 input   66.30 | X-H torsion
[ 10763 10752 10751 10750 ] final   54.23 input  -60.55 | X-H torsion
[ 11005 11000 10999 10996 ] final  -37.91 input  -57.11 | X-H torsion

> <Gold.Protein.ActiveResidues>
 VAL166  LYS551  ARG553  GLY616  TRP617  ASP618  TYR619  PRO620  LYS621  CYS622 
 ASP623  PHE694  ASN695  SER759  ASP760  ASP761  ALA762  ILE779  LEU786  VAL792 
 PHE793  MET794  SER795  GLU796  ALA797  LYS798  CYS799  TRP800  GLU811  SER814 

> <Gold.Protein.RotatedAtoms>
  150.7100  134.0952  159.3945 H   0  0  0  0  0  0  0  0  0  0  0  0  # atno 6907 bound_to 6896
  151.8938  135.0404  160.0509 H   0  0  0  0  0  0  0  0  0  0  0  0  # atno 6908 bound_to 6896
  152.2470  133.5147  159.5340 H   0  0  0  0  0  0  0  0  0  0  0  0  # atno 6909 bound_to 6896
  145.4093  140.9544  143.2243 H   0  0  0  0  0  0  0  0  0  0  0  0  # atno 7974 bound_to 7965
  155.5528  140.3486  155.4472 H   0  0  0  0  0  0  0  0  0  0  0  0  # atno 8008 bound_to 7997
  156.0571  140.1331  157.0010 H   0  0  0  0  0  0  0  0  0  0  0  0  # atno 8009 bound_to 7997
  154.4461  140.0993  156.6446 H   0  0  0  0  0  0  0  0  0  0  0  0  # atno 8010 bound_to 7997
  140.0361  143.5199  152.2153 H   0  0  0  0  0  0  0  0  0  0  0  0  # atno 10167 bound_to 10162
  156.5796  130.8723  151.2861 H   0  0  0  0  0  0  0  0  0  0  0  0  # atno 10718 bound_to 10713
  152.9802  135.5752  154.4870 H   0  0  0  0  0  0  0  0  0  0  0  0  # atno 10763 bound_to 10752
  154.4410  135.2776  155.1849 H   0  0  0  0  0  0  0  0  0  0  0  0  # atno 10764 bound_to 10752
  154.3517  135.6208  153.5700 H   0  0  0  0  0  0  0  0  0  0  0  0  # atno 10765 bound_to 10752
  140.9988  133.6966  156.1984 H   0  0  0  0  0  0  0  0  0  0  0  0  # atno 11005 bound_to 11000
  144.8320  139.5613  143.6939 LP  0  0  0  0  0  0  0  0  0  0  0  0  # atno 17320 bound_to 7965
  146.2713  139.6642  142.9294 LP  0  0  0  0  0  0  0  0  0  0  0  0  # atno 17321 bound_to 7965
  139.6044  144.7592  151.3096 LP  0  0  0  0  0  0  0  0  0  0  0  0  # atno 17342 bound_to 10162
  140.7281  143.6946  150.7894 LP  0  0  0  0  0  0  0  0  0  0  0  0  # atno 17343 bound_to 10162
  157.7329  130.9723  150.1954 LP  0  0  0  0  0  0  0  0  0  0  0  0  # atno 17370 bound_to 10713
  156.2643  130.3714  149.8097 LP  0  0  0  0  0  0  0  0  0  0  0  0  # atno 17371 bound_to 10713
  140.6923  134.4653  157.5588 LP  0  0  0  0  0  0  0  0  0  0  0  0  # atno 17394 bound_to 11000
  139.9028  134.8517  156.1826 LP  0  0  0  0  0  0  0  0  0  0  0  0  # atno 17395 bound_to 11000

$$$$
