AV-unprocessed.smi:1546|AV-procd|sdf|6219|dock1
  -GOLD-   22720 6393D 1   1.00000     0.00000
 Structure written by MMmdl.
 29 30  0  0  0  0  0  0  0  0  2 V2000
  149.9280  138.2363  159.5385 O   0  0  0  0  0  0  0  0  0  0  0  0
  150.6130  139.2482  159.3862 C   0  0  0  0  0  0  0  0  0  0  0  0
  150.7617  140.2556  160.5275 C   0  0  0  0  0  0  0  0  0  0  0  0
  150.6981  141.5776  160.0138 O   0  0  0  0  0  0  0  0  0  0  0  0
  151.3355  142.5199  160.8579 C   0  0  0  0  0  0  0  0  0  0  0  0
  151.5704  143.7986  160.0830 C   0  0  0  0  0  0  0  0  0  0  0  0
  150.6129  144.9612  160.2159 C   0  0  0  0  0  0  0  0  0  0  0  0
  150.6697  144.1771  158.9292 C   0  0  0  0  0  0  0  0  0  0  0  0
  151.2580  139.5749  158.2520 N   0  0  0  0  0  0  0  0  0  0  0  0
  151.3212  138.8650  157.0199 C   0  0  0  0  0  0  0  0  0  0  0  0
  151.2216  137.4542  156.9204 C   0  0  0  0  0  0  0  0  0  0  0  0
  151.3016  136.7797  155.7531 N   0  0  0  0  0  0  0  0  0  0  0  0
  151.4930  137.4926  154.6237 C   0  0  0  0  0  0  0  0  0  0  0  0
  151.6221  138.8943  154.6062 C   0  0  0  0  0  0  0  0  0  0  0  0
  151.5399  139.5932  155.8263 C   0  0  0  0  0  0  0  0  0  0  0  0
  151.6700  140.9547  155.8325 O   0  5  0  0  0  0  0  0  0  0  0  0
  149.9647  140.0937  161.2551 H   0  0  0  0  0  0  0  0  0  0  0  0
  151.7160  140.0904  161.0301 H   0  0  0  0  0  0  0  0  0  0  0  0
  150.7183  142.7267  161.7337 H   0  0  0  0  0  0  0  0  0  0  0  0
  152.2949  142.1336  161.2048 H   0  0  0  0  0  0  0  0  0  0  0  0
  152.6217  144.0582  159.9729 H   0  0  0  0  0  0  0  0  0  0  0  0
  149.7350  144.8280  160.8453 H   0  0  0  0  0  0  0  0  0  0  0  0
  151.0373  145.9632  160.2147 H   0  0  0  0  0  0  0  0  0  0  0  0
  151.1335  144.6539  158.0681 H   0  0  0  0  0  0  0  0  0  0  0  0
  149.8317  143.5206  158.7031 H   0  0  0  0  0  0  0  0  0  0  0  0
  151.7069  140.4796  158.2407 H   0  0  0  0  0  0  0  0  0  0  0  0
  151.0960  136.8279  157.7895 H   0  0  0  0  0  0  0  0  0  0  0  0
  151.5513  136.9273  153.7054 H   0  0  0  0  0  0  0  0  0  0  0  0
  151.7823  139.4187  153.6756 H   0  0  0  0  0  0  0  0  0  0  0  0
  1  2  2  0  0  0  0
  2  3  1  0  0  0  0
  2  9  1  0  0  0  0
  3  4  1  0  0  0  0
  3 17  1  0  0  0  0
  3 18  1  0  0  0  0
  4  5  1  0  0  0  0
  5  6  1  0  0  0  0
  5 19  1  0  0  0  0
  5 20  1  0  0  0  0
  6  8  1  0  0  0  0
  6  7  1  0  0  0  0
  6 21  1  0  0  0  0
  7  8  1  0  0  0  0
  7 22  1  0  0  0  0
  7 23  1  0  0  0  0
  8 24  1  0  0  0  0
  8 25  1  0  0  0  0
  9 26  1  0  0  0  0
  9 10  1  0  0  0  0
 10 15  1  0  0  0  0
 10 11  2  0  0  0  0
 11 27  1  0  0  0  0
 11 12  1  0  0  0  0
 12 13  2  0  0  0  0
 13 28  1  0  0  0  0
 13 14  1  0  0  0  0
 14 15  2  0  0  0  0
 14 29  1  0  0  0  0
 15 16  1  0  0  0  0
M  CHG  1  16  -1
M  END
> <s_m_source_file>
AV-unprocessed.smi

> <i_m_source_file_index>
1546

> <i_lp_mmshare_version>
43012

> <i_f3d_flags>
0

> <s_epik_input>
W0NIMl0xW0NIMl1bQ0hdMVtDSDJdT1tDSDJdQyg9TylbTkhdYzJbY0hdbltjSF1bY0hdYzJbT0hd

> <s_epik_cmdline>
J2VwaWtfcHl0aG9uJywgJy1waCcsICc3LjAnLCAnLXRuJywgJzgnLCAnLW1hJywgJzIwMCcsICctbWV0YWxfYmluZGluZycsICctaW1hZScsICc8aW5maWxlLm1hZT4nLCAnLW9tYWUnLCAnPG91dGZpbGUubWFlPic=

> <r_lp_tautomer_probability>
1

> <r_epik_Ionization_Penalty>
6.21828

> <r_epik_Ionization_Penalty_Charging>
1.1523

> <r_epik_Ionization_Penalty_Neutral>
5.06598

> <r_epik_State_Penalty>
5.06586

> <r_epik_Charging_Adjusted_Penalty>
6.21817

> <i_epik_Tot_Q>
-1

> <i_epik_Tot_abs_Q>
1

> <r_epik_Metal_State_Penalty>
1.16681

> <b_epik_Metal_Only>
1

> <s_lp_Force_Field>
OPLS_2005

> <r_lp_Energy>
16.9925

> <b_lp_Chiralities_Consistent>
1

> <s_lp_Variant>
AV-unprocessed.smi:1546-2

> <Gold.Version>
5.8.1

> <Gold.Id.Protein>
6NUR|6NUR_protein|mol2

> <Gold.PLP.Fitness>
40.8036

> <Gold.PLP.PLP>
-34.2821

> <Gold.PLP.part.hbond>
-2.0000

> <Gold.PLP.part.metal>
0.0000

> <Gold.PLP.part.buried>
-4.7415

> <Gold.PLP.part.nonpolar>
-28.8551

> <Gold.PLP.part.repulsive>
0.4836

> <Gold.PLP.ligand.clash>
0.0000

> <Gold.PLP.ligand.torsion>
1.1029

> <Gold.PLP.Chemscore.Hbond>
1.8056

> <Gold.PLP.Chemscore.CHOScore>
0.9061

> <Gold.PLP.Chemscore.Metal>
0.0000

> <Gold.Chemscore.Hbonds>
donor molecule, donor type, donor heavy atom, donor atom, acceptor molecule, acceptor atom, score
      P1  H  7989  7998       L1    16  0.07
      L1  C    13    28       P1  7949  1.00

> <Gold.PLP.Chemscore.Internal.Correction>
0.5920

> <Gold.Rescore>
     Score         DG    S(hbond)    S(metal)    S(lipo)     H(rot)  DE(clash)    DE(int)     intcor
     12.94     -14.65       0.98        0.00      85.68       1.62       0.00       1.71       ----

> <Gold.Chemscore.Fitness>
12.9363

> <Gold.Chemscore.DG>
-14.6460

> <Gold.Chemscore.ZeroCoef>
-5.4800

> <Gold.Chemscore.Hbond>
0.9846

> <Gold.Chemscore.Metal>
0.0000

> <Gold.Chemscore.Lipo>
85.6842

> <Gold.Chemscore.Internal_Hbond>
0.0000

> <Gold.Chemscore.DEClash>
0.0009

> <Gold.Chemscore.DEInternal>
1.7087

> <Gold.Chemscore.Rot>
1.6202

> <Gold.Chemscore.Internal.Correction>
   9.000000E+99

> <Gold.Chemscore.Hbond.Weighted>
-3.2885

> <Gold.Chemscore.Metal.Weighted>
-0.0000

> <Gold.Chemscore.Lipo.Weighted>
-10.0251

> <Gold.Chemscore.Internal_Hbond.Weighted>
0.0000

> <Gold.Chemscore.DEClash.Weighted>
0.0009

> <Gold.Chemscore.DEInternal.Weighted>
1.7087

> <Gold.Chemscore.Rot.Weighted>
4.1476

> <Gold.Chemscore.Internal.Correction.Weighted>
   9.000000E+99

> <Gold.Protein.RotatedTorsions>
[ 6907 6896 6895 6894 ] final -134.60 input  -60.11 | X-H torsion
[ 7974 7965 7964 7962 ] final   31.97 input  175.53 | X-H torsion
[ 8008 7997 7996 7995 ] final  -29.24 input   59.86 | X-H torsion
[ 10167 10162 10161 10158 ] final  -88.12 input  -65.29 | X-H torsion
[ 10718 10713 10712 10709 ] final  -31.15 input   66.30 | X-H torsion
[ 10763 10752 10751 10750 ] final  -48.58 input  -60.55 | X-H torsion
[ 11005 11000 10999 10996 ] final  -38.62 input  -57.11 | X-H torsion

> <Gold.Protein.ActiveResidues>
 VAL166  LYS551  ARG553  GLY616  TRP617  ASP618  TYR619  PRO620  LYS621  CYS622 
 ASP623  PHE694  ASN695  SER759  ASP760  ASP761  ALA762  ILE779  LEU786  VAL792 
 PHE793  MET794  SER795  GLU796  ALA797  LYS798  CYS799  TRP800  GLU811  SER814 

> <Gold.Protein.RotatedAtoms>
  150.9878  133.6180  159.2712 H   0  0  0  0  0  0  0  0  0  0  0  0  # atno 6907 bound_to 6896
  151.3412  135.0863  159.9381 H   0  0  0  0  0  0  0  0  0  0  0  0  # atno 6908 bound_to 6896
  152.5236  133.9488  159.7716 H   0  0  0  0  0  0  0  0  0  0  0  0  # atno 6909 bound_to 6896
  146.1516  139.6587  142.9095 H   0  0  0  0  0  0  0  0  0  0  0  0  # atno 7974 bound_to 7965
  154.4298  140.1823  156.1216 H   0  0  0  0  0  0  0  0  0  0  0  0  # atno 8008 bound_to 7997
  156.0138  140.3348  155.6943 H   0  0  0  0  0  0  0  0  0  0  0  0  # atno 8009 bound_to 7997
  155.6073  140.0646  157.2707 H   0  0  0  0  0  0  0  0  0  0  0  0  # atno 8010 bound_to 7997
  140.3778  143.2763  151.9422 H   0  0  0  0  0  0  0  0  0  0  0  0  # atno 10167 bound_to 10162
  156.3909  130.4372  149.7396 H   0  0  0  0  0  0  0  0  0  0  0  0  # atno 10718 bound_to 10713
  154.0801  135.6592  153.4836 H   0  0  0  0  0  0  0  0  0  0  0  0  # atno 10763 bound_to 10752
  153.0359  135.5178  154.7483 H   0  0  0  0  0  0  0  0  0  0  0  0  # atno 10764 bound_to 10752
  154.6575  135.3010  154.9877 H   0  0  0  0  0  0  0  0  0  0  0  0  # atno 10765 bound_to 10752
  141.0041  133.6940  156.2078 H   0  0  0  0  0  0  0  0  0  0  0  0  # atno 11005 bound_to 11000
  145.4809  141.0438  143.2646 LP  0  0  0  0  0  0  0  0  0  0  0  0  # atno 17320 bound_to 7965
  144.7911  139.6326  143.7113 LP  0  0  0  0  0  0  0  0  0  0  0  0  # atno 17321 bound_to 7965
  139.4798  144.5847  151.7873 LP  0  0  0  0  0  0  0  0  0  0  0  0  # atno 17342 bound_to 10162
  140.4969  144.1228  150.5962 LP  0  0  0  0  0  0  0  0  0  0  0  0  # atno 17343 bound_to 10162
  156.4450  130.7879  151.2900 LP  0  0  0  0  0  0  0  0  0  0  0  0  # atno 17370 bound_to 10713
  157.7499  131.0113  150.3340 LP  0  0  0  0  0  0  0  0  0  0  0  0  # atno 17371 bound_to 10713
  140.6841  134.4736  157.5589 LP  0  0  0  0  0  0  0  0  0  0  0  0  # atno 17394 bound_to 11000
  139.9054  134.8461  156.1727 LP  0  0  0  0  0  0  0  0  0  0  0  0  # atno 17395 bound_to 11000

$$$$
