AV-unprocessed.smi:282|AV-procd|sdf|2121|dock10
  -GOLD-   2262021423D 1   1.00000     0.00000
 Structure written by MMmdl.
 65 69  0  0  0  0  0  0  0  0  2 V2000
  149.8127  141.2917  155.1376 C   0  0  0  0  0  0  0  0  0  0  0  0
  150.9707  141.2212  156.1423 C   0  0  0  0  0  0  0  0  0  0  0  0
  150.5386  141.4009  157.6182 C   0  0  2  0  0  0  0  0  0  0  0  0
  150.3699  142.8783  158.0302 C   0  0  0  0  0  0  0  0  0  0  0  0
  151.6806  143.5718  158.1467 N   0  3  1  0  0  0  0  0  0  0  0  0
  151.5610  145.0231  158.4436 C   0  0  0  0  0  0  0  0  0  0  0  0
  151.1945  145.2859  159.9167 C   0  0  0  0  0  0  0  0  0  0  0  0
  152.1891  144.5992  160.8626 C   0  0  0  0  0  0  0  0  0  0  0  0
  152.2946  143.1030  160.5355 C   0  0  0  0  0  0  0  0  0  0  0  0
  152.6496  142.8821  159.0483 C   0  0  1  0  0  0  0  0  0  0  0  0
  152.7838  141.3881  158.6924 C   0  0  0  0  0  0  0  0  0  0  0  0
  151.4749  140.7537  158.5406 N   0  0  0  0  0  0  0  0  0  0  0  0
  151.4070  139.4010  158.6327 C   0  0  0  0  0  0  0  0  0  0  0  0
  152.5528  138.6756  158.7299 N   0  0  0  0  0  0  0  0  0  0  0  0
  152.5025  137.3428  158.8122 C   0  0  0  0  0  0  0  0  0  0  0  0
  151.4313  136.5479  158.8225 N   0  0  0  0  0  0  0  0  0  0  0  0
  150.2775  137.2704  158.7379 C   0  0  0  0  0  0  0  0  0  0  0  0
  150.1760  138.6864  158.6349 C   0  0  0  0  0  0  0  0  0  0  0  0
  148.8390  139.0607  158.5725 N   0  0  0  0  0  0  0  0  0  0  0  0
  148.1887  137.9308  158.6277 C   0  0  0  0  0  0  0  0  0  0  0  0
  148.9733  136.8060  158.7481 N   0  0  0  0  0  0  0  0  0  0  0  0
  148.5185  135.4266  158.8327 C   0  0  0  0  0  0  0  0  0  0  0  0
  147.6117  135.0848  160.0590 C   0  0  0  0  0  0  0  0  0  0  0  0
  148.0703  135.8632  161.3245 C   0  0  0  0  0  0  0  0  0  0  0  0
  147.4547  137.1285  161.4676 O   0  0  0  0  0  0  0  0  0  0  0  0
  146.1058  135.3485  159.7972 C   0  0  0  0  0  0  0  0  0  0  0  0
  145.5055  134.3805  158.7626 C   0  0  0  0  0  0  0  0  0  0  0  0
  145.6867  133.0383  159.1949 O   0  0  0  0  0  0  0  0  0  0  0  0
  147.0562  132.6774  159.3190 C   0  0  0  0  0  0  0  0  0  0  0  0
  147.7460  133.5718  160.3669 C   0  0  0  0  0  0  0  0  0  0  0  0
  150.1641  141.0611  154.1318 H   0  0  0  0  0  0  0  0  0  0  0  0
  149.3633  142.2835  155.1025 H   0  0  0  0  0  0  0  0  0  0  0  0
  149.0308  140.5738  155.3867 H   0  0  0  0  0  0  0  0  0  0  0  0
  151.4475  140.2472  156.0259 H   0  0  0  0  0  0  0  0  0  0  0  0
  151.7270  141.9581  155.8711 H   0  0  0  0  0  0  0  0  0  0  0  0
  149.5608  140.9329  157.7209 H   0  0  0  0  0  0  0  0  0  0  0  0
  149.7314  143.4080  157.3244 H   0  0  0  0  0  0  0  0  0  0  0  0
  149.8502  142.9181  158.9877 H   0  0  0  0  0  0  0  0  0  0  0  0
  152.5168  145.4981  158.2185 H   0  0  0  0  0  0  0  0  0  0  0  0
  150.8283  145.4820  157.7788 H   0  0  0  0  0  0  0  0  0  0  0  0
  151.1832  146.3592  160.1086 H   0  0  0  0  0  0  0  0  0  0  0  0
  150.1847  144.9305  160.1231 H   0  0  0  0  0  0  0  0  0  0  0  0
  153.1699  145.0660  160.7642 H   0  0  0  0  0  0  0  0  0  0  0  0
  151.8808  144.7377  161.8992 H   0  0  0  0  0  0  0  0  0  0  0  0
  153.0546  142.6461  161.1703 H   0  0  0  0  0  0  0  0  0  0  0  0
  151.3558  142.6058  160.7817 H   0  0  0  0  0  0  0  0  0  0  0  0
  153.6252  143.3404  158.8792 H   0  0  0  0  0  0  0  0  0  0  0  0
  153.3368  141.2801  157.7587 H   0  0  0  0  0  0  0  0  0  0  0  0
  153.3684  140.8800  159.4609 H   0  0  0  0  0  0  0  0  0  0  0  0
  153.4567  136.8418  158.8820 H   0  0  0  0  0  0  0  0  0  0  0  0
  147.1101  137.8878  158.5911 H   0  0  0  0  0  0  0  0  0  0  0  0
  148.0128  135.2034  157.8948 H   0  0  0  0  0  0  0  0  0  0  0  0
  149.4008  134.7855  158.8415 H   0  0  0  0  0  0  0  0  0  0  0  0
  147.8337  135.2992  162.2273 H   0  0  0  0  0  0  0  0  0  0  0  0
  149.1526  135.9967  161.3197 H   0  0  0  0  0  0  0  0  0  0  0  0
  146.8885  137.1029  162.2237 H   0  0  0  0  0  0  0  0  0  0  0  0
  145.5538  135.2295  160.7307 H   0  0  0  0  0  0  0  0  0  0  0  0
  145.9306  136.3774  159.4862 H   0  0  0  0  0  0  0  0  0  0  0  0
  144.4370  134.5685  158.6571 H   0  0  0  0  0  0  0  0  0  0  0  0
  145.9462  134.5228  157.7753 H   0  0  0  0  0  0  0  0  0  0  0  0
  147.1110  131.6345  159.6315 H   0  0  0  0  0  0  0  0  0  0  0  0
  147.5502  132.7336  158.3488 H   0  0  0  0  0  0  0  0  0  0  0  0
  148.7965  133.2933  160.4586 H   0  0  0  0  0  0  0  0  0  0  0  0
  147.2936  133.3516  161.3348 H   0  0  0  0  0  0  0  0  0  0  0  0
  152.0826  143.5148  157.2221 H   0  0  0  0  0  0  0  0  0  0  0  0
  1  2  1  0  0  0  0
  1 31  1  0  0  0  0
  1 32  1  0  0  0  0
  1 33  1  0  0  0  0
  2  3  1  0  0  0  0
  2 34  1  0  0  0  0
  2 35  1  0  0  0  0
  3 12  1  0  0  0  0
  3  4  1  0  0  0  0
  3 36  1  0  0  0  0
  4  5  1  0  0  0  0
  4 37  1  0  0  0  0
  4 38  1  0  0  0  0
  5 10  1  0  0  0  0
  5  6  1  0  0  0  0
  5 65  1  0  0  0  0
  6  7  1  0  0  0  0
  6 39  1  0  0  0  0
  6 40  1  0  0  0  0
  7  8  1  0  0  0  0
  7 41  1  0  0  0  0
  7 42  1  0  0  0  0
  8  9  1  0  0  0  0
  8 43  1  0  0  0  0
  8 44  1  0  0  0  0
  9 10  1  0  0  0  0
  9 45  1  0  0  0  0
  9 46  1  0  0  0  0
 10 11  1  0  0  0  0
 10 47  1  0  0  0  0
 11 12  1  0  0  0  0
 11 48  1  0  0  0  0
 11 49  1  0  0  0  0
 12 13  1  0  0  0  0
 13 18  1  0  0  0  0
 13 14  2  0  0  0  0
 14 15  1  0  0  0  0
 15 16  2  0  0  0  0
 15 50  1  0  0  0  0
 16 17  1  0  0  0  0
 17 21  1  0  0  0  0
 17 18  2  0  0  0  0
 18 19  1  0  0  0  0
 19 20  2  0  0  0  0
 20 21  1  0  0  0  0
 20 51  1  0  0  0  0
 21 22  1  0  0  0  0
 22 23  1  0  0  0  0
 22 52  1  0  0  0  0
 22 53  1  0  0  0  0
 23 30  1  0  0  0  0
 23 24  1  0  0  0  0
 23 26  1  0  0  0  0
 24 25  1  0  0  0  0
 24 54  1  0  0  0  0
 24 55  1  0  0  0  0
 25 56  1  0  0  0  0
 26 27  1  0  0  0  0
 26 57  1  0  0  0  0
 26 58  1  0  0  0  0
 27 28  1  0  0  0  0
 27 59  1  0  0  0  0
 27 60  1  0  0  0  0
 28 29  1  0  0  0  0
 29 30  1  0  0  0  0
 29 61  1  0  0  0  0
 29 62  1  0  0  0  0
 30 63  1  0  0  0  0
 30 64  1  0  0  0  0
M  CHG  1   5   1
M  END
> <s_m_source_file>
AV-unprocessed.smi

> <i_m_source_file_index>
282

> <i_lp_mmshare_version>
43012

> <i_f3d_flags>
0

> <s_epik_input>
W0NIMl0xW0NIMl1bQ0gyXVtDSDJdW0NAQEhdKE4xMilbQ0gyXU4oW0NAQEhdKFtDSDJdMilbQ0gyXVtDSDNdKWMobltjSF1uMyljKGMzNCluW2NIXW40W0NIMl1DNShbQ0gyXVtPSF0pW0NIMl1bQ0gyXU9bQ0gyXVtDSDJdNQ==

> <s_epik_cmdline>
J2VwaWtfcHl0aG9uJywgJy1waCcsICc3LjAnLCAnLXRuJywgJzgnLCAnLW1hJywgJzIwMCcsICctbWV0YWxfYmluZGluZycsICctaW1hZScsICc8aW5maWxlLm1hZT4nLCAnLW9tYWUnLCAnPG91dGZpbGUubWFlPic=

> <r_lp_tautomer_probability>
1

> <r_epik_Ionization_Penalty>
0.00308583

> <r_epik_Ionization_Penalty_Charging>
0.00300384

> <r_epik_Ionization_Penalty_Neutral>
8.19894e-05

> <r_epik_State_Penalty>
-0

> <r_epik_Charging_Adjusted_Penalty>
0.00300384

> <i_epik_Tot_Q>
1

> <i_epik_Tot_abs_Q>
1

> <r_epik_Metal_State_Penalty>
-0

> <b_epik_Metal_Only>
0

> <s_lp_Force_Field>
OPLS_2005

> <r_lp_Energy>
61.1987

> <b_lp_Chiralities_Consistent>
1

> <s_lp_Variant>
AV-unprocessed.smi:282-5

> <Gold.Version>
5.8.1

> <Gold.Id.Protein>
6NUR|6NUR_protein|mol2

> <Gold.PLP.Fitness>
54.6614

> <Gold.PLP.PLP>
-49.4164

> <Gold.PLP.part.hbond>
-4.0000

> <Gold.PLP.part.metal>
0.0000

> <Gold.PLP.part.buried>
-6.9431

> <Gold.PLP.part.nonpolar>
-37.9615

> <Gold.PLP.part.repulsive>
0.0051

> <Gold.PLP.ligand.clash>
0.0000

> <Gold.PLP.ligand.torsion>
1.4799

> <Gold.PLP.Chemscore.Hbond>
2.6408

> <Gold.PLP.Chemscore.CHOScore>
0.0000

> <Gold.PLP.Chemscore.Metal>
0.0000

> <Gold.Chemscore.Hbonds>
donor molecule, donor type, donor heavy atom, donor atom, acceptor molecule, acceptor atom, score
      P1  H  6896  6909       L1    16  0.82
      P1  H  6931  6943       L1    25  0.96
      P1  H  6934  6947       L1    25  0.85

> <Gold.PLP.Chemscore.Internal.Correction>
0.2824

> <Gold.Rescore>
     Score         DG    S(hbond)    S(metal)    S(lipo)     H(rot)  DE(clash)    DE(int)     intcor
     17.86     -20.91       1.83        0.00     128.00       2.20       0.13       2.92       ----

> <Gold.Chemscore.Fitness>
17.8597

> <Gold.Chemscore.DG>
-20.9117

> <Gold.Chemscore.ZeroCoef>
-5.4800

> <Gold.Chemscore.Hbond>
1.8259

> <Gold.Chemscore.Metal>
0.0000

> <Gold.Chemscore.Lipo>
128.0017

> <Gold.Chemscore.Internal_Hbond>
0.0000

> <Gold.Chemscore.DEClash>
0.1323

> <Gold.Chemscore.DEInternal>
2.9197

> <Gold.Chemscore.Rot>
2.2042

> <Gold.Chemscore.Internal.Correction>
   9.000000E+99

> <Gold.Chemscore.Hbonds>
donor molecule, donor type, donor heavy atom, donor atom, acceptor molecule, acceptor atom, score
      P1  H  6896  6909       L1    16  0.71
      P1  H  6931  6943       L1    25  0.18
      P1  H  6934  6947       L1    25  0.18

> <Gold.Chemscore.Hbond.Weighted>
-6.0984

> <Gold.Chemscore.Metal.Weighted>
-0.0000

> <Gold.Chemscore.Lipo.Weighted>
-14.9762

> <Gold.Chemscore.Internal_Hbond.Weighted>
0.0000

> <Gold.Chemscore.DEClash.Weighted>
0.1323

> <Gold.Chemscore.DEInternal.Weighted>
2.9197

> <Gold.Chemscore.Rot.Weighted>
5.6429

> <Gold.Chemscore.Internal.Correction.Weighted>
   9.000000E+99

> <Gold.Protein.RotatedTorsions>
[ 6907 6896 6895 6894 ] final  103.38 input  -60.11 | X-H torsion
[ 7974 7965 7964 7962 ] final  -28.54 input  175.53 | X-H torsion
[ 8008 7997 7996 7995 ] final  -93.85 input   59.86 | X-H torsion
[ 10167 10162 10161 10158 ] final  142.44 input  -65.29 | X-H torsion
[ 10718 10713 10712 10709 ] final   -1.99 input   66.30 | X-H torsion
[ 10763 10752 10751 10750 ] final  -70.25 input  -60.55 | X-H torsion
[ 11005 11000 10999 10996 ] final  -80.59 input  -57.11 | X-H torsion

> <Gold.Protein.ActiveResidues>
 VAL166  LYS551  ARG553  GLY616  TRP617  ASP618  TYR619  PRO620  LYS621  CYS622 
 ASP623  PHE694  ASN695  SER759  ASP760  ASP761  ALA762  ILE779  LEU786  VAL792 
 PHE793  MET794  SER795  GLU796  ALA797  LYS798  CYS799  TRP800  GLU811  SER814 

> <Gold.Protein.RotatedAtoms>
  152.5297  133.9834  159.7816 H   0  0  0  0  0  0  0  0  0  0  0  0  # atno 6907 bound_to 6896
  151.0083  133.5982  159.2693 H   0  0  0  0  0  0  0  0  0  0  0  0  # atno 6908 bound_to 6896
  151.3065  135.0789  159.9310 H   0  0  0  0  0  0  0  0  0  0  0  0  # atno 6909 bound_to 6896
  146.1281  140.5295  142.8705 H   0  0  0  0  0  0  0  0  0  0  0  0  # atno 7974 bound_to 7965
  154.7409  140.0495  157.0810 H   0  0  0  0  0  0  0  0  0  0  0  0  # atno 8008 bound_to 7997
  155.0179  140.3143  155.4785 H   0  0  0  0  0  0  0  0  0  0  0  0  # atno 8009 bound_to 7997
  156.2864  140.2172  156.5296 H   0  0  0  0  0  0  0  0  0  0  0  0  # atno 8010 bound_to 7997
  139.4994  144.6107  151.6278 H   0  0  0  0  0  0  0  0  0  0  0  0  # atno 10167 bound_to 10162
  156.7975  130.5382  149.5726 H   0  0  0  0  0  0  0  0  0  0  0  0  # atno 10718 bound_to 10713
  154.4150  135.6000  153.5975 H   0  0  0  0  0  0  0  0  0  0  0  0  # atno 10763 bound_to 10752
  152.9791  135.5938  154.4024 H   0  0  0  0  0  0  0  0  0  0  0  0  # atno 10764 bound_to 10752
  154.3841  135.2841  155.2172 H   0  0  0  0  0  0  0  0  0  0  0  0  # atno 10765 bound_to 10752
  141.1668  133.7157  156.8295 H   0  0  0  0  0  0  0  0  0  0  0  0  # atno 11005 bound_to 11000
  144.7663  140.5537  143.6701 LP  0  0  0  0  0  0  0  0  0  0  0  0  # atno 17320 bound_to 7965
  145.5321  139.1475  143.3494 LP  0  0  0  0  0  0  0  0  0  0  0  0  # atno 17321 bound_to 7965
  140.5781  143.9994  150.6253 LP  0  0  0  0  0  0  0  0  0  0  0  0  # atno 17342 bound_to 10162
  140.3134  143.3183  152.0856 LP  0  0  0  0  0  0  0  0  0  0  0  0  # atno 17343 bound_to 10162
  156.1122  130.6048  151.0064 LP  0  0  0  0  0  0  0  0  0  0  0  0  # atno 17370 bound_to 10713
  157.6570  131.0887  150.7924 LP  0  0  0  0  0  0  0  0  0  0  0  0  # atno 17371 bound_to 10713
  140.2061  134.8862  157.3223 LP  0  0  0  0  0  0  0  0  0  0  0  0  # atno 17394 bound_to 11000
  140.2136  134.4109  155.7600 LP  0  0  0  0  0  0  0  0  0  0  0  0  # atno 17395 bound_to 11000

$$$$
