AV-unprocessed.smi:3185|AV-procd|sdf|12169|dock4
  -GOLD-   2272018 03D 1   1.00000     0.00000
 Structure written by MMmdl.
 37 38  0  0  0  0  0  0  0  0  1 V2000
  150.9197  139.8508  154.3682 N   0  0  0  0  0  0  0  0  0  0  0  0
  150.2518  140.1156  155.2750 C   0  0  0  0  0  0  0  0  0  0  0  0
  149.4024  140.4522  156.4270 C   0  0  0  0  0  0  0  0  0  0  0  0
  149.6749  141.8616  156.9697 C   0  0  0  0  0  0  0  0  0  0  0  0
  151.0811  142.0020  157.5658 C   0  0  0  0  0  0  0  0  0  0  0  0
  151.3789  140.8403  158.3895 N   0  0  0  0  0  0  0  0  0  0  0  0
  152.6745  140.9417  159.0542 C   0  0  2  0  0  0  0  0  0  0  0  0
  153.1378  139.5408  159.5123 C   0  0  0  0  0  0  0  0  0  0  0  0
  154.4382  139.6120  160.3269 C   0  0  0  0  0  0  0  0  0  0  0  0
  154.2882  140.5524  161.5309 C   0  0  0  0  0  0  0  0  0  0  0  0
  153.8523  141.9539  161.0804 C   0  0  0  0  0  0  0  0  0  0  0  0
  152.5436  141.9044  160.2635 C   0  0  1  0  0  0  0  0  0  0  0  0
  152.1380  143.2445  159.8529 N   0  0  0  0  0  0  0  0  0  0  0  0
  152.7809  144.0968  158.9790 C   0  0  0  0  0  0  0  0  0  0  0  0
  152.0460  145.2455  158.9115 C   0  0  0  0  0  0  0  0  0  0  0  0
  150.9546  145.0002  159.7902 C   0  0  0  0  0  0  0  0  0  0  0  0
  151.0116  143.8038  160.3517 N   0  0  0  0  0  0  0  0  0  0  0  0
  148.3622  140.3585  156.1145 H   0  0  0  0  0  0  0  0  0  0  0  0
  149.5772  139.7010  157.1976 H   0  0  0  0  0  0  0  0  0  0  0  0
  149.5219  142.6028  156.1841 H   0  0  0  0  0  0  0  0  0  0  0  0
  148.9412  142.0848  157.7449 H   0  0  0  0  0  0  0  0  0  0  0  0
  151.8147  142.0804  156.7635 H   0  0  0  0  0  0  0  0  0  0  0  0
  151.1444  142.9153  158.1585 H   0  0  0  0  0  0  0  0  0  0  0  0
  151.3263  139.9914  157.8451 H   0  0  0  0  0  0  0  0  0  0  0  0
  153.4084  141.3562  158.3609 H   0  0  0  0  0  0  0  0  0  0  0  0
  152.3609  139.0730  160.1190 H   0  0  0  0  0  0  0  0  0  0  0  0
  153.2935  138.8875  158.6534 H   0  0  0  0  0  0  0  0  0  0  0  0
  154.7184  138.6149  160.6678 H   0  0  0  0  0  0  0  0  0  0  0  0
  155.2510  139.9607  159.6887 H   0  0  0  0  0  0  0  0  0  0  0  0
  153.5543  140.1448  162.2272 H   0  0  0  0  0  0  0  0  0  0  0  0
  155.2310  140.6139  162.0750 H   0  0  0  0  0  0  0  0  0  0  0  0
  153.7225  142.5950  161.9531 H   0  0  0  0  0  0  0  0  0  0  0  0
  154.6503  142.4005  160.4854 H   0  0  0  0  0  0  0  0  0  0  0  0
  151.7616  141.5213  160.9220 H   0  0  0  0  0  0  0  0  0  0  0  0
  153.7008  143.8193  158.4856 H   0  0  0  0  0  0  0  0  0  0  0  0
  152.2565  146.1270  158.3245 H   0  0  0  0  0  0  0  0  0  0  0  0
  150.1290  145.6515  160.0355 H   0  0  0  0  0  0  0  0  0  0  0  0
  1  2  3  0  0  0  0
  2  3  1  0  0  0  0
  3  4  1  0  0  0  0
  3 18  1  0  0  0  0
  3 19  1  0  0  0  0
  4  5  1  0  0  0  0
  4 20  1  0  0  0  0
  4 21  1  0  0  0  0
  5  6  1  0  0  0  0
  5 22  1  0  0  0  0
  5 23  1  0  0  0  0
  6  7  1  0  0  0  0
  6 24  1  0  0  0  0
  7 12  1  0  0  0  0
  7  8  1  0  0  0  0
  7 25  1  0  0  0  0
  8  9  1  0  0  0  0
  8 26  1  0  0  0  0
  8 27  1  0  0  0  0
  9 10  1  0  0  0  0
  9 28  1  0  0  0  0
  9 29  1  0  0  0  0
 10 11  1  0  0  0  0
 10 30  1  0  0  0  0
 10 31  1  0  0  0  0
 11 12  1  0  0  0  0
 11 32  1  0  0  0  0
 11 33  1  0  0  0  0
 12 13  1  0  0  0  0
 12 34  1  0  0  0  0
 13 17  1  0  0  0  0
 13 14  1  0  0  0  0
 14 15  2  0  0  0  0
 14 35  1  0  0  0  0
 15 16  1  0  0  0  0
 15 36  1  0  0  0  0
 16 17  2  0  0  0  0
 16 37  1  0  0  0  0
M  END
> <s_m_source_file>
AV-unprocessed.smi

> <i_m_source_file_index>
3185

> <i_lp_mmshare_version>
43012

> <i_f3d_flags>
0

> <s_epik_input>
TiNDW0NIMl1bQ0gyXVtDSDJdW05IXVtDQEBIXTFbQ0gyXVtDSDJdW0NIMl1bQ0gyXVtDQEhdMW4yW2NIXVtjSF1bY0hdbjI=

> <s_epik_cmdline>
J2VwaWtfcHl0aG9uJywgJy1waCcsICc3LjAnLCAnLXRuJywgJzgnLCAnLW1hJywgJzIwMCcsICctbWV0YWxfYmluZGluZycsICctaW1hZScsICc8aW5maWxlLm1hZT4nLCAnLW9tYWUnLCAnPG91dGZpbGUubWFlPic=

> <r_lp_tautomer_probability>
1

> <r_epik_Ionization_Penalty>
2.21326

> <r_epik_Ionization_Penalty_Charging>
0

> <r_epik_Ionization_Penalty_Neutral>
2.21326

> <r_epik_State_Penalty>
2.35651

> <r_epik_Charging_Adjusted_Penalty>
2.35651

> <i_epik_Tot_Q>
0

> <i_epik_Tot_abs_Q>
0

> <r_epik_Metal_State_Penalty>
2.3555

> <b_epik_Metal_Only>
0

> <s_lp_Force_Field>
OPLS_2005

> <r_lp_Energy>
16.739

> <b_lp_Chiralities_Consistent>
1

> <s_lp_Variant>
AV-unprocessed.smi:3185-5

> <Gold.Version>
5.8.1

> <Gold.Id.Protein>
6NUR|6NUR_protein|mol2

> <Gold.PLP.Fitness>
43.4138

> <Gold.PLP.PLP>
-40.8984

> <Gold.PLP.part.hbond>
-1.3647

> <Gold.PLP.part.metal>
0.0000

> <Gold.PLP.part.buried>
-4.9153

> <Gold.PLP.part.nonpolar>
-34.5623

> <Gold.PLP.part.repulsive>
0.2138

> <Gold.PLP.ligand.clash>
0.0000

> <Gold.PLP.ligand.torsion>
0.2685

> <Gold.PLP.Chemscore.Hbond>
1.0000

> <Gold.PLP.Chemscore.CHOScore>
0.0000

> <Gold.PLP.Chemscore.Metal>
0.0000

> <Gold.Chemscore.Hbonds>
donor molecule, donor type, donor heavy atom, donor atom, acceptor molecule, acceptor atom, score
      P1  H  7989  7998       L1     1  0.96

> <Gold.PLP.Chemscore.Internal.Correction>
0.0524

> <Gold.Rescore>
     Score         DG    S(hbond)    S(metal)    S(lipo)     H(rot)  DE(clash)    DE(int)     intcor
     15.27     -17.00       1.00        0.00     109.71       1.81       0.15       1.58       ----

> <Gold.Chemscore.Fitness>
15.2727

> <Gold.Chemscore.DG>
-17.0049

> <Gold.Chemscore.ZeroCoef>
-5.4800

> <Gold.Chemscore.Hbond>
0.9954

> <Gold.Chemscore.Metal>
0.0000

> <Gold.Chemscore.Lipo>
109.7132

> <Gold.Chemscore.Internal_Hbond>
0.0000

> <Gold.Chemscore.DEClash>
0.1473

> <Gold.Chemscore.DEInternal>
1.5849

> <Gold.Chemscore.Rot>
1.8110

> <Gold.Chemscore.Internal.Correction>
   9.000000E+99

> <Gold.Chemscore.Hbonds>
donor molecule, donor type, donor heavy atom, donor atom, acceptor molecule, acceptor atom, score
      P1  H  7989  7998       L1     1  0.91

> <Gold.Chemscore.Hbond.Weighted>
-3.3247

> <Gold.Chemscore.Metal.Weighted>
-0.0000

> <Gold.Chemscore.Lipo.Weighted>
-12.8364

> <Gold.Chemscore.Internal_Hbond.Weighted>
0.0000

> <Gold.Chemscore.DEClash.Weighted>
0.1473

> <Gold.Chemscore.DEInternal.Weighted>
1.5849

> <Gold.Chemscore.Rot.Weighted>
4.6362

> <Gold.Chemscore.Internal.Correction.Weighted>
   9.000000E+99

> <Gold.Protein.RotatedTorsions>
[ 6907 6896 6895 6894 ] final -104.89 input  -60.11 | X-H torsion
[ 7974 7965 7964 7962 ] final   32.25 input  175.53 | X-H torsion
[ 8008 7997 7996 7995 ] final -138.28 input   59.86 | X-H torsion
[ 10167 10162 10161 10158 ] final   79.24 input  -65.29 | X-H torsion
[ 10718 10713 10712 10709 ] final   -6.98 input   66.30 | X-H torsion
[ 10763 10752 10751 10750 ] final   99.32 input  -60.55 | X-H torsion
[ 11005 11000 10999 10996 ] final   11.39 input  -57.11 | X-H torsion

> <Gold.Protein.ActiveResidues>
 VAL166  LYS551  ARG553  GLY616  TRP617  ASP618  TYR619  PRO620  LYS621  CYS622 
 ASP623  PHE694  ASN695  SER759  ASP760  ASP761  ALA762  ILE779  LEU786  VAL792 
 PHE793  MET794  SER795  GLU796  ALA797  LYS798  CYS799  TRP800  GLU811  SER814 

> <Gold.Protein.RotatedAtoms>
  150.7309  134.0209  159.3700 H   0  0  0  0  0  0  0  0  0  0  0  0  # atno 6907 bound_to 6896
  151.8174  135.0660  160.0430 H   0  0  0  0  0  0  0  0  0  0  0  0  # atno 6908 bound_to 6896
  152.3029  133.5637  159.5666 H   0  0  0  0  0  0  0  0  0  0  0  0  # atno 6909 bound_to 6896
  146.1498  139.6551  142.9106 H   0  0  0  0  0  0  0  0  0  0  0  0  # atno 7974 bound_to 7965
  155.4257  140.0521  157.3022 H   0  0  0  0  0  0  0  0  0  0  0  0  # atno 8008 bound_to 7997
  154.4882  140.2109  155.9566 H   0  0  0  0  0  0  0  0  0  0  0  0  # atno 8009 bound_to 7997
  156.1305  140.3172  155.8347 H   0  0  0  0  0  0  0  0  0  0  0  0  # atno 8010 bound_to 7997
  139.9624  144.5952  150.8060 H   0  0  0  0  0  0  0  0  0  0  0  0  # atno 10167 bound_to 10162
  156.7239  130.5159  149.5861 H   0  0  0  0  0  0  0  0  0  0  0  0  # atno 10718 bound_to 10713
  153.2999  135.4117  155.1243 H   0  0  0  0  0  0  0  0  0  0  0  0  # atno 10763 bound_to 10752
  154.8546  135.3539  154.5865 H   0  0  0  0  0  0  0  0  0  0  0  0  # atno 10764 bound_to 10752
  153.6290  135.7061  153.5340 H   0  0  0  0  0  0  0  0  0  0  0  0  # atno 10765 bound_to 10752
  140.5038  134.0720  155.7800 H   0  0  0  0  0  0  0  0  0  0  0  0  # atno 11005 bound_to 11000
  145.4849  141.0438  143.2625 LP  0  0  0  0  0  0  0  0  0  0  0  0  # atno 17320 bound_to 7965
  144.7891  139.6366  143.7121 LP  0  0  0  0  0  0  0  0  0  0  0  0  # atno 17321 bound_to 7965
  140.7549  143.3035  151.3019 LP  0  0  0  0  0  0  0  0  0  0  0  0  # atno 17342 bound_to 10162
  139.6544  144.0303  152.2649 LP  0  0  0  0  0  0  0  0  0  0  0  0  # atno 17343 bound_to 10162
  156.1575  130.6352  151.0676 LP  0  0  0  0  0  0  0  0  0  0  0  0  # atno 17370 bound_to 10713
  157.6886  131.0817  150.7171 LP  0  0  0  0  0  0  0  0  0  0  0  0  # atno 17371 bound_to 10713
  141.1422  133.9119  157.2300 LP  0  0  0  0  0  0  0  0  0  0  0  0  # atno 17394 bound_to 11000
  139.9698  135.0131  156.9482 LP  0  0  0  0  0  0  0  0  0  0  0  0  # atno 17395 bound_to 11000

$$$$
