AV-unprocessed.smi:1835|AV-procd|sdf|7476|dock7
  -GOLD-   22720 9173D 1   1.00000     0.00000
 Structure written by MMmdl.
 42 43  0  0  0  0  0  0  0  0  2 V2000
  145.8816  134.3590  155.2990 C   0  0  0  0  0  0  0  0  0  0  0  0
  146.8880  135.0990  154.3871 C   0  0  1  0  0  0  0  0  0  0  0  0
  148.3510  134.7839  154.8093 C   0  0  0  0  0  0  0  0  0  0  0  0
  149.3015  135.7965  154.3567 N   0  0  0  0  0  0  0  0  0  0  0  0
  149.8094  136.7825  155.1124 C   0  0  0  0  0  0  0  0  0  0  0  0
  149.5443  136.9243  156.3065 O   0  0  0  0  0  0  0  0  0  0  0  0
  150.7652  137.7522  154.4043 C   0  0  0  0  0  0  0  0  0  0  0  0
  150.1925  139.0980  154.2346 N   0  0  0  0  0  0  0  0  0  0  0  0
  149.0668  139.2182  153.3954 C   0  0  0  0  0  0  0  0  0  0  0  0
  148.4688  140.3997  153.1747 C   0  0  0  0  0  0  0  0  0  0  0  0
  149.0089  141.5704  153.8243 C   0  0  0  0  0  0  0  0  0  0  0  0
  150.0869  141.4673  154.6270 C   0  0  0  0  0  0  0  0  0  0  0  0
  150.7446  140.1781  154.8702 C   0  0  0  0  0  0  0  0  0  0  0  0
  151.7315  140.0746  155.5999 O   0  0  0  0  0  0  0  0  0  0  0  0
  146.5978  134.7889  152.9479 N   0  3  0  0  0  0  0  0  0  0  0  0
  146.6497  133.3301  152.6547 C   0  0  0  0  0  0  0  0  0  0  0  0
  146.4499  133.0596  151.1551 C   0  0  0  0  0  0  0  0  0  0  0  0
  145.2039  133.5989  150.7404 O   0  0  0  0  0  0  0  0  0  0  0  0
  145.1625  135.0071  150.9155 C   0  0  0  0  0  0  0  0  0  0  0  0
  145.3327  135.3569  152.4043 C   0  0  0  0  0  0  0  0  0  0  0  0
  146.0056  134.6347  156.3457 H   0  0  0  0  0  0  0  0  0  0  0  0
  146.0081  133.2785  155.2263 H   0  0  0  0  0  0  0  0  0  0  0  0
  144.8449  134.5854  155.0583 H   0  0  0  0  0  0  0  0  0  0  0  0
  146.7460  136.1722  154.5255 H   0  0  0  0  0  0  0  0  0  0  0  0
  148.4141  134.6452  155.8902 H   0  0  0  0  0  0  0  0  0  0  0  0
  148.6885  133.8518  154.3562 H   0  0  0  0  0  0  0  0  0  0  0  0
  149.5822  135.7554  153.3874 H   0  0  0  0  0  0  0  0  0  0  0  0
  151.6915  137.7932  154.9786 H   0  0  0  0  0  0  0  0  0  0  0  0
  151.0490  137.3482  153.4305 H   0  0  0  0  0  0  0  0  0  0  0  0
  148.7272  138.2979  152.9427 H   0  0  0  0  0  0  0  0  0  0  0  0
  147.6081  140.4729  152.5263 H   0  0  0  0  0  0  0  0  0  0  0  0
  148.5471  142.5338  153.6649 H   0  0  0  0  0  0  0  0  0  0  0  0
  150.4775  142.3543  155.1037 H   0  0  0  0  0  0  0  0  0  0  0  0
  147.6021  132.8987  152.9563 H   0  0  0  0  0  0  0  0  0  0  0  0
  145.8761  132.8153  153.2268 H   0  0  0  0  0  0  0  0  0  0  0  0
  147.2643  133.4870  150.5677 H   0  0  0  0  0  0  0  0  0  0  0  0
  146.4494  131.9864  150.9645 H   0  0  0  0  0  0  0  0  0  0  0  0
  145.9371  135.4838  150.3125 H   0  0  0  0  0  0  0  0  0  0  0  0
  144.2044  135.3784  150.5512 H   0  0  0  0  0  0  0  0  0  0  0  0
  144.4845  134.9791  152.9775 H   0  0  0  0  0  0  0  0  0  0  0  0
  145.3263  136.4435  152.4837 H   0  0  0  0  0  0  0  0  0  0  0  0
  147.3396  135.2210  152.4157 H   0  0  0  0  0  0  0  0  0  0  0  0
  1  2  1  0  0  0  0
  1 21  1  0  0  0  0
  1 22  1  0  0  0  0
  1 23  1  0  0  0  0
  2  3  1  0  0  0  0
  2 15  1  0  0  0  0
  2 24  1  0  0  0  0
  3  4  1  0  0  0  0
  3 25  1  0  0  0  0
  3 26  1  0  0  0  0
  4  5  1  0  0  0  0
  4 27  1  0  0  0  0
  5  6  2  0  0  0  0
  5  7  1  0  0  0  0
  7  8  1  0  0  0  0
  7 28  1  0  0  0  0
  7 29  1  0  0  0  0
  8 13  1  0  0  0  0
  8  9  1  0  0  0  0
  9 10  2  0  0  0  0
  9 30  1  0  0  0  0
 10 11  1  0  0  0  0
 10 31  1  0  0  0  0
 11 12  2  0  0  0  0
 11 32  1  0  0  0  0
 12 13  1  0  0  0  0
 12 33  1  0  0  0  0
 13 14  2  0  0  0  0
 15 20  1  0  0  0  0
 15 16  1  0  0  0  0
 15 42  1  0  0  0  0
 16 17  1  0  0  0  0
 16 34  1  0  0  0  0
 16 35  1  0  0  0  0
 17 18  1  0  0  0  0
 17 36  1  0  0  0  0
 17 37  1  0  0  0  0
 18 19  1  0  0  0  0
 19 20  1  0  0  0  0
 19 38  1  0  0  0  0
 19 39  1  0  0  0  0
 20 40  1  0  0  0  0
 20 41  1  0  0  0  0
M  CHG  1  15   1
M  END
> <s_m_source_file>
AV-unprocessed.smi

> <i_m_source_file_index>
1835

> <i_lp_mmshare_version>
43012

> <i_f3d_flags>
0

> <s_epik_input>
W0NIMl0xW0NIMl1PW0NIMl1bQ0gyXU4xW0NASF0oW0NIM10pW0NIMl1bTkhdQyg9TylbQ0gyXW4yW2NIXVtjSF1bY0hdW2NIXWMyPU8=

> <s_epik_cmdline>
J2VwaWtfcHl0aG9uJywgJy1waCcsICc3LjAnLCAnLXRuJywgJzgnLCAnLW1hJywgJzIwMCcsICctbWV0YWxfYmluZGluZycsICctaW1hZScsICc8aW5maWxlLm1hZT4nLCAnLW9tYWUnLCAnPG91dGZpbGUubWFlPic=

> <r_lp_tautomer_probability>
1

> <r_epik_Ionization_Penalty>
0.656654

> <r_epik_Ionization_Penalty_Charging>
0.656654

> <r_epik_Ionization_Penalty_Neutral>
9.12373e-08

> <r_epik_State_Penalty>
0.675641

> <r_epik_Charging_Adjusted_Penalty>
1.33229

> <i_epik_Tot_Q>
1

> <i_epik_Tot_abs_Q>
1

> <r_epik_Metal_State_Penalty>
0.675692

> <b_epik_Metal_Only>
0

> <s_lp_Force_Field>
OPLS_2005

> <r_lp_Energy>
28.3698

> <b_lp_Chiralities_Consistent>
1

> <s_lp_Variant>
AV-unprocessed.smi:1835-4

> <Gold.Version>
5.8.1

> <Gold.Id.Protein>
6NUR|6NUR_protein|mol2

> <Gold.PLP.Fitness>
46.1040

> <Gold.PLP.PLP>
-35.0727

> <Gold.PLP.part.hbond>
-4.0000

> <Gold.PLP.part.metal>
0.0000

> <Gold.PLP.part.buried>
0.4782

> <Gold.PLP.part.nonpolar>
-31.1103

> <Gold.PLP.part.repulsive>
0.2346

> <Gold.PLP.ligand.clash>
0.0000

> <Gold.PLP.ligand.torsion>
0.5137

> <Gold.PLP.Chemscore.Hbond>
3.0000

> <Gold.PLP.Chemscore.CHOScore>
1.0000

> <Gold.PLP.Chemscore.Metal>
0.0000

> <Gold.Chemscore.Hbonds>
donor molecule, donor type, donor heavy atom, donor atom, acceptor molecule, acceptor atom, score
      L1  H     4    27       P1  7948  0.64
      L1  H    15    42       P1  7948  2.00
      L1  C     9    30       P1  7948  1.00

> <Gold.PLP.Chemscore.Internal.Correction>
0.0586

> <Gold.Rescore>
     Score         DG    S(hbond)    S(metal)    S(lipo)     H(rot)  DE(clash)    DE(int)     intcor
     13.81     -15.04       1.99        0.00      68.00       1.96       0.77       0.45       ----

> <Gold.Chemscore.Fitness>
13.8149

> <Gold.Chemscore.DG>
-15.0380

> <Gold.Chemscore.ZeroCoef>
-5.4800

> <Gold.Chemscore.Hbond>
1.9858

> <Gold.Chemscore.Metal>
0.0000

> <Gold.Chemscore.Lipo>
67.9967

> <Gold.Chemscore.Internal_Hbond>
0.0000

> <Gold.Chemscore.DEClash>
0.7744

> <Gold.Chemscore.DEInternal>
0.4487

> <Gold.Chemscore.Rot>
1.9649

> <Gold.Chemscore.Internal.Correction>
   9.000000E+99

> <Gold.Chemscore.Hbonds>
donor molecule, donor type, donor heavy atom, donor atom, acceptor molecule, acceptor atom, score
      L1  H     4    27       P1  7948  0.09
      L1  H    15    42       P1  7948  0.99

> <Gold.Chemscore.Hbond.Weighted>
-6.6324

> <Gold.Chemscore.Metal.Weighted>
-0.0000

> <Gold.Chemscore.Lipo.Weighted>
-7.9556

> <Gold.Chemscore.Internal_Hbond.Weighted>
0.0000

> <Gold.Chemscore.DEClash.Weighted>
0.7744

> <Gold.Chemscore.DEInternal.Weighted>
0.4487

> <Gold.Chemscore.Rot.Weighted>
5.0300

> <Gold.Chemscore.Internal.Correction.Weighted>
   9.000000E+99

> <Gold.Protein.RotatedTorsions>
[ 6907 6896 6895 6894 ] final   97.65 input  -60.11 | X-H torsion
[ 7974 7965 7964 7962 ] final  -85.96 input  175.53 | X-H torsion
[ 8008 7997 7996 7995 ] final  -31.14 input   59.86 | X-H torsion
[ 10167 10162 10161 10158 ] final  160.90 input  -65.29 | X-H torsion
[ 10718 10713 10712 10709 ] final -163.34 input   66.30 | X-H torsion
[ 10763 10752 10751 10750 ] final -174.09 input  -60.55 | X-H torsion
[ 11005 11000 10999 10996 ] final  -22.07 input  -57.11 | X-H torsion

> <Gold.Protein.ActiveResidues>
 VAL166  LYS551  ARG553  GLY616  TRP617  ASP618  TYR619  PRO620  LYS621  CYS622 
 ASP623  PHE694  ASN695  SER759  ASP760  ASP761  ALA762  ILE779  LEU786  VAL792 
 PHE793  MET794  SER795  GLU796  ALA797  LYS798  CYS799  TRP800  GLU811  SER814 

> <Gold.Protein.RotatedAtoms>
  152.5420  134.0700  159.8189 H   0  0  0  0  0  0  0  0  0  0  0  0  # atno 6907 bound_to 6896
  151.0816  133.5378  159.2627 H   0  0  0  0  0  0  0  0  0  0  0  0  # atno 6908 bound_to 6896
  151.2203  135.0524  159.9001 H   0  0  0  0  0  0  0  0  0  0  0  0  # atno 6909 bound_to 6896
  145.4863  140.9555  143.1836 H   0  0  0  0  0  0  0  0  0  0  0  0  # atno 7974 bound_to 7965
  154.4224  140.1772  156.1519 H   0  0  0  0  0  0  0  0  0  0  0  0  # atno 8008 bound_to 7997
  155.9908  140.3369  155.6727 H   0  0  0  0  0  0  0  0  0  0  0  0  # atno 8009 bound_to 7997
  155.6375  140.0676  157.2620 H   0  0  0  0  0  0  0  0  0  0  0  0  # atno 8010 bound_to 7997
  139.4844  144.4589  151.8731 H   0  0  0  0  0  0  0  0  0  0  0  0  # atno 10167 bound_to 10162
  156.6233  130.8899  151.2962 H   0  0  0  0  0  0  0  0  0  0  0  0  # atno 10718 bound_to 10713
  154.6002  135.2854  155.0543 H   0  0  0  0  0  0  0  0  0  0  0  0  # atno 10763 bound_to 10752
  154.1811  135.6456  153.5038 H   0  0  0  0  0  0  0  0  0  0  0  0  # atno 10764 bound_to 10752
  153.0154  135.5424  154.6719 H   0  0  0  0  0  0  0  0  0  0  0  0  # atno 10765 bound_to 10752
  140.8622  133.7780  156.0088 H   0  0  0  0  0  0  0  0  0  0  0  0  # atno 11005 bound_to 11000
  144.7859  139.6427  143.7134 LP  0  0  0  0  0  0  0  0  0  0  0  0  # atno 17320 bound_to 7965
  146.2311  139.5815  142.9555 LP  0  0  0  0  0  0  0  0  0  0  0  0  # atno 17321 bound_to 7965
  140.4050  144.2443  150.5891 LP  0  0  0  0  0  0  0  0  0  0  0  0  # atno 17342 bound_to 10162
  140.5021  143.2315  151.8663 LP  0  0  0  0  0  0  0  0  0  0  0  0  # atno 17343 bound_to 10162
  157.7221  130.9573  150.1482 LP  0  0  0  0  0  0  0  0  0  0  0  0  # atno 17370 bound_to 10713
  156.2294  130.3681  149.8463 LP  0  0  0  0  0  0  0  0  0  0  0  0  # atno 17371 bound_to 10713
  140.8670  134.2772  157.5208 LP  0  0  0  0  0  0  0  0  0  0  0  0  # atno 17394 bound_to 11000
  139.8707  134.9547  156.4185 LP  0  0  0  0  0  0  0  0  0  0  0  0  # atno 17395 bound_to 11000

$$$$
