AV-unprocessed.smi:837|AV-procd|sdf|3898|dock1
  -GOLD-   22720 1353D 1   1.00000     0.00000
 Structure written by MMmdl.
 50 52  0  0  0  0  0  0  0  0  2 V2000
  146.5393  130.1551  152.6468 C   0  0  0  0  0  0  0  0  0  0  0  0
  145.4839  131.1878  152.1968 C   0  0  2  0  0  0  0  0  0  0  0  0
  145.4100  131.2567  150.6557 C   0  0  0  0  0  0  0  0  0  0  0  0
  144.3019  132.2097  150.1818 C   0  0  0  0  0  0  0  0  0  0  0  0
  144.4789  133.6161  150.7709 C   0  0  0  0  0  0  0  0  0  0  0  0
  144.5526  133.5706  152.3074 C   0  0  0  0  0  0  0  0  0  0  0  0
  145.6428  132.6043  152.8355 C   0  0  1  0  0  0  0  0  0  0  0  0
  145.5728  132.5354  154.2850 N   0  0  0  0  0  0  0  0  0  0  0  0
  146.6800  132.9823  154.8892 C   0  0  0  0  0  0  0  0  0  0  0  0
  146.8620  133.0111  156.1057 O   0  0  0  0  0  0  0  0  0  0  0  0
  147.5487  133.3763  153.9418 N   0  0  0  0  0  0  0  0  0  0  0  0
  148.8996  133.8780  154.2233 C   0  0  0  0  0  0  0  0  0  0  0  0
  148.8877  135.2103  154.9850 C   0  0  0  0  0  0  0  0  0  0  0  0
  148.5950  135.2506  156.1806 O   0  0  0  0  0  0  0  0  0  0  0  0
  149.2108  136.2996  154.2723 N   0  0  0  0  0  0  0  0  0  0  0  0
  149.2321  137.6659  154.7873 C   0  0  0  0  0  0  0  0  0  0  0  0
  150.5344  138.4212  154.4494 C   0  0  0  0  0  0  0  0  0  0  0  0
  150.7048  139.7181  155.2224 C   0  0  0  0  0  0  0  0  0  0  0  0
  151.6727  139.8246  156.2463 C   0  0  0  0  0  0  0  0  0  0  0  0
  151.7992  141.0369  156.9553 C   0  0  0  0  0  0  0  0  0  0  0  0
  150.9578  142.1178  156.6222 C   0  0  0  0  0  0  0  0  0  0  0  0
  150.0457  141.9802  155.6348 N   0  3  0  0  0  0  0  0  0  0  0  0
  149.8920  140.8353  154.9336 C   0  0  0  0  0  0  0  0  0  0  0  0
  147.0480  133.1974  152.7115 C   0  0  0  0  0  0  0  0  0  0  0  0
  147.6110  133.4469  151.6455 O   0  0  0  0  0  0  0  0  0  0  0  0
  147.5413  130.4275  152.3143 H   0  0  0  0  0  0  0  0  0  0  0  0
  146.3180  129.1706  152.2340 H   0  0  0  0  0  0  0  0  0  0  0  0
  146.5649  130.0494  153.7314 H   0  0  0  0  0  0  0  0  0  0  0  0
  144.5222  130.7995  152.5366 H   0  0  0  0  0  0  0  0  0  0  0  0
  146.3680  131.5727  150.2425 H   0  0  0  0  0  0  0  0  0  0  0  0
  145.2221  130.2619  150.2503 H   0  0  0  0  0  0  0  0  0  0  0  0
  144.2985  132.2623  149.0928 H   0  0  0  0  0  0  0  0  0  0  0  0
  143.3292  131.8118  150.4741 H   0  0  0  0  0  0  0  0  0  0  0  0
  145.3789  134.0755  150.3622 H   0  0  0  0  0  0  0  0  0  0  0  0
  143.6490  134.2520  150.4616 H   0  0  0  0  0  0  0  0  0  0  0  0
  144.7183  134.5795  152.6887 H   0  0  0  0  0  0  0  0  0  0  0  0
  143.5811  133.2622  152.6967 H   0  0  0  0  0  0  0  0  0  0  0  0
  144.7651  132.1772  154.7735 H   0  0  0  0  0  0  0  0  0  0  0  0
  149.4658  133.1505  154.8072 H   0  0  0  0  0  0  0  0  0  0  0  0
  149.4460  133.9962  153.2855 H   0  0  0  0  0  0  0  0  0  0  0  0
  149.4488  136.1745  153.2989 H   0  0  0  0  0  0  0  0  0  0  0  0
  148.3656  138.2188  154.4217 H   0  0  0  0  0  0  0  0  0  0  0  0
  149.1220  137.6035  155.8701 H   0  0  0  0  0  0  0  0  0  0  0  0
  151.3944  137.7790  154.6432 H   0  0  0  0  0  0  0  0  0  0  0  0
  150.5631  138.6405  153.3815 H   0  0  0  0  0  0  0  0  0  0  0  0
  152.3060  138.9847  156.4938 H   0  0  0  0  0  0  0  0  0  0  0  0
  152.5295  141.1338  157.7458 H   0  0  0  0  0  0  0  0  0  0  0  0
  150.9860  143.0801  157.1123 H   0  0  0  0  0  0  0  0  0  0  0  0
  149.1266  140.8467  154.1713 H   0  0  0  0  0  0  0  0  0  0  0  0
  149.4465  142.7748  155.4095 H   0  0  0  0  0  0  0  0  0  0  0  0
  1  2  1  0  0  0  0
  1 26  1  0  0  0  0
  1 27  1  0  0  0  0
  1 28  1  0  0  0  0
  2  7  1  0  0  0  0
  2  3  1  0  0  0  0
  2 29  1  0  0  0  0
  3  4  1  0  0  0  0
  3 30  1  0  0  0  0
  3 31  1  0  0  0  0
  4  5  1  0  0  0  0
  4 32  1  0  0  0  0
  4 33  1  0  0  0  0
  5  6  1  0  0  0  0
  5 34  1  0  0  0  0
  5 35  1  0  0  0  0
  6  7  1  0  0  0  0
  6 36  1  0  0  0  0
  6 37  1  0  0  0  0
  7 24  1  0  0  0  0
  7  8  1  0  0  0  0
  8  9  1  0  0  0  0
  8 38  1  0  0  0  0
  9 10  2  0  0  0  0
  9 11  1  0  0  0  0
 11 12  1  0  0  0  0
 11 24  1  0  0  0  0
 12 13  1  0  0  0  0
 12 39  1  0  0  0  0
 12 40  1  0  0  0  0
 13 14  2  0  0  0  0
 13 15  1  0  0  0  0
 15 16  1  0  0  0  0
 15 41  1  0  0  0  0
 16 17  1  0  0  0  0
 16 42  1  0  0  0  0
 16 43  1  0  0  0  0
 17 18  1  0  0  0  0
 17 44  1  0  0  0  0
 17 45  1  0  0  0  0
 18 23  1  0  0  0  0
 18 19  2  0  0  0  0
 19 20  1  0  0  0  0
 19 46  1  0  0  0  0
 20 21  2  0  0  0  0
 20 47  1  0  0  0  0
 21 22  1  0  0  0  0
 21 48  1  0  0  0  0
 22 23  2  0  0  0  0
 22 50  1  0  0  0  0
 23 49  1  0  0  0  0
 24 25  2  0  0  0  0
M  CHG  1  22   1
M  END
> <s_m_source_file>
AV-unprocessed.smi

> <i_m_source_file_index>
837

> <i_lp_mmshare_version>
43012

> <i_f3d_flags>
0

> <s_epik_input>
W0NIMl0xW0NIMl1bQ0gyXVtDSDJdW0NAQEhdKFtDSDNdKVtDQEBdMTJbTkhdQyg9TylOKEMyPU8pW0NIMl1DKD1PKVtOSF1bQ0gyXVtDSDJdYzNbY0hdW2NIXVtjSF1uW2NIXTM=

> <s_epik_cmdline>
J2VwaWtfcHl0aG9uJywgJy1waCcsICc3LjAnLCAnLXRuJywgJzgnLCAnLW1hJywgJzIwMCcsICctbWV0YWxfYmluZGluZycsICctaW1hZScsICc8aW5maWxlLm1hZT4nLCAnLW9tYWUnLCAnPG91dGZpbGUubWFlPic=

> <r_lp_tautomer_probability>
1

> <r_epik_Ionization_Penalty>
2.28139

> <r_epik_Ionization_Penalty_Charging>
2.28135

> <r_epik_Ionization_Penalty_Neutral>
4.65525e-05

> <r_epik_State_Penalty>
2.43066

> <r_epik_Charging_Adjusted_Penalty>
4.71201

> <i_epik_Tot_Q>
1

> <i_epik_Tot_abs_Q>
1

> <r_epik_Metal_State_Penalty>
2.4646

> <b_epik_Metal_Only>
0

> <s_lp_Force_Field>
OPLS_2005

> <r_lp_Energy>
25.0324

> <b_lp_Chiralities_Consistent>
1

> <s_lp_Variant>
AV-unprocessed.smi:837-7

> <Gold.Version>
5.8.1

> <Gold.Id.Protein>
6NUR|6NUR_protein|mol2

> <Gold.PLP.Fitness>
49.5196

> <Gold.PLP.PLP>
-38.2741

> <Gold.PLP.part.hbond>
-2.8203

> <Gold.PLP.part.metal>
0.0000

> <Gold.PLP.part.buried>
-4.2134

> <Gold.PLP.part.nonpolar>
-32.5228

> <Gold.PLP.part.repulsive>
1.0837

> <Gold.PLP.ligand.clash>
0.0000

> <Gold.PLP.ligand.torsion>
0.3939

> <Gold.PLP.Chemscore.Hbond>
4.0000

> <Gold.PLP.Chemscore.CHOScore>
0.0000

> <Gold.PLP.Chemscore.Metal>
0.0000

> <Gold.Chemscore.Hbonds>
donor molecule, donor type, donor heavy atom, donor atom, acceptor molecule, acceptor atom, score
      L1  H     8    38       P1 10957  0.79
      L1  H    15    41       P1  7948  0.86
      L1  H    22    50       P1  8028  1.98

> <Gold.PLP.Chemscore.Internal.Correction>
0.0332

> <Gold.Rescore>
     Score         DG    S(hbond)    S(metal)    S(lipo)     H(rot)  DE(clash)    DE(int)     intcor
     19.01     -20.73       2.70        0.00      96.10       1.96       0.03       1.69       ----

> <Gold.Chemscore.Fitness>
19.0064

> <Gold.Chemscore.DG>
-20.7258

> <Gold.Chemscore.ZeroCoef>
-5.4800

> <Gold.Chemscore.Hbond>
2.7036

> <Gold.Chemscore.Metal>
0.0000

> <Gold.Chemscore.Lipo>
96.0970

> <Gold.Chemscore.Internal_Hbond>
0.0000

> <Gold.Chemscore.DEClash>
0.0263

> <Gold.Chemscore.DEInternal>
1.6931

> <Gold.Chemscore.Rot>
1.9638

> <Gold.Chemscore.Internal.Correction>
   9.000000E+99

> <Gold.Chemscore.Hbonds>
donor molecule, donor type, donor heavy atom, donor atom, acceptor molecule, acceptor atom, score
      L1  H     8    38       P1 10957  0.37
      L1  H    15    41       P1  7948  0.40
      L1  H    22    50       P1  8028  0.89

> <Gold.Chemscore.Hbond.Weighted>
-9.0299

> <Gold.Chemscore.Metal.Weighted>
-0.0000

> <Gold.Chemscore.Lipo.Weighted>
-11.2434

> <Gold.Chemscore.Internal_Hbond.Weighted>
0.0000

> <Gold.Chemscore.DEClash.Weighted>
0.0263

> <Gold.Chemscore.DEInternal.Weighted>
1.6931

> <Gold.Chemscore.Rot.Weighted>
5.0274

> <Gold.Chemscore.Internal.Correction.Weighted>
   9.000000E+99

> <Gold.Protein.RotatedTorsions>
[ 6907 6896 6895 6894 ] final  -20.89 input  -60.11 | X-H torsion
[ 7974 7965 7964 7962 ] final  -61.95 input  175.53 | X-H torsion
[ 8008 7997 7996 7995 ] final   17.13 input   59.86 | X-H torsion
[ 10167 10162 10161 10158 ] final  129.23 input  -65.29 | X-H torsion
[ 10718 10713 10712 10709 ] final  -96.83 input   66.30 | X-H torsion
[ 10763 10752 10751 10750 ] final  -98.69 input  -60.55 | X-H torsion
[ 11005 11000 10999 10996 ] final   88.78 input  -57.11 | X-H torsion

> <Gold.Protein.ActiveResidues>
 VAL166  LYS551  ARG553  GLY616  TRP617  ASP618  TYR619  PRO620  LYS621  CYS622 
 ASP623  PHE694  ASN695  SER759  ASP760  ASP761  ALA762  ILE779  LEU786  VAL792 
 PHE793  MET794  SER795  GLU796  ALA797  LYS798  CYS799  TRP800  GLU811  SER814 

> <Gold.Protein.RotatedAtoms>
  151.2415  135.0590  159.9026 H   0  0  0  0  0  0  0  0  0  0  0  0  # atno 6907 bound_to 6896
  152.5392  134.0429  159.8086 H   0  0  0  0  0  0  0  0  0  0  0  0  # atno 6908 bound_to 6896
  151.0623  133.5485  159.2664 H   0  0  0  0  0  0  0  0  0  0  0  0  # atno 6909 bound_to 6896
  145.7972  140.8676  143.0250 H   0  0  0  0  0  0  0  0  0  0  0  0  # atno 7974 bound_to 7965
  154.8870  140.2981  155.5392 H   0  0  0  0  0  0  0  0  0  0  0  0  # atno 8008 bound_to 7997
  156.3021  140.2431  156.3815 H   0  0  0  0  0  0  0  0  0  0  0  0  # atno 8009 bound_to 7997
  154.8657  140.0403  157.1682 H   0  0  0  0  0  0  0  0  0  0  0  0  # atno 8010 bound_to 7997
  139.5488  144.6796  151.4389 H   0  0  0  0  0  0  0  0  0  0  0  0  # atno 10167 bound_to 10162
  156.0070  130.5168  150.6284 H   0  0  0  0  0  0  0  0  0  0  0  0  # atno 10718 bound_to 10713
  154.7436  135.5000  153.9164 H   0  0  0  0  0  0  0  0  0  0  0  0  # atno 10763 bound_to 10752
  153.1068  135.6699  153.9580 H   0  0  0  0  0  0  0  0  0  0  0  0  # atno 10764 bound_to 10752
  153.9350  135.3074  155.3423 H   0  0  0  0  0  0  0  0  0  0  0  0  # atno 10765 bound_to 10752
  139.8889  134.8510  156.3049 H   0  0  0  0  0  0  0  0  0  0  0  0  # atno 11005 bound_to 11000
  144.6773  140.0208  143.7484 LP  0  0  0  0  0  0  0  0  0  0  0  0  # atno 17320 bound_to 7965
  145.9915  139.3019  143.0982 LP  0  0  0  0  0  0  0  0  0  0  0  0  # atno 17321 bound_to 7965
  140.6744  143.8222  150.7040 LP  0  0  0  0  0  0  0  0  0  0  0  0  # atno 17342 bound_to 10162
  140.1656  143.4238  152.2037 LP  0  0  0  0  0  0  0  0  0  0  0  0  # atno 17343 bound_to 10162
  157.4086  131.0820  151.1242 LP  0  0  0  0  0  0  0  0  0  0  0  0  # atno 17370 bound_to 10713
  157.1880  130.6339  149.5694 LP  0  0  0  0  0  0  0  0  0  0  0  0  # atno 17371 bound_to 10713
  140.9889  133.7221  156.0783 LP  0  0  0  0  0  0  0  0  0  0  0  0  # atno 17394 bound_to 11000
  140.7652  134.3895  157.5518 LP  0  0  0  0  0  0  0  0  0  0  0  0  # atno 17395 bound_to 11000

$$$$
