AV-unprocessed.smi:809|AV-procd|sdf|3807|dock9
  -GOLD-   22720 1243D 1   1.00000     0.00000
 Structure written by MMmdl.
 39 40  0  0  0  0  0  0  0  0  3 V2000
  152.3937  144.5459  159.0207 C   0  0  0  0  0  0  0  0  0  0  0  0
  151.9321  143.2075  158.5355 C   0  0  0  0  0  0  0  0  0  0  0  0
  152.5473  142.0014  158.7470 C   0  0  0  0  0  0  0  0  0  0  0  0
  151.6695  140.6934  158.0071 S   0  0  0  0  0  0  0  0  0  0  0  0
  150.4729  141.8471  157.4133 C   0  0  0  0  0  0  0  0  0  0  0  0
  149.3871  141.5284  156.6904 N   0  5  0  0  0  0  0  0  0  0  0  0
  149.5285  140.9221  155.4901 C   0  0  0  0  0  0  0  0  0  0  0  0
  150.5674  140.4448  155.0288 O   0  0  0  0  0  0  0  0  0  0  0  0
  148.3944  140.8749  154.7782 N   0  0  0  0  0  0  0  0  0  0  0  0
  148.2454  140.3346  153.4293 C   0  0  0  0  0  0  0  0  0  0  0  0
  147.3638  139.0579  153.3599 C   0  0  1  0  0  0  0  0  0  0  0  0
  148.1680  137.9716  153.7843 O   0  0  0  0  0  0  0  0  0  0  0  0
  146.1956  139.1719  154.3654 C   0  0  0  0  0  0  0  0  0  0  0  0
  145.2185  137.9849  154.2858 C   0  0  0  0  0  0  0  0  0  0  0  0
  144.7056  137.8093  152.9058 N   0  3  2  0  0  0  0  0  0  0  0  0
  143.6644  136.7627  152.8212 C   0  0  0  0  0  0  0  0  0  0  0  0
  145.8037  137.5931  151.9339 C   0  0  0  0  0  0  0  0  0  0  0  0
  146.7979  138.7677  151.9479 C   0  0  0  0  0  0  0  0  0  0  0  0
  150.7587  143.1002  157.7845 N   0  0  0  0  0  0  0  0  0  0  0  0
  152.4188  144.5797  160.1099 H   0  0  0  0  0  0  0  0  0  0  0  0
  151.7363  145.3473  158.6817 H   0  0  0  0  0  0  0  0  0  0  0  0
  153.3975  144.7687  158.6591 H   0  0  0  0  0  0  0  0  0  0  0  0
  153.4582  141.8024  159.2911 H   0  0  0  0  0  0  0  0  0  0  0  0
  147.5693  141.2708  155.2041 H   0  0  0  0  0  0  0  0  0  0  0  0
  147.8965  141.1012  152.7347 H   0  0  0  0  0  0  0  0  0  0  0  0
  149.2580  140.0897  153.1080 H   0  0  0  0  0  0  0  0  0  0  0  0
  148.6130  137.6058  153.0362 H   0  0  0  0  0  0  0  0  0  0  0  0
  146.5788  139.2676  155.3825 H   0  0  0  0  0  0  0  0  0  0  0  0
  145.6376  140.0883  154.1680 H   0  0  0  0  0  0  0  0  0  0  0  0
  145.7053  137.0663  154.6170 H   0  0  0  0  0  0  0  0  0  0  0  0
  144.3829  138.1598  154.9648 H   0  0  0  0  0  0  0  0  0  0  0  0
  144.0680  135.7863  153.0922 H   0  0  0  0  0  0  0  0  0  0  0  0
  143.2637  136.6987  151.8092 H   0  0  0  0  0  0  0  0  0  0  0  0
  142.8353  136.9890  153.4925 H   0  0  0  0  0  0  0  0  0  0  0  0
  146.3174  136.6580  152.1624 H   0  0  0  0  0  0  0  0  0  0  0  0
  145.3874  137.4860  150.9314 H   0  0  0  0  0  0  0  0  0  0  0  0
  146.2958  139.6601  151.5718 H   0  0  0  0  0  0  0  0  0  0  0  0
  147.6044  138.5535  151.2453 H   0  0  0  0  0  0  0  0  0  0  0  0
  144.2603  138.6787  152.6484 H   0  0  0  0  0  0  0  0  0  0  0  0
  1  2  1  0  0  0  0
  1 20  1  0  0  0  0
  1 21  1  0  0  0  0
  1 22  1  0  0  0  0
  2 19  1  0  0  0  0
  2  3  2  0  0  0  0
  3  4  1  0  0  0  0
  3 23  1  0  0  0  0
  4  5  1  0  0  0  0
  5  6  1  0  0  0  0
  5 19  2  0  0  0  0
  6  7  1  0  0  0  0
  7  8  2  0  0  0  0
  7  9  1  0  0  0  0
  9 10  1  0  0  0  0
  9 24  1  0  0  0  0
 10 11  1  0  0  0  0
 10 25  1  0  0  0  0
 10 26  1  0  0  0  0
 11 18  1  0  0  0  0
 11 12  1  0  0  0  0
 11 13  1  0  0  0  0
 12 27  1  0  0  0  0
 13 14  1  0  0  0  0
 13 28  1  0  0  0  0
 13 29  1  0  0  0  0
 14 15  1  0  0  0  0
 14 30  1  0  0  0  0
 14 31  1  0  0  0  0
 15 16  1  0  0  0  0
 15 17  1  0  0  0  0
 15 39  1  0  0  0  0
 16 32  1  0  0  0  0
 16 33  1  0  0  0  0
 16 34  1  0  0  0  0
 17 18  1  0  0  0  0
 17 35  1  0  0  0  0
 17 36  1  0  0  0  0
 18 37  1  0  0  0  0
 18 38  1  0  0  0  0
M  CHG  1   6  -1
M  CHG  1  15   1
M  END
> <s_m_source_file>
AV-unprocessed.smi

> <i_m_source_file_index>
809

> <i_lp_mmshare_version>
43012

> <i_f3d_flags>
0

> <s_epik_input>
W0NIM11jMVtjSF1zYyhuMSlbTkhdQyg9TylbTkhdW0NIMl1DMihbT0hdKVtDSDJdW0NIMl1OKFtDSDNdKVtDSDJdW0NIMl0y

> <s_epik_cmdline>
J2VwaWtfcHl0aG9uJywgJy1waCcsICc3LjAnLCAnLXRuJywgJzgnLCAnLW1hJywgJzIwMCcsICctbWV0YWxfYmluZGluZycsICctaW1hZScsICc8aW5maWxlLm1hZT4nLCAnLW9tYWUnLCAnPG91dGZpbGUubWFlPic=

> <r_lp_tautomer_probability>
0.999

> <r_epik_Ionization_Penalty>
8.50704

> <r_epik_Ionization_Penalty_Charging>
6.65046

> <r_epik_Ionization_Penalty_Neutral>
1.85657

> <r_epik_State_Penalty>
6.64992

> <r_epik_Charging_Adjusted_Penalty>
13.3004

> <i_epik_Tot_Q>
0

> <i_epik_Tot_abs_Q>
2

> <r_epik_Metal_State_Penalty>
2.57297

> <b_epik_Metal_Only>
1

> <s_lp_Force_Field>
OPLS_2005

> <r_lp_Energy>
10.5193

> <b_lp_Chiralities_Consistent>
1

> <s_lp_Variant>
AV-unprocessed.smi:809-3

> <Gold.Version>
5.8.1

> <Gold.Id.Protein>
6NUR|6NUR_protein|mol2

> <Gold.PLP.Fitness>
42.1073

> <Gold.PLP.PLP>
-31.9245

> <Gold.PLP.part.hbond>
-3.0055

> <Gold.PLP.part.metal>
0.0000

> <Gold.PLP.part.buried>
0.0595

> <Gold.PLP.part.nonpolar>
-30.4548

> <Gold.PLP.part.repulsive>
0.7051

> <Gold.PLP.ligand.clash>
0.0000

> <Gold.PLP.ligand.torsion>
0.9033

> <Gold.PLP.Chemscore.Hbond>
3.9920

> <Gold.PLP.Chemscore.CHOScore>
0.0000

> <Gold.PLP.Chemscore.Metal>
0.0000

> <Gold.Chemscore.Hbonds>
donor molecule, donor type, donor heavy atom, donor atom, acceptor molecule, acceptor atom, score
      L1  H    12    27       P1  7948  1.00
      L1  H    15    39       P1 10175  2.00
      P1  H  7989  7998       L1     8  1.00

> <Gold.PLP.Chemscore.Internal.Correction>
0.0134

> <Gold.Rescore>
     Score         DG    S(hbond)    S(metal)    S(lipo)     H(rot)  DE(clash)    DE(int)     intcor
     17.76     -20.16       2.97        0.00      80.61       1.82       1.52       0.89       ----

> <Gold.Chemscore.Fitness>
17.7562

> <Gold.Chemscore.DG>
-20.1617

> <Gold.Chemscore.ZeroCoef>
-5.4800

> <Gold.Chemscore.Hbond>
2.9660

> <Gold.Chemscore.Metal>
0.0000

> <Gold.Chemscore.Lipo>
80.6073

> <Gold.Chemscore.Internal_Hbond>
0.0000

> <Gold.Chemscore.DEClash>
1.5178

> <Gold.Chemscore.DEInternal>
0.8878

> <Gold.Chemscore.Rot>
1.8186

> <Gold.Chemscore.Internal.Correction>
   9.000000E+99

> <Gold.Chemscore.Hbonds>
donor molecule, donor type, donor heavy atom, donor atom, acceptor molecule, acceptor atom, score
      L1  H    12    27       P1  7948  0.97
      L1  H    15    39       P1 10175  1.00
      P1  H  7989  7998       L1     8  0.96

> <Gold.Chemscore.Hbond.Weighted>
-9.9064

> <Gold.Chemscore.Metal.Weighted>
-0.0000

> <Gold.Chemscore.Lipo.Weighted>
-9.4311

> <Gold.Chemscore.Internal_Hbond.Weighted>
0.0000

> <Gold.Chemscore.DEClash.Weighted>
1.5178

> <Gold.Chemscore.DEInternal.Weighted>
0.8878

> <Gold.Chemscore.Rot.Weighted>
4.6557

> <Gold.Chemscore.Internal.Correction.Weighted>
   9.000000E+99

> <Gold.Protein.RotatedTorsions>
[ 6907 6896 6895 6894 ] final -178.72 input  -60.11 | X-H torsion
[ 7974 7965 7964 7962 ] final -141.60 input  175.53 | X-H torsion
[ 8008 7997 7996 7995 ] final  -64.10 input   59.86 | X-H torsion
[ 10167 10162 10161 10158 ] final    4.61 input  -65.29 | X-H torsion
[ 10718 10713 10712 10709 ] final   44.82 input   66.30 | X-H torsion
[ 10763 10752 10751 10750 ] final -123.46 input  -60.55 | X-H torsion
[ 11005 11000 10999 10996 ] final  110.35 input  -57.11 | X-H torsion

> <Gold.Protein.ActiveResidues>
 VAL166  LYS551  ARG553  GLY616  TRP617  ASP618  TYR619  PRO620  LYS621  CYS622 
 ASP623  PHE694  ASN695  SER759  ASP760  ASP761  ALA762  ILE779  LEU786  VAL792 
 PHE793  MET794  SER795  GLU796  ALA797  LYS798  CYS799  TRP800  GLU811  SER814 

> <Gold.Protein.RotatedAtoms>
  151.6418  133.3325  159.3131 H   0  0  0  0  0  0  0  0  0  0  0  0  # atno 6907 bound_to 6896
  150.8004  134.7097  159.6606 H   0  0  0  0  0  0  0  0  0  0  0  0  # atno 6908 bound_to 6896
  152.4095  134.6153  160.0088 H   0  0  0  0  0  0  0  0  0  0  0  0  # atno 6909 bound_to 6896
  144.8507  140.6060  143.5392 H   0  0  0  0  0  0  0  0  0  0  0  0  # atno 7974 bound_to 7965
  154.4592  140.0961  156.6845 H   0  0  0  0  0  0  0  0  0  0  0  0  # atno 8008 bound_to 7997
  155.5045  140.3474  155.4358 H   0  0  0  0  0  0  0  0  0  0  0  0  # atno 8009 bound_to 7997
  156.0838  140.1379  156.9668 H   0  0  0  0  0  0  0  0  0  0  0  0  # atno 8010 bound_to 7997
  140.6526  143.7508  150.7599 H   0  0  0  0  0  0  0  0  0  0  0  0  # atno 10167 bound_to 10162
  157.4309  130.8024  149.7602 H   0  0  0  0  0  0  0  0  0  0  0  0  # atno 10718 bound_to 10713
  154.8708  135.4097  154.2948 H   0  0  0  0  0  0  0  0  0  0  0  0  # atno 10763 bound_to 10752
  153.3817  135.7011  153.6565 H   0  0  0  0  0  0  0  0  0  0  0  0  # atno 10764 bound_to 10752
  153.5385  135.3653  155.2679 H   0  0  0  0  0  0  0  0  0  0  0  0  # atno 10765 bound_to 10752
  139.8880  134.9482  156.6266 H   0  0  0  0  0  0  0  0  0  0  0  0  # atno 11005 bound_to 11000
  145.4506  139.1524  143.3920 LP  0  0  0  0  0  0  0  0  0  0  0  0  # atno 17320 bound_to 7965
  146.2782  140.4631  142.8787 LP  0  0  0  0  0  0  0  0  0  0  0  0  # atno 17321 bound_to 7965
  140.1162  143.4654  152.2341 LP  0  0  0  0  0  0  0  0  0  0  0  0  # atno 17342 bound_to 10162
  139.5743  144.7479  151.3807 LP  0  0  0  0  0  0  0  0  0  0  0  0  # atno 17343 bound_to 10162
  155.9913  130.3938  150.2991 LP  0  0  0  0  0  0  0  0  0  0  0  0  # atno 17370 bound_to 10713
  157.1148  131.0231  151.3033 LP  0  0  0  0  0  0  0  0  0  0  0  0  # atno 17371 bound_to 10713
  140.7699  133.8747  155.8483 LP  0  0  0  0  0  0  0  0  0  0  0  0  # atno 17394 bound_to 11000
  140.9851  134.1354  157.4459 LP  0  0  0  0  0  0  0  0  0  0  0  0  # atno 17395 bound_to 11000

$$$$
