AV-unprocessed.smi:1536|AV-procd|sdf|6187|dock3
  -GOLD-   22720 6353D 1   1.00000     0.00000
 Structure written by MMmdl.
 48 49  0  0  0  0  0  0  0  0  2 V2000
  144.7632  135.4618  150.6716 C   0  0  0  0  0  0  0  0  0  0  0  0
  145.3127  135.0925  152.0564 C   0  0  2  0  0  0  0  0  0  0  0  0
  145.8684  136.3233  152.7945 C   0  0  0  0  0  0  0  0  0  0  0  0
  146.4407  135.9413  154.1696 C   0  0  0  0  0  0  0  0  0  0  0  0
  147.4831  134.8895  154.0291 N   0  3  1  0  0  0  0  0  0  0  0  0
  148.3234  134.6589  155.2475 C   0  0  1  0  0  0  0  0  0  0  0  0
  147.5399  134.0513  156.4461 C   0  0  0  0  0  0  0  0  0  0  0  0
  147.0347  135.0682  157.3626 N   0  0  0  0  0  0  0  0  0  0  0  0
  147.6676  135.5262  158.4549 C   0  0  0  0  0  0  0  0  0  0  0  0
  148.7877  135.1488  158.7953 O   0  0  0  0  0  0  0  0  0  0  0  0
  146.9101  136.5369  159.3211 C   0  0  0  0  0  0  0  0  0  0  0  0
  146.9253  136.1718  160.7262 N   0  0  0  0  0  0  0  0  0  0  0  0
  146.6887  135.0071  161.3335 C   0  0  0  0  0  0  0  0  0  0  0  0
  146.8252  135.1052  162.6471 N   0  0  0  0  0  0  0  0  0  0  0  0
  147.1681  136.4347  162.8303 N   0  0  0  0  0  0  0  0  0  0  0  0
  147.2281  137.0730  161.6942 N   0  0  0  0  0  0  0  0  0  0  0  0
  149.5868  133.8324  154.8683 C   0  0  0  0  0  0  0  0  0  0  0  0
  149.2935  132.3303  154.6949 C   0  0  0  0  0  0  0  0  0  0  0  0
  150.7161  134.0014  155.9049 C   0  0  0  0  0  0  0  0  0  0  0  0
  146.9671  133.6687  153.3531 C   0  0  0  0  0  0  0  0  0  0  0  0
  146.4078  134.0149  151.9641 C   0  0  0  0  0  0  0  0  0  0  0  0
  145.5445  135.8705  150.0300 H   0  0  0  0  0  0  0  0  0  0  0  0
  143.9721  136.2081  150.7490 H   0  0  0  0  0  0  0  0  0  0  0  0
  144.3441  134.5888  150.1699 H   0  0  0  0  0  0  0  0  0  0  0  0
  144.4867  134.6885  152.6439 H   0  0  0  0  0  0  0  0  0  0  0  0
  146.6486  136.7940  152.1944 H   0  0  0  0  0  0  0  0  0  0  0  0
  145.0830  137.0696  152.9204 H   0  0  0  0  0  0  0  0  0  0  0  0
  146.8672  136.8299  154.6360 H   0  0  0  0  0  0  0  0  0  0  0  0
  145.6326  135.6005  154.8153 H   0  0  0  0  0  0  0  0  0  0  0  0
  148.6914  135.6329  155.5741 H   0  0  0  0  0  0  0  0  0  0  0  0
  146.7367  133.4092  156.0813 H   0  0  0  0  0  0  0  0  0  0  0  0
  148.1915  133.4117  157.0402 H   0  0  0  0  0  0  0  0  0  0  0  0
  146.1215  135.4483  157.1581 H   0  0  0  0  0  0  0  0  0  0  0  0
  147.3548  137.5257  159.1994 H   0  0  0  0  0  0  0  0  0  0  0  0
  145.8725  136.6079  158.9922 H   0  0  0  0  0  0  0  0  0  0  0  0
  146.4235  134.0957  160.8179 H   0  0  0  0  0  0  0  0  0  0  0  0
  149.9662  134.1932  153.9119 H   0  0  0  0  0  0  0  0  0  0  0  0
  148.8181  131.9128  155.5832 H   0  0  0  0  0  0  0  0  0  0  0  0
  150.2120  131.7694  154.5184 H   0  0  0  0  0  0  0  0  0  0  0  0
  148.6454  132.1370  153.8406 H   0  0  0  0  0  0  0  0  0  0  0  0
  150.3932  133.6854  156.8974 H   0  0  0  0  0  0  0  0  0  0  0  0
  151.0556  135.0346  155.9779 H   0  0  0  0  0  0  0  0  0  0  0  0
  151.5881  133.4041  155.6362 H   0  0  0  0  0  0  0  0  0  0  0  0
  147.7632  132.9322  153.2465 H   0  0  0  0  0  0  0  0  0  0  0  0
  146.1839  133.2050  153.9521 H   0  0  0  0  0  0  0  0  0  0  0  0
  146.0084  133.1146  151.4957 H   0  0  0  0  0  0  0  0  0  0  0  0
  147.2184  134.3631  151.3221 H   0  0  0  0  0  0  0  0  0  0  0  0
  148.1353  135.2901  153.3700 H   0  0  0  0  0  0  0  0  0  0  0  0
  1  2  1  0  0  0  0
  1 22  1  0  0  0  0
  1 23  1  0  0  0  0
  1 24  1  0  0  0  0
  2 21  1  0  0  0  0
  2  3  1  0  0  0  0
  2 25  1  0  0  0  0
  3  4  1  0  0  0  0
  3 26  1  0  0  0  0
  3 27  1  0  0  0  0
  4  5  1  0  0  0  0
  4 28  1  0  0  0  0
  4 29  1  0  0  0  0
  5  6  1  0  0  0  0
  5 20  1  0  0  0  0
  5 48  1  0  0  0  0
  6  7  1  0  0  0  0
  6 17  1  0  0  0  0
  6 30  1  0  0  0  0
  7  8  1  0  0  0  0
  7 31  1  0  0  0  0
  7 32  1  0  0  0  0
  8  9  1  0  0  0  0
  8 33  1  0  0  0  0
  9 10  2  0  0  0  0
  9 11  1  0  0  0  0
 11 12  1  0  0  0  0
 11 34  1  0  0  0  0
 11 35  1  0  0  0  0
 12 16  1  0  0  0  0
 12 13  1  0  0  0  0
 13 14  2  0  0  0  0
 13 36  1  0  0  0  0
 14 15  1  0  0  0  0
 15 16  2  0  0  0  0
 17 18  1  0  0  0  0
 17 19  1  0  0  0  0
 17 37  1  0  0  0  0
 18 38  1  0  0  0  0
 18 39  1  0  0  0  0
 18 40  1  0  0  0  0
 19 41  1  0  0  0  0
 19 42  1  0  0  0  0
 19 43  1  0  0  0  0
 20 21  1  0  0  0  0
 20 44  1  0  0  0  0
 20 45  1  0  0  0  0
 21 46  1  0  0  0  0
 21 47  1  0  0  0  0
M  CHG  1   5   1
M  END
> <s_m_source_file>
AV-unprocessed.smi

> <i_m_source_file_index>
1536

> <i_lp_mmshare_version>
43012

> <i_f3d_flags>
0

> <s_epik_input>
W0NIM11bQ0hdMVtDSDJdW0NIMl1OKFtDSDJdW0NIMl0xKVtDQEBIXShbQ0hdKFtDSDNdKVtDSDNdKVtDSDJdW05IXUMoPU8pW0NIMl1uMltjSF1ubm4y

> <s_epik_cmdline>
J2VwaWtfcHl0aG9uJywgJy1waCcsICc3LjAnLCAnLXRuJywgJzgnLCAnLW1hJywgJzIwMCcsICctbWV0YWxfYmluZGluZycsICctaW1hZScsICc8aW5maWxlLm1hZT4nLCAnLW9tYWUnLCAnPG91dGZpbGUubWFlPic=

> <r_lp_tautomer_probability>
1

> <r_epik_Ionization_Penalty>
0.00109671

> <r_epik_Ionization_Penalty_Charging>
0.00109273

> <r_epik_Ionization_Penalty_Neutral>
3.97951e-06

> <r_epik_State_Penalty>
0.000716588

> <r_epik_Charging_Adjusted_Penalty>
0.00180932

> <i_epik_Tot_Q>
1

> <i_epik_Tot_abs_Q>
1

> <r_epik_Metal_State_Penalty>
-0

> <b_epik_Metal_Only>
0

> <s_lp_Force_Field>
OPLS_2005

> <r_lp_Energy>
35.3262

> <b_lp_Chiralities_Consistent>
1

> <s_lp_Variant>
AV-unprocessed.smi:1536-2

> <Gold.Version>
5.8.1

> <Gold.Id.Protein>
6NUR|6NUR_protein|mol2

> <Gold.PLP.Fitness>
40.1627

> <Gold.PLP.PLP>
-28.0002

> <Gold.PLP.part.hbond>
-4.3288

> <Gold.PLP.part.metal>
0.0000

> <Gold.PLP.part.buried>
-4.6073

> <Gold.PLP.part.nonpolar>
-17.9520

> <Gold.PLP.part.repulsive>
0.0044

> <Gold.PLP.ligand.clash>
0.0000

> <Gold.PLP.ligand.torsion>
1.2763

> <Gold.PLP.Chemscore.Hbond>
4.7200

> <Gold.PLP.Chemscore.CHOScore>
0.0000

> <Gold.PLP.Chemscore.Metal>
0.0000

> <Gold.Chemscore.Hbonds>
donor molecule, donor type, donor heavy atom, donor atom, acceptor molecule, acceptor atom, score
      L1  H     5    48       P1  7948  2.00
      P1  H  6896  6909       L1    10  0.83
      P1  H  6931  6943       L1    16  0.62
      P1  H  6934  6947       L1    16  0.79

> <Gold.PLP.Chemscore.Internal.Correction>
0.5551

> <Gold.Rescore>
     Score         DG    S(hbond)    S(metal)    S(lipo)     H(rot)  DE(clash)    DE(int)     intcor
     12.44     -13.70       2.97        0.00      46.00       2.77       0.06       1.19       ----

> <Gold.Chemscore.Fitness>
12.4431

> <Gold.Chemscore.DG>
-13.6961

> <Gold.Chemscore.ZeroCoef>
-5.4800

> <Gold.Chemscore.Hbond>
2.9725

> <Gold.Chemscore.Metal>
0.0000

> <Gold.Chemscore.Lipo>
45.9959

> <Gold.Chemscore.Internal_Hbond>
0.0000

> <Gold.Chemscore.DEClash>
0.0630

> <Gold.Chemscore.DEInternal>
1.1900

> <Gold.Chemscore.Rot>
2.7709

> <Gold.Chemscore.Internal.Correction>
   9.000000E+99

> <Gold.Chemscore.Hbonds>
donor molecule, donor type, donor heavy atom, donor atom, acceptor molecule, acceptor atom, score
      L1  H     5    48       P1  7948  0.99
      P1  H  6896  6909       L1    10  0.80
      P1  H  6931  6943       L1    16  0.21
      P1  H  6934  6947       L1    16  0.58

> <Gold.Chemscore.Hbond.Weighted>
-9.9281

> <Gold.Chemscore.Metal.Weighted>
-0.0000

> <Gold.Chemscore.Lipo.Weighted>
-5.3815

> <Gold.Chemscore.Internal_Hbond.Weighted>
0.0000

> <Gold.Chemscore.DEClash.Weighted>
0.0630

> <Gold.Chemscore.DEInternal.Weighted>
1.1900

> <Gold.Chemscore.Rot.Weighted>
7.0935

> <Gold.Chemscore.Internal.Correction.Weighted>
   9.000000E+99

> <Gold.Protein.RotatedTorsions>
[ 6907 6896 6895 6894 ] final   39.07 input  -60.11 | X-H torsion
[ 7974 7965 7964 7962 ] final  -85.72 input  175.53 | X-H torsion
[ 8008 7997 7996 7995 ] final  -33.45 input   59.86 | X-H torsion
[ 10167 10162 10161 10158 ] final  -17.31 input  -65.29 | X-H torsion
[ 10718 10713 10712 10709 ] final -114.66 input   66.30 | X-H torsion
[ 10763 10752 10751 10750 ] final -143.41 input  -60.55 | X-H torsion
[ 11005 11000 10999 10996 ] final  -80.03 input  -57.11 | X-H torsion

> <Gold.Protein.ActiveResidues>
 VAL166  LYS551  ARG553  GLY616  TRP617  ASP618  TYR619  PRO620  LYS621  CYS622 
 ASP623  PHE694  ASN695  SER759  ASP760  ASP761  ALA762  ILE779  LEU786  VAL792 
 PHE793  MET794  SER795  GLU796  ALA797  LYS798  CYS799  TRP800  GLU811  SER814 

> <Gold.Protein.RotatedAtoms>
  152.1648  134.8883  160.0538 H   0  0  0  0  0  0  0  0  0  0  0  0  # atno 6907 bound_to 6896
  151.9865  133.3771  159.4136 H   0  0  0  0  0  0  0  0  0  0  0  0  # atno 6908 bound_to 6896
  150.6893  134.3905  159.5118 H   0  0  0  0  0  0  0  0  0  0  0  0  # atno 6909 bound_to 6896
  145.4895  140.9553  143.1820 H   0  0  0  0  0  0  0  0  0  0  0  0  # atno 7974 bound_to 7965
  154.4149  140.1710  156.1890 H   0  0  0  0  0  0  0  0  0  0  0  0  # atno 8008 bound_to 7997
  155.9619  140.3393  155.6474 H   0  0  0  0  0  0  0  0  0  0  0  0  # atno 8009 bound_to 7997
  155.6737  140.0714  157.2501 H   0  0  0  0  0  0  0  0  0  0  0  0  # atno 8010 bound_to 7997
  140.7245  143.5028  150.9847 H   0  0  0  0  0  0  0  0  0  0  0  0  # atno 10167 bound_to 10162
  156.0844  130.6038  150.8804 H   0  0  0  0  0  0  0  0  0  0  0  0  # atno 10718 bound_to 10713
  154.8471  135.3469  154.6182 H   0  0  0  0  0  0  0  0  0  0  0  0  # atno 10763 bound_to 10752
  153.6791  135.6981  153.5128 H   0  0  0  0  0  0  0  0  0  0  0  0  # atno 10764 bound_to 10752
  153.2682  135.4301  155.0918 H   0  0  0  0  0  0  0  0  0  0  0  0  # atno 10765 bound_to 10752
  141.1668  133.7132  156.8212 H   0  0  0  0  0  0  0  0  0  0  0  0  # atno 11005 bound_to 11000
  144.7842  139.6462  143.7141 LP  0  0  0  0  0  0  0  0  0  0  0  0  # atno 17320 bound_to 7965
  146.2293  139.5782  142.9566 LP  0  0  0  0  0  0  0  0  0  0  0  0  # atno 17321 bound_to 7965
  139.8738  143.7158  152.3164 LP  0  0  0  0  0  0  0  0  0  0  0  0  # atno 17342 bound_to 10162
  139.7416  144.7558  151.0643 LP  0  0  0  0  0  0  0  0  0  0  0  0  # atno 17343 bound_to 10162
  157.5973  131.0942  150.9019 LP  0  0  0  0  0  0  0  0  0  0  0  0  # atno 17370 bound_to 10713
  156.9183  130.5306  149.5279 LP  0  0  0  0  0  0  0  0  0  0  0  0  # atno 17371 bound_to 10713
  140.2118  134.8822  157.3282 LP  0  0  0  0  0  0  0  0  0  0  0  0  # atno 17394 bound_to 11000
  140.2079  134.4175  155.7628 LP  0  0  0  0  0  0  0  0  0  0  0  0  # atno 17395 bound_to 11000

$$$$
