AV-unprocessed.smi:817|AV-procd|sdf|3829|dock2
  -GOLD-   22720 1273D 1   1.00000     0.00000
 Structure written by MMmdl.
 48 49  0  0  0  0  0  0  0  0  2 V2000
  147.2738  141.3341  157.0195 C   0  0  0  0  0  0  0  0  0  0  0  0
  147.1713  140.4210  155.7889 C   0  0  1  0  0  0  0  0  0  0  0  0
  147.1578  141.2440  154.4888 C   0  0  0  0  0  0  0  0  0  0  0  0
  147.1082  140.3447  153.2463 C   0  0  0  0  0  0  0  0  0  0  0  0
  148.2556  139.3169  153.2360 C   0  0  0  0  0  0  0  0  0  0  0  0
  148.3180  138.4376  154.5196 C   0  0  1  0  0  0  0  0  0  0  0  0
  147.0565  137.5217  154.5940 C   0  0  0  0  0  0  0  0  0  0  0  0
  146.9669  136.6014  153.4580 N   0  0  0  0  0  0  0  0  0  0  0  0
  145.9558  135.7690  153.1566 C   0  0  0  0  0  0  0  0  0  0  0  0
  144.9450  135.7248  153.8531 O   0  0  0  0  0  0  0  0  0  0  0  0
  146.1589  135.0394  152.0420 N   0  0  0  0  0  0  0  0  0  0  0  0
  145.3189  134.0580  151.4494 C   0  0  0  0  0  0  0  0  0  0  0  0
  145.9109  133.1415  150.5561 C   0  0  0  0  0  0  0  0  0  0  0  0
  145.1127  132.1444  149.9646 C   0  0  0  0  0  0  0  0  0  0  0  0
  143.7454  132.0974  150.2966 C   0  0  0  0  0  0  0  0  0  0  0  0
  143.1641  132.9575  151.1588 N   0  0  0  0  0  0  0  0  0  0  0  0
  143.9354  133.9127  151.7218 C   0  0  0  0  0  0  0  0  0  0  0  0
  149.5464  137.5547  154.5150 N   0  3  0  0  0  0  0  0  0  0  0  0
  150.8455  138.2692  154.4014 C   0  0  0  0  0  0  0  0  0  0  0  0
  149.6229  136.5196  155.5792 C   0  0  0  0  0  0  0  0  0  0  0  0
  148.3283  139.3983  155.7552 C   0  0  0  0  0  0  0  0  0  0  0  0
  148.1937  141.9196  157.0068 H   0  0  0  0  0  0  0  0  0  0  0  0
  147.2625  140.7530  157.9421 H   0  0  0  0  0  0  0  0  0  0  0  0
  146.4370  142.0320  157.0609 H   0  0  0  0  0  0  0  0  0  0  0  0
  146.2221  139.8938  155.8754 H   0  0  0  0  0  0  0  0  0  0  0  0
  146.3037  141.9224  154.4839 H   0  0  0  0  0  0  0  0  0  0  0  0
  148.0483  141.8723  154.4420 H   0  0  0  0  0  0  0  0  0  0  0  0
  146.1446  139.8378  153.1949 H   0  0  0  0  0  0  0  0  0  0  0  0
  147.1662  140.9626  152.3497 H   0  0  0  0  0  0  0  0  0  0  0  0
  148.1455  138.6962  152.3467 H   0  0  0  0  0  0  0  0  0  0  0  0
  149.1935  139.8586  153.1113 H   0  0  0  0  0  0  0  0  0  0  0  0
  147.0375  136.9332  155.5091 H   0  0  0  0  0  0  0  0  0  0  0  0
  146.1493  138.1238  154.6388 H   0  0  0  0  0  0  0  0  0  0  0  0
  147.7616  136.5830  152.8356 H   0  0  0  0  0  0  0  0  0  0  0  0
  147.0051  135.2438  151.5311 H   0  0  0  0  0  0  0  0  0  0  0  0
  146.9640  133.2010  150.3226 H   0  0  0  0  0  0  0  0  0  0  0  0
  145.5388  131.4320  149.2736 H   0  0  0  0  0  0  0  0  0  0  0  0
  143.1028  131.3458  149.8621 H   0  0  0  0  0  0  0  0  0  0  0  0
  143.4168  134.5511  152.4190 H   0  0  0  0  0  0  0  0  0  0  0  0
  151.0838  138.8144  155.3150 H   0  0  0  0  0  0  0  0  0  0  0  0
  150.8731  138.9658  153.5660 H   0  0  0  0  0  0  0  0  0  0  0  0
  151.6521  137.5557  154.2298 H   0  0  0  0  0  0  0  0  0  0  0  0
  149.5340  136.9555  156.5742 H   0  0  0  0  0  0  0  0  0  0  0  0
  150.5749  135.9893  155.5361 H   0  0  0  0  0  0  0  0  0  0  0  0
  148.8541  135.7576  155.4555 H   0  0  0  0  0  0  0  0  0  0  0  0
  149.2388  139.9964  155.7612 H   0  0  0  0  0  0  0  0  0  0  0  0
  148.3401  138.8237  156.6823 H   0  0  0  0  0  0  0  0  0  0  0  0
  149.4717  137.0247  153.6582 H   0  0  0  0  0  0  0  0  0  0  0  0
  1  2  1  0  0  0  0
  1 22  1  0  0  0  0
  1 23  1  0  0  0  0
  1 24  1  0  0  0  0
  2 21  1  0  0  0  0
  2  3  1  0  0  0  0
  2 25  1  0  0  0  0
  3  4  1  0  0  0  0
  3 26  1  0  0  0  0
  3 27  1  0  0  0  0
  4  5  1  0  0  0  0
  4 28  1  0  0  0  0
  4 29  1  0  0  0  0
  5  6  1  0  0  0  0
  5 30  1  0  0  0  0
  5 31  1  0  0  0  0
  6  7  1  0  0  0  0
  6 18  1  0  0  0  0
  6 21  1  0  0  0  0
  7  8  1  0  0  0  0
  7 32  1  0  0  0  0
  7 33  1  0  0  0  0
  8  9  1  0  0  0  0
  8 34  1  0  0  0  0
  9 10  2  0  0  0  0
  9 11  1  0  0  0  0
 11 12  1  0  0  0  0
 11 35  1  0  0  0  0
 12 17  1  0  0  0  0
 12 13  2  0  0  0  0
 13 14  1  0  0  0  0
 13 36  1  0  0  0  0
 14 15  2  0  0  0  0
 14 37  1  0  0  0  0
 15 16  1  0  0  0  0
 15 38  1  0  0  0  0
 16 17  2  0  0  0  0
 17 39  1  0  0  0  0
 18 19  1  0  0  0  0
 18 20  1  0  0  0  0
 18 48  1  0  0  0  0
 19 40  1  0  0  0  0
 19 41  1  0  0  0  0
 19 42  1  0  0  0  0
 20 43  1  0  0  0  0
 20 44  1  0  0  0  0
 20 45  1  0  0  0  0
 21 46  1  0  0  0  0
 21 47  1  0  0  0  0
M  CHG  1  18   1
M  END
> <s_m_source_file>
AV-unprocessed.smi

> <i_m_source_file_index>
817

> <i_lp_mmshare_version>
43012

> <i_f3d_flags>
0

> <s_epik_input>
W0NIM11bQ0BASF0oW0NIMl0xKVtDSDJdW0NIMl1bQ0gyXVtDQF0xKE4oW0NIM10pW0NIM10pW0NIMl1bTkhdQyg9TylbTkhdYzJbY0hdW2NIXVtjSF1uW2NIXTI=

> <s_epik_cmdline>
J2VwaWtfcHl0aG9uJywgJy1waCcsICc3LjAnLCAnLXRuJywgJzgnLCAnLW1hJywgJzIwMCcsICctbWV0YWxfYmluZGluZycsICctaW1hZScsICc8aW5maWxlLm1hZT4nLCAnLW9tYWUnLCAnPG91dGZpbGUubWFlPic=

> <r_lp_tautomer_probability>
1

> <r_epik_Ionization_Penalty>
0.00584939

> <r_epik_Ionization_Penalty_Charging>
0.00160539

> <r_epik_Ionization_Penalty_Neutral>
0.004244

> <r_epik_State_Penalty>
-0

> <r_epik_Charging_Adjusted_Penalty>
0.00160539

> <i_epik_Tot_Q>
1

> <i_epik_Tot_abs_Q>
1

> <r_epik_Metal_State_Penalty>
-0

> <b_epik_Metal_Only>
0

> <s_lp_Force_Field>
OPLS_2005

> <r_lp_Energy>
49.3624

> <b_lp_Chiralities_Consistent>
1

> <s_lp_Variant>
AV-unprocessed.smi:817-2

> <Gold.Version>
5.8.1

> <Gold.Id.Protein>
6NUR|6NUR_protein|mol2

> <Gold.PLP.Fitness>
41.9576

> <Gold.PLP.PLP>
-28.5251

> <Gold.PLP.part.hbond>
-2.9447

> <Gold.PLP.part.metal>
0.0000

> <Gold.PLP.part.buried>
-2.0671

> <Gold.PLP.part.nonpolar>
-24.6828

> <Gold.PLP.part.repulsive>
0.3992

> <Gold.PLP.ligand.clash>
0.0000

> <Gold.PLP.ligand.torsion>
0.1674

> <Gold.PLP.Chemscore.Hbond>
3.5529

> <Gold.PLP.Chemscore.CHOScore>
0.9962

> <Gold.PLP.Chemscore.Metal>
0.0000

> <Gold.Chemscore.Hbonds>
donor molecule, donor type, donor heavy atom, donor atom, acceptor molecule, acceptor atom, score
      L1  H     8    34       P1  7948  1.00
      L1  H    11    35       P1  7948  0.54
      L1  H    18    48       P1  7948  2.00
      L1  C    15    38       P1 10952  1.00

> <Gold.PLP.Chemscore.Internal.Correction>
0.1202

> <Gold.Rescore>
     Score         DG    S(hbond)    S(metal)    S(lipo)     H(rot)  DE(clash)    DE(int)     intcor
     17.73     -20.85       2.62        0.00      88.01       1.44       1.83       1.29       ----

> <Gold.Chemscore.Fitness>
17.7304

> <Gold.Chemscore.DG>
-20.8510

> <Gold.Chemscore.ZeroCoef>
-5.4800

> <Gold.Chemscore.Hbond>
2.6232

> <Gold.Chemscore.Metal>
0.0000

> <Gold.Chemscore.Lipo>
88.0106

> <Gold.Chemscore.Internal_Hbond>
0.0000

> <Gold.Chemscore.DEClash>
1.8346

> <Gold.Chemscore.DEInternal>
1.2861

> <Gold.Chemscore.Rot>
1.4405

> <Gold.Chemscore.Internal.Correction>
   9.000000E+99

> <Gold.Chemscore.Hbonds>
donor molecule, donor type, donor heavy atom, donor atom, acceptor molecule, acceptor atom, score
      L1  H     8    34       P1  7948  0.97
      L1  H    11    35       P1  7948  0.52
      L1  H    18    48       P1  7948  0.87

> <Gold.Chemscore.Hbond.Weighted>
-8.7615

> <Gold.Chemscore.Metal.Weighted>
-0.0000

> <Gold.Chemscore.Lipo.Weighted>
-10.2972

> <Gold.Chemscore.Internal_Hbond.Weighted>
0.0000

> <Gold.Chemscore.DEClash.Weighted>
1.8346

> <Gold.Chemscore.DEInternal.Weighted>
1.2861

> <Gold.Chemscore.Rot.Weighted>
3.6878

> <Gold.Chemscore.Internal.Correction.Weighted>
   9.000000E+99

> <Gold.Protein.RotatedTorsions>
[ 6907 6896 6895 6894 ] final   48.14 input  -60.11 | X-H torsion
[ 7974 7965 7964 7962 ] final -169.36 input  175.53 | X-H torsion
[ 8008 7997 7996 7995 ] final  132.28 input   59.86 | X-H torsion
[ 10167 10162 10161 10158 ] final -160.69 input  -65.29 | X-H torsion
[ 10718 10713 10712 10709 ] final  157.71 input   66.30 | X-H torsion
[ 10763 10752 10751 10750 ] final  132.12 input  -60.55 | X-H torsion
[ 11005 11000 10999 10996 ] final  127.93 input  -57.11 | X-H torsion

> <Gold.Protein.ActiveResidues>
 VAL166  LYS551  ARG553  GLY616  TRP617  ASP618  TYR619  PRO620  LYS621  CYS622 
 ASP623  PHE694  ASN695  SER759  ASP760  ASP761  ALA762  ILE779  LEU786  VAL792 
 PHE793  MET794  SER795  GLU796  ALA797  LYS798  CYS799  TRP800  GLU811  SER814 

> <Gold.Protein.RotatedAtoms>
  152.2762  134.7879  160.0404 H   0  0  0  0  0  0  0  0  0  0  0  0  # atno 6907 bound_to 6896
  151.8475  133.3429  159.3670 H   0  0  0  0  0  0  0  0  0  0  0  0  # atno 6908 bound_to 6896
  150.7171  134.5260  159.5721 H   0  0  0  0  0  0  0  0  0  0  0  0  # atno 6909 bound_to 6896
  144.7187  140.2233  143.6313 H   0  0  0  0  0  0  0  0  0  0  0  0  # atno 7974 bound_to 7965
  156.2980  140.2550  156.3063 H   0  0  0  0  0  0  0  0  0  0  0  0  # atno 8008 bound_to 7997
  154.9369  140.0397  157.2095 H   0  0  0  0  0  0  0  0  0  0  0  0  # atno 8009 bound_to 7997
  154.8164  140.2853  155.5821 H   0  0  0  0  0  0  0  0  0  0  0  0  # atno 8010 bound_to 7997
  139.6521  144.0066  152.2168 H   0  0  0  0  0  0  0  0  0  0  0  0  # atno 10167 bound_to 10162
  157.1877  131.0647  151.2096 H   0  0  0  0  0  0  0  0  0  0  0  0  # atno 10718 bound_to 10713
  153.7855  135.3162  155.3371 H   0  0  0  0  0  0  0  0  0  0  0  0  # atno 10763 bound_to 10752
  154.8145  135.4645  154.0610 H   0  0  0  0  0  0  0  0  0  0  0  0  # atno 10764 bound_to 10752
  153.1912  135.6908  153.8437 H   0  0  0  0  0  0  0  0  0  0  0  0  # atno 10765 bound_to 10752
  139.9533  134.9618  156.8927 H   0  0  0  0  0  0  0  0  0  0  0  0  # atno 11005 bound_to 11000
  145.8480  139.2162  143.1788 LP  0  0  0  0  0  0  0  0  0  0  0  0  # atno 17320 bound_to 7965
  146.0286  140.8280  142.9887 LP  0  0  0  0  0  0  0  0  0  0  0  0  # atno 17321 bound_to 7965
  139.9782  144.6446  150.7925 LP  0  0  0  0  0  0  0  0  0  0  0  0  # atno 17342 bound_to 10162
  140.7542  143.3023  151.3049 LP  0  0  0  0  0  0  0  0  0  0  0  0  # atno 17343 bound_to 10162
  157.3891  130.7272  149.6684 LP  0  0  0  0  0  0  0  0  0  0  0  0  # atno 17370 bound_to 10713
  155.9716  130.4151  150.4167 LP  0  0  0  0  0  0  0  0  0  0  0  0  # atno 17371 bound_to 10713
  140.5667  134.0483  155.7416 LP  0  0  0  0  0  0  0  0  0  0  0  0  # atno 17394 bound_to 11000
  141.1200  133.9476  157.2747 LP  0  0  0  0  0  0  0  0  0  0  0  0  # atno 17395 bound_to 11000

$$$$
