AV-unprocessed.smi:3076|AV-procd|sdf|11725|dock7
  -GOLD-   2272017123D 1   1.00000     0.00000
 Structure written by MMmdl.
 21 21  0  0  0  0  0  0  0  0  2 V2000
  148.2875  138.5385  153.0305 N   0  3  0  0  0  0  0  0  0  0  0  0
  149.0374  138.7195  154.2857 C   0  0  0  0  0  0  0  0  0  0  0  0
  149.3177  140.2055  154.5728 C   0  0  2  0  0  0  0  0  0  0  0  0
  149.7894  140.8165  153.3874 O   0  0  0  0  0  0  0  0  0  0  0  0
  150.3004  140.3671  155.7216 C   0  0  0  0  0  0  0  0  0  0  0  0
  149.9715  141.1151  156.8735 C   0  0  0  0  0  0  0  0  0  0  0  0
  150.9266  141.2397  157.9006 C   0  0  0  0  0  0  0  0  0  0  0  0
  152.1766  140.6112  157.7343 C   0  0  0  0  0  0  0  0  0  0  0  0
  152.5049  139.8955  156.6375 N   0  0  0  0  0  0  0  0  0  0  0  0
  151.5835  139.7804  155.6574 C   0  0  0  0  0  0  0  0  0  0  0  0
  148.5352  137.6534  152.6118 H   0  0  0  0  0  0  0  0  0  0  0  0
  148.5196  139.2894  152.3956 H   0  0  0  0  0  0  0  0  0  0  0  0
  148.4477  138.2862  155.0944 H   0  0  0  0  0  0  0  0  0  0  0  0
  149.9676  138.1522  154.2299 H   0  0  0  0  0  0  0  0  0  0  0  0
  148.3851  140.7020  154.8454 H   0  0  0  0  0  0  0  0  0  0  0  0
  149.7435  140.1857  152.6843 H   0  0  0  0  0  0  0  0  0  0  0  0
  149.0054  141.5887  156.9704 H   0  0  0  0  0  0  0  0  0  0  0  0
  150.7073  141.8041  158.7950 H   0  0  0  0  0  0  0  0  0  0  0  0
  152.9328  140.6872  158.5015 H   0  0  0  0  0  0  0  0  0  0  0  0
  151.8825  139.2038  154.7941 H   0  0  0  0  0  0  0  0  0  0  0  0
  147.2964  138.5564  153.2231 H   0  0  0  0  0  0  0  0  0  0  0  0
  1  2  1  0  0  0  0
  1 11  1  0  0  0  0
  1 12  1  0  0  0  0
  1 21  1  0  0  0  0
  2  3  1  0  0  0  0
  2 13  1  0  0  0  0
  2 14  1  0  0  0  0
  3  4  1  0  0  0  0
  3  5  1  0  0  0  0
  3 15  1  0  0  0  0
  4 16  1  0  0  0  0
  5 10  1  0  0  0  0
  5  6  2  0  0  0  0
  6  7  1  0  0  0  0
  6 17  1  0  0  0  0
  7  8  2  0  0  0  0
  7 18  1  0  0  0  0
  8  9  1  0  0  0  0
  8 19  1  0  0  0  0
  9 10  2  0  0  0  0
 10 20  1  0  0  0  0
M  CHG  1   1   1
M  END
> <s_m_source_file>
AV-unprocessed.smi

> <i_m_source_file_index>
3076

> <i_lp_mmshare_version>
43012

> <i_f3d_flags>
0

> <s_epik_input>
W05IMl1bQ0gyXVtDQEhdKFtPSF0pYzFbY0hdW2NIXVtjSF1uW2NIXTE=

> <s_epik_cmdline>
J2VwaWtfcHl0aG9uJywgJy1waCcsICc3LjAnLCAnLXRuJywgJzgnLCAnLW1hJywgJzIwMCcsICctbWV0YWxfYmluZGluZycsICctaW1hZScsICc8aW5maWxlLm1hZT4nLCAnLW9tYWUnLCAnPG91dGZpbGUubWFlPic=

> <r_epik_Ionization_Penalty>
0.0145342

> <r_epik_Ionization_Penalty_Charging>
0.0140431

> <r_epik_Ionization_Penalty_Neutral>
0.000491123

> <r_epik_State_Penalty>
0.0109628

> <r_epik_Charging_Adjusted_Penalty>
0.0250059

> <i_epik_Tot_Q>
1

> <i_epik_Tot_abs_Q>
1

> <r_epik_Metal_State_Penalty>
0.0109916

> <b_epik_Metal_Only>
0

> <s_lp_Force_Field>
OPLS_2005

> <r_lp_Energy>
5.00299

> <b_lp_Chiralities_Consistent>
1

> <s_lp_Variant>
AV-unprocessed.smi:3076-1

> <Gold.Version>
5.8.1

> <Gold.Id.Protein>
6NUR|6NUR_protein|mol2

> <Gold.PLP.Fitness>
38.9456

> <Gold.PLP.PLP>
-20.8268

> <Gold.PLP.part.hbond>
-5.0519

> <Gold.PLP.part.metal>
0.0000

> <Gold.PLP.part.buried>
-1.8314

> <Gold.PLP.part.nonpolar>
-13.2070

> <Gold.PLP.part.repulsive>
0.0535

> <Gold.PLP.ligand.clash>
0.0000

> <Gold.PLP.ligand.torsion>
0.1025

> <Gold.PLP.Chemscore.Hbond>
6.1056

> <Gold.PLP.Chemscore.CHOScore>
0.0000

> <Gold.PLP.Chemscore.Metal>
0.0000

> <Gold.Chemscore.Hbonds>
donor molecule, donor type, donor heavy atom, donor atom, acceptor molecule, acceptor atom, score
      L1  H     1    11       P1  7948  2.00
      L1  H     1    12       P1  7957  1.00
      L1  H     4    16       P1  7957  0.86
      P1  H  7989  7998       L1     4  0.23
      P1  H  7997  8010       L1     9  1.00
      P1  H  8011  8017       L1     4  0.90

> <Gold.PLP.Chemscore.Internal.Correction>
0.0070

> <Gold.Rescore>
     Score         DG    S(hbond)    S(metal)    S(lipo)     H(rot)  DE(clash)    DE(int)     intcor
     18.66     -18.75       3.97        0.00      41.49       1.90       0.01       0.08       ----

> <Gold.Chemscore.Fitness>
18.6636

> <Gold.Chemscore.DG>
-18.7467

> <Gold.Chemscore.ZeroCoef>
-5.4800

> <Gold.Chemscore.Hbond>
3.9735

> <Gold.Chemscore.Metal>
0.0000

> <Gold.Chemscore.Lipo>
41.4901

> <Gold.Chemscore.Internal_Hbond>
0.0000

> <Gold.Chemscore.DEClash>
0.0050

> <Gold.Chemscore.DEInternal>
0.0781

> <Gold.Chemscore.Rot>
1.8981

> <Gold.Chemscore.Internal.Correction>
   9.000000E+99

> <Gold.Chemscore.Hbonds>
donor molecule, donor type, donor heavy atom, donor atom, acceptor molecule, acceptor atom, score
      L1  H     1    11       P1  7948  1.00
      L1  H     1    12       P1  7957  0.95
      L1  H     4    16       P1  7957  0.79
      P1  H  7989  7998       L1     4  0.02
      P1  H  7997  8010       L1     9  0.69
      P1  H  8011  8017       L1     4  0.18

> <Gold.Chemscore.Hbond.Weighted>
-13.2715

> <Gold.Chemscore.Metal.Weighted>
-0.0000

> <Gold.Chemscore.Lipo.Weighted>
-4.8543

> <Gold.Chemscore.Internal_Hbond.Weighted>
0.0000

> <Gold.Chemscore.DEClash.Weighted>
0.0050

> <Gold.Chemscore.DEInternal.Weighted>
0.0781

> <Gold.Chemscore.Rot.Weighted>
4.8592

> <Gold.Chemscore.Internal.Correction.Weighted>
   9.000000E+99

> <Gold.Protein.RotatedTorsions>
[ 6907 6896 6895 6894 ] final  -55.88 input  -60.11 | X-H torsion
[ 7974 7965 7964 7962 ] final  -45.10 input  175.53 | X-H torsion
[ 8008 7997 7996 7995 ] final   86.82 input   59.86 | X-H torsion
[ 10167 10162 10161 10158 ] final  173.93 input  -65.29 | X-H torsion
[ 10718 10713 10712 10709 ] final   33.22 input   66.30 | X-H torsion
[ 10763 10752 10751 10750 ] final   -7.24 input  -60.55 | X-H torsion
[ 11005 11000 10999 10996 ] final -152.48 input  -57.11 | X-H torsion

> <Gold.Protein.ActiveResidues>
 VAL166  LYS551  ARG553  GLY616  TRP617  ASP618  TYR619  PRO620  LYS621  CYS622 
 ASP623  PHE694  ASN695  SER759  ASP760  ASP761  ALA762  ILE779  LEU786  VAL792 
 PHE793  MET794  SER795  GLU796  ALA797  LYS798  CYS799  TRP800  GLU811  SER814 

> <Gold.Protein.RotatedAtoms>
  150.8214  134.7424  159.6775 H   0  0  0  0  0  0  0  0  0  0  0  0  # atno 6907 bound_to 6896
  152.4330  134.5738  159.9938 H   0  0  0  0  0  0  0  0  0  0  0  0  # atno 6908 bound_to 6896
  151.5921  133.3328  159.3066 H   0  0  0  0  0  0  0  0  0  0  0  0  # atno 6909 bound_to 6896
  145.9854  140.7239  142.9343 H   0  0  0  0  0  0  0  0  0  0  0  0  # atno 7974 bound_to 7965
  155.9677  140.3388  155.6547 H   0  0  0  0  0  0  0  0  0  0  0  0  # atno 8008 bound_to 7997
  155.6716  140.0727  157.2536 H   0  0  0  0  0  0  0  0  0  0  0  0  # atno 8009 bound_to 7997
  154.4158  140.1690  156.1873 H   0  0  0  0  0  0  0  0  0  0  0  0  # atno 8010 bound_to 7997
  139.5125  144.3204  152.0208 H   0  0  0  0  0  0  0  0  0  0  0  0  # atno 10167 bound_to 10162
  157.2951  130.7322  149.6633 H   0  0  0  0  0  0  0  0  0  0  0  0  # atno 10718 bound_to 10713
  153.4236  135.7010  153.6277 H   0  0  0  0  0  0  0  0  0  0  0  0  # atno 10763 bound_to 10752
  153.4721  135.3712  155.2397 H   0  0  0  0  0  0  0  0  0  0  0  0  # atno 10764 bound_to 10752
  154.8723  135.4045  154.3608 H   0  0  0  0  0  0  0  0  0  0  0  0  # atno 10765 bound_to 10752
  140.7184  134.3754  157.5187 H   0  0  0  0  0  0  0  0  0  0  0  0  # atno 11005 bound_to 11000
  144.6873  140.2979  143.7268 LP  0  0  0  0  0  0  0  0  0  0  0  0  # atno 17320 bound_to 7965
  145.7708  139.1856  143.2213 LP  0  0  0  0  0  0  0  0  0  0  0  0  # atno 17321 bound_to 7965
  140.2646  144.4030  150.6173 LP  0  0  0  0  0  0  0  0  0  0  0  0  # atno 17342 bound_to 10162
  140.6132  143.2170  151.6844 LP  0  0  0  0  0  0  0  0  0  0  0  0  # atno 17343 bound_to 10162
  155.9669  130.4297  150.4843 LP  0  0  0  0  0  0  0  0  0  0  0  0  # atno 17370 bound_to 10713
  157.2813  131.0607  151.2195 LP  0  0  0  0  0  0  0  0  0  0  0  0  # atno 17371 bound_to 10713
  139.8854  134.8938  156.2645 LP  0  0  0  0  0  0  0  0  0  0  0  0  # atno 17394 bound_to 11000
  141.0024  133.7143  156.0982 LP  0  0  0  0  0  0  0  0  0  0  0  0  # atno 17395 bound_to 11000

$$$$
