AV-unprocessed.smi:246|AV-procd|sdf|1882|dock4
  -GOLD-   2262020533D 1   1.00000     0.00000
 Structure written by MMmdl.
 57 60  0  0  0  0  0  0  0  0  1 V2000
  153.6943  141.3812  161.6067 C   0  0  0  0  0  0  0  0  0  0  0  0
  153.0995  142.7346  161.1939 C   0  0  0  0  0  0  0  0  0  0  0  0
  152.6442  142.7173  159.8487 O   0  0  0  0  0  0  0  0  0  0  0  0
  151.9249  143.8782  159.4589 C   0  0  0  0  0  0  0  0  0  0  0  0
  150.6278  143.4433  158.7711 C   0  0  0  0  0  0  0  0  0  0  0  0
  150.9603  142.7159  157.5979 O   0  0  0  0  0  0  0  0  0  0  0  0
  149.8592  142.0551  156.9878 C   0  0  1  0  0  0  0  0  0  0  0  0
  150.3228  141.4861  155.6452 C   0  0  0  0  0  0  0  0  0  0  0  0
  150.9250  140.1236  155.9954 C   0  0  0  0  0  0  0  0  0  0  0  0
  150.2826  139.7273  157.2385 N   0  0  0  0  0  0  0  0  0  0  0  0
  150.1274  138.4295  157.6052 C   0  0  0  0  0  0  0  0  0  0  0  0
  150.0949  138.1291  158.9307 N   0  0  0  0  0  0  0  0  0  0  0  0
  149.9415  136.8659  159.3374 C   0  0  0  0  0  0  0  0  0  0  0  0
  149.8116  135.7627  158.5998 N   0  0  0  0  0  0  0  0  0  0  0  0
  149.8573  136.0517  157.2683 C   0  0  0  0  0  0  0  0  0  0  0  0
  150.0098  137.3439  156.6876 C   0  0  0  0  0  0  0  0  0  0  0  0
  150.0205  137.2321  155.3010 N   0  0  0  0  0  0  0  0  0  0  0  0
  149.8811  135.9547  155.0771 C   0  0  0  0  0  0  0  0  0  0  0  0
  149.7849  135.1715  156.2035 N   0  0  0  0  0  0  0  0  0  0  0  0
  149.6388  133.7277  156.2477 C   0  0  0  0  0  0  0  0  0  0  0  0
  150.9659  132.9700  156.0241 C   0  0  1  0  0  0  0  0  0  0  0  0
  151.8017  133.2677  157.1248 O   0  0  0  0  0  0  0  0  0  0  0  0
  150.8222  131.4356  155.8973 C   0  0  2  0  0  0  0  0  0  0  0  0
  152.0966  130.7209  155.4382 C   0  0  0  0  0  0  0  0  0  0  0  0
  151.5444  129.4521  154.8319 C   0  0  0  0  0  0  0  0  0  0  0  0
  150.2891  129.9673  154.1390 C   0  0  0  0  0  0  0  0  0  0  0  0
  149.8560  131.0870  154.9052 O   0  0  0  0  0  0  0  0  0  0  0  0
  149.4563  140.7998  157.7747 C   0  0  0  0  0  0  0  0  0  0  0  0
  149.0257  142.7463  156.8518 H   0  0  0  0  0  0  0  0  0  0  0  0
  154.1298  141.4404  162.6042 H   0  0  0  0  0  0  0  0  0  0  0  0
  154.4821  141.0751  160.9177 H   0  0  0  0  0  0  0  0  0  0  0  0
  152.9409  140.5944  161.6262 H   0  0  0  0  0  0  0  0  0  0  0  0
  152.3034  143.0403  161.8745 H   0  0  0  0  0  0  0  0  0  0  0  0
  153.8773  143.4952  161.2656 H   0  0  0  0  0  0  0  0  0  0  0  0
  151.7007  144.5228  160.3090 H   0  0  0  0  0  0  0  0  0  0  0  0
  152.5318  144.4559  158.7605 H   0  0  0  0  0  0  0  0  0  0  0  0
  150.0518  142.8116  159.4473 H   0  0  0  0  0  0  0  0  0  0  0  0
  150.0151  144.3149  158.5352 H   0  0  0  0  0  0  0  0  0  0  0  0
  149.4559  141.3383  155.0001 H   0  0  0  0  0  0  0  0  0  0  0  0
  151.0201  142.1380  155.1182 H   0  0  0  0  0  0  0  0  0  0  0  0
  150.7551  139.4049  155.1932 H   0  0  0  0  0  0  0  0  0  0  0  0
  151.9988  140.2073  156.1651 H   0  0  0  0  0  0  0  0  0  0  0  0
  149.9217  136.7180  160.4070 H   0  0  0  0  0  0  0  0  0  0  0  0
  149.8563  135.5458  154.0774 H   0  0  0  0  0  0  0  0  0  0  0  0
  149.2112  133.4616  157.2153 H   0  0  0  0  0  0  0  0  0  0  0  0
  148.9077  133.4340  155.4931 H   0  0  0  0  0  0  0  0  0  0  0  0
  151.4573  133.3554  155.1301 H   0  0  0  0  0  0  0  0  0  0  0  0
  152.4911  133.8428  156.8297 H   0  0  0  0  0  0  0  0  0  0  0  0
  150.4960  131.0073  156.8467 H   0  0  0  0  0  0  0  0  0  0  0  0
  152.6117  131.3039  154.6728 H   0  0  0  0  0  0  0  0  0  0  0  0
  152.7962  130.5324  156.2532 H   0  0  0  0  0  0  0  0  0  0  0  0
  152.2388  128.9617  154.1492 H   0  0  0  0  0  0  0  0  0  0  0  0
  151.2785  128.7451  155.6191 H   0  0  0  0  0  0  0  0  0  0  0  0
  150.5221  130.3098  153.1300 H   0  0  0  0  0  0  0  0  0  0  0  0
  149.5107  129.2075  154.0681 H   0  0  0  0  0  0  0  0  0  0  0  0
  149.5924  140.9102  158.8503 H   0  0  0  0  0  0  0  0  0  0  0  0
  148.4073  140.5656  157.5886 H   0  0  0  0  0  0  0  0  0  0  0  0
  1  2  1  0  0  0  0
  1 30  1  0  0  0  0
  1 31  1  0  0  0  0
  1 32  1  0  0  0  0
  2  3  1  0  0  0  0
  2 33  1  0  0  0  0
  2 34  1  0  0  0  0
  3  4  1  0  0  0  0
  4  5  1  0  0  0  0
  4 35  1  0  0  0  0
  4 36  1  0  0  0  0
  5  6  1  0  0  0  0
  5 37  1  0  0  0  0
  5 38  1  0  0  0  0
  6  7  1  0  0  0  0
  7 29  1  0  0  0  0
  7 28  1  0  0  0  0
  7  8  1  0  0  0  0
  8  9  1  0  0  0  0
  8 39  1  0  0  0  0
  8 40  1  0  0  0  0
  9 10  1  0  0  0  0
  9 41  1  0  0  0  0
  9 42  1  0  0  0  0
 10 11  1  0  0  0  0
 10 28  1  0  0  0  0
 11 16  1  0  0  0  0
 11 12  2  0  0  0  0
 12 13  1  0  0  0  0
 13 14  2  0  0  0  0
 13 43  1  0  0  0  0
 14 15  1  0  0  0  0
 15 19  1  0  0  0  0
 15 16  2  0  0  0  0
 16 17  1  0  0  0  0
 17 18  2  0  0  0  0
 18 19  1  0  0  0  0
 18 44  1  0  0  0  0
 19 20  1  0  0  0  0
 20 21  1  0  0  0  0
 20 45  1  0  0  0  0
 20 46  1  0  0  0  0
 21 22  1  0  0  0  0
 21 23  1  0  0  0  0
 21 47  1  0  0  0  0
 22 48  1  0  0  0  0
 23 27  1  0  0  0  0
 23 24  1  0  0  0  0
 23 49  1  0  0  0  0
 24 25  1  0  0  0  0
 24 50  1  0  0  0  0
 24 51  1  0  0  0  0
 25 26  1  0  0  0  0
 25 52  1  0  0  0  0
 25 53  1  0  0  0  0
 26 27  1  0  0  0  0
 26 54  1  0  0  0  0
 26 55  1  0  0  0  0
 28 56  1  0  0  0  0
 28 57  1  0  0  0  0
M  END
> <s_m_source_file>
AV-unprocessed.smi

> <i_m_source_file_index>
246

> <i_lp_mmshare_version>
43012

> <i_f3d_flags>
0

> <s_epik_input>
W0NIM11bQ0gyXU9bQ0gyXVtDSDJdT1tDQEhdMVtDSDJdW0NIMl1OKFtDSDJdMSljKG5bY0hdbjIpYyhjMjMpbltjSF1uM1tDSDJdW0NASF0oW09IXSlbQ0BASF00W0NIMl1bQ0gyXVtDSDJdTzQ=

> <s_epik_cmdline>
J2VwaWtfcHl0aG9uJywgJy1waCcsICc3LjAnLCAnLXRuJywgJzgnLCAnLW1hJywgJzIwMCcsICctbWV0YWxfYmluZGluZycsICctaW1hZScsICc8aW5maWxlLm1hZT4nLCAnLW9tYWUnLCAnPG91dGZpbGUubWFlPic=

> <r_lp_tautomer_probability>
1

> <r_epik_Ionization_Penalty>
0.0024631

> <r_epik_Ionization_Penalty_Charging>
0

> <r_epik_Ionization_Penalty_Neutral>
0.0024631

> <r_epik_State_Penalty>
0.00162428

> <r_epik_Charging_Adjusted_Penalty>
0.00162428

> <i_epik_Tot_Q>
0

> <i_epik_Tot_abs_Q>
0

> <r_epik_Metal_State_Penalty>
-0

> <b_epik_Metal_Only>
0

> <s_lp_Force_Field>
OPLS_2005

> <r_lp_Energy>
52.0053

> <b_lp_Chiralities_Consistent>
1

> <s_lp_Variant>
AV-unprocessed.smi:246-3

> <Gold.Version>
5.8.1

> <Gold.Id.Protein>
6NUR|6NUR_protein|mol2

> <Gold.PLP.Fitness>
46.5884

> <Gold.PLP.PLP>
-41.6918

> <Gold.PLP.part.hbond>
-2.3411

> <Gold.PLP.part.metal>
0.0000

> <Gold.PLP.part.buried>
-6.3056

> <Gold.PLP.part.nonpolar>
-32.9459

> <Gold.PLP.part.repulsive>
0.2196

> <Gold.PLP.ligand.clash>
0.0000

> <Gold.PLP.ligand.torsion>
1.4416

> <Gold.PLP.Chemscore.Hbond>
1.6400

> <Gold.PLP.Chemscore.CHOScore>
0.7894

> <Gold.PLP.Chemscore.Metal>
0.0000

> <Gold.Chemscore.Hbonds>
donor molecule, donor type, donor heavy atom, donor atom, acceptor molecule, acceptor atom, score
      P1  H  6896  6907       L1    22  0.48
      P1  H  6896  6908       L1    14  0.85
      L1  C    18    44       P1  7948  0.80

> <Gold.PLP.Chemscore.Internal.Correction>
0.4916

> <Gold.Rescore>
     Score         DG    S(hbond)    S(metal)    S(lipo)     H(rot)  DE(clash)    DE(int)     intcor
     11.83     -13.30       1.28        0.00      98.08       3.10       0.01       1.46       ----

> <Gold.Chemscore.Fitness>
11.8287

> <Gold.Chemscore.DG>
-13.2974

> <Gold.Chemscore.ZeroCoef>
-5.4800

> <Gold.Chemscore.Hbond>
1.2827

> <Gold.Chemscore.Metal>
0.0000

> <Gold.Chemscore.Lipo>
98.0846

> <Gold.Chemscore.Internal_Hbond>
0.0000

> <Gold.Chemscore.DEClash>
0.0114

> <Gold.Chemscore.DEInternal>
1.4573

> <Gold.Chemscore.Rot>
3.1026

> <Gold.Chemscore.Internal.Correction>
   9.000000E+99

> <Gold.Chemscore.Hbonds>
donor molecule, donor type, donor heavy atom, donor atom, acceptor molecule, acceptor atom, score
      P1  H  6896  6907       L1    22  0.36
      P1  H  6896  6908       L1    14  0.15

> <Gold.Chemscore.Hbond.Weighted>
-4.2841

> <Gold.Chemscore.Metal.Weighted>
-0.0000

> <Gold.Chemscore.Lipo.Weighted>
-11.4759

> <Gold.Chemscore.Internal_Hbond.Weighted>
0.0000

> <Gold.Chemscore.DEClash.Weighted>
0.0114

> <Gold.Chemscore.DEInternal.Weighted>
1.4573

> <Gold.Chemscore.Rot.Weighted>
7.9426

> <Gold.Chemscore.Internal.Correction.Weighted>
   9.000000E+99

> <Gold.Protein.RotatedTorsions>
[ 6907 6896 6895 6894 ] final  179.21 input  -60.11 | X-H torsion
[ 7974 7965 7964 7962 ] final  122.17 input  175.53 | X-H torsion
[ 8008 7997 7996 7995 ] final  118.37 input   59.86 | X-H torsion
[ 10167 10162 10161 10158 ] final -153.30 input  -65.29 | X-H torsion
[ 10718 10713 10712 10709 ] final  -34.03 input   66.30 | X-H torsion
[ 10763 10752 10751 10750 ] final   98.66 input  -60.55 | X-H torsion
[ 11005 11000 10999 10996 ] final   35.20 input  -57.11 | X-H torsion

> <Gold.Protein.ActiveResidues>
 VAL166  LYS551  ARG553  GLY616  TRP617  ASP618  TYR619  PRO620  LYS621  CYS622 
 ASP623  PHE694  ASN695  SER759  ASP760  ASP761  ALA762  ILE779  LEU786  VAL792 
 PHE793  MET794  SER795  GLU796  ALA797  LYS798  CYS799  TRP800  GLU811  SER814 

> <Gold.Protein.RotatedAtoms>
  151.6753  133.3313  159.3206 H   0  0  0  0  0  0  0  0  0  0  0  0  # atno 6907 bound_to 6896
  150.7848  134.6827  159.6462 H   0  0  0  0  0  0  0  0  0  0  0  0  # atno 6908 bound_to 6896
  152.3915  134.6437  160.0158 H   0  0  0  0  0  0  0  0  0  0  0  0  # atno 6909 bound_to 6896
  145.1107  139.3455  143.4764 H   0  0  0  0  0  0  0  0  0  0  0  0  # atno 7974 bound_to 7965
  156.2543  140.2876  156.0824 H   0  0  0  0  0  0  0  0  0  0  0  0  # atno 8008 bound_to 7997
  155.1552  140.0398  157.2847 H   0  0  0  0  0  0  0  0  0  0  0  0  # atno 8009 bound_to 7997
  154.6432  140.2527  155.7305 H   0  0  0  0  0  0  0  0  0  0  0  0  # atno 8010 bound_to 7997
  139.7108  143.9112  152.2467 H   0  0  0  0  0  0  0  0  0  0  0  0  # atno 10167 bound_to 10162
  156.3554  130.4315  149.7668 H   0  0  0  0  0  0  0  0  0  0  0  0  # atno 10718 bound_to 10713
  153.2918  135.4140  155.1173 H   0  0  0  0  0  0  0  0  0  0  0  0  # atno 10763 bound_to 10752
  154.8522  135.3520  154.5971 H   0  0  0  0  0  0  0  0  0  0  0  0  # atno 10764 bound_to 10752
  153.6394  135.7057  153.5305 H   0  0  0  0  0  0  0  0  0  0  0  0  # atno 10765 bound_to 10752
  140.2451  134.3369  155.7911 H   0  0  0  0  0  0  0  0  0  0  0  0  # atno 11005 bound_to 11000
  146.3526  140.1025  142.8607 LP  0  0  0  0  0  0  0  0  0  0  0  0  # atno 17320 bound_to 7965
  145.0850  140.9246  143.4803 LP  0  0  0  0  0  0  0  0  0  0  0  0  # atno 17321 bound_to 7965
  139.8980  144.6928  150.8696 LP  0  0  0  0  0  0  0  0  0  0  0  0  # atno 17342 bound_to 10162
  140.7732  143.3535  151.1967 LP  0  0  0  0  0  0  0  0  0  0  0  0  # atno 17343 bound_to 10162
  156.4853  130.8060  151.3072 LP  0  0  0  0  0  0  0  0  0  0  0  0  # atno 17370 bound_to 10713
  157.7467  130.9993  150.2883 LP  0  0  0  0  0  0  0  0  0  0  0  0  # atno 17371 bound_to 10713
  141.2207  133.7321  156.8947 LP  0  0  0  0  0  0  0  0  0  0  0  0  # atno 17394 bound_to 11000
  140.1614  134.9163  157.2720 LP  0  0  0  0  0  0  0  0  0  0  0  0  # atno 17395 bound_to 11000

$$$$
