AV-unprocessed.smi:2718|AV-procd|sdf|10492|dock5
  -GOLD-   2272014543D 1   1.00000     0.00000
 Structure written by MMmdl.
 47 48  0  0  0  0  0  0  0  0  1 V2000
  146.6307  136.9893  153.4007 C   0  0  0  0  0  0  0  0  0  0  0  0
  146.6951  138.4123  152.8825 C   0  0  0  0  0  0  0  0  0  0  0  0
  146.5269  138.5483  151.3795 C   0  0  0  0  0  0  0  0  0  0  0  0
  146.8917  139.4578  153.7089 C   0  0  0  0  0  0  0  0  0  0  0  0
  146.9806  140.8967  153.3263 C   0  0  2  0  0  0  0  0  0  0  0  0
  148.1504  141.8159  153.6654 C   0  0  2  0  0  0  0  0  0  0  0  0
  149.3314  141.3198  154.4527 C   0  0  0  0  0  0  0  0  0  0  0  0
  149.8889  140.2380  154.2673 O   0  0  0  0  0  0  0  0  0  0  0  0
  149.7379  142.1840  155.3944 N   0  0  0  0  0  0  0  0  0  0  0  0
  150.8643  141.9853  156.3029 C   0  0  0  0  0  0  0  0  0  0  0  0
  150.5591  142.3994  157.7607 C   0  0  1  0  0  0  0  0  0  0  0  0
  149.2440  141.7859  158.2624 C   0  0  0  0  0  0  0  0  0  0  0  0
  151.6986  142.1119  158.7020 C   0  0  0  0  0  0  0  0  0  0  0  0
  152.1677  140.8795  158.9402 N   0  0  0  0  0  0  0  0  0  0  0  0
  153.1995  141.0395  159.8427 N   0  0  0  0  0  0  0  0  0  0  0  0
  153.2485  142.3517  160.0657 C   0  0  0  0  0  0  0  0  0  0  0  0
  152.3435  143.0768  159.3919 N   0  0  0  0  0  0  0  0  0  0  0  0
  152.1371  144.5111  159.4226 C   0  0  0  0  0  0  0  0  0  0  0  0
  146.7946  142.0187  154.3356 C   0  0  0  0  0  0  0  0  0  0  0  0
  145.9927  143.2453  153.9354 C   0  0  0  0  0  0  0  0  0  0  0  0
  146.5279  141.7155  155.8080 C   0  0  0  0  0  0  0  0  0  0  0  0
  145.6678  136.5404  153.1563 H   0  0  0  0  0  0  0  0  0  0  0  0
  146.7585  136.9497  154.4828 H   0  0  0  0  0  0  0  0  0  0  0  0
  147.4167  136.3866  152.9450 H   0  0  0  0  0  0  0  0  0  0  0  0
  147.3349  138.0278  150.8651 H   0  0  0  0  0  0  0  0  0  0  0  0
  146.5340  139.5870  151.0509 H   0  0  0  0  0  0  0  0  0  0  0  0
  145.5812  138.1060  151.0659 H   0  0  0  0  0  0  0  0  0  0  0  0
  146.9906  139.2585  154.7659 H   0  0  0  0  0  0  0  0  0  0  0  0
  146.5274  141.0529  152.3491 H   0  0  0  0  0  0  0  0  0  0  0  0
  148.4038  142.5449  152.8968 H   0  0  0  0  0  0  0  0  0  0  0  0
  149.2287  143.0512  155.4891 H   0  0  0  0  0  0  0  0  0  0  0  0
  151.1988  140.9475  156.2605 H   0  0  0  0  0  0  0  0  0  0  0  0
  151.6883  142.5880  155.9195 H   0  0  0  0  0  0  0  0  0  0  0  0
  150.3989  143.4770  157.7484 H   0  0  0  0  0  0  0  0  0  0  0  0
  148.9978  142.1501  159.2602 H   0  0  0  0  0  0  0  0  0  0  0  0
  149.3053  140.6982  158.3102 H   0  0  0  0  0  0  0  0  0  0  0  0
  148.4144  142.0431  157.6032 H   0  0  0  0  0  0  0  0  0  0  0  0
  153.9640  142.7954  160.7426 H   0  0  0  0  0  0  0  0  0  0  0  0
  152.8940  144.9865  160.0469 H   0  0  0  0  0  0  0  0  0  0  0  0
  151.1503  144.7313  159.8301 H   0  0  0  0  0  0  0  0  0  0  0  0
  152.2071  144.9174  158.4139 H   0  0  0  0  0  0  0  0  0  0  0  0
  146.2912  144.1060  154.5346 H   0  0  0  0  0  0  0  0  0  0  0  0
  144.9268  143.0691  154.0831 H   0  0  0  0  0  0  0  0  0  0  0  0
  146.1535  143.4887  152.8846 H   0  0  0  0  0  0  0  0  0  0  0  0
  146.8978  142.5291  156.4320 H   0  0  0  0  0  0  0  0  0  0  0  0
  146.9969  140.7902  156.1365 H   0  0  0  0  0  0  0  0  0  0  0  0
  145.4561  141.6138  155.9811 H   0  0  0  0  0  0  0  0  0  0  0  0
  1  2  1  0  0  0  0
  1 22  1  0  0  0  0
  1 23  1  0  0  0  0
  1 24  1  0  0  0  0
  2  3  1  0  0  0  0
  2  4  2  0  0  0  0
  3 25  1  0  0  0  0
  3 26  1  0  0  0  0
  3 27  1  0  0  0  0
  4  5  1  0  0  0  0
  4 28  1  0  0  0  0
  5 19  1  0  0  0  0
  5  6  1  0  0  0  0
  5 29  1  0  0  0  0
  6  7  1  0  0  0  0
  6 19  1  0  0  0  0
  6 30  1  0  0  0  0
  7  8  2  0  0  0  0
  7  9  1  0  0  0  0
  9 10  1  0  0  0  0
  9 31  1  0  0  0  0
 10 11  1  0  0  0  0
 10 32  1  0  0  0  0
 10 33  1  0  0  0  0
 11 12  1  0  0  0  0
 11 13  1  0  0  0  0
 11 34  1  0  0  0  0
 12 35  1  0  0  0  0
 12 36  1  0  0  0  0
 12 37  1  0  0  0  0
 13 17  1  0  0  0  0
 13 14  2  0  0  0  0
 14 15  1  0  0  0  0
 15 16  2  0  0  0  0
 16 17  1  0  0  0  0
 16 38  1  0  0  0  0
 17 18  1  0  0  0  0
 18 39  1  0  0  0  0
 18 40  1  0  0  0  0
 18 41  1  0  0  0  0
 19 20  1  0  0  0  0
 19 21  1  0  0  0  0
 20 42  1  0  0  0  0
 20 43  1  0  0  0  0
 20 44  1  0  0  0  0
 21 45  1  0  0  0  0
 21 46  1  0  0  0  0
 21 47  1  0  0  0  0
M  END
> <s_m_source_file>
AV-unprocessed.smi

> <i_m_source_file_index>
2718

> <i_lp_mmshare_version>
43012

> <i_f3d_flags>
0

> <s_epik_input>
W0NIM11DKFtDSDNdKT1bQ0hdW0NAQEhdKEMxKFtDSDNdKVtDSDNdKVtDQEhdMUMoPU8pW05IXVtDSDJdW0NASF0oW0NIM10pYzJubltjSF1uMltDSDNd

> <s_epik_cmdline>
J2VwaWtfcHl0aG9uJywgJy1waCcsICc3LjAnLCAnLXRuJywgJzgnLCAnLW1hJywgJzIwMCcsICctbWV0YWxfYmluZGluZycsICctaW1hZScsICc8aW5maWxlLm1hZT4nLCAnLW9tYWUnLCAnPG91dGZpbGUubWFlPic=

> <r_lp_tautomer_probability>
1

> <r_epik_Ionization_Penalty>
0.000449586

> <r_epik_Ionization_Penalty_Charging>
0

> <r_epik_Ionization_Penalty_Neutral>
0.000449586

> <r_epik_State_Penalty>
0.000243372

> <r_epik_Charging_Adjusted_Penalty>
0.000243372

> <i_epik_Tot_Q>
0

> <i_epik_Tot_abs_Q>
0

> <r_epik_Metal_State_Penalty>
-0

> <b_epik_Metal_Only>
0

> <s_lp_Force_Field>
OPLS_2005

> <r_lp_Energy>
15.6704

> <b_lp_Chiralities_Consistent>
1

> <s_lp_Variant>
AV-unprocessed.smi:2718-7

> <Gold.Version>
5.8.1

> <Gold.Id.Protein>
6NUR|6NUR_protein|mol2

> <Gold.PLP.Fitness>
49.9785

> <Gold.PLP.PLP>
-45.0403

> <Gold.PLP.part.hbond>
-2.0000

> <Gold.PLP.part.metal>
0.0000

> <Gold.PLP.part.buried>
-2.0944

> <Gold.PLP.part.nonpolar>
-40.1964

> <Gold.PLP.part.repulsive>
0.3083

> <Gold.PLP.ligand.clash>
0.0000

> <Gold.PLP.ligand.torsion>
0.5528

> <Gold.PLP.Chemscore.Hbond>
1.9040

> <Gold.PLP.Chemscore.CHOScore>
0.0000

> <Gold.PLP.Chemscore.Metal>
0.0000

> <Gold.Chemscore.Hbonds>
donor molecule, donor type, donor heavy atom, donor atom, acceptor molecule, acceptor atom, score
      L1  H     9    31       P1  8028  1.00
      P1  H  7989  7998       L1     8  0.90

> <Gold.PLP.Chemscore.Internal.Correction>
0.3317

> <Gold.Rescore>
     Score         DG    S(hbond)    S(metal)    S(lipo)     H(rot)  DE(clash)    DE(int)     intcor
     13.04     -14.35       1.14        0.00      85.96       1.95       0.82       0.49       ----

> <Gold.Chemscore.Fitness>
13.0350

> <Gold.Chemscore.DG>
-14.3451

> <Gold.Chemscore.ZeroCoef>
-5.4800

> <Gold.Chemscore.Hbond>
1.1402

> <Gold.Chemscore.Metal>
0.0000

> <Gold.Chemscore.Lipo>
85.9614

> <Gold.Chemscore.Internal_Hbond>
0.0000

> <Gold.Chemscore.DEClash>
0.8164

> <Gold.Chemscore.DEInternal>
0.4936

> <Gold.Chemscore.Rot>
1.9533

> <Gold.Chemscore.Internal.Correction>
   9.000000E+99

> <Gold.Chemscore.Hbonds>
donor molecule, donor type, donor heavy atom, donor atom, acceptor molecule, acceptor atom, score
      L1  H     9    31       P1  8028  1.00
      P1  H  7989  7998       L1     8  0.21

> <Gold.Chemscore.Hbond.Weighted>
-3.8082

> <Gold.Chemscore.Metal.Weighted>
-0.0000

> <Gold.Chemscore.Lipo.Weighted>
-10.0575

> <Gold.Chemscore.Internal_Hbond.Weighted>
0.0000

> <Gold.Chemscore.DEClash.Weighted>
0.8164

> <Gold.Chemscore.DEInternal.Weighted>
0.4936

> <Gold.Chemscore.Rot.Weighted>
5.0005

> <Gold.Chemscore.Internal.Correction.Weighted>
   9.000000E+99

> <Gold.Protein.RotatedTorsions>
[ 6907 6896 6895 6894 ] final   -4.16 input  -60.11 | X-H torsion
[ 7974 7965 7964 7962 ] final  -99.96 input  175.53 | X-H torsion
[ 8008 7997 7996 7995 ] final   96.95 input   59.86 | X-H torsion
[ 10167 10162 10161 10158 ] final  -23.66 input  -65.29 | X-H torsion
[ 10718 10713 10712 10709 ] final  -78.09 input   66.30 | X-H torsion
[ 10763 10752 10751 10750 ] final  -37.23 input  -60.55 | X-H torsion
[ 11005 11000 10999 10996 ] final  169.71 input  -57.11 | X-H torsion

> <Gold.Protein.ActiveResidues>
 VAL166  LYS551  ARG553  GLY616  TRP617  ASP618  TYR619  PRO620  LYS621  CYS622 
 ASP623  PHE694  ASN695  SER759  ASP760  ASP761  ALA762  ILE779  LEU786  VAL792 
 PHE793  MET794  SER795  GLU796  ALA797  LYS798  CYS799  TRP800  GLU811  SER814 

> <Gold.Protein.RotatedAtoms>
  151.5021  135.1062  159.9831 H   0  0  0  0  0  0  0  0  0  0  0  0  # atno 6907 bound_to 6896
  152.4697  133.7999  159.6957 H   0  0  0  0  0  0  0  0  0  0  0  0  # atno 6908 bound_to 6896
  150.8700  133.7456  159.2990 H   0  0  0  0  0  0  0  0  0  0  0  0  # atno 6909 bound_to 6896
  145.3007  140.9376  143.2825 H   0  0  0  0  0  0  0  0  0  0  0  0  # atno 7974 bound_to 7965
  156.0850  140.3265  155.7742 H   0  0  0  0  0  0  0  0  0  0  0  0  # atno 8008 bound_to 7997
  155.5090  140.0575  157.2944 H   0  0  0  0  0  0  0  0  0  0  0  0  # atno 8009 bound_to 7997
  154.4604  140.1964  156.0277 H   0  0  0  0  0  0  0  0  0  0  0  0  # atno 8010 bound_to 7997
  140.7288  143.4423  151.0638 H   0  0  0  0  0  0  0  0  0  0  0  0  # atno 10167 bound_to 10162
  156.0127  130.4508  150.3444 H   0  0  0  0  0  0  0  0  0  0  0  0  # atno 10718 bound_to 10713
  153.8929  135.6810  153.4759 H   0  0  0  0  0  0  0  0  0  0  0  0  # atno 10763 bound_to 10752
  153.1171  135.4756  154.9131 H   0  0  0  0  0  0  0  0  0  0  0  0  # atno 10764 bound_to 10752
  154.7613  135.3211  154.8325 H   0  0  0  0  0  0  0  0  0  0  0  0  # atno 10765 bound_to 10752
  140.3006  134.7598  157.3913 H   0  0  0  0  0  0  0  0  0  0  0  0  # atno 11005 bound_to 11000
  144.9096  139.4546  143.6593 LP  0  0  0  0  0  0  0  0  0  0  0  0  # atno 17320 bound_to 7965
  146.3153  139.7896  142.8988 LP  0  0  0  0  0  0  0  0  0  0  0  0  # atno 17321 bound_to 7965
  139.8091  143.7975  152.3170 LP  0  0  0  0  0  0  0  0  0  0  0  0  # atno 17342 bound_to 10162
  139.8019  144.7370  150.9813 LP  0  0  0  0  0  0  0  0  0  0  0  0  # atno 17343 bound_to 10162
  157.1538  131.0327  151.2873 LP  0  0  0  0  0  0  0  0  0  0  0  0  # atno 17370 bound_to 10713
  157.4369  130.7522  149.7037 LP  0  0  0  0  0  0  0  0  0  0  0  0  # atno 17371 bound_to 10713
  140.1113  134.5342  155.8264 LP  0  0  0  0  0  0  0  0  0  0  0  0  # atno 17394 bound_to 11000
  141.2129  133.6725  156.6694 LP  0  0  0  0  0  0  0  0  0  0  0  0  # atno 17395 bound_to 11000

$$$$
