AV-unprocessed.smi:2999|AV-procd|sdf|11428|dock7
  -GOLD-   2272016353D 1   1.00000     0.00000
 Structure written by MMmdl.
 37 39  0  0  0  0  0  0  0  0  3 V2000
  148.6209  134.8569  158.5999 O   0  0  0  0  0  0  0  0  0  0  0  0
  148.6214  136.0862  158.5059 C   0  0  0  0  0  0  0  0  0  0  0  0
  149.0626  136.6686  157.3846 N   0  0  0  0  0  0  0  0  0  0  0  0
  149.5733  135.9645  156.2154 C   0  0  0  0  0  0  0  0  0  0  0  0
  149.7588  136.9233  155.0299 C   0  0  1  0  0  0  0  0  0  0  0  0
  148.4812  137.7234  154.6969 C   0  0  0  0  0  0  0  0  0  0  0  0
  148.7440  138.6805  153.5989 N   0  3  1  0  0  0  0  0  0  0  0  0
  147.5370  139.4421  153.2123 C   0  0  0  0  0  0  0  0  0  0  0  0
  146.3934  138.5704  152.7485 C   0  0  0  0  0  0  0  0  0  0  0  0
  147.2072  139.3517  151.7406 C   0  0  0  0  0  0  0  0  0  0  0  0
  149.8851  139.5606  153.9363 C   0  0  0  0  0  0  0  0  0  0  0  0
  151.1185  138.7163  154.2938 C   0  0  0  0  0  0  0  0  0  0  0  0
  150.7988  137.8372  155.3655 O   0  0  0  0  0  0  0  0  0  0  0  0
  148.2107  136.9655  159.4469 N   0  5  0  0  0  0  0  0  0  0  0  0
  147.6238  136.5207  160.5702 C   0  0  0  0  0  0  0  0  0  0  0  0
  147.4991  137.2683  161.6729 N   0  0  0  0  0  0  0  0  0  0  0  0
  146.8598  136.6065  162.7230 C   0  0  0  0  0  0  0  0  0  0  0  0
  146.4982  135.3216  162.4158 C   0  0  0  0  0  0  0  0  0  0  0  0
  146.9525  134.9018  160.7889 S   0  0  0  0  0  0  0  0  0  0  0  0
  149.0388  137.6770  157.3456 H   0  0  0  0  0  0  0  0  0  0  0  0
  150.5223  135.4818  156.4551 H   0  0  0  0  0  0  0  0  0  0  0  0
  148.8701  135.1742  155.9489 H   0  0  0  0  0  0  0  0  0  0  0  0
  150.0667  136.3440  154.1571 H   0  0  0  0  0  0  0  0  0  0  0  0
  147.6774  137.0489  154.3997 H   0  0  0  0  0  0  0  0  0  0  0  0
  148.1339  138.2647  155.5788 H   0  0  0  0  0  0  0  0  0  0  0  0
  147.3440  140.3592  153.7664 H   0  0  0  0  0  0  0  0  0  0  0  0
  146.5255  137.4900  152.7713 H   0  0  0  0  0  0  0  0  0  0  0  0
  145.3825  138.9194  152.9500 H   0  0  0  0  0  0  0  0  0  0  0  0
  146.7316  140.2145  151.2787 H   0  0  0  0  0  0  0  0  0  0  0  0
  147.8798  138.7901  151.0947 H   0  0  0  0  0  0  0  0  0  0  0  0
  150.1127  140.2118  153.0918 H   0  0  0  0  0  0  0  0  0  0  0  0
  149.6163  140.2043  154.7754 H   0  0  0  0  0  0  0  0  0  0  0  0
  151.4661  138.1468  153.4302 H   0  0  0  0  0  0  0  0  0  0  0  0
  151.9406  139.3632  154.6004 H   0  0  0  0  0  0  0  0  0  0  0  0
  146.7042  137.1270  163.6562 H   0  0  0  0  0  0  0  0  0  0  0  0
  145.9963  134.6005  163.0425 H   0  0  0  0  0  0  0  0  0  0  0  0
  149.0191  138.1351  152.7945 H   0  0  0  0  0  0  0  0  0  0  0  0
  1  2  2  0  0  0  0
  2  3  1  0  0  0  0
  2 14  1  0  0  0  0
  3  4  1  0  0  0  0
  3 20  1  0  0  0  0
  4  5  1  0  0  0  0
  4 21  1  0  0  0  0
  4 22  1  0  0  0  0
  5 13  1  0  0  0  0
  5  6  1  0  0  0  0
  5 23  1  0  0  0  0
  6  7  1  0  0  0  0
  6 24  1  0  0  0  0
  6 25  1  0  0  0  0
  7  8  1  0  0  0  0
  7 11  1  0  0  0  0
  7 37  1  0  0  0  0
  8 10  1  0  0  0  0
  8  9  1  0  0  0  0
  8 26  1  0  0  0  0
  9 10  1  0  0  0  0
  9 27  1  0  0  0  0
  9 28  1  0  0  0  0
 10 29  1  0  0  0  0
 10 30  1  0  0  0  0
 11 12  1  0  0  0  0
 11 31  1  0  0  0  0
 11 32  1  0  0  0  0
 12 13  1  0  0  0  0
 12 33  1  0  0  0  0
 12 34  1  0  0  0  0
 14 15  1  0  0  0  0
 15 19  1  0  0  0  0
 15 16  2  0  0  0  0
 16 17  1  0  0  0  0
 17 18  2  0  0  0  0
 17 35  1  0  0  0  0
 18 19  1  0  0  0  0
 18 36  1  0  0  0  0
M  CHG  1   7   1
M  CHG  1  14  -1
M  END
> <s_m_source_file>
AV-unprocessed.smi

> <i_m_source_file_index>
2999

> <i_lp_mmshare_version>
43012

> <i_f3d_flags>
0

> <s_epik_input>
czFbY0hdW2NIXW5jMVtOSF1DKD1PKVtOSF1bQ0gyXVtDQEBIXTJbQ0gyXU4oW0NIMl1bQ0gyXU8yKVtDSF0zW0NIMl1bQ0gyXTM=

> <s_epik_cmdline>
J2VwaWtfcHl0aG9uJywgJy1waCcsICc3LjAnLCAnLXRuJywgJzgnLCAnLW1hJywgJzIwMCcsICctbWV0YWxfYmluZGluZycsICctaW1hZScsICc8aW5maWxlLm1hZT4nLCAnLW9tYWUnLCAnPG91dGZpbGUubWFlPic=

> <r_lp_tautomer_probability>
0.999

> <r_epik_Ionization_Penalty>
7.79196

> <r_epik_Ionization_Penalty_Charging>
6.93299

> <r_epik_Ionization_Penalty_Neutral>
0.858963

> <r_epik_State_Penalty>
7.05108

> <r_epik_Charging_Adjusted_Penalty>
13.9841

> <i_epik_Tot_Q>
0

> <i_epik_Tot_abs_Q>
2

> <r_epik_Metal_State_Penalty>
3.05936

> <b_epik_Metal_Only>
1

> <s_lp_Force_Field>
OPLS_2005

> <r_lp_Energy>
14.293

> <b_lp_Chiralities_Consistent>
1

> <s_lp_Variant>
AV-unprocessed.smi:2999-12

> <Gold.Version>
5.8.1

> <Gold.Id.Protein>
6NUR|6NUR_protein|mol2

> <Gold.PLP.Fitness>
45.7160

> <Gold.PLP.PLP>
-32.0783

> <Gold.PLP.part.hbond>
-4.8041

> <Gold.PLP.part.metal>
0.0000

> <Gold.PLP.part.buried>
1.2218

> <Gold.PLP.part.nonpolar>
-27.8188

> <Gold.PLP.part.repulsive>
0.1464

> <Gold.PLP.ligand.clash>
0.0000

> <Gold.PLP.ligand.torsion>
0.8574

> <Gold.PLP.Chemscore.Hbond>
4.6860

> <Gold.PLP.Chemscore.CHOScore>
0.0000

> <Gold.PLP.Chemscore.Metal>
0.0000

> <Gold.Chemscore.Hbonds>
donor molecule, donor type, donor heavy atom, donor atom, acceptor molecule, acceptor atom, score
      L1  H     7    37       P1  7948  1.63
      P1  H  6896  6909       L1     1  0.34
      P1  H  6931  6943       L1    16  0.91
      P1  H  6934  6947       L1    16  0.78

> <Gold.PLP.Chemscore.Internal.Correction>
1.2945

> <Gold.Rescore>
     Score         DG    S(hbond)    S(metal)    S(lipo)     H(rot)  DE(clash)    DE(int)     intcor
     16.38     -20.29       2.99        0.00      75.21       1.55       1.53       2.37       ----

> <Gold.Chemscore.Fitness>
16.3819

> <Gold.Chemscore.DG>
-20.2867

> <Gold.Chemscore.ZeroCoef>
-5.4800

> <Gold.Chemscore.Hbond>
2.9870

> <Gold.Chemscore.Metal>
0.0000

> <Gold.Chemscore.Lipo>
75.2062

> <Gold.Chemscore.Internal_Hbond>
0.0000

> <Gold.Chemscore.DEClash>
1.5321

> <Gold.Chemscore.DEInternal>
2.3726

> <Gold.Chemscore.Rot>
1.5504

> <Gold.Chemscore.Internal.Correction>
   9.000000E+99

> <Gold.Chemscore.Hbonds>
donor molecule, donor type, donor heavy atom, donor atom, acceptor molecule, acceptor atom, score
      L1  H     7    37       P1  7948  0.76
      P1  H  6896  6909       L1     1  0.26
      P1  H  6931  6943       L1    16  0.66
      P1  H  6934  6947       L1    16  0.31

> <Gold.Chemscore.Hbond.Weighted>
-9.9765

> <Gold.Chemscore.Metal.Weighted>
-0.0000

> <Gold.Chemscore.Lipo.Weighted>
-8.7991

> <Gold.Chemscore.Internal_Hbond.Weighted>
0.0000

> <Gold.Chemscore.DEClash.Weighted>
1.5321

> <Gold.Chemscore.DEInternal.Weighted>
2.3726

> <Gold.Chemscore.Rot.Weighted>
3.9690

> <Gold.Chemscore.Internal.Correction.Weighted>
   9.000000E+99

> <Gold.Protein.RotatedTorsions>
[ 6907 6896 6895 6894 ] final   19.26 input  -60.11 | X-H torsion
[ 7974 7965 7964 7962 ] final  -48.03 input  175.53 | X-H torsion
[ 8008 7997 7996 7995 ] final    5.45 input   59.86 | X-H torsion
[ 10167 10162 10161 10158 ] final   80.12 input  -65.29 | X-H torsion
[ 10718 10713 10712 10709 ] final  -72.93 input   66.30 | X-H torsion
[ 10763 10752 10751 10750 ] final -110.13 input  -60.55 | X-H torsion
[ 11005 11000 10999 10996 ] final -178.48 input  -57.11 | X-H torsion

> <Gold.Protein.ActiveResidues>
 VAL166  LYS551  ARG553  GLY616  TRP617  ASP618  TYR619  PRO620  LYS621  CYS622 
 ASP623  PHE694  ASN695  SER759  ASP760  ASP761  ALA762  ILE779  LEU786  VAL792 
 PHE793  MET794  SER795  GLU796  ALA797  LYS798  CYS799  TRP800  GLU811  SER814 

> <Gold.Protein.RotatedAtoms>
  151.8782  135.0464  160.0485 H   0  0  0  0  0  0  0  0  0  0  0  0  # atno 6907 bound_to 6896
  152.2534  133.5230  159.5347 H   0  0  0  0  0  0  0  0  0  0  0  0  # atno 6908 bound_to 6896
  150.7091  134.0845  159.3952 H   0  0  0  0  0  0  0  0  0  0  0  0  # atno 6909 bound_to 6896
  145.9555  140.7531  142.9483 H   0  0  0  0  0  0  0  0  0  0  0  0  # atno 7974 bound_to 7965
  154.7285  140.2726  155.6477 H   0  0  0  0  0  0  0  0  0  0  0  0  # atno 8008 bound_to 7997
  156.2843  140.2720  156.1903 H   0  0  0  0  0  0  0  0  0  0  0  0  # atno 8009 bound_to 7997
  155.0413  140.0371  157.2500 H   0  0  0  0  0  0  0  0  0  0  0  0  # atno 8010 bound_to 7997
  139.9531  144.6012  150.8142 H   0  0  0  0  0  0  0  0  0  0  0  0  # atno 10167 bound_to 10162
  156.0300  130.4383  150.2667 H   0  0  0  0  0  0  0  0  0  0  0  0  # atno 10718 bound_to 10713
  154.8231  135.4575  154.0838 H   0  0  0  0  0  0  0  0  0  0  0  0  # atno 10763 bound_to 10752
  153.2175  135.6890  153.8046 H   0  0  0  0  0  0  0  0  0  0  0  0  # atno 10764 bound_to 10752
  153.7475  135.3303  155.3292 H   0  0  0  0  0  0  0  0  0  0  0  0  # atno 10765 bound_to 10752
  140.4293  134.6533  157.4704 H   0  0  0  0  0  0  0  0  0  0  0  0  # atno 11005 bound_to 11000
  144.6804  140.2504  143.7332 LP  0  0  0  0  0  0  0  0  0  0  0  0  # atno 17320 bound_to 7965
  145.8113  139.2004  143.1991 LP  0  0  0  0  0  0  0  0  0  0  0  0  # atno 17321 bound_to 7965
  140.7576  143.3091  151.2890 LP  0  0  0  0  0  0  0  0  0  0  0  0  # atno 17342 bound_to 10162
  139.6612  144.0185  152.2694 LP  0  0  0  0  0  0  0  0  0  0  0  0  # atno 17343 bound_to 10162
  157.0769  131.0132  151.3170 LP  0  0  0  0  0  0  0  0  0  0  0  0  # atno 17370 bound_to 10713
  157.4957  130.7849  149.7552 LP  0  0  0  0  0  0  0  0  0  0  0  0  # atno 17371 bound_to 10713
  140.0145  134.6640  155.9330 LP  0  0  0  0  0  0  0  0  0  0  0  0  # atno 17394 bound_to 11000
  141.1752  133.6540  156.4801 LP  0  0  0  0  0  0  0  0  0  0  0  0  # atno 17395 bound_to 11000

$$$$
