AV-unprocessed.smi:1033|AV-procd|sdf|4509|dock6
  -GOLD-   22720 2513D 1   1.00000     0.00000
 Structure written by MMmdl.
 57 59  0  0  0  0  0  0  0  0  3 V2000
  152.7320  143.2773  161.2887 C   0  0  0  0  0  0  0  0  0  0  0  0
  152.1955  142.7932  159.9531 C   0  0  0  0  0  0  0  0  0  0  0  0
  152.6831  141.5807  159.4156 C   0  0  0  0  0  0  0  0  0  0  0  0
  152.2097  141.0953  158.1770 C   0  0  0  0  0  0  0  0  0  0  0  0
  152.5398  139.9491  157.4746 N   0  0  0  0  0  0  0  0  0  0  0  0
  151.7621  140.0579  156.4017 C   0  0  0  0  0  0  0  0  0  0  0  0
  150.9613  141.1384  156.3272 N   0  0  0  0  0  0  0  0  0  0  0  0
  150.0296  141.4639  155.2616 C   0  0  0  0  0  0  0  0  0  0  0  0
  149.3218  140.2176  154.6952 C   0  0  1  0  0  0  0  0  0  0  0  0
  148.7988  139.4479  155.7614 O   0  0  0  0  0  0  0  0  0  0  0  0
  148.1627  140.5991  153.7530 C   0  0  0  0  0  0  0  0  0  0  0  0
  147.4124  139.4148  153.2597 N   0  3  2  0  0  0  0  0  0  0  0  0
  146.9385  139.5476  151.8587 C   0  0  0  0  0  0  0  0  0  0  0  0
  146.2608  138.2512  151.3784 C   0  0  0  0  0  0  0  0  0  0  0  0
  145.1496  137.8545  152.2820 N   0  3  1  0  0  0  0  0  0  0  0  0
  144.4228  136.6399  151.8297 C   0  0  0  0  0  0  0  0  0  0  0  0
  145.3027  135.6974  150.9849 C   0  0  1  0  0  0  0  0  0  0  0  0
  144.8786  134.2310  151.1369 C   0  0  0  0  0  0  0  0  0  0  0  0
  145.1795  136.0531  149.6230 O   0  0  0  0  0  0  0  0  0  0  0  0
  145.6195  137.7365  153.6848 C   0  0  0  0  0  0  0  0  0  0  0  0
  146.2969  139.0340  154.1600 C   0  0  0  0  0  0  0  0  0  0  0  0
  151.2268  141.8623  157.4852 C   0  0  0  0  0  0  0  0  0  0  0  0
  150.7348  143.0708  158.0093 C   0  0  0  0  0  0  0  0  0  0  0  0
  151.2189  143.5414  159.2477 C   0  0  0  0  0  0  0  0  0  0  0  0
  150.6808  144.8474  159.8052 C   0  0  0  0  0  0  0  0  0  0  0  0
  153.4304  142.5603  161.7215 H   0  0  0  0  0  0  0  0  0  0  0  0
  151.9183  143.4205  161.9999 H   0  0  0  0  0  0  0  0  0  0  0  0
  153.2574  144.2247  161.1669 H   0  0  0  0  0  0  0  0  0  0  0  0
  153.4272  141.0106  159.9524 H   0  0  0  0  0  0  0  0  0  0  0  0
  151.7724  139.3061  155.6259 H   0  0  0  0  0  0  0  0  0  0  0  0
  149.3012  142.1808  155.6433 H   0  0  0  0  0  0  0  0  0  0  0  0
  150.5813  141.9744  154.4709 H   0  0  0  0  0  0  0  0  0  0  0  0
  150.0584  139.6123  154.1673 H   0  0  0  0  0  0  0  0  0  0  0  0
  148.1878  139.9826  156.2470 H   0  0  0  0  0  0  0  0  0  0  0  0
  147.4846  141.2589  154.2969 H   0  0  0  0  0  0  0  0  0  0  0  0
  148.5308  141.1765  152.9035 H   0  0  0  0  0  0  0  0  0  0  0  0
  146.2389  140.3822  151.7878 H   0  0  0  0  0  0  0  0  0  0  0  0
  147.7712  139.7783  151.1954 H   0  0  0  0  0  0  0  0  0  0  0  0
  145.8915  138.4002  150.3644 H   0  0  0  0  0  0  0  0  0  0  0  0
  146.9955  137.4455  151.3308 H   0  0  0  0  0  0  0  0  0  0  0  0
  144.0231  136.1145  152.6985 H   0  0  0  0  0  0  0  0  0  0  0  0
  143.5590  136.9319  151.2297 H   0  0  0  0  0  0  0  0  0  0  0  0
  146.3508  135.7825  151.2701 H   0  0  0  0  0  0  0  0  0  0  0  0
  144.9728  133.9025  152.1723 H   0  0  0  0  0  0  0  0  0  0  0  0
  145.5007  133.5750  150.5272 H   0  0  0  0  0  0  0  0  0  0  0  0
  143.8414  134.0815  150.8346 H   0  0  0  0  0  0  0  0  0  0  0  0
  144.5761  136.7781  149.5535 H   0  0  0  0  0  0  0  0  0  0  0  0
  144.7755  137.5123  154.3383 H   0  0  0  0  0  0  0  0  0  0  0  0
  146.3152  136.8994  153.7660 H   0  0  0  0  0  0  0  0  0  0  0  0
  146.6728  138.8911  155.1741 H   0  0  0  0  0  0  0  0  0  0  0  0
  145.5689  139.8461  154.2020 H   0  0  0  0  0  0  0  0  0  0  0  0
  149.9893  143.6301  157.4636 H   0  0  0  0  0  0  0  0  0  0  0  0
  149.9720  145.3114  159.1189 H   0  0  0  0  0  0  0  0  0  0  0  0
  151.4925  145.5550  159.9751 H   0  0  0  0  0  0  0  0  0  0  0  0
  150.1672  144.6754  160.7512 H   0  0  0  0  0  0  0  0  0  0  0  0
  144.4718  138.6043  152.2717 H   0  0  0  0  0  0  0  0  0  0  0  0
  148.0681  138.6458  153.2812 H   0  0  0  0  0  0  0  0  0  0  0  0
  1  2  1  0  0  0  0
  1 26  1  0  0  0  0
  1 27  1  0  0  0  0
  1 28  1  0  0  0  0
  2 24  1  0  0  0  0
  2  3  2  0  0  0  0
  3  4  1  0  0  0  0
  3 29  1  0  0  0  0
  4 22  2  0  0  0  0
  4  5  1  0  0  0  0
  5  6  2  0  0  0  0
  6  7  1  0  0  0  0
  6 30  1  0  0  0  0
  7  8  1  0  0  0  0
  7 22  1  0  0  0  0
  8  9  1  0  0  0  0
  8 31  1  0  0  0  0
  8 32  1  0  0  0  0
  9 10  1  0  0  0  0
  9 11  1  0  0  0  0
  9 33  1  0  0  0  0
 10 34  1  0  0  0  0
 11 12  1  0  0  0  0
 11 35  1  0  0  0  0
 11 36  1  0  0  0  0
 12 21  1  0  0  0  0
 12 13  1  0  0  0  0
 12 57  1  0  0  0  0
 13 14  1  0  0  0  0
 13 37  1  0  0  0  0
 13 38  1  0  0  0  0
 14 15  1  0  0  0  0
 14 39  1  0  0  0  0
 14 40  1  0  0  0  0
 15 16  1  0  0  0  0
 15 20  1  0  0  0  0
 15 56  1  0  0  0  0
 16 17  1  0  0  0  0
 16 41  1  0  0  0  0
 16 42  1  0  0  0  0
 17 18  1  0  0  0  0
 17 19  1  0  0  0  0
 17 43  1  0  0  0  0
 18 44  1  0  0  0  0
 18 45  1  0  0  0  0
 18 46  1  0  0  0  0
 19 47  1  0  0  0  0
 20 21  1  0  0  0  0
 20 48  1  0  0  0  0
 20 49  1  0  0  0  0
 21 50  1  0  0  0  0
 21 51  1  0  0  0  0
 22 23  1  0  0  0  0
 23 24  2  0  0  0  0
 23 52  1  0  0  0  0
 24 25  1  0  0  0  0
 25 53  1  0  0  0  0
 25 54  1  0  0  0  0
 25 55  1  0  0  0  0
M  CHG  1  12   1
M  CHG  1  15   1
M  END
> <s_m_source_file>
AV-unprocessed.smi

> <i_m_source_file_index>
1033

> <i_lp_mmshare_version>
43012

> <i_f3d_flags>
0

> <s_epik_input>
W0NIM11jKFtjSF0xKWMoW0NIM10pW2NIXWMoYzEyKW4oW2NIXW4yKVtDSDJdW0NASF0oW09IXSlbQ0gyXU4zW0NIMl1bQ0gyXU4oW0NIMl1bQ0gyXTMpW0NIMl1bQ0BIXShbQ0gzXSlbT0hd

> <s_epik_cmdline>
J2VwaWtfcHl0aG9uJywgJy1waCcsICc3LjAnLCAnLXRuJywgJzgnLCAnLW1hJywgJzIwMCcsICctbWV0YWxfYmluZGluZycsICctaW1hZScsICc8aW5maWxlLm1hZT4nLCAnLW9tYWUnLCAnPG91dGZpbGUubWFlPic=

> <r_epik_Ionization_Penalty>
3.16016

> <r_epik_Ionization_Penalty_Charging>
3.07679

> <r_epik_Ionization_Penalty_Neutral>
0.083365

> <r_epik_State_Penalty>
2.09701

> <r_epik_Charging_Adjusted_Penalty>
5.1738

> <i_epik_Tot_Q>
2

> <i_epik_Tot_abs_Q>
2

> <r_epik_Metal_State_Penalty>
2.02534

> <b_epik_Metal_Only>
0

> <s_lp_Force_Field>
OPLS_2005

> <r_lp_Energy>
27.8385

> <b_lp_Chiralities_Consistent>
1

> <s_lp_Variant>
AV-unprocessed.smi:1033-20

> <Gold.Version>
5.8.1

> <Gold.Id.Protein>
6NUR|6NUR_protein|mol2

> <Gold.PLP.Fitness>
60.0783

> <Gold.PLP.PLP>
-51.1154

> <Gold.PLP.part.hbond>
-5.7169

> <Gold.PLP.part.metal>
0.0000

> <Gold.PLP.part.buried>
1.0796

> <Gold.PLP.part.nonpolar>
-47.3007

> <Gold.PLP.part.repulsive>
0.0261

> <Gold.PLP.ligand.clash>
0.0253

> <Gold.PLP.ligand.torsion>
1.6746

> <Gold.PLP.Chemscore.Hbond>
4.0000

> <Gold.PLP.Chemscore.CHOScore>
0.0000

> <Gold.PLP.Chemscore.Metal>
0.0000

> <Gold.Chemscore.Hbonds>
donor molecule, donor type, donor heavy atom, donor atom, acceptor molecule, acceptor atom, score
      L1  H    15    56       P1 10175  2.00
      L1  H    19    47       P1 10171  1.00
      P1  H  7997  8009       L1     5  1.00

> <Gold.PLP.Chemscore.Internal.Correction>
0.3373

> <Gold.Rescore>
     Score         DG    S(hbond)    S(metal)    S(lipo)     H(rot)  DE(clash)    DE(int)     intcor
     18.10     -22.38       2.57        0.00     139.59       3.14       2.37       1.91       ----

> <Gold.Chemscore.Fitness>
18.0995

> <Gold.Chemscore.DG>
-22.3756

> <Gold.Chemscore.ZeroCoef>
-5.4800

> <Gold.Chemscore.Hbond>
2.5740

> <Gold.Chemscore.Metal>
0.0000

> <Gold.Chemscore.Lipo>
139.5877

> <Gold.Chemscore.Internal_Hbond>
0.0000

> <Gold.Chemscore.DEClash>
2.3677

> <Gold.Chemscore.DEInternal>
1.9084

> <Gold.Chemscore.Rot>
3.1380

> <Gold.Chemscore.Internal.Correction>
   9.000000E+99

> <Gold.Chemscore.Hbonds>
donor molecule, donor type, donor heavy atom, donor atom, acceptor molecule, acceptor atom, score
      L1  H    15    56       P1 10175  0.94
      L1  H    19    47       P1 10171  0.99
      P1  H  7997  8009       L1     5  0.26

> <Gold.Chemscore.Hbond.Weighted>
-8.5970

> <Gold.Chemscore.Metal.Weighted>
-0.0000

> <Gold.Chemscore.Lipo.Weighted>
-16.3318

> <Gold.Chemscore.Internal_Hbond.Weighted>
0.0000

> <Gold.Chemscore.DEClash.Weighted>
2.3677

> <Gold.Chemscore.DEInternal.Weighted>
1.9084

> <Gold.Chemscore.Rot.Weighted>
8.0332

> <Gold.Chemscore.Internal.Correction.Weighted>
   9.000000E+99

> <Gold.Protein.RotatedTorsions>
[ 6907 6896 6895 6894 ] final  -27.41 input  -60.11 | X-H torsion
[ 7974 7965 7964 7962 ] final  -48.36 input  175.53 | X-H torsion
[ 8008 7997 7996 7995 ] final  178.38 input   59.86 | X-H torsion
[ 10167 10162 10161 10158 ] final  153.99 input  -65.29 | X-H torsion
[ 10718 10713 10712 10709 ] final  -33.86 input   66.30 | X-H torsion
[ 10763 10752 10751 10750 ] final   61.43 input  -60.55 | X-H torsion
[ 11005 11000 10999 10996 ] final  146.76 input  -57.11 | X-H torsion

> <Gold.Protein.ActiveResidues>
 VAL166  LYS551  ARG553  GLY616  TRP617  ASP618  TYR619  PRO620  LYS621  CYS622 
 ASP623  PHE694  ASN695  SER759  ASP760  ASP761  ALA762  ILE779  LEU786  VAL792 
 PHE793  MET794  SER795  GLU796  ALA797  LYS798  CYS799  TRP800  GLU811  SER814 

> <Gold.Protein.RotatedAtoms>
  151.1473  135.0209  159.8652 H   0  0  0  0  0  0  0  0  0  0  0  0  # atno 6907 bound_to 6896
  152.5453  134.1429  159.8496 H   0  0  0  0  0  0  0  0  0  0  0  0  # atno 6908 bound_to 6896
  151.1511  133.4861  159.2628 H   0  0  0  0  0  0  0  0  0  0  0  0  # atno 6909 bound_to 6896
  145.9519  140.7564  142.9500 H   0  0  0  0  0  0  0  0  0  0  0  0  # atno 7974 bound_to 7965
  156.0553  140.1335  157.0003 H   0  0  0  0  0  0  0  0  0  0  0  0  # atno 8008 bound_to 7997
  154.4455  140.1002  156.6507 H   0  0  0  0  0  0  0  0  0  0  0  0  # atno 8009 bound_to 7997
  155.5461  140.3462  155.4460 H   0  0  0  0  0  0  0  0  0  0  0  0  # atno 8010 bound_to 7997
  139.4825  144.5225  151.7853 H   0  0  0  0  0  0  0  0  0  0  0  0  # atno 10167 bound_to 10162
  156.3575  130.4318  149.7652 H   0  0  0  0  0  0  0  0  0  0  0  0  # atno 10718 bound_to 10713
  152.9950  135.5501  154.6032 H   0  0  0  0  0  0  0  0  0  0  0  0  # atno 10763 bound_to 10752
  154.5369  135.2817  155.1132 H   0  0  0  0  0  0  0  0  0  0  0  0  # atno 10764 bound_to 10752
  154.2425  135.6413  153.5265 H   0  0  0  0  0  0  0  0  0  0  0  0  # atno 10765 bound_to 10752
  140.0820  134.9092  157.1515 H   0  0  0  0  0  0  0  0  0  0  0  0  # atno 11005 bound_to 11000
  144.6797  140.2449  143.7339 LP  0  0  0  0  0  0  0  0  0  0  0  0  # atno 17320 bound_to 7965
  145.8159  139.2023  143.1966 LP  0  0  0  0  0  0  0  0  0  0  0  0  # atno 17321 bound_to 7965
  140.4741  144.1544  150.5922 LP  0  0  0  0  0  0  0  0  0  0  0  0  # atno 17342 bound_to 10162
  140.4350  143.2551  151.9547 LP  0  0  0  0  0  0  0  0  0  0  0  0  # atno 17343 bound_to 10162
  156.4828  130.8049  151.3062 LP  0  0  0  0  0  0  0  0  0  0  0  0  # atno 17370 bound_to 10713
  157.7469  131.0000  150.2910 LP  0  0  0  0  0  0  0  0  0  0  0  0  # atno 17371 bound_to 10713
  140.3475  134.2636  155.7203 LP  0  0  0  0  0  0  0  0  0  0  0  0  # atno 17394 bound_to 11000
  141.2050  133.7872  157.0258 LP  0  0  0  0  0  0  0  0  0  0  0  0  # atno 17395 bound_to 11000

$$$$
