AV-unprocessed.smi:189|AV-procd|sdf|1476|dock9
  -GOLD-   2262019293D 1   1.00000     0.00000
 Structure written by MMmdl.
 53 57  0  0  0  0  0  0  0  0  1 V2000
  147.3845  141.8969  154.5160 C   0  0  0  0  0  0  0  0  0  0  0  0
  148.8624  141.4762  154.4020 C   0  0  1  0  0  0  0  0  0  0  0  0
  149.6630  141.5001  155.7089 C   0  0  0  0  0  0  0  0  0  0  0  0
  150.9072  140.6671  155.3653 C   0  0  1  0  0  0  0  0  0  0  0  0
  151.3575  139.6925  156.4675 C   0  0  0  0  0  0  0  0  0  0  0  0
  152.5467  138.8174  156.0150 C   0  0  0  0  0  0  0  0  0  0  0  0
  152.4894  138.4061  154.5258 C   0  0  0  0  0  0  0  0  0  0  0  0
  151.0663  138.4860  153.9560 C   0  0  0  0  0  0  0  0  0  0  0  0
  150.5434  139.9443  154.0469 C   0  0  1  0  0  0  0  0  0  0  0  0
  149.1122  140.1617  153.8082 N   0  0  0  0  0  0  0  0  0  0  0  0
  148.2875  139.1286  154.1192 C   0  0  0  0  0  0  0  0  0  0  0  0
  148.3909  138.4759  155.3077 N   0  0  0  0  0  0  0  0  0  0  0  0
  147.5962  137.4347  155.5724 C   0  0  0  0  0  0  0  0  0  0  0  0
  146.6591  136.8826  154.7988 N   0  0  0  0  0  0  0  0  0  0  0  0
  146.5657  137.5245  153.5988 C   0  0  0  0  0  0  0  0  0  0  0  0
  147.3308  138.6503  153.1861 C   0  0  0  0  0  0  0  0  0  0  0  0
  146.9611  139.0369  151.9046 N   0  0  0  0  0  0  0  0  0  0  0  0
  146.0286  138.1851  151.5760 C   0  0  0  0  0  0  0  0  0  0  0  0
  145.7392  137.2325  152.5277 N   0  0  0  0  0  0  0  0  0  0  0  0
  144.7596  136.1631  152.4175 C   0  0  0  0  0  0  0  0  0  0  0  0
  144.9173  135.2957  151.1416 C   0  0  1  0  0  0  0  0  0  0  0  0
  144.6052  136.0674  149.9974 O   0  0  0  0  0  0  0  0  0  0  0  0
  146.3222  134.7326  151.0022 C   0  0  0  0  0  0  0  0  0  0  0  0
  146.2615  133.4576  151.8402 C   0  0  0  0  0  0  0  0  0  0  0  0
  144.9054  133.0236  151.7973 O   0  0  0  0  0  0  0  0  0  0  0  0
  144.0955  133.9994  151.1490 C   0  0  0  0  0  0  0  0  0  0  0  0
  147.3077  142.9304  154.8535 H   0  0  0  0  0  0  0  0  0  0  0  0
  146.8284  141.2865  155.2265 H   0  0  0  0  0  0  0  0  0  0  0  0
  146.8837  141.8295  153.5499 H   0  0  0  0  0  0  0  0  0  0  0  0
  149.3296  142.1905  153.7218 H   0  0  0  0  0  0  0  0  0  0  0  0
  149.9133  142.5138  156.0227 H   0  0  0  0  0  0  0  0  0  0  0  0
  149.0958  141.0374  156.5173 H   0  0  0  0  0  0  0  0  0  0  0  0
  151.7349  141.3469  155.1565 H   0  0  0  0  0  0  0  0  0  0  0  0
  151.6176  140.2359  157.3764 H   0  0  0  0  0  0  0  0  0  0  0  0
  150.5216  139.0437  156.7323 H   0  0  0  0  0  0  0  0  0  0  0  0
  153.4833  139.3457  156.1970 H   0  0  0  0  0  0  0  0  0  0  0  0
  152.5807  137.9260  156.6424 H   0  0  0  0  0  0  0  0  0  0  0  0
  153.1353  139.0654  153.9446 H   0  0  0  0  0  0  0  0  0  0  0  0
  152.8932  137.4008  154.4015 H   0  0  0  0  0  0  0  0  0  0  0  0
  151.0460  138.1447  152.9206 H   0  0  0  0  0  0  0  0  0  0  0  0
  150.4461  137.7913  154.5235 H   0  0  0  0  0  0  0  0  0  0  0  0
  151.0429  140.4915  153.2457 H   0  0  0  0  0  0  0  0  0  0  0  0
  147.7359  136.9750  156.5394 H   0  0  0  0  0  0  0  0  0  0  0  0
  145.5303  138.2213  150.6179 H   0  0  0  0  0  0  0  0  0  0  0  0
  144.8369  135.5381  153.3082 H   0  0  0  0  0  0  0  0  0  0  0  0
  143.7675  136.6147  152.4504 H   0  0  0  0  0  0  0  0  0  0  0  0
  144.3514  136.9333  150.2780 H   0  0  0  0  0  0  0  0  0  0  0  0
  146.5248  134.4652  149.9637 H   0  0  0  0  0  0  0  0  0  0  0  0
  147.1039  135.4209  151.3262 H   0  0  0  0  0  0  0  0  0  0  0  0
  146.9362  132.6864  151.4681 H   0  0  0  0  0  0  0  0  0  0  0  0
  146.5274  133.6652  152.8771 H   0  0  0  0  0  0  0  0  0  0  0  0
  143.1184  134.0909  151.6207 H   0  0  0  0  0  0  0  0  0  0  0  0
  143.9266  133.6506  150.1288 H   0  0  0  0  0  0  0  0  0  0  0  0
  1  2  1  0  0  0  0
  1 27  1  0  0  0  0
  1 28  1  0  0  0  0
  1 29  1  0  0  0  0
  2 10  1  0  0  0  0
  2  3  1  0  0  0  0
  2 30  1  0  0  0  0
  3  4  1  0  0  0  0
  3 31  1  0  0  0  0
  3 32  1  0  0  0  0
  4  9  1  0  0  0  0
  4  5  1  0  0  0  0
  4 33  1  0  0  0  0
  5  6  1  0  0  0  0
  5 34  1  0  0  0  0
  5 35  1  0  0  0  0
  6  7  1  0  0  0  0
  6 36  1  0  0  0  0
  6 37  1  0  0  0  0
  7  8  1  0  0  0  0
  7 38  1  0  0  0  0
  7 39  1  0  0  0  0
  8  9  1  0  0  0  0
  8 40  1  0  0  0  0
  8 41  1  0  0  0  0
  9 10  1  0  0  0  0
  9 42  1  0  0  0  0
 10 11  1  0  0  0  0
 11 16  1  0  0  0  0
 11 12  2  0  0  0  0
 12 13  1  0  0  0  0
 13 14  2  0  0  0  0
 13 43  1  0  0  0  0
 14 15  1  0  0  0  0
 15 19  1  0  0  0  0
 15 16  2  0  0  0  0
 16 17  1  0  0  0  0
 17 18  2  0  0  0  0
 18 19  1  0  0  0  0
 18 44  1  0  0  0  0
 19 20  1  0  0  0  0
 20 21  1  0  0  0  0
 20 45  1  0  0  0  0
 20 46  1  0  0  0  0
 21 26  1  0  0  0  0
 21 22  1  0  0  0  0
 21 23  1  0  0  0  0
 22 47  1  0  0  0  0
 23 24  1  0  0  0  0
 23 48  1  0  0  0  0
 23 49  1  0  0  0  0
 24 25  1  0  0  0  0
 24 50  1  0  0  0  0
 24 51  1  0  0  0  0
 25 26  1  0  0  0  0
 26 52  1  0  0  0  0
 26 53  1  0  0  0  0
M  END
> <s_m_source_file>
AV-unprocessed.smi

> <i_m_source_file_index>
189

> <i_lp_mmshare_version>
43012

> <i_f3d_flags>
0

> <s_epik_input>
W0NIMl0xW0NIMl1bQ0gyXVtDSDJdW0NASF0oW0NASF0xMilOKFtDQEhdKFtDSDNdKVtDSDJdMiljKG5bY0hdbjMpYyhjMzQpbltjSF1uNFtDSDJdW0NAQF01KFtPSF0pW0NIMl1bQ0gyXU9bQ0gyXTU=

> <s_epik_cmdline>
J2VwaWtfcHl0aG9uJywgJy1waCcsICc3LjAnLCAnLXRuJywgJzgnLCAnLW1hJywgJzIwMCcsICctbWV0YWxfYmluZGluZycsICctaW1hZScsICc8aW5maWxlLm1hZT4nLCAnLW9tYWUnLCAnPG91dGZpbGUubWFlPic=

> <r_lp_tautomer_probability>
1

> <r_epik_Ionization_Penalty>
0.00594261

> <r_epik_Ionization_Penalty_Charging>
0

> <r_epik_Ionization_Penalty_Neutral>
0.00594261

> <r_epik_State_Penalty>
0.00429776

> <r_epik_Charging_Adjusted_Penalty>
0.00429776

> <i_epik_Tot_Q>
0

> <i_epik_Tot_abs_Q>
0

> <r_epik_Metal_State_Penalty>
-0

> <b_epik_Metal_Only>
0

> <s_lp_Force_Field>
OPLS_2005

> <r_lp_Energy>
67.8884

> <b_lp_Chiralities_Consistent>
1

> <s_lp_Variant>
AV-unprocessed.smi:189-2

> <Gold.Version>
5.8.1

> <Gold.Id.Protein>
6NUR|6NUR_protein|mol2

> <Gold.PLP.Fitness>
43.6879

> <Gold.PLP.PLP>
-38.5157

> <Gold.PLP.part.hbond>
-2.0000

> <Gold.PLP.part.metal>
0.0000

> <Gold.PLP.part.buried>
-3.2620

> <Gold.PLP.part.nonpolar>
-38.1373

> <Gold.PLP.part.repulsive>
4.0014

> <Gold.PLP.ligand.clash>
0.0000

> <Gold.PLP.ligand.torsion>
0.4300

> <Gold.PLP.Chemscore.Hbond>
1.0000

> <Gold.PLP.Chemscore.CHOScore>
0.9941

> <Gold.PLP.Chemscore.Metal>
0.0000

> <Gold.Chemscore.Hbonds>
donor molecule, donor type, donor heavy atom, donor atom, acceptor molecule, acceptor atom, score
      L1  H    22    47       P1 10171  0.93
      L1  C    18    44       P1 10171  0.60

> <Gold.PLP.Chemscore.Internal.Correction>
0.0500

> <Gold.Rescore>
     Score         DG    S(hbond)    S(metal)    S(lipo)     H(rot)  DE(clash)    DE(int)     intcor
     10.35     -13.84       0.99        0.00      87.59       2.03       1.35       2.14       ----

> <Gold.Chemscore.Fitness>
10.3518

> <Gold.Chemscore.DG>
-13.8434

> <Gold.Chemscore.ZeroCoef>
-5.4800

> <Gold.Chemscore.Hbond>
0.9913

> <Gold.Chemscore.Metal>
0.0000

> <Gold.Chemscore.Lipo>
87.5931

> <Gold.Chemscore.Internal_Hbond>
0.0000

> <Gold.Chemscore.DEClash>
1.3500

> <Gold.Chemscore.DEInternal>
2.1416

> <Gold.Chemscore.Rot>
2.0297

> <Gold.Chemscore.Internal.Correction>
   9.000000E+99

> <Gold.Chemscore.Hbonds>
donor molecule, donor type, donor heavy atom, donor atom, acceptor molecule, acceptor atom, score
      L1  H    22    47       P1 10171  0.90

> <Gold.Chemscore.Hbond.Weighted>
-3.3110

> <Gold.Chemscore.Metal.Weighted>
-0.0000

> <Gold.Chemscore.Lipo.Weighted>
-10.2484

> <Gold.Chemscore.Internal_Hbond.Weighted>
0.0000

> <Gold.Chemscore.DEClash.Weighted>
1.3500

> <Gold.Chemscore.DEInternal.Weighted>
2.1416

> <Gold.Chemscore.Rot.Weighted>
5.1960

> <Gold.Chemscore.Internal.Correction.Weighted>
   9.000000E+99

> <Gold.Protein.RotatedTorsions>
[ 6907 6896 6895 6894 ] final  -22.07 input  -60.11 | X-H torsion
[ 7974 7965 7964 7962 ] final  141.14 input  175.53 | X-H torsion
[ 8008 7997 7996 7995 ] final  -25.58 input   59.86 | X-H torsion
[ 10167 10162 10161 10158 ] final  137.85 input  -65.29 | X-H torsion
[ 10718 10713 10712 10709 ] final  166.57 input   66.30 | X-H torsion
[ 10763 10752 10751 10750 ] final  -30.87 input  -60.55 | X-H torsion
[ 11005 11000 10999 10996 ] final -127.72 input  -57.11 | X-H torsion

> <Gold.Protein.ActiveResidues>
 VAL166  LYS551  ARG553  GLY616  TRP617  ASP618  TYR619  PRO620  LYS621  CYS622 
 ASP623  PHE694  ASN695  SER759  ASP760  ASP761  ALA762  ILE779  LEU786  VAL792 
 PHE793  MET794  SER795  GLU796  ALA797  LYS798  CYS799  TRP800  GLU811  SER814 

> <Gold.Protein.RotatedAtoms>
  151.2240  135.0529  159.8960 H   0  0  0  0  0  0  0  0  0  0  0  0  # atno 6907 bound_to 6896
  152.5412  134.0610  159.8162 H   0  0  0  0  0  0  0  0  0  0  0  0  # atno 6908 bound_to 6896
  151.0780  133.5364  159.2654 H   0  0  0  0  0  0  0  0  0  0  0  0  # atno 6909 bound_to 6896
  144.9123  139.5276  143.5702 H   0  0  0  0  0  0  0  0  0  0  0  0  # atno 7974 bound_to 7965
  154.4468  140.1922  156.0642 H   0  0  0  0  0  0  0  0  0  0  0  0  # atno 8008 bound_to 7997
  156.0560  140.3302  155.7379 H   0  0  0  0  0  0  0  0  0  0  0  0  # atno 8009 bound_to 7997
  155.5485  140.0593  157.2846 H   0  0  0  0  0  0  0  0  0  0  0  0  # atno 8010 bound_to 7997
  139.5130  144.6387  151.5628 H   0  0  0  0  0  0  0  0  0  0  0  0  # atno 10167 bound_to 10162
  157.0639  131.0347  151.2636 H   0  0  0  0  0  0  0  0  0  0  0  0  # atno 10718 bound_to 10713
  153.7880  135.6900  153.4876 H   0  0  0  0  0  0  0  0  0  0  0  0  # atno 10763 bound_to 10752
  153.1768  135.4521  154.9974 H   0  0  0  0  0  0  0  0  0  0  0  0  # atno 10764 bound_to 10752
  154.8056  135.3355  154.7378 H   0  0  0  0  0  0  0  0  0  0  0  0  # atno 10765 bound_to 10752
  140.9575  134.0981  157.4001 H   0  0  0  0  0  0  0  0  0  0  0  0  # atno 11005 bound_to 11000
  146.3165  139.7939  142.8979 LP  0  0  0  0  0  0  0  0  0  0  0  0  # atno 17320 bound_to 7965
  145.3433  141.0292  143.3380 LP  0  0  0  0  0  0  0  0  0  0  0  0  # atno 17321 bound_to 7965
  140.6145  143.9374  150.6478 LP  0  0  0  0  0  0  0  0  0  0  0  0  # atno 17342 bound_to 10162
  140.2627  143.3512  152.1308 LP  0  0  0  0  0  0  0  0  0  0  0  0  # atno 17343 bound_to 10162
  157.4932  130.7835  149.7529 LP  0  0  0  0  0  0  0  0  0  0  0  0  # atno 17370 bound_to 10713
  155.9970  130.3902  150.2757 LP  0  0  0  0  0  0  0  0  0  0  0  0  # atno 17371 bound_to 10713
  139.8867  135.0084  156.6515 LP  0  0  0  0  0  0  0  0  0  0  0  0  # atno 17394 bound_to 11000
  140.7514  133.8894  155.8350 LP  0  0  0  0  0  0  0  0  0  0  0  0  # atno 17395 bound_to 11000

$$$$
