AV-unprocessed.smi:1830|AV-procd|sdf|7442|dock6
  -GOLD-   22720 9133D 1   1.00000     0.00000
 Structure written by MMmdl.
 52 55  0  0  0  0  0  0  0  0  1 V2000
  147.2269  137.6982  155.5251 O   0  0  0  0  0  0  0  0  0  0  0  0
  147.7321  137.2353  154.5030 C   0  0  0  0  0  0  0  0  0  0  0  0
  149.0520  137.0797  154.3309 N   0  0  0  0  0  0  0  0  0  0  0  0
  150.0819  137.4898  155.2798 C   0  0  0  0  0  0  0  0  0  0  0  0
  150.9924  138.5748  154.6699 C   0  0  2  0  0  0  0  0  0  0  0  0
  151.9903  139.1658  155.6942 C   0  0  0  0  0  0  0  0  0  0  0  0
  151.3164  140.0782  156.5993 N   0  0  0  0  0  0  0  0  0  0  0  0
  152.1445  140.7790  157.5529 C   0  0  0  0  0  0  0  0  0  0  0  0
  151.2545  141.9283  158.0570 C   0  0  0  0  0  0  0  0  0  0  0  0
  150.1778  142.0903  156.9615 C   0  0  0  0  0  0  0  0  0  0  0  0
  150.6519  141.1256  155.8729 C   0  0  2  0  0  0  0  0  0  0  0  0
  149.5874  140.5432  154.9350 C   0  0  0  0  0  0  0  0  0  0  0  0
  150.2273  139.6204  154.0481 O   0  0  0  0  0  0  0  0  0  0  0  0
  147.0541  136.8116  153.4234 N   0  0  0  0  0  0  0  0  0  0  0  0
  145.6451  136.7536  153.2181 C   0  0  0  0  0  0  0  0  0  0  0  0
  144.7627  137.7647  153.6725 C   0  0  0  0  0  0  0  0  0  0  0  0
  143.3873  137.6487  153.4044 C   0  0  0  0  0  0  0  0  0  0  0  0
  142.9408  136.5293  152.6815 C   0  0  0  0  0  0  0  0  0  0  0  0
  143.7686  135.5668  152.2283 N   0  0  0  0  0  0  0  0  0  0  0  0
  145.0969  135.6706  152.4777 C   0  0  0  0  0  0  0  0  0  0  0  0
  145.9326  134.6346  152.0085 N   0  0  0  0  0  0  0  0  0  0  0  0
  145.7162  133.3530  152.6742 C   0  0  0  0  0  0  0  0  0  0  0  0
  145.9420  132.2731  151.6148 C   0  0  0  0  0  0  0  0  0  0  0  0
  145.5743  132.9839  150.3185 C   0  0  0  0  0  0  0  0  0  0  0  0
  146.0677  134.4076  150.5699 C   0  0  0  0  0  0  0  0  0  0  0  0
  149.3725  136.6824  153.4602 H   0  0  0  0  0  0  0  0  0  0  0  0
  149.6487  137.8249  156.2231 H   0  0  0  0  0  0  0  0  0  0  0  0
  150.6771  136.6091  155.5216 H   0  0  0  0  0  0  0  0  0  0  0  0
  151.5734  138.1022  153.8770 H   0  0  0  0  0  0  0  0  0  0  0  0
  152.4787  138.3691  156.2563 H   0  0  0  0  0  0  0  0  0  0  0  0
  152.7782  139.6982  155.1595 H   0  0  0  0  0  0  0  0  0  0  0  0
  152.4784  140.1221  158.3565 H   0  0  0  0  0  0  0  0  0  0  0  0
  153.0281  141.1848  157.0572 H   0  0  0  0  0  0  0  0  0  0  0  0
  150.7894  141.6730  159.0098 H   0  0  0  0  0  0  0  0  0  0  0  0
  151.8336  142.8409  158.2000 H   0  0  0  0  0  0  0  0  0  0  0  0
  149.2019  141.7902  157.3459 H   0  0  0  0  0  0  0  0  0  0  0  0
  150.0992  143.1146  156.5963 H   0  0  0  0  0  0  0  0  0  0  0  0
  151.3883  141.6526  155.2620 H   0  0  0  0  0  0  0  0  0  0  0  0
  148.7974  140.0462  155.4983 H   0  0  0  0  0  0  0  0  0  0  0  0
  149.1160  141.3329  154.3499 H   0  0  0  0  0  0  0  0  0  0  0  0
  147.6092  136.3950  152.6903 H   0  0  0  0  0  0  0  0  0  0  0  0
  145.1126  138.6342  154.2063 H   0  0  0  0  0  0  0  0  0  0  0  0
  142.6924  138.4038  153.7406 H   0  0  0  0  0  0  0  0  0  0  0  0
  141.8918  136.4057  152.4561 H   0  0  0  0  0  0  0  0  0  0  0  0
  146.3940  133.2264  153.5188 H   0  0  0  0  0  0  0  0  0  0  0  0
  144.6945  133.2959  153.0537 H   0  0  0  0  0  0  0  0  0  0  0  0
  146.9949  131.9887  151.5933 H   0  0  0  0  0  0  0  0  0  0  0  0
  145.3518  131.3739  151.7929 H   0  0  0  0  0  0  0  0  0  0  0  0
  146.0236  132.5273  149.4363 H   0  0  0  0  0  0  0  0  0  0  0  0
  144.4911  132.9834  150.1886 H   0  0  0  0  0  0  0  0  0  0  0  0
  145.5474  135.1320  149.9432 H   0  0  0  0  0  0  0  0  0  0  0  0
  147.1272  134.4815  150.3230 H   0  0  0  0  0  0  0  0  0  0  0  0
  1  2  2  0  0  0  0
  2  3  1  0  0  0  0
  2 14  1  0  0  0  0
  3  4  1  0  0  0  0
  3 26  1  0  0  0  0
  4  5  1  0  0  0  0
  4 27  1  0  0  0  0
  4 28  1  0  0  0  0
  5 13  1  0  0  0  0
  5  6  1  0  0  0  0
  5 29  1  0  0  0  0
  6  7  1  0  0  0  0
  6 30  1  0  0  0  0
  6 31  1  0  0  0  0
  7 11  1  0  0  0  0
  7  8  1  0  0  0  0
  8  9  1  0  0  0  0
  8 32  1  0  0  0  0
  8 33  1  0  0  0  0
  9 10  1  0  0  0  0
  9 34  1  0  0  0  0
  9 35  1  0  0  0  0
 10 11  1  0  0  0  0
 10 36  1  0  0  0  0
 10 37  1  0  0  0  0
 11 12  1  0  0  0  0
 11 38  1  0  0  0  0
 12 13  1  0  0  0  0
 12 39  1  0  0  0  0
 12 40  1  0  0  0  0
 14 15  1  0  0  0  0
 14 41  1  0  0  0  0
 15 20  1  0  0  0  0
 15 16  2  0  0  0  0
 16 17  1  0  0  0  0
 16 42  1  0  0  0  0
 17 18  2  0  0  0  0
 17 43  1  0  0  0  0
 18 19  1  0  0  0  0
 18 44  1  0  0  0  0
 19 20  2  0  0  0  0
 20 21  1  0  0  0  0
 21 25  1  0  0  0  0
 21 22  1  0  0  0  0
 22 23  1  0  0  0  0
 22 45  1  0  0  0  0
 22 46  1  0  0  0  0
 23 24  1  0  0  0  0
 23 47  1  0  0  0  0
 23 48  1  0  0  0  0
 24 25  1  0  0  0  0
 24 49  1  0  0  0  0
 24 50  1  0  0  0  0
 25 51  1  0  0  0  0
 25 52  1  0  0  0  0
M  END
> <s_m_source_file>
AV-unprocessed.smi

> <i_m_source_file_index>
1830

> <i_lp_mmshare_version>
43012

> <i_f3d_flags>
0

> <s_epik_input>
W0NIMl0xW0NIMl1bQ0gyXVtDQEhdKE4xMilbQ0gyXU9bQ0BASF0oW0NIMl0yKVtDSDJdW05IXUMoPU8pW05IXWMzW2NIXVtjSF1bY0hdbmMzTjRbQ0gyXVtDSDJdW0NIMl1bQ0gyXTQ=

> <s_epik_cmdline>
J2VwaWtfcHl0aG9uJywgJy1waCcsICc3LjAnLCAnLXRuJywgJzgnLCAnLW1hJywgJzIwMCcsICctbWV0YWxfYmluZGluZycsICctaW1hZScsICc8aW5maWxlLm1hZT4nLCAnLW9tYWUnLCAnPG91dGZpbGUubWFlPic=

> <r_lp_tautomer_probability>
1

> <r_epik_Ionization_Penalty>
1.16487

> <r_epik_Ionization_Penalty_Charging>
0

> <r_epik_Ionization_Penalty_Neutral>
1.16487

> <r_epik_State_Penalty>
1.21807

> <r_epik_Charging_Adjusted_Penalty>
1.21807

> <i_epik_Tot_Q>
0

> <i_epik_Tot_abs_Q>
0

> <r_epik_Metal_State_Penalty>
1.19922

> <b_epik_Metal_Only>
0

> <s_lp_Force_Field>
OPLS_2005

> <r_lp_Energy>
77.9026

> <b_lp_Chiralities_Consistent>
1

> <s_lp_Variant>
AV-unprocessed.smi:1830-11

> <Gold.Version>
5.8.1

> <Gold.Id.Protein>
6NUR|6NUR_protein|mol2

> <Gold.PLP.Fitness>
41.5526

> <Gold.PLP.PLP>
-33.5144

> <Gold.PLP.part.hbond>
-3.0000

> <Gold.PLP.part.metal>
0.0000

> <Gold.PLP.part.buried>
-5.5481

> <Gold.PLP.part.nonpolar>
-25.1666

> <Gold.PLP.part.repulsive>
0.9648

> <Gold.PLP.ligand.clash>
0.0000

> <Gold.PLP.ligand.torsion>
0.4132

> <Gold.PLP.Chemscore.Hbond>
2.9000

> <Gold.PLP.Chemscore.CHOScore>
0.0000

> <Gold.PLP.Chemscore.Metal>
0.0000

> <Gold.Chemscore.Hbonds>
donor molecule, donor type, donor heavy atom, donor atom, acceptor molecule, acceptor atom, score
      L1  H     3    26       P1  7948  0.96
      L1  H    14    41       P1  7948  1.00
      P1  H  7989  7998       L1    13  0.75

> <Gold.PLP.Chemscore.Internal.Correction>
0.1646

> <Gold.Rescore>
     Score         DG    S(hbond)    S(metal)    S(lipo)     H(rot)  DE(clash)    DE(int)     intcor
     17.52     -18.84       2.00        0.00      87.12       1.37       0.19       1.13       ----

> <Gold.Chemscore.Fitness>
17.5241

> <Gold.Chemscore.DG>
-18.8424

> <Gold.Chemscore.ZeroCoef>
-5.4800

> <Gold.Chemscore.Hbond>
2.0024

> <Gold.Chemscore.Metal>
0.0000

> <Gold.Chemscore.Lipo>
87.1230

> <Gold.Chemscore.Internal_Hbond>
0.0000

> <Gold.Chemscore.DEClash>
0.1893

> <Gold.Chemscore.DEInternal>
1.1290

> <Gold.Chemscore.Rot>
1.3746

> <Gold.Chemscore.Internal.Correction>
   9.000000E+99

> <Gold.Chemscore.Hbonds>
donor molecule, donor type, donor heavy atom, donor atom, acceptor molecule, acceptor atom, score
      L1  H     3    26       P1  7948  0.84
      L1  H    14    41       P1  7948  0.95
      P1  H  7989  7998       L1    13  0.03

> <Gold.Chemscore.Hbond.Weighted>
-6.6879

> <Gold.Chemscore.Metal.Weighted>
-0.0000

> <Gold.Chemscore.Lipo.Weighted>
-10.1934

> <Gold.Chemscore.Internal_Hbond.Weighted>
0.0000

> <Gold.Chemscore.DEClash.Weighted>
0.1893

> <Gold.Chemscore.DEInternal.Weighted>
1.1290

> <Gold.Chemscore.Rot.Weighted>
3.5189

> <Gold.Chemscore.Internal.Correction.Weighted>
   9.000000E+99

> <Gold.Protein.RotatedTorsions>
[ 6907 6896 6895 6894 ] final  -33.65 input  -60.11 | X-H torsion
[ 7974 7965 7964 7962 ] final -115.98 input  175.53 | X-H torsion
[ 8008 7997 7996 7995 ] final  -67.70 input   59.86 | X-H torsion
[ 10167 10162 10161 10158 ] final   51.28 input  -65.29 | X-H torsion
[ 10718 10713 10712 10709 ] final  163.40 input   66.30 | X-H torsion
[ 10763 10752 10751 10750 ] final  123.18 input  -60.55 | X-H torsion
[ 11005 11000 10999 10996 ] final -156.20 input  -57.11 | X-H torsion

> <Gold.Protein.ActiveResidues>
 VAL166  LYS551  ARG553  GLY616  TRP617  ASP618  TYR619  PRO620  LYS621  CYS622 
 ASP623  PHE694  ASN695  SER759  ASP760  ASP761  ALA762  ILE779  LEU786  VAL792 
 PHE793  MET794  SER795  GLU796  ALA797  LYS798  CYS799  TRP800  GLU811  SER814 

> <Gold.Protein.RotatedAtoms>
  151.0629  134.9748  159.8269 H   0  0  0  0  0  0  0  0  0  0  0  0  # atno 6907 bound_to 6896
  152.5398  134.2395  159.8866 H   0  0  0  0  0  0  0  0  0  0  0  0  # atno 6908 bound_to 6896
  151.2416  133.4353  159.2641 H   0  0  0  0  0  0  0  0  0  0  0  0  # atno 6909 bound_to 6896
  145.1020  140.8558  143.3920 H   0  0  0  0  0  0  0  0  0  0  0  0  # atno 7974 bound_to 7965
  154.4818  140.0887  156.7394 H   0  0  0  0  0  0  0  0  0  0  0  0  # atno 8008 bound_to 7997
  155.4452  140.3455  155.4276 H   0  0  0  0  0  0  0  0  0  0  0  0  # atno 8009 bound_to 7997
  156.1202  140.1472  156.9203 H   0  0  0  0  0  0  0  0  0  0  0  0  # atno 8010 bound_to 7997
  140.2636  144.3345  150.6310 H   0  0  0  0  0  0  0  0  0  0  0  0  # atno 10167 bound_to 10162
  157.1091  131.0463  151.2465 H   0  0  0  0  0  0  0  0  0  0  0  0  # atno 10718 bound_to 10713
  153.6415  135.3378  155.3073 H   0  0  0  0  0  0  0  0  0  0  0  0  # atno 10763 bound_to 10752
  154.8558  135.4319  154.1999 H   0  0  0  0  0  0  0  0  0  0  0  0  # atno 10764 bound_to 10752
  153.2920  135.7018  153.7358 H   0  0  0  0  0  0  0  0  0  0  0  0  # atno 10765 bound_to 10752
  140.6781  134.4174  157.5228 H   0  0  0  0  0  0  0  0  0  0  0  0  # atno 11005 bound_to 11000
  145.0944  139.2867  143.5718 LP  0  0  0  0  0  0  0  0  0  0  0  0  # atno 17320 bound_to 7965
  146.3529  140.0492  142.8637 LP  0  0  0  0  0  0  0  0  0  0  0  0  # atno 17321 bound_to 7965
  140.5946  143.2167  151.7189 LP  0  0  0  0  0  0  0  0  0  0  0  0  # atno 17342 bound_to 10162
  139.5009  144.3887  152.0302 LP  0  0  0  0  0  0  0  0  0  0  0  0  # atno 17343 bound_to 10162
  157.4575  130.7634  149.7206 LP  0  0  0  0  0  0  0  0  0  0  0  0  # atno 17370 bound_to 10713
  155.9855  130.3982  150.3259 LP  0  0  0  0  0  0  0  0  0  0  0  0  # atno 17371 bound_to 10713
  139.8960  134.8669  156.2106 LP  0  0  0  0  0  0  0  0  0  0  0  0  # atno 17394 bound_to 11000
  141.0339  133.6974  156.1478 LP  0  0  0  0  0  0  0  0  0  0  0  0  # atno 17395 bound_to 11000

$$$$
