AV-unprocessed.smi:1432|AV-procd|sdf|5833|dock7
  -GOLD-   22720 5493D 1   1.00000     0.00000
 Structure written by MMmdl.
 47 48  0  0  0  0  0  0  0  0  2 V2000
  148.5656  140.7421  154.6198 C   0  0  0  0  0  0  0  0  0  0  0  0
  147.1898  141.1101  154.0226 C   0  0  2  0  0  0  0  0  0  0  0  0
  146.5607  142.3394  154.7116 C   0  0  0  0  0  0  0  0  0  0  0  0
  146.0429  142.0105  156.1196 C   0  0  0  0  0  0  0  0  0  0  0  0
  145.0805  140.8182  156.0605 C   0  0  0  0  0  0  0  0  0  0  0  0
  145.7325  139.6097  155.3686 C   0  0  0  0  0  0  0  0  0  0  0  0
  146.2235  139.9706  154.0102 N   0  3  2  0  0  0  0  0  0  0  0  0
  146.6856  138.8052  153.2127 C   0  0  0  0  0  0  0  0  0  0  0  0
  145.6220  137.6935  153.1344 C   0  0  0  0  0  0  0  0  0  0  0  0
  146.0469  136.6037  152.2638 N   0  0  0  0  0  0  0  0  0  0  0  0
  145.2319  135.6705  151.7492 C   0  0  0  0  0  0  0  0  0  0  0  0
  144.0158  135.6599  151.9452 O   0  0  0  0  0  0  0  0  0  0  0  0
  145.8970  134.6060  150.8651 C   0  0  0  0  0  0  0  0  0  0  0  0
  146.0351  133.3004  151.5325 N   0  0  0  0  0  0  0  0  0  0  0  0
  147.0905  133.1582  152.4550 C   0  0  0  0  0  0  0  0  0  0  0  0
  147.3358  132.0113  153.1169 C   0  0  0  0  0  0  0  0  0  0  0  0
  148.4532  131.9029  154.1428 C   0  0  0  0  0  0  0  0  0  0  0  0
  147.9625  131.7529  155.3734 F   0  0  0  0  0  0  0  0  0  0  0  0
  149.2184  130.8472  153.8692 F   0  0  0  0  0  0  0  0  0  0  0  0
  149.2257  132.9899  154.1294 F   0  0  0  0  0  0  0  0  0  0  0  0
  146.4252  130.9121  152.8624 C   0  0  0  0  0  0  0  0  0  0  0  0
  145.4075  131.0331  151.9879 C   0  0  0  0  0  0  0  0  0  0  0  0
  145.1707  132.2786  151.2548 C   0  0  0  0  0  0  0  0  0  0  0  0
  144.2536  132.3971  150.4418 O   0  0  0  0  0  0  0  0  0  0  0  0
  149.2392  141.5986  154.5874 H   0  0  0  0  0  0  0  0  0  0  0  0
  149.0482  139.9402  154.0610 H   0  0  0  0  0  0  0  0  0  0  0  0
  148.4967  140.4259  155.6602 H   0  0  0  0  0  0  0  0  0  0  0  0
  147.3622  141.3924  152.9827 H   0  0  0  0  0  0  0  0  0  0  0  0
  147.2801  143.1577  154.7592 H   0  0  0  0  0  0  0  0  0  0  0  0
  145.7304  142.7037  154.1046 H   0  0  0  0  0  0  0  0  0  0  0  0
  146.8769  141.7823  156.7839 H   0  0  0  0  0  0  0  0  0  0  0  0
  145.5385  142.8784  156.5455 H   0  0  0  0  0  0  0  0  0  0  0  0
  144.7634  140.5450  157.0675 H   0  0  0  0  0  0  0  0  0  0  0  0
  144.1775  141.1043  155.5197 H   0  0  0  0  0  0  0  0  0  0  0  0
  146.5517  139.2212  155.9744 H   0  0  0  0  0  0  0  0  0  0  0  0
  144.9952  138.8107  155.3030 H   0  0  0  0  0  0  0  0  0  0  0  0
  146.9100  139.1384  152.1984 H   0  0  0  0  0  0  0  0  0  0  0  0
  147.6184  138.4175  153.6249 H   0  0  0  0  0  0  0  0  0  0  0  0
  145.4346  137.2650  154.1181 H   0  0  0  0  0  0  0  0  0  0  0  0
  144.6702  138.0982  152.7863 H   0  0  0  0  0  0  0  0  0  0  0  0
  147.0329  136.5424  152.0522 H   0  0  0  0  0  0  0  0  0  0  0  0
  145.3106  134.5094  149.9506 H   0  0  0  0  0  0  0  0  0  0  0  0
  146.8753  134.9641  150.5386 H   0  0  0  0  0  0  0  0  0  0  0  0
  147.6951  134.0439  152.5868 H   0  0  0  0  0  0  0  0  0  0  0  0
  146.5639  129.9732  153.3778 H   0  0  0  0  0  0  0  0  0  0  0  0
  144.7502  130.1922  151.8208 H   0  0  0  0  0  0  0  0  0  0  0  0
  145.4177  140.3253  153.5148 H   0  0  0  0  0  0  0  0  0  0  0  0
  1  2  1  0  0  0  0
  1 25  1  0  0  0  0
  1 26  1  0  0  0  0
  1 27  1  0  0  0  0
  2  7  1  0  0  0  0
  2  3  1  0  0  0  0
  2 28  1  0  0  0  0
  3  4  1  0  0  0  0
  3 29  1  0  0  0  0
  3 30  1  0  0  0  0
  4  5  1  0  0  0  0
  4 31  1  0  0  0  0
  4 32  1  0  0  0  0
  5  6  1  0  0  0  0
  5 33  1  0  0  0  0
  5 34  1  0  0  0  0
  6  7  1  0  0  0  0
  6 35  1  0  0  0  0
  6 36  1  0  0  0  0
  7  8  1  0  0  0  0
  7 47  1  0  0  0  0
  8  9  1  0  0  0  0
  8 37  1  0  0  0  0
  8 38  1  0  0  0  0
  9 10  1  0  0  0  0
  9 39  1  0  0  0  0
  9 40  1  0  0  0  0
 10 11  1  0  0  0  0
 10 41  1  0  0  0  0
 11 12  2  0  0  0  0
 11 13  1  0  0  0  0
 13 14  1  0  0  0  0
 13 42  1  0  0  0  0
 13 43  1  0  0  0  0
 14 23  1  0  0  0  0
 14 15  1  0  0  0  0
 15 16  2  0  0  0  0
 15 44  1  0  0  0  0
 16 17  1  0  0  0  0
 16 21  1  0  0  0  0
 17 18  1  0  0  0  0
 17 19  1  0  0  0  0
 17 20  1  0  0  0  0
 21 22  2  0  0  0  0
 21 45  1  0  0  0  0
 22 23  1  0  0  0  0
 22 46  1  0  0  0  0
 23 24  2  0  0  0  0
M  CHG  1   7   1
M  END
> <s_m_source_file>
AV-unprocessed.smi

> <i_m_source_file_index>
1432

> <i_lp_mmshare_version>
43012

> <i_f3d_flags>
0

> <s_epik_input>
W0NIM11bQ0BASF0xW0NIMl1bQ0gyXVtDSDJdW0NIMl1OMVtDSDJdW0NIMl1bTkhdQyg9TylbQ0gyXW4yW2NIXWMoQyhGKShGKUYpW2NIXVtjSF1jMj1P

> <s_epik_cmdline>
J2VwaWtfcHl0aG9uJywgJy1waCcsICc3LjAnLCAnLXRuJywgJzgnLCAnLW1hJywgJzIwMCcsICctbWV0YWxfYmluZGluZycsICctaW1hZScsICc8aW5maWxlLm1hZT4nLCAnLW9tYWUnLCAnPG91dGZpbGUubWFlPic=

> <r_lp_tautomer_probability>
1

> <r_epik_Ionization_Penalty>
0.00237222

> <r_epik_Ionization_Penalty_Charging>
0.00237213

> <r_epik_Ionization_Penalty_Neutral>
8.2065e-08

> <r_epik_State_Penalty>
0.00163922

> <r_epik_Charging_Adjusted_Penalty>
0.00401135

> <i_epik_Tot_Q>
1

> <i_epik_Tot_abs_Q>
1

> <r_epik_Metal_State_Penalty>
-0

> <b_epik_Metal_Only>
0

> <s_lp_Force_Field>
OPLS_2005

> <r_lp_Energy>
31.3892

> <b_lp_Chiralities_Consistent>
1

> <s_lp_Variant>
AV-unprocessed.smi:1432-3

> <Gold.Version>
5.8.1

> <Gold.Id.Protein>
6NUR|6NUR_protein|mol2

> <Gold.PLP.Fitness>
53.7197

> <Gold.PLP.PLP>
-44.1895

> <Gold.PLP.part.hbond>
-2.0000

> <Gold.PLP.part.metal>
0.0000

> <Gold.PLP.part.buried>
-7.2020

> <Gold.PLP.part.nonpolar>
-35.3234

> <Gold.PLP.part.repulsive>
0.3467

> <Gold.PLP.ligand.clash>
1.1320

> <Gold.PLP.ligand.torsion>
0.7281

> <Gold.PLP.Chemscore.Hbond>
3.0000

> <Gold.PLP.Chemscore.CHOScore>
1.0000

> <Gold.PLP.Chemscore.Metal>
0.0000

> <Gold.Chemscore.Hbonds>
donor molecule, donor type, donor heavy atom, donor atom, acceptor molecule, acceptor atom, score
      L1  H     7    47       P1 10175  2.00
      L1  H    10    41       P1  7948  1.00
      L1  C    15    44       P1  7948  0.88

> <Gold.PLP.Chemscore.Internal.Correction>
0.1185

> <Gold.Rescore>
     Score         DG    S(hbond)    S(metal)    S(lipo)     H(rot)  DE(clash)    DE(int)     intcor
     15.36     -15.82       1.99        0.00      77.04       2.08       0.02       0.44       ----

> <Gold.Chemscore.Fitness>
15.3628

> <Gold.Chemscore.DG>
-15.8214

> <Gold.Chemscore.ZeroCoef>
-5.4800

> <Gold.Chemscore.Hbond>
1.9890

> <Gold.Chemscore.Metal>
0.0000

> <Gold.Chemscore.Lipo>
77.0354

> <Gold.Chemscore.Internal_Hbond>
0.0000

> <Gold.Chemscore.DEClash>
0.0234

> <Gold.Chemscore.DEInternal>
0.4351

> <Gold.Chemscore.Rot>
2.0762

> <Gold.Chemscore.Internal.Correction>
   9.000000E+99

> <Gold.Chemscore.Hbonds>
donor molecule, donor type, donor heavy atom, donor atom, acceptor molecule, acceptor atom, score
      L1  H     7    47       P1 10175  0.93
      L1  H    10    41       P1  7948  0.99

> <Gold.Chemscore.Hbond.Weighted>
-6.6432

> <Gold.Chemscore.Metal.Weighted>
-0.0000

> <Gold.Chemscore.Lipo.Weighted>
-9.0131

> <Gold.Chemscore.Internal_Hbond.Weighted>
0.0000

> <Gold.Chemscore.DEClash.Weighted>
0.0234

> <Gold.Chemscore.DEInternal.Weighted>
0.4351

> <Gold.Chemscore.Rot.Weighted>
5.3150

> <Gold.Chemscore.Internal.Correction.Weighted>
   9.000000E+99

> <Gold.Protein.RotatedTorsions>
[ 6907 6896 6895 6894 ] final    1.43 input  -60.11 | X-H torsion
[ 7974 7965 7964 7962 ] final   74.49 input  175.53 | X-H torsion
[ 8008 7997 7996 7995 ] final  109.63 input   59.86 | X-H torsion
[ 10167 10162 10161 10158 ] final  -71.58 input  -65.29 | X-H torsion
[ 10718 10713 10712 10709 ] final -154.41 input   66.30 | X-H torsion
[ 10763 10752 10751 10750 ] final -119.43 input  -60.55 | X-H torsion
[ 11005 11000 10999 10996 ] final  125.80 input  -57.11 | X-H torsion

> <Gold.Protein.ActiveResidues>
 VAL166  LYS551  ARG553  GLY616  TRP617  ASP618  TYR619  PRO620  LYS621  CYS622 
 ASP623  PHE694  ASN695  SER759  ASP760  ASP761  ALA762  ILE779  LEU786  VAL792 
 PHE793  MET794  SER795  GLU796  ALA797  LYS798  CYS799  TRP800  GLU811  SER814 

> <Gold.Protein.RotatedAtoms>
  151.5925  135.1052  160.0041 H   0  0  0  0  0  0  0  0  0  0  0  0  # atno 6907 bound_to 6896
  152.4299  133.7255  159.6568 H   0  0  0  0  0  0  0  0  0  0  0  0  # atno 6908 bound_to 6896
  150.8190  133.8214  159.3170 H   0  0  0  0  0  0  0  0  0  0  0  0  # atno 6909 bound_to 6896
  145.7275  139.2671  143.1560 H   0  0  0  0  0  0  0  0  0  0  0  0  # atno 7974 bound_to 7965
  156.1993  140.3054  155.9493 H   0  0  0  0  0  0  0  0  0  0  0  0  # atno 8008 bound_to 7997
  155.2991  140.0445  157.3045 H   0  0  0  0  0  0  0  0  0  0  0  0  # atno 8009 bound_to 7997
  154.5550  140.2303  155.8433 H   0  0  0  0  0  0  0  0  0  0  0  0  # atno 8010 bound_to 7997
  140.5261  143.2326  151.7344 H   0  0  0  0  0  0  0  0  0  0  0  0  # atno 10167 bound_to 10162
  156.4989  130.8382  151.2601 H   0  0  0  0  0  0  0  0  0  0  0  0  # atno 10718 bound_to 10713
  154.8617  135.4238  154.2298 H   0  0  0  0  0  0  0  0  0  0  0  0  # atno 10763 bound_to 10752
  153.3285  135.6986  153.6974 H   0  0  0  0  0  0  0  0  0  0  0  0  # atno 10764 bound_to 10752
  153.6000  135.3539  155.2915 H   0  0  0  0  0  0  0  0  0  0  0  0  # atno 10765 bound_to 10752
  139.9424  134.9634  156.8612 H   0  0  0  0  0  0  0  0  0  0  0  0  # atno 11005 bound_to 11000
  146.0568  140.8012  142.9754 LP  0  0  0  0  0  0  0  0  0  0  0  0  # atno 17320 bound_to 7965
  144.6901  140.3136  143.7244 LP  0  0  0  0  0  0  0  0  0  0  0  0  # atno 17321 bound_to 7965
  139.4939  144.4183  152.0005 LP  0  0  0  0  0  0  0  0  0  0  0  0  # atno 17342 bound_to 10162
  140.3282  144.3347  150.5993 LP  0  0  0  0  0  0  0  0  0  0  0  0  # atno 17343 bound_to 10162
  157.7465  130.9988  150.2867 LP  0  0  0  0  0  0  0  0  0  0  0  0  # atno 17370 bound_to 10713
  156.3352  130.3806  149.7456 LP  0  0  0  0  0  0  0  0  0  0  0  0  # atno 17371 bound_to 10713
  140.5918  134.0254  155.7502 LP  0  0  0  0  0  0  0  0  0  0  0  0  # atno 17394 bound_to 11000
  141.1063  133.9688  157.2990 LP  0  0  0  0  0  0  0  0  0  0  0  0  # atno 17395 bound_to 11000

$$$$
