AV-unprocessed.smi:3148|AV-procd|sdf|11997|dock2
  -GOLD-   2272017403D 1   1.00000     0.00000
 Structure written by MMmdl.
 35 37  0  0  0  0  0  0  0  0  2 V2000
  153.7590  141.3171  160.8011 C   0  0  0  0  0  0  0  0  0  0  0  0
  152.9626  140.9288  159.6865 O   0  0  0  0  0  0  0  0  0  0  0  0
  152.2269  141.8993  159.0385 C   0  0  0  0  0  0  0  0  0  0  0  0
  152.2029  143.2078  159.5484 C   0  0  0  0  0  0  0  0  0  0  0  0
  151.4362  144.1557  158.8438 C   0  0  0  0  0  0  0  0  0  0  0  0
  151.3266  145.5969  159.2938 C   0  0  0  0  0  0  0  0  0  0  0  0
  150.7613  143.7892  157.7257 N   0  3  0  0  0  0  0  0  0  0  0  0
  150.8226  142.5215  157.2921 C   0  0  0  0  0  0  0  0  0  0  0  0
  150.1081  142.2001  156.1522 N   0  0  0  0  0  0  0  0  0  0  0  0
  150.0734  140.8691  155.5573 C   0  0  2  0  0  0  0  0  0  0  0  0
  149.1982  140.7911  154.3042 C   0  0  0  0  0  0  0  0  0  0  0  0
  148.2578  139.6279  154.6498 C   0  0  2  0  0  0  0  0  0  0  0  0
  147.1973  140.0469  155.6762 C   0  0  0  0  0  0  0  0  0  0  0  0
  148.0263  140.1494  156.9549 C   0  0  0  0  0  0  0  0  0  0  0  0
  149.4344  139.7879  156.4516 C   0  0  1  0  0  0  0  0  0  0  0  0
  149.1028  138.8293  155.4617 O   0  0  0  0  0  0  0  0  0  0  0  0
  151.5369  141.5771  157.9199 N   0  0  0  0  0  0  0  0  0  0  0  0
  154.2635  140.4401  161.2067 H   0  0  0  0  0  0  0  0  0  0  0  0
  153.1493  141.7447  161.5984 H   0  0  0  0  0  0  0  0  0  0  0  0
  154.5263  142.0367  160.5120 H   0  0  0  0  0  0  0  0  0  0  0  0
  152.7503  143.4703  160.4422 H   0  0  0  0  0  0  0  0  0  0  0  0
  152.0254  145.8104  160.1030 H   0  0  0  0  0  0  0  0  0  0  0  0
  150.3173  145.8056  159.6497 H   0  0  0  0  0  0  0  0  0  0  0  0
  151.5474  146.2732  158.4674 H   0  0  0  0  0  0  0  0  0  0  0  0
  149.4577  142.8889  155.8031 H   0  0  0  0  0  0  0  0  0  0  0  0
  151.0894  140.5697  155.2956 H   0  0  0  0  0  0  0  0  0  0  0  0
  148.6491  141.7095  154.0904 H   0  0  0  0  0  0  0  0  0  0  0  0
  149.8080  140.5517  153.4323 H   0  0  0  0  0  0  0  0  0  0  0  0
  147.8507  139.1133  153.7791 H   0  0  0  0  0  0  0  0  0  0  0  0
  146.7091  140.9851  155.4103 H   0  0  0  0  0  0  0  0  0  0  0  0
  146.4293  139.2793  155.7786 H   0  0  0  0  0  0  0  0  0  0  0  0
  147.9747  141.1345  157.4191 H   0  0  0  0  0  0  0  0  0  0  0  0
  147.6833  139.4169  157.6865 H   0  0  0  0  0  0  0  0  0  0  0  0
  150.0964  139.4087  157.2306 H   0  0  0  0  0  0  0  0  0  0  0  0
  150.2088  144.4856  157.2253 H   0  0  0  0  0  0  0  0  0  0  0  0
  1  2  1  0  0  0  0
  1 18  1  0  0  0  0
  1 19  1  0  0  0  0
  1 20  1  0  0  0  0
  2  3  1  0  0  0  0
  3 17  1  0  0  0  0
  3  4  2  0  0  0  0
  4  5  1  0  0  0  0
  4 21  1  0  0  0  0
  5  6  1  0  0  0  0
  5  7  2  0  0  0  0
  6 22  1  0  0  0  0
  6 23  1  0  0  0  0
  6 24  1  0  0  0  0
  7  8  1  0  0  0  0
  7 35  1  0  0  0  0
  8  9  1  0  0  0  0
  8 17  2  0  0  0  0
  9 10  1  0  0  0  0
  9 25  1  0  0  0  0
 10 15  1  0  0  0  0
 10 11  1  0  0  0  0
 10 26  1  0  0  0  0
 11 12  1  0  0  0  0
 11 27  1  0  0  0  0
 11 28  1  0  0  0  0
 12 16  1  0  0  0  0
 12 13  1  0  0  0  0
 12 29  1  0  0  0  0
 13 14  1  0  0  0  0
 13 30  1  0  0  0  0
 13 31  1  0  0  0  0
 14 15  1  0  0  0  0
 14 32  1  0  0  0  0
 14 33  1  0  0  0  0
 15 16  1  0  0  0  0
 15 34  1  0  0  0  0
M  CHG  1   7   1
M  END
> <s_m_source_file>
AV-unprocessed.smi

> <i_m_source_file_index>
3148

> <i_lp_mmshare_version>
43012

> <i_f3d_flags>
0

> <s_epik_input>
W0NIM11PYzFbY0hdYyhbQ0gzXSluYyhuMSlbTkhdW0NASF0oW0NIMl1bQ0BASF0yMylbQ0BASF0oTzMpW0NIMl1bQ0gyXTI=

> <s_epik_cmdline>
J2VwaWtfcHl0aG9uJywgJy1waCcsICc3LjAnLCAnLXRuJywgJzgnLCAnLW1hJywgJzIwMCcsICctbWV0YWxfYmluZGluZycsICctaW1hZScsICc8aW5maWxlLm1hZT4nLCAnLW9tYWUnLCAnPG91dGZpbGUubWFlPic=

> <r_lp_tautomer_probability>
0.999985

> <r_epik_Ionization_Penalty>
1.09461

> <r_epik_Ionization_Penalty_Charging>
1.0946

> <r_epik_Ionization_Penalty_Neutral>
6.69406e-06

> <r_epik_State_Penalty>
1.15119

> <r_epik_Charging_Adjusted_Penalty>
2.24579

> <i_epik_Tot_Q>
1

> <i_epik_Tot_abs_Q>
1

> <r_epik_Metal_State_Penalty>
1.2392

> <b_epik_Metal_Only>
0

> <s_lp_Force_Field>
OPLS_2005

> <r_lp_Energy>
36.3956

> <b_lp_Chiralities_Consistent>
1

> <s_lp_Variant>
AV-unprocessed.smi:3148-7

> <Gold.Version>
5.8.1

> <Gold.Id.Protein>
6NUR|6NUR_protein|mol2

> <Gold.PLP.Fitness>
40.6070

> <Gold.PLP.PLP>
-29.2797

> <Gold.PLP.part.hbond>
-2.0000

> <Gold.PLP.part.metal>
0.0000

> <Gold.PLP.part.buried>
-3.6866

> <Gold.PLP.part.nonpolar>
-24.8489

> <Gold.PLP.part.repulsive>
0.1768

> <Gold.PLP.ligand.clash>
0.0000

> <Gold.PLP.ligand.torsion>
0.0290

> <Gold.PLP.Chemscore.Hbond>
3.7920

> <Gold.PLP.Chemscore.CHOScore>
0.0000

> <Gold.PLP.Chemscore.Metal>
0.0000

> <Gold.Chemscore.Hbonds>
donor molecule, donor type, donor heavy atom, donor atom, acceptor molecule, acceptor atom, score
      L1  H     7    35       P1  8028  1.79
      L1  H     9    25       P1  8028  2.00

> <Gold.PLP.Chemscore.Internal.Correction>
0.0094

> <Gold.Rescore>
     Score         DG    S(hbond)    S(metal)    S(lipo)     H(rot)  DE(clash)    DE(int)     intcor
     15.93     -16.54       1.64        0.00      74.88       1.24       0.52       0.08       ----

> <Gold.Chemscore.Fitness>
15.9339

> <Gold.Chemscore.DG>
-16.5401

> <Gold.Chemscore.ZeroCoef>
-5.4800

> <Gold.Chemscore.Hbond>
1.6369

> <Gold.Chemscore.Metal>
0.0000

> <Gold.Chemscore.Lipo>
74.8813

> <Gold.Chemscore.Internal_Hbond>
0.0000

> <Gold.Chemscore.DEClash>
0.5226

> <Gold.Chemscore.DEInternal>
0.0836

> <Gold.Chemscore.Rot>
1.2376

> <Gold.Chemscore.Internal.Correction>
   9.000000E+99

> <Gold.Chemscore.Hbonds>
donor molecule, donor type, donor heavy atom, donor atom, acceptor molecule, acceptor atom, score
      L1  H     7    35       P1  8028  0.45
      L1  H     9    25       P1  8028  0.94

> <Gold.Chemscore.Hbond.Weighted>
-5.4671

> <Gold.Chemscore.Metal.Weighted>
-0.0000

> <Gold.Chemscore.Lipo.Weighted>
-8.7611

> <Gold.Chemscore.Internal_Hbond.Weighted>
0.0000

> <Gold.Chemscore.DEClash.Weighted>
0.5226

> <Gold.Chemscore.DEInternal.Weighted>
0.0836

> <Gold.Chemscore.Rot.Weighted>
3.1681

> <Gold.Chemscore.Internal.Correction.Weighted>
   9.000000E+99

> <Gold.Protein.RotatedTorsions>
[ 6907 6896 6895 6894 ] final  -31.89 input  -60.11 | X-H torsion
[ 7974 7965 7964 7962 ] final  -76.77 input  175.53 | X-H torsion
[ 8008 7997 7996 7995 ] final  -12.71 input   59.86 | X-H torsion
[ 10167 10162 10161 10158 ] final  119.78 input  -65.29 | X-H torsion
[ 10718 10713 10712 10709 ] final   90.64 input   66.30 | X-H torsion
[ 10763 10752 10751 10750 ] final  -34.49 input  -60.55 | X-H torsion
[ 11005 11000 10999 10996 ] final -125.83 input  -57.11 | X-H torsion

> <Gold.Protein.ActiveResidues>
 VAL166  LYS551  ARG553  GLY616  TRP617  ASP618  TYR619  PRO620  LYS621  CYS622 
 ASP623  PHE694  ASN695  SER759  ASP760  ASP761  ALA762  ILE779  LEU786  VAL792 
 PHE793  MET794  SER795  GLU796  ALA797  LYS798  CYS799  TRP800  GLU811  SER814 

> <Gold.Protein.RotatedAtoms>
  151.0860  134.9887  159.8379 H   0  0  0  0  0  0  0  0  0  0  0  0  # atno 6907 bound_to 6896
  152.5424  134.2123  159.8765 H   0  0  0  0  0  0  0  0  0  0  0  0  # atno 6908 bound_to 6896
  151.2156  133.4487  159.2633 H   0  0  0  0  0  0  0  0  0  0  0  0  # atno 6909 bound_to 6896
  145.6085  140.9392  143.1202 H   0  0  0  0  0  0  0  0  0  0  0  0  # atno 7974 bound_to 7965
  154.5354  140.2269  155.8731 H   0  0  0  0  0  0  0  0  0  0  0  0  # atno 8008 bound_to 7997
  156.1806  140.3101  155.9105 H   0  0  0  0  0  0  0  0  0  0  0  0  # atno 8009 bound_to 7997
  155.3365  140.0448  157.3034 H   0  0  0  0  0  0  0  0  0  0  0  0  # atno 8010 bound_to 7997
  139.6024  144.7060  151.3032 H   0  0  0  0  0  0  0  0  0  0  0  0  # atno 10167 bound_to 10162
  157.6959  131.0378  150.3608 H   0  0  0  0  0  0  0  0  0  0  0  0  # atno 10718 bound_to 10713
  153.8476  135.6852  153.4796 H   0  0  0  0  0  0  0  0  0  0  0  0  # atno 10763 bound_to 10752
  153.1416  135.4655  154.9503 H   0  0  0  0  0  0  0  0  0  0  0  0  # atno 10764 bound_to 10752
  154.7817  135.3271  154.7923 H   0  0  0  0  0  0  0  0  0  0  0  0  # atno 10765 bound_to 10752
  140.9730  134.0779  157.3848 H   0  0  0  0  0  0  0  0  0  0  0  0  # atno 11005 bound_to 11000
  144.7280  139.7815  143.7358 LP  0  0  0  0  0  0  0  0  0  0  0  0  # atno 17320 bound_to 7965
  146.1523  139.4609  143.0041 LP  0  0  0  0  0  0  0  0  0  0  0  0  # atno 17321 bound_to 7965
  140.7259  143.7004  150.7850 LP  0  0  0  0  0  0  0  0  0  0  0  0  # atno 17342 bound_to 10162
  140.0583  143.5180  152.2640 LP  0  0  0  0  0  0  0  0  0  0  0  0  # atno 17343 bound_to 10162
  156.4045  130.3922  149.6936 LP  0  0  0  0  0  0  0  0  0  0  0  0  # atno 17370 bound_to 10713
  156.4242  130.7783  151.2801 LP  0  0  0  0  0  0  0  0  0  0  0  0  # atno 17371 bound_to 10713
  139.8920  135.0122  156.6820 LP  0  0  0  0  0  0  0  0  0  0  0  0  # atno 17394 bound_to 11000
  140.7300  133.9067  155.8205 LP  0  0  0  0  0  0  0  0  0  0  0  0  # atno 17395 bound_to 11000

$$$$
