AV-unprocessed.smi:1255|AV-procd|sdf|5282|dock4
  -GOLD-   22720 4403D 1   1.00000     0.00000
 Structure written by MMmdl.
 40 41  0  0  0  0  0  0  0  0  1 V2000
  146.9778  139.2729  151.3708 C   0  0  0  0  0  0  0  0  0  0  0  0
  146.3961  138.7940  152.7115 C   0  0  1  0  0  0  0  0  0  0  0  0
  146.7536  137.3865  152.8836 N   0  0  0  0  0  0  0  0  0  0  0  0
  146.0395  136.4916  153.5822 C   0  0  0  0  0  0  0  0  0  0  0  0
  146.6124  135.2881  153.6009 N   0  0  0  0  0  0  0  0  0  0  0  0
  144.9769  136.7377  154.1494 O   0  0  0  0  0  0  0  0  0  0  0  0
  147.0107  139.6500  153.8316 C   0  0  0  0  0  0  0  0  0  0  0  0
  146.2823  140.3278  154.5580 O   0  0  0  0  0  0  0  0  0  0  0  0
  148.3511  139.5906  153.9357 N   0  0  0  0  0  0  0  0  0  0  0  0
  149.2011  140.2557  154.8605 C   0  0  0  0  0  0  0  0  0  0  0  0
  150.5566  139.9207  155.0832 C   0  0  0  0  0  0  0  0  0  0  0  0
  151.3008  140.6701  156.0146 C   0  0  0  0  0  0  0  0  0  0  0  0
  150.6791  141.7408  156.6997 C   0  0  0  0  0  0  0  0  0  0  0  0
  151.4068  142.5039  157.6395 N   0  0  0  0  0  0  0  0  0  0  0  0
  151.7054  143.8967  157.3099 C   0  0  0  0  0  0  0  0  0  0  0  0
  152.7411  144.4701  158.2915 C   0  0  0  0  0  0  0  0  0  0  0  0
  152.2729  144.3128  159.6265 O   0  0  0  0  0  0  0  0  0  0  0  0
  152.0941  142.9416  159.9654 C   0  0  0  0  0  0  0  0  0  0  0  0
  151.0413  142.3060  159.0405 C   0  0  0  0  0  0  0  0  0  0  0  0
  149.3850  142.0714  156.4673 N   0  0  0  0  0  0  0  0  0  0  0  0
  148.6750  141.3504  155.5746 C   0  0  0  0  0  0  0  0  0  0  0  0
  146.7379  140.3211  151.1868 H   0  0  0  0  0  0  0  0  0  0  0  0
  146.5669  138.6971  150.5410 H   0  0  0  0  0  0  0  0  0  0  0  0
  148.0636  139.1692  151.3370 H   0  0  0  0  0  0  0  0  0  0  0  0
  145.3097  138.9040  152.6993 H   0  0  0  0  0  0  0  0  0  0  0  0
  147.6184  137.0827  152.4608 H   0  0  0  0  0  0  0  0  0  0  0  0
  146.1717  134.5220  154.0883 H   0  0  0  0  0  0  0  0  0  0  0  0
  147.4877  135.1473  153.1176 H   0  0  0  0  0  0  0  0  0  0  0  0
  148.8237  139.0540  153.2226 H   0  0  0  0  0  0  0  0  0  0  0  0
  151.0457  139.1209  154.5496 H   0  0  0  0  0  0  0  0  0  0  0  0
  152.3402  140.4267  156.1757 H   0  0  0  0  0  0  0  0  0  0  0  0
  152.0935  143.9707  156.2933 H   0  0  0  0  0  0  0  0  0  0  0  0
  150.7862  144.4826  157.3528 H   0  0  0  0  0  0  0  0  0  0  0  0
  153.7067  143.9757  158.1718 H   0  0  0  0  0  0  0  0  0  0  0  0
  152.9000  145.5301  158.0930 H   0  0  0  0  0  0  0  0  0  0  0  0
  153.0448  142.4111  159.8935 H   0  0  0  0  0  0  0  0  0  0  0  0
  151.7704  142.8733  161.0040 H   0  0  0  0  0  0  0  0  0  0  0  0
  150.0663  142.7620  159.2166 H   0  0  0  0  0  0  0  0  0  0  0  0
  150.9462  141.2502  159.2894 H   0  0  0  0  0  0  0  0  0  0  0  0
  147.6497  141.6580  155.4294 H   0  0  0  0  0  0  0  0  0  0  0  0
  1  2  1  0  0  0  0
  1 22  1  0  0  0  0
  1 23  1  0  0  0  0
  1 24  1  0  0  0  0
  2  3  1  0  0  0  0
  2  7  1  0  0  0  0
  2 25  1  0  0  0  0
  3  4  1  0  0  0  0
  3 26  1  0  0  0  0
  4  5  1  0  0  0  0
  4  6  2  0  0  0  0
  5 27  1  0  0  0  0
  5 28  1  0  0  0  0
  7  8  2  0  0  0  0
  7  9  1  0  0  0  0
  9 10  1  0  0  0  0
  9 29  1  0  0  0  0
 10 21  1  0  0  0  0
 10 11  2  0  0  0  0
 11 12  1  0  0  0  0
 11 30  1  0  0  0  0
 12 13  2  0  0  0  0
 12 31  1  0  0  0  0
 13 14  1  0  0  0  0
 13 20  1  0  0  0  0
 14 19  1  0  0  0  0
 14 15  1  0  0  0  0
 15 16  1  0  0  0  0
 15 32  1  0  0  0  0
 15 33  1  0  0  0  0
 16 17  1  0  0  0  0
 16 34  1  0  0  0  0
 16 35  1  0  0  0  0
 17 18  1  0  0  0  0
 18 19  1  0  0  0  0
 18 36  1  0  0  0  0
 18 37  1  0  0  0  0
 19 38  1  0  0  0  0
 19 39  1  0  0  0  0
 20 21  2  0  0  0  0
 21 40  1  0  0  0  0
M  END
> <s_m_source_file>
AV-unprocessed.smi

> <i_m_source_file_index>
1255

> <i_lp_mmshare_version>
43012

> <i_f3d_flags>
0

> <s_epik_input>
W05IMl1DKD1PKVtOSF1bQ0BASF0oW0NIM10pQyg9TylbTkhdYzFbY0hdW2NIXWMobltjSF0xKU4yW0NIMl1bQ0gyXU9bQ0gyXVtDSDJdMg==

> <s_epik_cmdline>
J2VwaWtfcHl0aG9uJywgJy1waCcsICc3LjAnLCAnLXRuJywgJzgnLCAnLW1hJywgJzIwMCcsICctbWV0YWxfYmluZGluZycsICctaW1hZScsICc8aW5maWxlLm1hZT4nLCAnLW9tYWUnLCAnPG91dGZpbGUubWFlPic=

> <r_lp_tautomer_probability>
1

> <r_epik_Ionization_Penalty>
0.00069351

> <r_epik_Ionization_Penalty_Charging>
0

> <r_epik_Ionization_Penalty_Neutral>
0.00069351

> <r_epik_State_Penalty>
0.000408291

> <r_epik_Charging_Adjusted_Penalty>
0.000408291

> <i_epik_Tot_Q>
0

> <i_epik_Tot_abs_Q>
0

> <r_epik_Metal_State_Penalty>
-0

> <b_epik_Metal_Only>
0

> <s_lp_Force_Field>
OPLS_2005

> <r_lp_Energy>
18.2011

> <b_lp_Chiralities_Consistent>
1

> <s_lp_Variant>
AV-unprocessed.smi:1255-2

> <Gold.Version>
5.8.1

> <Gold.Id.Protein>
6NUR|6NUR_protein|mol2

> <Gold.PLP.Fitness>
39.9335

> <Gold.PLP.PLP>
-34.2891

> <Gold.PLP.part.hbond>
-2.9948

> <Gold.PLP.part.metal>
0.0000

> <Gold.PLP.part.buried>
1.6254

> <Gold.PLP.part.nonpolar>
-34.2235

> <Gold.PLP.part.repulsive>
1.9250

> <Gold.PLP.ligand.clash>
0.0000

> <Gold.PLP.ligand.torsion>
0.6061

> <Gold.PLP.Chemscore.Hbond>
2.1664

> <Gold.PLP.Chemscore.CHOScore>
0.0000

> <Gold.PLP.Chemscore.Metal>
0.0000

> <Gold.Chemscore.Hbonds>
donor molecule, donor type, donor heavy atom, donor atom, acceptor molecule, acceptor atom, score
      L1  H     3    26       P1  7948  1.00
      L1  H     5    28       P1  7948  0.50
      L1  H     9    29       P1  7957  0.02

> <Gold.PLP.Chemscore.Internal.Correction>
0.3575

> <Gold.Rescore>
     Score         DG    S(hbond)    S(metal)    S(lipo)     H(rot)  DE(clash)    DE(int)     intcor
     13.14     -17.68       1.99        0.00      89.32       1.91       2.66       1.89       ----

> <Gold.Chemscore.Fitness>
13.1356

> <Gold.Chemscore.DG>
-17.6827

> <Gold.Chemscore.ZeroCoef>
-5.4800

> <Gold.Chemscore.Hbond>
1.9860

> <Gold.Chemscore.Metal>
0.0000

> <Gold.Chemscore.Lipo>
89.3205

> <Gold.Chemscore.Internal_Hbond>
0.0000

> <Gold.Chemscore.DEClash>
2.6594

> <Gold.Chemscore.DEInternal>
1.8877

> <Gold.Chemscore.Rot>
1.9067

> <Gold.Chemscore.Internal.Correction>
   9.000000E+99

> <Gold.Chemscore.Hbonds>
donor molecule, donor type, donor heavy atom, donor atom, acceptor molecule, acceptor atom, score
      L1  H     3    26       P1  7948  1.00
      L1  H     5    28       P1  7948  0.49
      L1  H     9    29       P1  7957  0.05

> <Gold.Chemscore.Hbond.Weighted>
-6.6333

> <Gold.Chemscore.Metal.Weighted>
-0.0000

> <Gold.Chemscore.Lipo.Weighted>
-10.4505

> <Gold.Chemscore.Internal_Hbond.Weighted>
0.0000

> <Gold.Chemscore.DEClash.Weighted>
2.6594

> <Gold.Chemscore.DEInternal.Weighted>
1.8877

> <Gold.Chemscore.Rot.Weighted>
4.8811

> <Gold.Chemscore.Internal.Correction.Weighted>
   9.000000E+99

> <Gold.Protein.RotatedTorsions>
[ 6907 6896 6895 6894 ] final  175.75 input  -60.11 | X-H torsion
[ 7974 7965 7964 7962 ] final   52.69 input  175.53 | X-H torsion
[ 8008 7997 7996 7995 ] final -148.54 input   59.86 | X-H torsion
[ 10167 10162 10161 10158 ] final  -59.54 input  -65.29 | X-H torsion
[ 10718 10713 10712 10709 ] final  -70.66 input   66.30 | X-H torsion
[ 10763 10752 10751 10750 ] final  152.26 input  -60.55 | X-H torsion
[ 11005 11000 10999 10996 ] final  -11.00 input  -57.11 | X-H torsion

> <Gold.Protein.ActiveResidues>
 VAL166  LYS551  ARG553  GLY616  TRP617  ASP618  TYR619  PRO620  LYS621  CYS622 
 ASP623  PHE694  ASN695  SER759  ASP760  ASP761  ALA762  ILE779  LEU786  VAL792 
 PHE793  MET794  SER795  GLU796  ALA797  LYS798  CYS799  TRP800  GLU811  SER814 

> <Gold.Protein.RotatedAtoms>
  151.7312  133.3318  159.3340 H   0  0  0  0  0  0  0  0  0  0  0  0  # atno 6907 bound_to 6896
  150.7612  134.6362  159.6222 H   0  0  0  0  0  0  0  0  0  0  0  0  # atno 6908 bound_to 6896
  152.3591  134.6900  160.0264 H   0  0  0  0  0  0  0  0  0  0  0  0  # atno 6909 bound_to 6896
  145.9788  139.4221  143.0145 H   0  0  0  0  0  0  0  0  0  0  0  0  # atno 7974 bound_to 7965
  155.5933  140.0655  157.2753 H   0  0  0  0  0  0  0  0  0  0  0  0  # atno 8008 bound_to 7997
  154.4299  140.1831  156.1144 H   0  0  0  0  0  0  0  0  0  0  0  0  # atno 8009 bound_to 7997
  156.0216  140.3316  155.7048 H   0  0  0  0  0  0  0  0  0  0  0  0  # atno 8010 bound_to 7997
  140.6129  143.2393  151.5667 H   0  0  0  0  0  0  0  0  0  0  0  0  # atno 10167 bound_to 10162
  156.0398  130.4336  150.2328 H   0  0  0  0  0  0  0  0  0  0  0  0  # atno 10718 bound_to 10713
  154.1172  135.2835  155.3217 H   0  0  0  0  0  0  0  0  0  0  0  0  # atno 10763 bound_to 10752
  154.6449  135.5389  153.7836 H   0  0  0  0  0  0  0  0  0  0  0  0  # atno 10764 bound_to 10752
  153.0325  135.6495  154.1327 H   0  0  0  0  0  0  0  0  0  0  0  0  # atno 10765 bound_to 10752
  140.7507  133.8595  155.9042 H   0  0  0  0  0  0  0  0  0  0  0  0  # atno 11005 bound_to 11000
  145.7800  140.9860  143.1104 LP  0  0  0  0  0  0  0  0  0  0  0  0  # atno 17320 bound_to 7965
  144.6856  139.9553  143.7479 LP  0  0  0  0  0  0  0  0  0  0  0  0  # atno 17321 bound_to 7965
  139.5375  144.2740  152.1282 LP  0  0  0  0  0  0  0  0  0  0  0  0  # atno 17342 bound_to 10162
  140.1943  144.4721  150.6463 LP  0  0  0  0  0  0  0  0  0  0  0  0  # atno 17343 bound_to 10162
  157.0424  131.0039  151.3279 LP  0  0  0  0  0  0  0  0  0  0  0  0  # atno 17370 bound_to 10713
  157.5199  130.7992  149.7798 LP  0  0  0  0  0  0  0  0  0  0  0  0  # atno 17371 bound_to 10713
  140.9754  134.1476  157.4541 LP  0  0  0  0  0  0  0  0  0  0  0  0  # atno 17394 bound_to 11000
  139.8788  134.9992  156.5945 LP  0  0  0  0  0  0  0  0  0  0  0  0  # atno 17395 bound_to 11000

$$$$
