AV-unprocessed.smi:3068|AV-procd|sdf|11704|dock4
  -GOLD-   2272017103D 1   1.00000     0.00000
 Structure written by MMmdl.
 40 42  0  0  0  0  0  0  0  0  2 V2000
  153.1504  138.9609  155.9709 N   0  0  0  0  0  0  0  0  0  0  0  0
  152.1369  139.4840  155.7750 C   0  0  0  0  0  0  0  0  0  0  0  0
  150.8613  140.1435  155.5268 C   0  0  0  0  0  0  0  0  0  0  0  0
  150.2632  139.8847  154.3411 N   0  0  0  0  0  0  0  0  0  0  0  0
  149.0829  140.4932  154.0977 C   0  0  0  0  0  0  0  0  0  0  0  0
  148.4941  141.3628  155.0363 C   0  0  0  0  0  0  0  0  0  0  0  0
  149.0832  141.6269  156.2222 N   0  0  0  0  0  0  0  0  0  0  0  0
  150.2700  141.0220  156.4786 C   0  0  0  0  0  0  0  0  0  0  0  0
  150.8952  141.2904  157.7092 N   0  0  0  0  0  0  0  0  0  0  0  0
  150.7262  142.5749  158.3737 C   0  0  0  0  0  0  0  0  0  0  0  0
  152.0402  143.3809  158.3884 C   0  0  2  0  0  0  0  0  0  0  0  0
  153.1961  142.6387  159.0853 C   0  0  0  0  0  0  0  0  0  0  0  0
  152.9943  142.5802  160.5524 N   0  3  1  0  0  0  0  0  0  0  0  0
  154.0812  141.8352  161.2378 C   0  0  0  0  0  0  0  0  0  0  0  0
  153.8067  141.7124  162.7449 C   0  0  0  0  0  0  0  0  0  0  0  0
  153.6072  143.0957  163.3763 C   0  0  0  0  0  0  0  0  0  0  0  0
  152.4964  143.8528  162.6367 C   0  0  0  0  0  0  0  0  0  0  0  0
  152.7837  143.9379  161.1240 C   0  0  2  0  0  0  0  0  0  0  0  0
  151.6367  144.6514  160.3833 C   0  0  0  0  0  0  0  0  0  0  0  0
  151.8845  144.6704  158.9816 O   0  0  0  0  0  0  0  0  0  0  0  0
  148.6073  140.2861  153.1505 H   0  0  0  0  0  0  0  0  0  0  0  0
  147.5503  141.8475  154.8353 H   0  0  0  0  0  0  0  0  0  0  0  0
  151.5608  140.6305  158.0868 H   0  0  0  0  0  0  0  0  0  0  0  0
  149.9257  143.1398  157.8962 H   0  0  0  0  0  0  0  0  0  0  0  0
  150.4053  142.3879  159.3992 H   0  0  0  0  0  0  0  0  0  0  0  0
  152.3340  143.5479  157.3514 H   0  0  0  0  0  0  0  0  0  0  0  0
  153.2914  141.6299  158.6816 H   0  0  0  0  0  0  0  0  0  0  0  0
  154.1362  143.1514  158.8762 H   0  0  0  0  0  0  0  0  0  0  0  0
  154.1719  140.8393  160.8023 H   0  0  0  0  0  0  0  0  0  0  0  0
  155.0334  142.3419  161.0712 H   0  0  0  0  0  0  0  0  0  0  0  0
  152.9183  141.1009  162.9087 H   0  0  0  0  0  0  0  0  0  0  0  0
  154.6334  141.1960  163.2334 H   0  0  0  0  0  0  0  0  0  0  0  0
  153.3565  142.9956  164.4329 H   0  0  0  0  0  0  0  0  0  0  0  0
  154.5376  143.6631  163.3278 H   0  0  0  0  0  0  0  0  0  0  0  0
  151.5429  143.3497  162.8042 H   0  0  0  0  0  0  0  0  0  0  0  0
  152.3940  144.8546  163.0551 H   0  0  0  0  0  0  0  0  0  0  0  0
  153.6995  144.5129  160.9737 H   0  0  0  0  0  0  0  0  0  0  0  0
  150.6756  144.1825  160.5958 H   0  0  0  0  0  0  0  0  0  0  0  0
  151.5550  145.6823  160.7288 H   0  0  0  0  0  0  0  0  0  0  0  0
  152.1415  142.0622  160.7101 H   0  0  0  0  0  0  0  0  0  0  0  0
  1  2  3  0  0  0  0
  2  3  1  0  0  0  0
  3  8  1  0  0  0  0
  3  4  2  0  0  0  0
  4  5  1  0  0  0  0
  5  6  2  0  0  0  0
  5 21  1  0  0  0  0
  6  7  1  0  0  0  0
  6 22  1  0  0  0  0
  7  8  2  0  0  0  0
  8  9  1  0  0  0  0
  9 10  1  0  0  0  0
  9 23  1  0  0  0  0
 10 11  1  0  0  0  0
 10 24  1  0  0  0  0
 10 25  1  0  0  0  0
 11 20  1  0  0  0  0
 11 12  1  0  0  0  0
 11 26  1  0  0  0  0
 12 13  1  0  0  0  0
 12 27  1  0  0  0  0
 12 28  1  0  0  0  0
 13 18  1  0  0  0  0
 13 14  1  0  0  0  0
 13 40  1  0  0  0  0
 14 15  1  0  0  0  0
 14 29  1  0  0  0  0
 14 30  1  0  0  0  0
 15 16  1  0  0  0  0
 15 31  1  0  0  0  0
 15 32  1  0  0  0  0
 16 17  1  0  0  0  0
 16 33  1  0  0  0  0
 16 34  1  0  0  0  0
 17 18  1  0  0  0  0
 17 35  1  0  0  0  0
 17 36  1  0  0  0  0
 18 19  1  0  0  0  0
 18 37  1  0  0  0  0
 19 20  1  0  0  0  0
 19 38  1  0  0  0  0
 19 39  1  0  0  0  0
M  CHG  1  13   1
M  END
> <s_m_source_file>
AV-unprocessed.smi

> <i_m_source_file_index>
3068

> <i_lp_mmshare_version>
43012

> <i_f3d_flags>
0

> <s_epik_input>
TiNDYzFuW2NIXVtjSF1uYzFbTkhdW0NIMl1bQ0BIXShbQ0gyXTIpT1tDSDJdW0NAQEhdKE4yMylbQ0gyXVtDSDJdW0NIMl1bQ0gyXTM=

> <s_epik_cmdline>
J2VwaWtfcHl0aG9uJywgJy1waCcsICc3LjAnLCAnLXRuJywgJzgnLCAnLW1hJywgJzIwMCcsICctbWV0YWxfYmluZGluZycsICctaW1hZScsICc8aW5maWxlLm1hZT4nLCAnLW9tYWUnLCAnPG91dGZpbGUubWFlPic=

> <r_epik_Ionization_Penalty>
0.0804321

> <r_epik_Ionization_Penalty_Charging>
0.0803403

> <r_epik_Ionization_Penalty_Neutral>
9.17277e-05

> <r_epik_State_Penalty>
0.0711481

> <r_epik_Charging_Adjusted_Penalty>
0.151488

> <i_epik_Tot_Q>
1

> <i_epik_Tot_abs_Q>
1

> <r_epik_Metal_State_Penalty>
0.0711481

> <b_epik_Metal_Only>
0

> <s_lp_Force_Field>
OPLS_2005

> <r_lp_Energy>
40.024

> <b_lp_Chiralities_Consistent>
1

> <s_lp_Variant>
AV-unprocessed.smi:3068-7

> <Gold.Version>
5.8.1

> <Gold.Id.Protein>
6NUR|6NUR_protein|mol2

> <Gold.PLP.Fitness>
47.4750

> <Gold.PLP.PLP>
-40.2742

> <Gold.PLP.part.hbond>
-2.0000

> <Gold.PLP.part.metal>
0.0000

> <Gold.PLP.part.buried>
-1.8407

> <Gold.PLP.part.nonpolar>
-35.7894

> <Gold.PLP.part.repulsive>
0.6161

> <Gold.PLP.ligand.clash>
0.0000

> <Gold.PLP.ligand.torsion>
0.2277

> <Gold.PLP.Chemscore.Hbond>
1.5500

> <Gold.PLP.Chemscore.CHOScore>
1.0000

> <Gold.PLP.Chemscore.Metal>
0.0000

> <Gold.Chemscore.Hbonds>
donor molecule, donor type, donor heavy atom, donor atom, acceptor molecule, acceptor atom, score
      P1  H  7989  7998       L1     4  0.45
      P1  H  7997  8008       L1     1  1.00
      L1  C     5    21       P1  7957  0.95

> <Gold.PLP.Chemscore.Internal.Correction>
0.0062

> <Gold.Rescore>
     Score         DG    S(hbond)    S(metal)    S(lipo)     H(rot)  DE(clash)    DE(int)     intcor
     18.17     -19.38       0.97        0.00     120.02       1.32       0.99       0.22       ----

> <Gold.Chemscore.Fitness>
18.1680

> <Gold.Chemscore.DG>
-19.3772

> <Gold.Chemscore.ZeroCoef>
-5.4800

> <Gold.Chemscore.Hbond>
0.9678

> <Gold.Chemscore.Metal>
0.0000

> <Gold.Chemscore.Lipo>
120.0189

> <Gold.Chemscore.Internal_Hbond>
0.0000

> <Gold.Chemscore.DEClash>
0.9857

> <Gold.Chemscore.DEInternal>
0.2235

> <Gold.Chemscore.Rot>
1.3193

> <Gold.Chemscore.Internal.Correction>
   9.000000E+99

> <Gold.Chemscore.Hbonds>
donor molecule, donor type, donor heavy atom, donor atom, acceptor molecule, acceptor atom, score
      P1  H  7989  7998       L1     4  0.01
      P1  H  7997  8008       L1     1  0.73

> <Gold.Chemscore.Hbond.Weighted>
-3.2324

> <Gold.Chemscore.Metal.Weighted>
-0.0000

> <Gold.Chemscore.Lipo.Weighted>
-14.0422

> <Gold.Chemscore.Internal_Hbond.Weighted>
0.0000

> <Gold.Chemscore.DEClash.Weighted>
0.9857

> <Gold.Chemscore.DEInternal.Weighted>
0.2235

> <Gold.Chemscore.Rot.Weighted>
3.3774

> <Gold.Chemscore.Internal.Correction.Weighted>
   9.000000E+99

> <Gold.Protein.RotatedTorsions>
[ 6907 6896 6895 6894 ] final   18.47 input  -60.11 | X-H torsion
[ 7974 7965 7964 7962 ] final -130.44 input  175.53 | X-H torsion
[ 8008 7997 7996 7995 ] final  -29.54 input   59.86 | X-H torsion
[ 10167 10162 10161 10158 ] final  -41.28 input  -65.29 | X-H torsion
[ 10718 10713 10712 10709 ] final  164.32 input   66.30 | X-H torsion
[ 10763 10752 10751 10750 ] final  -44.88 input  -60.55 | X-H torsion
[ 11005 11000 10999 10996 ] final  -20.71 input  -57.11 | X-H torsion

> <Gold.Protein.ActiveResidues>
 VAL166  LYS551  ARG553  GLY616  TRP617  ASP618  TYR619  PRO620  LYS621  CYS622 
 ASP623  PHE694  ASN695  SER759  ASP760  ASP761  ALA762  ILE779  LEU786  VAL792 
 PHE793  MET794  SER795  GLU796  ALA797  LYS798  CYS799  TRP800  GLU811  SER814 

> <Gold.Protein.RotatedAtoms>
  151.8657  135.0508  160.0473 H   0  0  0  0  0  0  0  0  0  0  0  0  # atno 6907 bound_to 6896
  152.2628  133.5308  159.5400 H   0  0  0  0  0  0  0  0  0  0  0  0  # atno 6908 bound_to 6896
  150.7122  134.0722  159.3911 H   0  0  0  0  0  0  0  0  0  0  0  0  # atno 6909 bound_to 6896
  144.9474  140.7307  143.4809 H   0  0  0  0  0  0  0  0  0  0  0  0  # atno 7974 bound_to 7965
  154.4286  140.1815  156.1265 H   0  0  0  0  0  0  0  0  0  0  0  0  # atno 8008 bound_to 7997
  156.0102  140.3351  155.6907 H   0  0  0  0  0  0  0  0  0  0  0  0  # atno 8009 bound_to 7997
  155.6122  140.0651  157.2693 H   0  0  0  0  0  0  0  0  0  0  0  0  # atno 8010 bound_to 7997
  140.7008  143.3104  151.3044 H   0  0  0  0  0  0  0  0  0  0  0  0  # atno 10167 bound_to 10162
  157.0960  131.0430  151.2518 H   0  0  0  0  0  0  0  0  0  0  0  0  # atno 10718 bound_to 10713
  154.0194  135.6671  153.4771 H   0  0  0  0  0  0  0  0  0  0  0  0  # atno 10763 bound_to 10752
  153.0587  135.5041  154.8037 H   0  0  0  0  0  0  0  0  0  0  0  0  # atno 10764 bound_to 10752
  154.6947  135.3067  154.9393 H   0  0  0  0  0  0  0  0  0  0  0  0  # atno 10765 bound_to 10752
  140.8491  133.7870  155.9946 H   0  0  0  0  0  0  0  0  0  0  0  0  # atno 11005 bound_to 11000
  145.2896  139.1888  143.4747 LP  0  0  0  0  0  0  0  0  0  0  0  0  # atno 17320 bound_to 7965
  146.3308  140.2871  142.8613 LP  0  0  0  0  0  0  0  0  0  0  0  0  # atno 17321 bound_to 7965
  139.6524  144.0337  152.2636 LP  0  0  0  0  0  0  0  0  0  0  0  0  # atno 17342 bound_to 10162
  139.9878  144.6383  150.7842 LP  0  0  0  0  0  0  0  0  0  0  0  0  # atno 17343 bound_to 10162
  157.4681  130.7693  149.7298 LP  0  0  0  0  0  0  0  0  0  0  0  0  # atno 17370 bound_to 10713
  155.9886  130.3958  150.3112 LP  0  0  0  0  0  0  0  0  0  0  0  0  # atno 17371 bound_to 10713
  140.8810  134.2611  157.5144 LP  0  0  0  0  0  0  0  0  0  0  0  0  # atno 17394 bound_to 11000
  139.8704  134.9615  156.4398 LP  0  0  0  0  0  0  0  0  0  0  0  0  # atno 17395 bound_to 11000

$$$$
