AV-unprocessed.smi:329|AV-procd|sdf|2348|dock5
  -GOLD-   2262022263D 1   1.00000     0.00000
 Structure written by MMmdl.
 18 18  0  0  0  0  0  0  0  0  1 V2000
  143.7183  133.4600  147.7929 N   0  0  0  0  0  0  0  0  0  0  0  0
  143.8264  132.6832  148.8732 C   0  0  0  0  0  0  0  0  0  0  0  0
  143.0385  131.7644  149.0945 O   0  0  0  0  0  0  0  0  0  0  0  0
  144.9842  133.0022  149.8285 C   0  0  0  0  0  0  0  0  0  0  0  0
  144.6640  134.0596  150.7742 N   0  0  0  0  0  0  0  0  0  0  0  0
  144.6751  135.4243  150.5699 C   0  0  0  0  0  0  0  0  0  0  0  0
  144.2982  136.0129  151.7429 C   0  0  0  0  0  0  0  0  0  0  0  0
  144.1684  137.3928  151.9878 N   0  0  0  0  0  0  0  0  0  0  0  0
  144.0775  134.9133  152.6189 C   0  0  0  0  0  0  0  0  0  0  0  0
  144.2989  133.7455  152.0370 N   0  0  0  0  0  0  0  0  0  0  0  0
  142.9752  133.2929  147.1300 H   0  0  0  0  0  0  0  0  0  0  0  0
  144.3781  134.2090  147.6404 H   0  0  0  0  0  0  0  0  0  0  0  0
  145.2645  132.1017  150.3775 H   0  0  0  0  0  0  0  0  0  0  0  0
  145.8558  133.3102  149.2495 H   0  0  0  0  0  0  0  0  0  0  0  0
  144.9427  135.8548  149.6161 H   0  0  0  0  0  0  0  0  0  0  0  0
  144.3556  138.0806  151.2724 H   0  0  0  0  0  0  0  0  0  0  0  0
  143.9463  137.7533  152.9047 H   0  0  0  0  0  0  0  0  0  0  0  0
  143.7658  134.9285  153.6529 H   0  0  0  0  0  0  0  0  0  0  0  0
  1  2  1  0  0  0  0
  1 11  1  0  0  0  0
  1 12  1  0  0  0  0
  2  3  2  0  0  0  0
  2  4  1  0  0  0  0
  4  5  1  0  0  0  0
  4 13  1  0  0  0  0
  4 14  1  0  0  0  0
  5 10  1  0  0  0  0
  5  6  1  0  0  0  0
  6  7  2  0  0  0  0
  6 15  1  0  0  0  0
  7  8  1  0  0  0  0
  7  9  1  0  0  0  0
  8 16  1  0  0  0  0
  8 17  1  0  0  0  0
  9 10  2  0  0  0  0
  9 18  1  0  0  0  0
M  END
> <s_m_source_file>
AV-unprocessed.smi

> <i_m_source_file_index>
329

> <i_lp_mmshare_version>
43012

> <i_f3d_flags>
0

> <s_epik_input>
W05IMl1DKD1PKVtDSDJdbjFbY0hdYyhbTkgyXSlbY0hdbjE=

> <s_epik_cmdline>
J2VwaWtfcHl0aG9uJywgJy1waCcsICc3LjAnLCAnLXRuJywgJzgnLCAnLW1hJywgJzIwMCcsICctbWV0YWxfYmluZGluZycsICctaW1hZScsICc8aW5maWxlLm1hZT4nLCAnLW9tYWUnLCAnPG91dGZpbGUubWFlPic=

> <r_lp_tautomer_probability>
1

> <r_epik_Ionization_Penalty>
9.33273e-05

> <r_epik_Ionization_Penalty_Charging>
0

> <r_epik_Ionization_Penalty_Neutral>
9.33273e-05

> <r_epik_State_Penalty>
-0

> <r_epik_Charging_Adjusted_Penalty>
0

> <i_epik_Tot_Q>
0

> <i_epik_Tot_abs_Q>
0

> <r_epik_Metal_State_Penalty>
-0

> <b_epik_Metal_Only>
0

> <s_lp_Force_Field>
OPLS_2005

> <r_lp_Energy>
3.96238

> <b_lp_Chiralities_Consistent>
1

> <s_lp_Variant>
AV-unprocessed.smi:329-1

> <Gold.Version>
5.8.1

> <Gold.Id.Protein>
6NUR|6NUR_protein|mol2

> <Gold.PLP.Fitness>
32.5656

> <Gold.PLP.PLP>
-19.2072

> <Gold.PLP.part.hbond>
-4.6224

> <Gold.PLP.part.metal>
0.0000

> <Gold.PLP.part.buried>
-3.9915

> <Gold.PLP.part.nonpolar>
-13.8735

> <Gold.PLP.part.repulsive>
3.8016

> <Gold.PLP.ligand.clash>
0.0000

> <Gold.PLP.ligand.torsion>
0.6234

> <Gold.PLP.Chemscore.Hbond>
3.8400

> <Gold.PLP.Chemscore.CHOScore>
1.0283

> <Gold.PLP.Chemscore.Metal>
0.0000

> <Gold.Chemscore.Hbonds>
donor molecule, donor type, donor heavy atom, donor atom, acceptor molecule, acceptor atom, score
      L1  H     1    11       P1 10195  1.00
      L1  H     1    12       P1  7921  0.99
      L1  H     8    16       P1 10171  0.86
      P1  H 10785 10796       L1     3  1.00
      L1  C     6    15       P1  7921  1.00
      L1  C     6    15       P1 10171  0.02

> <Gold.PLP.Chemscore.Internal.Correction>
0.0002

> <Gold.Rescore>
     Score         DG    S(hbond)    S(metal)    S(lipo)     H(rot)  DE(clash)    DE(int)     intcor
     14.66     -17.02       3.84        0.00      24.62       1.63       1.74       0.62       ----

> <Gold.Chemscore.Fitness>
14.6574

> <Gold.Chemscore.DG>
-17.0189

> <Gold.Chemscore.ZeroCoef>
-5.4800

> <Gold.Chemscore.Hbond>
3.8397

> <Gold.Chemscore.Metal>
0.0000

> <Gold.Chemscore.Lipo>
24.6185

> <Gold.Chemscore.Internal_Hbond>
0.0000

> <Gold.Chemscore.DEClash>
1.7371

> <Gold.Chemscore.DEInternal>
0.6245

> <Gold.Chemscore.Rot>
1.6274

> <Gold.Chemscore.Internal.Correction>
   9.000000E+99

> <Gold.Chemscore.Hbonds>
donor molecule, donor type, donor heavy atom, donor atom, acceptor molecule, acceptor atom, score
      L1  H     1    11       P1 10195  0.97
      L1  H     1    12       P1  7921  0.94
      L1  H     8    16       P1 10171  0.84
      P1  H 10785 10796       L1     3  0.99

> <Gold.Chemscore.Hbond.Weighted>
-12.8247

> <Gold.Chemscore.Metal.Weighted>
-0.0000

> <Gold.Chemscore.Lipo.Weighted>
-2.8804

> <Gold.Chemscore.Internal_Hbond.Weighted>
0.0000

> <Gold.Chemscore.DEClash.Weighted>
1.7371

> <Gold.Chemscore.DEInternal.Weighted>
0.6245

> <Gold.Chemscore.Rot.Weighted>
4.1662

> <Gold.Chemscore.Internal.Correction.Weighted>
   9.000000E+99

> <Gold.Protein.RotatedTorsions>
[ 6907 6896 6895 6894 ] final  137.56 input  -60.11 | X-H torsion
[ 7974 7965 7964 7962 ] final   48.82 input  175.53 | X-H torsion
[ 8008 7997 7996 7995 ] final  -34.64 input   59.86 | X-H torsion
[ 10167 10162 10161 10158 ] final  -29.79 input  -65.29 | X-H torsion
[ 10718 10713 10712 10709 ] final  -46.97 input   66.30 | X-H torsion
[ 10763 10752 10751 10750 ] final    5.89 input  -60.55 | X-H torsion
[ 11005 11000 10999 10996 ] final    0.28 input  -57.11 | X-H torsion

> <Gold.Protein.ActiveResidues>
 VAL166  LYS551  ARG553  GLY616  TRP617  ASP618  TYR619  PRO620  LYS621  CYS622 
 ASP623  PHE694  ASN695  SER759  ASP760  ASP761  ALA762  ILE779  LEU786  VAL792 
 PHE793  MET794  SER795  GLU796  ALA797  LYS798  CYS799  TRP800  GLU811  SER814 

> <Gold.Protein.RotatedAtoms>
  152.2766  133.5431  159.5471 H   0  0  0  0  0  0  0  0  0  0  0  0  # atno 6907 bound_to 6896
  150.7179  134.0623  159.3844 H   0  0  0  0  0  0  0  0  0  0  0  0  # atno 6908 bound_to 6896
  151.8535  135.0549  160.0512 H   0  0  0  0  0  0  0  0  0  0  0  0  # atno 6909 bound_to 6896
  146.0168  139.4605  142.9922 H   0  0  0  0  0  0  0  0  0  0  0  0  # atno 7974 bound_to 7965
  154.4115  140.1678  156.2083 H   0  0  0  0  0  0  0  0  0  0  0  0  # atno 8008 bound_to 7997
  155.9466  140.3404  155.6348 H   0  0  0  0  0  0  0  0  0  0  0  0  # atno 8009 bound_to 7997
  155.6923  140.0735  157.2434 H   0  0  0  0  0  0  0  0  0  0  0  0  # atno 8010 bound_to 7997
  140.7256  143.3900  151.1447 H   0  0  0  0  0  0  0  0  0  0  0  0  # atno 10167 bound_to 10162
  156.2130  130.4162  149.9090 H   0  0  0  0  0  0  0  0  0  0  0  0  # atno 10718 bound_to 10713
  153.2541  135.6916  153.7647 H   0  0  0  0  0  0  0  0  0  0  0  0  # atno 10763 bound_to 10752
  153.6731  135.3341  155.3159 H   0  0  0  0  0  0  0  0  0  0  0  0  # atno 10764 bound_to 10752
  154.8406  135.4504  154.1509 H   0  0  0  0  0  0  0  0  0  0  0  0  # atno 10765 bound_to 10752
  140.6283  133.9599  155.8260 H   0  0  0  0  0  0  0  0  0  0  0  0  # atno 11005 bound_to 11000
  145.7256  141.0060  143.1379 LP  0  0  0  0  0  0  0  0  0  0  0  0  # atno 17320 bound_to 7965
  144.6974  139.8923  143.7454 LP  0  0  0  0  0  0  0  0  0  0  0  0  # atno 17321 bound_to 7965
  139.7503  143.8788  152.3075 LP  0  0  0  0  0  0  0  0  0  0  0  0  # atno 17342 bound_to 10162
  139.8640  144.7103  150.9066 LP  0  0  0  0  0  0  0  0  0  0  0  0  # atno 17343 bound_to 10162
  156.6762  130.8840  151.3569 LP  0  0  0  0  0  0  0  0  0  0  0  0  # atno 17370 bound_to 10713
  157.7048  130.9373  150.0898 LP  0  0  0  0  0  0  0  0  0  0  0  0  # atno 17371 bound_to 10713
  141.0694  134.0228  157.3548 LP  0  0  0  0  0  0  0  0  0  0  0  0  # atno 17394 bound_to 11000
  139.9126  135.0192  156.7754 LP  0  0  0  0  0  0  0  0  0  0  0  0  # atno 17395 bound_to 11000

$$$$
