AV-unprocessed.smi:342|AV-procd|sdf|2384|dock5
  -GOLD-   2262022313D 1   1.00000     0.00000
 Structure written by MMmdl.
 41 43  0  0  0  0  0  0  0  0  1 V2000
  152.1393  136.9834  159.7084 O   0  0  0  0  0  0  0  0  0  0  0  0
  152.2030  138.1100  158.8593 C   0  0  2  0  0  0  0  0  0  0  0  0
  151.9707  137.6411  157.4062 C   0  0  0  0  0  0  0  0  0  0  0  0
  151.1021  138.4994  156.5999 N   0  0  0  0  0  0  0  0  0  0  0  0
  151.5613  139.8876  156.5598 C   0  0  0  0  0  0  0  0  0  0  0  0
  150.6586  140.7664  155.6762 C   0  0  0  0  0  0  0  0  0  0  0  0
  150.5876  140.2167  154.3650 O   0  0  0  0  0  0  0  0  0  0  0  0
  150.0990  138.8798  154.3574 C   0  0  0  0  0  0  0  0  0  0  0  0
  151.0052  137.9977  155.2329 C   0  0  0  0  0  0  0  0  0  0  0  0
  153.5722  138.7860  159.0786 C   0  0  0  0  0  0  0  0  0  0  0  0
  153.5578  139.7523  160.1704 N   0  0  0  0  0  0  0  0  0  0  0  0
  153.9739  139.5901  161.4547 C   0  0  0  0  0  0  0  0  0  0  0  0
  154.5351  138.2915  161.9656 C   0  0  0  0  0  0  0  0  0  0  0  0
  154.8519  138.3847  163.2580 F   0  0  0  0  0  0  0  0  0  0  0  0
  153.6414  137.3109  161.8358 F   0  0  0  0  0  0  0  0  0  0  0  0
  155.6414  137.9571  161.3020 F   0  0  0  0  0  0  0  0  0  0  0  0
  153.8415  140.6615  162.2404 N   0  0  0  0  0  0  0  0  0  0  0  0
  153.2801  141.5971  161.3958 C   0  0  0  0  0  0  0  0  0  0  0  0
  152.8971  142.9363  161.6350 C   0  0  0  0  0  0  0  0  0  0  0  0
  152.3284  143.7111  160.6032 C   0  0  0  0  0  0  0  0  0  0  0  0
  152.1311  143.1576  159.3217 C   0  0  0  0  0  0  0  0  0  0  0  0
  152.5057  141.8252  159.0630 C   0  0  0  0  0  0  0  0  0  0  0  0
  153.0799  141.0575  160.0945 C   0  0  0  0  0  0  0  0  0  0  0  0
  152.8325  137.0541  160.3473 H   0  0  0  0  0  0  0  0  0  0  0  0
  151.4246  138.8038  159.1700 H   0  0  0  0  0  0  0  0  0  0  0  0
  152.9278  137.5411  156.8931 H   0  0  0  0  0  0  0  0  0  0  0  0
  151.5515  136.6345  157.4426 H   0  0  0  0  0  0  0  0  0  0  0  0
  151.5813  140.3150  157.5610 H   0  0  0  0  0  0  0  0  0  0  0  0
  152.5844  139.9289  156.1824 H   0  0  0  0  0  0  0  0  0  0  0  0
  149.6566  140.8402  156.1017 H   0  0  0  0  0  0  0  0  0  0  0  0
  151.0567  141.7794  155.6166 H   0  0  0  0  0  0  0  0  0  0  0  0
  149.0702  138.8576  154.7199 H   0  0  0  0  0  0  0  0  0  0  0  0
  150.0860  138.5104  153.3320 H   0  0  0  0  0  0  0  0  0  0  0  0
  151.9991  137.9482  154.7850 H   0  0  0  0  0  0  0  0  0  0  0  0
  150.6154  136.9792  155.2391 H   0  0  0  0  0  0  0  0  0  0  0  0
  154.3267  138.0326  159.3094 H   0  0  0  0  0  0  0  0  0  0  0  0
  153.9011  139.2704  158.1605 H   0  0  0  0  0  0  0  0  0  0  0  0
  153.0402  143.3677  162.6147 H   0  0  0  0  0  0  0  0  0  0  0  0
  152.0397  144.7339  160.7966 H   0  0  0  0  0  0  0  0  0  0  0  0
  151.6915  143.7565  158.5375 H   0  0  0  0  0  0  0  0  0  0  0  0
  152.3517  141.4002  158.0825 H   0  0  0  0  0  0  0  0  0  0  0  0
  1  2  1  0  0  0  0
  1 24  1  0  0  0  0
  2  3  1  0  0  0  0
  2 10  1  0  0  0  0
  2 25  1  0  0  0  0
  3  4  1  0  0  0  0
  3 26  1  0  0  0  0
  3 27  1  0  0  0  0
  4  9  1  0  0  0  0
  4  5  1  0  0  0  0
  5  6  1  0  0  0  0
  5 28  1  0  0  0  0
  5 29  1  0  0  0  0
  6  7  1  0  0  0  0
  6 30  1  0  0  0  0
  6 31  1  0  0  0  0
  7  8  1  0  0  0  0
  8  9  1  0  0  0  0
  8 32  1  0  0  0  0
  8 33  1  0  0  0  0
  9 34  1  0  0  0  0
  9 35  1  0  0  0  0
 10 11  1  0  0  0  0
 10 36  1  0  0  0  0
 10 37  1  0  0  0  0
 11 23  1  0  0  0  0
 11 12  1  0  0  0  0
 12 13  1  0  0  0  0
 12 17  2  0  0  0  0
 13 14  1  0  0  0  0
 13 15  1  0  0  0  0
 13 16  1  0  0  0  0
 17 18  1  0  0  0  0
 18 23  2  0  0  0  0
 18 19  1  0  0  0  0
 19 20  2  0  0  0  0
 19 38  1  0  0  0  0
 20 21  1  0  0  0  0
 20 39  1  0  0  0  0
 21 22  2  0  0  0  0
 21 40  1  0  0  0  0
 22 23  1  0  0  0  0
 22 41  1  0  0  0  0
M  END
> <s_m_source_file>
AV-unprocessed.smi

> <i_m_source_file_index>
342

> <i_lp_mmshare_version>
43012

> <i_f3d_flags>
0

> <s_epik_input>
W2NIXTFbY0hdW2NIXVtjSF1jKGMxMiluKGMobjIpQyhGKShGKUYpW0NIMl1bQ0BIXShbT0hdKVtDSDJdTjNbQ0gyXVtDSDJdT1tDSDJdW0NIMl0z

> <s_epik_cmdline>
J2VwaWtfcHl0aG9uJywgJy1waCcsICc3LjAnLCAnLXRuJywgJzgnLCAnLW1hJywgJzIwMCcsICctbWV0YWxfYmluZGluZycsICctaW1hZScsICc8aW5maWxlLm1hZT4nLCAnLW9tYWUnLCAnPG91dGZpbGUubWFlPic=

> <r_epik_Ionization_Penalty>
0.263195

> <r_epik_Ionization_Penalty_Charging>
0

> <r_epik_Ionization_Penalty_Neutral>
0.263195

> <r_epik_State_Penalty>
0.254683

> <r_epik_Charging_Adjusted_Penalty>
0.254683

> <i_epik_Tot_Q>
0

> <i_epik_Tot_abs_Q>
0

> <r_epik_Metal_State_Penalty>
0.254691

> <b_epik_Metal_Only>
0

> <s_lp_Force_Field>
OPLS_2005

> <r_lp_Energy>
34.5918

> <b_lp_Chiralities_Consistent>
1

> <s_lp_Variant>
AV-unprocessed.smi:342-1

> <Gold.Version>
5.8.1

> <Gold.Id.Protein>
6NUR|6NUR_protein|mol2

> <Gold.PLP.Fitness>
47.0801

> <Gold.PLP.PLP>
-43.4529

> <Gold.PLP.part.hbond>
-1.9259

> <Gold.PLP.part.metal>
0.0000

> <Gold.PLP.part.buried>
-5.7847

> <Gold.PLP.part.nonpolar>
-36.4676

> <Gold.PLP.part.repulsive>
0.1189

> <Gold.PLP.ligand.clash>
0.0000

> <Gold.PLP.ligand.torsion>
1.2257

> <Gold.PLP.Chemscore.Hbond>
2.0000

> <Gold.PLP.Chemscore.CHOScore>
0.0000

> <Gold.PLP.Chemscore.Metal>
0.0000

> <Gold.Chemscore.Hbonds>
donor molecule, donor type, donor heavy atom, donor atom, acceptor molecule, acceptor atom, score
      P1  H  6896  6908       L1     1  0.75
      P1  H  7989  7998       L1     7  0.93

> <Gold.PLP.Chemscore.Internal.Correction>
0.0786

> <Gold.Rescore>
     Score         DG    S(hbond)    S(metal)    S(lipo)     H(rot)  DE(clash)    DE(int)     intcor
     16.08     -18.84       1.94        0.00     107.96       2.24       0.00       2.76       ----

> <Gold.Chemscore.Fitness>
16.0821

> <Gold.Chemscore.DG>
-18.8434

> <Gold.Chemscore.ZeroCoef>
-5.4800

> <Gold.Chemscore.Hbond>
1.9376

> <Gold.Chemscore.Metal>
0.0000

> <Gold.Chemscore.Lipo>
107.9628

> <Gold.Chemscore.Internal_Hbond>
0.0000

> <Gold.Chemscore.DEClash>
0.0000

> <Gold.Chemscore.DEInternal>
2.7614

> <Gold.Chemscore.Rot>
2.2421

> <Gold.Chemscore.Internal.Correction>
   9.000000E+99

> <Gold.Chemscore.Hbonds>
donor molecule, donor type, donor heavy atom, donor atom, acceptor molecule, acceptor atom, score
      P1  H  6896  6908       L1     1  0.09
      P1  H  7989  7998       L1     7  0.65

> <Gold.Chemscore.Hbond.Weighted>
-6.4717

> <Gold.Chemscore.Metal.Weighted>
-0.0000

> <Gold.Chemscore.Lipo.Weighted>
-12.6316

> <Gold.Chemscore.Internal_Hbond.Weighted>
0.0000

> <Gold.Chemscore.DEClash.Weighted>
0.0000

> <Gold.Chemscore.DEInternal.Weighted>
2.7614

> <Gold.Chemscore.Rot.Weighted>
5.7399

> <Gold.Chemscore.Internal.Correction.Weighted>
   9.000000E+99

> <Gold.Protein.RotatedTorsions>
[ 6907 6896 6895 6894 ] final -107.22 input  -60.11 | X-H torsion
[ 7974 7965 7964 7962 ] final -110.39 input  175.53 | X-H torsion
[ 8008 7997 7996 7995 ] final  141.95 input   59.86 | X-H torsion
[ 10167 10162 10161 10158 ] final -175.96 input  -65.29 | X-H torsion
[ 10718 10713 10712 10709 ] final   35.32 input   66.30 | X-H torsion
[ 10763 10752 10751 10750 ] final -169.52 input  -60.55 | X-H torsion
[ 11005 11000 10999 10996 ] final  176.64 input  -57.11 | X-H torsion

> <Gold.Protein.ActiveResidues>
 VAL166  LYS551  ARG553  GLY616  TRP617  ASP618  TYR619  PRO620  LYS621  CYS622 
 ASP623  PHE694  ASN695  SER759  ASP760  ASP761  ALA762  ILE779  LEU786  VAL792 
 PHE793  MET794  SER795  GLU796  ALA797  LYS798  CYS799  TRP800  GLU811  SER814 

> <Gold.Protein.RotatedAtoms>
  150.7432  133.9859  159.3591 H   0  0  0  0  0  0  0  0  0  0  0  0  # atno 6907 bound_to 6896
  151.7803  135.0761  160.0382 H   0  0  0  0  0  0  0  0  0  0  0  0  # atno 6908 bound_to 6896
  152.3278  133.5888  159.5825 H   0  0  0  0  0  0  0  0  0  0  0  0  # atno 6909 bound_to 6896
  145.1688  140.8915  143.3547 H   0  0  0  0  0  0  0  0  0  0  0  0  # atno 7974 bound_to 7965
  156.2957  140.2301  156.4648 H   0  0  0  0  0  0  0  0  0  0  0  0  # atno 8008 bound_to 7997
  154.7987  140.0450  157.1277 H   0  0  0  0  0  0  0  0  0  0  0  0  # atno 8009 bound_to 7997
  154.9560  140.3048  155.5056 H   0  0  0  0  0  0  0  0  0  0  0  0  # atno 8010 bound_to 7997
  139.5554  144.2002  152.1150 H   0  0  0  0  0  0  0  0  0  0  0  0  # atno 10167 bound_to 10162
  157.3212  130.7449  149.6786 H   0  0  0  0  0  0  0  0  0  0  0  0  # atno 10718 bound_to 10713
  154.6514  135.2912  154.9982 H   0  0  0  0  0  0  0  0  0  0  0  0  # atno 10763 bound_to 10752
  154.1073  135.6568  153.4882 H   0  0  0  0  0  0  0  0  0  0  0  0  # atno 10764 bound_to 10752
  153.0379  135.5257  154.7424 H   0  0  0  0  0  0  0  0  0  0  0  0  # atno 10765 bound_to 10752
  140.3754  134.6993  157.4418 H   0  0  0  0  0  0  0  0  0  0  0  0  # atno 11005 bound_to 11000
  145.0254  139.3387  143.6051 LP  0  0  0  0  0  0  0  0  0  0  0  0  # atno 17320 bound_to 7965
  146.3472  139.9571  142.8722 LP  0  0  0  0  0  0  0  0  0  0  0  0  # atno 17321 bound_to 7965
  140.1505  144.5119  150.6690 LP  0  0  0  0  0  0  0  0  0  0  0  0  # atno 17342 bound_to 10162
  140.6826  143.2334  151.5345 LP  0  0  0  0  0  0  0  0  0  0  0  0  # atno 17343 bound_to 10162
  155.9686  130.4222  150.4508 LP  0  0  0  0  0  0  0  0  0  0  0  0  # atno 17370 bound_to 10713
  157.2523  131.0549  151.2371 LP  0  0  0  0  0  0  0  0  0  0  0  0  # atno 17371 bound_to 10713
  140.0519  134.6118  155.8851 LP  0  0  0  0  0  0  0  0  0  0  0  0  # atno 17394 bound_to 11000
  141.1941  133.6581  156.5579 LP  0  0  0  0  0  0  0  0  0  0  0  0  # atno 17395 bound_to 11000

$$$$
