AV-unprocessed.smi:3122|AV-procd|sdf|11898|dock3
  -GOLD-   2272017283D 1   1.00000     0.00000
 Structure written by MMmdl.
 29 30  0  0  0  0  0  0  0  0  1 V2000
  152.1909  143.5334  161.2486 C   0  0  0  0  0  0  0  0  0  0  0  0
  151.9521  144.0230  159.8125 C   0  0  0  0  0  0  0  0  0  0  0  0
  151.2999  145.4121  159.7724 C   0  0  0  0  0  0  0  0  0  0  0  0
  151.1784  143.0314  159.0017 C   0  0  0  0  0  0  0  0  0  0  0  0
  149.8802  142.7318  159.1039 N   0  0  0  0  0  0  0  0  0  0  0  0
  149.6148  141.8518  158.0791 N   0  0  0  0  0  0  0  0  0  0  0  0
  150.7688  141.6968  157.4236 C   0  0  0  0  0  0  0  0  0  0  0  0
  151.0201  140.8985  156.1851 C   0  0  2  0  0  0  0  0  0  0  0  0
  149.7855  140.8417  155.2651 C   0  0  0  0  0  0  0  0  0  0  0  0
  150.0524  139.9832  154.1119 N   0  0  0  0  0  0  0  0  0  0  0  0
  150.4892  138.6525  154.5329 C   0  0  0  0  0  0  0  0  0  0  0  0
  151.6999  138.7589  155.4777 C   0  0  0  0  0  0  0  0  0  0  0  0
  151.3650  139.5772  156.5933 O   0  0  0  0  0  0  0  0  0  0  0  0
  151.7802  142.4462  157.9336 O   0  0  0  0  0  0  0  0  0  0  0  0
  152.7046  142.5715  161.2540 H   0  0  0  0  0  0  0  0  0  0  0  0
  151.2520  143.4132  161.7904 H   0  0  0  0  0  0  0  0  0  0  0  0
  152.8075  144.2388  161.8064 H   0  0  0  0  0  0  0  0  0  0  0  0
  152.9326  144.1155  159.3439 H   0  0  0  0  0  0  0  0  0  0  0  0
  151.2064  145.7709  158.7468 H   0  0  0  0  0  0  0  0  0  0  0  0
  151.8931  146.1415  160.3244 H   0  0  0  0  0  0  0  0  0  0  0  0
  150.3014  145.3934  160.2108 H   0  0  0  0  0  0  0  0  0  0  0  0
  151.8635  141.3485  155.6582 H   0  0  0  0  0  0  0  0  0  0  0  0
  148.9293  140.4573  155.8211 H   0  0  0  0  0  0  0  0  0  0  0  0
  149.5187  141.8447  154.9312 H   0  0  0  0  0  0  0  0  0  0  0  0
  149.2132  139.9025  153.5465 H   0  0  0  0  0  0  0  0  0  0  0  0
  149.6732  138.1375  155.0411 H   0  0  0  0  0  0  0  0  0  0  0  0
  150.7457  138.0496  153.6617 H   0  0  0  0  0  0  0  0  0  0  0  0
  151.9811  137.7698  155.8391 H   0  0  0  0  0  0  0  0  0  0  0  0
  152.5683  139.1663  154.9573 H   0  0  0  0  0  0  0  0  0  0  0  0
  1  2  1  0  0  0  0
  1 15  1  0  0  0  0
  1 16  1  0  0  0  0
  1 17  1  0  0  0  0
  2  3  1  0  0  0  0
  2  4  1  0  0  0  0
  2 18  1  0  0  0  0
  3 19  1  0  0  0  0
  3 20  1  0  0  0  0
  3 21  1  0  0  0  0
  4 14  1  0  0  0  0
  4  5  2  0  0  0  0
  5  6  1  0  0  0  0
  6  7  2  0  0  0  0
  7  8  1  0  0  0  0
  7 14  1  0  0  0  0
  8 13  1  0  0  0  0
  8  9  1  0  0  0  0
  8 22  1  0  0  0  0
  9 10  1  0  0  0  0
  9 23  1  0  0  0  0
  9 24  1  0  0  0  0
 10 11  1  0  0  0  0
 10 25  1  0  0  0  0
 11 12  1  0  0  0  0
 11 26  1  0  0  0  0
 11 27  1  0  0  0  0
 12 13  1  0  0  0  0
 12 28  1  0  0  0  0
 12 29  1  0  0  0  0
M  END
> <s_m_source_file>
AV-unprocessed.smi

> <i_m_source_file_index>
3122

> <i_lp_mmshare_version>
43012

> <i_f3d_flags>
0

> <s_epik_input>
W0NIM11bQ0hdKFtDSDNdKWMxbm5jKG8xKVtDQEBIXTJbQ0gyXVtOSF1bQ0gyXVtDSDJdTzI=

> <s_epik_cmdline>
J2VwaWtfcHl0aG9uJywgJy1waCcsICc3LjAnLCAnLXRuJywgJzgnLCAnLW1hJywgJzIwMCcsICctbWV0YWxfYmluZGluZycsICctaW1hZScsICc8aW5maWxlLm1hZT4nLCAnLW9tYWUnLCAnPG91dGZpbGUubWFlPic=

> <r_lp_tautomer_probability>
1

> <r_epik_Ionization_Penalty>
1.64488

> <r_epik_Ionization_Penalty_Charging>
0

> <r_epik_Ionization_Penalty_Neutral>
1.64488

> <r_epik_State_Penalty>
1.74649

> <r_epik_Charging_Adjusted_Penalty>
1.74649

> <i_epik_Tot_Q>
0

> <i_epik_Tot_abs_Q>
0

> <r_epik_Metal_State_Penalty>
1.74649

> <b_epik_Metal_Only>
0

> <s_lp_Force_Field>
OPLS_2005

> <r_lp_Energy>
11.6401

> <b_lp_Chiralities_Consistent>
1

> <s_lp_Variant>
AV-unprocessed.smi:3122-3

> <Gold.Version>
5.8.1

> <Gold.Id.Protein>
6NUR|6NUR_protein|mol2

> <Gold.PLP.Fitness>
33.3602

> <Gold.PLP.PLP>
-31.8674

> <Gold.PLP.part.hbond>
-2.9904

> <Gold.PLP.part.metal>
0.0000

> <Gold.PLP.part.buried>
-4.2731

> <Gold.PLP.part.nonpolar>
-25.5004

> <Gold.PLP.part.repulsive>
0.2264

> <Gold.PLP.ligand.clash>
0.0000

> <Gold.PLP.ligand.torsion>
0.8179

> <Gold.PLP.Chemscore.Hbond>
0.9992

> <Gold.PLP.Chemscore.CHOScore>
0.0000

> <Gold.PLP.Chemscore.Metal>
0.0000

> <Gold.Chemscore.Hbonds>
donor molecule, donor type, donor heavy atom, donor atom, acceptor molecule, acceptor atom, score
      P1  H  7989  7998       L1    10  0.88

> <Gold.PLP.Chemscore.Internal.Correction>
0.1309

> <Gold.Rescore>
     Score         DG    S(hbond)    S(metal)    S(lipo)     H(rot)  DE(clash)    DE(int)     intcor
     10.29     -11.08       0.33        0.00      65.79       1.24       0.06       0.74       ----

> <Gold.Chemscore.Fitness>
10.2865

> <Gold.Chemscore.DG>
-11.0845

> <Gold.Chemscore.ZeroCoef>
-5.4800

> <Gold.Chemscore.Hbond>
0.3253

> <Gold.Chemscore.Metal>
0.0000

> <Gold.Chemscore.Lipo>
65.7948

> <Gold.Chemscore.Internal_Hbond>
0.0000

> <Gold.Chemscore.DEClash>
0.0604

> <Gold.Chemscore.DEInternal>
0.7377

> <Gold.Chemscore.Rot>
1.2422

> <Gold.Chemscore.Internal.Correction>
   9.000000E+99

> <Gold.Chemscore.Hbonds>
donor molecule, donor type, donor heavy atom, donor atom, acceptor molecule, acceptor atom, score
      L1  H    10    25       P1  7957  0.02
      P1  H  7989  7998       L1    10  0.09

> <Gold.Chemscore.Hbond.Weighted>
-1.0865

> <Gold.Chemscore.Metal.Weighted>
-0.0000

> <Gold.Chemscore.Lipo.Weighted>
-7.6980

> <Gold.Chemscore.Internal_Hbond.Weighted>
0.0000

> <Gold.Chemscore.DEClash.Weighted>
0.0604

> <Gold.Chemscore.DEInternal.Weighted>
0.7377

> <Gold.Chemscore.Rot.Weighted>
3.1799

> <Gold.Chemscore.Internal.Correction.Weighted>
   9.000000E+99

> <Gold.Protein.RotatedTorsions>
[ 6907 6896 6895 6894 ] final -171.23 input  -60.11 | X-H torsion
[ 7974 7965 7964 7962 ] final  -31.23 input  175.53 | X-H torsion
[ 8008 7997 7996 7995 ] final   40.95 input   59.86 | X-H torsion
[ 10167 10162 10161 10158 ] final   90.43 input  -65.29 | X-H torsion
[ 10718 10713 10712 10709 ] final -177.14 input   66.30 | X-H torsion
[ 10763 10752 10751 10750 ] final  116.84 input  -60.55 | X-H torsion
[ 11005 11000 10999 10996 ] final -153.00 input  -57.11 | X-H torsion

> <Gold.Protein.ActiveResidues>
 VAL166  LYS551  ARG553  GLY616  TRP617  ASP618  TYR619  PRO620  LYS621  CYS622 
 ASP623  PHE694  ASN695  SER759  ASP760  ASP761  ALA762  ILE779  LEU786  VAL792 
 PHE793  MET794  SER795  GLU796  ALA797  LYS798  CYS799  TRP800  GLU811  SER814 

> <Gold.Protein.RotatedAtoms>
  151.5205  133.3467  159.2900 H   0  0  0  0  0  0  0  0  0  0  0  0  # atno 6907 bound_to 6896
  150.8655  134.8020  159.7126 H   0  0  0  0  0  0  0  0  0  0  0  0  # atno 6908 bound_to 6896
  152.4661  134.5081  159.9797 H   0  0  0  0  0  0  0  0  0  0  0  0  # atno 6909 bound_to 6896
  146.1083  140.5641  142.8789 H   0  0  0  0  0  0  0  0  0  0  0  0  # atno 7974 bound_to 7965
  155.2616  140.3359  155.4272 H   0  0  0  0  0  0  0  0  0  0  0  0  # atno 8008 bound_to 7997
  156.2172  140.1794  156.7604 H   0  0  0  0  0  0  0  0  0  0  0  0  # atno 8009 bound_to 7997
  154.5771  140.0660  156.9034 H   0  0  0  0  0  0  0  0  0  0  0  0  # atno 8010 bound_to 7997
  139.8474  144.6611  150.9211 H   0  0  0  0  0  0  0  0  0  0  0  0  # atno 10167 bound_to 10162
  156.8251  130.9633  151.3109 H   0  0  0  0  0  0  0  0  0  0  0  0  # atno 10718 bound_to 10713
  153.5433  135.3554  155.2728 H   0  0  0  0  0  0  0  0  0  0  0  0  # atno 10763 bound_to 10752
  154.8715  135.4096  154.3019 H   0  0  0  0  0  0  0  0  0  0  0  0  # atno 10764 bound_to 10752
  153.3730  135.7065  153.6691 H   0  0  0  0  0  0  0  0  0  0  0  0  # atno 10765 bound_to 10752
  140.7128  134.3813  157.5195 H   0  0  0  0  0  0  0  0  0  0  0  0  # atno 11005 bound_to 11000
  144.7490  140.5142  143.6815 LP  0  0  0  0  0  0  0  0  0  0  0  0  # atno 17320 bound_to 7965
  145.5715  139.1484  143.3285 LP  0  0  0  0  0  0  0  0  0  0  0  0  # atno 17321 bound_to 7965
  140.7791  143.3858  151.1396 LP  0  0  0  0  0  0  0  0  0  0  0  0  # atno 17342 bound_to 10162
  139.7499  143.8794  152.3074 LP  0  0  0  0  0  0  0  0  0  0  0  0  # atno 17343 bound_to 10162
  157.6436  130.8826  149.9496 LP  0  0  0  0  0  0  0  0  0  0  0  0  # atno 17370 bound_to 10713
  156.0966  130.3659  150.0295 LP  0  0  0  0  0  0  0  0  0  0  0  0  # atno 17371 bound_to 10713
  139.8867  134.8902  156.2569 LP  0  0  0  0  0  0  0  0  0  0  0  0  # atno 17394 bound_to 11000
  141.0070  133.7118  156.1050 LP  0  0  0  0  0  0  0  0  0  0  0  0  # atno 17395 bound_to 11000

$$$$
