AV-unprocessed.smi:2453|AV-procd|sdf|9691|dock1
  -GOLD-   2272013333D 1   1.00000     0.00000
 Structure written by MMmdl.
 41 42  0  0  0  0  0  0  0  0  2 V2000
  147.2252  139.5282  152.8961 C   0  0  0  0  0  0  0  0  0  0  0  0
  148.1860  140.0740  153.9383 C   0  0  0  0  0  0  0  0  0  0  0  0
  148.1971  141.4584  154.2164 C   0  0  0  0  0  0  0  0  0  0  0  0
  149.0422  141.9574  155.1428 N   0  3  0  0  0  0  0  0  0  0  0  0
  149.8991  141.1837  155.8408 C   0  0  0  0  0  0  0  0  0  0  0  0
  149.9381  139.7942  155.6106 C   0  0  0  0  0  0  0  0  0  0  0  0
  149.0800  139.2217  154.6366 C   0  0  0  0  0  0  0  0  0  0  0  0
  149.0429  137.8244  154.3654 N   0  0  0  0  0  0  0  0  0  0  0  0
  149.1480  136.7993  155.2286 C   0  0  0  0  0  0  0  0  0  0  0  0
  149.3540  136.9089  156.4369 O   0  0  0  0  0  0  0  0  0  0  0  0
  149.0134  135.6227  154.5988 N   0  0  0  0  0  0  0  0  0  0  0  0
  149.0626  134.3019  155.2258 C   0  0  2  0  0  0  0  0  0  0  0  0
  150.2638  134.2612  156.1919 C   0  0  0  0  0  0  0  0  0  0  0  0
  150.4289  132.8796  156.8387 C   0  0  0  0  0  0  0  0  0  0  0  0
  150.5555  131.7895  155.7677 C   0  0  0  0  0  0  0  0  0  0  0  0
  149.3484  131.8089  154.8191 C   0  0  0  0  0  0  0  0  0  0  0  0
  149.1527  133.1882  154.1486 C   0  0  1  0  0  0  0  0  0  0  0  0
  147.9195  133.1781  153.2173 C   0  0  0  0  0  0  0  0  0  0  0  0
  147.5438  134.4927  152.8633 O   0  0  0  0  0  0  0  0  0  0  0  0
  146.6247  140.3241  152.4546 H   0  0  0  0  0  0  0  0  0  0  0  0
  146.5458  138.8039  153.3462 H   0  0  0  0  0  0  0  0  0  0  0  0
  147.7741  139.0357  152.0929 H   0  0  0  0  0  0  0  0  0  0  0  0
  147.5564  142.1800  153.7302 H   0  0  0  0  0  0  0  0  0  0  0  0
  150.5190  141.6938  156.5636 H   0  0  0  0  0  0  0  0  0  0  0  0
  150.6159  139.1925  156.1965 H   0  0  0  0  0  0  0  0  0  0  0  0
  148.9754  137.5753  153.3895 H   0  0  0  0  0  0  0  0  0  0  0  0
  148.8547  135.6366  153.6019 H   0  0  0  0  0  0  0  0  0  0  0  0
  148.1579  134.1271  155.8109 H   0  0  0  0  0  0  0  0  0  0  0  0
  151.1788  134.5177  155.6556 H   0  0  0  0  0  0  0  0  0  0  0  0
  150.1420  135.0151  156.9707 H   0  0  0  0  0  0  0  0  0  0  0  0
  151.3079  132.8725  157.4838 H   0  0  0  0  0  0  0  0  0  0  0  0
  149.5717  132.6689  157.4794 H   0  0  0  0  0  0  0  0  0  0  0  0
  151.4733  131.9382  155.1972 H   0  0  0  0  0  0  0  0  0  0  0  0
  150.6402  130.8110  156.2411 H   0  0  0  0  0  0  0  0  0  0  0  0
  149.4809  131.0360  154.0615 H   0  0  0  0  0  0  0  0  0  0  0  0
  148.4490  131.5408  155.3750 H   0  0  0  0  0  0  0  0  0  0  0  0
  150.0336  133.3907  153.5362 H   0  0  0  0  0  0  0  0  0  0  0  0
  148.1231  132.6045  152.3126 H   0  0  0  0  0  0  0  0  0  0  0  0
  147.0601  132.7149  153.7013 H   0  0  0  0  0  0  0  0  0  0  0  0
  148.3275  135.0034  152.7283 H   0  0  0  0  0  0  0  0  0  0  0  0
  149.0288  142.9608  155.3275 H   0  0  0  0  0  0  0  0  0  0  0  0
  1  2  1  0  0  0  0
  1 20  1  0  0  0  0
  1 21  1  0  0  0  0
  1 22  1  0  0  0  0
  2  7  1  0  0  0  0
  2  3  2  0  0  0  0
  3  4  1  0  0  0  0
  3 23  1  0  0  0  0
  4  5  2  0  0  0  0
  4 41  1  0  0  0  0
  5  6  1  0  0  0  0
  5 24  1  0  0  0  0
  6  7  2  0  0  0  0
  6 25  1  0  0  0  0
  7  8  1  0  0  0  0
  8  9  1  0  0  0  0
  8 26  1  0  0  0  0
  9 10  2  0  0  0  0
  9 11  1  0  0  0  0
 11 12  1  0  0  0  0
 11 27  1  0  0  0  0
 12 17  1  0  0  0  0
 12 13  1  0  0  0  0
 12 28  1  0  0  0  0
 13 14  1  0  0  0  0
 13 29  1  0  0  0  0
 13 30  1  0  0  0  0
 14 15  1  0  0  0  0
 14 31  1  0  0  0  0
 14 32  1  0  0  0  0
 15 16  1  0  0  0  0
 15 33  1  0  0  0  0
 15 34  1  0  0  0  0
 16 17  1  0  0  0  0
 16 35  1  0  0  0  0
 16 36  1  0  0  0  0
 17 18  1  0  0  0  0
 17 37  1  0  0  0  0
 18 19  1  0  0  0  0
 18 38  1  0  0  0  0
 18 39  1  0  0  0  0
 19 40  1  0  0  0  0
M  CHG  1   4   1
M  END
> <s_m_source_file>
AV-unprocessed.smi

> <i_m_source_file_index>
2453

> <i_lp_mmshare_version>
43012

> <i_f3d_flags>
0

> <s_epik_input>
W0NIM11jMVtjSF1uW2NIXVtjSF1jMVtOSF1DKD1PKVtOSF1bQ0BASF0yW0NIMl1bQ0gyXVtDSDJdW0NIMl1bQ0BIXTJbQ0gyXVtPSF0=

> <s_epik_cmdline>
J2VwaWtfcHl0aG9uJywgJy1waCcsICc3LjAnLCAnLXRuJywgJzgnLCAnLW1hJywgJzIwMCcsICctbWV0YWxfYmluZGluZycsICctaW1hZScsICc8aW5maWxlLm1hZT4nLCAnLW9tYWUnLCAnPG91dGZpbGUubWFlPic=

> <r_epik_Ionization_Penalty>
0.71493

> <r_epik_Ionization_Penalty_Charging>
0.714909

> <r_epik_Ionization_Penalty_Neutral>
2.10174e-05

> <r_epik_State_Penalty>
0.738815

> <r_epik_Charging_Adjusted_Penalty>
1.45372

> <i_epik_Tot_Q>
1

> <i_epik_Tot_abs_Q>
1

> <r_epik_Metal_State_Penalty>
0.896004

> <b_epik_Metal_Only>
0

> <s_lp_Force_Field>
OPLS_2005

> <r_lp_Energy>
24.2673

> <b_lp_Chiralities_Consistent>
1

> <s_lp_Variant>
AV-unprocessed.smi:2453-5

> <Gold.Version>
5.8.1

> <Gold.Id.Protein>
6NUR|6NUR_protein|mol2

> <Gold.PLP.Fitness>
48.5848

> <Gold.PLP.PLP>
-34.7172

> <Gold.PLP.part.hbond>
-4.0000

> <Gold.PLP.part.metal>
0.0000

> <Gold.PLP.part.buried>
-3.2311

> <Gold.PLP.part.nonpolar>
-27.6809

> <Gold.PLP.part.repulsive>
0.2554

> <Gold.PLP.ligand.clash>
0.0000

> <Gold.PLP.ligand.torsion>
0.5726

> <Gold.PLP.Chemscore.Hbond>
5.0000

> <Gold.PLP.Chemscore.CHOScore>
0.0000

> <Gold.PLP.Chemscore.Metal>
0.0000

> <Gold.Chemscore.Hbonds>
donor molecule, donor type, donor heavy atom, donor atom, acceptor molecule, acceptor atom, score
      L1  H     4    41       P1  8028  2.00
      L1  H     8    26       P1  7948  1.00
      L1  H    11    27       P1  7948  1.00
      L1  H    19    40       P1  7948  0.88

> <Gold.PLP.Chemscore.Internal.Correction>
0.0129

> <Gold.Rescore>
     Score         DG    S(hbond)    S(metal)    S(lipo)     H(rot)  DE(clash)    DE(int)     intcor
     18.35     -22.44       3.79        0.00      75.64       1.77       0.05       4.03       ----

> <Gold.Chemscore.Fitness>
18.3541

> <Gold.Chemscore.DG>
-22.4395

> <Gold.Chemscore.ZeroCoef>
-5.4800

> <Gold.Chemscore.Hbond>
3.7879

> <Gold.Chemscore.Metal>
0.0000

> <Gold.Chemscore.Lipo>
75.6398

> <Gold.Chemscore.Internal_Hbond>
0.0000

> <Gold.Chemscore.DEClash>
0.0544

> <Gold.Chemscore.DEInternal>
4.0310

> <Gold.Chemscore.Rot>
1.7742

> <Gold.Chemscore.Internal.Correction>
   9.000000E+99

> <Gold.Chemscore.Hbonds>
donor molecule, donor type, donor heavy atom, donor atom, acceptor molecule, acceptor atom, score
      L1  H     4    41       P1  8028  1.00
      L1  H     8    26       P1  7948  0.92
      L1  H    11    27       P1  7948  0.92
      L1  H    19    40       P1  7948  0.60

> <Gold.Chemscore.Hbond.Weighted>
-12.6516

> <Gold.Chemscore.Metal.Weighted>
-0.0000

> <Gold.Chemscore.Lipo.Weighted>
-8.8499

> <Gold.Chemscore.Internal_Hbond.Weighted>
0.0000

> <Gold.Chemscore.DEClash.Weighted>
0.0544

> <Gold.Chemscore.DEInternal.Weighted>
4.0310

> <Gold.Chemscore.Rot.Weighted>
4.5419

> <Gold.Chemscore.Internal.Correction.Weighted>
   9.000000E+99

> <Gold.Protein.RotatedTorsions>
[ 6907 6896 6895 6894 ] final   83.89 input  -60.11 | X-H torsion
[ 7974 7965 7964 7962 ] final  120.80 input  175.53 | X-H torsion
[ 8008 7997 7996 7995 ] final  -34.56 input   59.86 | X-H torsion
[ 10167 10162 10161 10158 ] final   45.17 input  -65.29 | X-H torsion
[ 10718 10713 10712 10709 ] final -137.22 input   66.30 | X-H torsion
[ 10763 10752 10751 10750 ] final  104.92 input  -60.55 | X-H torsion
[ 11005 11000 10999 10996 ] final   27.01 input  -57.11 | X-H torsion

> <Gold.Protein.ActiveResidues>
 VAL166  LYS551  ARG553  GLY616  TRP617  ASP618  TYR619  PRO620  LYS621  CYS622 
 ASP623  PHE694  ASN695  SER759  ASP760  ASP761  ALA762  ILE779  LEU786  VAL792 
 PHE793  MET794  SER795  GLU796  ALA797  LYS798  CYS799  TRP800  GLU811  SER814 

> <Gold.Protein.RotatedAtoms>
  152.5339  134.2826  159.9012 H   0  0  0  0  0  0  0  0  0  0  0  0  # atno 6907 bound_to 6896
  151.2780  133.4217  159.2633 H   0  0  0  0  0  0  0  0  0  0  0  0  # atno 6908 bound_to 6896
  151.0309  134.9554  159.8167 H   0  0  0  0  0  0  0  0  0  0  0  0  # atno 6909 bound_to 6896
  145.1269  139.3352  143.4685 H   0  0  0  0  0  0  0  0  0  0  0  0  # atno 7974 bound_to 7965
  154.4118  140.1681  156.2069 H   0  0  0  0  0  0  0  0  0  0  0  0  # atno 8008 bound_to 7997
  155.9477  140.3403  155.6358 H   0  0  0  0  0  0  0  0  0  0  0  0  # atno 8009 bound_to 7997
  155.6909  140.0733  157.2439 H   0  0  0  0  0  0  0  0  0  0  0  0  # atno 8010 bound_to 7997
  140.3268  144.2638  150.6174 H   0  0  0  0  0  0  0  0  0  0  0  0  # atno 10167 bound_to 10162
  156.2857  130.7346  151.1357 H   0  0  0  0  0  0  0  0  0  0  0  0  # atno 10718 bound_to 10713
  153.3724  135.3927  155.1798 H   0  0  0  0  0  0  0  0  0  0  0  0  # atno 10763 bound_to 10752
  154.8696  135.3706  154.4960 H   0  0  0  0  0  0  0  0  0  0  0  0  # atno 10764 bound_to 10752
  153.5429  135.7084  153.5688 H   0  0  0  0  0  0  0  0  0  0  0  0  # atno 10765 bound_to 10752
  140.3309  134.2439  155.7702 H   0  0  0  0  0  0  0  0  0  0  0  0  # atno 11005 bound_to 11000
  146.3517  140.1252  142.8599 LP  0  0  0  0  0  0  0  0  0  0  0  0  # atno 17320 bound_to 7965
  145.0678  140.9134  143.4900 LP  0  0  0  0  0  0  0  0  0  0  0  0  # atno 17321 bound_to 7965
  140.5433  143.2219  151.8048 LP  0  0  0  0  0  0  0  0  0  0  0  0  # atno 17342 bound_to 10162
  139.4864  144.4571  151.9585 LP  0  0  0  0  0  0  0  0  0  0  0  0  # atno 17343 bound_to 10162
  157.7328  131.0597  150.5611 LP  0  0  0  0  0  0  0  0  0  0  0  0  # atno 17370 bound_to 10713
  156.5721  130.4282  149.6014 LP  0  0  0  0  0  0  0  0  0  0  0  0  # atno 17371 bound_to 10713
  141.2063  133.7835  157.0181 LP  0  0  0  0  0  0  0  0  0  0  0  0  # atno 17394 bound_to 11000
  140.0862  134.9619  157.1703 LP  0  0  0  0  0  0  0  0  0  0  0  0  # atno 17395 bound_to 11000

$$$$
