AV-unprocessed.smi:21|AV-procd|sdf|145|dock5
  -GOLD-   2262015353D 1   1.00000     0.00000
 Structure written by MMmdl.
 62 65  0  0  0  0  0  0  0  0  2 V2000
  144.9343  132.2151  149.5332 C   0  0  0  0  0  0  0  0  0  0  0  0
  144.3742  133.3572  150.1614 O   0  0  0  0  0  0  0  0  0  0  0  0
  145.3234  134.3760  150.4395 C   0  0  1  0  0  0  0  0  0  0  0  0
  144.6932  135.6470  150.9984 C   0  0  0  0  0  0  0  0  0  0  0  0
  145.8461  136.3224  151.7543 C   0  0  1  0  0  0  0  0  0  0  0  0
  145.3804  137.2937  152.8674 C   0  0  0  0  0  0  0  0  0  0  0  0
  146.3858  138.3137  153.1783 N   0  0  0  0  0  0  0  0  0  0  0  0
  146.7789  139.2331  152.1175 C   0  0  0  0  0  0  0  0  0  0  0  0
  146.6989  138.5972  154.4754 C   0  0  0  0  0  0  0  0  0  0  0  0
  146.2251  137.7692  155.4445 N   0  0  0  0  0  0  0  0  0  0  0  0
  146.4914  137.9958  156.7328 C   0  0  0  0  0  0  0  0  0  0  0  0
  147.2059  138.9819  157.2732 N   0  0  0  0  0  0  0  0  0  0  0  0
  147.6911  139.8205  156.3153 C   0  0  0  0  0  0  0  0  0  0  0  0
  147.4868  139.7090  154.9083 C   0  0  0  0  0  0  0  0  0  0  0  0
  148.1201  140.7702  154.2679 N   0  0  0  0  0  0  0  0  0  0  0  0
  148.6719  141.4549  155.2310 C   0  0  0  0  0  0  0  0  0  0  0  0
  148.4806  140.9434  156.4930 N   0  0  0  0  0  0  0  0  0  0  0  0
  148.9732  141.5026  157.7397 C   0  0  0  0  0  0  0  0  0  0  0  0
  150.5093  141.7174  157.7923 C   0  0  2  0  0  0  0  0  0  0  0  0
  151.2209  140.4342  157.3047 C   0  0  0  0  0  0  0  0  0  0  0  0
  151.0802  139.3745  158.2294 O   0  0  0  0  0  0  0  0  0  0  0  0
  151.0446  142.2102  159.1689 C   0  0  1  0  0  0  0  0  0  0  0  0
  152.5542  142.3841  159.2359 C   0  0  0  0  0  0  0  0  0  0  0  0
  152.7232  143.2724  160.4596 C   0  0  0  0  0  0  0  0  0  0  0  0
  151.6271  144.1720  160.3998 O   0  0  0  0  0  0  0  0  0  0  0  0
  150.5862  143.6118  159.6041 C   0  0  0  0  0  0  0  0  0  0  0  0
  146.7445  135.2118  152.1900 N   0  3  1  0  0  0  0  0  0  0  0  0
  147.0312  135.0828  153.6382 C   0  0  0  0  0  0  0  0  0  0  0  0
  146.2438  133.9565  151.5833 C   0  0  0  0  0  0  0  0  0  0  0  0
  145.9235  134.6052  149.5569 H   0  0  0  0  0  0  0  0  0  0  0  0
  146.4315  136.8895  151.0290 H   0  0  0  0  0  0  0  0  0  0  0  0
  144.1574  131.4658  149.3826 H   0  0  0  0  0  0  0  0  0  0  0  0
  145.7153  131.7682  150.1499 H   0  0  0  0  0  0  0  0  0  0  0  0
  145.3548  132.4586  148.5570 H   0  0  0  0  0  0  0  0  0  0  0  0
  144.2673  136.2865  150.2246 H   0  0  0  0  0  0  0  0  0  0  0  0
  143.8942  135.3803  151.6919 H   0  0  0  0  0  0  0  0  0  0  0  0
  144.4202  137.7408  152.6117 H   0  0  0  0  0  0  0  0  0  0  0  0
  145.2039  136.7356  153.7870 H   0  0  0  0  0  0  0  0  0  0  0  0
  146.1631  140.1325  152.1387 H   0  0  0  0  0  0  0  0  0  0  0  0
  146.6590  138.7689  151.1385 H   0  0  0  0  0  0  0  0  0  0  0  0
  147.8268  139.5182  152.2170 H   0  0  0  0  0  0  0  0  0  0  0  0
  146.0728  137.2851  157.4301 H   0  0  0  0  0  0  0  0  0  0  0  0
  149.2461  142.3508  155.0438 H   0  0  0  0  0  0  0  0  0  0  0  0
  148.4560  142.4454  157.9219 H   0  0  0  0  0  0  0  0  0  0  0  0
  148.6650  140.8264  158.5378 H   0  0  0  0  0  0  0  0  0  0  0  0
  150.7583  142.4848  157.0590 H   0  0  0  0  0  0  0  0  0  0  0  0
  150.8127  140.1147  156.3455 H   0  0  0  0  0  0  0  0  0  0  0  0
  152.2824  140.6131  157.1346 H   0  0  0  0  0  0  0  0  0  0  0  0
  150.1694  139.3055  158.4715 H   0  0  0  0  0  0  0  0  0  0  0  0
  150.7556  141.4975  159.9430 H   0  0  0  0  0  0  0  0  0  0  0  0
  153.0925  141.4410  159.3330 H   0  0  0  0  0  0  0  0  0  0  0  0
  152.9214  142.8999  158.3473 H   0  0  0  0  0  0  0  0  0  0  0  0
  152.6476  142.6823  161.3738 H   0  0  0  0  0  0  0  0  0  0  0  0
  153.6767  143.8006  160.4702 H   0  0  0  0  0  0  0  0  0  0  0  0
  150.4351  144.2638  158.7432 H   0  0  0  0  0  0  0  0  0  0  0  0
  149.6582  143.5824  160.1738 H   0  0  0  0  0  0  0  0  0  0  0  0
  146.1206  134.9075  154.2120 H   0  0  0  0  0  0  0  0  0  0  0  0
  147.5260  135.9741  154.0241 H   0  0  0  0  0  0  0  0  0  0  0  0
  147.7027  134.2412  153.8110 H   0  0  0  0  0  0  0  0  0  0  0  0
  145.6662  133.3994  152.3235 H   0  0  0  0  0  0  0  0  0  0  0  0
  147.0610  133.3160  151.2504 H   0  0  0  0  0  0  0  0  0  0  0  0
  147.6324  135.4014  151.7473 H   0  0  0  0  0  0  0  0  0  0  0  0
  1  2  1  0  0  0  0
  1 32  1  0  0  0  0
  1 33  1  0  0  0  0
  1 34  1  0  0  0  0
  2  3  1  0  0  0  0
  3 30  1  0  0  0  0
  3 29  1  0  0  0  0
  3  4  1  0  0  0  0
  4  5  1  0  0  0  0
  4 35  1  0  0  0  0
  4 36  1  0  0  0  0
  5 31  1  0  0  0  0
  5  6  1  0  0  0  0
  5 27  1  0  0  0  0
  6  7  1  0  0  0  0
  6 37  1  0  0  0  0
  6 38  1  0  0  0  0
  7  8  1  0  0  0  0
  7  9  1  0  0  0  0
  8 39  1  0  0  0  0
  8 40  1  0  0  0  0
  8 41  1  0  0  0  0
  9 14  1  0  0  0  0
  9 10  2  0  0  0  0
 10 11  1  0  0  0  0
 11 12  2  0  0  0  0
 11 42  1  0  0  0  0
 12 13  1  0  0  0  0
 13 17  1  0  0  0  0
 13 14  2  0  0  0  0
 14 15  1  0  0  0  0
 15 16  2  0  0  0  0
 16 17  1  0  0  0  0
 16 43  1  0  0  0  0
 17 18  1  0  0  0  0
 18 19  1  0  0  0  0
 18 44  1  0  0  0  0
 18 45  1  0  0  0  0
 19 20  1  0  0  0  0
 19 22  1  0  0  0  0
 19 46  1  0  0  0  0
 20 21  1  0  0  0  0
 20 47  1  0  0  0  0
 20 48  1  0  0  0  0
 21 49  1  0  0  0  0
 22 26  1  0  0  0  0
 22 23  1  0  0  0  0
 22 50  1  0  0  0  0
 23 24  1  0  0  0  0
 23 51  1  0  0  0  0
 23 52  1  0  0  0  0
 24 25  1  0  0  0  0
 24 53  1  0  0  0  0
 24 54  1  0  0  0  0
 25 26  1  0  0  0  0
 26 55  1  0  0  0  0
 26 56  1  0  0  0  0
 27 28  1  0  0  0  0
 27 29  1  0  0  0  0
 27 62  1  0  0  0  0
 28 57  1  0  0  0  0
 28 58  1  0  0  0  0
 28 59  1  0  0  0  0
 29 60  1  0  0  0  0
 29 61  1  0  0  0  0
M  CHG  1  27   1
M  END
> <s_m_source_file>
AV-unprocessed.smi

> <i_m_source_file_index>
21

> <i_lp_mmshare_version>
43012

> <i_f3d_flags>
0

> <s_epik_input>
W0NIM11PW0NASF0xW0NIMl1bQ0BIXShOKFtDSDNdKVtDSDJdMSlbQ0gyXU4oW0NIM10pYyhuW2NIXW4yKWMoYzIzKW5bY0hdbjNbQ0gyXVtDQEhdKFtDSDJdW09IXSlbQ0BASF00W0NIMl1bQ0gyXU9bQ0gyXTQ=

> <s_epik_cmdline>
J2VwaWtfcHl0aG9uJywgJy1waCcsICc3LjAnLCAnLXRuJywgJzgnLCAnLW1hJywgJzIwMCcsICctbWV0YWxfYmluZGluZycsICctaW1hZScsICc8aW5maWxlLm1hZT4nLCAnLW9tYWUnLCAnPG91dGZpbGUubWFlPic=

> <r_lp_tautomer_probability>
1

> <r_epik_Ionization_Penalty>
0.0157465

> <r_epik_Ionization_Penalty_Charging>
0.015354

> <r_epik_Ionization_Penalty_Neutral>
0.000392529

> <r_epik_State_Penalty>
0.0120612

> <r_epik_Charging_Adjusted_Penalty>
0.0274152

> <i_epik_Tot_Q>
1

> <i_epik_Tot_abs_Q>
1

> <r_epik_Metal_State_Penalty>
0.0121253

> <b_epik_Metal_Only>
0

> <s_lp_Force_Field>
OPLS_2005

> <r_lp_Energy>
60.8003

> <b_lp_Chiralities_Consistent>
1

> <s_lp_Variant>
AV-unprocessed.smi:21-25

> <Gold.Version>
5.8.1

> <Gold.Id.Protein>
6NUR|6NUR_protein|mol2

> <Gold.PLP.Fitness>
50.2531

> <Gold.PLP.PLP>
-42.6500

> <Gold.PLP.part.hbond>
-1.0000

> <Gold.PLP.part.metal>
0.0000

> <Gold.PLP.part.buried>
-4.3624

> <Gold.PLP.part.nonpolar>
-37.9816

> <Gold.PLP.part.repulsive>
0.4368

> <Gold.PLP.ligand.clash>
0.0000

> <Gold.PLP.ligand.torsion>
0.5355

> <Gold.PLP.Chemscore.Hbond>
2.0000

> <Gold.PLP.Chemscore.CHOScore>
0.7237

> <Gold.PLP.Chemscore.Metal>
0.0000

> <Gold.Chemscore.Hbonds>
donor molecule, donor type, donor heavy atom, donor atom, acceptor molecule, acceptor atom, score
      L1  H    27    62       P1  7948  1.81
      L1  C    16    43       P1  8028  1.00

> <Gold.PLP.Chemscore.Internal.Correction>
0.5030

> <Gold.Rescore>
     Score         DG    S(hbond)    S(metal)    S(lipo)     H(rot)  DE(clash)    DE(int)     intcor
     11.70     -13.53       0.97        0.00     108.54       3.08       0.08       1.75       ----

> <Gold.Chemscore.Fitness>
11.7036

> <Gold.Chemscore.DG>
-13.5328

> <Gold.Chemscore.ZeroCoef>
-5.4800

> <Gold.Chemscore.Hbond>
0.9666

> <Gold.Chemscore.Metal>
0.0000

> <Gold.Chemscore.Lipo>
108.5356

> <Gold.Chemscore.Internal_Hbond>
0.0000

> <Gold.Chemscore.DEClash>
0.0755

> <Gold.Chemscore.DEInternal>
1.7537

> <Gold.Chemscore.Rot>
3.0758

> <Gold.Chemscore.Internal.Correction>
   9.000000E+99

> <Gold.Chemscore.Hbonds>
donor molecule, donor type, donor heavy atom, donor atom, acceptor molecule, acceptor atom, score
      L1  H    27    62       P1  7948  0.77

> <Gold.Chemscore.Hbond.Weighted>
-3.2283

> <Gold.Chemscore.Metal.Weighted>
-0.0000

> <Gold.Chemscore.Lipo.Weighted>
-12.6987

> <Gold.Chemscore.Internal_Hbond.Weighted>
0.0000

> <Gold.Chemscore.DEClash.Weighted>
0.0755

> <Gold.Chemscore.DEInternal.Weighted>
1.7537

> <Gold.Chemscore.Rot.Weighted>
7.8741

> <Gold.Chemscore.Internal.Correction.Weighted>
   9.000000E+99

> <Gold.Protein.RotatedTorsions>
[ 6907 6896 6895 6894 ] final   93.57 input  -60.11 | X-H torsion
[ 7974 7965 7964 7962 ] final   89.83 input  175.53 | X-H torsion
[ 8008 7997 7996 7995 ] final   95.37 input   59.86 | X-H torsion
[ 10167 10162 10161 10158 ] final   51.42 input  -65.29 | X-H torsion
[ 10718 10713 10712 10709 ] final  113.46 input   66.30 | X-H torsion
[ 10763 10752 10751 10750 ] final  120.78 input  -60.55 | X-H torsion
[ 11005 11000 10999 10996 ] final  113.27 input  -57.11 | X-H torsion

> <Gold.Protein.ActiveResidues>
 VAL166  LYS551  ARG553  GLY616  TRP617  ASP618  TYR619  PRO620  LYS621  CYS622 
 ASP623  PHE694  ASN695  SER759  ASP760  ASP761  ALA762  ILE779  LEU786  VAL792 
 PHE793  MET794  SER795  GLU796  ALA797  LYS798  CYS799  TRP800  GLU811  SER814 

> <Gold.Protein.RotatedAtoms>
  152.5452  134.1327  159.8445 H   0  0  0  0  0  0  0  0  0  0  0  0  # atno 6907 bound_to 6896
  151.1371  133.4989  159.2605 H   0  0  0  0  0  0  0  0  0  0  0  0  # atno 6908 bound_to 6896
  151.1612  135.0284  159.8766 H   0  0  0  0  0  0  0  0  0  0  0  0  # atno 6909 bound_to 6896
  145.5271  139.2281  143.2639 H   0  0  0  0  0  0  0  0  0  0  0  0  # atno 7974 bound_to 7965
  156.0681  140.3287  155.7542 H   0  0  0  0  0  0  0  0  0  0  0  0  # atno 8008 bound_to 7997
  155.5349  140.0596  157.2899 H   0  0  0  0  0  0  0  0  0  0  0  0  # atno 8009 bound_to 7997
  154.4516  140.1921  156.0521 H   0  0  0  0  0  0  0  0  0  0  0  0  # atno 8010 bound_to 7997
  140.2621  144.3361  150.6315 H   0  0  0  0  0  0  0  0  0  0  0  0  # atno 10167 bound_to 10162
  157.6337  131.0984  150.7043 H   0  0  0  0  0  0  0  0  0  0  0  0  # atno 10718 bound_to 10713
  153.6039  135.3443  155.2955 H   0  0  0  0  0  0  0  0  0  0  0  0  # atno 10763 bound_to 10752
  154.8631  135.4234  154.2383 H   0  0  0  0  0  0  0  0  0  0  0  0  # atno 10764 bound_to 10752
  153.3218  135.7038  153.7096 H   0  0  0  0  0  0  0  0  0  0  0  0  # atno 10765 bound_to 10752
  139.8948  134.9546  156.6713 H   0  0  0  0  0  0  0  0  0  0  0  0  # atno 11005 bound_to 11000
  146.2068  140.6085  142.9077 LP  0  0  0  0  0  0  0  0  0  0  0  0  # atno 17320 bound_to 7965
  144.7645  140.5499  143.6712 LP  0  0  0  0  0  0  0  0  0  0  0  0  # atno 17321 bound_to 7965
  140.5958  143.2167  151.7167 LP  0  0  0  0  0  0  0  0  0  0  0  0  # atno 17342 bound_to 10162
  139.5014  144.3870  152.0319 LP  0  0  0  0  0  0  0  0  0  0  0  0  # atno 17343 bound_to 10162
  156.7378  130.4730  149.5484 LP  0  0  0  0  0  0  0  0  0  0  0  0  # atno 17370 bound_to 10713
  156.1559  130.6341  151.0657 LP  0  0  0  0  0  0  0  0  0  0  0  0  # atno 17371 bound_to 10713
  140.7371  133.9009  155.8252 LP  0  0  0  0  0  0  0  0  0  0  0  0  # atno 17394 bound_to 11000
  141.0107  134.1024  157.4224 LP  0  0  0  0  0  0  0  0  0  0  0  0  # atno 17395 bound_to 11000

$$$$
