AV-unprocessed.smi:2772|AV-procd|sdf|10667|dock6
  -GOLD-   2272015113D 1   1.00000     0.00000
 Structure written by MMmdl.
 55 57  0  0  0  0  0  0  0  0  3 V2000
  152.9671  143.3426  159.6206 C   0  0  0  0  0  0  0  0  0  0  0  0
  152.5124  141.9792  159.1439 C   0  0  0  0  0  0  0  0  0  0  0  0
  151.4412  141.8489  158.2365 C   0  0  0  0  0  0  0  0  0  0  0  0
  151.0642  140.5571  157.8214 C   0  0  0  0  0  0  0  0  0  0  0  0
  151.7781  139.4415  158.3221 C   0  0  0  0  0  0  0  0  0  0  0  0
  151.4884  138.0906  157.9880 N   0  0  0  0  0  0  0  0  0  0  0  0
  150.2875  137.5168  157.7996 C   0  0  0  0  0  0  0  0  0  0  0  0
  149.2016  138.0888  157.8918 O   0  0  0  0  0  0  0  0  0  0  0  0
  150.4117  136.2228  157.4696 N   0  0  0  0  0  0  0  0  0  0  0  0
  149.2984  135.3209  157.1861 C   0  0  2  0  0  0  0  0  0  0  0  0
  149.8039  133.8690  157.1061 C   0  0  0  0  0  0  0  0  0  0  0  0
  148.6739  132.9103  156.6809 C   0  0  0  0  0  0  0  0  0  0  0  0
  148.0630  133.3085  155.3794 N   0  3  2  0  0  0  0  0  0  0  0  0
  148.9210  133.0661  154.1664 C   0  0  2  0  0  0  0  0  0  0  0  0
  148.1799  133.2918  152.8257 C   0  0  0  0  0  0  0  0  0  0  0  0
  147.0832  132.2364  152.5906 C   0  0  0  0  0  0  0  0  0  0  0  0
  147.6528  130.8657  152.6079 N   0  3  2  0  0  0  0  0  0  0  0  0
  146.6419  129.8300  152.3037 C   0  0  0  0  0  0  0  0  0  0  0  0
  148.3975  130.5799  153.8600 C   0  0  0  0  0  0  0  0  0  0  0  0
  149.4975  131.6307  154.1011 C   0  0  0  0  0  0  0  0  0  0  0  0
  147.5030  134.6849  155.5052 C   0  0  0  0  0  0  0  0  0  0  0  0
  148.5879  135.7143  155.8745 C   0  0  0  0  0  0  0  0  0  0  0  0
  152.8209  139.6873  159.2401 C   0  0  0  0  0  0  0  0  0  0  0  0
  153.1893  140.9223  159.6424 N   0  0  0  0  0  0  0  0  0  0  0  0
  152.4038  144.1398  159.1351 H   0  0  0  0  0  0  0  0  0  0  0  0
  154.0241  143.4896  159.3968 H   0  0  0  0  0  0  0  0  0  0  0  0
  152.8271  143.4336  160.6979 H   0  0  0  0  0  0  0  0  0  0  0  0
  150.9153  142.7169  157.8667 H   0  0  0  0  0  0  0  0  0  0  0  0
  150.2333  140.4499  157.1418 H   0  0  0  0  0  0  0  0  0  0  0  0
  152.2937  137.5113  157.8012 H   0  0  0  0  0  0  0  0  0  0  0  0
  151.3421  135.8347  157.4147 H   0  0  0  0  0  0  0  0  0  0  0  0
  148.5789  135.3804  158.0052 H   0  0  0  0  0  0  0  0  0  0  0  0
  150.6386  133.7963  156.4081 H   0  0  0  0  0  0  0  0  0  0  0  0
  150.1952  133.5620  158.0768 H   0  0  0  0  0  0  0  0  0  0  0  0
  149.0199  131.8795  156.6772 H   0  0  0  0  0  0  0  0  0  0  0  0
  147.8909  132.9329  157.4405 H   0  0  0  0  0  0  0  0  0  0  0  0
  149.7589  133.7618  154.2003 H   0  0  0  0  0  0  0  0  0  0  0  0
  147.7768  134.2991  152.7358 H   0  0  0  0  0  0  0  0  0  0  0  0
  148.9031  133.2203  152.0117 H   0  0  0  0  0  0  0  0  0  0  0  0
  146.3026  132.3226  153.3478 H   0  0  0  0  0  0  0  0  0  0  0  0
  146.6074  132.4162  151.6257 H   0  0  0  0  0  0  0  0  0  0  0  0
  145.8679  129.7997  153.0715 H   0  0  0  0  0  0  0  0  0  0  0  0
  147.1053  128.8445  152.2456 H   0  0  0  0  0  0  0  0  0  0  0  0
  146.1640  130.0282  151.3436 H   0  0  0  0  0  0  0  0  0  0  0  0
  147.7063  130.5522  154.7038 H   0  0  0  0  0  0  0  0  0  0  0  0
  148.8505  129.5900  153.7914 H   0  0  0  0  0  0  0  0  0  0  0  0
  150.2084  131.5778  153.2753 H   0  0  0  0  0  0  0  0  0  0  0  0
  150.0878  131.3773  154.9793 H   0  0  0  0  0  0  0  0  0  0  0  0
  146.9566  134.9929  154.6167 H   0  0  0  0  0  0  0  0  0  0  0  0
  146.7501  134.6716  156.2945 H   0  0  0  0  0  0  0  0  0  0  0  0
  148.1294  136.6982  155.9797 H   0  0  0  0  0  0  0  0  0  0  0  0
  149.3116  135.8038  155.0636 H   0  0  0  0  0  0  0  0  0  0  0  0
  153.3851  138.8681  159.6612 H   0  0  0  0  0  0  0  0  0  0  0  0
  147.2625  132.7043  155.2607 H   0  0  0  0  0  0  0  0  0  0  0  0
  148.3297  130.8284  151.8586 H   0  0  0  0  0  0  0  0  0  0  0  0
  1  2  1  0  0  0  0
  1 25  1  0  0  0  0
  1 26  1  0  0  0  0
  1 27  1  0  0  0  0
  2 24  1  0  0  0  0
  2  3  2  0  0  0  0
  3  4  1  0  0  0  0
  3 28  1  0  0  0  0
  4  5  2  0  0  0  0
  4 29  1  0  0  0  0
  5  6  1  0  0  0  0
  5 23  1  0  0  0  0
  6  7  1  0  0  0  0
  6 30  1  0  0  0  0
  7  8  2  0  0  0  0
  7  9  1  0  0  0  0
  9 10  1  0  0  0  0
  9 31  1  0  0  0  0
 10 22  1  0  0  0  0
 10 11  1  0  0  0  0
 10 32  1  0  0  0  0
 11 12  1  0  0  0  0
 11 33  1  0  0  0  0
 11 34  1  0  0  0  0
 12 13  1  0  0  0  0
 12 35  1  0  0  0  0
 12 36  1  0  0  0  0
 13 14  1  0  0  0  0
 13 21  1  0  0  0  0
 13 54  1  0  0  0  0
 14 20  1  0  0  0  0
 14 15  1  0  0  0  0
 14 37  1  0  0  0  0
 15 16  1  0  0  0  0
 15 38  1  0  0  0  0
 15 39  1  0  0  0  0
 16 17  1  0  0  0  0
 16 40  1  0  0  0  0
 16 41  1  0  0  0  0
 17 18  1  0  0  0  0
 17 19  1  0  0  0  0
 17 55  1  0  0  0  0
 18 42  1  0  0  0  0
 18 43  1  0  0  0  0
 18 44  1  0  0  0  0
 19 20  1  0  0  0  0
 19 45  1  0  0  0  0
 19 46  1  0  0  0  0
 20 47  1  0  0  0  0
 20 48  1  0  0  0  0
 21 22  1  0  0  0  0
 21 49  1  0  0  0  0
 21 50  1  0  0  0  0
 22 51  1  0  0  0  0
 22 52  1  0  0  0  0
 23 24  2  0  0  0  0
 23 53  1  0  0  0  0
M  CHG  1  13   1
M  CHG  1  17   1
M  END
> <s_m_source_file>
AV-unprocessed.smi

> <i_m_source_file_index>
2772

> <i_lp_mmshare_version>
43012

> <i_f3d_flags>
0

> <s_epik_input>
W0NIM11jMVtjSF1bY0hdYyhbY0hdbjEpW05IXUMoPU8pW05IXVtDSF0yW0NIMl1bQ0gyXU4oW0NIMl1bQ0gyXTIpW0NIXTNbQ0gyXVtDSDJdTihbQ0gzXSlbQ0gyXVtDSDJdMw==

> <s_epik_cmdline>
J2VwaWtfcHl0aG9uJywgJy1waCcsICc3LjAnLCAnLXRuJywgJzgnLCAnLW1hJywgJzIwMCcsICctbWV0YWxfYmluZGluZycsICctaW1hZScsICc8aW5maWxlLm1hZT4nLCAnLW9tYWUnLCAnPG91dGZpbGUubWFlPic=

> <r_epik_Ionization_Penalty>
0.196786

> <r_epik_Ionization_Penalty_Charging>
0.180787

> <r_epik_Ionization_Penalty_Neutral>
0.0159988

> <r_epik_State_Penalty>
0.163322

> <r_epik_Charging_Adjusted_Penalty>
0.344109

> <i_epik_Tot_Q>
2

> <i_epik_Tot_abs_Q>
2

> <r_epik_Metal_State_Penalty>
0.163596

> <b_epik_Metal_Only>
0

> <s_lp_Force_Field>
OPLS_2005

> <r_lp_Energy>
49.9042

> <b_lp_Chiralities_Consistent>
1

> <s_lp_Variant>
AV-unprocessed.smi:2772-4

> <Gold.Version>
5.8.1

> <Gold.Id.Protein>
6NUR|6NUR_protein|mol2

> <Gold.PLP.Fitness>
34.4732

> <Gold.PLP.PLP>
-32.2642

> <Gold.PLP.part.hbond>
-1.0000

> <Gold.PLP.part.metal>
0.0000

> <Gold.PLP.part.buried>
-3.1343

> <Gold.PLP.part.nonpolar>
-27.4527

> <Gold.PLP.part.repulsive>
0.1637

> <Gold.PLP.ligand.clash>
0.0000

> <Gold.PLP.ligand.torsion>
0.4176

> <Gold.PLP.Chemscore.Hbond>
1.0000

> <Gold.PLP.Chemscore.CHOScore>
0.0000

> <Gold.PLP.Chemscore.Metal>
0.0000

> <Gold.Chemscore.Hbonds>
donor molecule, donor type, donor heavy atom, donor atom, acceptor molecule, acceptor atom, score
      L1  H    17    55       P1 10747  1.00

> <Gold.PLP.Chemscore.Internal.Correction>
0.0441

> <Gold.Rescore>
     Score         DG    S(hbond)    S(metal)    S(lipo)     H(rot)  DE(clash)    DE(int)     intcor
     16.68     -17.08       1.00        0.00      97.11       1.21       0.01       0.39       ----

> <Gold.Chemscore.Fitness>
16.6845

> <Gold.Chemscore.DG>
-17.0809

> <Gold.Chemscore.ZeroCoef>
-5.4800

> <Gold.Chemscore.Hbond>
0.9984

> <Gold.Chemscore.Metal>
0.0000

> <Gold.Chemscore.Lipo>
97.1080

> <Gold.Chemscore.Internal_Hbond>
0.0000

> <Gold.Chemscore.DEClash>
0.0108

> <Gold.Chemscore.DEInternal>
0.3857

> <Gold.Chemscore.Rot>
1.2092

> <Gold.Chemscore.Internal.Correction>
   9.000000E+99

> <Gold.Chemscore.Hbonds>
donor molecule, donor type, donor heavy atom, donor atom, acceptor molecule, acceptor atom, score
      L1  H    17    55       P1 10747  0.99

> <Gold.Chemscore.Hbond.Weighted>
-3.3348

> <Gold.Chemscore.Metal.Weighted>
-0.0000

> <Gold.Chemscore.Lipo.Weighted>
-11.3616

> <Gold.Chemscore.Internal_Hbond.Weighted>
0.0000

> <Gold.Chemscore.DEClash.Weighted>
0.0108

> <Gold.Chemscore.DEInternal.Weighted>
0.3857

> <Gold.Chemscore.Rot.Weighted>
3.0955

> <Gold.Chemscore.Internal.Correction.Weighted>
   9.000000E+99

> <Gold.Protein.RotatedTorsions>
[ 6907 6896 6895 6894 ] final -139.49 input  -60.11 | X-H torsion
[ 7974 7965 7964 7962 ] final  160.43 input  175.53 | X-H torsion
[ 8008 7997 7996 7995 ] final -173.38 input   59.86 | X-H torsion
[ 10167 10162 10161 10158 ] final   58.58 input  -65.29 | X-H torsion
[ 10718 10713 10712 10709 ] final   91.44 input   66.30 | X-H torsion
[ 10763 10752 10751 10750 ] final  -97.28 input  -60.55 | X-H torsion
[ 11005 11000 10999 10996 ] final    6.90 input  -57.11 | X-H torsion

> <Gold.Protein.ActiveResidues>
 VAL166  LYS551  ARG553  GLY616  TRP617  ASP618  TYR619  PRO620  LYS621  CYS622 
 ASP623  PHE694  ASN695  SER759  ASP760  ASP761  ALA762  ILE779  LEU786  VAL792 
 PHE793  MET794  SER795  GLU796  ALA797  LYS798  CYS799  TRP800  GLU811  SER814 

> <Gold.Protein.RotatedAtoms>
  151.0484  133.5645  159.2644 H   0  0  0  0  0  0  0  0  0  0  0  0  # atno 6907 bound_to 6896
  151.2665  135.0670  159.9128 H   0  0  0  0  0  0  0  0  0  0  0  0  # atno 6908 bound_to 6896
  152.5377  134.0221  159.8040 H   0  0  0  0  0  0  0  0  0  0  0  0  # atno 6909 bound_to 6896
  144.7737  139.7756  143.6287 H   0  0  0  0  0  0  0  0  0  0  0  0  # atno 7974 bound_to 7965
  155.9567  140.1136  157.0930 H   0  0  0  0  0  0  0  0  0  0  0  0  # atno 8008 bound_to 7997
  154.4122  140.1190  156.5191 H   0  0  0  0  0  0  0  0  0  0  0  0  # atno 8009 bound_to 7997
  155.6773  140.3473  155.4843 H   0  0  0  0  0  0  0  0  0  0  0  0  # atno 8010 bound_to 7997
  140.1857  144.4137  150.6594 H   0  0  0  0  0  0  0  0  0  0  0  0  # atno 10167 bound_to 10162
  157.6960  131.0407  150.3731 H   0  0  0  0  0  0  0  0  0  0  0  0  # atno 10718 bound_to 10713
  154.7314  135.5052  153.8970 H   0  0  0  0  0  0  0  0  0  0  0  0  # atno 10763 bound_to 10752
  153.0954  135.6670  153.9782 H   0  0  0  0  0  0  0  0  0  0  0  0  # atno 10764 bound_to 10752
  153.9583  135.3050  155.3414 H   0  0  0  0  0  0  0  0  0  0  0  0  # atno 10765 bound_to 10752
  140.5543  134.0253  155.7948 H   0  0  0  0  0  0  0  0  0  0  0  0  # atno 11005 bound_to 11000
  146.1902  139.5139  142.9810 LP  0  0  0  0  0  0  0  0  0  0  0  0  # atno 17320 bound_to 7965
  145.6248  141.0316  143.1895 LP  0  0  0  0  0  0  0  0  0  0  0  0  # atno 17321 bound_to 7965
  140.6490  143.2220  151.6121 LP  0  0  0  0  0  0  0  0  0  0  0  0  # atno 17342 bound_to 10162
  139.5277  144.3009  152.1074 LP  0  0  0  0  0  0  0  0  0  0  0  0  # atno 17343 bound_to 10162
  156.4153  130.3942  149.6863 LP  0  0  0  0  0  0  0  0  0  0  0  0  # atno 17370 bound_to 10713
  156.4132  130.7732  151.2746 LP  0  0  0  0  0  0  0  0  0  0  0  0  # atno 17371 bound_to 10713
  141.1153  133.9551  157.2835 LP  0  0  0  0  0  0  0  0  0  0  0  0  # atno 17394 bound_to 11000
  139.9439  135.0187  156.8793 LP  0  0  0  0  0  0  0  0  0  0  0  0  # atno 17395 bound_to 11000

$$$$
