AV-unprocessed.smi:2750|AV-procd|sdf|10594|dock10
  -GOLD-   2272015 43D 1   1.00000     0.00000
 Structure written by MMmdl.
 24 25  0  0  0  0  0  0  0  0  3 V2000
  156.7156  140.8437  161.1303 O   0  0  0  0  0  0  0  0  0  0  0  0
  155.8937  140.4877  160.2570 C   0  0  0  0  0  0  0  0  0  0  0  0
  156.1843  140.0418  159.1252 O   0  5  0  0  0  0  0  0  0  0  0  0
  154.4074  140.5730  160.6110 C   0  0  0  0  0  0  0  0  0  0  0  0
  153.5521  139.9556  159.6123 N   0  0  0  0  0  0  0  0  0  0  0  0
  152.5375  140.5319  158.8754 C   0  0  0  0  0  0  0  0  0  0  0  0
  152.0988  139.5092  158.0833 C   0  0  0  0  0  0  0  0  0  0  0  0
  151.0184  139.5083  157.0421 C   0  0  0  0  0  0  0  0  0  0  0  0
  151.1552  140.6610  156.0237 C   0  0  1  0  0  0  0  0  0  0  0  0
  150.4350  140.3806  154.7922 N   0  5  0  0  0  0  0  0  0  0  0  0
  149.5214  141.3599  154.5957 C   0  0  0  0  0  0  0  0  0  0  0  0
  148.7323  141.4764  153.6607 O   0  0  0  0  0  0  0  0  0  0  0  0
  149.5605  142.2502  155.5923 N   0  0  0  0  0  0  0  0  0  0  0  0
  150.4771  141.9310  156.5003 C   0  0  0  0  0  0  0  0  0  0  0  0
  150.7434  142.5368  157.5375 O   0  0  0  0  0  0  0  0  0  0  0  0
  152.8467  138.3677  158.3719 N   0  0  0  0  0  0  0  0  0  0  0  0
  153.7150  138.6486  159.2926 N   0  0  0  0  0  0  0  0  0  0  0  0
  154.2235  140.0881  161.5708 H   0  0  0  0  0  0  0  0  0  0  0  0
  154.1252  141.6204  160.7269 H   0  0  0  0  0  0  0  0  0  0  0  0
  152.2340  141.5636  158.9725 H   0  0  0  0  0  0  0  0  0  0  0  0
  151.0042  138.5490  156.5221 H   0  0  0  0  0  0  0  0  0  0  0  0
  150.0509  139.5794  157.5411 H   0  0  0  0  0  0  0  0  0  0  0  0
  152.2090  140.8854  155.8524 H   0  0  0  0  0  0  0  0  0  0  0  0
  148.9601  143.0588  155.6522 H   0  0  0  0  0  0  0  0  0  0  0  0
  1  2  2  0  0  0  0
  2  3  1  0  0  0  0
  2  4  1  0  0  0  0
  4  5  1  0  0  0  0
  4 18  1  0  0  0  0
  4 19  1  0  0  0  0
  5 17  1  0  0  0  0
  5  6  1  0  0  0  0
  6  7  2  0  0  0  0
  6 20  1  0  0  0  0
  7  8  1  0  0  0  0
  7 16  1  0  0  0  0
  8  9  1  0  0  0  0
  8 21  1  0  0  0  0
  8 22  1  0  0  0  0
  9 14  1  0  0  0  0
  9 10  1  0  0  0  0
  9 23  1  0  0  0  0
 10 11  1  0  0  0  0
 11 12  2  0  0  0  0
 11 13  1  0  0  0  0
 13 14  1  0  0  0  0
 13 24  1  0  0  0  0
 14 15  2  0  0  0  0
 16 17  2  0  0  0  0
M  CHG  1   3  -1
M  CHG  1  10  -1
M  END
> <s_m_source_file>
AV-unprocessed.smi

> <i_m_source_file_index>
2750

> <i_lp_mmshare_version>
43012

> <i_f3d_flags>
0

> <s_epik_input>
Tz1DKFtPSF0pW0NIMl1uMVtjSF1jKG5uMSlbQ0gyXVtDQEBIXTJbTkhdQyg9TylbTkhdQzI9Tw==

> <s_epik_cmdline>
J2VwaWtfcHl0aG9uJywgJy1waCcsICc3LjAnLCAnLXRuJywgJzgnLCAnLW1hJywgJzIwMCcsICctbWV0YWxfYmluZGluZycsICctaW1hZScsICc8aW5maWxlLm1hZT4nLCAnLW9tYWUnLCAnPG91dGZpbGUubWFlPic=

> <r_lp_tautomer_probability>
1

> <r_epik_Ionization_Penalty>
5.10791

> <r_epik_Ionization_Penalty_Charging>
5.10788

> <r_epik_Ionization_Penalty_Neutral>
2.55687e-05

> <r_epik_State_Penalty>
5.12334

> <r_epik_Charging_Adjusted_Penalty>
10.2312

> <i_epik_Tot_Q>
-2

> <i_epik_Tot_abs_Q>
2

> <r_epik_Metal_State_Penalty>
1.50935

> <b_epik_Metal_Only>
1

> <s_lp_Force_Field>
OPLS_2005

> <r_lp_Energy>
16.7857

> <b_lp_Chiralities_Consistent>
1

> <s_lp_Variant>
AV-unprocessed.smi:2750-6

> <Gold.Version>
5.8.1

> <Gold.Id.Protein>
6NUR|6NUR_protein|mol2

> <Gold.PLP.Fitness>
39.3740

> <Gold.PLP.PLP>
-26.4569

> <Gold.PLP.part.hbond>
-4.8942

> <Gold.PLP.part.metal>
0.0000

> <Gold.PLP.part.buried>
-4.9079

> <Gold.PLP.part.nonpolar>
-17.6220

> <Gold.PLP.part.repulsive>
0.5517

> <Gold.PLP.ligand.clash>
0.0000

> <Gold.PLP.ligand.torsion>
0.4054

> <Gold.PLP.Chemscore.Hbond>
4.5720

> <Gold.PLP.Chemscore.CHOScore>
0.0000

> <Gold.PLP.Chemscore.Metal>
0.0000

> <Gold.Chemscore.Hbonds>
donor molecule, donor type, donor heavy atom, donor atom, acceptor molecule, acceptor atom, score
      L1  H    13    24       P1  8028  0.93
      P1  H  7989  7998       L1    10  0.90
      P1  H  7997  8009       L1     3  2.00
      P1  H  8011  8017       L1    12  0.75

> <Gold.PLP.Chemscore.Internal.Correction>
0.0118

> <Gold.Rescore>
     Score         DG    S(hbond)    S(metal)    S(lipo)     H(rot)  DE(clash)    DE(int)     intcor
      8.02     -10.53       2.59        0.00      30.46       2.80       0.72       1.79       ----

> <Gold.Chemscore.Fitness>
8.0167

> <Gold.Chemscore.DG>
-10.5289

> <Gold.Chemscore.ZeroCoef>
-5.4800

> <Gold.Chemscore.Hbond>
2.5887

> <Gold.Chemscore.Metal>
0.0000

> <Gold.Chemscore.Lipo>
30.4589

> <Gold.Chemscore.Internal_Hbond>
0.0000

> <Gold.Chemscore.DEClash>
0.7243

> <Gold.Chemscore.DEInternal>
1.7878

> <Gold.Chemscore.Rot>
2.7973

> <Gold.Chemscore.Internal.Correction>
   9.000000E+99

> <Gold.Chemscore.Hbonds>
donor molecule, donor type, donor heavy atom, donor atom, acceptor molecule, acceptor atom, score
      L1  H    13    24       P1  8028  0.89
      P1  H  7989  7998       L1    10  0.07
      P1  H  7997  8009       L1     3  0.96
      P1  H  8011  8017       L1    12  0.30

> <Gold.Chemscore.Hbond.Weighted>
-8.6463

> <Gold.Chemscore.Metal.Weighted>
-0.0000

> <Gold.Chemscore.Lipo.Weighted>
-3.5637

> <Gold.Chemscore.Internal_Hbond.Weighted>
0.0000

> <Gold.Chemscore.DEClash.Weighted>
0.7243

> <Gold.Chemscore.DEInternal.Weighted>
1.7878

> <Gold.Chemscore.Rot.Weighted>
7.1611

> <Gold.Chemscore.Internal.Correction.Weighted>
   9.000000E+99

> <Gold.Protein.RotatedTorsions>
[ 6907 6896 6895 6894 ] final -126.88 input  -60.11 | X-H torsion
[ 7974 7965 7964 7962 ] final  -84.33 input  175.53 | X-H torsion
[ 8008 7997 7996 7995 ] final   81.84 input   59.86 | X-H torsion
[ 10167 10162 10161 10158 ] final -104.21 input  -65.29 | X-H torsion
[ 10718 10713 10712 10709 ] final  123.97 input   66.30 | X-H torsion
[ 10763 10752 10751 10750 ] final  151.07 input  -60.55 | X-H torsion
[ 11005 11000 10999 10996 ] final  175.45 input  -57.11 | X-H torsion

> <Gold.Protein.ActiveResidues>
 VAL166  LYS551  ARG553  GLY616  TRP617  ASP618  TYR619  PRO620  LYS621  CYS622 
 ASP623  PHE694  ASN695  SER759  ASP760  ASP761  ALA762  ILE779  LEU786  VAL792 
 PHE793  MET794  SER795  GLU796  ALA797  LYS798  CYS799  TRP800  GLU811  SER814 

> <Gold.Protein.RotatedAtoms>
  150.9015  133.7113  159.2877 H   0  0  0  0  0  0  0  0  0  0  0  0  # atno 6907 bound_to 6896
  151.4630  135.1038  159.9739 H   0  0  0  0  0  0  0  0  0  0  0  0  # atno 6908 bound_to 6896
  152.4879  133.8373  159.7190 H   0  0  0  0  0  0  0  0  0  0  0  0  # atno 6909 bound_to 6896
  145.5080  140.9542  143.1723 H   0  0  0  0  0  0  0  0  0  0  0  0  # atno 7974 bound_to 7965
  155.9026  140.3432  155.6037 H   0  0  0  0  0  0  0  0  0  0  0  0  # atno 8008 bound_to 7997
  155.7482  140.0816  157.2232 H   0  0  0  0  0  0  0  0  0  0  0  0  # atno 8009 bound_to 7997
  154.4045  140.1558  156.2681 H   0  0  0  0  0  0  0  0  0  0  0  0  # atno 8010 bound_to 7997
  140.2117  143.3741  152.1045 H   0  0  0  0  0  0  0  0  0  0  0  0  # atno 10167 bound_to 10162
  157.5622  131.1089  150.8518 H   0  0  0  0  0  0  0  0  0  0  0  0  # atno 10718 bound_to 10713
  154.0978  135.2848  155.3258 H   0  0  0  0  0  0  0  0  0  0  0  0  # atno 10763 bound_to 10752
  154.6576  135.5346  153.7982 H   0  0  0  0  0  0  0  0  0  0  0  0  # atno 10764 bound_to 10752
  153.0390  135.6526  154.1143 H   0  0  0  0  0  0  0  0  0  0  0  0  # atno 10765 bound_to 10752
  140.3623  134.7102  157.4339 H   0  0  0  0  0  0  0  0  0  0  0  0  # atno 11005 bound_to 11000
  144.7743  139.6665  143.7181 LP  0  0  0  0  0  0  0  0  0  0  0  0  # atno 17320 bound_to 7965
  146.2184  139.5591  142.9635 LP  0  0  0  0  0  0  0  0  0  0  0  0  # atno 17321 bound_to 7965
  139.5177  144.6996  151.5532 LP  0  0  0  0  0  0  0  0  0  0  0  0  # atno 17342 bound_to 10162
  140.6319  143.9060  150.6613 LP  0  0  0  0  0  0  0  0  0  0  0  0  # atno 17343 bound_to 10162
  156.9012  130.5247  149.5282 LP  0  0  0  0  0  0  0  0  0  0  0  0  # atno 17370 bound_to 10713
  156.0674  130.5714  150.9315 LP  0  0  0  0  0  0  0  0  0  0  0  0  # atno 17371 bound_to 10713
  140.0617  134.5986  155.8741 LP  0  0  0  0  0  0  0  0  0  0  0  0  # atno 17394 bound_to 11000
  141.1980  133.6599  156.5771 LP  0  0  0  0  0  0  0  0  0  0  0  0  # atno 17395 bound_to 11000

$$$$
