AV-unprocessed.smi:3339|AV-procd|sdf|12877|dock3
  -GOLD-   2272019283D 1   1.00000     0.00000
 Structure written by MMmdl.
 39 40  0  0  0  0  0  0  0  0  1 V2000
  147.0975  140.8492  153.2239 C   0  0  0  0  0  0  0  0  0  0  0  0
  147.6948  139.4641  153.4980 C   0  0  0  0  0  0  0  0  0  0  0  0
  146.5968  138.3925  153.6015 C   0  0  0  0  0  0  0  0  0  0  0  0
  148.4262  139.5594  154.7139 O   0  0  0  0  0  0  0  0  0  0  0  0
  149.5006  140.4891  154.6904 C   0  0  0  0  0  0  0  0  0  0  0  0
  149.9750  140.7363  156.1326 C   0  0  2  0  0  0  0  0  0  0  0  0
  148.8389  141.1022  156.8907 O   0  0  0  0  0  0  0  0  0  0  0  0
  150.9904  141.8948  156.2143 C   0  0  0  0  0  0  0  0  0  0  0  0
  151.6208  141.9660  157.5312 N   0  0  0  0  0  0  0  0  0  0  0  0
  152.3512  140.9959  158.1300 C   0  0  0  0  0  0  0  0  0  0  0  0
  152.6031  139.8873  157.6586 O   0  0  0  0  0  0  0  0  0  0  0  0
  152.7695  141.4657  159.3284 N   0  0  0  0  0  0  0  0  0  0  0  0
  153.5974  140.7639  160.3018 C   0  0  0  0  0  0  0  0  0  0  0  0
  152.3142  142.7804  159.4915 C   0  0  0  0  0  0  0  0  0  0  0  0
  152.4954  143.6971  160.5411 C   0  0  0  0  0  0  0  0  0  0  0  0
  151.9025  144.9732  160.3933 C   0  0  0  0  0  0  0  0  0  0  0  0
  151.1612  145.3002  159.2278 C   0  0  0  0  0  0  0  0  0  0  0  0
  150.9953  144.3576  158.1859 C   0  0  0  0  0  0  0  0  0  0  0  0
  151.5921  143.0967  158.3603 C   0  0  0  0  0  0  0  0  0  0  0  0
  146.5396  140.8595  152.2871 H   0  0  0  0  0  0  0  0  0  0  0  0
  147.8813  141.6038  153.1505 H   0  0  0  0  0  0  0  0  0  0  0  0
  146.4184  141.1518  154.0217 H   0  0  0  0  0  0  0  0  0  0  0  0
  148.3694  139.2195  152.6757 H   0  0  0  0  0  0  0  0  0  0  0  0
  145.9847  138.3752  152.6994 H   0  0  0  0  0  0  0  0  0  0  0  0
  145.9367  138.5866  154.4473 H   0  0  0  0  0  0  0  0  0  0  0  0
  147.0136  137.3935  153.7253 H   0  0  0  0  0  0  0  0  0  0  0  0
  150.3165  140.0623  154.1076 H   0  0  0  0  0  0  0  0  0  0  0  0
  149.2131  141.4233  154.2042 H   0  0  0  0  0  0  0  0  0  0  0  0
  150.4144  139.8212  156.5324 H   0  0  0  0  0  0  0  0  0  0  0  0
  148.8507  140.6194  157.7032 H   0  0  0  0  0  0  0  0  0  0  0  0
  151.7878  141.7454  155.4858 H   0  0  0  0  0  0  0  0  0  0  0  0
  150.5265  142.8459  155.9470 H   0  0  0  0  0  0  0  0  0  0  0  0
  153.2201  140.9234  161.3123 H   0  0  0  0  0  0  0  0  0  0  0  0
  154.6222  141.1326  160.2562 H   0  0  0  0  0  0  0  0  0  0  0  0
  153.6142  139.6884  160.1197 H   0  0  0  0  0  0  0  0  0  0  0  0
  153.0643  143.4424  161.4231 H   0  0  0  0  0  0  0  0  0  0  0  0
  152.0175  145.7083  161.1762 H   0  0  0  0  0  0  0  0  0  0  0  0
  150.7199  146.2816  159.1341 H   0  0  0  0  0  0  0  0  0  0  0  0
  150.4362  144.6019  157.2946 H   0  0  0  0  0  0  0  0  0  0  0  0
  1  2  1  0  0  0  0
  1 20  1  0  0  0  0
  1 21  1  0  0  0  0
  1 22  1  0  0  0  0
  2  3  1  0  0  0  0
  2  4  1  0  0  0  0
  2 23  1  0  0  0  0
  3 24  1  0  0  0  0
  3 25  1  0  0  0  0
  3 26  1  0  0  0  0
  4  5  1  0  0  0  0
  5  6  1  0  0  0  0
  5 27  1  0  0  0  0
  5 28  1  0  0  0  0
  6  7  1  0  0  0  0
  6  8  1  0  0  0  0
  6 29  1  0  0  0  0
  7 30  1  0  0  0  0
  8  9  1  0  0  0  0
  8 31  1  0  0  0  0
  8 32  1  0  0  0  0
  9 19  1  0  0  0  0
  9 10  1  0  0  0  0
 10 11  2  0  0  0  0
 10 12  1  0  0  0  0
 12 13  1  0  0  0  0
 12 14  1  0  0  0  0
 13 33  1  0  0  0  0
 13 34  1  0  0  0  0
 13 35  1  0  0  0  0
 14 19  2  0  0  0  0
 14 15  1  0  0  0  0
 15 16  2  0  0  0  0
 15 36  1  0  0  0  0
 16 17  1  0  0  0  0
 16 37  1  0  0  0  0
 17 18  2  0  0  0  0
 17 38  1  0  0  0  0
 18 19  1  0  0  0  0
 18 39  1  0  0  0  0
M  END
> <s_m_source_file>
AV-unprocessed.smi

> <i_m_source_file_index>
3339

> <i_lp_mmshare_version>
43012

> <i_f3d_flags>
0

> <s_epik_input>
W0NIM11bQ0hdKFtDSDNdKU9bQ0gyXVtDQEhdKFtPSF0pW0NIMl1uKGMoPU8pbjFbQ0gzXSljKGMxMilbY0hdW2NIXVtjSF1bY0hdMg==

> <s_epik_cmdline>
J2VwaWtfcHl0aG9uJywgJy1waCcsICc3LjAnLCAnLXRuJywgJzgnLCAnLW1hJywgJzIwMCcsICctbWV0YWxfYmluZGluZycsICctaW1hZScsICc8aW5maWxlLm1hZT4nLCAnLW9tYWUnLCAnPG91dGZpbGUubWFlPic=

> <r_lp_tautomer_probability>
1

> <r_epik_Ionization_Penalty>
3.68683e-07

> <r_epik_Ionization_Penalty_Charging>
2.29158e-09

> <r_epik_Ionization_Penalty_Neutral>
3.66391e-07

> <r_epik_State_Penalty>
-0

> <r_epik_Charging_Adjusted_Penalty>
2.29158e-09

> <i_epik_Tot_Q>
0

> <i_epik_Tot_abs_Q>
0

> <r_epik_Metal_State_Penalty>
-0

> <b_epik_Metal_Only>
0

> <s_lp_Force_Field>
OPLS_2005

> <r_lp_Energy>
41.4945

> <b_lp_Chiralities_Consistent>
1

> <s_lp_Variant>
AV-unprocessed.smi:3339-1

> <Gold.Version>
5.8.1

> <Gold.Id.Protein>
6NUR|6NUR_protein|mol2

> <Gold.PLP.Fitness>
44.8104

> <Gold.PLP.PLP>
-42.0657

> <Gold.PLP.part.hbond>
-1.0000

> <Gold.PLP.part.metal>
0.0000

> <Gold.PLP.part.buried>
-4.5854

> <Gold.PLP.part.nonpolar>
-35.8036

> <Gold.PLP.part.repulsive>
0.0939

> <Gold.PLP.ligand.clash>
0.0000

> <Gold.PLP.ligand.torsion>
0.1514

> <Gold.PLP.Chemscore.Hbond>
0.9913

> <Gold.PLP.Chemscore.CHOScore>
0.0000

> <Gold.PLP.Chemscore.Metal>
0.0000

> <Gold.Chemscore.Hbonds>
donor molecule, donor type, donor heavy atom, donor atom, acceptor molecule, acceptor atom, score
      P1  H  7997  8010       L1    11  0.98

> <Gold.PLP.Chemscore.Internal.Correction>
0.0738

> <Gold.Rescore>
     Score         DG    S(hbond)    S(metal)    S(lipo)     H(rot)  DE(clash)    DE(int)     intcor
     16.56     -16.91       0.90        0.00     118.47       2.13       0.20       0.14       ----

> <Gold.Chemscore.Fitness>
16.5597

> <Gold.Chemscore.DG>
-16.9051

> <Gold.Chemscore.ZeroCoef>
-5.4800

> <Gold.Chemscore.Hbond>
0.9045

> <Gold.Chemscore.Metal>
0.0000

> <Gold.Chemscore.Lipo>
118.4667

> <Gold.Chemscore.Internal_Hbond>
0.0000

> <Gold.Chemscore.DEClash>
0.2030

> <Gold.Chemscore.DEInternal>
0.1425

> <Gold.Chemscore.Rot>
2.1314

> <Gold.Chemscore.Internal.Correction>
   9.000000E+99

> <Gold.Chemscore.Hbonds>
donor molecule, donor type, donor heavy atom, donor atom, acceptor molecule, acceptor atom, score
      P1  H  7997  8010       L1    11  0.46

> <Gold.Chemscore.Hbond.Weighted>
-3.0209

> <Gold.Chemscore.Metal.Weighted>
-0.0000

> <Gold.Chemscore.Lipo.Weighted>
-13.8606

> <Gold.Chemscore.Internal_Hbond.Weighted>
0.0000

> <Gold.Chemscore.DEClash.Weighted>
0.2030

> <Gold.Chemscore.DEInternal.Weighted>
0.1425

> <Gold.Chemscore.Rot.Weighted>
5.4564

> <Gold.Chemscore.Internal.Correction.Weighted>
   9.000000E+99

> <Gold.Protein.RotatedTorsions>
[ 6907 6896 6895 6894 ] final   -0.15 input  -60.11 | X-H torsion
[ 7974 7965 7964 7962 ] final -113.95 input  175.53 | X-H torsion
[ 8008 7997 7996 7995 ] final   44.65 input   59.86 | X-H torsion
[ 10167 10162 10161 10158 ] final   14.65 input  -65.29 | X-H torsion
[ 10718 10713 10712 10709 ] final   90.06 input   66.30 | X-H torsion
[ 10763 10752 10751 10750 ] final  -31.24 input  -60.55 | X-H torsion
[ 11005 11000 10999 10996 ] final   86.32 input  -57.11 | X-H torsion

> <Gold.Protein.ActiveResidues>
 VAL166  LYS551  ARG553  GLY616  TRP617  ASP618  TYR619  PRO620  LYS621  CYS622 
 ASP623  PHE694  ASN695  SER759  ASP760  ASP761  ALA762  ILE779  LEU786  VAL792 
 PHE793  MET794  SER795  GLU796  ALA797  LYS798  CYS799  TRP800  GLU811  SER814 

> <Gold.Protein.RotatedAtoms>
  151.5669  135.1064  159.9985 H   0  0  0  0  0  0  0  0  0  0  0  0  # atno 6907 bound_to 6896
  152.4419  133.7461  159.6678 H   0  0  0  0  0  0  0  0  0  0  0  0  # atno 6908 bound_to 6896
  150.8327  133.7996  159.3116 H   0  0  0  0  0  0  0  0  0  0  0  0  # atno 6909 bound_to 6896
  145.1259  140.8697  143.3786 H   0  0  0  0  0  0  0  0  0  0  0  0  # atno 7974 bound_to 7965
  155.3228  140.3398  155.4241 H   0  0  0  0  0  0  0  0  0  0  0  0  # atno 8008 bound_to 7997
  156.1900  140.1694  156.8147 H   0  0  0  0  0  0  0  0  0  0  0  0  # atno 8009 bound_to 7997
  154.5431  140.0721  156.8527 H   0  0  0  0  0  0  0  0  0  0  0  0  # atno 8010 bound_to 7997
  140.5921  143.8774  150.6883 H   0  0  0  0  0  0  0  0  0  0  0  0  # atno 10167 bound_to 10162
  157.6958  131.0356  150.3520 H   0  0  0  0  0  0  0  0  0  0  0  0  # atno 10718 bound_to 10713
  153.7942  135.6895  153.4866 H   0  0  0  0  0  0  0  0  0  0  0  0  # atno 10763 bound_to 10752
  153.1730  135.4535  154.9926 H   0  0  0  0  0  0  0  0  0  0  0  0  # atno 10764 bound_to 10752
  154.8032  135.3346  154.7435 H   0  0  0  0  0  0  0  0  0  0  0  0  # atno 10765 bound_to 10752
  139.8948  134.8347  156.2704 H   0  0  0  0  0  0  0  0  0  0  0  0  # atno 11005 bound_to 11000
  145.0688  139.3047  143.5842 LP  0  0  0  0  0  0  0  0  0  0  0  0  # atno 17320 bound_to 7965
  146.3517  140.0156  142.8663 LP  0  0  0  0  0  0  0  0  0  0  0  0  # atno 17321 bound_to 7965
  140.2299  143.3743  152.1574 LP  0  0  0  0  0  0  0  0  0  0  0  0  # atno 17342 bound_to 10162
  139.5234  144.7071  151.5320 LP  0  0  0  0  0  0  0  0  0  0  0  0  # atno 17343 bound_to 10162
  156.3967  130.3908  149.6989 LP  0  0  0  0  0  0  0  0  0  0  0  0  # atno 17370 bound_to 10713
  156.4320  130.7820  151.2840 LP  0  0  0  0  0  0  0  0  0  0  0  0  # atno 17371 bound_to 10713
  141.0105  133.7098  156.1103 LP  0  0  0  0  0  0  0  0  0  0  0  0  # atno 17394 bound_to 11000
  140.7374  134.4187  157.5559 LP  0  0  0  0  0  0  0  0  0  0  0  0  # atno 17395 bound_to 11000

$$$$
