AV-unprocessed.smi:1605|AV-procd|sdf|6457|dock8
  -GOLD-   22720 7113D 1   1.00000     0.00000
 Structure written by MMmdl.
 52 54  0  0  0  0  0  0  0  0  3 V2000
  143.5651  133.1026  151.3583 C   0  0  0  0  0  0  0  0  0  0  0  0
  144.0379  134.4408  151.3491 O   0  0  0  0  0  0  0  0  0  0  0  0
  145.4244  134.5737  151.0569 C   0  0  2  0  0  0  0  0  0  0  0  0
  146.2099  134.2638  152.3404 C   0  0  0  0  0  0  0  0  0  0  0  0
  145.9829  135.3375  153.4194 C   0  0  0  0  0  0  0  0  0  0  0  0
  146.3243  136.6922  152.9144 N   0  3  2  0  0  0  0  0  0  0  0  0
  146.2375  137.7285  153.9757 C   0  0  0  0  0  0  0  0  0  0  0  0
  147.2695  138.8579  153.7853 C   0  0  2  0  0  0  0  0  0  0  0  0
  147.9466  138.6478  152.5614 O   0  0  0  0  0  0  0  0  0  0  0  0
  148.2911  138.8996  154.9386 C   0  0  0  0  0  0  0  0  0  0  0  0
  148.6937  140.2687  155.2943 N   0  0  0  0  0  0  0  0  0  0  0  0
  148.3991  141.4461  154.6781 C   0  0  0  0  0  0  0  0  0  0  0  0
  149.0018  142.4421  155.3842 N   0  3  0  0  0  0  0  0  0  0  0  0
  149.6893  141.8946  156.4694 C   0  0  0  0  0  0  0  0  0  0  0  0
  150.4483  142.4999  157.4638 C   0  0  0  0  0  0  0  0  0  0  0  0
  151.0238  141.6558  158.4400 C   0  0  0  0  0  0  0  0  0  0  0  0
  151.8607  142.2854  159.5409 C   0  0  0  0  0  0  0  0  0  0  0  0
  150.8272  140.2512  158.3975 C   0  0  0  0  0  0  0  0  0  0  0  0
  151.4442  139.3535  159.4566 C   0  0  0  0  0  0  0  0  0  0  0  0
  150.0555  139.6545  157.3749 C   0  0  0  0  0  0  0  0  0  0  0  0
  149.4940  140.5003  156.4206 C   0  0  0  0  0  0  0  0  0  0  0  0
  145.5440  137.0338  151.6949 C   0  0  0  0  0  0  0  0  0  0  0  0
  145.7704  135.9975  150.5810 C   0  0  0  0  0  0  0  0  0  0  0  0
  142.5096  133.0944  151.6294 H   0  0  0  0  0  0  0  0  0  0  0  0
  144.1011  132.4993  152.0917 H   0  0  0  0  0  0  0  0  0  0  0  0
  143.6582  132.6308  150.3806 H   0  0  0  0  0  0  0  0  0  0  0  0
  145.7082  133.8459  150.2949 H   0  0  0  0  0  0  0  0  0  0  0  0
  145.9263  133.2831  152.7237 H   0  0  0  0  0  0  0  0  0  0  0  0
  147.2741  134.2051  152.1087 H   0  0  0  0  0  0  0  0  0  0  0  0
  144.9450  135.3243  153.7560 H   0  0  0  0  0  0  0  0  0  0  0  0
  146.5998  135.1024  154.2876 H   0  0  0  0  0  0  0  0  0  0  0  0
  145.2242  138.1327  153.9999 H   0  0  0  0  0  0  0  0  0  0  0  0
  146.4032  137.2737  154.9540 H   0  0  0  0  0  0  0  0  0  0  0  0
  146.7710  139.8256  153.7342 H   0  0  0  0  0  0  0  0  0  0  0  0
  148.4904  137.8791  152.6470 H   0  0  0  0  0  0  0  0  0  0  0  0
  147.8555  138.4537  155.8338 H   0  0  0  0  0  0  0  0  0  0  0  0
  149.1776  138.3088  154.7072 H   0  0  0  0  0  0  0  0  0  0  0  0
  147.7962  141.5694  153.7900 H   0  0  0  0  0  0  0  0  0  0  0  0
  150.5927  143.5703  157.4909 H   0  0  0  0  0  0  0  0  0  0  0  0
  151.4096  142.1028  160.5163 H   0  0  0  0  0  0  0  0  0  0  0  0
  151.9464  143.3643  159.4094 H   0  0  0  0  0  0  0  0  0  0  0  0
  152.8688  141.8707  159.5425 H   0  0  0  0  0  0  0  0  0  0  0  0
  151.1794  138.3078  159.2974 H   0  0  0  0  0  0  0  0  0  0  0  0
  151.0942  139.6365  160.4497 H   0  0  0  0  0  0  0  0  0  0  0  0
  152.5317  139.4283  159.4370 H   0  0  0  0  0  0  0  0  0  0  0  0
  149.9135  138.5844  157.3430 H   0  0  0  0  0  0  0  0  0  0  0  0
  144.4829  137.0896  151.9434 H   0  0  0  0  0  0  0  0  0  0  0  0
  145.8304  138.0172  151.3240 H   0  0  0  0  0  0  0  0  0  0  0  0
  146.8162  136.0281  150.2725 H   0  0  0  0  0  0  0  0  0  0  0  0
  145.1930  136.2659  149.6970 H   0  0  0  0  0  0  0  0  0  0  0  0
  147.2968  136.6511  152.6428 H   0  0  0  0  0  0  0  0  0  0  0  0
  148.9447  143.4234  155.1425 H   0  0  0  0  0  0  0  0  0  0  0  0
  1  2  1  0  0  0  0
  1 24  1  0  0  0  0
  1 25  1  0  0  0  0
  1 26  1  0  0  0  0
  2  3  1  0  0  0  0
  3 23  1  0  0  0  0
  3  4  1  0  0  0  0
  3 27  1  0  0  0  0
  4  5  1  0  0  0  0
  4 28  1  0  0  0  0
  4 29  1  0  0  0  0
  5  6  1  0  0  0  0
  5 30  1  0  0  0  0
  5 31  1  0  0  0  0
  6  7  1  0  0  0  0
  6 22  1  0  0  0  0
  6 51  1  0  0  0  0
  7  8  1  0  0  0  0
  7 32  1  0  0  0  0
  7 33  1  0  0  0  0
  8  9  1  0  0  0  0
  8 10  1  0  0  0  0
  8 34  1  0  0  0  0
  9 35  1  0  0  0  0
 10 11  1  0  0  0  0
 10 36  1  0  0  0  0
 10 37  1  0  0  0  0
 11 21  1  0  0  0  0
 11 12  1  0  0  0  0
 12 13  2  0  0  0  0
 12 38  1  0  0  0  0
 13 14  1  0  0  0  0
 13 52  1  0  0  0  0
 14 21  2  0  0  0  0
 14 15  1  0  0  0  0
 15 16  2  0  0  0  0
 15 39  1  0  0  0  0
 16 17  1  0  0  0  0
 16 18  1  0  0  0  0
 17 40  1  0  0  0  0
 17 41  1  0  0  0  0
 17 42  1  0  0  0  0
 18 19  1  0  0  0  0
 18 20  2  0  0  0  0
 19 43  1  0  0  0  0
 19 44  1  0  0  0  0
 19 45  1  0  0  0  0
 20 21  1  0  0  0  0
 20 46  1  0  0  0  0
 22 23  1  0  0  0  0
 22 47  1  0  0  0  0
 22 48  1  0  0  0  0
 23 49  1  0  0  0  0
 23 50  1  0  0  0  0
M  CHG  1   6   1
M  CHG  1  13   1
M  END
> <s_m_source_file>
AV-unprocessed.smi

> <i_m_source_file_index>
1605

> <i_lp_mmshare_version>
43012

> <i_f3d_flags>
0

> <s_epik_input>
W0NIM11PW0NIXTFbQ0gyXVtDSDJdTihbQ0gyXVtDSDJdMSlbQ0gyXVtDQEhdKFtPSF0pW0NIMl1uKFtjSF1uMiljKGMyMylbY0hdYyhbQ0gzXSljKFtjSF0zKVtDSDNd

> <s_epik_cmdline>
J2VwaWtfcHl0aG9uJywgJy1waCcsICc3LjAnLCAnLXRuJywgJzgnLCAnLW1hJywgJzIwMCcsICctbWV0YWxfYmluZGluZycsICctaW1hZScsICc8aW5maWxlLm1hZT4nLCAnLW9tYWUnLCAnPG91dGZpbGUubWFlPic=

> <r_epik_Ionization_Penalty>
1.19848

> <r_epik_Ionization_Penalty_Charging>
1.19848

> <r_epik_Ionization_Penalty_Neutral>
1.67134e-06

> <r_epik_State_Penalty>
1.2782

> <r_epik_Charging_Adjusted_Penalty>
2.47668

> <i_epik_Tot_Q>
2

> <i_epik_Tot_abs_Q>
2

> <r_epik_Metal_State_Penalty>
5.29544

> <b_epik_Metal_Only>
0

> <s_lp_Force_Field>
OPLS_2005

> <r_lp_Energy>
31.9375

> <b_lp_Chiralities_Consistent>
1

> <s_lp_Variant>
AV-unprocessed.smi:1605-7

> <Gold.Version>
5.8.1

> <Gold.Id.Protein>
6NUR|6NUR_protein|mol2

> <Gold.PLP.Fitness>
49.7412

> <Gold.PLP.PLP>
-38.3586

> <Gold.PLP.part.hbond>
-3.6134

> <Gold.PLP.part.metal>
0.0000

> <Gold.PLP.part.buried>
-3.0372

> <Gold.PLP.part.nonpolar>
-31.3121

> <Gold.PLP.part.repulsive>
0.3837

> <Gold.PLP.ligand.clash>
0.0000

> <Gold.PLP.ligand.torsion>
1.8192

> <Gold.PLP.Chemscore.Hbond>
4.9840

> <Gold.PLP.Chemscore.CHOScore>
0.0000

> <Gold.PLP.Chemscore.Metal>
0.0000

> <Gold.Chemscore.Hbonds>
donor molecule, donor type, donor heavy atom, donor atom, acceptor molecule, acceptor atom, score
      L1  H     6    51       P1  7948  2.00
      L1  H     9    35       P1  7948  0.88
      L1  H    13    52       P1  8028  1.18

> <Gold.PLP.Chemscore.Internal.Correction>
0.0691

> <Gold.Rescore>
     Score         DG    S(hbond)    S(metal)    S(lipo)     H(rot)  DE(clash)    DE(int)     intcor
     18.50     -20.40       2.95        0.00      93.22       2.28       0.02       1.88       ----

> <Gold.Chemscore.Fitness>
18.4999

> <Gold.Chemscore.DG>
-20.3981

> <Gold.Chemscore.ZeroCoef>
-5.4800

> <Gold.Chemscore.Hbond>
2.9515

> <Gold.Chemscore.Metal>
0.0000

> <Gold.Chemscore.Lipo>
93.2201

> <Gold.Chemscore.Internal_Hbond>
0.0000

> <Gold.Chemscore.DEClash>
0.0197

> <Gold.Chemscore.DEInternal>
1.8785

> <Gold.Chemscore.Rot>
2.2839

> <Gold.Chemscore.Internal.Correction>
   9.000000E+99

> <Gold.Chemscore.Hbonds>
donor molecule, donor type, donor heavy atom, donor atom, acceptor molecule, acceptor atom, score
      L1  H     6    51       P1  7948  1.00
      L1  H     9    35       P1  7948  0.86
      L1  H    13    52       P1  8028  0.56

> <Gold.Chemscore.Hbond.Weighted>
-9.8582

> <Gold.Chemscore.Metal.Weighted>
-0.0000

> <Gold.Chemscore.Lipo.Weighted>
-10.9068

> <Gold.Chemscore.Internal_Hbond.Weighted>
0.0000

> <Gold.Chemscore.DEClash.Weighted>
0.0197

> <Gold.Chemscore.DEInternal.Weighted>
1.8785

> <Gold.Chemscore.Rot.Weighted>
5.8469

> <Gold.Chemscore.Internal.Correction.Weighted>
   9.000000E+99

> <Gold.Protein.RotatedTorsions>
[ 6907 6896 6895 6894 ] final   36.36 input  -60.11 | X-H torsion
[ 7974 7965 7964 7962 ] final -146.82 input  175.53 | X-H torsion
[ 8008 7997 7996 7995 ] final  -25.16 input   59.86 | X-H torsion
[ 10167 10162 10161 10158 ] final -105.46 input  -65.29 | X-H torsion
[ 10718 10713 10712 10709 ] final -174.55 input   66.30 | X-H torsion
[ 10763 10752 10751 10750 ] final  101.90 input  -60.55 | X-H torsion
[ 11005 11000 10999 10996 ] final -136.96 input  -57.11 | X-H torsion

> <Gold.Protein.ActiveResidues>
 VAL166  LYS551  ARG553  GLY616  TRP617  ASP618  TYR619  PRO620  LYS621  CYS622 
 ASP623  PHE694  ASN695  SER759  ASP760  ASP761  ALA762  ILE779  LEU786  VAL792 
 PHE793  MET794  SER795  GLU796  ALA797  LYS798  CYS799  TRP800  GLU811  SER814 

> <Gold.Protein.RotatedAtoms>
  152.1287  134.9151  160.0559 H   0  0  0  0  0  0  0  0  0  0  0  0  # atno 6907 bound_to 6896
  152.0264  133.3914  159.4287 H   0  0  0  0  0  0  0  0  0  0  0  0  # atno 6908 bound_to 6896
  150.6854  134.3490  159.4944 H   0  0  0  0  0  0  0  0  0  0  0  0  # atno 6909 bound_to 6896
  144.8134  140.5406  143.5627 H   0  0  0  0  0  0  0  0  0  0  0  0  # atno 7974 bound_to 7965
  154.4490  140.1934  156.0576 H   0  0  0  0  0  0  0  0  0  0  0  0  # atno 8008 bound_to 7997
  156.0607  140.3297  155.7431 H   0  0  0  0  0  0  0  0  0  0  0  0  # atno 8009 bound_to 7997
  155.5416  140.0587  157.2859 H   0  0  0  0  0  0  0  0  0  0  0  0  # atno 8010 bound_to 7997
  140.1983  143.3838  152.1151 H   0  0  0  0  0  0  0  0  0  0  0  0  # atno 10167 bound_to 10162
  156.7867  130.9503  151.3120 H   0  0  0  0  0  0  0  0  0  0  0  0  # atno 10718 bound_to 10713
  153.3326  135.4029  155.1507 H   0  0  0  0  0  0  0  0  0  0  0  0  # atno 10763 bound_to 10752
  154.8626  135.3614  154.5451 H   0  0  0  0  0  0  0  0  0  0  0  0  # atno 10764 bound_to 10752
  153.5890  135.7074  153.5490 H   0  0  0  0  0  0  0  0  0  0  0  0  # atno 10765 bound_to 10752
  140.8756  134.1996  157.4623 H   0  0  0  0  0  0  0  0  0  0  0  0  # atno 11005 bound_to 11000
  145.5271  139.1476  143.3520 LP  0  0  0  0  0  0  0  0  0  0  0  0  # atno 17320 bound_to 7965
  146.2435  140.5412  142.8924 LP  0  0  0  0  0  0  0  0  0  0  0  0  # atno 17321 bound_to 7965
  139.5228  144.7063  151.5344 LP  0  0  0  0  0  0  0  0  0  0  0  0  # atno 17342 bound_to 10162
  140.6408  143.8892  150.6690 LP  0  0  0  0  0  0  0  0  0  0  0  0  # atno 17343 bound_to 10162
  157.6620  130.8974  149.9850 LP  0  0  0  0  0  0  0  0  0  0  0  0  # atno 17370 bound_to 10713
  156.1184  130.3647  149.9929 LP  0  0  0  0  0  0  0  0  0  0  0  0  # atno 17371 bound_to 10713
  139.8715  134.9794  156.5036 LP  0  0  0  0  0  0  0  0  0  0  0  0  # atno 17394 bound_to 11000
  140.8521  133.8124  155.9179 LP  0  0  0  0  0  0  0  0  0  0  0  0  # atno 17395 bound_to 11000

$$$$
