AV-unprocessed.smi:447|AV-procd|sdf|2603|dock2
  -GOLD-   2262023 03D 1   1.00000     0.00000
 Structure written by MMmdl.
 46 48  0  0  0  0  0  0  0  0  2 V2000
  147.0239  140.2216  153.1868 C   0  0  0  0  0  0  0  0  0  0  0  0
  146.5736  139.0768  154.0879 C   0  0  0  0  0  0  0  0  0  0  0  0
  146.4601  139.2559  155.2999 O   0  0  0  0  0  0  0  0  0  0  0  0
  146.3219  137.9043  153.4850 N   0  0  0  0  0  0  0  0  0  0  0  0
  145.9099  136.6805  154.1677 C   0  0  2  0  0  0  0  0  0  0  0  0
  147.0054  136.2372  155.1459 C   0  0  0  0  0  0  0  0  0  0  0  0
  145.5809  135.5727  153.2088 C   0  0  0  0  0  0  0  0  0  0  0  0
  146.4081  135.0713  152.2468 N   0  3  0  0  0  0  0  0  0  0  0  0
  145.7597  134.0536  151.5472 C   0  0  0  0  0  0  0  0  0  0  0  0
  146.1893  133.2602  150.4876 C   0  0  0  0  0  0  0  0  0  0  0  0
  145.2707  132.3102  149.9952 C   0  0  0  0  0  0  0  0  0  0  0  0
  143.9826  132.1775  150.5529 C   0  0  0  0  0  0  0  0  0  0  0  0
  143.5600  132.9855  151.6289 C   0  0  0  0  0  0  0  0  0  0  0  0
  144.4749  133.9210  152.1121 C   0  0  0  0  0  0  0  0  0  0  0  0
  144.4127  134.8709  153.1393 N   0  0  0  0  0  0  0  0  0  0  0  0
  143.1873  134.9889  153.9464 C   0  0  0  0  0  0  0  0  0  0  0  0
  141.9073  135.0317  153.0881 C   0  0  1  0  0  0  0  0  0  0  0  0
  141.1492  133.8537  153.2825 O   0  0  0  0  0  0  0  0  0  0  0  0
  141.0972  136.2870  153.3667 C   0  0  0  0  0  0  0  0  0  0  0  0
  141.6748  137.5653  153.2024 C   0  0  0  0  0  0  0  0  0  0  0  0
  140.9170  138.7246  153.4590 C   0  0  0  0  0  0  0  0  0  0  0  0
  139.5777  138.6123  153.8785 C   0  0  0  0  0  0  0  0  0  0  0  0
  138.9953  137.3402  154.0388 C   0  0  0  0  0  0  0  0  0  0  0  0
  139.7527  136.1805  153.7825 C   0  0  0  0  0  0  0  0  0  0  0  0
  146.5808  140.1392  152.1937 H   0  0  0  0  0  0  0  0  0  0  0  0
  148.1091  140.2133  153.0824 H   0  0  0  0  0  0  0  0  0  0  0  0
  146.7276  141.1815  153.6113 H   0  0  0  0  0  0  0  0  0  0  0  0
  146.4445  137.8501  152.4841 H   0  0  0  0  0  0  0  0  0  0  0  0
  145.0183  136.9146  154.7507 H   0  0  0  0  0  0  0  0  0  0  0  0
  146.6947  135.3545  155.7059 H   0  0  0  0  0  0  0  0  0  0  0  0
  147.2272  137.0227  155.8688 H   0  0  0  0  0  0  0  0  0  0  0  0
  147.9317  135.9920  154.6250 H   0  0  0  0  0  0  0  0  0  0  0  0
  147.1744  133.3625  150.0563 H   0  0  0  0  0  0  0  0  0  0  0  0
  145.5579  131.6725  149.1717 H   0  0  0  0  0  0  0  0  0  0  0  0
  143.3034  131.4419  150.1470 H   0  0  0  0  0  0  0  0  0  0  0  0
  142.5681  132.8787  152.0424 H   0  0  0  0  0  0  0  0  0  0  0  0
  143.1523  134.1763  154.6722 H   0  0  0  0  0  0  0  0  0  0  0  0
  143.2735  135.9055  154.5312 H   0  0  0  0  0  0  0  0  0  0  0  0
  142.1939  135.0424  152.0366 H   0  0  0  0  0  0  0  0  0  0  0  0
  141.6921  133.2201  153.7264 H   0  0  0  0  0  0  0  0  0  0  0  0
  142.7008  137.6607  152.8782 H   0  0  0  0  0  0  0  0  0  0  0  0
  141.3637  139.6999  153.3336 H   0  0  0  0  0  0  0  0  0  0  0  0
  138.9970  139.5012  154.0761 H   0  0  0  0  0  0  0  0  0  0  0  0
  137.9673  137.2534  154.3583 H   0  0  0  0  0  0  0  0  0  0  0  0
  139.2966  135.2092  153.9070 H   0  0  0  0  0  0  0  0  0  0  0  0
  147.3463  135.4105  152.0786 H   0  0  0  0  0  0  0  0  0  0  0  0
  1  2  1  0  0  0  0
  1 25  1  0  0  0  0
  1 26  1  0  0  0  0
  1 27  1  0  0  0  0
  2  3  2  0  0  0  0
  2  4  1  0  0  0  0
  4  5  1  0  0  0  0
  4 28  1  0  0  0  0
  5  6  1  0  0  0  0
  5  7  1  0  0  0  0
  5 29  1  0  0  0  0
  6 30  1  0  0  0  0
  6 31  1  0  0  0  0
  6 32  1  0  0  0  0
  7 15  1  0  0  0  0
  7  8  2  0  0  0  0
  8  9  1  0  0  0  0
  8 46  1  0  0  0  0
  9 14  2  0  0  0  0
  9 10  1  0  0  0  0
 10 11  2  0  0  0  0
 10 33  1  0  0  0  0
 11 12  1  0  0  0  0
 11 34  1  0  0  0  0
 12 13  2  0  0  0  0
 12 35  1  0  0  0  0
 13 14  1  0  0  0  0
 13 36  1  0  0  0  0
 14 15  1  0  0  0  0
 15 16  1  0  0  0  0
 16 17  1  0  0  0  0
 16 37  1  0  0  0  0
 16 38  1  0  0  0  0
 17 18  1  0  0  0  0
 17 19  1  0  0  0  0
 17 39  1  0  0  0  0
 18 40  1  0  0  0  0
 19 24  1  0  0  0  0
 19 20  2  0  0  0  0
 20 21  1  0  0  0  0
 20 41  1  0  0  0  0
 21 22  2  0  0  0  0
 21 42  1  0  0  0  0
 22 23  1  0  0  0  0
 22 43  1  0  0  0  0
 23 24  2  0  0  0  0
 23 44  1  0  0  0  0
 24 45  1  0  0  0  0
M  CHG  1   8   1
M  END
> <s_m_source_file>
AV-unprocessed.smi

> <i_m_source_file_index>
447

> <i_lp_mmshare_version>
43012

> <i_f3d_flags>
0

> <s_epik_input>
W0NIM11DKD1PKVtOSF1bQ0BIXShbQ0gzXSljKG4xKW4oYyhjMTIpW2NIXVtjSF1bY0hdW2NIXTIpW0NIMl1bQ0BIXShbT0hdKWMzW2NIXVtjSF1bY0hdW2NIXVtjSF0z

> <s_epik_cmdline>
J2VwaWtfcHl0aG9uJywgJy1waCcsICc3LjAnLCAnLXRuJywgJzgnLCAnLW1hJywgJzIwMCcsICctbWV0YWxfYmluZGluZycsICctaW1hZScsICc8aW5maWxlLm1hZT4nLCAnLW9tYWUnLCAnPG91dGZpbGUubWFlPic=

> <r_epik_Ionization_Penalty>
0.950381

> <r_epik_Ionization_Penalty_Charging>
0.950379

> <r_epik_Ionization_Penalty_Neutral>
1.42115e-06

> <r_epik_State_Penalty>
0.994584

> <r_epik_Charging_Adjusted_Penalty>
1.94496

> <i_epik_Tot_Q>
1

> <i_epik_Tot_abs_Q>
1

> <r_epik_Metal_State_Penalty>
1.10485

> <b_epik_Metal_Only>
0

> <s_lp_Force_Field>
OPLS_2005

> <r_lp_Energy>
11.1979

> <b_lp_Chiralities_Consistent>
1

> <s_lp_Variant>
AV-unprocessed.smi:447-7

> <Gold.Version>
5.8.1

> <Gold.Id.Protein>
6NUR|6NUR_protein|mol2

> <Gold.PLP.Fitness>
50.3848

> <Gold.PLP.PLP>
-42.9357

> <Gold.PLP.part.hbond>
-2.8334

> <Gold.PLP.part.metal>
0.0000

> <Gold.PLP.part.buried>
-7.1093

> <Gold.PLP.part.nonpolar>
-32.8364

> <Gold.PLP.part.repulsive>
0.0540

> <Gold.PLP.ligand.clash>
0.0000

> <Gold.PLP.ligand.torsion>
0.9650

> <Gold.PLP.Chemscore.Hbond>
3.0827

> <Gold.PLP.Chemscore.CHOScore>
0.0000

> <Gold.PLP.Chemscore.Metal>
0.0000

> <Gold.Chemscore.Hbonds>
donor molecule, donor type, donor heavy atom, donor atom, acceptor molecule, acceptor atom, score
      L1  H     8    46       P1  7948  2.00
      L1  H    18    40       P1 10957  1.00
      P1  H 10995 11001       L1    18  0.13

> <Gold.PLP.Chemscore.Internal.Correction>
0.1312

> <Gold.Rescore>
     Score         DG    S(hbond)    S(metal)    S(lipo)     H(rot)  DE(clash)    DE(int)     intcor
     16.10     -18.20       2.05        0.00     102.91       2.41       0.03       2.07       ----

> <Gold.Chemscore.Fitness>
16.1033

> <Gold.Chemscore.DG>
-18.1998

> <Gold.Chemscore.ZeroCoef>
-5.4800

> <Gold.Chemscore.Hbond>
2.0515

> <Gold.Chemscore.Metal>
0.0000

> <Gold.Chemscore.Lipo>
102.9083

> <Gold.Chemscore.Internal_Hbond>
0.0000

> <Gold.Chemscore.DEClash>
0.0297

> <Gold.Chemscore.DEInternal>
2.0668

> <Gold.Chemscore.Rot>
2.4112

> <Gold.Chemscore.Internal.Correction>
   9.000000E+99

> <Gold.Chemscore.Hbonds>
donor molecule, donor type, donor heavy atom, donor atom, acceptor molecule, acceptor atom, score
      L1  H     8    46       P1  7948  1.00
      L1  H    18    40       P1 10957  0.90
      P1  H 10995 11001       L1    18  0.02

> <Gold.Chemscore.Hbond.Weighted>
-6.8521

> <Gold.Chemscore.Metal.Weighted>
-0.0000

> <Gold.Chemscore.Lipo.Weighted>
-12.0403

> <Gold.Chemscore.Internal_Hbond.Weighted>
0.0000

> <Gold.Chemscore.DEClash.Weighted>
0.0297

> <Gold.Chemscore.DEInternal.Weighted>
2.0668

> <Gold.Chemscore.Rot.Weighted>
6.1727

> <Gold.Chemscore.Internal.Correction.Weighted>
   9.000000E+99

> <Gold.Protein.RotatedTorsions>
[ 6907 6896 6895 6894 ] final -159.09 input  -60.11 | X-H torsion
[ 7974 7965 7964 7962 ] final  -42.63 input  175.53 | X-H torsion
[ 8008 7997 7996 7995 ] final   52.85 input   59.86 | X-H torsion
[ 10167 10162 10161 10158 ] final  -45.80 input  -65.29 | X-H torsion
[ 10718 10713 10712 10709 ] final -160.34 input   66.30 | X-H torsion
[ 10763 10752 10751 10750 ] final   76.65 input  -60.55 | X-H torsion
[ 11005 11000 10999 10996 ] final  121.87 input  -57.11 | X-H torsion

> <Gold.Protein.ActiveResidues>
 VAL166  LYS551  ARG553  GLY616  TRP617  ASP618  TYR619  PRO620  LYS621  CYS622 
 ASP623  PHE694  ASN695  SER759  ASP760  ASP761  ALA762  ILE779  LEU786  VAL792 
 PHE793  MET794  SER795  GLU796  ALA797  LYS798  CYS799  TRP800  GLU811  SER814 

> <Gold.Protein.RotatedAtoms>
  151.3282  133.4011  159.2660 H   0  0  0  0  0  0  0  0  0  0  0  0  # atno 6907 bound_to 6896
  150.9977  134.9297  159.7946 H   0  0  0  0  0  0  0  0  0  0  0  0  # atno 6908 bound_to 6896
  152.5266  134.3247  159.9214 H   0  0  0  0  0  0  0  0  0  0  0  0  # atno 6909 bound_to 6896
  146.0097  140.6979  142.9230 H   0  0  0  0  0  0  0  0  0  0  0  0  # atno 7974 bound_to 7965
  155.4585  140.3461  155.4310 H   0  0  0  0  0  0  0  0  0  0  0  0  # atno 8008 bound_to 7997
  156.1175  140.1478  156.9281 H   0  0  0  0  0  0  0  0  0  0  0  0  # atno 8009 bound_to 7997
  154.4800  140.0873  156.7333 H   0  0  0  0  0  0  0  0  0  0  0  0  # atno 8010 bound_to 7997
  140.6843  143.2862  151.3690 H   0  0  0  0  0  0  0  0  0  0  0  0  # atno 10167 bound_to 10162
  156.5807  130.8728  151.2863 H   0  0  0  0  0  0  0  0  0  0  0  0  # atno 10718 bound_to 10713
  153.0740  135.4943  154.8366 H   0  0  0  0  0  0  0  0  0  0  0  0  # atno 10763 bound_to 10752
  154.7062  135.3011  154.9268 H   0  0  0  0  0  0  0  0  0  0  0  0  # atno 10764 bound_to 10752
  153.9976  135.6770  153.4810 H   0  0  0  0  0  0  0  0  0  0  0  0  # atno 10765 bound_to 10752
  139.9244  134.9640  156.8024 H   0  0  0  0  0  0  0  0  0  0  0  0  # atno 11005 bound_to 11000
  144.6948  140.3377  143.7205 LP  0  0  0  0  0  0  0  0  0  0  0  0  # atno 17320 bound_to 7965
  145.7361  139.1750  143.2402 LP  0  0  0  0  0  0  0  0  0  0  0  0  # atno 17321 bound_to 7965
  139.6190  144.0945  152.2373 LP  0  0  0  0  0  0  0  0  0  0  0  0  # atno 17342 bound_to 10162
  140.0383  144.6027  150.7431 LP  0  0  0  0  0  0  0  0  0  0  0  0  # atno 17343 bound_to 10162
  157.7327  130.9719  150.1941 LP  0  0  0  0  0  0  0  0  0  0  0  0  # atno 17370 bound_to 10713
  156.2634  130.3713  149.8107 LP  0  0  0  0  0  0  0  0  0  0  0  0  # atno 17371 bound_to 10713
  140.6379  133.9845  155.7693 LP  0  0  0  0  0  0  0  0  0  0  0  0  # atno 17394 bound_to 11000
  141.0791  134.0090  157.3414 LP  0  0  0  0  0  0  0  0  0  0  0  0  # atno 17395 bound_to 11000

$$$$
