AV-unprocessed.smi:1492|AV-procd|sdf|6044|dock3
  -GOLD-   22720 6153D 1   1.00000     0.00000
 Structure written by MMmdl.
 51 52  0  0  0  0  0  0  0  0  2 V2000
  147.8702  141.9120  154.7200 C   0  0  0  0  0  0  0  0  0  0  0  0
  149.1758  141.1619  154.4053 C   0  0  0  0  0  0  0  0  0  0  0  0
  149.2882  139.7239  155.0127 C   0  0  1  0  0  0  0  0  0  0  0  0
  147.9233  139.0316  154.7556 C   0  0  0  0  0  0  0  0  0  0  0  0
  150.3899  138.9313  154.2298 C   0  0  0  0  0  0  0  0  0  0  0  0
  150.1450  137.4939  154.1498 N   0  0  0  0  0  0  0  0  0  0  0  0
  150.8571  136.5254  154.7449 C   0  0  0  0  0  0  0  0  0  0  0  0
  151.9117  136.7222  155.3481 O   0  0  0  0  0  0  0  0  0  0  0  0
  150.2582  135.1202  154.6739 C   0  0  0  0  0  0  0  0  0  0  0  0
  149.3607  134.7503  155.8560 C   0  0  0  0  0  0  0  0  0  0  0  0
  148.1073  134.2338  155.7082 C   0  0  0  0  0  0  0  0  0  0  0  0
  147.4667  133.9957  154.3522 C   0  0  0  0  0  0  0  0  0  0  0  0
  147.3312  133.8781  156.8243 N   0  0  0  0  0  0  0  0  0  0  0  0
  147.8107  134.0329  157.9993 C   0  0  0  0  0  0  0  0  0  0  0  0
  146.9733  133.6437  159.1987 C   0  0  0  0  0  0  0  0  0  0  0  0
  149.0640  134.5408  158.2573 N   0  5  0  0  0  0  0  0  0  0  0  0
  149.8764  134.9122  157.2277 C   0  0  0  0  0  0  0  0  0  0  0  0
  151.0090  135.3543  157.4162 O   0  0  0  0  0  0  0  0  0  0  0  0
  149.6260  139.7740  156.4676 N   0  0  0  0  0  0  0  0  0  0  0  0
  149.7168  138.4695  157.1379 C   0  0  0  0  0  0  0  0  0  0  0  0
  149.9412  138.6077  158.6530 C   0  0  0  0  0  0  0  0  0  0  0  0
  151.1169  139.3692  158.8957 O   0  0  0  0  0  0  0  0  0  0  0  0
  151.0461  140.6668  158.3193 C   0  0  0  0  0  0  0  0  0  0  0  0
  150.8269  140.5517  156.8010 C   0  0  0  0  0  0  0  0  0  0  0  0
  147.8643  142.8867  154.2323 H   0  0  0  0  0  0  0  0  0  0  0  0
  147.7518  142.0864  155.7893 H   0  0  0  0  0  0  0  0  0  0  0  0
  146.9961  141.3639  154.3687 H   0  0  0  0  0  0  0  0  0  0  0  0
  149.3126  141.1332  153.3250 H   0  0  0  0  0  0  0  0  0  0  0  0
  150.0085  141.7825  154.7379 H   0  0  0  0  0  0  0  0  0  0  0  0
  147.6554  139.0544  153.6993 H   0  0  0  0  0  0  0  0  0  0  0  0
  147.1050  139.5207  155.2826 H   0  0  0  0  0  0  0  0  0  0  0  0
  147.9318  137.9836  155.0541 H   0  0  0  0  0  0  0  0  0  0  0  0
  150.4585  139.3020  153.2067 H   0  0  0  0  0  0  0  0  0  0  0  0
  151.3756  139.0912  154.6672 H   0  0  0  0  0  0  0  0  0  0  0  0
  149.2995  137.2141  153.6726 H   0  0  0  0  0  0  0  0  0  0  0  0
  149.7223  135.0151  153.7300 H   0  0  0  0  0  0  0  0  0  0  0  0
  151.0735  134.3991  154.6121 H   0  0  0  0  0  0  0  0  0  0  0  0
  147.3257  134.9398  153.8262 H   0  0  0  0  0  0  0  0  0  0  0  0
  146.4907  133.5200  154.4551 H   0  0  0  0  0  0  0  0  0  0  0  0
  148.0906  133.3454  153.7392 H   0  0  0  0  0  0  0  0  0  0  0  0
  146.7347  134.5254  159.7942 H   0  0  0  0  0  0  0  0  0  0  0  0
  147.5173  132.9381  159.8274 H   0  0  0  0  0  0  0  0  0  0  0  0
  146.0383  133.1743  158.8903 H   0  0  0  0  0  0  0  0  0  0  0  0
  148.8053  137.8921  157.0008 H   0  0  0  0  0  0  0  0  0  0  0  0
  150.5329  137.8823  156.7169 H   0  0  0  0  0  0  0  0  0  0  0  0
  149.0829  139.0855  159.1281 H   0  0  0  0  0  0  0  0  0  0  0  0
  150.0539  137.6246  159.1099 H   0  0  0  0  0  0  0  0  0  0  0  0
  150.2394  141.2360  158.7836 H   0  0  0  0  0  0  0  0  0  0  0  0
  151.9740  141.1992  158.5280 H   0  0  0  0  0  0  0  0  0  0  0  0
  151.7086  140.0944  156.3520 H   0  0  0  0  0  0  0  0  0  0  0  0
  150.7605  141.5646  156.4098 H   0  0  0  0  0  0  0  0  0  0  0  0
  1  2  1  0  0  0  0
  1 25  1  0  0  0  0
  1 26  1  0  0  0  0
  1 27  1  0  0  0  0
  2  3  1  0  0  0  0
  2 28  1  0  0  0  0
  2 29  1  0  0  0  0
  3  4  1  0  0  0  0
  3  5  1  0  0  0  0
  3 19  1  0  0  0  0
  4 30  1  0  0  0  0
  4 31  1  0  0  0  0
  4 32  1  0  0  0  0
  5  6  1  0  0  0  0
  5 33  1  0  0  0  0
  5 34  1  0  0  0  0
  6  7  1  0  0  0  0
  6 35  1  0  0  0  0
  7  8  2  0  0  0  0
  7  9  1  0  0  0  0
  9 10  1  0  0  0  0
  9 36  1  0  0  0  0
  9 37  1  0  0  0  0
 10 17  1  0  0  0  0
 10 11  2  0  0  0  0
 11 12  1  0  0  0  0
 11 13  1  0  0  0  0
 12 38  1  0  0  0  0
 12 39  1  0  0  0  0
 12 40  1  0  0  0  0
 13 14  2  0  0  0  0
 14 15  1  0  0  0  0
 14 16  1  0  0  0  0
 15 41  1  0  0  0  0
 15 42  1  0  0  0  0
 15 43  1  0  0  0  0
 16 17  1  0  0  0  0
 17 18  2  0  0  0  0
 19 24  1  0  0  0  0
 19 20  1  0  0  0  0
 20 21  1  0  0  0  0
 20 44  1  0  0  0  0
 20 45  1  0  0  0  0
 21 22  1  0  0  0  0
 21 46  1  0  0  0  0
 21 47  1  0  0  0  0
 22 23  1  0  0  0  0
 23 24  1  0  0  0  0
 23 48  1  0  0  0  0
 23 49  1  0  0  0  0
 24 50  1  0  0  0  0
 24 51  1  0  0  0  0
M  CHG  1  16  -1
M  END
> <s_m_source_file>
AV-unprocessed.smi

> <i_m_source_file_index>
1492

> <i_lp_mmshare_version>
43012

> <i_f3d_flags>
0

> <s_epik_input>
W0NIMl0xW0NIMl1PW0NIMl1bQ0gyXU4xW0NAQF0oW0NIM10pKFtDSDJdW0NIM10pW0NIMl1bTkhdQyg9TylbQ0gyXWMyYyhbQ0gzXSluYyhbQ0gzXSlbbkhdYzI9Tw==

> <s_epik_cmdline>
J2VwaWtfcHl0aG9uJywgJy1waCcsICc3LjAnLCAnLXRuJywgJzgnLCAnLW1hJywgJzIwMCcsICctbWV0YWxfYmluZGluZycsICctaW1hZScsICc8aW5maWxlLm1hZT4nLCAnLW9tYWUnLCAnPG91dGZpbGUubWFlPic=

> <r_lp_tautomer_probability>
0.839158

> <r_epik_Ionization_Penalty>
6.88574

> <r_epik_Ionization_Penalty_Charging>
6.74373e-08

> <r_epik_Ionization_Penalty_Neutral>
6.88574

> <r_epik_State_Penalty>
4.79448

> <r_epik_Charging_Adjusted_Penalty>
4.79448

> <i_epik_Tot_Q>
-1

> <i_epik_Tot_abs_Q>
1

> <r_epik_Metal_State_Penalty>
1.16421

> <b_epik_Metal_Only>
1

> <s_lp_Force_Field>
OPLS_2005

> <r_lp_Energy>
44.9842

> <b_lp_Chiralities_Consistent>
1

> <s_lp_Variant>
AV-unprocessed.smi:1492-9

> <Gold.Version>
5.8.1

> <Gold.Id.Protein>
6NUR|6NUR_protein|mol2

> <Gold.PLP.Fitness>
35.5799

> <Gold.PLP.PLP>
-27.1296

> <Gold.PLP.part.hbond>
-4.5698

> <Gold.PLP.part.metal>
0.0000

> <Gold.PLP.part.buried>
-1.7357

> <Gold.PLP.part.nonpolar>
-22.5049

> <Gold.PLP.part.repulsive>
0.1285

> <Gold.PLP.ligand.clash>
0.0000

> <Gold.PLP.ligand.torsion>
1.2460

> <Gold.PLP.Chemscore.Hbond>
3.6027

> <Gold.PLP.Chemscore.CHOScore>
0.0000

> <Gold.PLP.Chemscore.Metal>
0.0000

> <Gold.Chemscore.Hbonds>
donor molecule, donor type, donor heavy atom, donor atom, acceptor molecule, acceptor atom, score
      L1  H     6    35       P1  7948  0.57
      P1  H  6896  6908       L1    16  1.00
      P1  H 10752 10764       L1     8  1.00

> <Gold.PLP.Chemscore.Internal.Correction>
0.1343

> <Gold.Rescore>
     Score         DG    S(hbond)    S(metal)    S(lipo)     H(rot)  DE(clash)    DE(int)     intcor
      9.88     -13.77       1.80        0.00      64.13       2.05       0.13       3.75       ----

> <Gold.Chemscore.Fitness>
9.8821

> <Gold.Chemscore.DG>
-13.7694

> <Gold.Chemscore.ZeroCoef>
-5.4800

> <Gold.Chemscore.Hbond>
1.8038

> <Gold.Chemscore.Metal>
0.0000

> <Gold.Chemscore.Lipo>
64.1259

> <Gold.Chemscore.Internal_Hbond>
0.0000

> <Gold.Chemscore.DEClash>
0.1349

> <Gold.Chemscore.DEInternal>
3.7524

> <Gold.Chemscore.Rot>
2.0461

> <Gold.Chemscore.Internal.Correction>
   9.000000E+99

> <Gold.Chemscore.Hbonds>
donor molecule, donor type, donor heavy atom, donor atom, acceptor molecule, acceptor atom, score
      L1  H     6    35       P1  7948  0.53
      P1  H  6896  6908       L1    16  0.02
      P1  H 10752 10764       L1     8  0.39

> <Gold.Chemscore.Hbond.Weighted>
-6.0248

> <Gold.Chemscore.Metal.Weighted>
-0.0000

> <Gold.Chemscore.Lipo.Weighted>
-7.5027

> <Gold.Chemscore.Internal_Hbond.Weighted>
0.0000

> <Gold.Chemscore.DEClash.Weighted>
0.1349

> <Gold.Chemscore.DEInternal.Weighted>
3.7524

> <Gold.Chemscore.Rot.Weighted>
5.2381

> <Gold.Chemscore.Internal.Correction.Weighted>
   9.000000E+99

> <Gold.Protein.RotatedTorsions>
[ 6907 6896 6895 6894 ] final  137.21 input  -60.11 | X-H torsion
[ 7974 7965 7964 7962 ] final  -36.83 input  175.53 | X-H torsion
[ 8008 7997 7996 7995 ] final -114.64 input   59.86 | X-H torsion
[ 10167 10162 10161 10158 ] final  -16.31 input  -65.29 | X-H torsion
[ 10718 10713 10712 10709 ] final   47.69 input   66.30 | X-H torsion
[ 10763 10752 10751 10750 ] final  -55.31 input  -60.55 | X-H torsion
[ 11005 11000 10999 10996 ] final -129.88 input  -57.11 | X-H torsion

> <Gold.Protein.ActiveResidues>
 VAL166  LYS551  ARG553  GLY616  TRP617  ASP618  TYR619  PRO620  LYS621  CYS622 
 ASP623  PHE694  ASN695  SER759  ASP760  ASP761  ALA762  ILE779  LEU786  VAL792 
 PHE793  MET794  SER795  GLU796  ALA797  LYS798  CYS799  TRP800  GLU811  SER814 

> <Gold.Protein.RotatedAtoms>
  152.2806  133.5467  159.5495 H   0  0  0  0  0  0  0  0  0  0  0  0  # atno 6907 bound_to 6896
  150.7194  134.0569  159.3827 H   0  0  0  0  0  0  0  0  0  0  0  0  # atno 6908 bound_to 6896
  151.8480  135.0568  160.0506 H   0  0  0  0  0  0  0  0  0  0  0  0  # atno 6909 bound_to 6896
  146.0627  140.6325  142.8989 H   0  0  0  0  0  0  0  0  0  0  0  0  # atno 7974 bound_to 7965
  155.0396  140.0392  157.2504 H   0  0  0  0  0  0  0  0  0  0  0  0  # atno 8008 bound_to 7997
  154.7228  140.2715  155.6502 H   0  0  0  0  0  0  0  0  0  0  0  0  # atno 8009 bound_to 7997
  156.2821  140.2699  156.1904 H   0  0  0  0  0  0  0  0  0  0  0  0  # atno 8010 bound_to 7997
  140.7232  143.5129  150.9727 H   0  0  0  0  0  0  0  0  0  0  0  0  # atno 10167 bound_to 10162
  157.4611  130.8197  149.7887 H   0  0  0  0  0  0  0  0  0  0  0  0  # atno 10718 bound_to 10713
  154.1888  135.6431  153.5054 H   0  0  0  0  0  0  0  0  0  0  0  0  # atno 10763 bound_to 10752
  153.0040  135.5423  154.6437 H   0  0  0  0  0  0  0  0  0  0  0  0  # atno 10764 bound_to 10752
  154.5820  135.2926  155.0695 H   0  0  0  0  0  0  0  0  0  0  0  0  # atno 10765 bound_to 10752
  140.9394  134.1214  157.4165 H   0  0  0  0  0  0  0  0  0  0  0  0  # atno 11005 bound_to 11000
  144.7184  140.4291  143.7026 LP  0  0  0  0  0  0  0  0  0  0  0  0  # atno 17320 bound_to 7965
  145.6531  139.1568  143.2850 LP  0  0  0  0  0  0  0  0  0  0  0  0  # atno 17321 bound_to 7965
  139.8844  143.7032  152.3153 LP  0  0  0  0  0  0  0  0  0  0  0  0  # atno 17342 bound_to 10162
  139.7325  144.7579  151.0779 LP  0  0  0  0  0  0  0  0  0  0  0  0  # atno 17343 bound_to 10162
  156.0029  130.3870  150.2538 LP  0  0  0  0  0  0  0  0  0  0  0  0  # atno 17370 bound_to 10713
  157.0716  131.0118  151.3188 LP  0  0  0  0  0  0  0  0  0  0  0  0  # atno 17371 bound_to 10713
  139.8816  135.0031  156.6169 LP  0  0  0  0  0  0  0  0  0  0  0  0  # atno 17394 bound_to 11000
  140.7755  133.8703  155.8526 LP  0  0  0  0  0  0  0  0  0  0  0  0  # atno 17395 bound_to 11000

$$$$
