AV-unprocessed.smi:112|AV-procd|sdf|1088|dock2
  -GOLD-   2262018183D 1   1.00000     0.00000
 Structure written by MMmdl.
 54 57  0  0  0  0  0  0  0  0  3 V2000
  141.0651  134.9607  153.3518 C   0  0  0  0  0  0  0  0  0  0  0  0
  142.5846  134.9004  153.3729 C   0  0  0  0  0  0  0  0  0  0  0  0
  143.3064  134.5470  152.2845 C   0  0  0  0  0  0  0  0  0  0  0  0
  144.6907  134.4817  152.2644 N   0  0  0  0  0  0  0  0  0  0  0  0
  145.4874  134.1572  151.0065 C   0  0  1  0  0  0  0  0  0  0  0  0
  146.1683  132.7806  151.0062 C   0  0  0  0  0  0  0  0  0  0  0  0
  145.2576  131.9341  150.1165 C   0  0  1  0  0  0  0  0  0  0  0  0
  144.8378  130.7669  150.7944 O   0  0  0  0  0  0  0  0  0  0  0  0
  144.0701  132.8551  149.7816 C   0  0  2  0  0  0  0  0  0  0  0  0
  143.5066  132.6909  148.3618 C   0  0  0  0  0  0  0  0  0  0  0  0
  143.2419  133.9515  147.7836 O   0  0  0  0  0  0  0  0  0  0  0  0
  144.6139  134.1611  149.9236 O   0  0  0  0  0  0  0  0  0  0  0  0
  145.4107  134.8911  153.4081 C   0  0  0  0  0  0  0  0  0  0  0  0
  146.6438  134.9158  153.4029 O   0  0  0  0  0  0  0  0  0  0  0  0
  144.6872  135.2648  154.5631 N   0  0  0  0  0  0  0  0  0  0  0  0
  145.4383  135.6569  155.7779 C   0  0  0  0  0  0  0  0  0  0  0  0
  146.5510  136.6956  155.5156 C   0  0  0  0  0  0  0  0  0  0  0  0
  146.2381  137.8768  155.3613 O   0  0  0  0  0  0  0  0  0  0  0  0
  147.8326  136.2533  155.4706 N   0  0  0  0  0  0  0  0  0  0  0  0
  148.2129  134.8431  155.6646 C   0  0  0  0  0  0  0  0  0  0  0  0
  149.7504  134.7856  155.5333 C   0  0  0  0  0  0  0  0  0  0  0  0
  150.1218  136.2144  155.2675 C   0  0  0  0  0  0  0  0  0  0  0  0
  151.4169  136.7210  155.0660 C   0  0  0  0  0  0  0  0  0  0  0  0
  151.5796  138.1079  154.8251 C   0  0  0  0  0  0  0  0  0  0  0  0
  152.9254  138.6758  154.6101 N   0  3  0  0  0  0  0  0  0  0  0  0
  153.8670  137.9026  154.4667 O   0  0  0  0  0  0  0  0  0  0  0  0
  153.0434  139.8968  154.5838 O   0  5  0  0  0  0  0  0  0  0  0  0
  150.4308  138.9426  154.7939 C   0  0  0  0  0  0  0  0  0  0  0  0
  149.1364  138.4164  154.9986 C   0  0  0  0  0  0  0  0  0  0  0  0
  148.9977  137.0318  155.2375 C   0  0  0  0  0  0  0  0  0  0  0  0
  143.2726  135.2645  154.6121 C   0  0  0  0  0  0  0  0  0  0  0  0
  142.6794  135.5613  155.6512 O   0  0  0  0  0  0  0  0  0  0  0  0
  140.6585  134.6524  152.3882 H   0  0  0  0  0  0  0  0  0  0  0  0
  140.7226  135.9774  153.5479 H   0  0  0  0  0  0  0  0  0  0  0  0
  140.6455  134.3041  154.1148 H   0  0  0  0  0  0  0  0  0  0  0  0
  142.7514  134.3215  151.3890 H   0  0  0  0  0  0  0  0  0  0  0  0
  146.2282  134.9531  150.9172 H   0  0  0  0  0  0  0  0  0  0  0  0
  147.1451  132.8837  150.5318 H   0  0  0  0  0  0  0  0  0  0  0  0
  146.3403  132.3980  152.0124 H   0  0  0  0  0  0  0  0  0  0  0  0
  145.7954  131.6521  149.2104 H   0  0  0  0  0  0  0  0  0  0  0  0
  144.8066  130.9504  151.7207 H   0  0  0  0  0  0  0  0  0  0  0  0
  143.2696  132.7418  150.5152 H   0  0  0  0  0  0  0  0  0  0  0  0
  144.2301  132.1719  147.7324 H   0  0  0  0  0  0  0  0  0  0  0  0
  142.5961  132.0910  148.3665 H   0  0  0  0  0  0  0  0  0  0  0  0
  144.0650  134.3687  147.5804 H   0  0  0  0  0  0  0  0  0  0  0  0
  144.7610  136.0518  156.5362 H   0  0  0  0  0  0  0  0  0  0  0  0
  145.8772  134.7758  156.2476 H   0  0  0  0  0  0  0  0  0  0  0  0
  147.9034  134.4914  156.6497 H   0  0  0  0  0  0  0  0  0  0  0  0
  147.7461  134.2077  154.9109 H   0  0  0  0  0  0  0  0  0  0  0  0
  150.2241  134.4312  156.4494 H   0  0  0  0  0  0  0  0  0  0  0  0
  150.0639  134.1501  154.7044 H   0  0  0  0  0  0  0  0  0  0  0  0
  152.2644  136.0519  155.0967 H   0  0  0  0  0  0  0  0  0  0  0  0
  150.5313  140.0024  154.6114 H   0  0  0  0  0  0  0  0  0  0  0  0
  148.2910  139.0851  154.9666 H   0  0  0  0  0  0  0  0  0  0  0  0
  1  2  1  0  0  0  0
  1 33  1  0  0  0  0
  1 34  1  0  0  0  0
  1 35  1  0  0  0  0
  2 31  1  0  0  0  0
  2  3  2  0  0  0  0
  3  4  1  0  0  0  0
  3 36  1  0  0  0  0
  4  5  1  0  0  0  0
  4 13  1  0  0  0  0
  5 12  1  0  0  0  0
  5  6  1  0  0  0  0
  5 37  1  0  0  0  0
  6  7  1  0  0  0  0
  6 38  1  0  0  0  0
  6 39  1  0  0  0  0
  7  8  1  0  0  0  0
  7  9  1  0  0  0  0
  7 40  1  0  0  0  0
  8 41  1  0  0  0  0
  9 10  1  0  0  0  0
  9 12  1  0  0  0  0
  9 42  1  0  0  0  0
 10 11  1  0  0  0  0
 10 43  1  0  0  0  0
 10 44  1  0  0  0  0
 11 45  1  0  0  0  0
 13 14  2  0  0  0  0
 13 15  1  0  0  0  0
 15 16  1  0  0  0  0
 15 31  1  0  0  0  0
 16 17  1  0  0  0  0
 16 46  1  0  0  0  0
 16 47  1  0  0  0  0
 17 18  2  0  0  0  0
 17 19  1  0  0  0  0
 19 30  1  0  0  0  0
 19 20  1  0  0  0  0
 20 21  1  0  0  0  0
 20 48  1  0  0  0  0
 20 49  1  0  0  0  0
 21 22  1  0  0  0  0
 21 50  1  0  0  0  0
 21 51  1  0  0  0  0
 22 30  2  0  0  0  0
 22 23  1  0  0  0  0
 23 24  2  0  0  0  0
 23 52  1  0  0  0  0
 24 25  1  0  0  0  0
 24 28  1  0  0  0  0
 25 26  2  0  0  0  0
 25 27  1  0  0  0  0
 28 29  2  0  0  0  0
 28 53  1  0  0  0  0
 29 30  1  0  0  0  0
 29 54  1  0  0  0  0
 31 32  2  0  0  0  0
M  CHG  1  25   1
M  CHG  1  27  -1
M  END
> <s_m_source_file>
AV-unprocessed.smi

> <i_m_source_file_index>
112

> <i_lp_mmshare_version>
43012

> <i_f3d_flags>
0

> <s_epik_input>
W09IXVtDSDJdW0NAQEhdKE8xKVtDQEhdKFtPSF0pW0NIMl1bQ0BIXTFuKFtjSF1jMltDSDNdKWMoPU8pbihjMj1PKVtDSDJdQyg9TylOKFtDSDJdW0NIMl0zKWMoYzM0KVtjSF1bY0hdYyhbY0hdNClbTitdKD1PKVtPLV0=

> <s_epik_cmdline>
J2VwaWtfcHl0aG9uJywgJy1waCcsICc3LjAnLCAnLXRuJywgJzgnLCAnLW1hJywgJzIwMCcsICctbWV0YWxfYmluZGluZycsICctaW1hZScsICc8aW5maWxlLm1hZT4nLCAnLW9tYWUnLCAnPG91dGZpbGUubWFlPic=

> <r_lp_tautomer_probability>
1

> <r_epik_Ionization_Penalty>
2.5696e-07

> <r_epik_Ionization_Penalty_Charging>
1.04886e-08

> <r_epik_Ionization_Penalty_Neutral>
2.46472e-07

> <r_epik_State_Penalty>
-0

> <r_epik_Charging_Adjusted_Penalty>
1.04886e-08

> <i_epik_Tot_Q>
0

> <i_epik_Tot_abs_Q>
2

> <r_epik_Metal_State_Penalty>
-0

> <b_epik_Metal_Only>
0

> <s_epik_Chemistry_Notes>
This compound contains an acetal/aminal-like group ( X-CH(R)-Y where X, Y are N, S, or O) that may be acid/base labile, releasing an aldehyde.

> <s_lp_Force_Field>
OPLS_2005

> <r_lp_Energy>
55.094

> <b_lp_Chiralities_Consistent>
1

> <s_lp_Variant>
AV-unprocessed.smi:112-6

> <Gold.Version>
5.8.1

> <Gold.Id.Protein>
6NUR|6NUR_protein|mol2

> <Gold.PLP.Fitness>
55.9718

> <Gold.PLP.PLP>
-46.0805

> <Gold.PLP.part.hbond>
-8.5752

> <Gold.PLP.part.metal>
0.0000

> <Gold.PLP.part.buried>
-3.7206

> <Gold.PLP.part.nonpolar>
-36.2053

> <Gold.PLP.part.repulsive>
2.7363

> <Gold.PLP.ligand.clash>
0.0000

> <Gold.PLP.ligand.torsion>
1.2941

> <Gold.PLP.Chemscore.Hbond>
3.3200

> <Gold.PLP.Chemscore.CHOScore>
0.7912

> <Gold.PLP.Chemscore.Metal>
0.0000

> <Gold.Chemscore.Hbonds>
donor molecule, donor type, donor heavy atom, donor atom, acceptor molecule, acceptor atom, score
      L1  H    11    45       P1  7921  0.86
      P1  H  7989  7998       L1    27  0.27
      P1  H  7997  8009       L1    27  1.00
      P1  H 10192 10197       L1    11  1.00
      L1  C     3    36       P1 10186  0.77

> <Gold.PLP.Chemscore.Internal.Correction>
0.1459

> <Gold.Rescore>
     Score         DG    S(hbond)    S(metal)    S(lipo)     H(rot)  DE(clash)    DE(int)     intcor
      9.82     -17.52       3.00        0.00      89.19       3.29       0.95       6.75       ----

> <Gold.Chemscore.Fitness>
9.8231

> <Gold.Chemscore.DG>
-17.5244

> <Gold.Chemscore.ZeroCoef>
-5.4800

> <Gold.Chemscore.Hbond>
3.0047

> <Gold.Chemscore.Metal>
0.0000

> <Gold.Chemscore.Lipo>
89.1891

> <Gold.Chemscore.Internal_Hbond>
0.0000

> <Gold.Chemscore.DEClash>
0.9507

> <Gold.Chemscore.DEInternal>
6.7506

> <Gold.Chemscore.Rot>
3.2916

> <Gold.Chemscore.Internal.Correction>
   9.000000E+99

> <Gold.Chemscore.Hbonds>
donor molecule, donor type, donor heavy atom, donor atom, acceptor molecule, acceptor atom, score
      L1  H    11    45       P1  7921  0.84
      P1  H  7989  7998       L1    27  0.25
      P1  H  7997  8009       L1    27  0.39
      P1  H 10192 10197       L1    11  0.40
      P1  H 10752 10765       L1    26  0.01

> <Gold.Chemscore.Hbond.Weighted>
-10.0358

> <Gold.Chemscore.Metal.Weighted>
-0.0000

> <Gold.Chemscore.Lipo.Weighted>
-10.4351

> <Gold.Chemscore.Internal_Hbond.Weighted>
0.0000

> <Gold.Chemscore.DEClash.Weighted>
0.9507

> <Gold.Chemscore.DEInternal.Weighted>
6.7506

> <Gold.Chemscore.Rot.Weighted>
8.4265

> <Gold.Chemscore.Internal.Correction.Weighted>
   9.000000E+99

> <Gold.Protein.RotatedTorsions>
[ 6907 6896 6895 6894 ] final -167.52 input  -60.11 | X-H torsion
[ 7974 7965 7964 7962 ] final   34.49 input  175.53 | X-H torsion
[ 8008 7997 7996 7995 ] final -127.23 input   59.86 | X-H torsion
[ 10167 10162 10161 10158 ] final   48.59 input  -65.29 | X-H torsion
[ 10718 10713 10712 10709 ] final -137.30 input   66.30 | X-H torsion
[ 10763 10752 10751 10750 ] final  141.29 input  -60.55 | X-H torsion
[ 11005 11000 10999 10996 ] final  -40.25 input  -57.11 | X-H torsion

> <Gold.Protein.ActiveResidues>
 VAL166  LYS551  ARG553  GLY616  TRP617  ASP618  TYR619  PRO620  LYS621  CYS622 
 ASP623  PHE694  ASN695  SER759  ASP760  ASP761  ALA762  ILE779  LEU786  VAL792 
 PHE793  MET794  SER795  GLU796  ALA797  LYS798  CYS799  TRP800  GLU811  SER814 

> <Gold.Protein.RotatedAtoms>
  151.4608  133.3593  159.2808 H   0  0  0  0  0  0  0  0  0  0  0  0  # atno 6907 bound_to 6896
  150.9026  134.8441  159.7381 H   0  0  0  0  0  0  0  0  0  0  0  0  # atno 6908 bound_to 6896
  152.4888  134.4530  159.9632 H   0  0  0  0  0  0  0  0  0  0  0  0  # atno 6909 bound_to 6896
  146.1349  139.6263  142.9202 H   0  0  0  0  0  0  0  0  0  0  0  0  # atno 7974 bound_to 7965
  155.2427  140.0429  157.2977 H   0  0  0  0  0  0  0  0  0  0  0  0  # atno 8008 bound_to 7997
  154.5818  140.2403  155.8013 H   0  0  0  0  0  0  0  0  0  0  0  0  # atno 8009 bound_to 7997
  156.2198  140.2973  155.9934 H   0  0  0  0  0  0  0  0  0  0  0  0  # atno 8010 bound_to 7997
  140.2917  144.3038  150.6239 H   0  0  0  0  0  0  0  0  0  0  0  0  # atno 10167 bound_to 10162
  156.2865  130.7351  151.1364 H   0  0  0  0  0  0  0  0  0  0  0  0  # atno 10718 bound_to 10713
  153.9368  135.2984  155.3444 H   0  0  0  0  0  0  0  0  0  0  0  0  # atno 10763 bound_to 10752
  154.7498  135.4986  153.9271 H   0  0  0  0  0  0  0  0  0  0  0  0  # atno 10764 bound_to 10752
  153.1063  135.6747  153.9687 H   0  0  0  0  0  0  0  0  0  0  0  0  # atno 10765 bound_to 10752
  141.0161  133.6884  156.2296 H   0  0  0  0  0  0  0  0  0  0  0  0  # atno 11005 bound_to 11000
  145.5178  141.0433  143.2452 LP  0  0  0  0  0  0  0  0  0  0  0  0  # atno 17320 bound_to 7965
  144.7729  139.6694  143.7187 LP  0  0  0  0  0  0  0  0  0  0  0  0  # atno 17321 bound_to 7965
  140.5726  143.2179  151.7571 LP  0  0  0  0  0  0  0  0  0  0  0  0  # atno 17342 bound_to 10162
  139.4936  144.4194  151.9994 LP  0  0  0  0  0  0  0  0  0  0  0  0  # atno 17343 bound_to 10162
  157.7330  131.0595  150.5599 LP  0  0  0  0  0  0  0  0  0  0  0  0  # atno 17370 bound_to 10713
  156.5710  130.4280  149.6019 LP  0  0  0  0  0  0  0  0  0  0  0  0  # atno 17371 bound_to 10713
  140.6652  134.4926  157.5585 LP  0  0  0  0  0  0  0  0  0  0  0  0  # atno 17394 bound_to 11000
  139.9118  134.8329  156.1503 LP  0  0  0  0  0  0  0  0  0  0  0  0  # atno 17395 bound_to 11000

$$$$
