AV-unprocessed.smi:1641|AV-procd|sdf|6559|dock4
  -GOLD-   22720 7243D 1   1.00000     0.00000
 Structure written by MMmdl.
 42 43  0  0  0  0  0  0  0  0  2 V2000
  152.2122  139.4726  158.3529 C   0  0  0  0  0  0  0  0  0  0  0  0
  151.7093  139.5331  156.9512 C   0  0  0  0  0  0  0  0  0  0  0  0
  152.4935  139.8475  155.9129 N   0  0  0  0  0  0  0  0  0  0  0  0
  151.8016  139.8405  154.7097 N   0  0  0  0  0  0  0  0  0  0  0  0
  150.5108  139.5217  154.8778 C   0  0  0  0  0  0  0  0  0  0  0  0
  149.5726  139.4432  153.8145 N   0  0  0  0  0  0  0  0  0  0  0  0
  148.3074  138.9900  153.8532 C   0  0  0  0  0  0  0  0  0  0  0  0
  147.7315  138.5657  154.8554 O   0  0  0  0  0  0  0  0  0  0  0  0
  147.7296  139.0524  152.6447 N   0  0  0  0  0  0  0  0  0  0  0  0
  146.3614  138.6385  152.3553 C   0  0  0  0  0  0  0  0  0  0  0  0
  146.3184  137.5274  151.2880 C   0  0  0  0  0  0  0  0  0  0  0  0
  146.2911  136.1686  151.8842 N   0  3  1  0  0  0  0  0  0  0  0  0
  145.5610  136.1326  153.1736 C   0  0  0  0  0  0  0  0  0  0  0  0
  145.6095  134.7190  153.7845 C   0  0  1  0  0  0  0  0  0  0  0  0
  144.7987  134.6189  155.0810 C   0  0  0  0  0  0  0  0  0  0  0  0
  145.0666  133.7918  152.8515 O   0  0  0  0  0  0  0  0  0  0  0  0
  145.8046  133.7435  151.6357 C   0  0  1  0  0  0  0  0  0  0  0  0
  145.1920  132.6535  150.7499 C   0  0  0  0  0  0  0  0  0  0  0  0
  145.7626  135.1298  150.9656 C   0  0  0  0  0  0  0  0  0  0  0  0
  150.0321  139.2019  156.5360 S   0  0  0  0  0  0  0  0  0  0  0  0
  153.2894  139.3037  158.3659 H   0  0  0  0  0  0  0  0  0  0  0  0
  151.7263  138.6588  158.8911 H   0  0  0  0  0  0  0  0  0  0  0  0
  151.9974  140.4104  158.8657 H   0  0  0  0  0  0  0  0  0  0  0  0
  149.9072  139.7672  152.9191 H   0  0  0  0  0  0  0  0  0  0  0  0
  148.2703  139.4184  151.8743 H   0  0  0  0  0  0  0  0  0  0  0  0
  145.8846  138.3214  153.2830 H   0  0  0  0  0  0  0  0  0  0  0  0
  145.8096  139.5115  152.0052 H   0  0  0  0  0  0  0  0  0  0  0  0
  145.4196  137.6719  150.6865 H   0  0  0  0  0  0  0  0  0  0  0  0
  147.1632  137.6061  150.6019 H   0  0  0  0  0  0  0  0  0  0  0  0
  146.0048  136.8469  153.8684 H   0  0  0  0  0  0  0  0  0  0  0  0
  144.5265  136.4406  153.0135 H   0  0  0  0  0  0  0  0  0  0  0  0
  146.6440  134.4467  154.0008 H   0  0  0  0  0  0  0  0  0  0  0  0
  145.1824  135.3020  155.8391 H   0  0  0  0  0  0  0  0  0  0  0  0
  144.8453  133.6096  155.4909 H   0  0  0  0  0  0  0  0  0  0  0  0
  143.7493  134.8613  154.9113 H   0  0  0  0  0  0  0  0  0  0  0  0
  146.8391  133.4716  151.8538 H   0  0  0  0  0  0  0  0  0  0  0  0
  145.7267  132.5690  149.8036 H   0  0  0  0  0  0  0  0  0  0  0  0
  144.1465  132.8676  150.5260 H   0  0  0  0  0  0  0  0  0  0  0  0
  145.2342  131.6819  151.2429 H   0  0  0  0  0  0  0  0  0  0  0  0
  144.7384  135.3803  150.6840 H   0  0  0  0  0  0  0  0  0  0  0  0
  146.3476  135.1016  150.0468 H   0  0  0  0  0  0  0  0  0  0  0  0
  147.2483  135.9231  152.0933 H   0  0  0  0  0  0  0  0  0  0  0  0
  1  2  1  0  0  0  0
  1 21  1  0  0  0  0
  1 22  1  0  0  0  0
  1 23  1  0  0  0  0
  2 20  1  0  0  0  0
  2  3  2  0  0  0  0
  3  4  1  0  0  0  0
  4  5  2  0  0  0  0
  5  6  1  0  0  0  0
  5 20  1  0  0  0  0
  6  7  1  0  0  0  0
  6 24  1  0  0  0  0
  7  8  2  0  0  0  0
  7  9  1  0  0  0  0
  9 10  1  0  0  0  0
  9 25  1  0  0  0  0
 10 11  1  0  0  0  0
 10 26  1  0  0  0  0
 10 27  1  0  0  0  0
 11 12  1  0  0  0  0
 11 28  1  0  0  0  0
 11 29  1  0  0  0  0
 12 19  1  0  0  0  0
 12 13  1  0  0  0  0
 12 42  1  0  0  0  0
 13 14  1  0  0  0  0
 13 30  1  0  0  0  0
 13 31  1  0  0  0  0
 14 15  1  0  0  0  0
 14 16  1  0  0  0  0
 14 32  1  0  0  0  0
 15 33  1  0  0  0  0
 15 34  1  0  0  0  0
 15 35  1  0  0  0  0
 16 17  1  0  0  0  0
 17 18  1  0  0  0  0
 17 19  1  0  0  0  0
 17 36  1  0  0  0  0
 18 37  1  0  0  0  0
 18 38  1  0  0  0  0
 18 39  1  0  0  0  0
 19 40  1  0  0  0  0
 19 41  1  0  0  0  0
M  CHG  1  12   1
M  END
> <s_m_source_file>
AV-unprocessed.smi

> <i_m_source_file_index>
1641

> <i_lp_mmshare_version>
43012

> <i_f3d_flags>
0

> <s_epik_input>
W0NIM11jMW5uYyhzMSlbTkhdQyg9TylbTkhdW0NIMl1bQ0gyXU4yW0NIMl1bQ0BASF0oW0NIM10pT1tDQEBIXShbQ0gzXSlbQ0gyXTI=

> <s_epik_cmdline>
J2VwaWtfcHl0aG9uJywgJy1waCcsICc3LjAnLCAnLXRuJywgJzgnLCAnLW1hJywgJzIwMCcsICctbWV0YWxfYmluZGluZycsICctaW1hZScsICc8aW5maWxlLm1hZT4nLCAnLW9tYWUnLCAnPG91dGZpbGUubWFlPic=

> <r_lp_tautomer_probability>
1

> <r_epik_Ionization_Penalty>
0.700114

> <r_epik_Ionization_Penalty_Charging>
0.695697

> <r_epik_Ionization_Penalty_Neutral>
0.00441638

> <r_epik_State_Penalty>
0.717972

> <r_epik_Charging_Adjusted_Penalty>
1.41367

> <i_epik_Tot_Q>
1

> <i_epik_Tot_abs_Q>
1

> <r_epik_Metal_State_Penalty>
1.06958

> <b_epik_Metal_Only>
0

> <s_lp_Force_Field>
OPLS_2005

> <r_lp_Energy>
12.6792

> <b_lp_Chiralities_Consistent>
1

> <s_lp_Variant>
AV-unprocessed.smi:1641-4

> <Gold.Version>
5.8.1

> <Gold.Id.Protein>
6NUR|6NUR_protein|mol2

> <Gold.PLP.Fitness>
44.4397

> <Gold.PLP.PLP>
-27.6910

> <Gold.PLP.part.hbond>
-5.5651

> <Gold.PLP.part.metal>
0.0000

> <Gold.PLP.part.buried>
-0.3126

> <Gold.PLP.part.nonpolar>
-21.5169

> <Gold.PLP.part.repulsive>
0.4798

> <Gold.PLP.ligand.clash>
0.0000

> <Gold.PLP.ligand.torsion>
0.5037

> <Gold.PLP.Chemscore.Hbond>
5.9120

> <Gold.PLP.Chemscore.CHOScore>
0.0000

> <Gold.PLP.Chemscore.Metal>
0.0000

> <Gold.Chemscore.Hbonds>
donor molecule, donor type, donor heavy atom, donor atom, acceptor molecule, acceptor atom, score
      L1  H     6    24       P1  7957  0.99
      L1  H     9    25       P1  7957  1.00
      L1  H    12    42       P1  7948  1.92
      P1  H  7989  7998       L1     4  1.00
      P1  H  7997  8009       L1     3  1.00

> <Gold.PLP.Chemscore.Internal.Correction>
0.0202

> <Gold.Rescore>
     Score         DG    S(hbond)    S(metal)    S(lipo)     H(rot)  DE(clash)    DE(int)     intcor
     19.65     -22.61       4.33        0.00      58.61       1.64       1.31       1.65       ----

> <Gold.Chemscore.Fitness>
19.6460

> <Gold.Chemscore.DG>
-22.6078

> <Gold.Chemscore.ZeroCoef>
-5.4800

> <Gold.Chemscore.Hbond>
4.3288

> <Gold.Chemscore.Metal>
0.0000

> <Gold.Chemscore.Lipo>
58.6110

> <Gold.Chemscore.Internal_Hbond>
0.0000

> <Gold.Chemscore.DEClash>
1.3075

> <Gold.Chemscore.DEInternal>
1.6544

> <Gold.Chemscore.Rot>
1.6358

> <Gold.Chemscore.Internal.Correction>
   9.000000E+99

> <Gold.Chemscore.Hbonds>
donor molecule, donor type, donor heavy atom, donor atom, acceptor molecule, acceptor atom, score
      L1  H     6    24       P1  7957  0.94
      L1  H     9    25       P1  7957  0.98
      L1  H    12    42       P1  7948  0.92
      P1  H  7989  7998       L1     4  0.24
      P1  H  7997  8009       L1     3  0.92

> <Gold.Chemscore.Hbond.Weighted>
-14.4581

> <Gold.Chemscore.Metal.Weighted>
-0.0000

> <Gold.Chemscore.Lipo.Weighted>
-6.8575

> <Gold.Chemscore.Internal_Hbond.Weighted>
0.0000

> <Gold.Chemscore.DEClash.Weighted>
1.3075

> <Gold.Chemscore.DEInternal.Weighted>
1.6544

> <Gold.Chemscore.Rot.Weighted>
4.1878

> <Gold.Chemscore.Internal.Correction.Weighted>
   9.000000E+99

> <Gold.Protein.RotatedTorsions>
[ 6907 6896 6895 6894 ] final  -91.54 input  -60.11 | X-H torsion
[ 7974 7965 7964 7962 ] final -176.41 input  175.53 | X-H torsion
[ 8008 7997 7996 7995 ] final -161.52 input   59.86 | X-H torsion
[ 10167 10162 10161 10158 ] final   67.03 input  -65.29 | X-H torsion
[ 10718 10713 10712 10709 ] final  -91.48 input   66.30 | X-H torsion
[ 10763 10752 10751 10750 ] final   94.98 input  -60.55 | X-H torsion
[ 11005 11000 10999 10996 ] final  137.09 input  -57.11 | X-H torsion

> <Gold.Protein.ActiveResidues>
 VAL166  LYS551  ARG553  GLY616  TRP617  ASP618  TYR619  PRO620  LYS621  CYS622 
 ASP623  PHE694  ASN695  SER759  ASP760  ASP761  ALA762  ILE779  LEU786  VAL792 
 PHE793  MET794  SER795  GLU796  ALA797  LYS798  CYS799  TRP800  GLU811  SER814 

> <Gold.Protein.RotatedAtoms>
  150.6894  134.2262  159.4415 H   0  0  0  0  0  0  0  0  0  0  0  0  # atno 6907 bound_to 6896
  152.0215  134.9817  160.0580 H   0  0  0  0  0  0  0  0  0  0  0  0  # atno 6908 bound_to 6896
  152.1393  133.4419  159.4795 H   0  0  0  0  0  0  0  0  0  0  0  0  # atno 6909 bound_to 6896
  144.7127  140.1174  143.6407 H   0  0  0  0  0  0  0  0  0  0  0  0  # atno 7974 bound_to 7965
  155.7934  140.0881  157.1997 H   0  0  0  0  0  0  0  0  0  0  0  0  # atno 8008 bound_to 7997
  154.3984  140.1486  156.3247 H   0  0  0  0  0  0  0  0  0  0  0  0  # atno 8009 bound_to 7997
  155.8536  140.3433  155.5712 H   0  0  0  0  0  0  0  0  0  0  0  0  # atno 8010 bound_to 7997
  140.0940  144.4963  150.7080 H   0  0  0  0  0  0  0  0  0  0  0  0  # atno 10167 bound_to 10162
  155.9994  130.4949  150.5480 H   0  0  0  0  0  0  0  0  0  0  0  0  # atno 10718 bound_to 10713
  153.2478  135.4270  155.0766 H   0  0  0  0  0  0  0  0  0  0  0  0  # atno 10763 bound_to 10752
  154.8369  135.3418  154.6556 H   0  0  0  0  0  0  0  0  0  0  0  0  # atno 10764 bound_to 10752
  153.6978  135.7030  153.5128 H   0  0  0  0  0  0  0  0  0  0  0  0  # atno 10765 bound_to 10752
  140.0090  134.9447  157.0238 H   0  0  0  0  0  0  0  0  0  0  0  0  # atno 11005 bound_to 11000
  145.9401  139.2663  143.1274 LP  0  0  0  0  0  0  0  0  0  0  0  0  # atno 17320 bound_to 7965
  145.9433  140.8964  143.0297 LP  0  0  0  0  0  0  0  0  0  0  0  0  # atno 17321 bound_to 7965
  140.7013  143.2437  151.4855 LP  0  0  0  0  0  0  0  0  0  0  0  0  # atno 17342 bound_to 10162
  139.5708  144.1932  152.1834 LP  0  0  0  0  0  0  0  0  0  0  0  0  # atno 17343 bound_to 10162
  157.3407  131.0716  151.1790 LP  0  0  0  0  0  0  0  0  0  0  0  0  # atno 17370 bound_to 10713
  157.2639  130.6672  149.5987 LP  0  0  0  0  0  0  0  0  0  0  0  0  # atno 17371 bound_to 10713
  140.4588  134.1505  155.7189 LP  0  0  0  0  0  0  0  0  0  0  0  0  # atno 17394 bound_to 11000
  141.1698  133.8632  157.1606 LP  0  0  0  0  0  0  0  0  0  0  0  0  # atno 17395 bound_to 11000

$$$$
