AV-unprocessed.smi:2455|AV-procd|sdf|9699|dock6
  -GOLD-   2272013333D 1   1.00000     0.00000
 Structure written by MMmdl.
 36 36  0  0  0  0  0  0  0  0  2 V2000
  144.5259  135.2866  162.3530 C   0  0  0  0  0  0  0  0  0  0  0  0
  145.4264  135.0570  161.1243 C   0  0  0  0  0  0  0  0  0  0  0  0
  146.9657  135.1675  161.3628 C   0  0  0  0  0  0  0  0  0  0  0  0
  147.3313  134.1977  162.5288 C   0  0  0  0  0  0  0  0  0  0  0  0
  147.5236  132.7131  162.1620 C   0  0  0  0  0  0  0  0  0  0  0  0
  147.7570  134.8073  160.0637 C   0  0  0  0  0  0  0  0  0  0  0  0
  147.8383  135.9137  159.1114 N   0  0  0  0  0  0  0  0  0  0  0  0
  148.7702  136.0710  158.1590 C   0  0  0  0  0  0  0  0  0  0  0  0
  149.6976  135.2842  157.9720 O   0  0  0  0  0  0  0  0  0  0  0  0
  148.6363  137.3149  157.2800 C   0  0  0  0  0  0  0  0  0  0  0  0
  149.6048  137.2975  156.1976 N   0  0  0  0  0  0  0  0  0  0  0  0
  150.5547  138.2469  155.8798 C   0  0  0  0  0  0  0  0  0  0  0  0
  151.2303  137.7957  154.7823 C   0  0  0  0  0  0  0  0  0  0  0  0
  150.6110  136.5475  154.4943 C   0  0  0  0  0  0  0  0  0  0  0  0
  149.6373  136.2536  155.3407 N   0  0  0  0  0  0  0  0  0  0  0  0
  147.2907  136.6208  161.8071 C   0  0  0  0  0  0  0  0  0  0  0  0
  146.3805  137.4793  161.7711 O   0  0  0  0  0  0  0  0  0  0  0  0
  148.4632  136.8572  162.1756 O   0  5  0  0  0  0  0  0  0  0  0  0
  143.4773  135.1600  162.0840 H   0  0  0  0  0  0  0  0  0  0  0  0
  144.6365  136.2946  162.7514 H   0  0  0  0  0  0  0  0  0  0  0  0
  144.7415  134.5810  163.1553 H   0  0  0  0  0  0  0  0  0  0  0  0
  145.1890  134.0740  160.7146 H   0  0  0  0  0  0  0  0  0  0  0  0
  145.1251  135.7572  160.3445 H   0  0  0  0  0  0  0  0  0  0  0  0
  148.2477  134.5404  163.0120 H   0  0  0  0  0  0  0  0  0  0  0  0
  146.5685  134.2606  163.3049 H   0  0  0  0  0  0  0  0  0  0  0  0
  147.7636  132.1315  163.0520 H   0  0  0  0  0  0  0  0  0  0  0  0
  148.3405  132.5692  161.4552 H   0  0  0  0  0  0  0  0  0  0  0  0
  146.6245  132.2788  161.7280 H   0  0  0  0  0  0  0  0  0  0  0  0
  148.7861  134.5423  160.3086 H   0  0  0  0  0  0  0  0  0  0  0  0
  147.3459  133.9171  159.5858 H   0  0  0  0  0  0  0  0  0  0  0  0
  147.1169  136.6162  159.1817 H   0  0  0  0  0  0  0  0  0  0  0  0
  147.6263  137.3637  156.8698 H   0  0  0  0  0  0  0  0  0  0  0  0
  148.7864  138.2212  157.8686 H   0  0  0  0  0  0  0  0  0  0  0  0
  150.6713  139.1522  156.4573 H   0  0  0  0  0  0  0  0  0  0  0  0
  152.0428  138.2828  154.2640 H   0  0  0  0  0  0  0  0  0  0  0  0
  150.8379  135.8516  153.7000 H   0  0  0  0  0  0  0  0  0  0  0  0
  1  2  1  0  0  0  0
  1 19  1  0  0  0  0
  1 20  1  0  0  0  0
  1 21  1  0  0  0  0
  2  3  1  0  0  0  0
  2 22  1  0  0  0  0
  2 23  1  0  0  0  0
  3  4  1  0  0  0  0
  3  6  1  0  0  0  0
  3 16  1  0  0  0  0
  4  5  1  0  0  0  0
  4 24  1  0  0  0  0
  4 25  1  0  0  0  0
  5 26  1  0  0  0  0
  5 27  1  0  0  0  0
  5 28  1  0  0  0  0
  6  7  1  0  0  0  0
  6 29  1  0  0  0  0
  6 30  1  0  0  0  0
  7  8  1  0  0  0  0
  7 31  1  0  0  0  0
  8  9  2  0  0  0  0
  8 10  1  0  0  0  0
 10 11  1  0  0  0  0
 10 32  1  0  0  0  0
 10 33  1  0  0  0  0
 11 15  1  0  0  0  0
 11 12  1  0  0  0  0
 12 13  2  0  0  0  0
 12 34  1  0  0  0  0
 13 14  1  0  0  0  0
 13 35  1  0  0  0  0
 14 15  2  0  0  0  0
 14 36  1  0  0  0  0
 16 17  2  0  0  0  0
 16 18  1  0  0  0  0
M  CHG  1  18  -1
M  END
> <s_m_source_file>
AV-unprocessed.smi

> <i_m_source_file_index>
2455

> <i_lp_mmshare_version>
43012

> <i_f3d_flags>
0

> <s_epik_input>
W0NIM11bQ0gyXUMoW0NIMl1bQ0gzXSkoQyg9TylbT0hdKVtDSDJdW05IXUMoPU8pW0NIMl1uMVtjSF1bY0hdW2NIXW4x

> <s_epik_cmdline>
J2VwaWtfcHl0aG9uJywgJy1waCcsICc3LjAnLCAnLXRuJywgJzgnLCAnLW1hJywgJzIwMCcsICctbWV0YWxfYmluZGluZycsICctaW1hZScsICc8aW5maWxlLm1hZT4nLCAnLW9tYWUnLCAnPG91dGZpbGUubWFlPic=

> <r_lp_tautomer_probability>
1

> <r_epik_Ionization_Penalty>
0.00236672

> <r_epik_Ionization_Penalty_Charging>
0.00235221

> <r_epik_Ionization_Penalty_Neutral>
1.45156e-05

> <r_epik_State_Penalty>
0.00162453

> <r_epik_Charging_Adjusted_Penalty>
0.00397673

> <i_epik_Tot_Q>
-1

> <i_epik_Tot_abs_Q>
1

> <r_epik_Metal_State_Penalty>
-0

> <b_epik_Metal_Only>
0

> <s_lp_Force_Field>
OPLS_2005

> <r_lp_Energy>
9.36787

> <b_lp_Chiralities_Consistent>
1

> <s_lp_Variant>
AV-unprocessed.smi:2455-1

> <Gold.Version>
5.8.1

> <Gold.Id.Protein>
6NUR|6NUR_protein|mol2

> <Gold.PLP.Fitness>
41.1081

> <Gold.PLP.PLP>
-25.6439

> <Gold.PLP.part.hbond>
-2.8826

> <Gold.PLP.part.metal>
0.0000

> <Gold.PLP.part.buried>
-4.8865

> <Gold.PLP.part.nonpolar>
-19.3445

> <Gold.PLP.part.repulsive>
0.2083

> <Gold.PLP.ligand.clash>
0.0000

> <Gold.PLP.ligand.torsion>
0.9379

> <Gold.PLP.Chemscore.Hbond>
4.7105

> <Gold.PLP.Chemscore.CHOScore>
1.0178

> <Gold.PLP.Chemscore.Metal>
0.0000

> <Gold.Chemscore.Hbonds>
donor molecule, donor type, donor heavy atom, donor atom, acceptor molecule, acceptor atom, score
      P1  H  6896  6907       L1     9  1.00
      P1  H  6931  6943       L1    18  1.92
      P1  H  6934  6947       L1    17  1.86
      L1  C    14    36       P1  7949  0.69

> <Gold.PLP.Chemscore.Internal.Correction>
0.1551

> <Gold.Rescore>
     Score         DG    S(hbond)    S(metal)    S(lipo)     H(rot)  DE(clash)    DE(int)     intcor
     11.38     -13.53       2.45        0.00      56.40       2.63       0.00       2.15       ----

> <Gold.Chemscore.Fitness>
11.3839

> <Gold.Chemscore.DG>
-13.5306

> <Gold.Chemscore.ZeroCoef>
-5.4800

> <Gold.Chemscore.Hbond>
2.4519

> <Gold.Chemscore.Metal>
0.0000

> <Gold.Chemscore.Lipo>
56.3963

> <Gold.Chemscore.Internal_Hbond>
0.0000

> <Gold.Chemscore.DEClash>
0.0000

> <Gold.Chemscore.DEInternal>
2.1467

> <Gold.Chemscore.Rot>
2.6316

> <Gold.Chemscore.Internal.Correction>
   9.000000E+99

> <Gold.Chemscore.Hbonds>
donor molecule, donor type, donor heavy atom, donor atom, acceptor molecule, acceptor atom, score
      P1  H  6896  6907       L1     9  0.90
      P1  H  6931  6943       L1    18  0.88
      P1  H  6934  6947       L1    17  0.50

> <Gold.Chemscore.Hbond.Weighted>
-8.1893

> <Gold.Chemscore.Metal.Weighted>
-0.0000

> <Gold.Chemscore.Lipo.Weighted>
-6.5984

> <Gold.Chemscore.Internal_Hbond.Weighted>
0.0000

> <Gold.Chemscore.DEClash.Weighted>
0.0000

> <Gold.Chemscore.DEInternal.Weighted>
2.1467

> <Gold.Chemscore.Rot.Weighted>
6.7370

> <Gold.Chemscore.Internal.Correction.Weighted>
   9.000000E+99

> <Gold.Protein.RotatedTorsions>
[ 6907 6896 6895 6894 ] final  -70.64 input  -60.11 | X-H torsion
[ 7974 7965 7964 7962 ] final -107.70 input  175.53 | X-H torsion
[ 8008 7997 7996 7995 ] final  102.61 input   59.86 | X-H torsion
[ 10167 10162 10161 10158 ] final   54.60 input  -65.29 | X-H torsion
[ 10718 10713 10712 10709 ] final -161.67 input   66.30 | X-H torsion
[ 10763 10752 10751 10750 ] final  123.38 input  -60.55 | X-H torsion
[ 11005 11000 10999 10996 ] final -119.61 input  -57.11 | X-H torsion

> <Gold.Protein.ActiveResidues>
 VAL166  LYS551  ARG553  GLY616  TRP617  ASP618  TYR619  PRO620  LYS621  CYS622 
 ASP623  PHE694  ASN695  SER759  ASP760  ASP761  ALA762  ILE779  LEU786  VAL792 
 PHE793  MET794  SER795  GLU796  ALA797  LYS798  CYS799  TRP800  GLU811  SER814 

> <Gold.Protein.RotatedAtoms>
  150.7248  134.5423  159.5753 H   0  0  0  0  0  0  0  0  0  0  0  0  # atno 6907 bound_to 6896
  152.2931  134.7696  160.0383 H   0  0  0  0  0  0  0  0  0  0  0  0  # atno 6908 bound_to 6896
  151.8302  133.3372  159.3648 H   0  0  0  0  0  0  0  0  0  0  0  0  # atno 6909 bound_to 6896
  145.2021  140.9060  143.3363 H   0  0  0  0  0  0  0  0  0  0  0  0  # atno 7974 bound_to 7965
  156.1409  140.3178  155.8494 H   0  0  0  0  0  0  0  0  0  0  0  0  # atno 8008 bound_to 7997
  155.4156  140.0509  157.3046 H   0  0  0  0  0  0  0  0  0  0  0  0  # atno 8009 bound_to 7997
  154.4975  140.2116  155.9428 H   0  0  0  0  0  0  0  0  0  0  0  0  # atno 8010 bound_to 7997
  140.2284  144.3713  150.6424 H   0  0  0  0  0  0  0  0  0  0  0  0  # atno 10167 bound_to 10162
  156.5995  130.8804  151.2910 H   0  0  0  0  0  0  0  0  0  0  0  0  # atno 10718 bound_to 10713
  153.6446  135.3373  155.3081 H   0  0  0  0  0  0  0  0  0  0  0  0  # atno 10763 bound_to 10752
  154.8552  135.4326  154.1969 H   0  0  0  0  0  0  0  0  0  0  0  0  # atno 10764 bound_to 10752
  153.2896  135.7016  153.7380 H   0  0  0  0  0  0  0  0  0  0  0  0  # atno 10765 bound_to 10752
  141.0203  134.0134  157.3291 H   0  0  0  0  0  0  0  0  0  0  0  0  # atno 11005 bound_to 11000
  144.9938  139.3664  143.6201 LP  0  0  0  0  0  0  0  0  0  0  0  0  # atno 17320 bound_to 7965
  146.3415  139.9132  142.8777 LP  0  0  0  0  0  0  0  0  0  0  0  0  # atno 17321 bound_to 7965
  140.6203  143.2176  151.6707 LP  0  0  0  0  0  0  0  0  0  0  0  0  # atno 17342 bound_to 10162
  139.5119  144.3495  152.0666 LP  0  0  0  0  0  0  0  0  0  0  0  0  # atno 17343 bound_to 10162
  157.7283  130.9655  150.1737 LP  0  0  0  0  0  0  0  0  0  0  0  0  # atno 17370 bound_to 10713
  156.2481  130.3698  149.8262 LP  0  0  0  0  0  0  0  0  0  0  0  0  # atno 17371 bound_to 10713
  139.9142  135.0194  156.7815 LP  0  0  0  0  0  0  0  0  0  0  0  0  # atno 17394 bound_to 11000
  140.6584  133.9668  155.7792 LP  0  0  0  0  0  0  0  0  0  0  0  0  # atno 17395 bound_to 11000

$$$$
