AV-unprocessed.smi:2320|AV-procd|sdf|9279|dock7
  -GOLD-   2272012503D 1   1.00000     0.00000
 Structure written by MMmdl.
 41 42  0  0  0  0  0  0  0  0  1 V2000
  151.5443  145.3832  160.1986 C   0  0  0  0  0  0  0  0  0  0  0  0
  151.7818  144.0388  159.5422 C   0  0  0  0  0  0  0  0  0  0  0  0
  151.1402  143.7120  158.3312 C   0  0  0  0  0  0  0  0  0  0  0  0
  151.3645  142.4590  157.7292 C   0  0  0  0  0  0  0  0  0  0  0  0
  152.2285  141.5159  158.3229 C   0  0  0  0  0  0  0  0  0  0  0  0
  152.3889  140.3150  157.6659 O   0  0  0  0  0  0  0  0  0  0  0  0
  151.3416  139.8660  156.8136 C   0  0  0  0  0  0  0  0  0  0  0  0
  151.8259  138.6786  155.9640 C   0  0  2  0  0  0  0  0  0  0  0  0
  152.9792  139.0923  155.2588 O   0  0  0  0  0  0  0  0  0  0  0  0
  150.7497  138.1576  154.9851 C   0  0  0  0  0  0  0  0  0  0  0  0
  149.3898  138.2711  155.5381 N   0  0  0  0  0  0  0  0  0  0  0  0
  148.9041  137.1498  156.2306 C   0  0  0  0  0  0  0  0  0  0  0  0
  147.7238  137.1361  156.7577 N   0  0  0  0  0  0  0  0  0  0  0  0
  146.8967  138.2575  156.6454 C   0  0  0  0  0  0  0  0  0  0  0  0
  145.5319  138.1341  157.2991 C   0  0  0  0  0  0  0  0  0  0  0  0
  147.3087  139.3770  155.9901 C   0  0  0  0  0  0  0  0  0  0  0  0
  146.4527  140.6280  155.8374 C   0  0  0  0  0  0  0  0  0  0  0  0
  148.6524  139.4096  155.3901 C   0  0  0  0  0  0  0  0  0  0  0  0
  149.0949  140.3935  154.7942 O   0  0  0  0  0  0  0  0  0  0  0  0
  152.8707  141.8510  159.5417 C   0  0  0  0  0  0  0  0  0  0  0  0
  152.6464  143.1040  160.1449 C   0  0  0  0  0  0  0  0  0  0  0  0
  151.0585  146.0782  159.5132 H   0  0  0  0  0  0  0  0  0  0  0  0
  152.4893  145.8253  160.5152 H   0  0  0  0  0  0  0  0  0  0  0  0
  150.9082  145.2661  161.0761 H   0  0  0  0  0  0  0  0  0  0  0  0
  150.4738  144.4191  157.8593 H   0  0  0  0  0  0  0  0  0  0  0  0
  150.8674  142.2188  156.8008 H   0  0  0  0  0  0  0  0  0  0  0  0
  150.4565  139.5883  157.3891 H   0  0  0  0  0  0  0  0  0  0  0  0
  151.0582  140.6785  156.1425 H   0  0  0  0  0  0  0  0  0  0  0  0
  152.1321  137.8865  156.6484 H   0  0  0  0  0  0  0  0  0  0  0  0
  153.6319  138.4123  155.3228 H   0  0  0  0  0  0  0  0  0  0  0  0
  150.7930  138.7382  154.0617 H   0  0  0  0  0  0  0  0  0  0  0  0
  150.9821  137.1379  154.6701 H   0  0  0  0  0  0  0  0  0  0  0  0
  149.5894  136.3027  156.2935 H   0  0  0  0  0  0  0  0  0  0  0  0
  144.7415  138.2364  156.5552 H   0  0  0  0  0  0  0  0  0  0  0  0
  145.3999  138.9058  158.0577 H   0  0  0  0  0  0  0  0  0  0  0  0
  145.4103  137.1651  157.7847 H   0  0  0  0  0  0  0  0  0  0  0  0
  146.9339  141.4743  156.3285 H   0  0  0  0  0  0  0  0  0  0  0  0
  145.4572  140.5221  156.2650 H   0  0  0  0  0  0  0  0  0  0  0  0
  146.3295  140.8742  154.7822 H   0  0  0  0  0  0  0  0  0  0  0  0
  153.5404  141.1638  160.0356 H   0  0  0  0  0  0  0  0  0  0  0  0
  153.1413  143.3458  161.0741 H   0  0  0  0  0  0  0  0  0  0  0  0
  1  2  1  0  0  0  0
  1 22  1  0  0  0  0
  1 23  1  0  0  0  0
  1 24  1  0  0  0  0
  2 21  1  0  0  0  0
  2  3  2  0  0  0  0
  3  4  1  0  0  0  0
  3 25  1  0  0  0  0
  4  5  2  0  0  0  0
  4 26  1  0  0  0  0
  5  6  1  0  0  0  0
  5 20  1  0  0  0  0
  6  7  1  0  0  0  0
  7  8  1  0  0  0  0
  7 27  1  0  0  0  0
  7 28  1  0  0  0  0
  8  9  1  0  0  0  0
  8 10  1  0  0  0  0
  8 29  1  0  0  0  0
  9 30  1  0  0  0  0
 10 11  1  0  0  0  0
 10 31  1  0  0  0  0
 10 32  1  0  0  0  0
 11 18  1  0  0  0  0
 11 12  1  0  0  0  0
 12 13  2  0  0  0  0
 12 33  1  0  0  0  0
 13 14  1  0  0  0  0
 14 15  1  0  0  0  0
 14 16  2  0  0  0  0
 15 34  1  0  0  0  0
 15 35  1  0  0  0  0
 15 36  1  0  0  0  0
 16 17  1  0  0  0  0
 16 18  1  0  0  0  0
 17 37  1  0  0  0  0
 17 38  1  0  0  0  0
 17 39  1  0  0  0  0
 18 19  2  0  0  0  0
 20 21  2  0  0  0  0
 20 40  1  0  0  0  0
 21 41  1  0  0  0  0
M  END
> <s_m_source_file>
AV-unprocessed.smi

> <i_m_source_file_index>
2320

> <i_lp_mmshare_version>
43012

> <i_f3d_flags>
0

> <s_epik_input>
W0NIM11jMVtjSF1bY0hdYyhbY0hdW2NIXTEpT1tDSDJdW0NASF0oW09IXSlbQ0gyXW4yW2NIXW5jKFtDSDNdKWMoW0NIM10pYzI9Tw==

> <s_epik_cmdline>
J2VwaWtfcHl0aG9uJywgJy1waCcsICc3LjAnLCAnLXRuJywgJzgnLCAnLW1hJywgJzIwMCcsICctbWV0YWxfYmluZGluZycsICctaW1hZScsICc8aW5maWxlLm1hZT4nLCAnLW9tYWUnLCAnPG91dGZpbGUubWFlPic=

> <r_lp_tautomer_probability>
1

> <r_epik_Ionization_Penalty>
3.74127e-05

> <r_epik_Ionization_Penalty_Charging>
8.43242e-08

> <r_epik_Ionization_Penalty_Neutral>
3.73284e-05

> <r_epik_State_Penalty>
-0

> <r_epik_Charging_Adjusted_Penalty>
8.43242e-08

> <i_epik_Tot_Q>
0

> <i_epik_Tot_abs_Q>
0

> <r_epik_Metal_State_Penalty>
-0

> <b_epik_Metal_Only>
0

> <s_lp_Force_Field>
OPLS_2005

> <r_lp_Energy>
24.611

> <b_lp_Chiralities_Consistent>
1

> <s_lp_Variant>
AV-unprocessed.smi:2320-1

> <Gold.Version>
5.8.1

> <Gold.Id.Protein>
6NUR|6NUR_protein|mol2

> <Gold.PLP.Fitness>
44.9824

> <Gold.PLP.PLP>
-41.6143

> <Gold.PLP.part.hbond>
-3.9137

> <Gold.PLP.part.metal>
0.0000

> <Gold.PLP.part.buried>
-4.7233

> <Gold.PLP.part.nonpolar>
-33.7159

> <Gold.PLP.part.repulsive>
1.1759

> <Gold.PLP.ligand.clash>
0.0000

> <Gold.PLP.ligand.torsion>
1.0499

> <Gold.PLP.Chemscore.Hbond>
1.7970

> <Gold.PLP.Chemscore.CHOScore>
0.0000

> <Gold.PLP.Chemscore.Metal>
0.0000

> <Gold.Chemscore.Hbonds>
donor molecule, donor type, donor heavy atom, donor atom, acceptor molecule, acceptor atom, score
      P1  H  7997  8008       L1     6  0.46

> <Gold.PLP.Chemscore.Internal.Correction>
0.0770

> <Gold.Rescore>
     Score         DG    S(hbond)    S(metal)    S(lipo)     H(rot)  DE(clash)    DE(int)     intcor
     16.19     -17.51       1.58        0.00     109.01       2.35       0.62       0.70       ----

> <Gold.Chemscore.Fitness>
16.1892

> <Gold.Chemscore.DG>
-17.5072

> <Gold.Chemscore.ZeroCoef>
-5.4800

> <Gold.Chemscore.Hbond>
1.5828

> <Gold.Chemscore.Metal>
0.0000

> <Gold.Chemscore.Lipo>
109.0101

> <Gold.Chemscore.Internal_Hbond>
0.0000

> <Gold.Chemscore.DEClash>
0.6193

> <Gold.Chemscore.DEInternal>
0.6986

> <Gold.Chemscore.Rot>
2.3490

> <Gold.Chemscore.Internal.Correction>
   9.000000E+99

> <Gold.Chemscore.Hbonds>
donor molecule, donor type, donor heavy atom, donor atom, acceptor molecule, acceptor atom, score
      P1  H  7997  8008       L1     6  0.29

> <Gold.Chemscore.Hbond.Weighted>
-5.2866

> <Gold.Chemscore.Metal.Weighted>
-0.0000

> <Gold.Chemscore.Lipo.Weighted>
-12.7542

> <Gold.Chemscore.Internal_Hbond.Weighted>
0.0000

> <Gold.Chemscore.DEClash.Weighted>
0.6193

> <Gold.Chemscore.DEInternal.Weighted>
0.6986

> <Gold.Chemscore.Rot.Weighted>
6.0136

> <Gold.Chemscore.Internal.Correction.Weighted>
   9.000000E+99

> <Gold.Protein.RotatedTorsions>
[ 6907 6896 6895 6894 ] final  -89.77 input  -60.11 | X-H torsion
[ 7974 7965 7964 7962 ] final  179.81 input  175.53 | X-H torsion
[ 8008 7997 7996 7995 ] final  -60.89 input   59.86 | X-H torsion
[ 10167 10162 10161 10158 ] final -150.70 input  -65.29 | X-H torsion
[ 10718 10713 10712 10709 ] final   92.71 input   66.30 | X-H torsion
[ 10763 10752 10751 10750 ] final  100.72 input  -60.55 | X-H torsion
[ 11005 11000 10999 10996 ] final  167.26 input  -57.11 | X-H torsion

> <Gold.Protein.ActiveResidues>
 VAL166  LYS551  ARG553  GLY616  TRP617  ASP618  TYR619  PRO620  LYS621  CYS622 
 ASP623  PHE694  ASN695  SER759  ASP760  ASP761  ALA762  ILE779  LEU786  VAL792 
 PHE793  MET794  SER795  GLU796  ALA797  LYS798  CYS799  TRP800  GLU811  SER814 

> <Gold.Protein.RotatedAtoms>
  150.6876  134.2536  159.4520 H   0  0  0  0  0  0  0  0  0  0  0  0  # atno 6907 bound_to 6896
  152.0472  134.9673  160.0583 H   0  0  0  0  0  0  0  0  0  0  0  0  # atno 6908 bound_to 6896
  152.1152  133.4288  159.4686 H   0  0  0  0  0  0  0  0  0  0  0  0  # atno 6909 bound_to 6896
  144.7142  140.0604  143.6433 H   0  0  0  0  0  0  0  0  0  0  0  0  # atno 7974 bound_to 7965
  154.4421  140.1029  156.6345 H   0  0  0  0  0  0  0  0  0  0  0  0  # atno 8008 bound_to 7997
  155.5568  140.3486  155.4463 H   0  0  0  0  0  0  0  0  0  0  0  0  # atno 8009 bound_to 7997
  156.0489  140.1299  157.0062 H   0  0  0  0  0  0  0  0  0  0  0  0  # atno 8010 bound_to 7997
  139.7331  143.8777  152.2541 H   0  0  0  0  0  0  0  0  0  0  0  0  # atno 10167 bound_to 10162
  157.6957  131.0453  150.3923 H   0  0  0  0  0  0  0  0  0  0  0  0  # atno 10718 bound_to 10713
  153.3175  135.4069  155.1388 H   0  0  0  0  0  0  0  0  0  0  0  0  # atno 10763 bound_to 10752
  154.8592  135.3579  154.5641 H   0  0  0  0  0  0  0  0  0  0  0  0  # atno 10764 bound_to 10752
  153.6072  135.7069  153.5420 H   0  0  0  0  0  0  0  0  0  0  0  0  # atno 10765 bound_to 10752
  140.2750  134.7796  157.3708 H   0  0  0  0  0  0  0  0  0  0  0  0  # atno 11005 bound_to 11000
  145.9869  139.2984  143.1008 LP  0  0  0  0  0  0  0  0  0  0  0  0  # atno 17320 bound_to 7965
  145.8947  140.9281  143.0534 LP  0  0  0  0  0  0  0  0  0  0  0  0  # atno 17321 bound_to 7965
  139.8706  144.7070  150.8992 LP  0  0  0  0  0  0  0  0  0  0  0  0  # atno 17342 bound_to 10162
  140.7774  143.3742  151.1594 LP  0  0  0  0  0  0  0  0  0  0  0  0  # atno 17343 bound_to 10162
  156.4325  130.3975  149.6751 LP  0  0  0  0  0  0  0  0  0  0  0  0  # atno 17370 bound_to 10713
  156.3963  130.7652  151.2657 LP  0  0  0  0  0  0  0  0  0  0  0  0  # atno 17371 bound_to 10713
  140.1337  134.5061  155.8085 LP  0  0  0  0  0  0  0  0  0  0  0  0  # atno 17394 bound_to 11000
  141.2172  133.6799  156.7086 LP  0  0  0  0  0  0  0  0  0  0  0  0  # atno 17395 bound_to 11000

$$$$
