AV-unprocessed.smi:753|AV-procd|sdf|3600|dock8
  -GOLD-   22720 0593D 1   1.00000     0.00000
 Structure written by MMmdl.
 43 45  0  0  0  0  0  0  0  0  1 V2000
  152.6182  141.9613  158.9305 C   0  0  0  0  0  0  0  0  0  0  0  0
  151.9460  141.3582  157.7149 C   0  0  0  0  0  0  0  0  0  0  0  0
  150.8547  142.0037  157.0959 C   0  0  0  0  0  0  0  0  0  0  0  0
  150.2671  141.3958  155.9699 C   0  0  0  0  0  0  0  0  0  0  0  0
  150.7924  140.1722  155.5064 C   0  0  0  0  0  0  0  0  0  0  0  0
  150.1929  139.4756  154.3012 C   0  0  0  0  0  0  0  0  0  0  0  0
  148.6586  139.4249  154.3680 C   0  0  0  0  0  0  0  0  0  0  0  0
  148.1280  138.3227  153.5766 N   0  0  0  0  0  0  0  0  0  0  0  0
  146.8229  138.0536  153.4052 C   0  0  0  0  0  0  0  0  0  0  0  0
  145.9212  138.7136  153.9181 O   0  0  0  0  0  0  0  0  0  0  0  0
  146.5676  136.9957  152.6156 N   0  0  0  0  0  0  0  0  0  0  0  0
  145.2606  136.4517  152.2376 C   0  0  1  0  0  0  0  0  0  0  0  0
  145.2375  136.0348  150.7503 C   0  0  0  0  0  0  0  0  0  0  0  0
  144.8559  134.5441  150.8106 C   0  0  1  0  0  0  0  0  0  0  0  0
  146.0428  133.7298  151.3593 C   0  0  0  0  0  0  0  0  0  0  0  0
  146.0471  134.0989  152.8546 C   0  0  0  0  0  0  0  0  0  0  0  0
  144.8968  135.1241  152.9524 C   0  0  2  0  0  0  0  0  0  0  0  0
  143.8857  134.5193  151.9840 C   0  0  0  0  0  0  0  0  0  0  0  0
  151.8861  139.6098  156.1975 C   0  0  0  0  0  0  0  0  0  0  0  0
  152.4548  140.1845  157.2791 N   0  0  0  0  0  0  0  0  0  0  0  0
  152.1750  142.9228  159.1914 H   0  0  0  0  0  0  0  0  0  0  0  0
  153.6800  142.1177  158.7390 H   0  0  0  0  0  0  0  0  0  0  0  0
  152.5173  141.2960  159.7884 H   0  0  0  0  0  0  0  0  0  0  0  0
  150.4738  142.9416  157.4729 H   0  0  0  0  0  0  0  0  0  0  0  0
  149.4280  141.8612  155.4734 H   0  0  0  0  0  0  0  0  0  0  0  0
  150.5159  139.9930  153.3967 H   0  0  0  0  0  0  0  0  0  0  0  0
  150.5990  138.4650  154.2391 H   0  0  0  0  0  0  0  0  0  0  0  0
  148.3353  139.2857  155.4000 H   0  0  0  0  0  0  0  0  0  0  0  0
  148.2287  140.3700  154.0314 H   0  0  0  0  0  0  0  0  0  0  0  0
  148.7996  137.7257  153.1162 H   0  0  0  0  0  0  0  0  0  0  0  0
  147.3700  136.5092  152.2426 H   0  0  0  0  0  0  0  0  0  0  0  0
  144.4827  137.1984  152.4074 H   0  0  0  0  0  0  0  0  0  0  0  0
  144.4811  136.6045  150.2087 H   0  0  0  0  0  0  0  0  0  0  0  0
  146.1903  136.1897  150.2415 H   0  0  0  0  0  0  0  0  0  0  0  0
  144.4557  134.1576  149.8729 H   0  0  0  0  0  0  0  0  0  0  0  0
  145.8764  132.6599  151.2290 H   0  0  0  0  0  0  0  0  0  0  0  0
  146.9810  133.9857  150.8655 H   0  0  0  0  0  0  0  0  0  0  0  0
  145.8239  133.2198  153.4606 H   0  0  0  0  0  0  0  0  0  0  0  0
  147.0091  134.4859  153.1904 H   0  0  0  0  0  0  0  0  0  0  0  0
  144.5251  135.2618  153.9681 H   0  0  0  0  0  0  0  0  0  0  0  0
  143.0045  135.1451  151.8310 H   0  0  0  0  0  0  0  0  0  0  0  0
  143.5657  133.5130  152.2608 H   0  0  0  0  0  0  0  0  0  0  0  0
  152.3149  138.6717  155.8767 H   0  0  0  0  0  0  0  0  0  0  0  0
  1  2  1  0  0  0  0
  1 21  1  0  0  0  0
  1 22  1  0  0  0  0
  1 23  1  0  0  0  0
  2 20  1  0  0  0  0
  2  3  2  0  0  0  0
  3  4  1  0  0  0  0
  3 24  1  0  0  0  0
  4  5  2  0  0  0  0
  4 25  1  0  0  0  0
  5  6  1  0  0  0  0
  5 19  1  0  0  0  0
  6  7  1  0  0  0  0
  6 26  1  0  0  0  0
  6 27  1  0  0  0  0
  7  8  1  0  0  0  0
  7 28  1  0  0  0  0
  7 29  1  0  0  0  0
  8  9  1  0  0  0  0
  8 30  1  0  0  0  0
  9 10  2  0  0  0  0
  9 11  1  0  0  0  0
 11 12  1  0  0  0  0
 11 31  1  0  0  0  0
 12 17  1  0  0  0  0
 12 13  1  0  0  0  0
 12 32  1  0  0  0  0
 13 14  1  0  0  0  0
 13 33  1  0  0  0  0
 13 34  1  0  0  0  0
 14 18  1  0  0  0  0
 14 15  1  0  0  0  0
 14 35  1  0  0  0  0
 15 16  1  0  0  0  0
 15 36  1  0  0  0  0
 15 37  1  0  0  0  0
 16 17  1  0  0  0  0
 16 38  1  0  0  0  0
 16 39  1  0  0  0  0
 17 18  1  0  0  0  0
 17 40  1  0  0  0  0
 18 41  1  0  0  0  0
 18 42  1  0  0  0  0
 19 20  2  0  0  0  0
 19 43  1  0  0  0  0
M  END
> <s_m_source_file>
AV-unprocessed.smi

> <i_m_source_file_index>
753

> <i_lp_mmshare_version>
43012

> <i_f3d_flags>
0

> <s_epik_input>
W0NIM11jMVtjSF1bY0hdYyhbY0hdbjEpW0NIMl1bQ0gyXVtOSF1DKD1PKVtOSF1bQ0BIXShbQ0gyXVtDQEBIXTIzKVtDQEBIXShbQ0gyXTMpW0NIMl1bQ0gyXTI=

> <s_epik_cmdline>
J2VwaWtfcHl0aG9uJywgJy1waCcsICc3LjAnLCAnLXRuJywgJzgnLCAnLW1hJywgJzIwMCcsICctbWV0YWxfYmluZGluZycsICctaW1hZScsICc8aW5maWxlLm1hZT4nLCAnLW9tYWUnLCAnPG91dGZpbGUubWFlPic=

> <r_epik_Ionization_Penalty>
0.0569047

> <r_epik_Ionization_Penalty_Charging>
0

> <r_epik_Ionization_Penalty_Neutral>
0.0569047

> <r_epik_State_Penalty>
0.0490541

> <r_epik_Charging_Adjusted_Penalty>
0.0490541

> <i_epik_Tot_Q>
0

> <i_epik_Tot_abs_Q>
0

> <r_epik_Metal_State_Penalty>
0.0447357

> <b_epik_Metal_Only>
0

> <s_lp_Force_Field>
OPLS_2005

> <r_lp_Energy>
50.4095

> <b_lp_Chiralities_Consistent>
1

> <s_lp_Variant>
AV-unprocessed.smi:753-2

> <Gold.Version>
5.8.1

> <Gold.Id.Protein>
6NUR|6NUR_protein|mol2

> <Gold.PLP.Fitness>
42.1354

> <Gold.PLP.PLP>
-34.4623

> <Gold.PLP.part.hbond>
-3.0000

> <Gold.PLP.part.metal>
0.0000

> <Gold.PLP.part.buried>
-1.9123

> <Gold.PLP.part.nonpolar>
-28.9084

> <Gold.PLP.part.repulsive>
0.2028

> <Gold.PLP.ligand.clash>
0.0000

> <Gold.PLP.ligand.torsion>
0.5161

> <Gold.PLP.Chemscore.Hbond>
2.8960

> <Gold.PLP.Chemscore.CHOScore>
0.0000

> <Gold.PLP.Chemscore.Metal>
0.0000

> <Gold.Chemscore.Hbonds>
donor molecule, donor type, donor heavy atom, donor atom, acceptor molecule, acceptor atom, score
      L1  H     8    30       P1  7948  0.88
      L1  H    11    31       P1  7948  1.00
      P1  H  7997  8008       L1    20  1.00

> <Gold.PLP.Chemscore.Internal.Correction>
0.0172

> <Gold.Rescore>
     Score         DG    S(hbond)    S(metal)    S(lipo)     H(rot)  DE(clash)    DE(int)     intcor
     20.03     -21.18       2.57        0.00      92.12       1.43       0.61       0.54       ----

> <Gold.Chemscore.Fitness>
20.0346

> <Gold.Chemscore.DG>
-21.1849

> <Gold.Chemscore.ZeroCoef>
-5.4800

> <Gold.Chemscore.Hbond>
2.5706

> <Gold.Chemscore.Metal>
0.0000

> <Gold.Chemscore.Lipo>
92.1150

> <Gold.Chemscore.Internal_Hbond>
0.0000

> <Gold.Chemscore.DEClash>
0.6066

> <Gold.Chemscore.DEInternal>
0.5437

> <Gold.Chemscore.Rot>
1.4291

> <Gold.Chemscore.Internal.Correction>
   9.000000E+99

> <Gold.Chemscore.Hbonds>
donor molecule, donor type, donor heavy atom, donor atom, acceptor molecule, acceptor atom, score
      L1  H     8    30       P1  7948  0.86
      L1  H    11    31       P1  7948  0.99
      P1  H  7997  8008       L1    20  0.22

> <Gold.Chemscore.Hbond.Weighted>
-8.5860

> <Gold.Chemscore.Metal.Weighted>
-0.0000

> <Gold.Chemscore.Lipo.Weighted>
-10.7775

> <Gold.Chemscore.Internal_Hbond.Weighted>
0.0000

> <Gold.Chemscore.DEClash.Weighted>
0.6066

> <Gold.Chemscore.DEInternal.Weighted>
0.5437

> <Gold.Chemscore.Rot.Weighted>
3.6585

> <Gold.Chemscore.Internal.Correction.Weighted>
   9.000000E+99

> <Gold.Protein.RotatedTorsions>
[ 6907 6896 6895 6894 ] final  110.25 input  -60.11 | X-H torsion
[ 7974 7965 7964 7962 ] final  170.20 input  175.53 | X-H torsion
[ 8008 7997 7996 7995 ] final  -66.67 input   59.86 | X-H torsion
[ 10167 10162 10161 10158 ] final   16.56 input  -65.29 | X-H torsion
[ 10718 10713 10712 10709 ] final -172.59 input   66.30 | X-H torsion
[ 10763 10752 10751 10750 ] final -128.04 input  -60.55 | X-H torsion
[ 11005 11000 10999 10996 ] final  -89.57 input  -57.11 | X-H torsion

> <Gold.Protein.ActiveResidues>
 VAL166  LYS551  ARG553  GLY616  TRP617  ASP618  TYR619  PRO620  LYS621  CYS622 
 ASP623  PHE694  ASN695  SER759  ASP760  ASP761  ALA762  ILE779  LEU786  VAL792 
 PHE793  MET794  SER795  GLU796  ALA797  LYS798  CYS799  TRP800  GLU811  SER814 

> <Gold.Protein.RotatedAtoms>
  152.5028  133.8827  159.7353 H   0  0  0  0  0  0  0  0  0  0  0  0  # atno 6907 bound_to 6896
  150.9285  133.6786  159.2823 H   0  0  0  0  0  0  0  0  0  0  0  0  # atno 6908 bound_to 6896
  151.4139  135.0993  159.9646 H   0  0  0  0  0  0  0  0  0  0  0  0  # atno 6909 bound_to 6896
  144.7331  139.9167  143.6418 H   0  0  0  0  0  0  0  0  0  0  0  0  # atno 7974 bound_to 7965
  154.4750  140.0908  156.7238 H   0  0  0  0  0  0  0  0  0  0  0  0  # atno 8008 bound_to 7997
  155.4622  140.3461  155.4296 H   0  0  0  0  0  0  0  0  0  0  0  0  # atno 8009 bound_to 7997
  156.1101  140.1445  156.9339 H   0  0  0  0  0  0  0  0  0  0  0  0  # atno 8010 bound_to 7997
  140.5789  143.9019  150.6773 H   0  0  0  0  0  0  0  0  0  0  0  0  # atno 10167 bound_to 10162
  156.7578  130.9402  151.3117 H   0  0  0  0  0  0  0  0  0  0  0  0  # atno 10718 bound_to 10713
  154.8755  135.3942  154.3692 H   0  0  0  0  0  0  0  0  0  0  0  0  # atno 10763 bound_to 10752
  153.4454  135.7027  153.6147 H   0  0  0  0  0  0  0  0  0  0  0  0  # atno 10764 bound_to 10752
  153.4710  135.3790  155.2360 H   0  0  0  0  0  0  0  0  0  0  0  0  # atno 10765 bound_to 10752
  141.1582  133.7638  156.9613 H   0  0  0  0  0  0  0  0  0  0  0  0  # atno 11005 bound_to 11000
  146.0960  139.3952  143.0376 LP  0  0  0  0  0  0  0  0  0  0  0  0  # atno 17320 bound_to 7965
  145.7645  140.9922  143.1182 LP  0  0  0  0  0  0  0  0  0  0  0  0  # atno 17321 bound_to 7965
  140.2513  143.3591  152.1403 LP  0  0  0  0  0  0  0  0  0  0  0  0  # atno 17342 bound_to 10162
  139.5158  144.6968  151.5606 LP  0  0  0  0  0  0  0  0  0  0  0  0  # atno 17343 bound_to 10162
  157.6748  130.9084  150.0125 LP  0  0  0  0  0  0  0  0  0  0  0  0  # atno 17370 bound_to 10713
  156.1359  130.3642  149.9658 LP  0  0  0  0  0  0  0  0  0  0  0  0  # atno 17371 bound_to 10713
  140.1191  134.9428  157.2177 LP  0  0  0  0  0  0  0  0  0  0  0  0  # atno 17394 bound_to 11000
  140.3095  134.3040  155.7270 LP  0  0  0  0  0  0  0  0  0  0  0  0  # atno 17395 bound_to 11000

$$$$
