AV-unprocessed.smi:740|AV-procd|sdf|3546|dock3
  -GOLD-   22720 0543D 1   1.00000     0.00000
 Structure written by MMmdl.
 44 46  0  0  0  0  0  0  0  0  1 V2000
  152.8020  142.9772  161.4114 C   0  0  0  0  0  0  0  0  0  0  0  0
  152.2300  142.6165  160.0518 C   0  0  0  0  0  0  0  0  0  0  0  0
  152.7512  141.4989  159.3619 C   0  0  0  0  0  0  0  0  0  0  0  0
  152.2505  141.1322  158.0937 C   0  0  0  0  0  0  0  0  0  0  0  0
  152.6097  140.0928  157.2528 N   0  0  0  0  0  0  0  0  0  0  0  0
  151.7886  140.2849  156.2245 C   0  0  0  0  0  0  0  0  0  0  0  0
  150.9380  141.3262  156.3004 N   0  0  0  0  0  0  0  0  0  0  0  0
  149.9646  141.7289  155.3013 C   0  0  0  0  0  0  0  0  0  0  0  0
  149.2808  140.5227  154.6294 C   0  0  2  0  0  0  0  0  0  0  0  0
  150.1659  139.9785  153.6690 O   0  0  0  0  0  0  0  0  0  0  0  0
  147.9710  140.9301  153.9235 C   0  0  0  0  0  0  0  0  0  0  0  0
  146.9747  141.4451  154.8700 N   0  0  0  0  0  0  0  0  0  0  0  0
  146.2705  142.5695  154.6806 C   0  0  0  0  0  0  0  0  0  0  0  0
  146.3413  143.3176  153.7061 O   0  0  0  0  0  0  0  0  0  0  0  0
  145.3412  142.8367  155.8562 C   0  0  0  0  0  0  0  0  0  0  0  0
  145.6124  141.6529  156.7968 C   0  0  1  0  0  0  0  0  0  0  0  0
  144.3660  140.8050  157.0998 C   0  0  0  0  0  0  0  0  0  0  0  0
  146.6706  140.8567  156.0355 C   0  0  0  0  0  0  0  0  0  0  0  0
  147.1585  139.8137  156.4710 O   0  0  0  0  0  0  0  0  0  0  0  0
  151.2055  141.9207  157.5290 C   0  0  0  0  0  0  0  0  0  0  0  0
  150.6771  143.0339  158.2066 C   0  0  0  0  0  0  0  0  0  0  0  0
  151.1889  143.3863  159.4731 C   0  0  0  0  0  0  0  0  0  0  0  0
  150.6134  144.5912  160.1958 C   0  0  0  0  0  0  0  0  0  0  0  0
  153.5661  142.2648  161.7238 H   0  0  0  0  0  0  0  0  0  0  0  0
  152.0182  142.9793  162.1692 H   0  0  0  0  0  0  0  0  0  0  0  0
  153.2587  143.9667  161.3818 H   0  0  0  0  0  0  0  0  0  0  0  0
  153.5446  140.9124  159.8012 H   0  0  0  0  0  0  0  0  0  0  0  0
  151.8076  139.6331  155.3634 H   0  0  0  0  0  0  0  0  0  0  0  0
  149.2200  142.3576  155.7916 H   0  0  0  0  0  0  0  0  0  0  0  0
  150.4599  142.3560  154.5588 H   0  0  0  0  0  0  0  0  0  0  0  0
  149.0804  139.7647  155.3880 H   0  0  0  0  0  0  0  0  0  0  0  0
  149.7406  139.9916  152.8253 H   0  0  0  0  0  0  0  0  0  0  0  0
  148.1802  141.7159  153.1954 H   0  0  0  0  0  0  0  0  0  0  0  0
  147.5734  140.0993  153.3376 H   0  0  0  0  0  0  0  0  0  0  0  0
  145.5867  143.7901  156.3251 H   0  0  0  0  0  0  0  0  0  0  0  0
  144.3056  142.8731  155.5161 H   0  0  0  0  0  0  0  0  0  0  0  0
  146.0500  142.0108  157.7296 H   0  0  0  0  0  0  0  0  0  0  0  0
  144.6037  139.9797  157.7720 H   0  0  0  0  0  0  0  0  0  0  0  0
  143.9365  140.3825  156.1905 H   0  0  0  0  0  0  0  0  0  0  0  0
  143.5951  141.4073  157.5809 H   0  0  0  0  0  0  0  0  0  0  0  0
  149.8869  143.6134  157.7529 H   0  0  0  0  0  0  0  0  0  0  0  0
  149.8328  145.0737  159.6066 H   0  0  0  0  0  0  0  0  0  0  0  0
  151.3919  145.3294  160.3885 H   0  0  0  0  0  0  0  0  0  0  0  0
  150.1760  144.2915  161.1485 H   0  0  0  0  0  0  0  0  0  0  0  0
  1  2  1  0  0  0  0
  1 24  1  0  0  0  0
  1 25  1  0  0  0  0
  1 26  1  0  0  0  0
  2 22  1  0  0  0  0
  2  3  2  0  0  0  0
  3  4  1  0  0  0  0
  3 27  1  0  0  0  0
  4 20  2  0  0  0  0
  4  5  1  0  0  0  0
  5  6  2  0  0  0  0
  6  7  1  0  0  0  0
  6 28  1  0  0  0  0
  7  8  1  0  0  0  0
  7 20  1  0  0  0  0
  8  9  1  0  0  0  0
  8 29  1  0  0  0  0
  8 30  1  0  0  0  0
  9 10  1  0  0  0  0
  9 11  1  0  0  0  0
  9 31  1  0  0  0  0
 10 32  1  0  0  0  0
 11 12  1  0  0  0  0
 11 33  1  0  0  0  0
 11 34  1  0  0  0  0
 12 18  1  0  0  0  0
 12 13  1  0  0  0  0
 13 14  2  0  0  0  0
 13 15  1  0  0  0  0
 15 16  1  0  0  0  0
 15 35  1  0  0  0  0
 15 36  1  0  0  0  0
 16 17  1  0  0  0  0
 16 18  1  0  0  0  0
 16 37  1  0  0  0  0
 17 38  1  0  0  0  0
 17 39  1  0  0  0  0
 17 40  1  0  0  0  0
 18 19  2  0  0  0  0
 20 21  1  0  0  0  0
 21 22  2  0  0  0  0
 21 41  1  0  0  0  0
 22 23  1  0  0  0  0
 23 42  1  0  0  0  0
 23 43  1  0  0  0  0
 23 44  1  0  0  0  0
M  END
> <s_m_source_file>
AV-unprocessed.smi

> <i_m_source_file_index>
740

> <i_lp_mmshare_version>
43012

> <i_f3d_flags>
0

> <s_epik_input>
W0NIM11jKFtjSF0xKWMoW0NIM10pW2NIXWMoYzEyKW4oW2NIXW4yKVtDSDJdW0NASF0oW09IXSlbQ0gyXU4zQyg9TylbQ0gyXVtDQEBIXShbQ0gzXSlDMz1P

> <s_epik_cmdline>
J2VwaWtfcHl0aG9uJywgJy1waCcsICc3LjAnLCAnLXRuJywgJzgnLCAnLW1hJywgJzIwMCcsICctbWV0YWxfYmluZGluZycsICctaW1hZScsICc8aW5maWxlLm1hZT4nLCAnLW9tYWUnLCAnPG91dGZpbGUubWFlPic=

> <r_lp_tautomer_probability>
1

> <r_epik_Ionization_Penalty>
0.104021

> <r_epik_Ionization_Penalty_Charging>
0

> <r_epik_Ionization_Penalty_Neutral>
0.104021

> <r_epik_State_Penalty>
0.0939354

> <r_epik_Charging_Adjusted_Penalty>
0.0939354

> <i_epik_Tot_Q>
0

> <i_epik_Tot_abs_Q>
0

> <r_epik_Metal_State_Penalty>
0.000101783

> <b_epik_Metal_Only>
0

> <s_lp_Force_Field>
OPLS_2005

> <r_lp_Energy>
16.4677

> <b_lp_Chiralities_Consistent>
1

> <s_lp_Variant>
AV-unprocessed.smi:740-1

> <Gold.Version>
5.8.1

> <Gold.Id.Protein>
6NUR|6NUR_protein|mol2

> <Gold.PLP.Fitness>
52.8360

> <Gold.PLP.PLP>
-45.3885

> <Gold.PLP.part.hbond>
-4.0000

> <Gold.PLP.part.metal>
0.0000

> <Gold.PLP.part.buried>
-3.4748

> <Gold.PLP.part.nonpolar>
-37.5627

> <Gold.PLP.part.repulsive>
0.2193

> <Gold.PLP.ligand.clash>
0.0000

> <Gold.PLP.ligand.torsion>
0.6159

> <Gold.PLP.Chemscore.Hbond>
2.8785

> <Gold.PLP.Chemscore.CHOScore>
0.0000

> <Gold.PLP.Chemscore.Metal>
0.0000

> <Gold.Chemscore.Hbonds>
donor molecule, donor type, donor heavy atom, donor atom, acceptor molecule, acceptor atom, score
      L1  H    10    32       P1  7957  1.00
      P1  H  7989  7998       L1    10  0.80
      P1  H  7997  8010       L1     5  1.00

> <Gold.PLP.Chemscore.Internal.Correction>
0.0437

> <Gold.Rescore>
     Score         DG    S(hbond)    S(metal)    S(lipo)     H(rot)  DE(clash)    DE(int)     intcor
     17.44     -19.19       2.29        0.00     102.47       2.31       0.35       1.40       ----

> <Gold.Chemscore.Fitness>
17.4400

> <Gold.Chemscore.DG>
-19.1895

> <Gold.Chemscore.ZeroCoef>
-5.4800

> <Gold.Chemscore.Hbond>
2.2893

> <Gold.Chemscore.Metal>
0.0000

> <Gold.Chemscore.Lipo>
102.4699

> <Gold.Chemscore.Internal_Hbond>
0.0000

> <Gold.Chemscore.DEClash>
0.3500

> <Gold.Chemscore.DEInternal>
1.3996

> <Gold.Chemscore.Rot>
2.3147

> <Gold.Chemscore.Internal.Correction>
   9.000000E+99

> <Gold.Chemscore.Hbonds>
donor molecule, donor type, donor heavy atom, donor atom, acceptor molecule, acceptor atom, score
      L1  H    10    32       P1  7957  0.99
      P1  H  7989  7998       L1    10  0.35
      P1  H  7997  8010       L1     5  0.73

> <Gold.Chemscore.Hbond.Weighted>
-7.6461

> <Gold.Chemscore.Metal.Weighted>
-0.0000

> <Gold.Chemscore.Lipo.Weighted>
-11.9890

> <Gold.Chemscore.Internal_Hbond.Weighted>
0.0000

> <Gold.Chemscore.DEClash.Weighted>
0.3500

> <Gold.Chemscore.DEInternal.Weighted>
1.3996

> <Gold.Chemscore.Rot.Weighted>
5.9256

> <Gold.Chemscore.Internal.Correction.Weighted>
   9.000000E+99

> <Gold.Protein.RotatedTorsions>
[ 6907 6896 6895 6894 ] final    9.43 input  -60.11 | X-H torsion
[ 7974 7965 7964 7962 ] final  -39.26 input  175.53 | X-H torsion
[ 8008 7997 7996 7995 ] final   55.44 input   59.86 | X-H torsion
[ 10167 10162 10161 10158 ] final   83.66 input  -65.29 | X-H torsion
[ 10718 10713 10712 10709 ] final  -42.47 input   66.30 | X-H torsion
[ 10763 10752 10751 10750 ] final   22.89 input  -60.55 | X-H torsion
[ 11005 11000 10999 10996 ] final  -55.47 input  -57.11 | X-H torsion

> <Gold.Protein.ActiveResidues>
 VAL166  LYS551  ARG553  GLY616  TRP617  ASP618  TYR619  PRO620  LYS621  CYS622 
 ASP623  PHE694  ASN695  SER759  ASP760  ASP761  ALA762  ILE779  LEU786  VAL792 
 PHE793  MET794  SER795  GLU796  ALA797  LYS798  CYS799  TRP800  GLU811  SER814 

> <Gold.Protein.RotatedAtoms>
  151.7221  135.0892  160.0285 H   0  0  0  0  0  0  0  0  0  0  0  0  # atno 6907 bound_to 6896
  152.3595  133.6275  159.6013 H   0  0  0  0  0  0  0  0  0  0  0  0  # atno 6908 bound_to 6896
  150.7595  133.9362  159.3483 H   0  0  0  0  0  0  0  0  0  0  0  0  # atno 6909 bound_to 6896
  146.0412  140.6606  142.9086 H   0  0  0  0  0  0  0  0  0  0  0  0  # atno 7974 bound_to 7965
  155.5012  140.3474  155.4371 H   0  0  0  0  0  0  0  0  0  0  0  0  # atno 8008 bound_to 7997
  156.0912  140.1411  156.9617 H   0  0  0  0  0  0  0  0  0  0  0  0  # atno 8009 bound_to 7997
  154.4636  140.0925  156.6938 H   0  0  0  0  0  0  0  0  0  0  0  0  # atno 8010 bound_to 7997
  139.9161  144.6242  150.8488 H   0  0  0  0  0  0  0  0  0  0  0  0  # atno 10167 bound_to 10162
  156.2593  130.4195  149.8561 H   0  0  0  0  0  0  0  0  0  0  0  0  # atno 10718 bound_to 10713
  153.0880  135.6638  153.9910 H   0  0  0  0  0  0  0  0  0  0  0  0  # atno 10763 bound_to 10752
  153.9514  135.2983  155.3440 H   0  0  0  0  0  0  0  0  0  0  0  0  # atno 10764 bound_to 10752
  154.7291  135.5131  153.9007 H   0  0  0  0  0  0  0  0  0  0  0  0  # atno 10765 bound_to 10752
  141.1075  133.6612  156.4474 H   0  0  0  0  0  0  0  0  0  0  0  0  # atno 11005 bound_to 11000
  144.7075  140.3911  143.7106 LP  0  0  0  0  0  0  0  0  0  0  0  0  # atno 17320 bound_to 7965
  145.6881  139.1633  143.2662 LP  0  0  0  0  0  0  0  0  0  0  0  0  # atno 17321 bound_to 7965
  140.7674  143.3330  151.2368 LP  0  0  0  0  0  0  0  0  0  0  0  0  # atno 17342 bound_to 10162
  139.6901  143.9706  152.2855 LP  0  0  0  0  0  0  0  0  0  0  0  0  # atno 17343 bound_to 10162
  156.6082  130.8575  151.3448 LP  0  0  0  0  0  0  0  0  0  0  0  0  # atno 17370 bound_to 10713
  157.7244  130.9602  150.1573 LP  0  0  0  0  0  0  0  0  0  0  0  0  # atno 17371 bound_to 10713
  140.4863  134.6617  157.5192 LP  0  0  0  0  0  0  0  0  0  0  0  0  # atno 17394 bound_to 11000
  139.9952  134.6922  155.9621 LP  0  0  0  0  0  0  0  0  0  0  0  0  # atno 17395 bound_to 11000

$$$$
