AV-unprocessed.smi:1615|AV-procd|sdf|6481|dock1
  -GOLD-   22720 7143D 1   1.00000     0.00000
 Structure written by MMmdl.
 32 33  0  0  0  0  0  0  0  0  1 V2000
  150.4112  140.4787  154.9998 O   0  0  0  0  0  0  0  0  0  0  0  0
  149.7647  141.5063  155.1999 C   0  0  0  0  0  0  0  0  0  0  0  0
  148.4879  141.7711  154.4015 C   0  0  0  0  0  0  0  0  0  0  0  0
  147.7144  140.5531  154.2368 N   0  0  0  0  0  0  0  0  0  0  0  0
  147.4019  139.8912  153.0642 C   0  0  0  0  0  0  0  0  0  0  0  0
  146.6575  138.8159  153.4418 C   0  0  0  0  0  0  0  0  0  0  0  0
  145.9077  137.4930  152.2988 Br  0  0  0  0  0  0  0  0  0  0  0  0
  146.5506  138.8780  154.8544 C   0  0  0  0  0  0  0  0  0  0  0  0
  147.1952  139.9340  155.3287 N   0  0  0  0  0  0  0  0  0  0  0  0
  150.1068  142.4402  156.1016 N   0  0  0  0  0  0  0  0  0  0  0  0
  151.2563  142.3851  156.9999 C   0  0  0  0  0  0  0  0  0  0  0  0
  150.9886  141.3570  158.1154 C   0  0  0  0  0  0  0  0  0  0  0  0
  152.1319  141.3290  159.1425 C   0  0  0  0  0  0  0  0  0  0  0  0
  152.3879  142.7259  159.7294 C   0  0  0  0  0  0  0  0  0  0  0  0
  152.6685  143.7493  158.6179 C   0  0  0  0  0  0  0  0  0  0  0  0
  151.5264  143.7830  157.5891 C   0  0  0  0  0  0  0  0  0  0  0  0
  147.8726  142.5151  154.9094 H   0  0  0  0  0  0  0  0  0  0  0  0
  148.7385  142.1783  153.4206 H   0  0  0  0  0  0  0  0  0  0  0  0
  147.7257  140.2349  152.0928 H   0  0  0  0  0  0  0  0  0  0  0  0
  146.0414  138.2110  155.5342 H   0  0  0  0  0  0  0  0  0  0  0  0
  149.5119  143.2518  156.1843 H   0  0  0  0  0  0  0  0  0  0  0  0
  152.1488  142.0688  156.4568 H   0  0  0  0  0  0  0  0  0  0  0  0
  150.0540  141.5974  158.6241 H   0  0  0  0  0  0  0  0  0  0  0  0
  150.8582  140.3637  157.6836 H   0  0  0  0  0  0  0  0  0  0  0  0
  151.8958  140.6269  159.9424 H   0  0  0  0  0  0  0  0  0  0  0  0
  153.0416  140.9609  158.6663 H   0  0  0  0  0  0  0  0  0  0  0  0
  151.5211  143.0439  160.3101 H   0  0  0  0  0  0  0  0  0  0  0  0
  153.2285  142.6899  160.4231 H   0  0  0  0  0  0  0  0  0  0  0  0
  152.8082  144.7401  159.0509 H   0  0  0  0  0  0  0  0  0  0  0  0
  153.6037  143.4963  158.1167 H   0  0  0  0  0  0  0  0  0  0  0  0
  151.7725  144.4837  156.7901 H   0  0  0  0  0  0  0  0  0  0  0  0
  150.6230  144.1642  158.0673 H   0  0  0  0  0  0  0  0  0  0  0  0
  1  2  2  0  0  0  0
  2  3  1  0  0  0  0
  2 10  1  0  0  0  0
  3  4  1  0  0  0  0
  3 17  1  0  0  0  0
  3 18  1  0  0  0  0
  4  9  1  0  0  0  0
  4  5  1  0  0  0  0
  5  6  2  0  0  0  0
  5 19  1  0  0  0  0
  6  7  1  0  0  0  0
  6  8  1  0  0  0  0
  8  9  2  0  0  0  0
  8 20  1  0  0  0  0
 10 11  1  0  0  0  0
 10 21  1  0  0  0  0
 11 16  1  0  0  0  0
 11 12  1  0  0  0  0
 11 22  1  0  0  0  0
 12 13  1  0  0  0  0
 12 23  1  0  0  0  0
 12 24  1  0  0  0  0
 13 14  1  0  0  0  0
 13 25  1  0  0  0  0
 13 26  1  0  0  0  0
 14 15  1  0  0  0  0
 14 27  1  0  0  0  0
 14 28  1  0  0  0  0
 15 16  1  0  0  0  0
 15 29  1  0  0  0  0
 15 30  1  0  0  0  0
 16 31  1  0  0  0  0
 16 32  1  0  0  0  0
M  END
> <s_m_source_file>
AV-unprocessed.smi

> <i_m_source_file_index>
1615

> <i_lp_mmshare_version>
43012

> <i_f3d_flags>
0

> <s_epik_input>
bjFbY0hdYyhCcilbY0hdbjFbQ0gyXUMoPU8pW05IXVtDSF0yW0NIMl1bQ0gyXVtDSDJdW0NIMl1bQ0gyXTI=

> <s_epik_cmdline>
J2VwaWtfcHl0aG9uJywgJy1waCcsICc3LjAnLCAnLXRuJywgJzgnLCAnLW1hJywgJzIwMCcsICctbWV0YWxfYmluZGluZycsICctaW1hZScsICc8aW5maWxlLm1hZT4nLCAnLW9tYWUnLCAnPG91dGZpbGUubWFlPic=

> <r_lp_tautomer_probability>
1

> <r_epik_Ionization_Penalty>
2.45271e-07

> <r_epik_Ionization_Penalty_Charging>
0

> <r_epik_Ionization_Penalty_Neutral>
2.45271e-07

> <r_epik_State_Penalty>
-0

> <r_epik_Charging_Adjusted_Penalty>
0

> <i_epik_Tot_Q>
0

> <i_epik_Tot_abs_Q>
0

> <r_epik_Metal_State_Penalty>
-0

> <b_epik_Metal_Only>
0

> <s_lp_Force_Field>
OPLS_2005

> <r_lp_Energy>
11.9835

> <b_lp_Chiralities_Consistent>
1

> <s_lp_Variant>
AV-unprocessed.smi:1615-1

> <Gold.Version>
5.8.1

> <Gold.Id.Protein>
6NUR|6NUR_protein|mol2

> <Gold.PLP.Fitness>
40.4824

> <Gold.PLP.PLP>
-32.4097

> <Gold.PLP.part.hbond>
-2.0000

> <Gold.PLP.part.metal>
0.0000

> <Gold.PLP.part.buried>
-1.4454

> <Gold.PLP.part.nonpolar>
-29.1987

> <Gold.PLP.part.repulsive>
0.2218

> <Gold.PLP.ligand.clash>
0.0000

> <Gold.PLP.ligand.torsion>
0.4672

> <Gold.PLP.Chemscore.Hbond>
2.0000

> <Gold.PLP.Chemscore.CHOScore>
1.0000

> <Gold.PLP.Chemscore.Metal>
0.0000

> <Gold.Chemscore.Hbonds>
donor molecule, donor type, donor heavy atom, donor atom, acceptor molecule, acceptor atom, score
      L1  H    10    21       P1  8028  1.00
      P1  H  7989  7998       L1     1  1.00
      L1  C     5    19       P1  7957  1.00

> <Gold.PLP.Chemscore.Internal.Correction>
0.0071

> <Gold.Rescore>
     Score         DG    S(hbond)    S(metal)    S(lipo)     H(rot)  DE(clash)    DE(int)     intcor
     17.37     -17.92       1.72        0.00      87.92       1.40       0.19       0.36       ----

> <Gold.Chemscore.Fitness>
17.3716

> <Gold.Chemscore.DG>
-17.9222

> <Gold.Chemscore.ZeroCoef>
-5.4800

> <Gold.Chemscore.Hbond>
1.7156

> <Gold.Chemscore.Metal>
0.0000

> <Gold.Chemscore.Lipo>
87.9198

> <Gold.Chemscore.Internal_Hbond>
0.0000

> <Gold.Chemscore.DEClash>
0.1864

> <Gold.Chemscore.DEInternal>
0.3642

> <Gold.Chemscore.Rot>
1.3963

> <Gold.Chemscore.Internal.Correction>
   9.000000E+99

> <Gold.Chemscore.Hbonds>
donor molecule, donor type, donor heavy atom, donor atom, acceptor molecule, acceptor atom, score
      L1  H    10    21       P1  8028  0.97
      P1  H  7989  7998       L1     1  0.51

> <Gold.Chemscore.Hbond.Weighted>
-5.7301

> <Gold.Chemscore.Metal.Weighted>
-0.0000

> <Gold.Chemscore.Lipo.Weighted>
-10.2866

> <Gold.Chemscore.Internal_Hbond.Weighted>
0.0000

> <Gold.Chemscore.DEClash.Weighted>
0.1864

> <Gold.Chemscore.DEInternal.Weighted>
0.3642

> <Gold.Chemscore.Rot.Weighted>
3.5746

> <Gold.Chemscore.Internal.Correction.Weighted>
   9.000000E+99

> <Gold.Protein.RotatedTorsions>
[ 6907 6896 6895 6894 ] final -130.41 input  -60.11 | X-H torsion
[ 7974 7965 7964 7962 ] final   16.22 input  175.53 | X-H torsion
[ 8008 7997 7996 7995 ] final  -65.15 input   59.86 | X-H torsion
[ 10167 10162 10161 10158 ] final  -16.27 input  -65.29 | X-H torsion
[ 10718 10713 10712 10709 ] final   86.08 input   66.30 | X-H torsion
[ 10763 10752 10751 10750 ] final  -67.42 input  -60.55 | X-H torsion
[ 11005 11000 10999 10996 ] final   96.87 input  -57.11 | X-H torsion

> <Gold.Protein.ActiveResidues>
 VAL166  LYS551  ARG553  GLY616  TRP617  ASP618  TYR619  PRO620  LYS621  CYS622 
 ASP623  PHE694  ASN695  SER759  ASP760  ASP761  ALA762  ILE779  LEU786  VAL792 
 PHE793  MET794  SER795  GLU796  ALA797  LYS798  CYS799  TRP800  GLU811  SER814 

> <Gold.Protein.RotatedAtoms>
  150.9394  133.6674  159.2793 H   0  0  0  0  0  0  0  0  0  0  0  0  # atno 6907 bound_to 6896
  151.4068  135.0978  159.9582 H   0  0  0  0  0  0  0  0  0  0  0  0  # atno 6908 bound_to 6896
  152.5062  133.8876  159.7432 H   0  0  0  0  0  0  0  0  0  0  0  0  # atno 6909 bound_to 6896
  146.2256  139.8780  142.8576 H   0  0  0  0  0  0  0  0  0  0  0  0  # atno 7974 bound_to 7965
  154.4654  140.0939  156.7006 H   0  0  0  0  0  0  0  0  0  0  0  0  # atno 8008 bound_to 7997
  155.4873  140.3469  155.4331 H   0  0  0  0  0  0  0  0  0  0  0  0  # atno 8009 bound_to 7997
  156.0947  140.1406  156.9535 H   0  0  0  0  0  0  0  0  0  0  0  0  # atno 8010 bound_to 7997
  140.7231  143.5133  150.9723 H   0  0  0  0  0  0  0  0  0  0  0  0  # atno 10167 bound_to 10162
  157.6924  131.0201  150.2918 H   0  0  0  0  0  0  0  0  0  0  0  0  # atno 10718 bound_to 10713
  154.3743  135.6088  153.5756 H   0  0  0  0  0  0  0  0  0  0  0  0  # atno 10763 bound_to 10752
  152.9789  135.5845  154.4485 H   0  0  0  0  0  0  0  0  0  0  0  0  # atno 10764 bound_to 10752
  154.4244  135.2846  155.1932 H   0  0  0  0  0  0  0  0  0  0  0  0  # atno 10765 bound_to 10752
  139.8779  134.8972  156.4223 H   0  0  0  0  0  0  0  0  0  0  0  0  # atno 11005 bound_to 11000
  145.2541  141.0054  143.3864 LP  0  0  0  0  0  0  0  0  0  0  0  0  # atno 17320 bound_to 7965
  144.9351  139.4254  143.6476 LP  0  0  0  0  0  0  0  0  0  0  0  0  # atno 17321 bound_to 7965
  139.8848  143.7027  152.3153 LP  0  0  0  0  0  0  0  0  0  0  0  0  # atno 17342 bound_to 10162
  139.7322  144.7579  151.0784 LP  0  0  0  0  0  0  0  0  0  0  0  0  # atno 17343 bound_to 10162
  156.3448  130.3821  149.7378 LP  0  0  0  0  0  0  0  0  0  0  0  0  # atno 17370 bound_to 10713
  156.4875  130.8070  151.3081 LP  0  0  0  0  0  0  0  0  0  0  0  0  # atno 17371 bound_to 10713
  140.9125  133.7701  155.9809 LP  0  0  0  0  0  0  0  0  0  0  0  0  # atno 17394 bound_to 11000
  140.8530  134.2931  157.5267 LP  0  0  0  0  0  0  0  0  0  0  0  0  # atno 17395 bound_to 11000

$$$$
