AV-unprocessed.smi:3303|AV-procd|sdf|12657|dock6
  -GOLD-   2272018593D 1   1.00000     0.00000
 Structure written by MMmdl.
 45 46  0  0  0  0  0  0  0  0  3 V2000
  144.5536  132.8917  149.4870 C   0  0  0  0  0  0  0  0  0  0  0  0
  145.7878  132.6224  150.3664 C   0  0  2  0  0  0  0  0  0  0  0  0
  145.6048  131.3047  151.1470 C   0  0  0  0  0  0  0  0  0  0  0  0
  146.7768  130.9886  152.0045 N   0  3  2  0  0  0  0  0  0  0  0  0
  146.6323  129.6489  152.6245 C   0  0  0  0  0  0  0  0  0  0  0  0
  147.0647  132.0828  152.9795 C   0  0  1  0  0  0  0  0  0  0  0  0
  148.2947  131.7864  153.8598 C   0  0  0  0  0  0  0  0  0  0  0  0
  147.2722  133.4171  152.2338 C   0  0  0  0  0  0  0  0  0  0  0  0
  146.0747  133.7826  151.3429 C   0  0  1  0  0  0  0  0  0  0  0  0
  146.3686  135.0349  150.6088 N   0  3  0  0  0  0  0  0  0  0  0  0
  145.3419  136.0873  150.7436 C   0  0  0  0  0  0  0  0  0  0  0  0
  145.1455  136.4784  152.2144 C   0  0  0  0  0  0  0  0  0  0  0  0
  143.7233  136.2427  152.6844 C   0  0  0  0  0  0  0  0  0  0  0  0
  142.8650  137.3285  152.9589 C   0  0  0  0  0  0  0  0  0  0  0  0
  141.5506  137.0528  153.3832 C   0  0  0  0  0  0  0  0  0  0  0  0
  141.1484  135.7099  153.5156 C   0  0  0  0  0  0  0  0  0  0  0  0
  142.0815  134.6974  153.2155 C   0  0  0  0  0  0  0  0  0  0  0  0
  143.3434  134.9510  152.8049 N   0  0  0  0  0  0  0  0  0  0  0  0
  143.6598  133.0463  150.0924 H   0  0  0  0  0  0  0  0  0  0  0  0
  144.3587  132.0529  148.8179 H   0  0  0  0  0  0  0  0  0  0  0  0
  144.6882  133.7751  148.8624 H   0  0  0  0  0  0  0  0  0  0  0  0
  146.6484  132.5040  149.7055 H   0  0  0  0  0  0  0  0  0  0  0  0
  144.7082  131.3549  151.7676 H   0  0  0  0  0  0  0  0  0  0  0  0
  145.4494  130.4890  150.4392 H   0  0  0  0  0  0  0  0  0  0  0  0
  145.8577  129.6536  153.3922 H   0  0  0  0  0  0  0  0  0  0  0  0
  147.5657  129.3125  153.0747 H   0  0  0  0  0  0  0  0  0  0  0  0
  146.3622  128.9027  151.8764 H   0  0  0  0  0  0  0  0  0  0  0  0
  146.1987  132.1861  153.6361 H   0  0  0  0  0  0  0  0  0  0  0  0
  148.5374  132.6425  154.4900 H   0  0  0  0  0  0  0  0  0  0  0  0
  149.1746  131.5636  153.2554 H   0  0  0  0  0  0  0  0  0  0  0  0
  148.1241  130.9465  154.5332 H   0  0  0  0  0  0  0  0  0  0  0  0
  147.4434  134.2174  152.9552 H   0  0  0  0  0  0  0  0  0  0  0  0
  148.1766  133.3551  151.6257 H   0  0  0  0  0  0  0  0  0  0  0  0
  145.2026  133.9274  151.9839 H   0  0  0  0  0  0  0  0  0  0  0  0
  147.2475  135.4053  150.9423 H   0  0  0  0  0  0  0  0  0  0  0  0
  145.6433  136.9621  150.1657 H   0  0  0  0  0  0  0  0  0  0  0  0
  144.4034  135.7260  150.3206 H   0  0  0  0  0  0  0  0  0  0  0  0
  145.8257  135.9080  152.8489 H   0  0  0  0  0  0  0  0  0  0  0  0
  145.3998  137.5294  152.3589 H   0  0  0  0  0  0  0  0  0  0  0  0
  143.2014  138.3489  152.8473 H   0  0  0  0  0  0  0  0  0  0  0  0
  140.8631  137.8566  153.6017 H   0  0  0  0  0  0  0  0  0  0  0  0
  140.1484  135.4613  153.8387 H   0  0  0  0  0  0  0  0  0  0  0  0
  141.8069  133.6570  153.3056 H   0  0  0  0  0  0  0  0  0  0  0  0
  146.4676  134.8128  149.6283 H   0  0  0  0  0  0  0  0  0  0  0  0
  147.5754  130.9294  151.3885 H   0  0  0  0  0  0  0  0  0  0  0  0
  1  2  1  0  0  0  0
  1 19  1  0  0  0  0
  1 20  1  0  0  0  0
  1 21  1  0  0  0  0
  2  9  1  0  0  0  0
  2  3  1  0  0  0  0
  2 22  1  0  0  0  0
  3  4  1  0  0  0  0
  3 23  1  0  0  0  0
  3 24  1  0  0  0  0
  4  5  1  0  0  0  0
  4  6  1  0  0  0  0
  4 45  1  0  0  0  0
  5 25  1  0  0  0  0
  5 26  1  0  0  0  0
  5 27  1  0  0  0  0
  6  7  1  0  0  0  0
  6  8  1  0  0  0  0
  6 28  1  0  0  0  0
  7 29  1  0  0  0  0
  7 30  1  0  0  0  0
  7 31  1  0  0  0  0
  8  9  1  0  0  0  0
  8 32  1  0  0  0  0
  8 33  1  0  0  0  0
  9 10  1  0  0  0  0
  9 34  1  0  0  0  0
 10 11  1  0  0  0  0
 10 35  1  0  0  0  0
 10 44  1  0  0  0  0
 11 12  1  0  0  0  0
 11 36  1  0  0  0  0
 11 37  1  0  0  0  0
 12 13  1  0  0  0  0
 12 38  1  0  0  0  0
 12 39  1  0  0  0  0
 13 18  1  0  0  0  0
 13 14  2  0  0  0  0
 14 15  1  0  0  0  0
 14 40  1  0  0  0  0
 15 16  2  0  0  0  0
 15 41  1  0  0  0  0
 16 17  1  0  0  0  0
 16 42  1  0  0  0  0
 17 18  2  0  0  0  0
 17 43  1  0  0  0  0
M  CHG  1   4   1
M  CHG  1  10   1
M  END
> <s_m_source_file>
AV-unprocessed.smi

> <i_m_source_file_index>
3303

> <i_lp_mmshare_version>
43012

> <i_f3d_flags>
0

> <s_epik_input>
W0NIM11bQ0BASF0xW0NIMl1OKFtDSDNdKVtDQEBIXShbQ0gzXSlbQ0gyXVtDQEhdMVtOSF1bQ0gyXVtDSDJdYzJbY0hdW2NIXVtjSF1bY0hdbjI=

> <s_epik_cmdline>
J2VwaWtfcHl0aG9uJywgJy1waCcsICc3LjAnLCAnLXRuJywgJzgnLCAnLW1hJywgJzIwMCcsICctbWV0YWxfYmluZGluZycsICctaW1hZScsICc8aW5maWxlLm1hZT4nLCAnLW9tYWUnLCAnPG91dGZpbGUubWFlPic=

> <r_epik_Ionization_Penalty>
0.0769462

> <r_epik_Ionization_Penalty_Charging>
0.0759813

> <r_epik_Ionization_Penalty_Neutral>
0.000964829

> <r_epik_State_Penalty>
0.0654373

> <r_epik_Charging_Adjusted_Penalty>
0.141419

> <i_epik_Tot_Q>
2

> <i_epik_Tot_abs_Q>
2

> <r_epik_Metal_State_Penalty>
0.0656439

> <b_epik_Metal_Only>
0

> <s_lp_Force_Field>
OPLS_2005

> <r_lp_Energy>
29.1913

> <b_lp_Chiralities_Consistent>
1

> <s_lp_Variant>
AV-unprocessed.smi:3303-1

> <Gold.Version>
5.8.1

> <Gold.Id.Protein>
6NUR|6NUR_protein|mol2

> <Gold.PLP.Fitness>
46.8865

> <Gold.PLP.PLP>
-34.7045

> <Gold.PLP.part.hbond>
-2.9313

> <Gold.PLP.part.metal>
0.0000

> <Gold.PLP.part.buried>
0.2393

> <Gold.PLP.part.nonpolar>
-31.4296

> <Gold.PLP.part.repulsive>
0.2794

> <Gold.PLP.ligand.clash>
0.0000

> <Gold.PLP.ligand.torsion>
1.1872

> <Gold.PLP.Chemscore.Hbond>
3.8500

> <Gold.PLP.Chemscore.CHOScore>
1.0000

> <Gold.PLP.Chemscore.Metal>
0.0000

> <Gold.Chemscore.Hbonds>
donor molecule, donor type, donor heavy atom, donor atom, acceptor molecule, acceptor atom, score
      L1  H     4    45       P1 10747  1.00
      L1  H    10    35       P1  7948  1.95
      L1  H    10    44       P1  7921  0.90
      L1  C    17    43       P1 10957  1.00

> <Gold.PLP.Chemscore.Internal.Correction>
0.0065

> <Gold.Rescore>
     Score         DG    S(hbond)    S(metal)    S(lipo)     H(rot)  DE(clash)    DE(int)     intcor
     17.08     -20.48       2.19        0.00      95.71       1.37       2.22       1.18       ----

> <Gold.Chemscore.Fitness>
17.0797

> <Gold.Chemscore.DG>
-20.4806

> <Gold.Chemscore.ZeroCoef>
-5.4800

> <Gold.Chemscore.Hbond>
2.1920

> <Gold.Chemscore.Metal>
0.0000

> <Gold.Chemscore.Lipo>
95.7063

> <Gold.Chemscore.Internal_Hbond>
0.0000

> <Gold.Chemscore.DEClash>
2.2203

> <Gold.Chemscore.DEInternal>
1.1806

> <Gold.Chemscore.Rot>
1.3744

> <Gold.Chemscore.Internal.Correction>
   9.000000E+99

> <Gold.Chemscore.Hbonds>
donor molecule, donor type, donor heavy atom, donor atom, acceptor molecule, acceptor atom, score
      L1  H     4    45       P1 10747  1.00
      L1  H    10    35       P1  7948  0.55
      L1  H    10    44       P1  7921  0.17

> <Gold.Chemscore.Hbond.Weighted>
-7.3214

> <Gold.Chemscore.Metal.Weighted>
-0.0000

> <Gold.Chemscore.Lipo.Weighted>
-11.1976

> <Gold.Chemscore.Internal_Hbond.Weighted>
0.0000

> <Gold.Chemscore.DEClash.Weighted>
2.2203

> <Gold.Chemscore.DEInternal.Weighted>
1.1806

> <Gold.Chemscore.Rot.Weighted>
3.5185

> <Gold.Chemscore.Internal.Correction.Weighted>
   9.000000E+99

> <Gold.Protein.RotatedTorsions>
[ 6907 6896 6895 6894 ] final  169.90 input  -60.11 | X-H torsion
[ 7974 7965 7964 7962 ] final  127.71 input  175.53 | X-H torsion
[ 8008 7997 7996 7995 ] final  -72.70 input   59.86 | X-H torsion
[ 10167 10162 10161 10158 ] final  -57.61 input  -65.29 | X-H torsion
[ 10718 10713 10712 10709 ] final  -34.15 input   66.30 | X-H torsion
[ 10763 10752 10751 10750 ] final -153.41 input  -60.55 | X-H torsion
[ 11005 11000 10999 10996 ] final -161.06 input  -57.11 | X-H torsion

> <Gold.Protein.ActiveResidues>
 VAL166  LYS551  ARG553  GLY616  TRP617  ASP618  TYR619  PRO620  LYS621  CYS622 
 ASP623  PHE694  ASN695  SER759  ASP760  ASP761  ALA762  ILE779  LEU786  VAL792 
 PHE793  MET794  SER795  GLU796  ALA797  LYS798  CYS799  TRP800  GLU811  SER814 

> <Gold.Protein.RotatedAtoms>
  151.8246  133.3399  159.3594 H   0  0  0  0  0  0  0  0  0  0  0  0  # atno 6907 bound_to 6896
  150.7284  134.5541  159.5819 H   0  0  0  0  0  0  0  0  0  0  0  0  # atno 6908 bound_to 6896
  152.2981  134.7644  160.0415 H   0  0  0  0  0  0  0  0  0  0  0  0  # atno 6909 bound_to 6896
  145.0475  139.3910  143.5070 H   0  0  0  0  0  0  0  0  0  0  0  0  # atno 7974 bound_to 7965
  154.5187  140.0792  156.8131 H   0  0  0  0  0  0  0  0  0  0  0  0  # atno 8008 bound_to 7997
  155.3623  140.3418  155.4223 H   0  0  0  0  0  0  0  0  0  0  0  0  # atno 8009 bound_to 7997
  156.1657  140.1603  156.8522 H   0  0  0  0  0  0  0  0  0  0  0  0  # atno 8010 bound_to 7997
  140.6248  143.2434  151.5391 H   0  0  0  0  0  0  0  0  0  0  0  0  # atno 10167 bound_to 10162
  156.3541  130.4313  149.7679 H   0  0  0  0  0  0  0  0  0  0  0  0  # atno 10718 bound_to 10713
  154.7930  135.3213  154.7734 H   0  0  0  0  0  0  0  0  0  0  0  0  # atno 10763 bound_to 10752
  153.8419  135.6870  153.4806 H   0  0  0  0  0  0  0  0  0  0  0  0  # atno 10764 bound_to 10752
  153.1608  135.4661  154.9710 H   0  0  0  0  0  0  0  0  0  0  0  0  # atno 10765 bound_to 10752
  140.6245  134.4715  157.5226 H   0  0  0  0  0  0  0  0  0  0  0  0  # atno 11005 bound_to 11000
  146.3515  140.0108  142.8667 LP  0  0  0  0  0  0  0  0  0  0  0  0  # atno 17320 bound_to 7965
  145.1569  140.9652  143.4400 LP  0  0  0  0  0  0  0  0  0  0  0  0  # atno 17321 bound_to 7965
  139.5470  144.2495  152.1460 LP  0  0  0  0  0  0  0  0  0  0  0  0  # atno 17342 bound_to 10162
  140.1724  144.4923  150.6572 LP  0  0  0  0  0  0  0  0  0  0  0  0  # atno 17343 bound_to 10162
  156.4869  130.8067  151.3078 LP  0  0  0  0  0  0  0  0  0  0  0  0  # atno 17370 bound_to 10713
  157.7465  130.9988  150.2865 LP  0  0  0  0  0  0  0  0  0  0  0  0  # atno 17371 bound_to 10713
  139.9140  134.8285  156.1429 LP  0  0  0  0  0  0  0  0  0  0  0  0  # atno 17394 bound_to 11000
  141.0719  133.6793  156.2157 LP  0  0  0  0  0  0  0  0  0  0  0  0  # atno 17395 bound_to 11000

$$$$
