AV-unprocessed.smi:1913|AV-procd|sdf|7754|dock4
  -GOLD-   22720 9493D 1   1.00000     0.00000
 Structure written by MMmdl.
 41 43  0  0  0  0  0  0  0  0  2 V2000
  152.0729  144.6589  157.8359 C   0  0  0  0  0  0  0  0  0  0  0  0
  152.1177  144.0461  159.1161 O   0  0  0  0  0  0  0  0  0  0  0  0
  152.3802  142.6946  159.1787 C   0  0  0  0  0  0  0  0  0  0  0  0
  153.0087  142.0548  160.2724 C   0  0  0  0  0  0  0  0  0  0  0  0
  153.2279  140.6653  160.2555 C   0  0  0  0  0  0  0  0  0  0  0  0
  152.8266  139.8791  159.1472 C   0  0  0  0  0  0  0  0  0  0  0  0
  152.9954  138.5103  159.0902 O   0  0  0  0  0  0  0  0  0  0  0  0
  153.5099  137.8445  160.2335 C   0  0  0  0  0  0  0  0  0  0  0  0
  152.2046  140.5184  158.0461 C   0  0  0  0  0  0  0  0  0  0  0  0
  151.7242  139.7056  156.8443 C   0  0  2  0  0  0  0  0  0  0  0  0
  152.7744  139.0061  156.2078 O   0  0  0  0  0  0  0  0  0  0  0  0
  151.0253  140.5809  155.7827 C   0  0  0  0  0  0  0  0  0  0  0  0
  150.2198  139.7903  154.8413 N   0  0  0  0  0  0  0  0  0  0  0  0
  150.4604  138.5563  154.3214 C   0  0  0  0  0  0  0  0  0  0  0  0
  149.4065  138.2332  153.5222 N   0  3  0  0  0  0  0  0  0  0  0  0
  148.4789  139.2767  153.5290 C   0  0  0  0  0  0  0  0  0  0  0  0
  147.2540  139.4098  152.8826 C   0  0  0  0  0  0  0  0  0  0  0  0
  146.5467  140.6089  153.1069 C   0  0  0  0  0  0  0  0  0  0  0  0
  147.0615  141.6196  153.9445 C   0  0  0  0  0  0  0  0  0  0  0  0
  148.3053  141.4748  154.5929 C   0  0  0  0  0  0  0  0  0  0  0  0
  148.9979  140.2849  154.3689 C   0  0  0  0  0  0  0  0  0  0  0  0
  151.9867  141.9140  158.0759 C   0  0  0  0  0  0  0  0  0  0  0  0
  151.8605  145.7215  157.9529 H   0  0  0  0  0  0  0  0  0  0  0  0
  151.2837  144.2315  157.2159 H   0  0  0  0  0  0  0  0  0  0  0  0
  153.0287  144.5686  157.3181 H   0  0  0  0  0  0  0  0  0  0  0  0
  153.3311  142.6083  161.1410 H   0  0  0  0  0  0  0  0  0  0  0  0
  153.7078  140.2246  161.1159 H   0  0  0  0  0  0  0  0  0  0  0  0
  153.5147  136.7703  160.0499 H   0  0  0  0  0  0  0  0  0  0  0  0
  152.8886  138.0244  161.1121 H   0  0  0  0  0  0  0  0  0  0  0  0
  154.5362  138.1479  160.4441 H   0  0  0  0  0  0  0  0  0  0  0  0
  151.0297  138.9364  157.1827 H   0  0  0  0  0  0  0  0  0  0  0  0
  152.5963  138.9783  155.2799 H   0  0  0  0  0  0  0  0  0  0  0  0
  150.4067  141.3537  156.2397 H   0  0  0  0  0  0  0  0  0  0  0  0
  151.7733  141.1032  155.1844 H   0  0  0  0  0  0  0  0  0  0  0  0
  151.3258  137.9400  154.5174 H   0  0  0  0  0  0  0  0  0  0  0  0
  146.8567  138.6366  152.2414 H   0  0  0  0  0  0  0  0  0  0  0  0
  145.5901  140.7567  152.6271 H   0  0  0  0  0  0  0  0  0  0  0  0
  146.4908  142.5246  154.0943 H   0  0  0  0  0  0  0  0  0  0  0  0
  148.6853  142.2537  155.2371 H   0  0  0  0  0  0  0  0  0  0  0  0
  151.4964  142.3998  157.2447 H   0  0  0  0  0  0  0  0  0  0  0  0
  149.3282  137.3623  153.0130 H   0  0  0  0  0  0  0  0  0  0  0  0
  1  2  1  0  0  0  0
  1 23  1  0  0  0  0
  1 24  1  0  0  0  0
  1 25  1  0  0  0  0
  2  3  1  0  0  0  0
  3 22  1  0  0  0  0
  3  4  2  0  0  0  0
  4  5  1  0  0  0  0
  4 26  1  0  0  0  0
  5  6  2  0  0  0  0
  5 27  1  0  0  0  0
  6  7  1  0  0  0  0
  6  9  1  0  0  0  0
  7  8  1  0  0  0  0
  8 28  1  0  0  0  0
  8 29  1  0  0  0  0
  8 30  1  0  0  0  0
  9 10  1  0  0  0  0
  9 22  2  0  0  0  0
 10 11  1  0  0  0  0
 10 12  1  0  0  0  0
 10 31  1  0  0  0  0
 11 32  1  0  0  0  0
 12 13  1  0  0  0  0
 12 33  1  0  0  0  0
 12 34  1  0  0  0  0
 13 21  1  0  0  0  0
 13 14  1  0  0  0  0
 14 15  2  0  0  0  0
 14 35  1  0  0  0  0
 15 16  1  0  0  0  0
 15 41  1  0  0  0  0
 16 21  2  0  0  0  0
 16 17  1  0  0  0  0
 17 18  2  0  0  0  0
 17 36  1  0  0  0  0
 18 19  1  0  0  0  0
 18 37  1  0  0  0  0
 19 20  2  0  0  0  0
 19 38  1  0  0  0  0
 20 21  1  0  0  0  0
 20 39  1  0  0  0  0
 22 40  1  0  0  0  0
M  CHG  1  15   1
M  END
> <s_m_source_file>
AV-unprocessed.smi

> <i_m_source_file_index>
1913

> <i_lp_mmshare_version>
43012

> <i_f3d_flags>
0

> <s_epik_input>
W0NIM11PYzFbY0hdW2NIXWMoT1tDSDNdKWMoW2NIXTEpW0NASF0oW09IXSlbQ0gyXW4oW2NIXW4yKWMoYzIzKVtjSF1bY0hdW2NIXVtjSF0z

> <s_epik_cmdline>
J2VwaWtfcHl0aG9uJywgJy1waCcsICc3LjAnLCAnLXRuJywgJzgnLCAnLW1hJywgJzIwMCcsICctbWV0YWxfYmluZGluZycsICctaW1hZScsICc8aW5maWxlLm1hZT4nLCAnLW9tYWUnLCAnPG91dGZpbGUubWFlPic=

> <r_lp_tautomer_probability>
1

> <r_epik_Ionization_Penalty>
1.3029

> <r_epik_Ionization_Penalty_Charging>
1.3029

> <r_epik_Ionization_Penalty_Neutral>
1.34362e-06

> <r_epik_State_Penalty>
1.377

> <r_epik_Charging_Adjusted_Penalty>
2.6799

> <i_epik_Tot_Q>
1

> <i_epik_Tot_abs_Q>
1

> <r_epik_Metal_State_Penalty>
5.40879

> <b_epik_Metal_Only>
0

> <s_lp_Force_Field>
OPLS_2005

> <r_lp_Energy>
23.3485

> <b_lp_Chiralities_Consistent>
1

> <s_lp_Variant>
AV-unprocessed.smi:1913-3

> <Gold.Version>
5.8.1

> <Gold.Id.Protein>
6NUR|6NUR_protein|mol2

> <Gold.PLP.Fitness>
56.5411

> <Gold.PLP.PLP>
-49.1326

> <Gold.PLP.part.hbond>
-3.0000

> <Gold.PLP.part.metal>
0.0000

> <Gold.PLP.part.buried>
0.1109

> <Gold.PLP.part.nonpolar>
-46.0105

> <Gold.PLP.part.repulsive>
0.0606

> <Gold.PLP.ligand.clash>
0.0000

> <Gold.PLP.ligand.torsion>
0.8395

> <Gold.PLP.Chemscore.Hbond>
3.0000

> <Gold.PLP.Chemscore.CHOScore>
0.0000

> <Gold.PLP.Chemscore.Metal>
0.0000

> <Gold.Chemscore.Hbonds>
donor molecule, donor type, donor heavy atom, donor atom, acceptor molecule, acceptor atom, score
      L1  H    15    41       P1  7948  2.00
      P1  H  7997  8009       L1    11  1.00

> <Gold.PLP.Chemscore.Internal.Correction>
0.0875

> <Gold.Rescore>
     Score         DG    S(hbond)    S(metal)    S(lipo)     H(rot)  DE(clash)    DE(int)     intcor
     17.44     -19.23       1.62        0.00     124.12       2.41       0.10       1.69       ----

> <Gold.Chemscore.Fitness>
17.4426

> <Gold.Chemscore.DG>
-19.2304

> <Gold.Chemscore.ZeroCoef>
-5.4800

> <Gold.Chemscore.Hbond>
1.6169

> <Gold.Chemscore.Metal>
0.0000

> <Gold.Chemscore.Lipo>
124.1189

> <Gold.Chemscore.Internal_Hbond>
0.0000

> <Gold.Chemscore.DEClash>
0.1026

> <Gold.Chemscore.DEInternal>
1.6852

> <Gold.Chemscore.Rot>
2.4109

> <Gold.Chemscore.Internal.Correction>
   9.000000E+99

> <Gold.Chemscore.Hbonds>
donor molecule, donor type, donor heavy atom, donor atom, acceptor molecule, acceptor atom, score
      L1  H    15    41       P1  7948  0.95
      P1  H  7997  8009       L1    11  0.38

> <Gold.Chemscore.Hbond.Weighted>
-5.4005

> <Gold.Chemscore.Metal.Weighted>
-0.0000

> <Gold.Chemscore.Lipo.Weighted>
-14.5219

> <Gold.Chemscore.Internal_Hbond.Weighted>
0.0000

> <Gold.Chemscore.DEClash.Weighted>
0.1026

> <Gold.Chemscore.DEInternal.Weighted>
1.6852

> <Gold.Chemscore.Rot.Weighted>
6.1720

> <Gold.Chemscore.Internal.Correction.Weighted>
   9.000000E+99

> <Gold.Protein.RotatedTorsions>
[ 6907 6896 6895 6894 ] final -113.11 input  -60.11 | X-H torsion
[ 7974 7965 7964 7962 ] final  117.91 input  175.53 | X-H torsion
[ 8008 7997 7996 7995 ] final -178.02 input   59.86 | X-H torsion
[ 10167 10162 10161 10158 ] final   39.94 input  -65.29 | X-H torsion
[ 10718 10713 10712 10709 ] final  161.29 input   66.30 | X-H torsion
[ 10763 10752 10751 10750 ] final   45.20 input  -60.55 | X-H torsion
[ 11005 11000 10999 10996 ] final -163.47 input  -57.11 | X-H torsion

> <Gold.Protein.ActiveResidues>
 VAL166  LYS551  ARG553  GLY616  TRP617  ASP618  TYR619  PRO620  LYS621  CYS622 
 ASP623  PHE694  ASN695  SER759  ASP760  ASP761  ALA762  ILE779  LEU786  VAL792 
 PHE793  MET794  SER795  GLU796  ALA797  LYS798  CYS799  TRP800  GLU811  SER814 

> <Gold.Protein.RotatedAtoms>
  150.7806  133.8992  159.3335 H   0  0  0  0  0  0  0  0  0  0  0  0  # atno 6907 bound_to 6896
  151.6856  135.0953  160.0233 H   0  0  0  0  0  0  0  0  0  0  0  0  # atno 6908 bound_to 6896
  152.3856  133.6567  159.6231 H   0  0  0  0  0  0  0  0  0  0  0  0  # atno 6909 bound_to 6896
  145.1616  139.3152  143.4514 H   0  0  0  0  0  0  0  0  0  0  0  0  # atno 7974 bound_to 7965
  156.0139  140.1246  157.0426 H   0  0  0  0  0  0  0  0  0  0  0  0  # atno 8008 bound_to 7997
  154.4286  140.1082  156.5937 H   0  0  0  0  0  0  0  0  0  0  0  0  # atno 8009 bound_to 7997
  155.6041  140.3471  155.4605 H   0  0  0  0  0  0  0  0  0  0  0  0  # atno 8010 bound_to 7997
  140.3791  144.2004  150.6131 H   0  0  0  0  0  0  0  0  0  0  0  0  # atno 10167 bound_to 10162
  157.1386  131.0535  151.2337 H   0  0  0  0  0  0  0  0  0  0  0  0  # atno 10718 bound_to 10713
  152.9828  135.6047  154.3398 H   0  0  0  0  0  0  0  0  0  0  0  0  # atno 10763 bound_to 10752
  154.3095  135.2771  155.2574 H   0  0  0  0  0  0  0  0  0  0  0  0  # atno 10764 bound_to 10752
  154.4790  135.5922  153.6432 H   0  0  0  0  0  0  0  0  0  0  0  0  # atno 10765 bound_to 10752
  140.5977  134.4979  157.5201 H   0  0  0  0  0  0  0  0  0  0  0  0  # atno 11005 bound_to 11000
  146.3481  140.1728  142.8589 LP  0  0  0  0  0  0  0  0  0  0  0  0  # atno 17320 bound_to 7965
  145.0325  140.8882  143.5101 LP  0  0  0  0  0  0  0  0  0  0  0  0  # atno 17321 bound_to 7965
  140.4956  143.2333  151.8754 LP  0  0  0  0  0  0  0  0  0  0  0  0  # atno 17342 bound_to 10162
  139.4797  144.5117  151.8923 LP  0  0  0  0  0  0  0  0  0  0  0  0  # atno 17343 bound_to 10162
  157.4327  130.7500  149.7004 LP  0  0  0  0  0  0  0  0  0  0  0  0  # atno 17370 bound_to 10713
  155.9793  130.4041  150.3595 LP  0  0  0  0  0  0  0  0  0  0  0  0  # atno 17371 bound_to 10713
  139.9246  134.8081  156.1107 LP  0  0  0  0  0  0  0  0  0  0  0  0  # atno 17394 bound_to 11000
  141.0893  133.6721  156.2505 LP  0  0  0  0  0  0  0  0  0  0  0  0  # atno 17395 bound_to 11000

$$$$
