AV-unprocessed.smi:2069|AV-procd|sdf|8433|dock10
  -GOLD-   2272011133D 1   1.00000     0.00000
 Structure written by MMmdl.
 39 40  0  0  0  0  0  0  0  0  2 V2000
  138.1511  137.1605  154.8402 C   0  0  0  0  0  0  0  0  0  0  0  0
  139.5844  137.5286  155.0191 C   0  0  0  0  0  0  0  0  0  0  0  0
  140.3237  137.0904  156.0454 N   0  0  0  0  0  0  0  0  0  0  0  0
  141.6265  137.5656  155.9960 N   0  0  0  0  0  0  0  0  0  0  0  0
  141.8323  138.3505  154.9296 C   0  0  0  0  0  0  0  0  0  0  0  0
  143.0762  138.9685  154.6333 N   0  0  0  0  0  0  0  0  0  0  0  0
  144.1205  139.1717  155.4556 C   0  0  0  0  0  0  0  0  0  0  0  0
  144.1622  138.8575  156.6453 O   0  0  0  0  0  0  0  0  0  0  0  0
  145.1395  139.7608  154.8117 N   0  0  0  0  0  0  0  0  0  0  0  0
  146.4205  140.1272  155.4127 C   0  0  0  0  0  0  0  0  0  0  0  0
  146.7587  141.6351  155.2649 C   0  0  2  0  0  0  0  0  0  0  0  0
  146.7269  142.0655  153.7772 C   0  0  0  0  0  0  0  0  0  0  0  0
  148.0635  141.9374  155.9425 N   0  3  0  0  0  0  0  0  0  0  0  0
  148.0980  141.7015  157.4129 C   0  0  0  0  0  0  0  0  0  0  0  0
  149.4672  142.0782  158.0050 C   0  0  0  0  0  0  0  0  0  0  0  0
  150.4950  141.3503  157.3501 O   0  0  0  0  0  0  0  0  0  0  0  0
  150.5437  141.6540  155.9643 C   0  0  0  0  0  0  0  0  0  0  0  0
  149.2169  141.2456  155.3039 C   0  0  0  0  0  0  0  0  0  0  0  0
  140.4364  138.5740  153.8891 S   0  0  0  0  0  0  0  0  0  0  0  0
  137.7727  136.6455  155.7238 H   0  0  0  0  0  0  0  0  0  0  0  0
  138.0409  136.5028  153.9780 H   0  0  0  0  0  0  0  0  0  0  0  0
  137.5528  138.0568  154.6768 H   0  0  0  0  0  0  0  0  0  0  0  0
  143.1855  139.2835  153.6808 H   0  0  0  0  0  0  0  0  0  0  0  0
  145.0170  139.9819  153.8341 H   0  0  0  0  0  0  0  0  0  0  0  0
  146.3433  139.8431  156.4603 H   0  0  0  0  0  0  0  0  0  0  0  0
  147.2309  139.5228  155.0012 H   0  0  0  0  0  0  0  0  0  0  0  0
  145.9829  142.2128  155.7701 H   0  0  0  0  0  0  0  0  0  0  0  0
  145.7676  141.8429  153.3118 H   0  0  0  0  0  0  0  0  0  0  0  0
  147.4978  141.5559  153.1981 H   0  0  0  0  0  0  0  0  0  0  0  0
  146.8586  143.1404  153.6552 H   0  0  0  0  0  0  0  0  0  0  0  0
  147.3495  142.3075  157.9224 H   0  0  0  0  0  0  0  0  0  0  0  0
  147.8740  140.6543  157.6222 H   0  0  0  0  0  0  0  0  0  0  0  0
  149.6488  143.1504  157.9139 H   0  0  0  0  0  0  0  0  0  0  0  0
  149.4926  141.8426  159.0691 H   0  0  0  0  0  0  0  0  0  0  0  0
  150.7456  142.7160  155.8149 H   0  0  0  0  0  0  0  0  0  0  0  0
  151.3714  141.1063  155.5134 H   0  0  0  0  0  0  0  0  0  0  0  0
  149.0837  140.1655  155.3846 H   0  0  0  0  0  0  0  0  0  0  0  0
  149.2793  141.4765  154.2425 H   0  0  0  0  0  0  0  0  0  0  0  0
  148.2148  142.9291  155.8240 H   0  0  0  0  0  0  0  0  0  0  0  0
  1  2  1  0  0  0  0
  1 20  1  0  0  0  0
  1 21  1  0  0  0  0
  1 22  1  0  0  0  0
  2 19  1  0  0  0  0
  2  3  2  0  0  0  0
  3  4  1  0  0  0  0
  4  5  2  0  0  0  0
  5  6  1  0  0  0  0
  5 19  1  0  0  0  0
  6  7  1  0  0  0  0
  6 23  1  0  0  0  0
  7  8  2  0  0  0  0
  7  9  1  0  0  0  0
  9 10  1  0  0  0  0
  9 24  1  0  0  0  0
 10 11  1  0  0  0  0
 10 25  1  0  0  0  0
 10 26  1  0  0  0  0
 11 12  1  0  0  0  0
 11 13  1  0  0  0  0
 11 27  1  0  0  0  0
 12 28  1  0  0  0  0
 12 29  1  0  0  0  0
 12 30  1  0  0  0  0
 13 18  1  0  0  0  0
 13 14  1  0  0  0  0
 13 39  1  0  0  0  0
 14 15  1  0  0  0  0
 14 31  1  0  0  0  0
 14 32  1  0  0  0  0
 15 16  1  0  0  0  0
 15 33  1  0  0  0  0
 15 34  1  0  0  0  0
 16 17  1  0  0  0  0
 17 18  1  0  0  0  0
 17 35  1  0  0  0  0
 17 36  1  0  0  0  0
 18 37  1  0  0  0  0
 18 38  1  0  0  0  0
M  CHG  1  13   1
M  END
> <s_m_source_file>
AV-unprocessed.smi

> <i_m_source_file_index>
2069

> <i_lp_mmshare_version>
43012

> <i_f3d_flags>
0

> <s_epik_input>
W0NIM11jMW5uYyhzMSlbTkhdQyg9TylbTkhdW0NIMl1bQ0BIXShbQ0gzXSlOMltDSDJdW0NIMl1PW0NIMl1bQ0gyXTI=

> <s_epik_cmdline>
J2VwaWtfcHl0aG9uJywgJy1waCcsICc3LjAnLCAnLXRuJywgJzgnLCAnLW1hJywgJzIwMCcsICctbWV0YWxfYmluZGluZycsICctaW1hZScsICc8aW5maWxlLm1hZT4nLCAnLW9tYWUnLCAnPG91dGZpbGUubWFlPic=

> <r_lp_tautomer_probability>
1

> <r_epik_Ionization_Penalty>
0.70016

> <r_epik_Ionization_Penalty_Charging>
0.695697

> <r_epik_Ionization_Penalty_Neutral>
0.00446266

> <r_epik_State_Penalty>
0.717972

> <r_epik_Charging_Adjusted_Penalty>
1.41367

> <i_epik_Tot_Q>
1

> <i_epik_Tot_abs_Q>
1

> <r_epik_Metal_State_Penalty>
1.06969

> <b_epik_Metal_Only>
0

> <s_lp_Force_Field>
OPLS_2005

> <r_lp_Energy>
19.5762

> <b_lp_Chiralities_Consistent>
1

> <s_lp_Variant>
AV-unprocessed.smi:2069-3

> <Gold.Version>
5.8.1

> <Gold.Id.Protein>
6NUR|6NUR_protein|mol2

> <Gold.PLP.Fitness>
38.8754

> <Gold.PLP.PLP>
-25.4933

> <Gold.PLP.part.hbond>
-4.0000

> <Gold.PLP.part.metal>
0.0000

> <Gold.PLP.part.buried>
-5.0900

> <Gold.PLP.part.nonpolar>
-16.7964

> <Gold.PLP.part.repulsive>
0.1141

> <Gold.PLP.ligand.clash>
0.0000

> <Gold.PLP.ligand.torsion>
0.0994

> <Gold.PLP.Chemscore.Hbond>
4.5106

> <Gold.PLP.Chemscore.CHOScore>
0.0000

> <Gold.PLP.Chemscore.Metal>
0.0000

> <Gold.Chemscore.Hbonds>
donor molecule, donor type, donor heavy atom, donor atom, acceptor molecule, acceptor atom, score
      L1  H     6    23       P1 10175  1.00
      L1  H     9    24       P1 10175  0.86
      L1  H    13    39       P1  8028  2.00
      P1  H 11000 11005       L1     3  0.48

> <Gold.PLP.Chemscore.Internal.Correction>
0.0492

> <Gold.Rescore>
     Score         DG    S(hbond)    S(metal)    S(lipo)     H(rot)  DE(clash)    DE(int)     intcor
     17.23     -18.55       3.48        0.00      48.50       1.65       0.00       1.32       ----

> <Gold.Chemscore.Fitness>
17.2287

> <Gold.Chemscore.DG>
-18.5456

> <Gold.Chemscore.ZeroCoef>
-5.4800

> <Gold.Chemscore.Hbond>
3.4756

> <Gold.Chemscore.Metal>
0.0000

> <Gold.Chemscore.Lipo>
48.5040

> <Gold.Chemscore.Internal_Hbond>
0.0000

> <Gold.Chemscore.DEClash>
0.0009

> <Gold.Chemscore.DEInternal>
1.3160

> <Gold.Chemscore.Rot>
1.6476

> <Gold.Chemscore.Internal.Correction>
   9.000000E+99

> <Gold.Chemscore.Hbonds>
donor molecule, donor type, donor heavy atom, donor atom, acceptor molecule, acceptor atom, score
      L1  H     6    23       P1 10175  0.97
      L1  H     9    24       P1 10175  0.83
      L1  H    13    39       P1  8028  0.90
      P1  H 11000 11005       L1     3  0.35

> <Gold.Chemscore.Hbond.Weighted>
-11.6086

> <Gold.Chemscore.Metal.Weighted>
-0.0000

> <Gold.Chemscore.Lipo.Weighted>
-5.6750

> <Gold.Chemscore.Internal_Hbond.Weighted>
0.0000

> <Gold.Chemscore.DEClash.Weighted>
0.0009

> <Gold.Chemscore.DEInternal.Weighted>
1.3160

> <Gold.Chemscore.Rot.Weighted>
4.2179

> <Gold.Chemscore.Internal.Correction.Weighted>
   9.000000E+99

> <Gold.Protein.RotatedTorsions>
[ 6907 6896 6895 6894 ] final  -20.14 input  -60.11 | X-H torsion
[ 7974 7965 7964 7962 ] final  174.47 input  175.53 | X-H torsion
[ 8008 7997 7996 7995 ] final  -71.49 input   59.86 | X-H torsion
[ 10167 10162 10161 10158 ] final -114.82 input  -65.29 | X-H torsion
[ 10718 10713 10712 10709 ] final -108.83 input   66.30 | X-H torsion
[ 10763 10752 10751 10750 ] final -162.22 input  -60.55 | X-H torsion
[ 11005 11000 10999 10996 ] final   99.81 input  -57.11 | X-H torsion

> <Gold.Protein.ActiveResidues>
 VAL166  LYS551  ARG553  GLY616  TRP617  ASP618  TYR619  PRO620  LYS621  CYS622 
 ASP623  PHE694  ASN695  SER759  ASP760  ASP761  ALA762  ILE779  LEU786  VAL792 
 PHE793  MET794  SER795  GLU796  ALA797  LYS798  CYS799  TRP800  GLU811  SER814 

> <Gold.Protein.RotatedAtoms>
  151.2526  135.0627  159.9067 H   0  0  0  0  0  0  0  0  0  0  0  0  # atno 6907 bound_to 6896
  152.5378  134.0316  159.8037 H   0  0  0  0  0  0  0  0  0  0  0  0  # atno 6908 bound_to 6896
  151.0527  133.5561  159.2672 H   0  0  0  0  0  0  0  0  0  0  0  0  # atno 6909 bound_to 6896
  144.7221  139.9802  143.6438 H   0  0  0  0  0  0  0  0  0  0  0  0  # atno 7974 bound_to 7965
  154.5092  140.0814  156.7955 H   0  0  0  0  0  0  0  0  0  0  0  0  # atno 8008 bound_to 7997
  155.3824  140.3428  155.4229 H   0  0  0  0  0  0  0  0  0  0  0  0  # atno 8009 bound_to 7997
  156.1552  140.1571  156.8691 H   0  0  0  0  0  0  0  0  0  0  0  0  # atno 8010 bound_to 7997
  140.0968  143.4649  152.1836 H   0  0  0  0  0  0  0  0  0  0  0  0  # atno 10167 bound_to 10162
  156.0505  130.5733  150.8015 H   0  0  0  0  0  0  0  0  0  0  0  0  # atno 10718 bound_to 10713
  154.7233  135.3030  154.9011 H   0  0  0  0  0  0  0  0  0  0  0  0  # atno 10763 bound_to 10752
  153.9876  135.6722  153.4757 H   0  0  0  0  0  0  0  0  0  0  0  0  # atno 10764 bound_to 10752
  153.0853  135.4987  154.8503 H   0  0  0  0  0  0  0  0  0  0  0  0  # atno 10765 bound_to 10752
  139.8770  134.9112  156.4662 H   0  0  0  0  0  0  0  0  0  0  0  0  # atno 11005 bound_to 11000
  146.0494  139.3496  143.0649 LP  0  0  0  0  0  0  0  0  0  0  0  0  # atno 17320 bound_to 7965
  145.8234  140.9667  143.0886 LP  0  0  0  0  0  0  0  0  0  0  0  0  # atno 17321 bound_to 7965
  139.5693  144.7454  151.3934 LP  0  0  0  0  0  0  0  0  0  0  0  0  # atno 17342 bound_to 10162
  140.6999  143.7657  150.7386 LP  0  0  0  0  0  0  0  0  0  0  0  0  # atno 17343 bound_to 10162
  157.5427  131.0941  150.9805 LP  0  0  0  0  0  0  0  0  0  0  0  0  # atno 17370 bound_to 10713
  157.0084  130.5627  149.5318 LP  0  0  0  0  0  0  0  0  0  0  0  0  # atno 17371 bound_to 10713
  140.8829  133.7905  155.9486 LP  0  0  0  0  0  0  0  0  0  0  0  0  # atno 17394 bound_to 11000
  140.8835  134.2582  157.5132 LP  0  0  0  0  0  0  0  0  0  0  0  0  # atno 17395 bound_to 11000

$$$$
