AV-unprocessed.smi:337|AV-procd|sdf|2372|dock5
  -GOLD-   2262022293D 1   1.00000     0.00000
 Structure written by MMmdl.
 43 44  0  0  0  0  0  0  0  0  1 V2000
  149.3714  133.7926  155.2157 C   0  0  0  0  0  0  0  0  0  0  0  0
  148.9110  135.2596  155.2516 C   0  0  2  0  0  0  0  0  0  0  0  0
  148.1052  135.5123  154.0581 N   0  0  0  0  0  0  0  0  0  0  0  0
  146.7766  135.6948  154.0510 C   0  0  0  0  0  0  0  0  0  0  0  0
  146.3036  135.9333  152.8275 N   0  0  0  0  0  0  0  0  0  0  0  0
  146.0615  135.6525  155.0502 O   0  0  0  0  0  0  0  0  0  0  0  0
  150.1638  136.1499  155.2600 C   0  0  0  0  0  0  0  0  0  0  0  0
  150.9715  136.0900  156.1887 O   0  0  0  0  0  0  0  0  0  0  0  0
  150.2976  136.9918  154.2240 N   0  0  0  0  0  0  0  0  0  0  0  0
  151.3980  137.9346  154.0519 C   0  0  0  0  0  0  0  0  0  0  0  0
  151.4152  139.0701  155.0658 C   0  0  0  0  0  0  0  0  0  0  0  0
  150.5196  140.1573  154.9894 C   0  0  0  0  0  0  0  0  0  0  0  0
  150.5936  141.1736  155.9605 C   0  0  0  0  0  0  0  0  0  0  0  0
  151.5676  141.0830  156.9835 C   0  0  0  0  0  0  0  0  0  0  0  0
  151.6597  142.0902  157.9688 N   0  0  0  0  0  0  0  0  0  0  0  0
  151.7272  141.6219  159.3509 C   0  0  0  0  0  0  0  0  0  0  0  0
  152.1338  142.7726  160.2876 C   0  0  0  0  0  0  0  0  0  0  0  0
  151.2442  143.8710  160.1183 O   0  0  0  0  0  0  0  0  0  0  0  0
  151.2814  144.3820  158.7903 C   0  0  0  0  0  0  0  0  0  0  0  0
  150.8398  143.2891  157.8026 C   0  0  0  0  0  0  0  0  0  0  0  0
  152.4273  140.0365  157.0516 N   0  0  0  0  0  0  0  0  0  0  0  0
  152.3520  139.0648  156.1182 C   0  0  0  0  0  0  0  0  0  0  0  0
  149.9776  133.5458  156.0885 H   0  0  0  0  0  0  0  0  0  0  0  0
  149.9648  133.5740  154.3265 H   0  0  0  0  0  0  0  0  0  0  0  0
  148.5159  133.1165  155.2148 H   0  0  0  0  0  0  0  0  0  0  0  0
  148.3145  135.4357  156.1493 H   0  0  0  0  0  0  0  0  0  0  0  0
  148.6007  135.5749  153.1812 H   0  0  0  0  0  0  0  0  0  0  0  0
  145.3162  136.0850  152.6838 H   0  0  0  0  0  0  0  0  0  0  0  0
  146.9408  135.9575  152.0445 H   0  0  0  0  0  0  0  0  0  0  0  0
  149.5895  136.9774  153.5044 H   0  0  0  0  0  0  0  0  0  0  0  0
  152.3472  137.3966  154.0818 H   0  0  0  0  0  0  0  0  0  0  0  0
  151.3212  138.3687  153.0550 H   0  0  0  0  0  0  0  0  0  0  0  0
  149.7809  140.2172  154.2036 H   0  0  0  0  0  0  0  0  0  0  0  0
  149.8968  141.9971  155.9173 H   0  0  0  0  0  0  0  0  0  0  0  0
  150.7488  141.2351  159.6390 H   0  0  0  0  0  0  0  0  0  0  0  0
  152.4374  140.8047  159.4673 H   0  0  0  0  0  0  0  0  0  0  0  0
  152.0944  142.4420  161.3256 H   0  0  0  0  0  0  0  0  0  0  0  0
  153.1600  143.0883  160.0929 H   0  0  0  0  0  0  0  0  0  0  0  0
  150.6145  145.2411  158.7216 H   0  0  0  0  0  0  0  0  0  0  0  0
  152.2851  144.7384  158.5532 H   0  0  0  0  0  0  0  0  0  0  0  0
  150.9255  143.6683  156.7837 H   0  0  0  0  0  0  0  0  0  0  0  0
  149.7921  143.0359  157.9705 H   0  0  0  0  0  0  0  0  0  0  0  0
  153.0619  138.2568  156.2184 H   0  0  0  0  0  0  0  0  0  0  0  0
  1  2  1  0  0  0  0
  1 23  1  0  0  0  0
  1 24  1  0  0  0  0
  1 25  1  0  0  0  0
  2  3  1  0  0  0  0
  2  7  1  0  0  0  0
  2 26  1  0  0  0  0
  3  4  1  0  0  0  0
  3 27  1  0  0  0  0
  4  5  1  0  0  0  0
  4  6  2  0  0  0  0
  5 28  1  0  0  0  0
  5 29  1  0  0  0  0
  7  8  2  0  0  0  0
  7  9  1  0  0  0  0
  9 10  1  0  0  0  0
  9 30  1  0  0  0  0
 10 11  1  0  0  0  0
 10 31  1  0  0  0  0
 10 32  1  0  0  0  0
 11 22  1  0  0  0  0
 11 12  2  0  0  0  0
 12 13  1  0  0  0  0
 12 33  1  0  0  0  0
 13 14  2  0  0  0  0
 13 34  1  0  0  0  0
 14 15  1  0  0  0  0
 14 21  1  0  0  0  0
 15 20  1  0  0  0  0
 15 16  1  0  0  0  0
 16 17  1  0  0  0  0
 16 35  1  0  0  0  0
 16 36  1  0  0  0  0
 17 18  1  0  0  0  0
 17 37  1  0  0  0  0
 17 38  1  0  0  0  0
 18 19  1  0  0  0  0
 19 20  1  0  0  0  0
 19 39  1  0  0  0  0
 19 40  1  0  0  0  0
 20 41  1  0  0  0  0
 20 42  1  0  0  0  0
 21 22  2  0  0  0  0
 22 43  1  0  0  0  0
M  END
> <s_m_source_file>
AV-unprocessed.smi

> <i_m_source_file_index>
337

> <i_lp_mmshare_version>
43012

> <i_f3d_flags>
0

> <s_epik_input>
W05IMl1DKD1PKVtOSF1bQ0BASF0oW0NIM10pQyg9TylbTkhdW0NIMl1jMVtjSF1bY0hdYyhuW2NIXTEpTjJbQ0gyXVtDSDJdT1tDSDJdW0NIMl0y

> <s_epik_cmdline>
J2VwaWtfcHl0aG9uJywgJy1waCcsICc3LjAnLCAnLXRuJywgJzgnLCAnLW1hJywgJzIwMCcsICctbWV0YWxfYmluZGluZycsICctaW1hZScsICc8aW5maWxlLm1hZT4nLCAnLW9tYWUnLCAnPG91dGZpbGUubWFlPic=

> <r_lp_tautomer_probability>
1

> <r_epik_Ionization_Penalty>
0.0048357

> <r_epik_Ionization_Penalty_Charging>
0

> <r_epik_Ionization_Penalty_Neutral>
0.0048357

> <r_epik_State_Penalty>
0.0034696

> <r_epik_Charging_Adjusted_Penalty>
0.0034696

> <i_epik_Tot_Q>
0

> <i_epik_Tot_abs_Q>
0

> <r_epik_Metal_State_Penalty>
-0

> <b_epik_Metal_Only>
0

> <s_lp_Force_Field>
OPLS_2005

> <r_lp_Energy>
8.56102

> <b_lp_Chiralities_Consistent>
1

> <s_lp_Variant>
AV-unprocessed.smi:337-1

> <Gold.Version>
5.8.1

> <Gold.Id.Protein>
6NUR|6NUR_protein|mol2

> <Gold.PLP.Fitness>
51.6678

> <Gold.PLP.PLP>
-38.5994

> <Gold.PLP.part.hbond>
-6.1576

> <Gold.PLP.part.metal>
0.0000

> <Gold.PLP.part.buried>
-2.1042

> <Gold.PLP.part.nonpolar>
-29.3850

> <Gold.PLP.part.repulsive>
0.1978

> <Gold.PLP.ligand.clash>
0.0000

> <Gold.PLP.ligand.torsion>
0.5388

> <Gold.PLP.Chemscore.Hbond>
4.5936

> <Gold.PLP.Chemscore.CHOScore>
0.0000

> <Gold.PLP.Chemscore.Metal>
0.0000

> <Gold.Chemscore.Hbonds>
donor molecule, donor type, donor heavy atom, donor atom, acceptor molecule, acceptor atom, score
      L1  H     3    27       P1  7948  0.91
      L1  H     5    29       P1  7948  0.70
      L1  H     9    30       P1  7948  0.94
      P1  H  7997  8010       L1    21  0.42

> <Gold.PLP.Chemscore.Internal.Correction>
0.3653

> <Gold.Rescore>
     Score         DG    S(hbond)    S(metal)    S(lipo)     H(rot)  DE(clash)    DE(int)     intcor
     19.01     -19.68       3.22        0.00      87.59       2.66       0.24       0.42       ----

> <Gold.Chemscore.Fitness>
19.0091

> <Gold.Chemscore.DG>
-19.6782

> <Gold.Chemscore.ZeroCoef>
-5.4800

> <Gold.Chemscore.Hbond>
3.2196

> <Gold.Chemscore.Metal>
0.0000

> <Gold.Chemscore.Lipo>
87.5855

> <Gold.Chemscore.Internal_Hbond>
0.0000

> <Gold.Chemscore.DEClash>
0.2448

> <Gold.Chemscore.DEInternal>
0.4243

> <Gold.Chemscore.Rot>
2.6573

> <Gold.Chemscore.Internal.Correction>
   9.000000E+99

> <Gold.Chemscore.Hbonds>
donor molecule, donor type, donor heavy atom, donor atom, acceptor molecule, acceptor atom, score
      L1  H     3    27       P1  7948  0.85
      L1  H     5    29       P1  7948  0.66
      L1  H     9    30       P1  7948  0.71
      P1  H  7997  8010       L1    21  0.02

> <Gold.Chemscore.Hbond.Weighted>
-10.7535

> <Gold.Chemscore.Metal.Weighted>
-0.0000

> <Gold.Chemscore.Lipo.Weighted>
-10.2475

> <Gold.Chemscore.Internal_Hbond.Weighted>
0.0000

> <Gold.Chemscore.DEClash.Weighted>
0.2448

> <Gold.Chemscore.DEInternal.Weighted>
0.4243

> <Gold.Chemscore.Rot.Weighted>
6.8027

> <Gold.Chemscore.Internal.Correction.Weighted>
   9.000000E+99

> <Gold.Protein.RotatedTorsions>
[ 6907 6896 6895 6894 ] final  -81.62 input  -60.11 | X-H torsion
[ 7974 7965 7964 7962 ] final   85.95 input  175.53 | X-H torsion
[ 8008 7997 7996 7995 ] final   42.25 input   59.86 | X-H torsion
[ 10167 10162 10161 10158 ] final   19.81 input  -65.29 | X-H torsion
[ 10718 10713 10712 10709 ] final   98.30 input   66.30 | X-H torsion
[ 10763 10752 10751 10750 ] final   91.98 input  -60.55 | X-H torsion
[ 11005 11000 10999 10996 ] final -115.72 input  -57.11 | X-H torsion

> <Gold.Protein.ActiveResidues>
 VAL166  LYS551  ARG553  GLY616  TRP617  ASP618  TYR619  PRO620  LYS621  CYS622 
 ASP623  PHE694  ASN695  SER759  ASP760  ASP761  ALA762  ILE779  LEU786  VAL792 
 PHE793  MET794  SER795  GLU796  ALA797  LYS798  CYS799  TRP800  GLU811  SER814 

> <Gold.Protein.RotatedAtoms>
  150.6909  134.3790  159.5025 H   0  0  0  0  0  0  0  0  0  0  0  0  # atno 6907 bound_to 6896
  152.1595  134.8921  160.0552 H   0  0  0  0  0  0  0  0  0  0  0  0  # atno 6908 bound_to 6896
  151.9988  133.3783  159.4210 H   0  0  0  0  0  0  0  0  0  0  0  0  # atno 6909 bound_to 6896
  145.5787  139.2322  143.2365 H   0  0  0  0  0  0  0  0  0  0  0  0  # atno 7974 bound_to 7965
  155.2830  140.3374  155.4257 H   0  0  0  0  0  0  0  0  0  0  0  0  # atno 8008 bound_to 7997
  156.2081  140.1759  156.7796 H   0  0  0  0  0  0  0  0  0  0  0  0  # atno 8009 bound_to 7997
  154.5648  140.0680  156.8859 H   0  0  0  0  0  0  0  0  0  0  0  0  # atno 8010 bound_to 7997
  140.5551  143.9438  150.6604 H   0  0  0  0  0  0  0  0  0  0  0  0  # atno 10167 bound_to 10162
  157.6898  131.0636  150.4774 H   0  0  0  0  0  0  0  0  0  0  0  0  # atno 10718 bound_to 10713
  153.2142  135.4378  155.0415 H   0  0  0  0  0  0  0  0  0  0  0  0  # atno 10763 bound_to 10752
  154.8216  135.3340  154.7023 H   0  0  0  0  0  0  0  0  0  0  0  0  # atno 10764 bound_to 10752
  153.7459  135.7001  153.5012 H   0  0  0  0  0  0  0  0  0  0  0  0  # atno 10765 bound_to 10752
  141.0469  133.9748  157.2902 H   0  0  0  0  0  0  0  0  0  0  0  0  # atno 11005 bound_to 11000
  146.1732  140.6614  142.9223 LP  0  0  0  0  0  0  0  0  0  0  0  0  # atno 17320 bound_to 7965
  144.7404  140.4926  143.6873 LP  0  0  0  0  0  0  0  0  0  0  0  0  # atno 17321 bound_to 7965
  140.2875  143.3347  152.1094 LP  0  0  0  0  0  0  0  0  0  0  0  0  # atno 17342 bound_to 10162
  139.5044  144.6775  151.6091 LP  0  0  0  0  0  0  0  0  0  0  0  0  # atno 17343 bound_to 10162
  156.5108  130.4139  149.6302 LP  0  0  0  0  0  0  0  0  0  0  0  0  # atno 17370 bound_to 10713
  156.3242  130.7297  151.2214 LP  0  0  0  0  0  0  0  0  0  0  0  0  # atno 17371 bound_to 10713
  139.9319  135.0199  156.8429 LP  0  0  0  0  0  0  0  0  0  0  0  0  # atno 17394 bound_to 11000
  140.6129  134.0066  155.7584 LP  0  0  0  0  0  0  0  0  0  0  0  0  # atno 17395 bound_to 11000

$$$$
