AV-unprocessed.smi:1037|AV-procd|sdf|4520|dock10
  -GOLD-   22720 2533D 1   1.00000     0.00000
 Structure written by MMmdl.
 29 29  0  0  0  0  0  0  0  0  1 V2000
  150.4832  138.8400  153.0732 N   0  0  0  0  0  0  0  0  0  0  0  0
  150.9427  139.0403  154.3104 C   0  0  0  0  0  0  0  0  0  0  0  0
  151.0758  140.1683  154.7829 O   0  0  0  0  0  0  0  0  0  0  0  0
  151.2766  137.7873  155.1305 C   0  0  0  0  0  0  0  0  0  0  0  0
  151.4469  138.0658  156.5544 N   0  0  0  0  0  0  0  0  0  0  0  0
  152.4009  138.8497  157.0805 C   0  0  0  0  0  0  0  0  0  0  0  0
  153.2719  139.3983  156.4037 O   0  0  0  0  0  0  0  0  0  0  0  0
  152.3708  139.0195  158.6057 C   0  0  0  0  0  0  0  0  0  0  0  0
  152.6933  140.3901  159.0384 N   0  0  0  0  0  0  0  0  0  0  0  0
  153.7142  140.5333  159.9950 C   0  0  0  0  0  0  0  0  0  0  0  0
  154.0889  141.7357  160.4519 C   0  0  0  0  0  0  0  0  0  0  0  0
  153.4145  142.9021  159.9363 C   0  0  0  0  0  0  0  0  0  0  0  0
  152.4306  142.7962  159.0134 C   0  0  0  0  0  0  0  0  0  0  0  0
  151.7085  144.0203  158.4549 C   0  0  0  0  0  0  0  0  0  0  0  0
  151.8699  144.0985  157.1334 F   0  0  0  0  0  0  0  0  0  0  0  0
  150.4018  143.9505  158.7120 F   0  0  0  0  0  0  0  0  0  0  0  0
  152.1687  145.1527  158.9889 F   0  0  0  0  0  0  0  0  0  0  0  0
  152.0265  141.4655  158.5150 C   0  0  0  0  0  0  0  0  0  0  0  0
  151.1375  141.3181  157.6744 O   0  0  0  0  0  0  0  0  0  0  0  0
  150.2546  139.6322  152.4904 H   0  0  0  0  0  0  0  0  0  0  0  0
  150.3714  137.9002  152.7216 H   0  0  0  0  0  0  0  0  0  0  0  0
  150.4614  137.0725  155.0173 H   0  0  0  0  0  0  0  0  0  0  0  0
  152.1723  137.3069  154.7329 H   0  0  0  0  0  0  0  0  0  0  0  0
  150.7712  137.6547  157.1817 H   0  0  0  0  0  0  0  0  0  0  0  0
  151.3915  138.7268  158.9895 H   0  0  0  0  0  0  0  0  0  0  0  0
  153.0707  138.3039  159.0391 H   0  0  0  0  0  0  0  0  0  0  0  0
  154.1731  139.6122  160.3234 H   0  0  0  0  0  0  0  0  0  0  0  0
  154.8781  141.8298  161.1833 H   0  0  0  0  0  0  0  0  0  0  0  0
  153.7144  143.8720  160.3039 H   0  0  0  0  0  0  0  0  0  0  0  0
  1  2  1  0  0  0  0
  1 20  1  0  0  0  0
  1 21  1  0  0  0  0
  2  3  2  0  0  0  0
  2  4  1  0  0  0  0
  4  5  1  0  0  0  0
  4 22  1  0  0  0  0
  4 23  1  0  0  0  0
  5  6  1  0  0  0  0
  5 24  1  0  0  0  0
  6  7  2  0  0  0  0
  6  8  1  0  0  0  0
  8  9  1  0  0  0  0
  8 25  1  0  0  0  0
  8 26  1  0  0  0  0
  9 18  1  0  0  0  0
  9 10  1  0  0  0  0
 10 11  2  0  0  0  0
 10 27  1  0  0  0  0
 11 12  1  0  0  0  0
 11 28  1  0  0  0  0
 12 13  2  0  0  0  0
 12 29  1  0  0  0  0
 13 14  1  0  0  0  0
 13 18  1  0  0  0  0
 14 15  1  0  0  0  0
 14 16  1  0  0  0  0
 14 17  1  0  0  0  0
 18 19  2  0  0  0  0
M  END
> <s_m_source_file>
AV-unprocessed.smi

> <i_m_source_file_index>
1037

> <i_lp_mmshare_version>
43012

> <i_f3d_flags>
0

> <s_epik_input>
W05IMl1DKD1PKVtDSDJdW05IXUMoPU8pW0NIMl1uMVtjSF1bY0hdW2NIXWMoQyhGKShGKUYpYzE9Tw==

> <s_epik_cmdline>
J2VwaWtfcHl0aG9uJywgJy1waCcsICc3LjAnLCAnLXRuJywgJzgnLCAnLW1hJywgJzIwMCcsICctbWV0YWxfYmluZGluZycsICctaW1hZScsICc8aW5maWxlLm1hZT4nLCAnLW9tYWUnLCAnPG91dGZpbGUubWFlPic=

> <r_lp_tautomer_probability>
1

> <r_epik_Ionization_Penalty>
9.73018e-08

> <r_epik_Ionization_Penalty_Charging>
1.58095e-09

> <r_epik_Ionization_Penalty_Neutral>
9.57208e-08

> <r_epik_State_Penalty>
-0

> <r_epik_Charging_Adjusted_Penalty>
1.58095e-09

> <i_epik_Tot_Q>
0

> <i_epik_Tot_abs_Q>
0

> <r_epik_Metal_State_Penalty>
-0

> <b_epik_Metal_Only>
0

> <s_lp_Force_Field>
OPLS_2005

> <r_lp_Energy>
7.91729

> <b_lp_Chiralities_Consistent>
1

> <s_lp_Variant>
AV-unprocessed.smi:1037-1

> <Gold.Version>
5.8.1

> <Gold.Id.Protein>
6NUR|6NUR_protein|mol2

> <Gold.PLP.Fitness>
52.4353

> <Gold.PLP.PLP>
-41.8272

> <Gold.PLP.part.hbond>
-4.0000

> <Gold.PLP.part.metal>
0.0000

> <Gold.PLP.part.buried>
-5.1701

> <Gold.PLP.part.nonpolar>
-33.7438

> <Gold.PLP.part.repulsive>
0.2063

> <Gold.PLP.ligand.clash>
0.3134

> <Gold.PLP.ligand.torsion>
0.5160

> <Gold.PLP.Chemscore.Hbond>
3.8713

> <Gold.PLP.Chemscore.CHOScore>
0.0000

> <Gold.PLP.Chemscore.Metal>
0.0000

> <Gold.Chemscore.Hbonds>
donor molecule, donor type, donor heavy atom, donor atom, acceptor molecule, acceptor atom, score
      L1  H     1    20       P1  7957  0.84
      L1  H     1    21       P1  7948  0.20
      P1  H  7989  7998       L1     3  0.90
      P1  H  7997  8010       L1     7  0.37

> <Gold.PLP.Chemscore.Internal.Correction>
0.3399

> <Gold.Rescore>
     Score         DG    S(hbond)    S(metal)    S(lipo)     H(rot)  DE(clash)    DE(int)     intcor
     12.84     -17.14       3.54        0.00      58.55       2.74       0.03       4.26       ----

> <Gold.Chemscore.Fitness>
12.8431

> <Gold.Chemscore.DG>
-17.1392

> <Gold.Chemscore.ZeroCoef>
-5.4800

> <Gold.Chemscore.Hbond>
3.5424

> <Gold.Chemscore.Metal>
0.0000

> <Gold.Chemscore.Lipo>
58.5549

> <Gold.Chemscore.Internal_Hbond>
0.0000

> <Gold.Chemscore.DEClash>
0.0333

> <Gold.Chemscore.DEInternal>
4.2629

> <Gold.Chemscore.Rot>
2.7435

> <Gold.Chemscore.Internal.Correction>
   9.000000E+99

> <Gold.Chemscore.Hbonds>
donor molecule, donor type, donor heavy atom, donor atom, acceptor molecule, acceptor atom, score
      L1  H     1    20       P1  7957  0.66
      L1  H     1    21       P1  7948  0.01
      P1  H  7989  7998       L1     3  0.17
      P1  H  7997  8010       L1     7  0.37

> <Gold.Chemscore.Hbond.Weighted>
-11.8317

> <Gold.Chemscore.Metal.Weighted>
-0.0000

> <Gold.Chemscore.Lipo.Weighted>
-6.8509

> <Gold.Chemscore.Internal_Hbond.Weighted>
0.0000

> <Gold.Chemscore.DEClash.Weighted>
0.0333

> <Gold.Chemscore.DEInternal.Weighted>
4.2629

> <Gold.Chemscore.Rot.Weighted>
7.0234

> <Gold.Chemscore.Internal.Correction.Weighted>
   9.000000E+99

> <Gold.Protein.RotatedTorsions>
[ 6907 6896 6895 6894 ] final  -57.82 input  -60.11 | X-H torsion
[ 7974 7965 7964 7962 ] final   62.00 input  175.53 | X-H torsion
[ 8008 7997 7996 7995 ] final   76.51 input   59.86 | X-H torsion
[ 10167 10162 10161 10158 ] final  124.88 input  -65.29 | X-H torsion
[ 10718 10713 10712 10709 ] final   61.67 input   66.30 | X-H torsion
[ 10763 10752 10751 10750 ] final   -7.41 input  -60.55 | X-H torsion
[ 11005 11000 10999 10996 ] final  113.94 input  -57.11 | X-H torsion

> <Gold.Protein.ActiveResidues>
 VAL166  LYS551  ARG553  GLY616  TRP617  ASP618  TYR619  PRO620  LYS621  CYS622 
 ASP623  PHE694  ASN695  SER759  ASP760  ASP761  ALA762  ILE779  LEU786  VAL792 
 PHE793  MET794  SER795  GLU796  ALA797  LYS798  CYS799  TRP800  GLU811  SER814 

> <Gold.Protein.RotatedAtoms>
  150.8055  134.7177  159.6639 H   0  0  0  0  0  0  0  0  0  0  0  0  # atno 6907 bound_to 6896
  152.4174  134.6013  160.0010 H   0  0  0  0  0  0  0  0  0  0  0  0  # atno 6908 bound_to 6896
  151.6238  133.3300  159.3130 H   0  0  0  0  0  0  0  0  0  0  0  0  # atno 6909 bound_to 6896
  145.8784  139.3426  143.0721 H   0  0  0  0  0  0  0  0  0  0  0  0  # atno 7974 bound_to 7965
  155.8283  140.3467  155.5556 H   0  0  0  0  0  0  0  0  0  0  0  0  # atno 8008 bound_to 7997
  155.8269  140.0921  157.1836 H   0  0  0  0  0  0  0  0  0  0  0  0  # atno 8009 bound_to 7997
  154.4004  140.1419  156.3554 H   0  0  0  0  0  0  0  0  0  0  0  0  # atno 8010 bound_to 7997
  139.5717  144.6942  151.3762 H   0  0  0  0  0  0  0  0  0  0  0  0  # atno 10167 bound_to 10162
  157.5845  130.9008  149.9490 H   0  0  0  0  0  0  0  0  0  0  0  0  # atno 10718 bound_to 10713
  153.4260  135.7011  153.6262 H   0  0  0  0  0  0  0  0  0  0  0  0  # atno 10763 bound_to 10752
  153.4697  135.3717  155.2384 H   0  0  0  0  0  0  0  0  0  0  0  0  # atno 10764 bound_to 10752
  154.8724  135.4040  154.3636 H   0  0  0  0  0  0  0  0  0  0  0  0  # atno 10765 bound_to 10752
  139.8966  134.9559  156.6815 H   0  0  0  0  0  0  0  0  0  0  0  0  # atno 11005 bound_to 11000
  145.9053  140.9216  143.0482 LP  0  0  0  0  0  0  0  0  0  0  0  0  # atno 17320 bound_to 7965
  144.6727  140.1088  143.7456 LP  0  0  0  0  0  0  0  0  0  0  0  0  # atno 17321 bound_to 7965
  140.7001  143.7653  150.7389 LP  0  0  0  0  0  0  0  0  0  0  0  0  # atno 17342 bound_to 10162
  140.1161  143.4654  152.2341 LP  0  0  0  0  0  0  0  0  0  0  0  0  # atno 17343 bound_to 10162
  156.0893  130.3665  150.0426 LP  0  0  0  0  0  0  0  0  0  0  0  0  # atno 17370 bound_to 10713
  156.8560  130.9475  151.3622 LP  0  0  0  0  0  0  0  0  0  0  0  0  # atno 17371 bound_to 10713
  140.7295  133.9071  155.8201 LP  0  0  0  0  0  0  0  0  0  0  0  0  # atno 17394 bound_to 11000
  141.0164  134.0949  157.4167 LP  0  0  0  0  0  0  0  0  0  0  0  0  # atno 17395 bound_to 11000

$$$$
