AV-unprocessed.smi:2119|AV-procd|sdf|8634|dock1
  -GOLD-   2272011383D 1   1.00000     0.00000
 Structure written by MMmdl.
 48 50  0  0  0  0  0  0  0  0  2 V2000
  144.3798  136.2870  152.8765 O   0  0  0  0  0  0  0  0  0  0  0  0
  145.5724  136.3333  152.5754 C   0  0  0  0  0  0  0  0  0  0  0  0
  146.4050  137.2882  153.0120 N   0  0  0  0  0  0  0  0  0  0  0  0
  146.0179  138.3974  153.8757 C   0  0  0  0  0  0  0  0  0  0  0  0
  146.9487  139.6386  153.7584 C   0  0  2  0  0  0  0  0  0  0  0  0
  148.2094  139.5694  154.6666 C   0  0  2  0  0  0  0  0  0  0  0  0
  149.1831  140.7207  154.4671 C   0  0  0  0  0  0  0  0  0  0  0  0
  150.4568  140.1840  155.1073 C   0  0  0  0  0  0  0  0  0  0  0  0
  150.4440  138.7858  154.8516 O   0  0  0  0  0  0  0  0  0  0  0  0
  149.1491  138.3814  154.4187 C   0  0  0  0  0  0  0  0  0  0  0  0
  146.2078  140.9104  154.0111 N   0  3  0  0  0  0  0  0  0  0  0  0
  145.8935  141.1559  155.4398 C   0  0  0  0  0  0  0  0  0  0  0  0
  144.9629  142.3732  155.5716 C   0  0  0  0  0  0  0  0  0  0  0  0
  145.5686  143.5085  154.9639 O   0  0  0  0  0  0  0  0  0  0  0  0
  145.8043  143.3120  153.5745 C   0  0  0  0  0  0  0  0  0  0  0  0
  146.7692  142.1311  153.3787 C   0  0  0  0  0  0  0  0  0  0  0  0
  146.2129  135.4515  151.7897 N   0  0  0  0  0  0  0  0  0  0  0  0
  145.6729  134.3367  151.0942 C   0  0  0  0  0  0  0  0  0  0  0  0
  146.4498  133.3963  150.3750 C   0  0  0  0  0  0  0  0  0  0  0  0
  145.7994  132.3184  149.7442 C   0  0  0  0  0  0  0  0  0  0  0  0
  144.3998  132.2158  149.8612 C   0  0  0  0  0  0  0  0  0  0  0  0
  143.6485  133.0966  150.5549 N   0  0  0  0  0  0  0  0  0  0  0  0
  144.2789  134.1270  151.1579 C   0  0  0  0  0  0  0  0  0  0  0  0
  147.3722  137.2472  152.7246 H   0  0  0  0  0  0  0  0  0  0  0  0
  144.9842  138.6611  153.6499 H   0  0  0  0  0  0  0  0  0  0  0  0
  146.0197  138.0190  154.8979 H   0  0  0  0  0  0  0  0  0  0  0  0
  147.3105  139.6981  152.7310 H   0  0  0  0  0  0  0  0  0  0  0  0
  147.9095  139.5518  155.7152 H   0  0  0  0  0  0  0  0  0  0  0  0
  149.3480  140.9019  153.4038 H   0  0  0  0  0  0  0  0  0  0  0  0
  148.8503  141.6527  154.9251 H   0  0  0  0  0  0  0  0  0  0  0  0
  151.3561  140.6565  154.7113 H   0  0  0  0  0  0  0  0  0  0  0  0
  150.4362  140.3416  156.1864 H   0  0  0  0  0  0  0  0  0  0  0  0
  148.8353  137.4813  154.9473 H   0  0  0  0  0  0  0  0  0  0  0  0
  149.2082  138.1461  153.3552 H   0  0  0  0  0  0  0  0  0  0  0  0
  145.4098  140.2801  155.8739 H   0  0  0  0  0  0  0  0  0  0  0  0
  146.8098  141.3295  156.0048 H   0  0  0  0  0  0  0  0  0  0  0  0
  143.9943  142.1733  155.1105 H   0  0  0  0  0  0  0  0  0  0  0  0
  144.7756  142.5915  156.6231 H   0  0  0  0  0  0  0  0  0  0  0  0
  144.8618  143.1361  153.0532 H   0  0  0  0  0  0  0  0  0  0  0  0
  146.2344  144.2223  153.1567 H   0  0  0  0  0  0  0  0  0  0  0  0
  147.7338  142.3799  153.8225 H   0  0  0  0  0  0  0  0  0  0  0  0
  146.9339  141.9692  152.3138 H   0  0  0  0  0  0  0  0  0  0  0  0
  147.2127  135.5670  151.7109 H   0  0  0  0  0  0  0  0  0  0  0  0
  147.5242  133.4705  150.3076 H   0  0  0  0  0  0  0  0  0  0  0  0
  146.3622  131.5839  149.1872 H   0  0  0  0  0  0  0  0  0  0  0  0
  143.8705  131.4005  149.3902 H   0  0  0  0  0  0  0  0  0  0  0  0
  143.6467  134.8098  151.7069 H   0  0  0  0  0  0  0  0  0  0  0  0
  145.3085  140.7696  153.5731 H   0  0  0  0  0  0  0  0  0  0  0  0
  1  2  2  0  0  0  0
  2  3  1  0  0  0  0
  2 17  1  0  0  0  0
  3  4  1  0  0  0  0
  3 24  1  0  0  0  0
  4  5  1  0  0  0  0
  4 25  1  0  0  0  0
  4 26  1  0  0  0  0
  5  6  1  0  0  0  0
  5 11  1  0  0  0  0
  5 27  1  0  0  0  0
  6 10  1  0  0  0  0
  6  7  1  0  0  0  0
  6 28  1  0  0  0  0
  7  8  1  0  0  0  0
  7 29  1  0  0  0  0
  7 30  1  0  0  0  0
  8  9  1  0  0  0  0
  8 31  1  0  0  0  0
  8 32  1  0  0  0  0
  9 10  1  0  0  0  0
 10 33  1  0  0  0  0
 10 34  1  0  0  0  0
 11 16  1  0  0  0  0
 11 12  1  0  0  0  0
 11 48  1  0  0  0  0
 12 13  1  0  0  0  0
 12 35  1  0  0  0  0
 12 36  1  0  0  0  0
 13 14  1  0  0  0  0
 13 37  1  0  0  0  0
 13 38  1  0  0  0  0
 14 15  1  0  0  0  0
 15 16  1  0  0  0  0
 15 39  1  0  0  0  0
 15 40  1  0  0  0  0
 16 41  1  0  0  0  0
 16 42  1  0  0  0  0
 17 18  1  0  0  0  0
 17 43  1  0  0  0  0
 18 23  1  0  0  0  0
 18 19  2  0  0  0  0
 19 20  1  0  0  0  0
 19 44  1  0  0  0  0
 20 21  2  0  0  0  0
 20 45  1  0  0  0  0
 21 22  1  0  0  0  0
 21 46  1  0  0  0  0
 22 23  2  0  0  0  0
 23 47  1  0  0  0  0
M  CHG  1  11   1
M  END
> <s_m_source_file>
AV-unprocessed.smi

> <i_m_source_file_index>
2119

> <i_lp_mmshare_version>
43012

> <i_f3d_flags>
0

> <s_epik_input>
W2NIXTFuW2NIXVtjSF1bY0hdYzFbTkhdQyg9TylbTkhdW0NIMl1bQ0BIXShbQ0BASF0yW0NIMl1bQ0gyXU9bQ0gyXTIpTjNbQ0gyXVtDSDJdT1tDSDJdW0NIMl0z

> <s_epik_cmdline>
J2VwaWtfcHl0aG9uJywgJy1waCcsICc3LjAnLCAnLXRuJywgJzgnLCAnLW1hJywgJzIwMCcsICctbWV0YWxfYmluZGluZycsICctaW1hZScsICc8aW5maWxlLm1hZT4nLCAnLW9tYWUnLCAnPG91dGZpbGUubWFlPic=

> <r_epik_Ionization_Penalty>
0.987463

> <r_epik_Ionization_Penalty_Charging>
0.98326

> <r_epik_Ionization_Penalty_Neutral>
0.00420251

> <r_epik_State_Penalty>
1.01721

> <r_epik_Charging_Adjusted_Penalty>
2.00047

> <i_epik_Tot_Q>
1

> <i_epik_Tot_abs_Q>
1

> <r_epik_Metal_State_Penalty>
1.01439

> <b_epik_Metal_Only>
0

> <s_lp_Force_Field>
OPLS_2005

> <r_lp_Energy>
39.8774

> <b_lp_Chiralities_Consistent>
1

> <s_lp_Variant>
AV-unprocessed.smi:2119-5

> <Gold.Version>
5.8.1

> <Gold.Id.Protein>
6NUR|6NUR_protein|mol2

> <Gold.PLP.Fitness>
47.1396

> <Gold.PLP.PLP>
-36.5193

> <Gold.PLP.part.hbond>
-3.0000

> <Gold.PLP.part.metal>
0.0000

> <Gold.PLP.part.buried>
-6.6954

> <Gold.PLP.part.nonpolar>
-27.1810

> <Gold.PLP.part.repulsive>
0.6968

> <Gold.PLP.ligand.clash>
0.0000

> <Gold.PLP.ligand.torsion>
0.8219

> <Gold.PLP.Chemscore.Hbond>
4.0000

> <Gold.PLP.Chemscore.CHOScore>
0.0000

> <Gold.PLP.Chemscore.Metal>
0.0000

> <Gold.Chemscore.Hbonds>
donor molecule, donor type, donor heavy atom, donor atom, acceptor molecule, acceptor atom, score
      L1  H     3    24       P1  7948  0.93
      L1  H    11    48       P1 10175  2.00
      L1  H    17    43       P1  7948  1.00

> <Gold.PLP.Chemscore.Internal.Correction>
0.2642

> <Gold.Rescore>
     Score         DG    S(hbond)    S(metal)    S(lipo)     H(rot)  DE(clash)    DE(int)     intcor
     17.78     -21.81       2.88        0.00      94.52       1.70       0.44       3.58       ----

> <Gold.Chemscore.Fitness>
17.7804

> <Gold.Chemscore.DG>
-21.8073

> <Gold.Chemscore.ZeroCoef>
-5.4800

> <Gold.Chemscore.Hbond>
2.8819

> <Gold.Chemscore.Metal>
0.0000

> <Gold.Chemscore.Lipo>
94.5240

> <Gold.Chemscore.Internal_Hbond>
0.0000

> <Gold.Chemscore.DEClash>
0.4430

> <Gold.Chemscore.DEInternal>
3.5840

> <Gold.Chemscore.Rot>
1.7021

> <Gold.Chemscore.Internal.Correction>
   9.000000E+99

> <Gold.Chemscore.Hbonds>
donor molecule, donor type, donor heavy atom, donor atom, acceptor molecule, acceptor atom, score
      L1  H     3    24       P1  7948  0.84
      L1  H    11    48       P1 10175  0.89
      L1  H    17    43       P1  7948  1.00

> <Gold.Chemscore.Hbond.Weighted>
-9.6255

> <Gold.Chemscore.Metal.Weighted>
-0.0000

> <Gold.Chemscore.Lipo.Weighted>
-11.0593

> <Gold.Chemscore.Internal_Hbond.Weighted>
0.0000

> <Gold.Chemscore.DEClash.Weighted>
0.4430

> <Gold.Chemscore.DEInternal.Weighted>
3.5840

> <Gold.Chemscore.Rot.Weighted>
4.3575

> <Gold.Chemscore.Internal.Correction.Weighted>
   9.000000E+99

> <Gold.Protein.RotatedTorsions>
[ 6907 6896 6895 6894 ] final -177.04 input  -60.11 | X-H torsion
[ 7974 7965 7964 7962 ] final -164.81 input  175.53 | X-H torsion
[ 8008 7997 7996 7995 ] final -156.65 input   59.86 | X-H torsion
[ 10167 10162 10161 10158 ] final  132.85 input  -65.29 | X-H torsion
[ 10718 10713 10712 10709 ] final -167.08 input   66.30 | X-H torsion
[ 10763 10752 10751 10750 ] final  -96.47 input  -60.55 | X-H torsion
[ 11005 11000 10999 10996 ] final  -20.55 input  -57.11 | X-H torsion

> <Gold.Protein.ActiveResidues>
 VAL166  LYS551  ARG553  GLY616  TRP617  ASP618  TYR619  PRO620  LYS621  CYS622 
 ASP623  PHE694  ASN695  SER759  ASP760  ASP761  ALA762  ILE779  LEU786  VAL792 
 PHE793  MET794  SER795  GLU796  ALA797  LYS798  CYS799  TRP800  GLU811  SER814 

> <Gold.Protein.RotatedAtoms>
  151.6146  133.3344  159.3074 H   0  0  0  0  0  0  0  0  0  0  0  0  # atno 6907 bound_to 6896
  150.8138  134.7312  159.6723 H   0  0  0  0  0  0  0  0  0  0  0  0  # atno 6908 bound_to 6896
  152.4235  134.5917  160.0027 H   0  0  0  0  0  0  0  0  0  0  0  0  # atno 6909 bound_to 6896
  144.7286  140.2906  143.6221 H   0  0  0  0  0  0  0  0  0  0  0  0  # atno 7974 bound_to 7965
  155.7205  140.0789  157.2333 H   0  0  0  0  0  0  0  0  0  0  0  0  # atno 8008 bound_to 7997
  154.4046  140.1613  156.2450 H   0  0  0  0  0  0  0  0  0  0  0  0  # atno 8009 bound_to 7997
  155.9201  140.3398  155.6169 H   0  0  0  0  0  0  0  0  0  0  0  0  # atno 8010 bound_to 7997
  139.5322  144.6643  151.4911 H   0  0  0  0  0  0  0  0  0  0  0  0  # atno 10167 bound_to 10162
  156.6773  130.9107  151.3052 H   0  0  0  0  0  0  0  0  0  0  0  0  # atno 10718 bound_to 10713
  154.7243  135.5082  153.8861 H   0  0  0  0  0  0  0  0  0  0  0  0  # atno 10763 bound_to 10752
  153.0890  135.6654  153.9900 H   0  0  0  0  0  0  0  0  0  0  0  0  # atno 10764 bound_to 10752
  153.9716  135.3038  155.3406 H   0  0  0  0  0  0  0  0  0  0  0  0  # atno 10765 bound_to 10752
  140.8475  133.7881  155.9929 H   0  0  0  0  0  0  0  0  0  0  0  0  # atno 11005 bound_to 11000
  145.7859  139.1909  143.2131 LP  0  0  0  0  0  0  0  0  0  0  0  0  # atno 17320 bound_to 7965
  146.0795  140.7779  142.9648 LP  0  0  0  0  0  0  0  0  0  0  0  0  # atno 17321 bound_to 7965
  140.6507  143.8703  150.6782 LP  0  0  0  0  0  0  0  0  0  0  0  0  # atno 17342 bound_to 10162
  140.2066  143.3916  152.1750 LP  0  0  0  0  0  0  0  0  0  0  0  0  # atno 17343 bound_to 10162
  157.7056  130.9381  150.0921 LP  0  0  0  0  0  0  0  0  0  0  0  0  # atno 17370 bound_to 10713
  156.1894  130.3654  149.8930 LP  0  0  0  0  0  0  0  0  0  0  0  0  # atno 17371 bound_to 10713
  140.8827  134.2592  157.5136 LP  0  0  0  0  0  0  0  0  0  0  0  0  # atno 17394 bound_to 11000
  139.8703  134.9623  156.4424 LP  0  0  0  0  0  0  0  0  0  0  0  0  # atno 17395 bound_to 11000

$$$$
