AV-unprocessed.smi:2424|AV-procd|sdf|9567|dock5
  -GOLD-   2272013193D 1   1.00000     0.00000
 Structure written by MMmdl.
 49 50  0  0  0  0  0  0  0  0  2 V2000
  150.5337  138.9587  155.0450 C   0  0  0  0  0  0  0  0  0  0  0  0
  149.5015  138.9165  153.9066 C   0  0  0  0  0  0  0  0  0  0  0  0
  148.1321  139.5683  154.2343 C   0  0  0  0  0  0  0  0  0  0  0  0
  148.3097  141.1069  154.2507 C   0  0  0  0  0  0  0  0  0  0  0  0
  149.2429  141.6511  155.3455 C   0  0  0  0  0  0  0  0  0  0  0  0
  146.8900  139.0884  153.4267 C   0  0  1  0  0  0  0  0  0  0  0  0
  147.0326  137.7370  152.8809 N   0  0  0  0  0  0  0  0  0  0  0  0
  146.0444  136.9996  152.3588 C   0  0  0  0  0  0  0  0  0  0  0  0
  144.8752  137.3792  152.2982 O   0  0  0  0  0  0  0  0  0  0  0  0
  146.5166  135.8213  151.9157 N   0  0  0  0  0  0  0  0  0  0  0  0
  145.8152  134.7647  151.3216 C   0  0  0  0  0  0  0  0  0  0  0  0
  144.7700  135.0214  150.4577 C   0  0  0  0  0  0  0  0  0  0  0  0
  143.9830  134.1458  149.7959 N   0  5  0  0  0  0  0  0  0  0  0  0
  144.2149  132.8134  149.9720 C   0  0  0  0  0  0  0  0  0  0  0  0
  143.5345  131.9577  149.4074 O   0  0  0  0  0  0  0  0  0  0  0  0
  145.3143  132.3938  150.8644 C   0  0  0  0  0  0  0  0  0  0  0  0
  145.5793  130.9092  151.0476 C   0  0  0  0  0  0  0  0  0  0  0  0
  146.0614  133.3335  151.4959 C   0  0  0  0  0  0  0  0  0  0  0  0
  146.0644  139.0974  154.7245 C   0  0  1  0  0  0  0  0  0  0  0  0
  144.9518  138.0784  154.9621 C   0  0  0  0  0  0  0  0  0  0  0  0
  147.3992  139.0198  155.4895 C   0  0  1  0  0  0  0  0  0  0  0  0
  147.7812  137.6814  155.7892 O   0  0  0  0  0  0  0  0  0  0  0  0
  147.0895  137.1399  156.9015 C   0  0  0  0  0  0  0  0  0  0  0  0
  151.4136  138.3710  154.7822 H   0  0  0  0  0  0  0  0  0  0  0  0
  150.1262  138.5451  155.9677 H   0  0  0  0  0  0  0  0  0  0  0  0
  150.8767  139.9724  155.2488 H   0  0  0  0  0  0  0  0  0  0  0  0
  149.9332  139.3537  153.0069 H   0  0  0  0  0  0  0  0  0  0  0  0
  149.3706  137.8647  153.6532 H   0  0  0  0  0  0  0  0  0  0  0  0
  148.7124  141.4404  153.2944 H   0  0  0  0  0  0  0  0  0  0  0  0
  147.3448  141.6079  154.3205 H   0  0  0  0  0  0  0  0  0  0  0  0
  149.4091  142.7195  155.2068 H   0  0  0  0  0  0  0  0  0  0  0  0
  150.2168  141.1628  155.3253 H   0  0  0  0  0  0  0  0  0  0  0  0
  148.8204  141.5217  156.3415 H   0  0  0  0  0  0  0  0  0  0  0  0
  146.5270  139.8237  152.7072 H   0  0  0  0  0  0  0  0  0  0  0  0
  147.9622  137.3433  152.8910 H   0  0  0  0  0  0  0  0  0  0  0  0
  147.5095  135.6681  152.0142 H   0  0  0  0  0  0  0  0  0  0  0  0
  144.5263  136.0903  150.2749 H   0  0  0  0  0  0  0  0  0  0  0  0
  146.4233  130.7351  151.7156 H   0  0  0  0  0  0  0  0  0  0  0  0
  145.8069  130.4415  150.0893 H   0  0  0  0  0  0  0  0  0  0  0  0
  144.7050  130.4160  151.4733 H   0  0  0  0  0  0  0  0  0  0  0  0
  146.8596  132.9896  152.1332 H   0  0  0  0  0  0  0  0  0  0  0  0
  145.6565  140.1012  154.8539 H   0  0  0  0  0  0  0  0  0  0  0  0
  145.3195  137.0528  154.9213 H   0  0  0  0  0  0  0  0  0  0  0  0
  144.1678  138.1742  154.2108 H   0  0  0  0  0  0  0  0  0  0  0  0
  144.4890  138.2226  155.9381 H   0  0  0  0  0  0  0  0  0  0  0  0
  147.4661  139.6918  156.3474 H   0  0  0  0  0  0  0  0  0  0  0  0
  147.3930  136.1040  157.0506 H   0  0  0  0  0  0  0  0  0  0  0  0
  146.0099  137.1563  156.7521 H   0  0  0  0  0  0  0  0  0  0  0  0
  147.3235  137.6926  157.8122 H   0  0  0  0  0  0  0  0  0  0  0  0
  1  2  1  0  0  0  0
  1 24  1  0  0  0  0
  1 25  1  0  0  0  0
  1 26  1  0  0  0  0
  2  3  1  0  0  0  0
  2 27  1  0  0  0  0
  2 28  1  0  0  0  0
  3 21  1  0  0  0  0
  3  4  1  0  0  0  0
  3  6  1  0  0  0  0
  4  5  1  0  0  0  0
  4 29  1  0  0  0  0
  4 30  1  0  0  0  0
  5 31  1  0  0  0  0
  5 32  1  0  0  0  0
  5 33  1  0  0  0  0
  6  7  1  0  0  0  0
  6 19  1  0  0  0  0
  6 34  1  0  0  0  0
  7  8  1  0  0  0  0
  7 35  1  0  0  0  0
  8  9  2  0  0  0  0
  8 10  1  0  0  0  0
 10 11  1  0  0  0  0
 10 36  1  0  0  0  0
 11 18  1  0  0  0  0
 11 12  2  0  0  0  0
 12 13  1  0  0  0  0
 12 37  1  0  0  0  0
 13 14  1  0  0  0  0
 14 15  2  0  0  0  0
 14 16  1  0  0  0  0
 16 17  1  0  0  0  0
 16 18  2  0  0  0  0
 17 38  1  0  0  0  0
 17 39  1  0  0  0  0
 17 40  1  0  0  0  0
 18 41  1  0  0  0  0
 19 20  1  0  0  0  0
 19 21  1  0  0  0  0
 19 42  1  0  0  0  0
 20 43  1  0  0  0  0
 20 44  1  0  0  0  0
 20 45  1  0  0  0  0
 21 22  1  0  0  0  0
 21 46  1  0  0  0  0
 22 23  1  0  0  0  0
 23 47  1  0  0  0  0
 23 48  1  0  0  0  0
 23 49  1  0  0  0  0
M  CHG  1  13  -1
M  END
> <s_m_source_file>
AV-unprocessed.smi

> <i_m_source_file_index>
2424

> <i_lp_mmshare_version>
43012

> <i_f3d_flags>
0

> <s_epik_input>
W0NIM11PW0NAQEhdMVtDQEhdKFtDSDNdKVtDQEBIXShDMShbQ0gyXVtDSDNdKVtDSDJdW0NIM10pW05IXUMoPU8pW05IXWMyW2NIXVtuSF1jKD1PKWMoW0NIM10pW2NIXTI=

> <s_epik_cmdline>
J2VwaWtfcHl0aG9uJywgJy1waCcsICc3LjAnLCAnLXRuJywgJzgnLCAnLW1hJywgJzIwMCcsICctbWV0YWxfYmluZGluZycsICctaW1hZScsICc8aW5maWxlLm1hZT4nLCAnLW9tYWUnLCAnPG91dGZpbGUubWFlPic=

> <r_lp_tautomer_probability>
1

> <r_epik_Ionization_Penalty>
7.6122

> <r_epik_Ionization_Penalty_Charging>
1.53843

> <r_epik_Ionization_Penalty_Neutral>
6.07377

> <r_epik_State_Penalty>
6.07371

> <r_epik_Charging_Adjusted_Penalty>
7.61214

> <i_epik_Tot_Q>
-1

> <i_epik_Tot_abs_Q>
1

> <r_epik_Metal_State_Penalty>
2.02136

> <b_epik_Metal_Only>
1

> <s_lp_Force_Field>
OPLS_2005

> <r_lp_Energy>
42.7103

> <b_lp_Chiralities_Consistent>
1

> <s_lp_Variant>
AV-unprocessed.smi:2424-9

> <Gold.Version>
5.8.1

> <Gold.Id.Protein>
6NUR|6NUR_protein|mol2

> <Gold.PLP.Fitness>
37.9813

> <Gold.PLP.PLP>
-30.4692

> <Gold.PLP.part.hbond>
-2.7268

> <Gold.PLP.part.metal>
0.0000

> <Gold.PLP.part.buried>
-2.4737

> <Gold.PLP.part.nonpolar>
-29.6205

> <Gold.PLP.part.repulsive>
3.2877

> <Gold.PLP.ligand.clash>
0.0000

> <Gold.PLP.ligand.torsion>
0.7226

> <Gold.PLP.Chemscore.Hbond>
2.7673

> <Gold.PLP.Chemscore.CHOScore>
0.0000

> <Gold.PLP.Chemscore.Metal>
0.0000

> <Gold.Chemscore.Hbonds>
donor molecule, donor type, donor heavy atom, donor atom, acceptor molecule, acceptor atom, score
      L1  H     7    35       P1  7948  0.75
      L1  H    10    36       P1  7948  0.95
      P1  H 10785 10796       L1    15  0.98

> <Gold.PLP.Chemscore.Internal.Correction>
0.6553

> <Gold.Rescore>
     Score         DG    S(hbond)    S(metal)    S(lipo)     H(rot)  DE(clash)    DE(int)     intcor
     12.87     -20.43       2.72        0.00      83.43       1.52       3.60       3.97       ----

> <Gold.Chemscore.Fitness>
12.8701

> <Gold.Chemscore.DG>
-20.4345

> <Gold.Chemscore.ZeroCoef>
-5.4800

> <Gold.Chemscore.Hbond>
2.7202

> <Gold.Chemscore.Metal>
0.0000

> <Gold.Chemscore.Lipo>
83.4309

> <Gold.Chemscore.Internal_Hbond>
0.0000

> <Gold.Chemscore.DEClash>
3.5975

> <Gold.Chemscore.DEInternal>
3.9669

> <Gold.Chemscore.Rot>
1.5204

> <Gold.Chemscore.Internal.Correction>
   9.000000E+99

> <Gold.Chemscore.Hbonds>
donor molecule, donor type, donor heavy atom, donor atom, acceptor molecule, acceptor atom, score
      L1  H     7    35       P1  7948  0.74
      L1  H    10    36       P1  7948  0.85
      P1  H 10785 10796       L1    15  0.92

> <Gold.Chemscore.Hbond.Weighted>
-9.0853

> <Gold.Chemscore.Metal.Weighted>
-0.0000

> <Gold.Chemscore.Lipo.Weighted>
-9.7614

> <Gold.Chemscore.Internal_Hbond.Weighted>
0.0000

> <Gold.Chemscore.DEClash.Weighted>
3.5975

> <Gold.Chemscore.DEInternal.Weighted>
3.9669

> <Gold.Chemscore.Rot.Weighted>
3.8922

> <Gold.Chemscore.Internal.Correction.Weighted>
   9.000000E+99

> <Gold.Protein.RotatedTorsions>
[ 6907 6896 6895 6894 ] final  -76.42 input  -60.11 | X-H torsion
[ 7974 7965 7964 7962 ] final   12.57 input  175.53 | X-H torsion
[ 8008 7997 7996 7995 ] final  -75.50 input   59.86 | X-H torsion
[ 10167 10162 10161 10158 ] final   -7.64 input  -65.29 | X-H torsion
[ 10718 10713 10712 10709 ] final  124.63 input   66.30 | X-H torsion
[ 10763 10752 10751 10750 ] final    9.46 input  -60.55 | X-H torsion
[ 11005 11000 10999 10996 ] final  124.30 input  -57.11 | X-H torsion

> <Gold.Protein.ActiveResidues>
 VAL166  LYS551  ARG553  GLY616  TRP617  ASP618  TYR619  PRO620  LYS621  CYS622 
 ASP623  PHE694  ASN695  SER759  ASP760  ASP761  ALA762  ILE779  LEU786  VAL792 
 PHE793  MET794  SER795  GLU796  ALA797  LYS798  CYS799  TRP800  GLU811  SER814 

> <Gold.Protein.RotatedAtoms>
  150.7028  134.4575  159.5364 H   0  0  0  0  0  0  0  0  0  0  0  0  # atno 6907 bound_to 6896
  152.2256  134.8368  160.0489 H   0  0  0  0  0  0  0  0  0  0  0  0  # atno 6908 bound_to 6896
  151.9203  133.3549  159.3931 H   0  0  0  0  0  0  0  0  0  0  0  0  # atno 6909 bound_to 6896
  146.2348  139.9317  142.8495 H   0  0  0  0  0  0  0  0  0  0  0  0  # atno 7974 bound_to 7965
  154.5422  140.0743  156.8529 H   0  0  0  0  0  0  0  0  0  0  0  0  # atno 8008 bound_to 7997
  155.3158  140.3393  155.4224 H   0  0  0  0  0  0  0  0  0  0  0  0  # atno 8009 bound_to 7997
  156.1885  140.1677  156.8125 H   0  0  0  0  0  0  0  0  0  0  0  0  # atno 8010 bound_to 7997
  140.7035  143.6058  150.8752 H   0  0  0  0  0  0  0  0  0  0  0  0  # atno 10167 bound_to 10162
  157.5569  131.1091  150.8605 H   0  0  0  0  0  0  0  0  0  0  0  0  # atno 10718 bound_to 10713
  153.2138  135.6872  153.8082 H   0  0  0  0  0  0  0  0  0  0  0  0  # atno 10763 bound_to 10752
  153.7305  135.3253  155.3286 H   0  0  0  0  0  0  0  0  0  0  0  0  # atno 10764 bound_to 10752
  154.8235  135.4634  154.0957 H   0  0  0  0  0  0  0  0  0  0  0  0  # atno 10765 bound_to 10752
  139.9352  134.9640  156.8388 H   0  0  0  0  0  0  0  0  0  0  0  0  # atno 11005 bound_to 11000
  145.2038  140.9866  143.4140 LP  0  0  0  0  0  0  0  0  0  0  0  0  # atno 17320 bound_to 7965
  144.9750  139.3841  143.6290 LP  0  0  0  0  0  0  0  0  0  0  0  0  # atno 17321 bound_to 7965
  139.9782  143.5981  152.2951 LP  0  0  0  0  0  0  0  0  0  0  0  0  # atno 17342 bound_to 10162
  139.6592  144.7662  151.1996 LP  0  0  0  0  0  0  0  0  0  0  0  0  # atno 17343 bound_to 10162
  156.9114  130.5282  149.5280 LP  0  0  0  0  0  0  0  0  0  0  0  0  # atno 17370 bound_to 10713
  156.0627  130.5676  150.9226 LP  0  0  0  0  0  0  0  0  0  0  0  0  # atno 17371 bound_to 10713
  140.6095  134.0096  155.7570 LP  0  0  0  0  0  0  0  0  0  0  0  0  # atno 17394 bound_to 11000
  141.0962  133.9840  157.3156 LP  0  0  0  0  0  0  0  0  0  0  0  0  # atno 17395 bound_to 11000

$$$$
