AV-unprocessed.smi:2510|AV-procd|sdf|9882|dock1
  -GOLD-   2272013513D 1   1.00000     0.00000
 Structure written by MMmdl.
 48 49  0  0  0  0  0  0  0  0  1 V2000
  148.9343  134.1769  154.4383 C   0  0  0  0  0  0  0  0  0  0  0  0
  148.2771  133.8543  153.0842 C   0  0  0  0  0  0  0  0  0  0  0  0
  146.7409  133.6122  153.0777 C   0  0  0  0  0  0  0  0  0  0  0  0
  146.4602  132.5552  154.1740 C   0  0  0  0  0  0  0  0  0  0  0  0
  147.2256  131.2300  154.0101 C   0  0  0  0  0  0  0  0  0  0  0  0
  145.7923  134.8467  153.1490 C   0  0  1  0  0  0  0  0  0  0  0  0
  146.3659  136.0702  152.5929 N   0  0  0  0  0  0  0  0  0  0  0  0
  145.7108  137.2272  152.4117 C   0  0  0  0  0  0  0  0  0  0  0  0
  144.5339  137.3926  152.7310 O   0  0  0  0  0  0  0  0  0  0  0  0
  146.5042  138.3859  151.7969 C   0  0  0  0  0  0  0  0  0  0  0  0
  147.4330  139.0236  152.7847 C   0  0  0  0  0  0  0  0  0  0  0  0
  147.3813  140.2287  153.4281 C   0  0  0  0  0  0  0  0  0  0  0  0
  148.5728  140.2630  154.2101 C   0  0  0  0  0  0  0  0  0  0  0  0
  149.0530  141.3555  155.1193 C   0  0  0  0  0  0  0  0  0  0  0  0
  149.3020  139.1660  154.0689 N   0  0  0  0  0  0  0  0  0  0  0  0
  148.5969  138.4173  153.2011 N   0  0  0  0  0  0  0  0  0  0  0  0
  144.8424  134.1629  152.1483 C   0  0  1  0  0  0  0  0  0  0  0  0
  144.0741  134.9936  151.1212 C   0  0  0  0  0  0  0  0  0  0  0  0
  146.0558  133.3291  151.7097 C   0  0  2  0  0  0  0  0  0  0  0  0
  145.7980  131.9479  151.5019 O   0  0  0  0  0  0  0  0  0  0  0  0
  144.8517  131.7033  150.4763 C   0  0  0  0  0  0  0  0  0  0  0  0
  148.9193  137.5071  152.9036 H   0  0  0  0  0  0  0  0  0  0  0  0
  150.0129  134.2803  154.3196 H   0  0  0  0  0  0  0  0  0  0  0  0
  148.7663  133.3987  155.1814 H   0  0  0  0  0  0  0  0  0  0  0  0
  148.5657  135.1197  154.8432 H   0  0  0  0  0  0  0  0  0  0  0  0
  148.5344  134.6795  152.4192 H   0  0  0  0  0  0  0  0  0  0  0  0
  148.7816  132.9854  152.6605 H   0  0  0  0  0  0  0  0  0  0  0  0
  146.7067  132.9555  155.1576 H   0  0  0  0  0  0  0  0  0  0  0  0
  145.3922  132.3393  154.2235 H   0  0  0  0  0  0  0  0  0  0  0  0
  147.0059  130.5584  154.8403 H   0  0  0  0  0  0  0  0  0  0  0  0
  148.3041  131.3834  153.9931 H   0  0  0  0  0  0  0  0  0  0  0  0
  146.9481  130.7100  153.0934 H   0  0  0  0  0  0  0  0  0  0  0  0
  145.3158  134.9914  154.1194 H   0  0  0  0  0  0  0  0  0  0  0  0
  147.3330  136.0268  152.3053 H   0  0  0  0  0  0  0  0  0  0  0  0
  147.0741  138.0183  150.9426 H   0  0  0  0  0  0  0  0  0  0  0  0
  145.7992  139.1220  151.4089 H   0  0  0  0  0  0  0  0  0  0  0  0
  146.6104  140.9806  153.3446 H   0  0  0  0  0  0  0  0  0  0  0  0
  148.3979  142.2254  155.0700 H   0  0  0  0  0  0  0  0  0  0  0  0
  150.0571  141.6815  154.8467 H   0  0  0  0  0  0  0  0  0  0  0  0
  149.0803  141.0192  156.1560 H   0  0  0  0  0  0  0  0  0  0  0  0
  144.1510  133.5311  152.7081 H   0  0  0  0  0  0  0  0  0  0  0  0
  144.7442  135.4996  150.4255 H   0  0  0  0  0  0  0  0  0  0  0  0
  143.4678  135.7577  151.6081 H   0  0  0  0  0  0  0  0  0  0  0  0
  143.4020  134.3714  150.5308 H   0  0  0  0  0  0  0  0  0  0  0  0
  146.5587  133.7904  150.8591 H   0  0  0  0  0  0  0  0  0  0  0  0
  144.7333  130.6285  150.3395 H   0  0  0  0  0  0  0  0  0  0  0  0
  145.1782  132.1287  149.5266 H   0  0  0  0  0  0  0  0  0  0  0  0
  143.8751  132.1155  150.7292 H   0  0  0  0  0  0  0  0  0  0  0  0
  1  2  1  0  0  0  0
  1 23  1  0  0  0  0
  1 24  1  0  0  0  0
  1 25  1  0  0  0  0
  2  3  1  0  0  0  0
  2 26  1  0  0  0  0
  2 27  1  0  0  0  0
  3 19  1  0  0  0  0
  3  4  1  0  0  0  0
  3  6  1  0  0  0  0
  4  5  1  0  0  0  0
  4 28  1  0  0  0  0
  4 29  1  0  0  0  0
  5 30  1  0  0  0  0
  5 31  1  0  0  0  0
  5 32  1  0  0  0  0
  6  7  1  0  0  0  0
  6 17  1  0  0  0  0
  6 33  1  0  0  0  0
  7  8  1  0  0  0  0
  7 34  1  0  0  0  0
  8  9  2  0  0  0  0
  8 10  1  0  0  0  0
 10 35  1  0  0  0  0
 10 36  1  0  0  0  0
 10 11  1  0  0  0  0
 11 16  1  0  0  0  0
 11 12  2  0  0  0  0
 12 13  1  0  0  0  0
 12 37  1  0  0  0  0
 13 14  1  0  0  0  0
 13 15  2  0  0  0  0
 14 38  1  0  0  0  0
 14 39  1  0  0  0  0
 14 40  1  0  0  0  0
 15 16  1  0  0  0  0
 16 22  1  0  0  0  0
 17 18  1  0  0  0  0
 17 19  1  0  0  0  0
 17 41  1  0  0  0  0
 18 42  1  0  0  0  0
 18 43  1  0  0  0  0
 18 44  1  0  0  0  0
 19 20  1  0  0  0  0
 19 45  1  0  0  0  0
 20 21  1  0  0  0  0
 21 46  1  0  0  0  0
 21 47  1  0  0  0  0
 21 48  1  0  0  0  0
M  END
> <s_m_source_file>
AV-unprocessed.smi

> <i_m_source_file_index>
2510

> <i_lp_mmshare_version>
43012

> <i_f3d_flags>
0

> <s_epik_input>
W0NIM11PW0NAQEhdMVtDQEhdKFtDSDNdKVtDQEBIXShDMShbQ0gyXVtDSDNdKVtDSDJdW0NIM10pW05IXUMoPU8pW0NIMl1jMltjSF1jKFtDSDNdKVtuSF1uMg==

> <s_epik_cmdline>
J2VwaWtfcHl0aG9uJywgJy1waCcsICc3LjAnLCAnLXRuJywgJzgnLCAnLW1hJywgJzIwMCcsICctbWV0YWxfYmluZGluZycsICctaW1hZScsICc8aW5maWxlLm1hZT4nLCAnLW9tYWUnLCAnPG91dGZpbGUubWFlPic=

> <r_lp_tautomer_probability>
0.5

> <r_epik_Ionization_Penalty>
0.000134763

> <r_epik_Ionization_Penalty_Charging>
0

> <r_epik_Ionization_Penalty_Neutral>
0.000134763

> <r_epik_State_Penalty>
0.41068

> <r_epik_Charging_Adjusted_Penalty>
0.41068

> <i_epik_Tot_Q>
0

> <i_epik_Tot_abs_Q>
0

> <r_epik_Metal_State_Penalty>
0.410661

> <b_epik_Metal_Only>
0

> <s_lp_Force_Field>
OPLS_2005

> <r_lp_Energy>
26.4004

> <b_lp_Chiralities_Consistent>
1

> <s_lp_Variant>
AV-unprocessed.smi:2510-13

> <Gold.Version>
5.8.1

> <Gold.Id.Protein>
6NUR|6NUR_protein|mol2

> <Gold.PLP.Fitness>
37.0497

> <Gold.PLP.PLP>
-31.7239

> <Gold.PLP.part.hbond>
-3.0000

> <Gold.PLP.part.metal>
0.0000

> <Gold.PLP.part.buried>
-0.0075

> <Gold.PLP.part.nonpolar>
-29.3911

> <Gold.PLP.part.repulsive>
0.7948

> <Gold.PLP.ligand.clash>
0.0000

> <Gold.PLP.ligand.torsion>
0.7206

> <Gold.PLP.Chemscore.Hbond>
2.0000

> <Gold.PLP.Chemscore.CHOScore>
0.0000

> <Gold.PLP.Chemscore.Metal>
0.0000

> <Gold.Chemscore.Hbonds>
donor molecule, donor type, donor heavy atom, donor atom, acceptor molecule, acceptor atom, score
      L1  H     7    34       P1  7948  1.00
      L1  H    16    22       P1  7948  1.00

> <Gold.PLP.Chemscore.Internal.Correction>
0.7672

> <Gold.Rescore>
     Score         DG    S(hbond)    S(metal)    S(lipo)     H(rot)  DE(clash)    DE(int)     intcor
     14.73     -17.49       1.98        0.00      85.69       1.81       1.97       0.79       ----

> <Gold.Chemscore.Fitness>
14.7314

> <Gold.Chemscore.DG>
-17.4859

> <Gold.Chemscore.ZeroCoef>
-5.4800

> <Gold.Chemscore.Hbond>
1.9802

> <Gold.Chemscore.Metal>
0.0000

> <Gold.Chemscore.Lipo>
85.6927

> <Gold.Chemscore.Internal_Hbond>
0.0000

> <Gold.Chemscore.DEClash>
1.9660

> <Gold.Chemscore.DEInternal>
0.7886

> <Gold.Chemscore.Rot>
1.8102

> <Gold.Chemscore.Internal.Correction>
   9.000000E+99

> <Gold.Chemscore.Hbonds>
donor molecule, donor type, donor heavy atom, donor atom, acceptor molecule, acceptor atom, score
      L1  H     7    34       P1  7948  1.00
      L1  H    16    22       P1  7948  0.96

> <Gold.Chemscore.Hbond.Weighted>
-6.6140

> <Gold.Chemscore.Metal.Weighted>
-0.0000

> <Gold.Chemscore.Lipo.Weighted>
-10.0260

> <Gold.Chemscore.Internal_Hbond.Weighted>
0.0000

> <Gold.Chemscore.DEClash.Weighted>
1.9660

> <Gold.Chemscore.DEInternal.Weighted>
0.7886

> <Gold.Chemscore.Rot.Weighted>
4.6341

> <Gold.Chemscore.Internal.Correction.Weighted>
   9.000000E+99

> <Gold.Protein.RotatedTorsions>
[ 6907 6896 6895 6894 ] final  -14.11 input  -60.11 | X-H torsion
[ 7974 7965 7964 7962 ] final -174.63 input  175.53 | X-H torsion
[ 8008 7997 7996 7995 ] final  -11.61 input   59.86 | X-H torsion
[ 10167 10162 10161 10158 ] final   77.92 input  -65.29 | X-H torsion
[ 10718 10713 10712 10709 ] final   58.51 input   66.30 | X-H torsion
[ 10763 10752 10751 10750 ] final -169.38 input  -60.55 | X-H torsion
[ 11005 11000 10999 10996 ] final  -66.70 input  -57.11 | X-H torsion

> <Gold.Protein.ActiveResidues>
 VAL166  LYS551  ARG553  GLY616  TRP617  ASP618  TYR619  PRO620  LYS621  CYS622 
 ASP623  PHE694  ASN695  SER759  ASP760  ASP761  ALA762  ILE779  LEU786  VAL792 
 PHE793  MET794  SER795  GLU796  ALA797  LYS798  CYS799  TRP800  GLU811  SER814 

> <Gold.Protein.RotatedAtoms>
  151.3445  135.0871  159.9382 H   0  0  0  0  0  0  0  0  0  0  0  0  # atno 6907 bound_to 6896
  152.5203  133.9414  159.7638 H   0  0  0  0  0  0  0  0  0  0  0  0  # atno 6908 bound_to 6896
  150.9777  133.6224  159.2757 H   0  0  0  0  0  0  0  0  0  0  0  0  # atno 6909 bound_to 6896
  144.7131  140.1442  143.6389 H   0  0  0  0  0  0  0  0  0  0  0  0  # atno 7974 bound_to 7965
  154.5449  140.2298  155.8579 H   0  0  0  0  0  0  0  0  0  0  0  0  # atno 8008 bound_to 7997
  156.1894  140.3081  155.9263 H   0  0  0  0  0  0  0  0  0  0  0  0  # atno 8009 bound_to 7997
  155.3183  140.0439  157.3029 H   0  0  0  0  0  0  0  0  0  0  0  0  # atno 8010 bound_to 7997
  139.9765  144.5857  150.7939 H   0  0  0  0  0  0  0  0  0  0  0  0  # atno 10167 bound_to 10162
  157.5602  130.8830  149.9099 H   0  0  0  0  0  0  0  0  0  0  0  0  # atno 10718 bound_to 10713
  154.6529  135.2914  154.9964 H   0  0  0  0  0  0  0  0  0  0  0  0  # atno 10763 bound_to 10752
  154.1051  135.6571  153.4879 H   0  0  0  0  0  0  0  0  0  0  0  0  # atno 10764 bound_to 10752
  153.0386  135.5251  154.7445 H   0  0  0  0  0  0  0  0  0  0  0  0  # atno 10765 bound_to 10752
  141.1489  133.6704  156.6180 H   0  0  0  0  0  0  0  0  0  0  0  0  # atno 11005 bound_to 11000
  145.9174  139.2524  143.1401 LP  0  0  0  0  0  0  0  0  0  0  0  0  # atno 17320 bound_to 7965
  145.9655  140.8802  143.0189 LP  0  0  0  0  0  0  0  0  0  0  0  0  # atno 17321 bound_to 7965
  140.7504  143.2955  151.3217 LP  0  0  0  0  0  0  0  0  0  0  0  0  # atno 17342 bound_to 10162
  139.6442  144.0482  152.2578 LP  0  0  0  0  0  0  0  0  0  0  0  0  # atno 17343 bound_to 10162
  156.0656  130.3693  150.0887 LP  0  0  0  0  0  0  0  0  0  0  0  0  # atno 17370 bound_to 10713
  156.9051  130.9633  151.3571 LP  0  0  0  0  0  0  0  0  0  0  0  0  # atno 17371 bound_to 10713
  140.3563  134.7726  157.4502 LP  0  0  0  0  0  0  0  0  0  0  0  0  # atno 17394 bound_to 11000
  140.0821  134.5717  155.8530 LP  0  0  0  0  0  0  0  0  0  0  0  0  # atno 17395 bound_to 11000

$$$$
