AV-unprocessed.smi:86|AV-procd|sdf|815|dock3
  -GOLD-   2262017213D 1   1.00000     0.00000
 Structure written by MMmdl.
 51 55  0  0  0  0  0  0  0  0  1 V2000
  149.9974  136.3165  158.9661 O   0  0  0  0  0  0  0  0  0  0  0  0
  148.6762  136.8168  158.9217 C   0  0  0  0  0  0  0  0  0  0  0  0
  147.7554  136.0675  159.9007 C   0  0  0  0  0  0  0  0  0  0  0  0
  147.6600  134.5719  159.5318 C   0  0  0  0  0  0  0  0  0  0  0  0
  147.5722  134.3137  158.1021 N   0  0  0  0  0  0  0  0  0  0  0  0
  148.2503  133.3432  157.4014 C   0  0  0  0  0  0  0  0  0  0  0  0
  148.0027  133.3073  156.1216 N   0  0  0  0  0  0  0  0  0  0  0  0
  147.0701  134.3196  155.9185 C   0  0  0  0  0  0  0  0  0  0  0  0
  146.3696  134.8262  154.7821 C   0  0  0  0  0  0  0  0  0  0  0  0
  146.4963  134.3485  153.5166 N   0  0  0  0  0  0  0  0  0  0  0  0
  147.3834  133.2359  153.1861 C   0  0  0  0  0  0  0  0  0  0  0  0
  146.7905  132.5934  151.9228 C   0  0  1  0  0  0  0  0  0  0  0  0
  145.8711  131.4042  152.2800 C   0  0  0  0  0  0  0  0  0  0  0  0
  144.9724  130.9927  151.1065 C   0  0  0  0  0  0  0  0  0  0  0  0
  144.1105  132.1804  150.6525 C   0  0  2  0  0  0  0  0  0  0  0  0
  143.2877  131.7832  149.5761 O   0  0  0  0  0  0  0  0  0  0  0  0
  144.9942  133.3592  150.2124 C   0  0  0  0  0  0  0  0  0  0  0  0
  146.0258  133.7648  151.2831 C   0  0  1  0  0  0  0  0  0  0  0  0
  145.4800  134.5275  152.4917 C   0  0  0  0  0  0  0  0  0  0  0  0
  145.5027  135.8512  154.9954 N   0  0  0  0  0  0  0  0  0  0  0  0
  145.3310  136.3543  156.2203 C   0  0  0  0  0  0  0  0  0  0  0  0
  145.9154  135.9870  157.3607 N   0  0  0  0  0  0  0  0  0  0  0  0
  146.7866  134.9580  157.1616 C   0  0  0  0  0  0  0  0  0  0  0  0
  148.0073  136.3755  161.3832 C   0  0  0  0  0  0  0  0  0  0  0  0
  146.9064  137.3072  161.4332 O   0  0  0  0  0  0  0  0  0  0  0  0
  146.4233  136.7782  160.1804 C   0  0  0  0  0  0  0  0  0  0  0  0
  150.5904  137.0162  158.7381 H   0  0  0  0  0  0  0  0  0  0  0  0
  148.7151  137.8779  159.1711 H   0  0  0  0  0  0  0  0  0  0  0  0
  148.3056  136.7638  157.8982 H   0  0  0  0  0  0  0  0  0  0  0  0
  148.5202  134.0269  159.9224 H   0  0  0  0  0  0  0  0  0  0  0  0
  146.7898  134.1164  160.0059 H   0  0  0  0  0  0  0  0  0  0  0  0
  148.9456  132.6628  157.8715 H   0  0  0  0  0  0  0  0  0  0  0  0
  148.3775  133.6351  152.9823 H   0  0  0  0  0  0  0  0  0  0  0  0
  147.4711  132.5125  153.9979 H   0  0  0  0  0  0  0  0  0  0  0  0
  147.5789  132.2421  151.2559 H   0  0  0  0  0  0  0  0  0  0  0  0
  146.4746  130.5549  152.6012 H   0  0  0  0  0  0  0  0  0  0  0  0
  145.2383  131.6636  153.1302 H   0  0  0  0  0  0  0  0  0  0  0  0
  145.5875  130.6340  150.2799 H   0  0  0  0  0  0  0  0  0  0  0  0
  144.3352  130.1603  151.4071 H   0  0  0  0  0  0  0  0  0  0  0  0
  143.4596  132.4925  151.4699 H   0  0  0  0  0  0  0  0  0  0  0  0
  143.4549  132.3557  148.8429 H   0  0  0  0  0  0  0  0  0  0  0  0
  145.5330  133.0779  149.3063 H   0  0  0  0  0  0  0  0  0  0  0  0
  144.3778  134.2182  149.9445 H   0  0  0  0  0  0  0  0  0  0  0  0
  146.7589  134.4168  150.8046 H   0  0  0  0  0  0  0  0  0  0  0  0
  144.5360  134.1050  152.8376 H   0  0  0  0  0  0  0  0  0  0  0  0
  145.3259  135.5808  152.2558 H   0  0  0  0  0  0  0  0  0  0  0  0
  144.6233  137.1664  156.2976 H   0  0  0  0  0  0  0  0  0  0  0  0
  147.8468  135.5242  162.0471 H   0  0  0  0  0  0  0  0  0  0  0  0
  148.9686  136.8494  161.5845 H   0  0  0  0  0  0  0  0  0  0  0  0
  146.1738  137.5578  159.4597 H   0  0  0  0  0  0  0  0  0  0  0  0
  145.5787  136.1055  160.3335 H   0  0  0  0  0  0  0  0  0  0  0  0
  1  2  1  0  0  0  0
  1 27  1  0  0  0  0
  2  3  1  0  0  0  0
  2 28  1  0  0  0  0
  2 29  1  0  0  0  0
  3 26  1  0  0  0  0
  3  4  1  0  0  0  0
  3 24  1  0  0  0  0
  4  5  1  0  0  0  0
  4 30  1  0  0  0  0
  4 31  1  0  0  0  0
  5 23  1  0  0  0  0
  5  6  1  0  0  0  0
  6  7  2  0  0  0  0
  6 32  1  0  0  0  0
  7  8  1  0  0  0  0
  8 23  2  0  0  0  0
  8  9  1  0  0  0  0
  9 10  1  0  0  0  0
  9 20  2  0  0  0  0
 10 19  1  0  0  0  0
 10 11  1  0  0  0  0
 11 12  1  0  0  0  0
 11 33  1  0  0  0  0
 11 34  1  0  0  0  0
 12 18  1  0  0  0  0
 12 13  1  0  0  0  0
 12 35  1  0  0  0  0
 13 14  1  0  0  0  0
 13 36  1  0  0  0  0
 13 37  1  0  0  0  0
 14 15  1  0  0  0  0
 14 38  1  0  0  0  0
 14 39  1  0  0  0  0
 15 16  1  0  0  0  0
 15 17  1  0  0  0  0
 15 40  1  0  0  0  0
 16 41  1  0  0  0  0
 17 18  1  0  0  0  0
 17 42  1  0  0  0  0
 17 43  1  0  0  0  0
 18 19  1  0  0  0  0
 18 44  1  0  0  0  0
 19 45  1  0  0  0  0
 19 46  1  0  0  0  0
 20 21  1  0  0  0  0
 21 22  2  0  0  0  0
 21 47  1  0  0  0  0
 22 23  1  0  0  0  0
 24 25  1  0  0  0  0
 24 48  1  0  0  0  0
 24 49  1  0  0  0  0
 25 26  1  0  0  0  0
 26 50  1  0  0  0  0
 26 51  1  0  0  0  0
M  END
> <s_m_source_file>
AV-unprocessed.smi

> <i_m_source_file_index>
86

> <i_lp_mmshare_version>
43012

> <i_f3d_flags>
0

> <s_epik_input>
W0NIMl0xT1tDSDJdQzEoW0NIMl1bT0hdKVtDSDJdbihbY0hdbjIpYyhjMjMpbltjSF1uYzNOKFtDSDJdNClbQ0gyXVtDQEBIXShbQ0BIXTQ1KVtDSDJdW0NASF0oW09IXSlbQ0gyXVtDSDJdNQ==

> <s_epik_cmdline>
J2VwaWtfcHl0aG9uJywgJy1waCcsICc3LjAnLCAnLXRuJywgJzgnLCAnLW1hJywgJzIwMCcsICctbWV0YWxfYmluZGluZycsICctaW1hZScsICc8aW5maWxlLm1hZT4nLCAnLW9tYWUnLCAnPG91dGZpbGUubWFlPic=

> <r_lp_tautomer_probability>
1

> <r_epik_Ionization_Penalty>
0.00425795

> <r_epik_Ionization_Penalty_Charging>
0

> <r_epik_Ionization_Penalty_Neutral>
0.00425795

> <r_epik_State_Penalty>
0.00299946

> <r_epik_Charging_Adjusted_Penalty>
0.00299946

> <i_epik_Tot_Q>
0

> <i_epik_Tot_abs_Q>
0

> <r_epik_Metal_State_Penalty>
-0

> <b_epik_Metal_Only>
0

> <s_lp_Force_Field>
OPLS_2005

> <r_lp_Energy>
53.5729

> <b_lp_Chiralities_Consistent>
1

> <s_lp_Variant>
AV-unprocessed.smi:86-4

> <Gold.Version>
5.8.1

> <Gold.Id.Protein>
6NUR|6NUR_protein|mol2

> <Gold.PLP.Fitness>
40.7852

> <Gold.PLP.PLP>
-32.7323

> <Gold.PLP.part.hbond>
-4.5111

> <Gold.PLP.part.metal>
0.0000

> <Gold.PLP.part.buried>
-4.5505

> <Gold.PLP.part.nonpolar>
-23.2281

> <Gold.PLP.part.repulsive>
0.0151

> <Gold.PLP.ligand.clash>
0.0000

> <Gold.PLP.ligand.torsion>
0.7115

> <Gold.PLP.Chemscore.Hbond>
3.0000

> <Gold.PLP.Chemscore.CHOScore>
0.0000

> <Gold.PLP.Chemscore.Metal>
0.0000

> <Gold.Chemscore.Hbonds>
donor molecule, donor type, donor heavy atom, donor atom, acceptor molecule, acceptor atom, score
      P1  H  6896  6908       L1     1  1.00
      P1  H  6934  6947       L1    25  1.00
      P1  H 10785 10796       L1    16  1.00

> <Gold.PLP.Chemscore.Internal.Correction>
0.4758

> <Gold.Rescore>
     Score         DG    S(hbond)    S(metal)    S(lipo)     H(rot)  DE(clash)    DE(int)     intcor
     11.02     -13.94       1.94        0.00      77.40       2.76       0.09       2.83       ----

> <Gold.Chemscore.Fitness>
11.0217

> <Gold.Chemscore.DG>
-13.9438

> <Gold.Chemscore.ZeroCoef>
-5.4800

> <Gold.Chemscore.Hbond>
1.9404

> <Gold.Chemscore.Metal>
0.0000

> <Gold.Chemscore.Lipo>
77.4042

> <Gold.Chemscore.Internal_Hbond>
0.0000

> <Gold.Chemscore.DEClash>
0.0902

> <Gold.Chemscore.DEInternal>
2.8318

> <Gold.Chemscore.Rot>
2.7630

> <Gold.Chemscore.Internal.Correction>
   9.000000E+99

> <Gold.Chemscore.Hbonds>
donor molecule, donor type, donor heavy atom, donor atom, acceptor molecule, acceptor atom, score
      P1  H  6896  6908       L1     1  0.78
      P1  H  6934  6947       L1    25  0.25
      P1  H 10785 10796       L1    16  0.30

> <Gold.Chemscore.Hbond.Weighted>
-6.4808

> <Gold.Chemscore.Metal.Weighted>
-0.0000

> <Gold.Chemscore.Lipo.Weighted>
-9.0563

> <Gold.Chemscore.Internal_Hbond.Weighted>
0.0000

> <Gold.Chemscore.DEClash.Weighted>
0.0902

> <Gold.Chemscore.DEInternal.Weighted>
2.8318

> <Gold.Chemscore.Rot.Weighted>
7.0734

> <Gold.Chemscore.Internal.Correction.Weighted>
   9.000000E+99

> <Gold.Protein.RotatedTorsions>
[ 6907 6896 6895 6894 ] final -165.88 input  -60.11 | X-H torsion
[ 7974 7965 7964 7962 ] final    8.58 input  175.53 | X-H torsion
[ 8008 7997 7996 7995 ] final  179.09 input   59.86 | X-H torsion
[ 10167 10162 10161 10158 ] final  -49.49 input  -65.29 | X-H torsion
[ 10718 10713 10712 10709 ] final  -54.78 input   66.30 | X-H torsion
[ 10763 10752 10751 10750 ] final   96.69 input  -60.55 | X-H torsion
[ 11005 11000 10999 10996 ] final -129.36 input  -57.11 | X-H torsion

> <Gold.Protein.ActiveResidues>
 VAL166  LYS551  ARG553  GLY616  TRP617  ASP618  TYR619  PRO620  LYS621  CYS622 
 ASP623  PHE694  ASN695  SER759  ASP760  ASP761  ALA762  ILE779  LEU786  VAL792 
 PHE793  MET794  SER795  GLU796  ALA797  LYS798  CYS799  TRP800  GLU811  SER814 

> <Gold.Protein.RotatedAtoms>
  151.4347  133.3660  159.2773 H   0  0  0  0  0  0  0  0  0  0  0  0  # atno 6907 bound_to 6896
  150.9200  134.8619  159.7493 H   0  0  0  0  0  0  0  0  0  0  0  0  # atno 6908 bound_to 6896
  152.4977  134.4284  159.9556 H   0  0  0  0  0  0  0  0  0  0  0  0  # atno 6909 bound_to 6896
  146.2414  139.9913  142.8425 H   0  0  0  0  0  0  0  0  0  0  0  0  # atno 7974 bound_to 7965
  156.0473  140.1317  157.0089 H   0  0  0  0  0  0  0  0  0  0  0  0  # atno 8008 bound_to 7997
  154.4418  140.1018  156.6396 H   0  0  0  0  0  0  0  0  0  0  0  0  # atno 8009 bound_to 7997
  155.5576  140.3464  155.4485 H   0  0  0  0  0  0  0  0  0  0  0  0  # atno 8010 bound_to 7997
  140.6682  143.2695  151.4223 H   0  0  0  0  0  0  0  0  0  0  0  0  # atno 10167 bound_to 10162
  156.1423  130.4154  150.0083 H   0  0  0  0  0  0  0  0  0  0  0  0  # atno 10718 bound_to 10713
  153.2679  135.4210  155.0959 H   0  0  0  0  0  0  0  0  0  0  0  0  # atno 10763 bound_to 10752
  154.8445  135.3465  154.6285 H   0  0  0  0  0  0  0  0  0  0  0  0  # atno 10764 bound_to 10752
  153.6705  135.7044  153.5206 H   0  0  0  0  0  0  0  0  0  0  0  0  # atno 10765 bound_to 10752
  140.9438  134.1158  157.4126 H   0  0  0  0  0  0  0  0  0  0  0  0  # atno 11005 bound_to 11000
  145.1501  140.9618  143.4438 LP  0  0  0  0  0  0  0  0  0  0  0  0  # atno 17320 bound_to 7965
  145.0213  139.3421  143.6071 LP  0  0  0  0  0  0  0  0  0  0  0  0  # atno 17321 bound_to 7965
  139.5940  144.1438  152.2121 LP  0  0  0  0  0  0  0  0  0  0  0  0  # atno 17342 bound_to 10162
  140.0801  144.5707  150.7128 LP  0  0  0  0  0  0  0  0  0  0  0  0  # atno 17343 bound_to 10162
  156.7965  130.9275  151.3646 LP  0  0  0  0  0  0  0  0  0  0  0  0  # atno 17370 bound_to 10713
  157.6586  130.8946  149.9781 LP  0  0  0  0  0  0  0  0  0  0  0  0  # atno 17371 bound_to 10713
  139.8827  135.0045  156.6252 LP  0  0  0  0  0  0  0  0  0  0  0  0  # atno 17394 bound_to 11000
  140.7698  133.8748  155.8482 LP  0  0  0  0  0  0  0  0  0  0  0  0  # atno 17395 bound_to 11000

$$$$
