AV-unprocessed.smi:1793|AV-procd|sdf|7225|dock5
  -GOLD-   22720 8463D 1   1.00000     0.00000
 Structure written by MMmdl.
 46 48  0  0  0  0  0  0  0  0  1 V2000
  150.5997  136.6560  156.7598 C   0  0  0  0  0  0  0  0  0  0  0  0
  151.0071  136.7903  155.2854 C   0  0  1  0  0  0  0  0  0  0  0  0
  150.1753  135.8982  154.4794 N   0  0  0  0  0  0  0  0  0  0  0  0
  149.9832  134.5893  154.6968 C   0  0  0  0  0  0  0  0  0  0  0  0
  150.4964  133.9658  155.6257 O   0  0  0  0  0  0  0  0  0  0  0  0
  149.1531  134.0669  153.7791 N   0  0  0  0  0  0  0  0  0  0  0  0
  148.6373  132.7416  153.7125 C   0  0  0  0  0  0  0  0  0  0  0  0
  149.2712  131.6667  154.3827 C   0  0  0  0  0  0  0  0  0  0  0  0
  148.7655  130.3642  154.2315 C   0  0  0  0  0  0  0  0  0  0  0  0
  147.6497  130.1776  153.3991 C   0  0  0  0  0  0  0  0  0  0  0  0
  147.0439  131.1871  152.7432 N   0  0  0  0  0  0  0  0  0  0  0  0
  147.5098  132.4522  152.8904 C   0  0  0  0  0  0  0  0  0  0  0  0
  146.8223  133.4690  152.1872 N   0  0  0  0  0  0  0  0  0  0  0  0
  145.9184  133.1315  151.0926 C   0  0  0  0  0  0  0  0  0  0  0  0
  145.0996  134.3963  150.8507 C   0  0  0  0  0  0  0  0  0  0  0  0
  144.9442  134.9578  152.2606 C   0  0  0  0  0  0  0  0  0  0  0  0
  146.2614  134.5824  152.9477 C   0  0  0  0  0  0  0  0  0  0  0  0
  150.8706  138.2395  154.7794 C   0  0  2  0  0  0  0  0  0  0  0  0
  151.6071  139.2856  155.6177 C   0  0  0  0  0  0  0  0  0  0  0  0
  150.8552  140.5719  155.3166 C   0  0  0  0  0  0  0  0  0  0  0  0
  149.5247  140.0966  154.7246 C   0  0  0  0  0  0  0  0  0  0  0  0
  149.5263  138.6833  154.8761 O   0  0  0  0  0  0  0  0  0  0  0  0
  151.2180  137.2884  157.3976 H   0  0  0  0  0  0  0  0  0  0  0  0
  150.7161  135.6286  157.1068 H   0  0  0  0  0  0  0  0  0  0  0  0
  149.5595  136.9447  156.9139 H   0  0  0  0  0  0  0  0  0  0  0  0
  152.0563  136.5006  155.2052 H   0  0  0  0  0  0  0  0  0  0  0  0
  149.7073  136.3163  153.6887 H   0  0  0  0  0  0  0  0  0  0  0  0
  148.7464  134.7203  153.1260 H   0  0  0  0  0  0  0  0  0  0  0  0
  150.1506  131.8154  154.9904 H   0  0  0  0  0  0  0  0  0  0  0  0
  149.2303  129.5271  154.7308 H   0  0  0  0  0  0  0  0  0  0  0  0
  147.2360  129.1914  153.2501 H   0  0  0  0  0  0  0  0  0  0  0  0
  146.4682  132.8276  150.2016 H   0  0  0  0  0  0  0  0  0  0  0  0
  145.2508  132.3178  151.3792 H   0  0  0  0  0  0  0  0  0  0  0  0
  145.6636  135.0950  150.2311 H   0  0  0  0  0  0  0  0  0  0  0  0
  144.1463  134.1984  150.3600 H   0  0  0  0  0  0  0  0  0  0  0  0
  144.7508  136.0307  152.2734 H   0  0  0  0  0  0  0  0  0  0  0  0
  144.1135  134.4601  152.7626 H   0  0  0  0  0  0  0  0  0  0  0  0
  146.1053  134.3280  153.9969 H   0  0  0  0  0  0  0  0  0  0  0  0
  146.9543  135.4228  152.9017 H   0  0  0  0  0  0  0  0  0  0  0  0
  151.1908  138.3108  153.7378 H   0  0  0  0  0  0  0  0  0  0  0  0
  151.5152  139.0484  156.6786 H   0  0  0  0  0  0  0  0  0  0  0  0
  152.6690  139.3490  155.3785 H   0  0  0  0  0  0  0  0  0  0  0  0
  150.7115  141.1648  156.2203 H   0  0  0  0  0  0  0  0  0  0  0  0
  151.3951  141.1853  154.5946 H   0  0  0  0  0  0  0  0  0  0  0  0
  148.6630  140.5394  155.2246 H   0  0  0  0  0  0  0  0  0  0  0  0
  149.4669  140.3445  153.6640 H   0  0  0  0  0  0  0  0  0  0  0  0
  1  2  1  0  0  0  0
  1 23  1  0  0  0  0
  1 24  1  0  0  0  0
  1 25  1  0  0  0  0
  2  3  1  0  0  0  0
  2 18  1  0  0  0  0
  2 26  1  0  0  0  0
  3  4  1  0  0  0  0
  3 27  1  0  0  0  0
  4  5  2  0  0  0  0
  4  6  1  0  0  0  0
  6  7  1  0  0  0  0
  6 28  1  0  0  0  0
  7 12  1  0  0  0  0
  7  8  2  0  0  0  0
  8  9  1  0  0  0  0
  8 29  1  0  0  0  0
  9 10  2  0  0  0  0
  9 30  1  0  0  0  0
 10 11  1  0  0  0  0
 10 31  1  0  0  0  0
 11 12  2  0  0  0  0
 12 13  1  0  0  0  0
 13 17  1  0  0  0  0
 13 14  1  0  0  0  0
 14 15  1  0  0  0  0
 14 32  1  0  0  0  0
 14 33  1  0  0  0  0
 15 16  1  0  0  0  0
 15 34  1  0  0  0  0
 15 35  1  0  0  0  0
 16 17  1  0  0  0  0
 16 36  1  0  0  0  0
 16 37  1  0  0  0  0
 17 38  1  0  0  0  0
 17 39  1  0  0  0  0
 18 22  1  0  0  0  0
 18 19  1  0  0  0  0
 18 40  1  0  0  0  0
 19 20  1  0  0  0  0
 19 41  1  0  0  0  0
 19 42  1  0  0  0  0
 20 21  1  0  0  0  0
 20 43  1  0  0  0  0
 20 44  1  0  0  0  0
 21 22  1  0  0  0  0
 21 45  1  0  0  0  0
 21 46  1  0  0  0  0
M  END
> <s_m_source_file>
AV-unprocessed.smi

> <i_m_source_file_index>
1793

> <i_lp_mmshare_version>
43012

> <i_f3d_flags>
0

> <s_epik_input>
TzFbQ0gyXVtDSDJdW0NIMl1bQ0BIXTFbQ0BIXShbQ0gzXSlbTkhdQyg9TylbTkhdYzJbY0hdW2NIXVtjSF1uYzJOM1tDSDJdW0NIMl1bQ0gyXVtDSDJdMw==

> <s_epik_cmdline>
J2VwaWtfcHl0aG9uJywgJy1waCcsICc3LjAnLCAnLXRuJywgJzgnLCAnLW1hJywgJzIwMCcsICctbWV0YWxfYmluZGluZycsICctaW1hZScsICc8aW5maWxlLm1hZT4nLCAnLW9tYWUnLCAnPG91dGZpbGUubWFlPic=

> <r_lp_tautomer_probability>
1

> <r_epik_Ionization_Penalty>
0.0992086

> <r_epik_Ionization_Penalty_Charging>
0

> <r_epik_Ionization_Penalty_Neutral>
0.0992086

> <r_epik_State_Penalty>
0.0887141

> <r_epik_Charging_Adjusted_Penalty>
0.0887141

> <i_epik_Tot_Q>
0

> <i_epik_Tot_abs_Q>
0

> <r_epik_Metal_State_Penalty>
0.075945

> <b_epik_Metal_Only>
0

> <s_lp_Force_Field>
OPLS_2005

> <r_lp_Energy>
46.0011

> <b_lp_Chiralities_Consistent>
1

> <s_lp_Variant>
AV-unprocessed.smi:1793-2

> <Gold.Version>
5.8.1

> <Gold.Id.Protein>
6NUR|6NUR_protein|mol2

> <Gold.PLP.Fitness>
40.2318

> <Gold.PLP.PLP>
-34.7320

> <Gold.PLP.part.hbond>
-2.6873

> <Gold.PLP.part.metal>
0.0000

> <Gold.PLP.part.buried>
-2.9528

> <Gold.PLP.part.nonpolar>
-30.3876

> <Gold.PLP.part.repulsive>
0.9531

> <Gold.PLP.ligand.clash>
0.0000

> <Gold.PLP.ligand.torsion>
0.3576

> <Gold.PLP.Chemscore.Hbond>
1.9424

> <Gold.PLP.Chemscore.CHOScore>
0.0000

> <Gold.PLP.Chemscore.Metal>
0.0000

> <Gold.Chemscore.Hbonds>
donor molecule, donor type, donor heavy atom, donor atom, acceptor molecule, acceptor atom, score
      L1  H     3    27       P1  7948  1.00
      L1  H     6    28       P1  7948  0.93

> <Gold.PLP.Chemscore.Internal.Correction>
0.3878

> <Gold.Rescore>
     Score         DG    S(hbond)    S(metal)    S(lipo)     H(rot)  DE(clash)    DE(int)     intcor
     11.40     -14.32       1.09        0.00      74.02       1.36       0.02       2.89       ----

> <Gold.Chemscore.Fitness>
11.3992

> <Gold.Chemscore.DG>
-14.3169

> <Gold.Chemscore.ZeroCoef>
-5.4800

> <Gold.Chemscore.Hbond>
1.0940

> <Gold.Chemscore.Metal>
0.0000

> <Gold.Chemscore.Lipo>
74.0177

> <Gold.Chemscore.Internal_Hbond>
0.0000

> <Gold.Chemscore.DEClash>
0.0249

> <Gold.Chemscore.DEInternal>
2.8928

> <Gold.Chemscore.Rot>
1.3582

> <Gold.Chemscore.Internal.Correction>
   9.000000E+99

> <Gold.Chemscore.Hbonds>
donor molecule, donor type, donor heavy atom, donor atom, acceptor molecule, acceptor atom, score
      L1  H     3    27       P1  7948  0.38
      L1  H     6    28       P1  7948  0.20

> <Gold.Chemscore.Hbond.Weighted>
-3.6539

> <Gold.Chemscore.Metal.Weighted>
-0.0000

> <Gold.Chemscore.Lipo.Weighted>
-8.6601

> <Gold.Chemscore.Internal_Hbond.Weighted>
0.0000

> <Gold.Chemscore.DEClash.Weighted>
0.0249

> <Gold.Chemscore.DEInternal.Weighted>
2.8928

> <Gold.Chemscore.Rot.Weighted>
3.4771

> <Gold.Chemscore.Internal.Correction.Weighted>
   9.000000E+99

> <Gold.Protein.RotatedTorsions>
[ 6907 6896 6895 6894 ] final -160.53 input  -60.11 | X-H torsion
[ 7974 7965 7964 7962 ] final -110.87 input  175.53 | X-H torsion
[ 8008 7997 7996 7995 ] final -121.47 input   59.86 | X-H torsion
[ 10167 10162 10161 10158 ] final    5.94 input  -65.29 | X-H torsion
[ 10718 10713 10712 10709 ] final   21.82 input   66.30 | X-H torsion
[ 10763 10752 10751 10750 ] final   99.91 input  -60.55 | X-H torsion
[ 11005 11000 10999 10996 ] final   20.95 input  -57.11 | X-H torsion

> <Gold.Protein.ActiveResidues>
 VAL166  LYS551  ARG553  GLY616  TRP617  ASP618  TYR619  PRO620  LYS621  CYS622 
 ASP623  PHE694  ASN695  SER759  ASP760  ASP761  ALA762  ILE779  LEU786  VAL792 
 PHE793  MET794  SER795  GLU796  ALA797  LYS798  CYS799  TRP800  GLU811  SER814 

> <Gold.Protein.RotatedAtoms>
  151.3505  133.3927  159.2679 H   0  0  0  0  0  0  0  0  0  0  0  0  # atno 6907 bound_to 6896
  150.9805  134.9162  159.7852 H   0  0  0  0  0  0  0  0  0  0  0  0  # atno 6908 bound_to 6896
  152.5215  134.3469  159.9289 H   0  0  0  0  0  0  0  0  0  0  0  0  # atno 6909 bound_to 6896
  145.1629  140.8887  143.3580 H   0  0  0  0  0  0  0  0  0  0  0  0  # atno 7974 bound_to 7965
  155.1486  140.0403  157.2816 H   0  0  0  0  0  0  0  0  0  0  0  0  # atno 8008 bound_to 7997
  154.6420  140.2549  155.7284 H   0  0  0  0  0  0  0  0  0  0  0  0  # atno 8009 bound_to 7997
  156.2537  140.2853  156.0818 H   0  0  0  0  0  0  0  0  0  0  0  0  # atno 8010 bound_to 7997
  140.6455  143.7672  150.7492 H   0  0  0  0  0  0  0  0  0  0  0  0  # atno 10167 bound_to 10162
  157.1438  130.6644  149.5989 H   0  0  0  0  0  0  0  0  0  0  0  0  # atno 10718 bound_to 10713
  153.3073  135.4097  155.1305 H   0  0  0  0  0  0  0  0  0  0  0  0  # atno 10763 bound_to 10752
  154.8566  135.3556  154.5771 H   0  0  0  0  0  0  0  0  0  0  0  0  # atno 10764 bound_to 10752
  153.6198  135.7065  153.5373 H   0  0  0  0  0  0  0  0  0  0  0  0  # atno 10765 bound_to 10752
  140.3969  134.1759  155.7663 H   0  0  0  0  0  0  0  0  0  0  0  0  # atno 11005 bound_to 11000
  145.0312  139.3339  143.6024 LP  0  0  0  0  0  0  0  0  0  0  0  0  # atno 17320 bound_to 7965
  146.3480  139.9650  142.8713 LP  0  0  0  0  0  0  0  0  0  0  0  0  # atno 17321 bound_to 7965
  140.1312  143.4524  152.2253 LP  0  0  0  0  0  0  0  0  0  0  0  0  # atno 17342 bound_to 10162
  139.5665  144.7438  151.4007 LP  0  0  0  0  0  0  0  0  0  0  0  0  # atno 17343 bound_to 10162
  155.9783  130.4768  150.6650 LP  0  0  0  0  0  0  0  0  0  0  0  0  # atno 17370 bound_to 10713
  157.4283  131.0846  151.1063 LP  0  0  0  0  0  0  0  0  0  0  0  0  # atno 17371 bound_to 10713
  141.1871  133.8289  157.1046 LP  0  0  0  0  0  0  0  0  0  0  0  0  # atno 17394 bound_to 11000
  140.0365  134.9876  157.0880 LP  0  0  0  0  0  0  0  0  0  0  0  0  # atno 17395 bound_to 11000

$$$$
