AV-unprocessed.smi:3148|AV-procd|sdf|11995|dock4
  -GOLD-   2272017403D 1   1.00000     0.00000
 Structure written by MMmdl.
 35 37  0  0  0  0  0  0  0  0  2 V2000
  154.0484  141.2239  160.8446 C   0  0  0  0  0  0  0  0  0  0  0  0
  153.3546  141.0246  159.6175 O   0  0  0  0  0  0  0  0  0  0  0  0
  152.4986  142.0151  159.1822 C   0  0  0  0  0  0  0  0  0  0  0  0
  152.3789  143.2026  159.9226 C   0  0  0  0  0  0  0  0  0  0  0  0
  151.4919  144.1785  159.4287 C   0  0  0  0  0  0  0  0  0  0  0  0
  151.2796  145.5025  160.1311 C   0  0  0  0  0  0  0  0  0  0  0  0
  150.7972  143.9502  158.2863 N   0  3  0  0  0  0  0  0  0  0  0  0
  150.9577  142.7946  157.6245 C   0  0  0  0  0  0  0  0  0  0  0  0
  150.2319  142.6169  156.4605 N   0  0  0  0  0  0  0  0  0  0  0  0
  150.2977  141.4194  155.6325 C   0  0  2  0  0  0  0  0  0  0  0  0
  149.2973  141.4399  154.4694 C   0  0  0  0  0  0  0  0  0  0  0  0
  148.5046  140.1496  154.7119 C   0  0  1  0  0  0  0  0  0  0  0  0
  149.3468  138.8930  154.4530 C   0  0  0  0  0  0  0  0  0  0  0  0
  150.2798  138.8872  155.6637 C   0  0  0  0  0  0  0  0  0  0  0  0
  149.8513  140.1640  156.3998 C   0  0  2  0  0  0  0  0  0  0  0  0
  148.4592  140.1492  156.1277 O   0  0  0  0  0  0  0  0  0  0  0  0
  151.7867  141.8295  158.0462 N   0  0  0  0  0  0  0  0  0  0  0  0
  154.6731  140.3550  161.0511 H   0  0  0  0  0  0  0  0  0  0  0  0
  153.3567  141.3398  161.6805 H   0  0  0  0  0  0  0  0  0  0  0  0
  154.7013  142.0967  160.7971 H   0  0  0  0  0  0  0  0  0  0  0  0
  152.9462  143.3563  160.8292 H   0  0  0  0  0  0  0  0  0  0  0  0
  151.8019  145.5288  161.0879 H   0  0  0  0  0  0  0  0  0  0  0  0
  150.2185  145.6691  160.3187 H   0  0  0  0  0  0  0  0  0  0  0  0
  151.6537  146.3208  159.5153 H   0  0  0  0  0  0  0  0  0  0  0  0
  149.7405  143.4182  156.0920 H   0  0  0  0  0  0  0  0  0  0  0  0
  151.3207  141.2936  155.2754 H   0  0  0  0  0  0  0  0  0  0  0  0
  148.6326  142.3037  154.5223 H   0  0  0  0  0  0  0  0  0  0  0  0
  149.7867  141.4514  153.4950 H   0  0  0  0  0  0  0  0  0  0  0  0
  147.5262  140.1348  154.2310 H   0  0  0  0  0  0  0  0  0  0  0  0
  148.7223  137.9989  154.4476 H   0  0  0  0  0  0  0  0  0  0  0  0
  149.8823  138.9423  153.5044 H   0  0  0  0  0  0  0  0  0  0  0  0
  150.0984  138.0063  156.2808 H   0  0  0  0  0  0  0  0  0  0  0  0
  151.3345  138.8976  155.3869 H   0  0  0  0  0  0  0  0  0  0  0  0
  150.1089  140.1626  157.4596 H   0  0  0  0  0  0  0  0  0  0  0  0
  150.1597  144.6663  157.9374 H   0  0  0  0  0  0  0  0  0  0  0  0
  1  2  1  0  0  0  0
  1 18  1  0  0  0  0
  1 19  1  0  0  0  0
  1 20  1  0  0  0  0
  2  3  1  0  0  0  0
  3 17  1  0  0  0  0
  3  4  2  0  0  0  0
  4  5  1  0  0  0  0
  4 21  1  0  0  0  0
  5  6  1  0  0  0  0
  5  7  2  0  0  0  0
  6 22  1  0  0  0  0
  6 23  1  0  0  0  0
  6 24  1  0  0  0  0
  7  8  1  0  0  0  0
  7 35  1  0  0  0  0
  8  9  1  0  0  0  0
  8 17  2  0  0  0  0
  9 10  1  0  0  0  0
  9 25  1  0  0  0  0
 10 15  1  0  0  0  0
 10 11  1  0  0  0  0
 10 26  1  0  0  0  0
 11 12  1  0  0  0  0
 11 27  1  0  0  0  0
 11 28  1  0  0  0  0
 12 16  1  0  0  0  0
 12 13  1  0  0  0  0
 12 29  1  0  0  0  0
 13 14  1  0  0  0  0
 13 30  1  0  0  0  0
 13 31  1  0  0  0  0
 14 15  1  0  0  0  0
 14 32  1  0  0  0  0
 14 33  1  0  0  0  0
 15 16  1  0  0  0  0
 15 34  1  0  0  0  0
M  CHG  1   7   1
M  END
> <s_m_source_file>
AV-unprocessed.smi

> <i_m_source_file_index>
3148

> <i_lp_mmshare_version>
43012

> <i_f3d_flags>
0

> <s_epik_input>
W0NIM11PYzFbY0hdYyhbQ0gzXSluYyhuMSlbTkhdW0NASF0oW0NIMl1bQ0BASF0yMylbQ0BASF0oTzMpW0NIMl1bQ0gyXTI=

> <s_epik_cmdline>
J2VwaWtfcHl0aG9uJywgJy1waCcsICc3LjAnLCAnLXRuJywgJzgnLCAnLW1hJywgJzIwMCcsICctbWV0YWxfYmluZGluZycsICctaW1hZScsICc8aW5maWxlLm1hZT4nLCAnLW9tYWUnLCAnPG91dGZpbGUubWFlPic=

> <r_lp_tautomer_probability>
0.999985

> <r_epik_Ionization_Penalty>
1.09461

> <r_epik_Ionization_Penalty_Charging>
1.0946

> <r_epik_Ionization_Penalty_Neutral>
6.69406e-06

> <r_epik_State_Penalty>
1.15119

> <r_epik_Charging_Adjusted_Penalty>
2.24579

> <i_epik_Tot_Q>
1

> <i_epik_Tot_abs_Q>
1

> <r_epik_Metal_State_Penalty>
1.2392

> <b_epik_Metal_Only>
0

> <s_lp_Force_Field>
OPLS_2005

> <r_lp_Energy>
35.8621

> <b_lp_Chiralities_Consistent>
1

> <s_lp_Variant>
AV-unprocessed.smi:3148-5

> <Gold.Version>
5.8.1

> <Gold.Id.Protein>
6NUR|6NUR_protein|mol2

> <Gold.PLP.Fitness>
40.7659

> <Gold.PLP.PLP>
-34.8537

> <Gold.PLP.part.hbond>
-1.1022

> <Gold.PLP.part.metal>
0.0000

> <Gold.PLP.part.buried>
-3.5176

> <Gold.PLP.part.nonpolar>
-29.7531

> <Gold.PLP.part.repulsive>
0.1474

> <Gold.PLP.ligand.clash>
0.0657

> <Gold.PLP.ligand.torsion>
0.0206

> <Gold.PLP.Chemscore.Hbond>
2.0000

> <Gold.PLP.Chemscore.CHOScore>
0.0000

> <Gold.PLP.Chemscore.Metal>
0.0000

> <Gold.Chemscore.Hbonds>
donor molecule, donor type, donor heavy atom, donor atom, acceptor molecule, acceptor atom, score
      L1  H     9    25       P1  8028  2.00

> <Gold.PLP.Chemscore.Internal.Correction>
0.0190

> <Gold.Rescore>
     Score         DG    S(hbond)    S(metal)    S(lipo)     H(rot)  DE(clash)    DE(int)     intcor
     15.07     -15.35       1.00        0.00      83.00       1.24       0.12       0.16       ----

> <Gold.Chemscore.Fitness>
15.0652

> <Gold.Chemscore.DG>
-15.3514

> <Gold.Chemscore.ZeroCoef>
-5.4800

> <Gold.Chemscore.Hbond>
0.9966

> <Gold.Chemscore.Metal>
0.0000

> <Gold.Chemscore.Lipo>
82.9999

> <Gold.Chemscore.Internal_Hbond>
0.0000

> <Gold.Chemscore.DEClash>
0.1213

> <Gold.Chemscore.DEInternal>
0.1649

> <Gold.Chemscore.Rot>
1.2376

> <Gold.Chemscore.Internal.Correction>
   9.000000E+99

> <Gold.Chemscore.Hbonds>
donor molecule, donor type, donor heavy atom, donor atom, acceptor molecule, acceptor atom, score
      L1  H     9    25       P1  8028  0.99

> <Gold.Chemscore.Hbond.Weighted>
-3.3286

> <Gold.Chemscore.Metal.Weighted>
-0.0000

> <Gold.Chemscore.Lipo.Weighted>
-9.7110

> <Gold.Chemscore.Internal_Hbond.Weighted>
0.0000

> <Gold.Chemscore.DEClash.Weighted>
0.1213

> <Gold.Chemscore.DEInternal.Weighted>
0.1649

> <Gold.Chemscore.Rot.Weighted>
3.1681

> <Gold.Chemscore.Internal.Correction.Weighted>
   9.000000E+99

> <Gold.Protein.RotatedTorsions>
[ 6907 6896 6895 6894 ] final   71.08 input  -60.11 | X-H torsion
[ 7974 7965 7964 7962 ] final -176.09 input  175.53 | X-H torsion
[ 8008 7997 7996 7995 ] final -127.23 input   59.86 | X-H torsion
[ 10167 10162 10161 10158 ] final   91.73 input  -65.29 | X-H torsion
[ 10718 10713 10712 10709 ] final  -52.53 input   66.30 | X-H torsion
[ 10763 10752 10751 10750 ] final  -53.45 input  -60.55 | X-H torsion
[ 11005 11000 10999 10996 ] final  138.83 input  -57.11 | X-H torsion

> <Gold.Protein.ActiveResidues>
 VAL166  LYS551  ARG553  GLY616  TRP617  ASP618  TYR619  PRO620  LYS621  CYS622 
 ASP623  PHE694  ASN695  SER759  ASP760  ASP761  ALA762  ILE779  LEU786  VAL792 
 PHE793  MET794  SER795  GLU796  ALA797  LYS798  CYS799  TRP800  GLU811  SER814 

> <Gold.Protein.RotatedAtoms>
  152.4788  134.4773  159.9654 H   0  0  0  0  0  0  0  0  0  0  0  0  # atno 6907 bound_to 6896
  151.4783  133.3546  159.2842 H   0  0  0  0  0  0  0  0  0  0  0  0  # atno 6908 bound_to 6896
  150.8846  134.8268  159.7311 H   0  0  0  0  0  0  0  0  0  0  0  0  # atno 6909 bound_to 6896
  144.7127  140.1222  143.6404 H   0  0  0  0  0  0  0  0  0  0  0  0  # atno 7974 bound_to 7965
  155.2427  140.0429  157.2977 H   0  0  0  0  0  0  0  0  0  0  0  0  # atno 8008 bound_to 7997
  154.5818  140.2403  155.8013 H   0  0  0  0  0  0  0  0  0  0  0  0  # atno 8009 bound_to 7997
  156.2198  140.2973  155.9934 H   0  0  0  0  0  0  0  0  0  0  0  0  # atno 8010 bound_to 7997
  139.8346  144.6671  150.9358 H   0  0  0  0  0  0  0  0  0  0  0  0  # atno 10167 bound_to 10162
  156.1614  130.4149  149.9788 H   0  0  0  0  0  0  0  0  0  0  0  0  # atno 10718 bound_to 10713
  154.1590  135.6478  153.4981 H   0  0  0  0  0  0  0  0  0  0  0  0  # atno 10763 bound_to 10752
  153.0116  135.5356  154.6730 H   0  0  0  0  0  0  0  0  0  0  0  0  # atno 10764 bound_to 10752
  154.6038  135.2946  155.0478 H   0  0  0  0  0  0  0  0  0  0  0  0  # atno 10765 bound_to 10752
  140.0211  134.9396  157.0476 H   0  0  0  0  0  0  0  0  0  0  0  0  # atno 11005 bound_to 11000
  145.9361  139.2638  143.1296 LP  0  0  0  0  0  0  0  0  0  0  0  0  # atno 17320 bound_to 7965
  145.9472  140.8935  143.0277 LP  0  0  0  0  0  0  0  0  0  0  0  0  # atno 17321 bound_to 7965
  140.7804  143.3969  151.1215 LP  0  0  0  0  0  0  0  0  0  0  0  0  # atno 17342 bound_to 10162
  139.7620  143.8621  152.3102 LP  0  0  0  0  0  0  0  0  0  0  0  0  # atno 17343 bound_to 10162
  156.7616  130.9153  151.3641 LP  0  0  0  0  0  0  0  0  0  0  0  0  # atno 17370 bound_to 10713
  157.6735  130.9073  150.0095 LP  0  0  0  0  0  0  0  0  0  0  0  0  # atno 17371 bound_to 10713
  140.4385  134.1706  155.7172 LP  0  0  0  0  0  0  0  0  0  0  0  0  # atno 17394 bound_to 11000
  141.1774  133.8485  157.1374 LP  0  0  0  0  0  0  0  0  0  0  0  0  # atno 17395 bound_to 11000

$$$$
