AV-unprocessed.smi:661|AV-procd|sdf|3241|dock10
  -GOLD-   22720 0193D 1   1.00000     0.00000
 Structure written by MMmdl.
 30 31  0  0  0  0  0  0  0  0  1 V2000
  149.6362  139.5974  154.4933 C   0  0  0  0  0  0  0  0  0  0  0  0
  150.5581  140.5892  155.0169 N   0  0  0  0  0  0  0  0  0  0  0  0
  151.0194  140.1803  156.3333 C   0  0  0  0  0  0  0  0  0  0  0  0
  151.2608  141.3472  157.2401 C   0  0  0  0  0  0  0  0  0  0  0  0
  151.0409  142.6003  156.8410 N   0  0  0  0  0  0  0  0  0  0  0  0
  151.3888  143.3395  157.9548 C   0  0  0  0  0  0  0  0  0  0  0  0
  151.3781  144.7361  158.1706 C   0  0  0  0  0  0  0  0  0  0  0  0
  151.7861  145.2700  159.4106 C   0  0  0  0  0  0  0  0  0  0  0  0
  152.2102  144.4170  160.4501 C   0  0  0  0  0  0  0  0  0  0  0  0
  152.2280  143.0224  160.2562 C   0  0  0  0  0  0  0  0  0  0  0  0
  151.8187  142.4947  159.0170 C   0  0  0  0  0  0  0  0  0  0  0  0
  151.7201  141.2033  158.5095 N   0  0  0  0  0  0  0  0  0  0  0  0
  152.0570  139.9793  159.2210 C   0  0  0  0  0  0  0  0  0  0  0  0
  153.4590  140.0532  159.8410 C   0  0  0  0  0  0  0  0  0  0  0  0
  154.4073  139.5328  158.9354 O   0  0  0  0  0  0  0  0  0  0  0  0
  149.2802  139.9053  153.5101 H   0  0  0  0  0  0  0  0  0  0  0  0
  148.7712  139.4850  155.1479 H   0  0  0  0  0  0  0  0  0  0  0  0
  150.1250  138.6280  154.3894 H   0  0  0  0  0  0  0  0  0  0  0  0
  150.0747  141.4723  155.0996 H   0  0  0  0  0  0  0  0  0  0  0  0
  150.2717  139.5291  156.7883 H   0  0  0  0  0  0  0  0  0  0  0  0
  151.9350  139.5941  156.2508 H   0  0  0  0  0  0  0  0  0  0  0  0
  151.0554  145.3979  157.3808 H   0  0  0  0  0  0  0  0  0  0  0  0
  151.7741  146.3390  159.5644 H   0  0  0  0  0  0  0  0  0  0  0  0
  152.5220  144.8344  161.3965 H   0  0  0  0  0  0  0  0  0  0  0  0
  152.5532  142.3656  161.0495 H   0  0  0  0  0  0  0  0  0  0  0  0
  151.3097  139.8206  159.9997 H   0  0  0  0  0  0  0  0  0  0  0  0
  151.9801  139.1266  158.5471 H   0  0  0  0  0  0  0  0  0  0  0  0
  153.7254  141.0827  160.0805 H   0  0  0  0  0  0  0  0  0  0  0  0
  153.5028  139.4804  160.7678 H   0  0  0  0  0  0  0  0  0  0  0  0
  154.2379  138.6101  158.8211 H   0  0  0  0  0  0  0  0  0  0  0  0
  1  2  1  0  0  0  0
  1 16  1  0  0  0  0
  1 17  1  0  0  0  0
  1 18  1  0  0  0  0
  2  3  1  0  0  0  0
  2 19  1  0  0  0  0
  3  4  1  0  0  0  0
  3 20  1  0  0  0  0
  3 21  1  0  0  0  0
  4 12  1  0  0  0  0
  4  5  2  0  0  0  0
  5  6  1  0  0  0  0
  6 11  2  0  0  0  0
  6  7  1  0  0  0  0
  7  8  2  0  0  0  0
  7 22  1  0  0  0  0
  8  9  1  0  0  0  0
  8 23  1  0  0  0  0
  9 10  2  0  0  0  0
  9 24  1  0  0  0  0
 10 11  1  0  0  0  0
 10 25  1  0  0  0  0
 11 12  1  0  0  0  0
 12 13  1  0  0  0  0
 13 14  1  0  0  0  0
 13 26  1  0  0  0  0
 13 27  1  0  0  0  0
 14 15  1  0  0  0  0
 14 28  1  0  0  0  0
 14 29  1  0  0  0  0
 15 30  1  0  0  0  0
M  END
> <s_m_source_file>
AV-unprocessed.smi

> <i_m_source_file_index>
661

> <i_lp_mmshare_version>
43012

> <i_f3d_flags>
0

> <s_epik_input>
W0NIM11bTkhdW0NIMl1jKG4xKW4oW0NIMl1bQ0gyXVtPSF0pYyhjMTIpW2NIXVtjSF1bY0hdW2NIXTI=

> <s_epik_cmdline>
J2VwaWtfcHl0aG9uJywgJy1waCcsICc3LjAnLCAnLXRuJywgJzgnLCAnLW1hJywgJzIwMCcsICctbWV0YWxfYmluZGluZycsICctaW1hZScsICc8aW5maWxlLm1hZT4nLCAnLW9tYWUnLCAnPG91dGZpbGUubWFlPic=

> <r_epik_Ionization_Penalty>
1.98932

> <r_epik_Ionization_Penalty_Charging>
0

> <r_epik_Ionization_Penalty_Neutral>
1.98932

> <r_epik_State_Penalty>
1.95598

> <r_epik_Charging_Adjusted_Penalty>
1.95598

> <i_epik_Tot_Q>
0

> <i_epik_Tot_abs_Q>
0

> <r_epik_Metal_State_Penalty>
1.80219

> <b_epik_Metal_Only>
0

> <s_lp_Force_Field>
OPLS_2005

> <r_lp_Energy>
9.98392

> <b_lp_Chiralities_Consistent>
1

> <s_lp_Variant>
AV-unprocessed.smi:661-2

> <Gold.Version>
5.8.1

> <Gold.Id.Protein>
6NUR|6NUR_protein|mol2

> <Gold.PLP.Fitness>
41.2643

> <Gold.PLP.PLP>
-36.3364

> <Gold.PLP.part.hbond>
-2.0000

> <Gold.PLP.part.metal>
0.0000

> <Gold.PLP.part.buried>
-4.9095

> <Gold.PLP.part.nonpolar>
-29.5047

> <Gold.PLP.part.repulsive>
0.1121

> <Gold.PLP.ligand.clash>
0.0000

> <Gold.PLP.ligand.torsion>
0.5014

> <Gold.PLP.Chemscore.Hbond>
1.9760

> <Gold.PLP.Chemscore.CHOScore>
0.0000

> <Gold.PLP.Chemscore.Metal>
0.0000

> <Gold.Chemscore.Hbonds>
donor molecule, donor type, donor heavy atom, donor atom, acceptor molecule, acceptor atom, score
      P1  H  7989  7998       L1     2  0.96
      P1  H  7997  8010       L1    15  1.00

> <Gold.PLP.Chemscore.Internal.Correction>
0.0027

> <Gold.Rescore>
     Score         DG    S(hbond)    S(metal)    S(lipo)     H(rot)  DE(clash)    DE(int)     intcor
     14.58     -15.22       1.29        0.00      96.74       2.30       0.11       0.53       ----

> <Gold.Chemscore.Fitness>
14.5771

> <Gold.Chemscore.DG>
-15.2178

> <Gold.Chemscore.ZeroCoef>
-5.4800

> <Gold.Chemscore.Hbond>
1.2920

> <Gold.Chemscore.Metal>
0.0000

> <Gold.Chemscore.Lipo>
96.7402

> <Gold.Chemscore.Internal_Hbond>
0.0000

> <Gold.Chemscore.DEClash>
0.1087

> <Gold.Chemscore.DEInternal>
0.5320

> <Gold.Chemscore.Rot>
2.3031

> <Gold.Chemscore.Internal.Correction>
   9.000000E+99

> <Gold.Chemscore.Hbonds>
donor molecule, donor type, donor heavy atom, donor atom, acceptor molecule, acceptor atom, score
      P1  H  7989  7998       L1     2  0.07
      P1  H  7997  8010       L1    15  0.40

> <Gold.Chemscore.Hbond.Weighted>
-4.3152

> <Gold.Chemscore.Metal.Weighted>
-0.0000

> <Gold.Chemscore.Lipo.Weighted>
-11.3186

> <Gold.Chemscore.Internal_Hbond.Weighted>
0.0000

> <Gold.Chemscore.DEClash.Weighted>
0.1087

> <Gold.Chemscore.DEInternal.Weighted>
0.5320

> <Gold.Chemscore.Rot.Weighted>
5.8960

> <Gold.Chemscore.Internal.Correction.Weighted>
   9.000000E+99

> <Gold.Protein.RotatedTorsions>
[ 6907 6896 6895 6894 ] final   22.64 input  -60.11 | X-H torsion
[ 7974 7965 7964 7962 ] final   21.89 input  175.53 | X-H torsion
[ 8008 7997 7996 7995 ] final    0.42 input   59.86 | X-H torsion
[ 10167 10162 10161 10158 ] final  -58.15 input  -65.29 | X-H torsion
[ 10718 10713 10712 10709 ] final  -84.38 input   66.30 | X-H torsion
[ 10763 10752 10751 10750 ] final  -37.16 input  -60.55 | X-H torsion
[ 11005 11000 10999 10996 ] final   -6.13 input  -57.11 | X-H torsion

> <Gold.Protein.ActiveResidues>
 VAL166  LYS551  ARG553  GLY616  TRP617  ASP618  TYR619  PRO620  LYS621  CYS622 
 ASP623  PHE694  ASN695  SER759  ASP760  ASP761  ALA762  ILE779  LEU786  VAL792 
 PHE793  MET794  SER795  GLU796  ALA797  LYS798  CYS799  TRP800  GLU811  SER814 

> <Gold.Protein.RotatedAtoms>
  151.9302  135.0260  160.0528 H   0  0  0  0  0  0  0  0  0  0  0  0  # atno 6907 bound_to 6896
  152.2125  133.4917  159.5126 H   0  0  0  0  0  0  0  0  0  0  0  0  # atno 6908 bound_to 6896
  150.6979  134.1365  159.4132 H   0  0  0  0  0  0  0  0  0  0  0  0  # atno 6909 bound_to 6896
  146.2052  139.7962  142.8731 H   0  0  0  0  0  0  0  0  0  0  0  0  # atno 7974 bound_to 7965
  154.6679  140.2605  155.7038 H   0  0  0  0  0  0  0  0  0  0  0  0  # atno 8008 bound_to 7997
  156.2646  140.2835  156.1099 H   0  0  0  0  0  0  0  0  0  0  0  0  # atno 8009 bound_to 7997
  155.1211  140.0377  157.2740 H   0  0  0  0  0  0  0  0  0  0  0  0  # atno 8010 bound_to 7997
  140.6215  143.2421  151.5469 H   0  0  0  0  0  0  0  0  0  0  0  0  # atno 10167 bound_to 10162
  156.0007  130.4696  150.4401 H   0  0  0  0  0  0  0  0  0  0  0  0  # atno 10718 bound_to 10713
  153.8917  135.6811  153.4760 H   0  0  0  0  0  0  0  0  0  0  0  0  # atno 10763 bound_to 10752
  153.1177  135.4754  154.9141 H   0  0  0  0  0  0  0  0  0  0  0  0  # atno 10764 bound_to 10752
  154.7619  135.3213  154.8315 H   0  0  0  0  0  0  0  0  0  0  0  0  # atno 10765 bound_to 10752
  140.6987  133.9008  155.8668 H   0  0  0  0  0  0  0  0  0  0  0  0  # atno 11005 bound_to 11000
  145.3345  141.0274  143.3428 LP  0  0  0  0  0  0  0  0  0  0  0  0  # atno 17320 bound_to 7965
  144.8775  139.4950  143.6738 LP  0  0  0  0  0  0  0  0  0  0  0  0  # atno 17321 bound_to 7965
  139.5442  144.2564  152.1411 LP  0  0  0  0  0  0  0  0  0  0  0  0  # atno 17342 bound_to 10162
  140.1786  144.4867  150.6541 LP  0  0  0  0  0  0  0  0  0  0  0  0  # atno 17343 bound_to 10162
  157.2443  131.0532  151.2418 LP  0  0  0  0  0  0  0  0  0  0  0  0  # atno 17370 bound_to 10713
  157.3590  130.7121  149.6489 LP  0  0  0  0  0  0  0  0  0  0  0  0  # atno 17371 bound_to 10713
  141.0182  134.0926  157.4149 LP  0  0  0  0  0  0  0  0  0  0  0  0  # atno 17394 bound_to 11000
  139.8903  135.0111  156.6727 LP  0  0  0  0  0  0  0  0  0  0  0  0  # atno 17395 bound_to 11000

$$$$
