AV-unprocessed.smi:1809|AV-procd|sdf|7327|dock7
  -GOLD-   22720 8583D 1   1.00000     0.00000
 Structure written by MMmdl.
 39 41  0  0  0  0  0  0  0  0  3 V2000
  145.4316  135.0811  162.9041 C   0  0  0  0  0  0  0  0  0  0  0  0
  146.5264  135.7525  162.1485 C   0  0  0  0  0  0  0  0  0  0  0  0
  146.6331  137.0805  162.0576 N   0  0  0  0  0  0  0  0  0  0  0  0
  147.7320  137.4661  161.3034 N   0  0  0  0  0  0  0  0  0  0  0  0
  148.4452  136.4276  160.8446 C   0  0  0  0  0  0  0  0  0  0  0  0
  149.5445  136.5862  160.0890 N   0  5  0  0  0  0  0  0  0  0  0  0
  149.4898  137.3361  158.9660 C   0  0  0  0  0  0  0  0  0  0  0  0
  149.1925  136.9435  157.8354 O   0  0  0  0  0  0  0  0  0  0  0  0
  149.8001  138.6230  159.1632 N   0  0  0  0  0  0  0  0  0  0  0  0
  149.8383  139.6403  158.1227 C   0  0  0  0  0  0  0  0  0  0  0  0
  151.2923  140.0082  157.7702 C   0  0  2  0  0  0  0  0  0  0  0  0
  152.0678  140.5938  158.9748 C   0  0  0  0  0  0  0  0  0  0  0  0
  151.6065  141.9741  159.2149 N   0  3  1  0  0  0  0  0  0  0  0  0
  152.2066  142.7238  160.3315 C   0  0  0  0  0  0  0  0  0  0  0  0
  152.0112  144.2079  159.9621 C   0  0  0  0  0  0  0  0  0  0  0  0
  151.4457  144.2113  158.5303 C   0  0  0  0  0  0  0  0  0  0  0  0
  151.7743  142.8101  158.0243 C   0  0  2  0  0  0  0  0  0  0  0  0
  150.9223  142.2375  156.8853 C   0  0  0  0  0  0  0  0  0  0  0  0
  151.3597  140.8975  156.6438 O   0  0  0  0  0  0  0  0  0  0  0  0
  147.7839  134.8602  161.3094 S   0  0  0  0  0  0  0  0  0  0  0  0
  145.6720  135.0601  163.9671 H   0  0  0  0  0  0  0  0  0  0  0  0
  145.3034  134.0570  162.5530 H   0  0  0  0  0  0  0  0  0  0  0  0
  144.4921  135.6167  162.7658 H   0  0  0  0  0  0  0  0  0  0  0  0
  150.0391  138.9094  160.1017 H   0  0  0  0  0  0  0  0  0  0  0  0
  149.2980  139.2860  157.2442 H   0  0  0  0  0  0  0  0  0  0  0  0
  149.3095  140.5258  158.4785 H   0  0  0  0  0  0  0  0  0  0  0  0
  151.7943  139.0881  157.4681 H   0  0  0  0  0  0  0  0  0  0  0  0
  151.9167  139.9867  159.8681 H   0  0  0  0  0  0  0  0  0  0  0  0
  153.1385  140.5981  158.7660 H   0  0  0  0  0  0  0  0  0  0  0  0
  151.7337  142.4609  161.2779 H   0  0  0  0  0  0  0  0  0  0  0  0
  153.2705  142.4934  160.4065 H   0  0  0  0  0  0  0  0  0  0  0  0
  151.3288  144.7079  160.6502 H   0  0  0  0  0  0  0  0  0  0  0  0
  152.9652  144.7348  160.0047 H   0  0  0  0  0  0  0  0  0  0  0  0
  150.3649  144.3581  158.5589 H   0  0  0  0  0  0  0  0  0  0  0  0
  151.8754  144.9956  157.9064 H   0  0  0  0  0  0  0  0  0  0  0  0
  152.8256  142.7896  157.7284 H   0  0  0  0  0  0  0  0  0  0  0  0
  149.8590  142.2648  157.1245 H   0  0  0  0  0  0  0  0  0  0  0  0
  151.0592  142.8238  155.9765 H   0  0  0  0  0  0  0  0  0  0  0  0
  150.6136  141.9325  159.3968 H   0  0  0  0  0  0  0  0  0  0  0  0
  1  2  1  0  0  0  0
  1 21  1  0  0  0  0
  1 22  1  0  0  0  0
  1 23  1  0  0  0  0
  2 20  1  0  0  0  0
  2  3  2  0  0  0  0
  3  4  1  0  0  0  0
  4  5  2  0  0  0  0
  5  6  1  0  0  0  0
  5 20  1  0  0  0  0
  6  7  1  0  0  0  0
  7  8  2  0  0  0  0
  7  9  1  0  0  0  0
  9 10  1  0  0  0  0
  9 24  1  0  0  0  0
 10 11  1  0  0  0  0
 10 25  1  0  0  0  0
 10 26  1  0  0  0  0
 11 19  1  0  0  0  0
 11 12  1  0  0  0  0
 11 27  1  0  0  0  0
 12 13  1  0  0  0  0
 12 28  1  0  0  0  0
 12 29  1  0  0  0  0
 13 17  1  0  0  0  0
 13 14  1  0  0  0  0
 13 39  1  0  0  0  0
 14 15  1  0  0  0  0
 14 30  1  0  0  0  0
 14 31  1  0  0  0  0
 15 16  1  0  0  0  0
 15 32  1  0  0  0  0
 15 33  1  0  0  0  0
 16 17  1  0  0  0  0
 16 34  1  0  0  0  0
 16 35  1  0  0  0  0
 17 18  1  0  0  0  0
 17 36  1  0  0  0  0
 18 19  1  0  0  0  0
 18 37  1  0  0  0  0
 18 38  1  0  0  0  0
M  CHG  1   6  -1
M  CHG  1  13   1
M  END
> <s_m_source_file>
AV-unprocessed.smi

> <i_m_source_file_index>
1809

> <i_lp_mmshare_version>
43012

> <i_f3d_flags>
0

> <s_epik_input>
W0NIM11jMW5uYyhzMSlbTkhdQyg9TylbTkhdW0NIMl1bQ0BIXShbQ0gyXTIpT1tDSDJdW0NAQEhdKE4yMylbQ0gyXVtDSDJdW0NIMl0z

> <s_epik_cmdline>
J2VwaWtfcHl0aG9uJywgJy1waCcsICc3LjAnLCAnLXRuJywgJzgnLCAnLW1hJywgJzIwMCcsICctbWV0YWxfYmluZGluZycsICctaW1hZScsICc8aW5maWxlLm1hZT4nLCAnLW9tYWUnLCAnPG91dGZpbGUubWFlPic=

> <r_lp_tautomer_probability>
1

> <r_epik_Ionization_Penalty>
3.2601

> <r_epik_Ionization_Penalty_Charging>
3.1406

> <r_epik_Ionization_Penalty_Neutral>
0.119497

> <r_epik_State_Penalty>
3.08894

> <r_epik_Charging_Adjusted_Penalty>
6.22954

> <i_epik_Tot_Q>
0

> <i_epik_Tot_abs_Q>
2

> <r_epik_Metal_State_Penalty>
0.510807

> <b_epik_Metal_Only>
1

> <s_lp_Force_Field>
OPLS_2005

> <r_lp_Energy>
31.1042

> <b_lp_Chiralities_Consistent>
1

> <s_lp_Variant>
AV-unprocessed.smi:1809-19

> <Gold.Version>
5.8.1

> <Gold.Id.Protein>
6NUR|6NUR_protein|mol2

> <Gold.PLP.Fitness>
41.8382

> <Gold.PLP.PLP>
-33.7626

> <Gold.PLP.part.hbond>
-3.0000

> <Gold.PLP.part.metal>
0.0000

> <Gold.PLP.part.buried>
-6.0715

> <Gold.PLP.part.nonpolar>
-26.0858

> <Gold.PLP.part.repulsive>
0.3352

> <Gold.PLP.ligand.clash>
0.0000

> <Gold.PLP.ligand.torsion>
1.3352

> <Gold.PLP.Chemscore.Hbond>
3.5720

> <Gold.PLP.Chemscore.CHOScore>
0.0000

> <Gold.PLP.Chemscore.Metal>
0.0000

> <Gold.Chemscore.Hbonds>
donor molecule, donor type, donor heavy atom, donor atom, acceptor molecule, acceptor atom, score
      P1  H  6896  6909       L1     6  0.69
      P1  H  6931  6943       L1     4  0.62
      P1  H  6934  6947       L1     4  0.64

> <Gold.PLP.Chemscore.Internal.Correction>
0.0301

> <Gold.Rescore>
     Score         DG    S(hbond)    S(metal)    S(lipo)     H(rot)  DE(clash)    DE(int)     intcor
     16.36     -17.78       1.78        0.00      83.14       1.32       0.02       1.40       ----

> <Gold.Chemscore.Fitness>
16.3616

> <Gold.Chemscore.DG>
-17.7786

> <Gold.Chemscore.ZeroCoef>
-5.4800

> <Gold.Chemscore.Hbond>
1.7849

> <Gold.Chemscore.Metal>
0.0000

> <Gold.Chemscore.Lipo>
83.1449

> <Gold.Chemscore.Internal_Hbond>
0.0000

> <Gold.Chemscore.DEClash>
0.0154

> <Gold.Chemscore.DEInternal>
1.4015

> <Gold.Chemscore.Rot>
1.3246

> <Gold.Chemscore.Internal.Correction>
   9.000000E+99

> <Gold.Chemscore.Hbonds>
donor molecule, donor type, donor heavy atom, donor atom, acceptor molecule, acceptor atom, score
      P1  H  6896  6909       L1     6  0.22
      P1  H  6931  6943       L1     4  0.08
      P1  H  6934  6947       L1     4  0.11

> <Gold.Chemscore.Hbond.Weighted>
-5.9616

> <Gold.Chemscore.Metal.Weighted>
-0.0000

> <Gold.Chemscore.Lipo.Weighted>
-9.7279

> <Gold.Chemscore.Internal_Hbond.Weighted>
0.0000

> <Gold.Chemscore.DEClash.Weighted>
0.0154

> <Gold.Chemscore.DEInternal.Weighted>
1.4015

> <Gold.Chemscore.Rot.Weighted>
3.3910

> <Gold.Chemscore.Internal.Correction.Weighted>
   9.000000E+99

> <Gold.Protein.RotatedTorsions>
[ 6907 6896 6895 6894 ] final   56.73 input  -60.11 | X-H torsion
[ 7974 7965 7964 7962 ] final   69.82 input  175.53 | X-H torsion
[ 8008 7997 7996 7995 ] final  -66.86 input   59.86 | X-H torsion
[ 10167 10162 10161 10158 ] final  121.94 input  -65.29 | X-H torsion
[ 10718 10713 10712 10709 ] final -149.17 input   66.30 | X-H torsion
[ 10763 10752 10751 10750 ] final  163.55 input  -60.55 | X-H torsion
[ 11005 11000 10999 10996 ] final  -42.27 input  -57.11 | X-H torsion

> <Gold.Protein.ActiveResidues>
 VAL166  LYS551  ARG553  GLY616  TRP617  ASP618  TYR619  PRO620  LYS621  CYS622 
 ASP623  PHE694  ASN695  SER759  ASP760  ASP761  ALA762  ILE779  LEU786  VAL792 
 PHE793  MET794  SER795  GLU796  ALA797  LYS798  CYS799  TRP800  GLU811  SER814 

> <Gold.Protein.RotatedAtoms>
  152.3664  134.6798  160.0190 H   0  0  0  0  0  0  0  0  0  0  0  0  # atno 6907 bound_to 6896
  151.7105  133.3307  159.3297 H   0  0  0  0  0  0  0  0  0  0  0  0  # atno 6908 bound_to 6896
  150.7641  134.6471  159.6313 H   0  0  0  0  0  0  0  0  0  0  0  0  # atno 6909 bound_to 6896
  145.7857  139.2909  143.1239 H   0  0  0  0  0  0  0  0  0  0  0  0  # atno 7974 bound_to 7965
  154.4762  140.0904  156.7267 H   0  0  0  0  0  0  0  0  0  0  0  0  # atno 8008 bound_to 7997
  155.4591  140.3460  155.4292 H   0  0  0  0  0  0  0  0  0  0  0  0  # atno 8009 bound_to 7997
  156.1119  140.1450  156.9314 H   0  0  0  0  0  0  0  0  0  0  0  0  # atno 8010 bound_to 7997
  139.5889  144.7017  151.3340 H   0  0  0  0  0  0  0  0  0  0  0  0  # atno 10167 bound_to 10162
  156.4297  130.8069  151.2296 H   0  0  0  0  0  0  0  0  0  0  0  0  # atno 10718 bound_to 10713
  154.2954  135.2760  155.2636 H   0  0  0  0  0  0  0  0  0  0  0  0  # atno 10763 bound_to 10752
  154.5096  135.5786  153.6598 H   0  0  0  0  0  0  0  0  0  0  0  0  # atno 10764 bound_to 10752
  152.9908  135.6178  154.3121 H   0  0  0  0  0  0  0  0  0  0  0  0  # atno 10765 bound_to 10752
  141.0304  133.6822  156.2572 H   0  0  0  0  0  0  0  0  0  0  0  0  # atno 11005 bound_to 11000
  146.0028  140.8505  143.0010 LP  0  0  0  0  0  0  0  0  0  0  0  0  # atno 17320 bound_to 7965
  144.6789  140.2377  143.7347 LP  0  0  0  0  0  0  0  0  0  0  0  0  # atno 17321 bound_to 7965
  140.7155  143.7276  150.7648 LP  0  0  0  0  0  0  0  0  0  0  0  0  # atno 17342 bound_to 10162
  140.0827  143.4953  152.2521 LP  0  0  0  0  0  0  0  0  0  0  0  0  # atno 17343 bound_to 10162
  157.7508  131.0202  150.3699 LP  0  0  0  0  0  0  0  0  0  0  0  0  # atno 17370 bound_to 10713
  156.4034  130.3920  149.6943 LP  0  0  0  0  0  0  0  0  0  0  0  0  # atno 17371 bound_to 10713
  140.6416  134.5160  157.5570 LP  0  0  0  0  0  0  0  0  0  0  0  0  # atno 17394 bound_to 11000
  139.9204  134.8160  156.1230 LP  0  0  0  0  0  0  0  0  0  0  0  0  # atno 17395 bound_to 11000

$$$$
