AV-unprocessed.smi:2748|AV-procd|sdf|10583|dock5
  -GOLD-   2272015 33D 1   1.00000     0.00000
 Structure written by MMmdl.
 29 31  0  0  0  0  0  0  0  0  2 V2000
  151.7487  136.8667  155.9893 O   0  0  0  0  0  0  0  0  0  0  0  0
  152.1611  137.3778  157.0295 C   0  0  0  0  0  0  0  0  0  0  0  0
  153.4318  137.8606  157.1595 N   0  5  0  0  0  0  0  0  0  0  0  0
  153.9092  138.4305  158.3091 C   0  0  0  0  0  0  0  0  0  0  0  0
  155.0569  138.8674  158.4001 O   0  0  0  0  0  0  0  0  0  0  0  0
  153.0818  138.5179  159.3922 N   0  0  0  0  0  0  0  0  0  0  0  0
  153.5101  139.1151  160.6642 C   0  0  0  0  0  0  0  0  0  0  0  0
  154.1044  140.5218  160.4626 C   0  0  2  0  0  0  0  0  0  0  0  0
  153.8193  141.4652  161.6616 C   0  0  0  0  0  0  0  0  0  0  0  0
  153.0580  142.5663  161.0107 C   0  0  0  0  0  0  0  0  0  0  0  0
  152.5227  143.7247  161.5992 C   0  0  0  0  0  0  0  0  0  0  0  0
  151.8298  144.6284  160.7638 C   0  0  0  0  0  0  0  0  0  0  0  0
  151.6866  144.3607  159.3809 C   0  0  0  0  0  0  0  0  0  0  0  0
  152.2347  143.1868  158.8161 C   0  0  0  0  0  0  0  0  0  0  0  0
  152.9226  142.2974  159.6605 C   0  0  0  0  0  0  0  0  0  0  0  0
  153.5173  141.1245  159.2924 O   0  0  0  0  0  0  0  0  0  0  0  0
  151.7620  138.0431  159.3090 C   0  0  0  0  0  0  0  0  0  0  0  0
  151.2729  137.4839  158.1852 C   0  0  0  0  0  0  0  0  0  0  0  0
  149.6444  136.9115  158.1110 Cl  0  0  0  0  0  0  0  0  0  0  0  0
  152.6719  139.1661  161.3609 H   0  0  0  0  0  0  0  0  0  0  0  0
  154.2425  138.4682  161.1504 H   0  0  0  0  0  0  0  0  0  0  0  0
  155.1821  140.4572  160.3067 H   0  0  0  0  0  0  0  0  0  0  0  0
  153.2159  140.9941  162.4383 H   0  0  0  0  0  0  0  0  0  0  0  0
  154.7383  141.8460  162.1078 H   0  0  0  0  0  0  0  0  0  0  0  0
  152.6367  143.9175  162.6558 H   0  0  0  0  0  0  0  0  0  0  0  0
  151.4060  145.5293  161.1825 H   0  0  0  0  0  0  0  0  0  0  0  0
  151.1543  145.0592  158.7522 H   0  0  0  0  0  0  0  0  0  0  0  0
  152.1291  142.9777  157.7619 H   0  0  0  0  0  0  0  0  0  0  0  0
  151.1745  138.1671  160.2069 H   0  0  0  0  0  0  0  0  0  0  0  0
  1  2  2  0  0  0  0
  2 18  1  0  0  0  0
  2  3  1  0  0  0  0
  3  4  1  0  0  0  0
  4  5  2  0  0  0  0
  4  6  1  0  0  0  0
  6  7  1  0  0  0  0
  6 17  1  0  0  0  0
  7  8  1  0  0  0  0
  7 20  1  0  0  0  0
  7 21  1  0  0  0  0
  8 16  1  0  0  0  0
  8  9  1  0  0  0  0
  8 22  1  0  0  0  0
  9 10  1  0  0  0  0
  9 23  1  0  0  0  0
  9 24  1  0  0  0  0
 10 15  2  0  0  0  0
 10 11  1  0  0  0  0
 11 12  2  0  0  0  0
 11 25  1  0  0  0  0
 12 13  1  0  0  0  0
 12 26  1  0  0  0  0
 13 14  2  0  0  0  0
 13 27  1  0  0  0  0
 14 15  1  0  0  0  0
 14 28  1  0  0  0  0
 15 16  1  0  0  0  0
 17 18  2  0  0  0  0
 17 29  1  0  0  0  0
 18 19  1  0  0  0  0
M  CHG  1   3  -1
M  END
> <s_m_source_file>
AV-unprocessed.smi

> <i_m_source_file_index>
2748

> <i_lp_mmshare_version>
43012

> <i_f3d_flags>
0

> <s_epik_input>
Tz1jMVtuSF1jKD1PKW4oW2NIXWMxQ2wpW0NIMl1bQ0BIXShbQ0gyXTIpT2MoYzIzKVtjSF1bY0hdW2NIXVtjSF0z

> <s_epik_cmdline>
J2VwaWtfcHl0aG9uJywgJy1waCcsICc3LjAnLCAnLXRuJywgJzgnLCAnLW1hJywgJzIwMCcsICctbWV0YWxfYmluZGluZycsICctaW1hZScsICc8aW5maWxlLm1hZT4nLCAnLW9tYWUnLCAnPG91dGZpbGUubWFlPic=

> <r_lp_tautomer_probability>
1

> <r_epik_Ionization_Penalty>
2.00749

> <r_epik_Ionization_Penalty_Charging>
2.26533e-08

> <r_epik_Ionization_Penalty_Neutral>
2.00749

> <r_epik_State_Penalty>
2.13675

> <r_epik_Charging_Adjusted_Penalty>
2.13675

> <i_epik_Tot_Q>
-1

> <i_epik_Tot_abs_Q>
1

> <r_epik_Metal_State_Penalty>
0.0208594

> <b_epik_Metal_Only>
0

> <s_lp_Force_Field>
OPLS_2005

> <r_lp_Energy>
29.9215

> <b_lp_Chiralities_Consistent>
1

> <s_lp_Variant>
AV-unprocessed.smi:2748-3

> <Gold.Version>
5.8.1

> <Gold.Id.Protein>
6NUR|6NUR_protein|mol2

> <Gold.PLP.Fitness>
43.9103

> <Gold.PLP.PLP>
-38.8558

> <Gold.PLP.part.hbond>
-2.1022

> <Gold.PLP.part.metal>
0.0000

> <Gold.PLP.part.buried>
-4.1920

> <Gold.PLP.part.nonpolar>
-32.4523

> <Gold.PLP.part.repulsive>
0.0058

> <Gold.PLP.ligand.clash>
0.0000

> <Gold.PLP.ligand.torsion>
0.4733

> <Gold.PLP.Chemscore.Hbond>
2.0000

> <Gold.PLP.Chemscore.CHOScore>
0.0000

> <Gold.PLP.Chemscore.Metal>
0.0000

> <Gold.Chemscore.Hbonds>
donor molecule, donor type, donor heavy atom, donor atom, acceptor molecule, acceptor atom, score
      P1  H  7997  8009       L1     5  1.00
      P1  H 10752 10764       L1     1  0.65

> <Gold.PLP.Chemscore.Internal.Correction>
0.0011

> <Gold.Rescore>
     Score         DG    S(hbond)    S(metal)    S(lipo)     H(rot)  DE(clash)    DE(int)     intcor
     17.61     -21.07       1.87        0.00     108.24       1.29       0.17       3.30       ----

> <Gold.Chemscore.Fitness>
17.6082

> <Gold.Chemscore.DG>
-21.0740

> <Gold.Chemscore.ZeroCoef>
-5.4800

> <Gold.Chemscore.Hbond>
1.8693

> <Gold.Chemscore.Metal>
0.0000

> <Gold.Chemscore.Lipo>
108.2350

> <Gold.Chemscore.Internal_Hbond>
0.0000

> <Gold.Chemscore.DEClash>
0.1682

> <Gold.Chemscore.DEInternal>
3.2976

> <Gold.Chemscore.Rot>
1.2942

> <Gold.Chemscore.Internal.Correction>
   9.000000E+99

> <Gold.Chemscore.Hbonds>
donor molecule, donor type, donor heavy atom, donor atom, acceptor molecule, acceptor atom, score
      P1  H  7997  8009       L1     5  0.48
      P1  H 10752 10764       L1     1  0.58

> <Gold.Chemscore.Hbond.Weighted>
-6.2436

> <Gold.Chemscore.Metal.Weighted>
-0.0000

> <Gold.Chemscore.Lipo.Weighted>
-12.6635

> <Gold.Chemscore.Internal_Hbond.Weighted>
0.0000

> <Gold.Chemscore.DEClash.Weighted>
0.1682

> <Gold.Chemscore.DEInternal.Weighted>
3.2976

> <Gold.Chemscore.Rot.Weighted>
3.3131

> <Gold.Chemscore.Internal.Correction.Weighted>
   9.000000E+99

> <Gold.Protein.RotatedTorsions>
[ 6907 6896 6895 6894 ] final  -13.30 input  -60.11 | X-H torsion
[ 7974 7965 7964 7962 ] final -173.30 input  175.53 | X-H torsion
[ 8008 7997 7996 7995 ] final  117.93 input   59.86 | X-H torsion
[ 10167 10162 10161 10158 ] final  -61.08 input  -65.29 | X-H torsion
[ 10718 10713 10712 10709 ] final  -16.88 input   66.30 | X-H torsion
[ 10763 10752 10751 10750 ] final  -30.82 input  -60.55 | X-H torsion
[ 11005 11000 10999 10996 ] final   65.07 input  -57.11 | X-H torsion

> <Gold.Protein.ActiveResidues>
 VAL166  LYS551  ARG553  GLY616  TRP617  ASP618  TYR619  PRO620  LYS621  CYS622 
 ASP623  PHE694  ASN695  SER759  ASP760  ASP761  ALA762  ILE779  LEU786  VAL792 
 PHE793  MET794  SER795  GLU796  ALA797  LYS798  CYS799  TRP800  GLU811  SER814 

> <Gold.Protein.RotatedAtoms>
  151.3571  135.0896  159.9421 H   0  0  0  0  0  0  0  0  0  0  0  0  # atno 6907 bound_to 6896
  152.5172  133.9295  159.7584 H   0  0  0  0  0  0  0  0  0  0  0  0  # atno 6908 bound_to 6896
  150.9682  133.6318  159.2772 H   0  0  0  0  0  0  0  0  0  0  0  0  # atno 6909 bound_to 6896
  144.7139  140.1642  143.6373 H   0  0  0  0  0  0  0  0  0  0  0  0  # atno 7974 bound_to 7965
  156.2520  140.2886  156.0754 H   0  0  0  0  0  0  0  0  0  0  0  0  # atno 8008 bound_to 7997
  155.1624  140.0400  157.2863 H   0  0  0  0  0  0  0  0  0  0  0  0  # atno 8009 bound_to 7997
  154.6383  140.2516  155.7358 H   0  0  0  0  0  0  0  0  0  0  0  0  # atno 8010 bound_to 7997
  140.6029  143.2366  151.5887 H   0  0  0  0  0  0  0  0  0  0  0  0  # atno 10167 bound_to 10162
  156.5814  130.4775  149.6319 H   0  0  0  0  0  0  0  0  0  0  0  0  # atno 10718 bound_to 10713
  153.7872  135.6900  153.4878 H   0  0  0  0  0  0  0  0  0  0  0  0  # atno 10763 bound_to 10752
  153.1773  135.4520  154.9980 H   0  0  0  0  0  0  0  0  0  0  0  0  # atno 10764 bound_to 10752
  154.8058  135.3356  154.7371 H   0  0  0  0  0  0  0  0  0  0  0  0  # atno 10765 bound_to 10752
  139.9918  134.6580  156.0078 H   0  0  0  0  0  0  0  0  0  0  0  0  # atno 11005 bound_to 11000
  145.9002  139.2426  143.1498 LP  0  0  0  0  0  0  0  0  0  0  0  0  # atno 17320 bound_to 7965
  145.9818  140.8676  143.0111 LP  0  0  0  0  0  0  0  0  0  0  0  0  # atno 17321 bound_to 7965
  139.5304  144.2933  152.1134 LP  0  0  0  0  0  0  0  0  0  0  0  0  # atno 17342 bound_to 10162
  140.2117  144.4556  150.6382 LP  0  0  0  0  0  0  0  0  0  0  0  0  # atno 17343 bound_to 10162
  156.2629  130.6972  151.1746 LP  0  0  0  0  0  0  0  0  0  0  0  0  # atno 17370 bound_to 10713
  157.7326  131.0598  150.5622 LP  0  0  0  0  0  0  0  0  0  0  0  0  # atno 17371 bound_to 10713
  141.1572  133.6542  156.4199 LP  0  0  0  0  0  0  0  0  0  0  0  0  # atno 17394 bound_to 11000
  140.4894  134.6589  157.5204 LP  0  0  0  0  0  0  0  0  0  0  0  0  # atno 17395 bound_to 11000

$$$$
