AV-unprocessed.smi:720|AV-procd|sdf|3502|dock2
  -GOLD-   22720 0493D 1   1.00000     0.00000
 Structure written by MMmdl.
 46 48  0  0  0  0  0  0  0  0  1 V2000
  151.4426  143.6149  157.7156 C   0  0  0  0  0  0  0  0  0  0  0  0
  150.7478  142.4409  158.2301 N   0  0  0  0  0  0  0  0  0  0  0  0
  151.7308  141.3863  158.4404 C   0  0  0  0  0  0  0  0  0  0  0  0
  149.7249  141.9566  157.3015 C   0  0  0  0  0  0  0  0  0  0  0  0
  150.2931  141.4687  155.9515 C   0  0  0  0  0  0  0  0  0  0  0  0
  149.2759  140.9608  155.0467 N   0  0  0  0  0  0  0  0  0  0  0  0
  148.2729  141.6604  154.4046 C   0  0  0  0  0  0  0  0  0  0  0  0
  147.5758  140.7712  153.6372 C   0  0  0  0  0  0  0  0  0  0  0  0
  148.2465  139.5404  153.8737 C   0  0  0  0  0  0  0  0  0  0  0  0
  147.8099  138.3481  153.2435 N   0  0  0  0  0  0  0  0  0  0  0  0
  146.5512  137.8772  153.1486 C   0  0  0  0  0  0  0  0  0  0  0  0
  145.5595  138.4340  153.6161 O   0  0  0  0  0  0  0  0  0  0  0  0
  146.4466  136.7182  152.4739 N   0  0  0  0  0  0  0  0  0  0  0  0
  145.2332  135.9457  152.1929 C   0  0  1  0  0  0  0  0  0  0  0  0
  145.0632  135.7074  150.6762 C   0  0  0  0  0  0  0  0  0  0  0  0
  145.0106  134.1724  150.5669 C   0  0  1  0  0  0  0  0  0  0  0  0
  146.4096  133.5874  150.8392 C   0  0  0  0  0  0  0  0  0  0  0  0
  146.5654  133.7707  152.3606 C   0  0  0  0  0  0  0  0  0  0  0  0
  145.2596  134.4974  152.7481 C   0  0  2  0  0  0  0  0  0  0  0  0
  144.2573  133.7978  151.8362 C   0  0  0  0  0  0  0  0  0  0  0  0
  149.2730  139.6538  154.7047 N   0  0  0  0  0  0  0  0  0  0  0  0
  150.7756  144.4729  157.6608 H   0  0  0  0  0  0  0  0  0  0  0  0
  151.8550  143.4322  156.7227 H   0  0  0  0  0  0  0  0  0  0  0  0
  152.2616  143.8959  158.3789 H   0  0  0  0  0  0  0  0  0  0  0  0
  151.2578  140.4966  158.8575 H   0  0  0  0  0  0  0  0  0  0  0  0
  152.4975  141.7095  159.1454 H   0  0  0  0  0  0  0  0  0  0  0  0
  152.2213  141.1071  157.5065 H   0  0  0  0  0  0  0  0  0  0  0  0
  149.1002  141.1955  157.7714 H   0  0  0  0  0  0  0  0  0  0  0  0
  149.0630  142.7951  157.0804 H   0  0  0  0  0  0  0  0  0  0  0  0
  150.7749  142.3063  155.4461 H   0  0  0  0  0  0  0  0  0  0  0  0
  151.0694  140.7165  156.1026 H   0  0  0  0  0  0  0  0  0  0  0  0
  148.1389  142.7224  154.5481 H   0  0  0  0  0  0  0  0  0  0  0  0
  146.7222  140.9715  153.0067 H   0  0  0  0  0  0  0  0  0  0  0  0
  148.5306  137.7966  152.8020 H   0  0  0  0  0  0  0  0  0  0  0  0
  147.3052  136.3344  152.1060 H   0  0  0  0  0  0  0  0  0  0  0  0
  144.3574  136.4791  152.5678 H   0  0  0  0  0  0  0  0  0  0  0  0
  144.1300  136.1499  150.3253 H   0  0  0  0  0  0  0  0  0  0  0  0
  145.8710  136.1302  150.0770 H   0  0  0  0  0  0  0  0  0  0  0  0
  144.5604  133.8161  149.6400 H   0  0  0  0  0  0  0  0  0  0  0  0
  146.4503  132.5302  150.5744 H   0  0  0  0  0  0  0  0  0  0  0  0
  147.1883  134.1041  150.2771 H   0  0  0  0  0  0  0  0  0  0  0  0
  146.6192  132.7992  152.8536 H   0  0  0  0  0  0  0  0  0  0  0  0
  147.4682  134.3189  152.6296 H   0  0  0  0  0  0  0  0  0  0  0  0
  145.0273  134.4313  153.8114 H   0  0  0  0  0  0  0  0  0  0  0  0
  143.2543  134.2252  151.8866 H   0  0  0  0  0  0  0  0  0  0  0  0
  144.1957  132.7205  152.0018 H   0  0  0  0  0  0  0  0  0  0  0  0
  1  2  1  0  0  0  0
  1 22  1  0  0  0  0
  1 23  1  0  0  0  0
  1 24  1  0  0  0  0
  2  3  1  0  0  0  0
  2  4  1  0  0  0  0
  3 25  1  0  0  0  0
  3 26  1  0  0  0  0
  3 27  1  0  0  0  0
  4  5  1  0  0  0  0
  4 28  1  0  0  0  0
  4 29  1  0  0  0  0
  5  6  1  0  0  0  0
  5 30  1  0  0  0  0
  5 31  1  0  0  0  0
  6 21  1  0  0  0  0
  6  7  1  0  0  0  0
  7  8  2  0  0  0  0
  7 32  1  0  0  0  0
  8  9  1  0  0  0  0
  8 33  1  0  0  0  0
  9 10  1  0  0  0  0
  9 21  2  0  0  0  0
 10 11  1  0  0  0  0
 10 34  1  0  0  0  0
 11 12  2  0  0  0  0
 11 13  1  0  0  0  0
 13 14  1  0  0  0  0
 13 35  1  0  0  0  0
 14 19  1  0  0  0  0
 14 15  1  0  0  0  0
 14 36  1  0  0  0  0
 15 16  1  0  0  0  0
 15 37  1  0  0  0  0
 15 38  1  0  0  0  0
 16 20  1  0  0  0  0
 16 17  1  0  0  0  0
 16 39  1  0  0  0  0
 17 18  1  0  0  0  0
 17 40  1  0  0  0  0
 17 41  1  0  0  0  0
 18 19  1  0  0  0  0
 18 42  1  0  0  0  0
 18 43  1  0  0  0  0
 19 20  1  0  0  0  0
 19 44  1  0  0  0  0
 20 45  1  0  0  0  0
 20 46  1  0  0  0  0
M  END
> <s_m_source_file>
AV-unprocessed.smi

> <i_m_source_file_index>
720

> <i_lp_mmshare_version>
43012

> <i_f3d_flags>
0

> <s_epik_input>
W0NIM11OKFtDSDNdKVtDSDJdW0NIMl1uMVtjSF1bY0hdYyhuMSlbTkhdQyg9TylbTkhdW0NASF0oW0NIMl1bQ0BIXTIzKVtDQEhdKFtDSDJdMylbQ0gyXVtDSDJdMg==

> <s_epik_cmdline>
J2VwaWtfcHl0aG9uJywgJy1waCcsICc3LjAnLCAnLXRuJywgJzgnLCAnLW1hJywgJzIwMCcsICctbWV0YWxfYmluZGluZycsICctaW1hZScsICc8aW5maWxlLm1hZT4nLCAnLW9tYWUnLCAnPG91dGZpbGUubWFlPic=

> <r_lp_tautomer_probability>
1

> <r_epik_Ionization_Penalty>
1.83819

> <r_epik_Ionization_Penalty_Charging>
0

> <r_epik_Ionization_Penalty_Neutral>
1.83819

> <r_epik_State_Penalty>
1.95467

> <r_epik_Charging_Adjusted_Penalty>
1.95467

> <i_epik_Tot_Q>
0

> <i_epik_Tot_abs_Q>
0

> <r_epik_Metal_State_Penalty>
1.95467

> <b_epik_Metal_Only>
0

> <s_lp_Force_Field>
OPLS_2005

> <r_lp_Energy>
62.953

> <b_lp_Chiralities_Consistent>
1

> <s_lp_Variant>
AV-unprocessed.smi:720-8

> <Gold.Version>
5.8.1

> <Gold.Id.Protein>
6NUR|6NUR_protein|mol2

> <Gold.PLP.Fitness>
44.8142

> <Gold.PLP.PLP>
-36.8458

> <Gold.PLP.part.hbond>
-2.5537

> <Gold.PLP.part.metal>
0.0000

> <Gold.PLP.part.buried>
-4.2038

> <Gold.PLP.part.nonpolar>
-31.1460

> <Gold.PLP.part.repulsive>
0.6126

> <Gold.PLP.ligand.clash>
0.0000

> <Gold.PLP.ligand.torsion>
0.4657

> <Gold.PLP.Chemscore.Hbond>
1.9440

> <Gold.PLP.Chemscore.CHOScore>
1.0000

> <Gold.PLP.Chemscore.Metal>
0.0000

> <Gold.Chemscore.Hbonds>
donor molecule, donor type, donor heavy atom, donor atom, acceptor molecule, acceptor atom, score
      L1  H    10    34       P1  7948  0.96
      L1  H    13    35       P1  7948  1.00
      L1  C     7    32       P1  8028  1.00

> <Gold.PLP.Chemscore.Internal.Correction>
0.0677

> <Gold.Rescore>
     Score         DG    S(hbond)    S(metal)    S(lipo)     H(rot)  DE(clash)    DE(int)     intcor
     16.76     -17.37       1.93        0.00      80.04       1.53       0.01       0.61       ----

> <Gold.Chemscore.Fitness>
16.7552

> <Gold.Chemscore.DG>
-17.3665

> <Gold.Chemscore.ZeroCoef>
-5.4800

> <Gold.Chemscore.Hbond>
1.9285

> <Gold.Chemscore.Metal>
0.0000

> <Gold.Chemscore.Lipo>
80.0446

> <Gold.Chemscore.Internal_Hbond>
0.0000

> <Gold.Chemscore.DEClash>
0.0060

> <Gold.Chemscore.DEInternal>
0.6053

> <Gold.Chemscore.Rot>
1.5312

> <Gold.Chemscore.Internal.Correction>
   9.000000E+99

> <Gold.Chemscore.Hbonds>
donor molecule, donor type, donor heavy atom, donor atom, acceptor molecule, acceptor atom, score
      L1  H    10    34       P1  7948  0.92
      L1  H    13    35       P1  7948  0.99

> <Gold.Chemscore.Hbond.Weighted>
-6.4412

> <Gold.Chemscore.Metal.Weighted>
-0.0000

> <Gold.Chemscore.Lipo.Weighted>
-9.3652

> <Gold.Chemscore.Internal_Hbond.Weighted>
0.0000

> <Gold.Chemscore.DEClash.Weighted>
0.0060

> <Gold.Chemscore.DEInternal.Weighted>
0.6053

> <Gold.Chemscore.Rot.Weighted>
3.9199

> <Gold.Chemscore.Internal.Correction.Weighted>
   9.000000E+99

> <Gold.Protein.RotatedTorsions>
[ 6907 6896 6895 6894 ] final  168.61 input  -60.11 | X-H torsion
[ 7974 7965 7964 7962 ] final  -65.49 input  175.53 | X-H torsion
[ 8008 7997 7996 7995 ] final  -24.22 input   59.86 | X-H torsion
[ 10167 10162 10161 10158 ] final   86.33 input  -65.29 | X-H torsion
[ 10718 10713 10712 10709 ] final  141.52 input   66.30 | X-H torsion
[ 10763 10752 10751 10750 ] final   53.22 input  -60.55 | X-H torsion
[ 11005 11000 10999 10996 ] final -170.77 input  -57.11 | X-H torsion

> <Gold.Protein.ActiveResidues>
 VAL166  LYS551  ARG553  GLY616  TRP617  ASP618  TYR619  PRO620  LYS621  CYS622 
 ASP623  PHE694  ASN695  SER759  ASP760  ASP761  ALA762  ILE779  LEU786  VAL792 
 PHE793  MET794  SER795  GLU796  ALA797  LYS798  CYS799  TRP800  GLU811  SER814 

> <Gold.Protein.RotatedAtoms>
  151.8450  133.3430  159.3654 H   0  0  0  0  0  0  0  0  0  0  0  0  # atno 6907 bound_to 6896
  150.7223  134.5354  159.5730 H   0  0  0  0  0  0  0  0  0  0  0  0  # atno 6908 bound_to 6896
  152.2836  134.7801  160.0443 H   0  0  0  0  0  0  0  0  0  0  0  0  # atno 6909 bound_to 6896
  145.7536  140.8896  143.0467 H   0  0  0  0  0  0  0  0  0  0  0  0  # atno 7974 bound_to 7965
  154.4541  140.1959  156.0431 H   0  0  0  0  0  0  0  0  0  0  0  0  # atno 8008 bound_to 7997
  156.0710  140.3284  155.7548 H   0  0  0  0  0  0  0  0  0  0  0  0  # atno 8009 bound_to 7997
  155.5263  140.0574  157.2888 H   0  0  0  0  0  0  0  0  0  0  0  0  # atno 8010 bound_to 7997
  139.8886  144.6398  150.8763 H   0  0  0  0  0  0  0  0  0  0  0  0  # atno 10167 bound_to 10162
  157.3911  131.1005  151.0646 H   0  0  0  0  0  0  0  0  0  0  0  0  # atno 10718 bound_to 10713
  152.9794  135.5786  154.4707 H   0  0  0  0  0  0  0  0  0  0  0  0  # atno 10763 bound_to 10752
  154.4270  135.2773  155.1940 H   0  0  0  0  0  0  0  0  0  0  0  0  # atno 10764 bound_to 10752
  154.3665  135.6177  153.5771 H   0  0  0  0  0  0  0  0  0  0  0  0  # atno 10765 bound_to 10752
  140.5157  134.5758  157.5033 H   0  0  0  0  0  0  0  0  0  0  0  0  # atno 11005 bound_to 11000
  144.6844  139.9625  143.7480 LP  0  0  0  0  0  0  0  0  0  0  0  0  # atno 17320 bound_to 7965
  146.0333  139.3354  143.0742 LP  0  0  0  0  0  0  0  0  0  0  0  0  # atno 17321 bound_to 7965
  140.7731  143.3528  151.1981 LP  0  0  0  0  0  0  0  0  0  0  0  0  # atno 17342 bound_to 10162
  139.7130  143.9346  152.2955 LP  0  0  0  0  0  0  0  0  0  0  0  0  # atno 17343 bound_to 10162
  157.1679  130.6254  149.5631 LP  0  0  0  0  0  0  0  0  0  0  0  0  # atno 17370 bound_to 10713
  155.9798  130.4795  150.6739 LP  0  0  0  0  0  0  0  0  0  0  0  0  # atno 17371 bound_to 10713
  139.9633  134.7415  156.0190 LP  0  0  0  0  0  0  0  0  0  0  0  0  # atno 17394 bound_to 11000
  141.1361  133.6575  156.3598 LP  0  0  0  0  0  0  0  0  0  0  0  0  # atno 17395 bound_to 11000

$$$$
