AV-unprocessed.smi:1410|AV-procd|sdf|5736|dock10
  -GOLD-   22720 5373D 1   1.00000     0.00000
 Structure written by MMmdl.
 39 40  0  0  0  0  0  0  0  0  3 V2000
  150.9251  133.6858  157.1838 N   0  5  0  0  0  0  0  0  0  0  0  0
  150.7448  134.9273  156.6942 C   0  0  0  0  0  0  0  0  0  0  0  0
  151.0483  135.9978  157.2163 O   0  0  0  0  0  0  0  0  0  0  0  0
  150.0518  134.9221  155.3280 C   0  0  0  0  0  0  0  0  0  0  0  0
  150.0667  136.2831  154.7347 N   0  3  2  0  0  0  0  0  0  0  0  0
  151.4336  136.8633  154.6336 C   0  0  0  0  0  0  0  0  0  0  0  0
  151.4109  138.2186  153.9058 C   0  0  0  0  0  0  0  0  0  0  0  0
  150.4503  139.2175  154.5796 C   0  0  2  0  0  0  0  0  0  0  0  0
  150.9505  139.6554  155.8824 N   0  0  0  0  0  0  0  0  0  0  0  0
  150.9807  140.9241  156.3157 C   0  0  0  0  0  0  0  0  0  0  0  0
  150.5707  141.8756  155.6515 O   0  0  0  0  0  0  0  0  0  0  0  0
  151.5308  141.0044  157.5398 N   0  0  0  0  0  0  0  0  0  0  0  0
  151.7743  142.1589  158.3325 C   0  0  0  0  0  0  0  0  0  0  0  0
  151.2856  143.3937  157.8577 C   0  0  0  0  0  0  0  0  0  0  0  0
  151.5243  144.5562  158.6176 C   0  0  0  0  0  0  0  0  0  0  0  0
  152.2085  144.5544  159.7808 N   0  0  0  0  0  0  0  0  0  0  0  0
  152.6880  143.3739  160.2265 C   0  0  0  0  0  0  0  0  0  0  0  0
  152.5055  142.1540  159.5448 C   0  0  0  0  0  0  0  0  0  0  0  0
  149.0612  138.5733  154.7253 C   0  0  0  0  0  0  0  0  0  0  0  0
  149.1291  137.2039  155.4271 C   0  0  0  0  0  0  0  0  0  0  0  0
  150.6798  132.8829  156.5921 H   0  0  0  0  0  0  0  0  0  0  0  0
  150.6131  134.2342  154.6941 H   0  0  0  0  0  0  0  0  0  0  0  0
  149.0312  134.5353  155.3737 H   0  0  0  0  0  0  0  0  0  0  0  0
  151.8585  136.9763  155.6320 H   0  0  0  0  0  0  0  0  0  0  0  0
  152.0923  136.1860  154.0898 H   0  0  0  0  0  0  0  0  0  0  0  0
  152.4193  138.6300  153.8510 H   0  0  0  0  0  0  0  0  0  0  0  0
  151.0962  138.0611  152.8733 H   0  0  0  0  0  0  0  0  0  0  0  0
  150.3510  140.0980  153.9421 H   0  0  0  0  0  0  0  0  0  0  0  0
  151.3083  138.9383  156.4963 H   0  0  0  0  0  0  0  0  0  0  0  0
  151.8810  140.1394  157.9240 H   0  0  0  0  0  0  0  0  0  0  0  0
  150.7319  143.4540  156.9322 H   0  0  0  0  0  0  0  0  0  0  0  0
  151.1562  145.5140  158.2803 H   0  0  0  0  0  0  0  0  0  0  0  0
  153.2401  143.4021  161.1543 H   0  0  0  0  0  0  0  0  0  0  0  0
  152.9353  141.2546  159.9572 H   0  0  0  0  0  0  0  0  0  0  0  0
  148.3896  139.2401  155.2676 H   0  0  0  0  0  0  0  0  0  0  0  0
  148.6227  138.4429  153.7351 H   0  0  0  0  0  0  0  0  0  0  0  0
  148.1308  136.7649  155.4444 H   0  0  0  0  0  0  0  0  0  0  0  0
  149.4388  137.3234  156.4664 H   0  0  0  0  0  0  0  0  0  0  0  0
  149.7214  136.1772  153.7914 H   0  0  0  0  0  0  0  0  0  0  0  0
  1  2  1  0  0  0  0
  1 21  1  0  0  0  0
  2  3  2  0  0  0  0
  2  4  1  0  0  0  0
  4  5  1  0  0  0  0
  4 22  1  0  0  0  0
  4 23  1  0  0  0  0
  5 20  1  0  0  0  0
  5  6  1  0  0  0  0
  5 39  1  0  0  0  0
  6  7  1  0  0  0  0
  6 24  1  0  0  0  0
  6 25  1  0  0  0  0
  7  8  1  0  0  0  0
  7 26  1  0  0  0  0
  7 27  1  0  0  0  0
  8  9  1  0  0  0  0
  8 19  1  0  0  0  0
  8 28  1  0  0  0  0
  9 10  1  0  0  0  0
  9 29  1  0  0  0  0
 10 11  2  0  0  0  0
 10 12  1  0  0  0  0
 12 13  1  0  0  0  0
 12 30  1  0  0  0  0
 13 18  1  0  0  0  0
 13 14  2  0  0  0  0
 14 15  1  0  0  0  0
 14 31  1  0  0  0  0
 15 16  2  0  0  0  0
 15 32  1  0  0  0  0
 16 17  1  0  0  0  0
 17 18  2  0  0  0  0
 17 33  1  0  0  0  0
 18 34  1  0  0  0  0
 19 20  1  0  0  0  0
 19 35  1  0  0  0  0
 19 36  1  0  0  0  0
 20 37  1  0  0  0  0
 20 38  1  0  0  0  0
M  CHG  1   1  -1
M  CHG  1   5   1
M  END
> <s_m_source_file>
AV-unprocessed.smi

> <i_m_source_file_index>
1410

> <i_lp_mmshare_version>
43012

> <i_f3d_flags>
0

> <s_epik_input>
W05IMl1DKD1PKVtDSDJdTjFbQ0gyXVtDSDJdW0NIXShbQ0gyXVtDSDJdMSlbTkhdQyg9TylbTkhdYzJbY0hdW2NIXW5bY0hdW2NIXTI=

> <s_epik_cmdline>
J2VwaWtfcHl0aG9uJywgJy1waCcsICc3LjAnLCAnLXRuJywgJzgnLCAnLW1hJywgJzIwMCcsICctbWV0YWxfYmluZGluZycsICctaW1hZScsICc8aW5maWxlLm1hZT4nLCAnLW9tYWUnLCAnPG91dGZpbGUubWFlPic=

> <r_epik_Ionization_Penalty>
5.8279

> <r_epik_Ionization_Penalty_Charging>
5.7288

> <r_epik_Ionization_Penalty_Neutral>
0.0990993

> <r_epik_State_Penalty>
6.63321

> <r_epik_Charging_Adjusted_Penalty>
12.362

> <i_epik_Tot_Q>
0

> <i_epik_Tot_abs_Q>
2

> <r_epik_Metal_State_Penalty>
2.69435

> <b_epik_Metal_Only>
1

> <s_lp_Force_Field>
OPLS_2005

> <r_lp_Energy>
12.1382

> <b_lp_Chiralities_Consistent>
1

> <s_lp_Variant>
AV-unprocessed.smi:1410-8

> <Gold.Version>
5.8.1

> <Gold.Id.Protein>
6NUR|6NUR_protein|mol2

> <Gold.PLP.Fitness>
44.0651

> <Gold.PLP.PLP>
-32.5582

> <Gold.PLP.part.hbond>
-3.0000

> <Gold.PLP.part.metal>
0.0000

> <Gold.PLP.part.buried>
-2.5672

> <Gold.PLP.part.nonpolar>
-28.1966

> <Gold.PLP.part.repulsive>
0.3264

> <Gold.PLP.ligand.clash>
0.0000

> <Gold.PLP.ligand.torsion>
0.3271

> <Gold.PLP.Chemscore.Hbond>
4.0468

> <Gold.PLP.Chemscore.CHOScore>
0.0000

> <Gold.PLP.Chemscore.Metal>
0.0000

> <Gold.Chemscore.Hbonds>
donor molecule, donor type, donor heavy atom, donor atom, acceptor molecule, acceptor atom, score
      L1  H     5    39       P1  7948  1.95
      P1  H  6896  6907       L1     1  1.15

> <Gold.PLP.Chemscore.Internal.Correction>
0.0207

> <Gold.Rescore>
     Score         DG    S(hbond)    S(metal)    S(lipo)     H(rot)  DE(clash)    DE(int)     intcor
     10.85     -15.45       1.57        0.00      82.71       1.94       0.03       4.58       ----

> <Gold.Chemscore.Fitness>
10.8492

> <Gold.Chemscore.DG>
-15.4504

> <Gold.Chemscore.ZeroCoef>
-5.4800

> <Gold.Chemscore.Hbond>
1.5717

> <Gold.Chemscore.Metal>
0.0000

> <Gold.Chemscore.Lipo>
82.7127

> <Gold.Chemscore.Internal_Hbond>
0.0000

> <Gold.Chemscore.DEClash>
0.0251

> <Gold.Chemscore.DEInternal>
4.5761

> <Gold.Chemscore.Rot>
1.9361

> <Gold.Chemscore.Internal.Correction>
   9.000000E+99

> <Gold.Chemscore.Hbonds>
donor molecule, donor type, donor heavy atom, donor atom, acceptor molecule, acceptor atom, score
      L1  H     5    39       P1  7948  0.32
      P1  H  6896  6907       L1     1  0.35

> <Gold.Chemscore.Hbond.Weighted>
-5.2493

> <Gold.Chemscore.Metal.Weighted>
-0.0000

> <Gold.Chemscore.Lipo.Weighted>
-9.6774

> <Gold.Chemscore.Internal_Hbond.Weighted>
0.0000

> <Gold.Chemscore.DEClash.Weighted>
0.0251

> <Gold.Chemscore.DEInternal.Weighted>
4.5761

> <Gold.Chemscore.Rot.Weighted>
4.9563

> <Gold.Chemscore.Internal.Correction.Weighted>
   9.000000E+99

> <Gold.Protein.RotatedTorsions>
[ 6907 6896 6895 6894 ] final -121.60 input  -60.11 | X-H torsion
[ 7974 7965 7964 7962 ] final   28.38 input  175.53 | X-H torsion
[ 8008 7997 7996 7995 ] final  -63.98 input   59.86 | X-H torsion
[ 10167 10162 10161 10158 ] final  -35.44 input  -65.29 | X-H torsion
[ 10718 10713 10712 10709 ] final  108.72 input   66.30 | X-H torsion
[ 10763 10752 10751 10750 ] final -176.80 input  -60.55 | X-H torsion
[ 11005 11000 10999 10996 ] final -103.70 input  -57.11 | X-H torsion

> <Gold.Protein.ActiveResidues>
 VAL166  LYS551  ARG553  GLY616  TRP617  ASP618  TYR619  PRO620  LYS621  CYS622 
 ASP623  PHE694  ASN695  SER759  ASP760  ASP761  ALA762  ILE779  LEU786  VAL792 
 PHE793  MET794  SER795  GLU796  ALA797  LYS798  CYS799  TRP800  GLU811  SER814 

> <Gold.Protein.RotatedAtoms>
  150.8499  133.7804  159.3029 H   0  0  0  0  0  0  0  0  0  0  0  0  # atno 6907 bound_to 6896
  151.5479  135.1066  159.9952 H   0  0  0  0  0  0  0  0  0  0  0  0  # atno 6908 bound_to 6896
  152.4544  133.7650  159.6823 H   0  0  0  0  0  0  0  0  0  0  0  0  # atno 6909 bound_to 6896
  146.1732  139.7064  142.8953 H   0  0  0  0  0  0  0  0  0  0  0  0  # atno 7974 bound_to 7965
  154.4585  140.0963  156.6827 H   0  0  0  0  0  0  0  0  0  0  0  0  # atno 8008 bound_to 7997
  155.5064  140.3475  155.4362 H   0  0  0  0  0  0  0  0  0  0  0  0  # atno 8009 bound_to 7997
  156.0825  140.1376  156.9683 H   0  0  0  0  0  0  0  0  0  0  0  0  # atno 8010 bound_to 7997
  140.7165  143.3477  151.2221 H   0  0  0  0  0  0  0  0  0  0  0  0  # atno 10167 bound_to 10162
  157.6574  131.0899  150.6347 H   0  0  0  0  0  0  0  0  0  0  0  0  # atno 10718 bound_to 10713
  154.5679  135.2825  155.0856 H   0  0  0  0  0  0  0  0  0  0  0  0  # atno 10763 bound_to 10752
  154.2239  135.6386  153.5157 H   0  0  0  0  0  0  0  0  0  0  0  0  # atno 10764 bound_to 10752
  153.0048  135.5521  154.6293 H   0  0  0  0  0  0  0  0  0  0  0  0  # atno 10765 bound_to 10752
  141.1134  133.8662  157.1519 H   0  0  0  0  0  0  0  0  0  0  0  0  # atno 11005 bound_to 11000
  145.4283  141.0413  143.2925 LP  0  0  0  0  0  0  0  0  0  0  0  0  # atno 17320 bound_to 7965
  144.8195  139.5817  143.6993 LP  0  0  0  0  0  0  0  0  0  0  0  0  # atno 17321 bound_to 7965
  139.7001  143.9548  152.2901 LP  0  0  0  0  0  0  0  0  0  0  0  0  # atno 17342 bound_to 10162
  139.9238  144.6783  150.8434 LP  0  0  0  0  0  0  0  0  0  0  0  0  # atno 17343 bound_to 10162
  156.6653  130.4524  149.5674 LP  0  0  0  0  0  0  0  0  0  0  0  0  # atno 17370 bound_to 10713
  156.2037  130.6636  151.1195 LP  0  0  0  0  0  0  0  0  0  0  0  0  # atno 17371 bound_to 10713
  140.0041  135.0016  157.0254 LP  0  0  0  0  0  0  0  0  0  0  0  0  # atno 17394 bound_to 11000
  140.4713  134.1383  155.7203 LP  0  0  0  0  0  0  0  0  0  0  0  0  # atno 17395 bound_to 11000

$$$$
