AV-unprocessed.smi:232|AV-procd|sdf|1782|dock3
  -GOLD-   2262020333D 1   1.00000     0.00000
 Structure written by MMmdl.
 52 55  0  0  0  0  0  0  0  0  1 V2000
  151.4318  144.9974  159.3076 C   0  0  0  0  0  0  0  0  0  0  0  0
  151.5975  144.2651  157.9703 C   0  0  0  0  0  0  0  0  0  0  0  0
  151.1633  142.7843  158.0332 C   0  0  1  0  0  0  0  0  0  0  0  0
  150.5885  142.2620  156.7019 C   0  0  0  0  0  0  0  0  0  0  0  0
  151.3055  140.9337  156.4331 C   0  0  0  0  0  0  0  0  0  0  0  0
  151.9828  140.5791  157.7577 C   0  0  2  0  0  0  0  0  0  0  0  0
  151.0775  139.6967  158.6427 C   0  0  0  0  0  0  0  0  0  0  0  0
  152.2701  141.8815  158.3495 N   0  0  0  0  0  0  0  0  0  0  0  0
  152.8545  141.8857  159.5773 C   0  0  0  0  0  0  0  0  0  0  0  0
  152.4140  142.7415  160.5382 N   0  0  0  0  0  0  0  0  0  0  0  0
  152.9633  142.7335  161.7558 C   0  0  0  0  0  0  0  0  0  0  0  0
  153.9437  141.9591  162.2230 N   0  0  0  0  0  0  0  0  0  0  0  0
  154.3918  141.0984  161.2650 C   0  0  0  0  0  0  0  0  0  0  0  0
  153.9117  140.9995  159.9283 C   0  0  0  0  0  0  0  0  0  0  0  0
  154.6217  140.0195  159.2444 N   0  0  0  0  0  0  0  0  0  0  0  0
  155.4613  139.5560  160.1288 C   0  0  0  0  0  0  0  0  0  0  0  0
  155.3747  140.1302  161.3768 N   0  0  0  0  0  0  0  0  0  0  0  0
  156.1752  139.7989  162.5427 C   0  0  0  0  0  0  0  0  0  0  0  0
  156.7045  138.3460  162.5383 C   0  0  1  0  0  0  0  0  0  0  0  0
  157.6641  138.2858  163.5738 O   0  0  0  0  0  0  0  0  0  0  0  0
  155.6516  137.2495  162.8262 C   0  0  1  0  0  0  0  0  0  0  0  0
  156.1830  135.8215  162.9808 C   0  0  0  0  0  0  0  0  0  0  0  0
  155.1490  135.1351  163.8571 C   0  0  0  0  0  0  0  0  0  0  0  0
  154.3736  136.2938  164.4845 C   0  0  0  0  0  0  0  0  0  0  0  0
  155.0970  137.4596  164.1175 O   0  0  0  0  0  0  0  0  0  0  0  0
  151.7846  146.0260  159.2307 H   0  0  0  0  0  0  0  0  0  0  0  0
  152.0044  144.5081  160.0957 H   0  0  0  0  0  0  0  0  0  0  0  0
  150.3883  145.0295  159.6208 H   0  0  0  0  0  0  0  0  0  0  0  0
  151.0314  144.7834  157.1955 H   0  0  0  0  0  0  0  0  0  0  0  0
  152.6435  144.3399  157.6753 H   0  0  0  0  0  0  0  0  0  0  0  0
  150.3990  142.6696  158.8035 H   0  0  0  0  0  0  0  0  0  0  0  0
  149.5118  142.1137  156.7908 H   0  0  0  0  0  0  0  0  0  0  0  0
  150.7554  142.9526  155.8743 H   0  0  0  0  0  0  0  0  0  0  0  0
  150.6345  140.1547  156.0693 H   0  0  0  0  0  0  0  0  0  0  0  0
  152.0690  141.0881  155.6692 H   0  0  0  0  0  0  0  0  0  0  0  0
  152.9073  140.0423  157.5470 H   0  0  0  0  0  0  0  0  0  0  0  0
  150.8395  138.7596  158.1392 H   0  0  0  0  0  0  0  0  0  0  0  0
  150.1357  140.1918  158.8811 H   0  0  0  0  0  0  0  0  0  0  0  0
  151.5661  139.4400  159.5831 H   0  0  0  0  0  0  0  0  0  0  0  0
  152.5544  143.4456  162.4570 H   0  0  0  0  0  0  0  0  0  0  0  0
  156.1632  138.7684  159.8960 H   0  0  0  0  0  0  0  0  0  0  0  0
  157.0110  140.4999  162.5624 H   0  0  0  0  0  0  0  0  0  0  0  0
  155.5937  139.9880  163.4458 H   0  0  0  0  0  0  0  0  0  0  0  0
  157.2112  138.1390  161.5950 H   0  0  0  0  0  0  0  0  0  0  0  0
  158.1092  139.1181  163.6187 H   0  0  0  0  0  0  0  0  0  0  0  0
  154.8565  137.2653  162.0778 H   0  0  0  0  0  0  0  0  0  0  0  0
  156.3127  135.3128  162.0261 H   0  0  0  0  0  0  0  0  0  0  0  0
  157.1434  135.8285  163.4979 H   0  0  0  0  0  0  0  0  0  0  0  0
  154.4836  134.5040  163.2673 H   0  0  0  0  0  0  0  0  0  0  0  0
  155.6275  134.5088  164.6109 H   0  0  0  0  0  0  0  0  0  0  0  0
  153.3646  136.3495  164.0734 H   0  0  0  0  0  0  0  0  0  0  0  0
  154.2967  136.2080  165.5686 H   0  0  0  0  0  0  0  0  0  0  0  0
  1  2  1  0  0  0  0
  1 26  1  0  0  0  0
  1 27  1  0  0  0  0
  1 28  1  0  0  0  0
  2  3  1  0  0  0  0
  2 29  1  0  0  0  0
  2 30  1  0  0  0  0
  3  8  1  0  0  0  0
  3  4  1  0  0  0  0
  3 31  1  0  0  0  0
  4  5  1  0  0  0  0
  4 32  1  0  0  0  0
  4 33  1  0  0  0  0
  5  6  1  0  0  0  0
  5 34  1  0  0  0  0
  5 35  1  0  0  0  0
  6  7  1  0  0  0  0
  6  8  1  0  0  0  0
  6 36  1  0  0  0  0
  7 37  1  0  0  0  0
  7 38  1  0  0  0  0
  7 39  1  0  0  0  0
  8  9  1  0  0  0  0
  9 14  1  0  0  0  0
  9 10  2  0  0  0  0
 10 11  1  0  0  0  0
 11 12  2  0  0  0  0
 11 40  1  0  0  0  0
 12 13  1  0  0  0  0
 13 17  1  0  0  0  0
 13 14  2  0  0  0  0
 14 15  1  0  0  0  0
 15 16  2  0  0  0  0
 16 17  1  0  0  0  0
 16 41  1  0  0  0  0
 17 18  1  0  0  0  0
 18 19  1  0  0  0  0
 18 42  1  0  0  0  0
 18 43  1  0  0  0  0
 19 20  1  0  0  0  0
 19 21  1  0  0  0  0
 19 44  1  0  0  0  0
 20 45  1  0  0  0  0
 21 25  1  0  0  0  0
 21 22  1  0  0  0  0
 21 46  1  0  0  0  0
 22 23  1  0  0  0  0
 22 47  1  0  0  0  0
 22 48  1  0  0  0  0
 23 24  1  0  0  0  0
 23 49  1  0  0  0  0
 23 50  1  0  0  0  0
 24 25  1  0  0  0  0
 24 51  1  0  0  0  0
 24 52  1  0  0  0  0
M  END
> <s_m_source_file>
AV-unprocessed.smi

> <i_m_source_file_index>
232

> <i_lp_mmshare_version>
43012

> <i_f3d_flags>
0

> <s_epik_input>
W0NIM11bQ0gyXVtDQEBIXTFbQ0gyXVtDSDJdW0NAQEhdKFtDSDNdKU4xYyhuW2NIXW4yKWMoYzIzKW5bY0hdbjNbQ0gyXVtDQEhdKFtPSF0pW0NAQEhdNFtDSDJdW0NIMl1bQ0gyXU80

> <s_epik_cmdline>
J2VwaWtfcHl0aG9uJywgJy1waCcsICc3LjAnLCAnLXRuJywgJzgnLCAnLW1hJywgJzIwMCcsICctbWV0YWxfYmluZGluZycsICctaW1hZScsICc8aW5maWxlLm1hZT4nLCAnLW9tYWUnLCAnPG91dGZpbGUubWFlPic=

> <r_lp_tautomer_probability>
1

> <r_epik_Ionization_Penalty>
0.00258048

> <r_epik_Ionization_Penalty_Charging>
0

> <r_epik_Ionization_Penalty_Neutral>
0.00258048

> <r_epik_State_Penalty>
0.00168551

> <r_epik_Charging_Adjusted_Penalty>
0.00168551

> <i_epik_Tot_Q>
0

> <i_epik_Tot_abs_Q>
0

> <r_epik_Metal_State_Penalty>
-0

> <b_epik_Metal_Only>
0

> <s_lp_Force_Field>
OPLS_2005

> <r_lp_Energy>
55.4366

> <b_lp_Chiralities_Consistent>
1

> <s_lp_Variant>
AV-unprocessed.smi:232-16

> <Gold.Version>
5.8.1

> <Gold.Id.Protein>
6NUR|6NUR_protein|mol2

> <Gold.PLP.Fitness>
50.5634

> <Gold.PLP.PLP>
-49.4430

> <Gold.PLP.part.hbond>
-1.7929

> <Gold.PLP.part.metal>
0.0000

> <Gold.PLP.part.buried>
-4.4821

> <Gold.PLP.part.nonpolar>
-43.5908

> <Gold.PLP.part.repulsive>
0.0910

> <Gold.PLP.ligand.clash>
0.0000

> <Gold.PLP.ligand.torsion>
1.0935

> <Gold.PLP.Chemscore.Hbond>
1.0000

> <Gold.PLP.Chemscore.CHOScore>
0.0000

> <Gold.PLP.Chemscore.Metal>
0.0000

> <Gold.Chemscore.Hbonds>
donor molecule, donor type, donor heavy atom, donor atom, acceptor molecule, acceptor atom, score
      P1  H  7997  8010       L1    15  1.00

> <Gold.PLP.Chemscore.Internal.Correction>
0.3073

> <Gold.Rescore>
     Score         DG    S(hbond)    S(metal)    S(lipo)     H(rot)  DE(clash)    DE(int)     intcor
     13.37     -14.77       0.94        0.00     105.71       2.43       0.28       1.12       ----

> <Gold.Chemscore.Fitness>
13.3664

> <Gold.Chemscore.DG>
-14.7746

> <Gold.Chemscore.ZeroCoef>
-5.4800

> <Gold.Chemscore.Hbond>
0.9393

> <Gold.Chemscore.Metal>
0.0000

> <Gold.Chemscore.Lipo>
105.7108

> <Gold.Chemscore.Internal_Hbond>
0.0000

> <Gold.Chemscore.DEClash>
0.2847

> <Gold.Chemscore.DEInternal>
1.1236

> <Gold.Chemscore.Rot>
2.4260

> <Gold.Chemscore.Internal.Correction>
   9.000000E+99

> <Gold.Chemscore.Hbonds>
donor molecule, donor type, donor heavy atom, donor atom, acceptor molecule, acceptor atom, score
      P1  H  7997  8010       L1    15  0.91

> <Gold.Chemscore.Hbond.Weighted>
-3.1372

> <Gold.Chemscore.Metal.Weighted>
-0.0000

> <Gold.Chemscore.Lipo.Weighted>
-12.3682

> <Gold.Chemscore.Internal_Hbond.Weighted>
0.0000

> <Gold.Chemscore.DEClash.Weighted>
0.2847

> <Gold.Chemscore.DEInternal.Weighted>
1.1236

> <Gold.Chemscore.Rot.Weighted>
6.2107

> <Gold.Chemscore.Internal.Correction.Weighted>
   9.000000E+99

> <Gold.Protein.RotatedTorsions>
[ 6907 6896 6895 6894 ] final   31.83 input  -60.11 | X-H torsion
[ 7974 7965 7964 7962 ] final   90.17 input  175.53 | X-H torsion
[ 8008 7997 7996 7995 ] final   -1.22 input   59.86 | X-H torsion
[ 10167 10162 10161 10158 ] final  -55.56 input  -65.29 | X-H torsion
[ 10718 10713 10712 10709 ] final   46.72 input   66.30 | X-H torsion
[ 10763 10752 10751 10750 ] final -113.37 input  -60.55 | X-H torsion
[ 11005 11000 10999 10996 ] final   70.91 input  -57.11 | X-H torsion

> <Gold.Protein.ActiveResidues>
 VAL166  LYS551  ARG553  GLY616  TRP617  ASP618  TYR619  PRO620  LYS621  CYS622 
 ASP623  PHE694  ASN695  SER759  ASP760  ASP761  ALA762  ILE779  LEU786  VAL792 
 PHE793  MET794  SER795  GLU796  ALA797  LYS798  CYS799  TRP800  GLU811  SER814 

> <Gold.Protein.RotatedAtoms>
  152.0658  134.9565  160.0574 H   0  0  0  0  0  0  0  0  0  0  0  0  # atno 6907 bound_to 6896
  152.0910  133.4196  159.4552 H   0  0  0  0  0  0  0  0  0  0  0  0  # atno 6908 bound_to 6896
  150.6837  134.2791  159.4663 H   0  0  0  0  0  0  0  0  0  0  0  0  # atno 6909 bound_to 6896
  145.5226  139.2280  143.2663 H   0  0  0  0  0  0  0  0  0  0  0  0  # atno 7974 bound_to 7965
  154.6493  140.2565  155.7232 H   0  0  0  0  0  0  0  0  0  0  0  0  # atno 8008 bound_to 7997
  156.2567  140.2871  156.0840 H   0  0  0  0  0  0  0  0  0  0  0  0  # atno 8009 bound_to 7997
  155.1476  140.0381  157.2804 H   0  0  0  0  0  0  0  0  0  0  0  0  # atno 8010 bound_to 7997
  140.6367  143.2486  151.5098 H   0  0  0  0  0  0  0  0  0  0  0  0  # atno 10167 bound_to 10162
  157.4511  130.8139  149.7789 H   0  0  0  0  0  0  0  0  0  0  0  0  # atno 10718 bound_to 10713
  154.8393  135.4457  154.1339 H   0  0  0  0  0  0  0  0  0  0  0  0  # atno 10763 bound_to 10752
  153.2542  135.6929  153.7653 H   0  0  0  0  0  0  0  0  0  0  0  0  # atno 10764 bound_to 10752
  153.6954  135.3380  155.3188 H   0  0  0  0  0  0  0  0  0  0  0  0  # atno 10765 bound_to 10752
  139.9572  134.7124  156.0727 H   0  0  0  0  0  0  0  0  0  0  0  0  # atno 11005 bound_to 11000
  146.2096  140.6039  142.9065 LP  0  0  0  0  0  0  0  0  0  0  0  0  # atno 17320 bound_to 7965
  144.7668  140.5548  143.6698 LP  0  0  0  0  0  0  0  0  0  0  0  0  # atno 17321 bound_to 7965
  139.5577  144.2233  152.1640 LP  0  0  0  0  0  0  0  0  0  0  0  0  # atno 17342 bound_to 10162
  140.1492  144.5131  150.6698 LP  0  0  0  0  0  0  0  0  0  0  0  0  # atno 17343 bound_to 10162
  155.9987  130.3892  150.2690 LP  0  0  0  0  0  0  0  0  0  0  0  0  # atno 17370 bound_to 10713
  157.0862  131.0157  151.3138 LP  0  0  0  0  0  0  0  0  0  0  0  0  # atno 17371 bound_to 10713
  141.1245  133.6603  156.3300 LP  0  0  0  0  0  0  0  0  0  0  0  0  # atno 17394 bound_to 11000
  140.5583  134.5960  157.5426 LP  0  0  0  0  0  0  0  0  0  0  0  0  # atno 17395 bound_to 11000

$$$$
