AV-unprocessed.smi:2164|AV-procd|sdf|8810|dock2
  -GOLD-   2272011593D 1   1.00000     0.00000
 Structure written by MMmdl.
 38 40  0  0  0  0  0  0  0  0  2 V2000
  151.0121  139.5297  154.7348 O   0  0  0  0  0  0  0  0  0  0  0  0
  151.6203  139.2748  155.7824 C   0  0  0  0  0  0  0  0  0  0  0  0
  152.2184  140.2033  156.5890 N   0  5  0  0  0  0  0  0  0  0  0  0
  151.5411  141.3331  157.2251 C   0  0  0  0  0  0  0  0  0  0  0  0
  151.9971  141.4498  158.6933 C   0  0  0  0  0  0  0  0  0  0  0  0
  151.7730  142.8292  159.2976 C   0  0  0  0  0  0  0  0  0  0  0  0
  151.4653  143.9397  158.4815 C   0  0  0  0  0  0  0  0  0  0  0  0
  151.2792  145.1978  159.0857 C   0  0  0  0  0  0  0  0  0  0  0  0
  151.4124  145.2955  160.4849 C   0  0  0  0  0  0  0  0  0  0  0  0
  151.7126  144.2443  161.2771 N   0  0  0  0  0  0  0  0  0  0  0  0
  151.8892  143.0408  160.6900 C   0  0  0  0  0  0  0  0  0  0  0  0
  151.7153  137.8695  156.2050 C   0  0  0  0  0  0  0  0  0  0  0  0
  150.8836  136.9034  155.7570 C   0  0  0  0  0  0  0  0  0  0  0  0
  150.9660  135.5662  156.1541 N   0  0  0  0  0  0  0  0  0  0  0  0
  149.9451  134.6436  155.6706 C   0  0  0  0  0  0  0  0  0  0  0  0
  150.5706  133.3077  155.3019 C   0  0  0  0  0  0  0  0  0  0  0  0
  151.2721  132.6217  156.8506 S   0  0  0  0  0  0  0  0  0  0  0  0
  150.1713  132.4474  157.8113 O   0  0  0  0  0  0  0  0  0  0  0  0
  152.1116  131.4660  156.4998 O   0  0  0  0  0  0  0  0  0  0  0  0
  152.2388  133.8982  157.3461 N   0  0  0  0  0  0  0  0  0  0  0  0
  152.0035  135.1327  157.0183 C   0  0  0  0  0  0  0  0  0  0  0  0
  152.8748  136.1756  157.5341 C   0  0  0  0  0  0  0  0  0  0  0  0
  152.7414  137.4619  157.1516 C   0  0  0  0  0  0  0  0  0  0  0  0
  151.7569  142.2710  156.7117 H   0  0  0  0  0  0  0  0  0  0  0  0
  150.4566  141.2186  157.1993 H   0  0  0  0  0  0  0  0  0  0  0  0
  151.4706  140.7150  159.3045 H   0  0  0  0  0  0  0  0  0  0  0  0
  153.0576  141.2057  158.7721 H   0  0  0  0  0  0  0  0  0  0  0  0
  151.3711  143.8289  157.4112 H   0  0  0  0  0  0  0  0  0  0  0  0
  151.0403  146.0667  158.4907 H   0  0  0  0  0  0  0  0  0  0  0  0
  151.2767  146.2451  160.9811 H   0  0  0  0  0  0  0  0  0  0  0  0
  152.1305  142.2214  161.3511 H   0  0  0  0  0  0  0  0  0  0  0  0
  150.0865  137.0979  155.0539 H   0  0  0  0  0  0  0  0  0  0  0  0
  149.1822  134.5162  156.4393 H   0  0  0  0  0  0  0  0  0  0  0  0
  149.4414  135.0530  154.7943 H   0  0  0  0  0  0  0  0  0  0  0  0
  149.8308  132.6090  154.9121 H   0  0  0  0  0  0  0  0  0  0  0  0
  151.3646  133.4192  154.5627 H   0  0  0  0  0  0  0  0  0  0  0  0
  153.6644  135.9463  158.2349 H   0  0  0  0  0  0  0  0  0  0  0  0
  153.4212  138.1908  157.5685 H   0  0  0  0  0  0  0  0  0  0  0  0
  1  2  2  0  0  0  0
  2  3  1  0  0  0  0
  2 12  1  0  0  0  0
  3  4  1  0  0  0  0
  4  5  1  0  0  0  0
  4 24  1  0  0  0  0
  4 25  1  0  0  0  0
  5  6  1  0  0  0  0
  5 26  1  0  0  0  0
  5 27  1  0  0  0  0
  6 11  1  0  0  0  0
  6  7  2  0  0  0  0
  7  8  1  0  0  0  0
  7 28  1  0  0  0  0
  8  9  2  0  0  0  0
  8 29  1  0  0  0  0
  9 10  1  0  0  0  0
  9 30  1  0  0  0  0
 10 11  2  0  0  0  0
 11 31  1  0  0  0  0
 12 23  1  0  0  0  0
 12 13  2  0  0  0  0
 13 14  1  0  0  0  0
 13 32  1  0  0  0  0
 14 21  1  0  0  0  0
 14 15  1  0  0  0  0
 15 16  1  0  0  0  0
 15 33  1  0  0  0  0
 15 34  1  0  0  0  0
 16 17  1  0  0  0  0
 16 35  1  0  0  0  0
 16 36  1  0  0  0  0
 17 18  2  0  0  0  0
 17 19  2  0  0  0  0
 17 20  1  0  0  0  0
 20 21  2  0  0  0  0
 21 22  1  0  0  0  0
 22 23  2  0  0  0  0
 22 37  1  0  0  0  0
 23 38  1  0  0  0  0
M  CHG  1   3  -1
M  END
> <s_m_source_file>
AV-unprocessed.smi

> <i_m_source_file_index>
2164

> <i_lp_mmshare_version>
43012

> <i_f3d_flags>
0

> <s_epik_input>
W0NIMl0xW0NIMl1TKD1PKSg9TylOPUMoTjEyKVtDSF09W0NIXUMoPVtDSF0yKUMoPU8pW05IXVtDSDJdW0NIMl1jM1tjSF1bY0hdW2NIXW5bY0hdMw==

> <s_epik_cmdline>
J2VwaWtfcHl0aG9uJywgJy1waCcsICc3LjAnLCAnLXRuJywgJzgnLCAnLW1hJywgJzIwMCcsICctbWV0YWxfYmluZGluZycsICctaW1hZScsICc8aW5maWxlLm1hZT4nLCAnLW9tYWUnLCAnPG91dGZpbGUubWFlPic=

> <r_epik_Ionization_Penalty>
5.17728

> <r_epik_Ionization_Penalty_Charging>
5.15676

> <r_epik_Ionization_Penalty_Neutral>
0.0205175

> <r_epik_State_Penalty>
5.1638

> <r_epik_Charging_Adjusted_Penalty>
10.3206

> <i_epik_Tot_Q>
-1

> <i_epik_Tot_abs_Q>
1

> <r_epik_Metal_State_Penalty>
1.2481

> <b_epik_Metal_Only>
1

> <s_lp_Force_Field>
OPLS_2005

> <r_lp_Energy>
26.7817

> <b_lp_Chiralities_Consistent>
1

> <s_lp_Variant>
AV-unprocessed.smi:2164-3

> <Gold.Version>
5.8.1

> <Gold.Id.Protein>
6NUR|6NUR_protein|mol2

> <Gold.PLP.Fitness>
49.4443

> <Gold.PLP.PLP>
-39.5518

> <Gold.PLP.part.hbond>
-4.0000

> <Gold.PLP.part.metal>
0.0000

> <Gold.PLP.part.buried>
-3.7385

> <Gold.PLP.part.nonpolar>
-31.2607

> <Gold.PLP.part.repulsive>
0.2313

> <Gold.PLP.ligand.clash>
0.0000

> <Gold.PLP.ligand.torsion>
1.0617

> <Gold.PLP.Chemscore.Hbond>
3.9913

> <Gold.PLP.Chemscore.CHOScore>
0.0000

> <Gold.PLP.Chemscore.Metal>
0.0000

> <Gold.Chemscore.Hbonds>
donor molecule, donor type, donor heavy atom, donor atom, acceptor molecule, acceptor atom, score
      P1  H  6896  6907       L1    18  0.85
      P1  H  7989  7998       L1     1  1.00
      P1  H  7997  8009       L1     3  1.18

> <Gold.PLP.Chemscore.Internal.Correction>
0.0420

> <Gold.Rescore>
     Score         DG    S(hbond)    S(metal)    S(lipo)     H(rot)  DE(clash)    DE(int)     intcor
     19.56     -21.00       2.37        0.00      96.65       1.44       0.38       1.06       ----

> <Gold.Chemscore.Fitness>
19.5649

> <Gold.Chemscore.DG>
-21.0029

> <Gold.Chemscore.ZeroCoef>
-5.4800

> <Gold.Chemscore.Hbond>
2.3683

> <Gold.Chemscore.Metal>
0.0000

> <Gold.Chemscore.Lipo>
96.6481

> <Gold.Chemscore.Internal_Hbond>
0.0000

> <Gold.Chemscore.DEClash>
0.3815

> <Gold.Chemscore.DEInternal>
1.0566

> <Gold.Chemscore.Rot>
1.4433

> <Gold.Chemscore.Internal.Correction>
   9.000000E+99

> <Gold.Chemscore.Hbonds>
donor molecule, donor type, donor heavy atom, donor atom, acceptor molecule, acceptor atom, score
      P1  H  6896  6907       L1    18  0.14
      P1  H  7989  7998       L1     1  0.98
      P1  H  7997  8009       L1     3  0.38

> <Gold.Chemscore.Hbond.Weighted>
-7.9100

> <Gold.Chemscore.Metal.Weighted>
-0.0000

> <Gold.Chemscore.Lipo.Weighted>
-11.3078

> <Gold.Chemscore.Internal_Hbond.Weighted>
0.0000

> <Gold.Chemscore.DEClash.Weighted>
0.3815

> <Gold.Chemscore.DEInternal.Weighted>
1.0566

> <Gold.Chemscore.Rot.Weighted>
3.6949

> <Gold.Chemscore.Internal.Correction.Weighted>
   9.000000E+99

> <Gold.Protein.RotatedTorsions>
[ 6907 6896 6895 6894 ] final -128.81 input  -60.11 | X-H torsion
[ 7974 7965 7964 7962 ] final -152.91 input  175.53 | X-H torsion
[ 8008 7997 7996 7995 ] final -151.18 input   59.86 | X-H torsion
[ 10167 10162 10161 10158 ] final -127.12 input  -65.29 | X-H torsion
[ 10718 10713 10712 10709 ] final   91.57 input   66.30 | X-H torsion
[ 10763 10752 10751 10750 ] final -149.72 input  -60.55 | X-H torsion
[ 11005 11000 10999 10996 ] final  106.30 input  -57.11 | X-H torsion

> <Gold.Protein.ActiveResidues>
 VAL166  LYS551  ARG553  GLY616  TRP617  ASP618  TYR619  PRO620  LYS621  CYS622 
 ASP623  PHE694  ASN695  SER759  ASP760  ASP761  ALA762  ILE779  LEU786  VAL792 
 PHE793  MET794  SER795  GLU796  ALA797  LYS798  CYS799  TRP800  GLU811  SER814 

> <Gold.Protein.RotatedAtoms>
  150.9219  133.6870  159.2829 H   0  0  0  0  0  0  0  0  0  0  0  0  # atno 6907 bound_to 6896
  151.4321  135.1009  159.9655 H   0  0  0  0  0  0  0  0  0  0  0  0  # atno 6908 bound_to 6896
  152.4984  133.8647  159.7323 H   0  0  0  0  0  0  0  0  0  0  0  0  # atno 6909 bound_to 6896
  144.7769  140.4598  143.5867 H   0  0  0  0  0  0  0  0  0  0  0  0  # atno 7974 bound_to 7965
  155.6353  140.0696  157.2636 H   0  0  0  0  0  0  0  0  0  0  0  0  # atno 8008 bound_to 7997
  154.4196  140.1760  156.1565 H   0  0  0  0  0  0  0  0  0  0  0  0  # atno 8009 bound_to 7997
  155.9899  140.3346  155.6746 H   0  0  0  0  0  0  0  0  0  0  0  0  # atno 8010 bound_to 7997
  139.9642  143.5916  152.2435 H   0  0  0  0  0  0  0  0  0  0  0  0  # atno 10167 bound_to 10162
  157.6960  131.0412  150.3749 H   0  0  0  0  0  0  0  0  0  0  0  0  # atno 10718 bound_to 10713
  154.8161  135.3302  154.7172 H   0  0  0  0  0  0  0  0  0  0  0  0  # atno 10763 bound_to 10752
  153.7813  135.6918  153.4892 H   0  0  0  0  0  0  0  0  0  0  0  0  # atno 10764 bound_to 10752
  153.1978  135.4527  155.0177 H   0  0  0  0  0  0  0  0  0  0  0  0  # atno 10765 bound_to 10752
  139.8812  134.9365  156.5646 H   0  0  0  0  0  0  0  0  0  0  0  0  # atno 11005 bound_to 11000
  145.6161  139.1518  143.3049 LP  0  0  0  0  0  0  0  0  0  0  0  0  # atno 17320 bound_to 7965
  146.1954  140.6274  142.9127 LP  0  0  0  0  0  0  0  0  0  0  0  0  # atno 17321 bound_to 7965
  139.6530  144.7661  151.2110 LP  0  0  0  0  0  0  0  0  0  0  0  0  # atno 17342 bound_to 10162
  140.7543  143.6130  150.8587 LP  0  0  0  0  0  0  0  0  0  0  0  0  # atno 17343 bound_to 10162
  156.4170  130.3945  149.6851 LP  0  0  0  0  0  0  0  0  0  0  0  0  # atno 17370 bound_to 10713
  156.4116  130.7724  151.2738 LP  0  0  0  0  0  0  0  0  0  0  0  0  # atno 17371 bound_to 10713
  140.8144  133.8403  155.8838 LP  0  0  0  0  0  0  0  0  0  0  0  0  # atno 17394 bound_to 11000
  140.9477  134.1820  157.4751 LP  0  0  0  0  0  0  0  0  0  0  0  0  # atno 17395 bound_to 11000

$$$$
