AV-unprocessed.smi:1655|AV-procd|sdf|6644|dock3
  -GOLD-   22720 7343D 1   1.00000     0.00000
 Structure written by MMmdl.
 34 35  0  0  0  0  0  0  0  0  1 V2000
  143.5466  143.4148  162.7563 C   0  0  0  0  0  0  0  0  0  0  0  0
  144.4361  143.8341  161.6364 C   0  0  0  0  0  0  0  0  0  0  0  0
  145.7788  144.0752  161.5546 C   0  0  0  0  0  0  0  0  0  0  0  0
  145.9562  144.4395  160.1931 C   0  0  0  0  0  0  0  0  0  0  0  0
  147.2390  144.7776  159.6911 N   0  0  0  0  0  0  0  0  0  0  0  0
  148.4170  144.7019  160.3339 C   0  0  0  0  0  0  0  0  0  0  0  0
  148.5691  144.3184  161.4941 O   0  0  0  0  0  0  0  0  0  0  0  0
  149.4274  145.0987  159.5465 N   0  0  0  0  0  0  0  0  0  0  0  0
  150.8320  145.1340  159.9382 C   0  0  0  0  0  0  0  0  0  0  0  0
  151.2304  143.8799  160.7342 C   0  0  0  0  0  0  0  0  0  0  0  0
  152.4319  143.1465  160.1199 C   0  0  2  0  0  0  0  0  0  0  0  0
  152.0904  142.3224  158.8804 C   0  0  0  0  0  0  0  0  0  0  0  0
  153.1829  141.2649  158.8467 C   0  0  0  0  0  0  0  0  0  0  0  0
  153.7920  141.3099  160.2517 C   0  0  0  0  0  0  0  0  0  0  0  0
  152.9370  142.1594  161.0046 O   0  0  0  0  0  0  0  0  0  0  0  0
  144.8244  144.4199  159.5057 N   0  0  0  0  0  0  0  0  0  0  0  0
  143.8447  144.0313  160.4269 O   0  0  0  0  0  0  0  0  0  0  0  0
  144.0817  143.4300  163.7060 H   0  0  0  0  0  0  0  0  0  0  0  0
  143.1726  142.4038  162.5948 H   0  0  0  0  0  0  0  0  0  0  0  0
  142.6900  144.0835  162.8406 H   0  0  0  0  0  0  0  0  0  0  0  0
  146.5120  144.0034  162.3442 H   0  0  0  0  0  0  0  0  0  0  0  0
  147.2630  145.1080  158.7380 H   0  0  0  0  0  0  0  0  0  0  0  0
  149.2102  145.3988  158.6074 H   0  0  0  0  0  0  0  0  0  0  0  0
  151.4322  145.2041  159.0308 H   0  0  0  0  0  0  0  0  0  0  0  0
  151.0379  146.0369  160.5159 H   0  0  0  0  0  0  0  0  0  0  0  0
  151.4575  144.1513  161.7661 H   0  0  0  0  0  0  0  0  0  0  0  0
  150.3807  143.1973  160.7754 H   0  0  0  0  0  0  0  0  0  0  0  0
  153.2289  143.8543  159.8842 H   0  0  0  0  0  0  0  0  0  0  0  0
  151.1208  141.8384  159.0053 H   0  0  0  0  0  0  0  0  0  0  0  0
  152.0519  142.9235  157.9717 H   0  0  0  0  0  0  0  0  0  0  0  0
  152.7693  140.2830  158.6153 H   0  0  0  0  0  0  0  0  0  0  0  0
  153.9384  141.4968  158.0954 H   0  0  0  0  0  0  0  0  0  0  0  0
  153.8643  140.3229  160.7089 H   0  0  0  0  0  0  0  0  0  0  0  0
  154.7921  141.7443  160.2209 H   0  0  0  0  0  0  0  0  0  0  0  0
  1  2  1  0  0  0  0
  1 18  1  0  0  0  0
  1 19  1  0  0  0  0
  1 20  1  0  0  0  0
  2 17  1  0  0  0  0
  2  3  2  0  0  0  0
  3  4  1  0  0  0  0
  3 21  1  0  0  0  0
  4  5  1  0  0  0  0
  4 16  2  0  0  0  0
  5  6  1  0  0  0  0
  5 22  1  0  0  0  0
  6  7  2  0  0  0  0
  6  8  1  0  0  0  0
  8  9  1  0  0  0  0
  8 23  1  0  0  0  0
  9 10  1  0  0  0  0
  9 24  1  0  0  0  0
  9 25  1  0  0  0  0
 10 11  1  0  0  0  0
 10 26  1  0  0  0  0
 10 27  1  0  0  0  0
 11 15  1  0  0  0  0
 11 12  1  0  0  0  0
 11 28  1  0  0  0  0
 12 13  1  0  0  0  0
 12 29  1  0  0  0  0
 12 30  1  0  0  0  0
 13 14  1  0  0  0  0
 13 31  1  0  0  0  0
 13 32  1  0  0  0  0
 14 15  1  0  0  0  0
 14 33  1  0  0  0  0
 14 34  1  0  0  0  0
 16 17  1  0  0  0  0
M  END
> <s_m_source_file>
AV-unprocessed.smi

> <i_m_source_file_index>
1655

> <i_lp_mmshare_version>
43012

> <i_f3d_flags>
0

> <s_epik_input>
W0NIM11jMVtjSF1jKG5vMSlbTkhdQyg9TylbTkhdW0NIMl1bQ0gyXVtDQEBIXTJbQ0gyXVtDSDJdW0NIMl1PMg==

> <s_epik_cmdline>
J2VwaWtfcHl0aG9uJywgJy1waCcsICc3LjAnLCAnLXRuJywgJzgnLCAnLW1hJywgJzIwMCcsICctbWV0YWxfYmluZGluZycsICctaW1hZScsICc8aW5maWxlLm1hZT4nLCAnLW9tYWUnLCAnPG91dGZpbGUubWFlPic=

> <r_lp_tautomer_probability>
1

> <r_epik_Ionization_Penalty>
2.23964e-05

> <r_epik_Ionization_Penalty_Charging>
0

> <r_epik_Ionization_Penalty_Neutral>
2.23964e-05

> <r_epik_State_Penalty>
-0

> <r_epik_Charging_Adjusted_Penalty>
0

> <i_epik_Tot_Q>
0

> <i_epik_Tot_abs_Q>
0

> <r_epik_Metal_State_Penalty>
-0

> <b_epik_Metal_Only>
0

> <s_lp_Force_Field>
OPLS_2005

> <r_lp_Energy>
15.5425

> <b_lp_Chiralities_Consistent>
1

> <s_lp_Variant>
AV-unprocessed.smi:1655-1

> <Gold.Version>
5.8.1

> <Gold.Id.Protein>
6NUR|6NUR_protein|mol2

> <Gold.PLP.Fitness>
44.0704

> <Gold.PLP.PLP>
-38.0187

> <Gold.PLP.part.hbond>
-3.0000

> <Gold.PLP.part.metal>
0.0000

> <Gold.PLP.part.buried>
-7.6411

> <Gold.PLP.part.nonpolar>
-29.8822

> <Gold.PLP.part.repulsive>
0.7403

> <Gold.PLP.ligand.clash>
0.0000

> <Gold.PLP.ligand.torsion>
0.5963

> <Gold.PLP.Chemscore.Hbond>
2.4098

> <Gold.PLP.Chemscore.CHOScore>
0.0000

> <Gold.PLP.Chemscore.Metal>
0.0000

> <Gold.Chemscore.Hbonds>
donor molecule, donor type, donor heavy atom, donor atom, acceptor molecule, acceptor atom, score
      L1  H     5    22       P1  8029  1.00
      L1  H     8    23       P1  8029  1.00
      P1  H  6933  6944       L1     7  0.78

> <Gold.PLP.Chemscore.Internal.Correction>
0.0147

> <Gold.Rescore>
     Score         DG    S(hbond)    S(metal)    S(lipo)     H(rot)  DE(clash)    DE(int)     intcor
     15.43     -18.62       2.11        0.00      86.11       1.55       0.04       3.15       ----

> <Gold.Chemscore.Fitness>
15.4308

> <Gold.Chemscore.DG>
-18.6190

> <Gold.Chemscore.ZeroCoef>
-5.4800

> <Gold.Chemscore.Hbond>
2.1057

> <Gold.Chemscore.Metal>
0.0000

> <Gold.Chemscore.Lipo>
86.1093

> <Gold.Chemscore.Internal_Hbond>
0.0000

> <Gold.Chemscore.DEClash>
0.0389

> <Gold.Chemscore.DEInternal>
3.1493

> <Gold.Chemscore.Rot>
1.5503

> <Gold.Chemscore.Internal.Correction>
   9.000000E+99

> <Gold.Chemscore.Hbonds>
donor molecule, donor type, donor heavy atom, donor atom, acceptor molecule, acceptor atom, score
      L1  H     5    22       P1  8029  0.99
      L1  H     8    23       P1  8029  0.91
      P1  H  6933  6944       L1     7  0.47

> <Gold.Chemscore.Hbond.Weighted>
-7.0329

> <Gold.Chemscore.Metal.Weighted>
-0.0000

> <Gold.Chemscore.Lipo.Weighted>
-10.0748

> <Gold.Chemscore.Internal_Hbond.Weighted>
0.0000

> <Gold.Chemscore.DEClash.Weighted>
0.0389

> <Gold.Chemscore.DEInternal.Weighted>
3.1493

> <Gold.Chemscore.Rot.Weighted>
3.9687

> <Gold.Chemscore.Internal.Correction.Weighted>
   9.000000E+99

> <Gold.Protein.RotatedTorsions>
[ 6907 6896 6895 6894 ] final   70.28 input  -60.11 | X-H torsion
[ 7974 7965 7964 7962 ] final   28.94 input  175.53 | X-H torsion
[ 8008 7997 7996 7995 ] final -147.71 input   59.86 | X-H torsion
[ 10167 10162 10161 10158 ] final    2.47 input  -65.29 | X-H torsion
[ 10718 10713 10712 10709 ] final   59.18 input   66.30 | X-H torsion
[ 10763 10752 10751 10750 ] final  -72.58 input  -60.55 | X-H torsion
[ 11005 11000 10999 10996 ] final  -93.04 input  -57.11 | X-H torsion

> <Gold.Protein.ActiveResidues>
 VAL166  LYS551  ARG553  GLY616  TRP617  ASP618  TYR619  PRO620  LYS621  CYS622 
 ASP623  PHE694  ASN695  SER759  ASP760  ASP761  ALA762  ILE779  LEU786  VAL792 
 PHE793  MET794  SER795  GLU796  ALA797  LYS798  CYS799  TRP800  GLU811  SER814 

> <Gold.Protein.RotatedAtoms>
  152.4739  134.4892  159.9689 H   0  0  0  0  0  0  0  0  0  0  0  0  # atno 6907 bound_to 6896
  151.4913  133.3518  159.2861 H   0  0  0  0  0  0  0  0  0  0  0  0  # atno 6908 bound_to 6896
  150.8765  134.8176  159.7255 H   0  0  0  0  0  0  0  0  0  0  0  0  # atno 6909 bound_to 6896
  146.1700  139.6988  142.8974 H   0  0  0  0  0  0  0  0  0  0  0  0  # atno 7974 bound_to 7965
  155.5799  140.0642  157.2786 H   0  0  0  0  0  0  0  0  0  0  0  0  # atno 8008 bound_to 7997
  154.4336  140.1854  156.1012 H   0  0  0  0  0  0  0  0  0  0  0  0  # atno 8009 bound_to 7997
  156.0313  140.3306  155.7146 H   0  0  0  0  0  0  0  0  0  0  0  0  # atno 8010 bound_to 7997
  140.6633  143.7245  150.7780 H   0  0  0  0  0  0  0  0  0  0  0  0  # atno 10167 bound_to 10162
  157.5656  130.8868  149.9181 H   0  0  0  0  0  0  0  0  0  0  0  0  # atno 10718 bound_to 10713
  154.4477  135.5925  153.6171 H   0  0  0  0  0  0  0  0  0  0  0  0  # atno 10763 bound_to 10752
  152.9811  135.6013  154.3644 H   0  0  0  0  0  0  0  0  0  0  0  0  # atno 10764 bound_to 10752
  154.3501  135.2841  155.2355 H   0  0  0  0  0  0  0  0  0  0  0  0  # atno 10765 bound_to 10752
  141.1507  133.7861  157.0103 H   0  0  0  0  0  0  0  0  0  0  0  0  # atno 11005 bound_to 11000
  145.4366  141.0419  143.2881 LP  0  0  0  0  0  0  0  0  0  0  0  0  # atno 17320 bound_to 7965
  144.8149  139.5895  143.7013 LP  0  0  0  0  0  0  0  0  0  0  0  0  # atno 17321 bound_to 7965
  140.0918  143.4870  152.2474 LP  0  0  0  0  0  0  0  0  0  0  0  0  # atno 17342 bound_to 10162
  139.5874  144.7536  151.3486 LP  0  0  0  0  0  0  0  0  0  0  0  0  # atno 17343 bound_to 10162
  156.0704  130.3686  150.0788 LP  0  0  0  0  0  0  0  0  0  0  0  0  # atno 17370 bound_to 10713
  156.8947  130.9600  151.3584 LP  0  0  0  0  0  0  0  0  0  0  0  0  # atno 17371 bound_to 10713
  140.0882  134.9608  157.1733 LP  0  0  0  0  0  0  0  0  0  0  0  0  # atno 17394 bound_to 11000
  140.3483  134.2627  155.7202 LP  0  0  0  0  0  0  0  0  0  0  0  0  # atno 17395 bound_to 11000

$$$$
