AV-unprocessed.smi:3311|AV-procd|sdf|12721|dock1
  -GOLD-   2272019 63D 1   1.00000     0.00000
 Structure written by MMmdl.
 44 45  0  0  0  0  0  0  0  0  2 V2000
  148.1515  132.3214  152.6995 C   0  0  0  0  0  0  0  0  0  0  0  0
  148.3297  133.3849  153.7982 C   0  0  2  0  0  0  0  0  0  0  0  0
  147.5588  134.5903  153.4213 N   0  3  0  0  0  0  0  0  0  0  0  0
  146.1302  134.3493  153.1207 C   0  0  0  0  0  0  0  0  0  0  0  0
  145.7503  134.7885  151.6857 C   0  0  0  0  0  0  0  0  0  0  0  0
  146.2205  136.1139  151.5250 O   0  0  0  0  0  0  0  0  0  0  0  0
  146.3843  133.9092  150.5797 C   0  0  0  0  0  0  0  0  0  0  0  0
  145.7664  132.5009  150.5257 C   0  0  0  0  0  0  0  0  0  0  0  0
  144.2423  132.5708  150.3419 C   0  0  0  0  0  0  0  0  0  0  0  0
  143.5842  133.4321  151.4312 C   0  0  0  0  0  0  0  0  0  0  0  0
  144.2159  134.8350  151.4950 C   0  0  0  0  0  0  0  0  0  0  0  0
  149.8178  133.7467  154.0567 C   0  0  1  0  0  0  0  0  0  0  0  0
  149.9896  134.9897  154.9507 C   0  0  0  0  0  0  0  0  0  0  0  0
  150.5627  132.6262  154.6174 N   0  0  0  0  0  0  0  0  0  0  0  0
  150.5952  131.3172  154.1820 C   0  0  0  0  0  0  0  0  0  0  0  0
  151.4334  130.6307  155.0132 C   0  0  0  0  0  0  0  0  0  0  0  0
  151.8767  131.6175  155.9372 C   0  0  0  0  0  0  0  0  0  0  0  0
  151.3564  132.8099  155.6970 N   0  0  0  0  0  0  0  0  0  0  0  0
  148.6145  131.3729  152.9726 H   0  0  0  0  0  0  0  0  0  0  0  0
  148.5920  132.6476  151.7568 H   0  0  0  0  0  0  0  0  0  0  0  0
  147.0951  132.1192  152.5198 H   0  0  0  0  0  0  0  0  0  0  0  0
  147.9091  132.9679  154.7152 H   0  0  0  0  0  0  0  0  0  0  0  0
  147.6182  135.2613  154.1744 H   0  0  0  0  0  0  0  0  0  0  0  0
  145.9236  133.2894  153.2682 H   0  0  0  0  0  0  0  0  0  0  0  0
  145.5182  134.8872  153.8462 H   0  0  0  0  0  0  0  0  0  0  0  0
  147.1639  136.1088  151.5900 H   0  0  0  0  0  0  0  0  0  0  0  0
  146.2342  134.3859  149.6095 H   0  0  0  0  0  0  0  0  0  0  0  0
  147.4647  133.8357  150.7071 H   0  0  0  0  0  0  0  0  0  0  0  0
  146.2097  131.9353  149.7056 H   0  0  0  0  0  0  0  0  0  0  0  0
  146.0042  131.9514  151.4368 H   0  0  0  0  0  0  0  0  0  0  0  0
  144.0132  132.9889  149.3609 H   0  0  0  0  0  0  0  0  0  0  0  0
  143.8191  131.5660  150.3552 H   0  0  0  0  0  0  0  0  0  0  0  0
  142.5152  133.5194  151.2344 H   0  0  0  0  0  0  0  0  0  0  0  0
  143.6734  132.9349  152.3972 H   0  0  0  0  0  0  0  0  0  0  0  0
  143.7497  135.4149  152.2928 H   0  0  0  0  0  0  0  0  0  0  0  0
  143.9798  135.3583  150.5668 H   0  0  0  0  0  0  0  0  0  0  0  0
  150.2778  133.9732  153.0934 H   0  0  0  0  0  0  0  0  0  0  0  0
  149.5725  135.8811  154.4823 H   0  0  0  0  0  0  0  0  0  0  0  0
  151.0444  135.1915  155.1397 H   0  0  0  0  0  0  0  0  0  0  0  0
  149.4991  134.8600  155.9161 H   0  0  0  0  0  0  0  0  0  0  0  0
  150.0253  130.9851  153.3268 H   0  0  0  0  0  0  0  0  0  0  0  0
  151.6922  129.5832  154.9674 H   0  0  0  0  0  0  0  0  0  0  0  0
  152.5563  131.5038  156.7690 H   0  0  0  0  0  0  0  0  0  0  0  0
  147.9843  134.9952  152.5997 H   0  0  0  0  0  0  0  0  0  0  0  0
  1  2  1  0  0  0  0
  1 19  1  0  0  0  0
  1 20  1  0  0  0  0
  1 21  1  0  0  0  0
  2  3  1  0  0  0  0
  2 12  1  0  0  0  0
  2 22  1  0  0  0  0
  3  4  1  0  0  0  0
  3 23  1  0  0  0  0
  3 44  1  0  0  0  0
  4  5  1  0  0  0  0
  4 24  1  0  0  0  0
  4 25  1  0  0  0  0
  5 11  1  0  0  0  0
  5  6  1  0  0  0  0
  5  7  1  0  0  0  0
  6 26  1  0  0  0  0
  7  8  1  0  0  0  0
  7 27  1  0  0  0  0
  7 28  1  0  0  0  0
  8  9  1  0  0  0  0
  8 29  1  0  0  0  0
  8 30  1  0  0  0  0
  9 10  1  0  0  0  0
  9 31  1  0  0  0  0
  9 32  1  0  0  0  0
 10 11  1  0  0  0  0
 10 33  1  0  0  0  0
 10 34  1  0  0  0  0
 11 35  1  0  0  0  0
 11 36  1  0  0  0  0
 12 13  1  0  0  0  0
 12 14  1  0  0  0  0
 12 37  1  0  0  0  0
 13 38  1  0  0  0  0
 13 39  1  0  0  0  0
 13 40  1  0  0  0  0
 14 18  1  0  0  0  0
 14 15  1  0  0  0  0
 15 16  2  0  0  0  0
 15 41  1  0  0  0  0
 16 17  1  0  0  0  0
 16 42  1  0  0  0  0
 17 18  2  0  0  0  0
 17 43  1  0  0  0  0
M  CHG  1   3   1
M  END
> <s_m_source_file>
AV-unprocessed.smi

> <i_m_source_file_index>
3311

> <i_lp_mmshare_version>
43012

> <i_f3d_flags>
0

> <s_epik_input>
bjFbY0hdW2NIXVtjSF1uMVtDQEBIXShbQ0gzXSlbQ0BIXShbQ0gzXSlbTkhdW0NIMl1DMihbT0hdKVtDSDJdW0NIMl1bQ0gyXVtDSDJdW0NIMl0y

> <s_epik_cmdline>
J2VwaWtfcHl0aG9uJywgJy1waCcsICc3LjAnLCAnLXRuJywgJzgnLCAnLW1hJywgJzIwMCcsICctbWV0YWxfYmluZGluZycsICctaW1hZScsICc8aW5maWxlLm1hZT4nLCAnLW9tYWUnLCAnPG91dGZpbGUubWFlPic=

> <r_lp_tautomer_probability>
1

> <r_epik_Ionization_Penalty>
0.0141403

> <r_epik_Ionization_Penalty_Charging>
0.0141276

> <r_epik_Ionization_Penalty_Neutral>
1.27139e-05

> <r_epik_State_Penalty>
0.0110334

> <r_epik_Charging_Adjusted_Penalty>
0.025161

> <i_epik_Tot_Q>
1

> <i_epik_Tot_abs_Q>
1

> <r_epik_Metal_State_Penalty>
0.0110573

> <b_epik_Metal_Only>
0

> <s_lp_Force_Field>
OPLS_2005

> <r_lp_Energy>
22.4961

> <b_lp_Chiralities_Consistent>
1

> <s_lp_Variant>
AV-unprocessed.smi:3311-3

> <Gold.Version>
5.8.1

> <Gold.Id.Protein>
6NUR|6NUR_protein|mol2

> <Gold.PLP.Fitness>
42.8854

> <Gold.PLP.PLP>
-35.1021

> <Gold.PLP.part.hbond>
-2.0000

> <Gold.PLP.part.metal>
0.0000

> <Gold.PLP.part.buried>
-5.8711

> <Gold.PLP.part.nonpolar>
-27.1336

> <Gold.PLP.part.repulsive>
0.0000

> <Gold.PLP.ligand.clash>
0.0000

> <Gold.PLP.ligand.torsion>
0.7262

> <Gold.PLP.Chemscore.Hbond>
3.0000

> <Gold.PLP.Chemscore.CHOScore>
0.0000

> <Gold.PLP.Chemscore.Metal>
0.0000

> <Gold.Chemscore.Hbonds>
donor molecule, donor type, donor heavy atom, donor atom, acceptor molecule, acceptor atom, score
      L1  H     3    44       P1  7948  2.00
      L1  H     6    26       P1  7948  1.00

> <Gold.PLP.Chemscore.Internal.Correction>
0.2356

> <Gold.Rescore>
     Score         DG    S(hbond)    S(metal)    S(lipo)     H(rot)  DE(clash)    DE(int)     intcor
     15.05     -15.81       1.94        0.00      79.72       2.14       0.00       0.76       ----

> <Gold.Chemscore.Fitness>
15.0514

> <Gold.Chemscore.DG>
-15.8123

> <Gold.Chemscore.ZeroCoef>
-5.4800

> <Gold.Chemscore.Hbond>
1.9432

> <Gold.Chemscore.Metal>
0.0000

> <Gold.Chemscore.Lipo>
79.7151

> <Gold.Chemscore.Internal_Hbond>
0.0000

> <Gold.Chemscore.DEClash>
0.0000

> <Gold.Chemscore.DEInternal>
0.7609

> <Gold.Chemscore.Rot>
2.1424

> <Gold.Chemscore.Internal.Correction>
   9.000000E+99

> <Gold.Chemscore.Hbonds>
donor molecule, donor type, donor heavy atom, donor atom, acceptor molecule, acceptor atom, score
      L1  H     3    44       P1  7948  0.87
      L1  H     6    26       P1  7948  1.00

> <Gold.Chemscore.Hbond.Weighted>
-6.4902

> <Gold.Chemscore.Metal.Weighted>
-0.0000

> <Gold.Chemscore.Lipo.Weighted>
-9.3267

> <Gold.Chemscore.Internal_Hbond.Weighted>
0.0000

> <Gold.Chemscore.DEClash.Weighted>
0.0000

> <Gold.Chemscore.DEInternal.Weighted>
0.7609

> <Gold.Chemscore.Rot.Weighted>
5.4846

> <Gold.Chemscore.Internal.Correction.Weighted>
   9.000000E+99

> <Gold.Protein.RotatedTorsions>
[ 6907 6896 6895 6894 ] final -132.19 input  -60.11 | X-H torsion
[ 7974 7965 7964 7962 ] final -173.57 input  175.53 | X-H torsion
[ 8008 7997 7996 7995 ] final   14.69 input   59.86 | X-H torsion
[ 10167 10162 10161 10158 ] final  -41.04 input  -65.29 | X-H torsion
[ 10718 10713 10712 10709 ] final -151.67 input   66.30 | X-H torsion
[ 10763 10752 10751 10750 ] final  -27.44 input  -60.55 | X-H torsion
[ 11005 11000 10999 10996 ] final   11.86 input  -57.11 | X-H torsion

> <Gold.Protein.ActiveResidues>
 VAL166  LYS551  ARG553  GLY616  TRP617  ASP618  TYR619  PRO620  LYS621  CYS622 
 ASP623  PHE694  ASN695  SER759  ASP760  ASP761  ALA762  ILE779  LEU786  VAL792 
 PHE793  MET794  SER795  GLU796  ALA797  LYS798  CYS799  TRP800  GLU811  SER814 

> <Gold.Protein.RotatedAtoms>
  150.9596  133.6460  159.2756 H   0  0  0  0  0  0  0  0  0  0  0  0  # atno 6907 bound_to 6896
  151.3787  135.0934  159.9498 H   0  0  0  0  0  0  0  0  0  0  0  0  # atno 6908 bound_to 6896
  152.5142  133.9135  159.7554 H   0  0  0  0  0  0  0  0  0  0  0  0  # atno 6909 bound_to 6896
  144.7137  140.1601  143.6377 H   0  0  0  0  0  0  0  0  0  0  0  0  # atno 7974 bound_to 7965
  154.8521  140.2931  155.5592 H   0  0  0  0  0  0  0  0  0  0  0  0  # atno 8008 bound_to 7997
  156.3017  140.2494  156.3413 H   0  0  0  0  0  0  0  0  0  0  0  0  # atno 8009 bound_to 7997
  154.9010  140.0391  157.1882 H   0  0  0  0  0  0  0  0  0  0  0  0  # atno 8010 bound_to 7997
  140.7015  143.3118  151.3009 H   0  0  0  0  0  0  0  0  0  0  0  0  # atno 10167 bound_to 10162
  156.4624  130.8219  151.2450 H   0  0  0  0  0  0  0  0  0  0  0  0  # atno 10718 bound_to 10713
  153.7321  135.6938  153.4987 H   0  0  0  0  0  0  0  0  0  0  0  0  # atno 10763 bound_to 10752
  153.2128  135.4397  155.0398 H   0  0  0  0  0  0  0  0  0  0  0  0  # atno 10764 bound_to 10752
  154.8249  135.3441  154.6851 H   0  0  0  0  0  0  0  0  0  0  0  0  # atno 10765 bound_to 10752
  140.4985  134.0770  155.7788 H   0  0  0  0  0  0  0  0  0  0  0  0  # atno 11005 bound_to 11000
  145.9038  139.2446  143.1478 LP  0  0  0  0  0  0  0  0  0  0  0  0  # atno 17320 bound_to 7965
  145.9784  140.8702  143.0127 LP  0  0  0  0  0  0  0  0  0  0  0  0  # atno 17321 bound_to 7965
  139.6543  144.0304  152.2649 LP  0  0  0  0  0  0  0  0  0  0  0  0  # atno 17342 bound_to 10162
  139.9851  144.6401  150.7865 LP  0  0  0  0  0  0  0  0  0  0  0  0  # atno 17343 bound_to 10162
  157.7497  131.0103  150.3300 LP  0  0  0  0  0  0  0  0  0  0  0  0  # atno 17370 bound_to 10713
  156.3703  130.3862  149.7181 LP  0  0  0  0  0  0  0  0  0  0  0  0  # atno 17371 bound_to 10713
  141.1448  133.9075  157.2242 LP  0  0  0  0  0  0  0  0  0  0  0  0  # atno 17394 bound_to 11000
  139.9727  135.0123  156.9554 LP  0  0  0  0  0  0  0  0  0  0  0  0  # atno 17395 bound_to 11000

$$$$
