AV-unprocessed.smi:85|AV-procd|sdf|811|dock2
  -GOLD-   2262017203D 1   1.00000     0.00000
 Structure written by MMmdl.
 62 65  0  0  0  0  0  0  0  0  1 V2000
  152.2014  139.3808  155.9738 C   0  0  0  0  0  0  0  0  0  0  0  0
  151.2907  140.5685  156.3280 C   0  0  0  0  0  0  0  0  0  0  0  0
  150.8442  140.5683  157.7256 N   0  0  0  0  0  0  0  0  0  0  0  0
  150.5475  139.3653  158.2752 C   0  0  0  0  0  0  0  0  0  0  0  0
  151.5290  138.7482  158.9802 N   0  0  0  0  0  0  0  0  0  0  0  0
  151.2993  137.5632  159.5528 C   0  0  0  0  0  0  0  0  0  0  0  0
  150.1817  136.8344  159.5427 N   0  0  0  0  0  0  0  0  0  0  0  0
  149.1948  137.4454  158.8266 C   0  0  0  0  0  0  0  0  0  0  0  0
  149.2939  138.6984  158.1578 C   0  0  0  0  0  0  0  0  0  0  0  0
  148.0967  138.9830  157.5120 N   0  0  0  0  0  0  0  0  0  0  0  0
  147.3327  137.9637  157.7909 C   0  0  0  0  0  0  0  0  0  0  0  0
  147.9030  137.0029  158.5956 N   0  0  0  0  0  0  0  0  0  0  0  0
  147.2753  135.7749  159.0645 C   0  0  0  0  0  0  0  0  0  0  0  0
  146.7115  135.8403  160.5159 C   0  0  0  0  0  0  0  0  0  0  0  0
  145.4749  136.7822  160.5812 C   0  0  0  0  0  0  0  0  0  0  0  0
  145.8274  138.1398  160.4067 O   0  0  0  0  0  0  0  0  0  0  0  0
  146.3057  134.4210  160.9909 C   0  0  0  0  0  0  0  0  0  0  0  0
  146.0530  134.3370  162.5080 C   0  0  0  0  0  0  0  0  0  0  0  0
  147.1908  134.7998  163.2225 O   0  0  0  0  0  0  0  0  0  0  0  0
  147.4955  136.1605  162.9478 C   0  0  0  0  0  0  0  0  0  0  0  0
  147.8429  136.3248  161.4578 C   0  0  0  0  0  0  0  0  0  0  0  0
  151.4333  141.5080  158.6881 C   0  0  1  0  0  0  0  0  0  0  0  0
  152.8836  141.1571  159.0577 C   0  0  0  0  0  0  0  0  0  0  0  0
  153.4315  142.1690  160.0728 C   0  0  0  0  0  0  0  0  0  0  0  0
  153.3269  143.4977  159.5633 O   0  0  0  0  0  0  0  0  0  0  0  0
  152.0101  143.9484  159.2257 C   0  0  0  0  0  0  0  0  0  0  0  0
  151.1492  144.1269  160.4950 C   0  0  0  0  0  0  0  0  0  0  0  0
  152.2138  145.3226  158.5657 C   0  0  0  0  0  0  0  0  0  0  0  0
  151.3750  142.9701  158.2077 C   0  0  0  0  0  0  0  0  0  0  0  0
  152.4474  139.3920  154.9121 H   0  0  0  0  0  0  0  0  0  0  0  0
  151.7096  138.4319  156.1895 H   0  0  0  0  0  0  0  0  0  0  0  0
  153.1418  139.4054  156.5240 H   0  0  0  0  0  0  0  0  0  0  0  0
  151.7938  141.5063  156.0955 H   0  0  0  0  0  0  0  0  0  0  0  0
  150.4235  140.5282  155.6719 H   0  0  0  0  0  0  0  0  0  0  0  0
  152.1284  137.1390  160.0995 H   0  0  0  0  0  0  0  0  0  0  0  0
  146.3201  137.8895  157.4218 H   0  0  0  0  0  0  0  0  0  0  0  0
  146.4761  135.5287  158.3639 H   0  0  0  0  0  0  0  0  0  0  0  0
  148.0007  134.9652  158.9747 H   0  0  0  0  0  0  0  0  0  0  0  0
  144.7426  136.5153  159.8192 H   0  0  0  0  0  0  0  0  0  0  0  0
  144.9558  136.7011  161.5347 H   0  0  0  0  0  0  0  0  0  0  0  0
  145.0753  138.6056  160.0743 H   0  0  0  0  0  0  0  0  0  0  0  0
  145.4161  134.0772  160.4627 H   0  0  0  0  0  0  0  0  0  0  0  0
  147.0997  133.7157  160.7418 H   0  0  0  0  0  0  0  0  0  0  0  0
  145.1687  134.9034  162.8008 H   0  0  0  0  0  0  0  0  0  0  0  0
  145.8645  133.3017  162.7928 H   0  0  0  0  0  0  0  0  0  0  0  0
  146.6652  136.8037  163.2414 H   0  0  0  0  0  0  0  0  0  0  0  0
  148.3482  136.4542  163.5602 H   0  0  0  0  0  0  0  0  0  0  0  0
  148.7483  135.7490  161.2610 H   0  0  0  0  0  0  0  0  0  0  0  0
  148.1041  137.3630  161.2508 H   0  0  0  0  0  0  0  0  0  0  0  0
  150.8428  141.4504  159.6032 H   0  0  0  0  0  0  0  0  0  0  0  0
  152.9419  140.1522  159.4762 H   0  0  0  0  0  0  0  0  0  0  0  0
  153.5145  141.1645  158.1684 H   0  0  0  0  0  0  0  0  0  0  0  0
  152.9173  142.0785  161.0294 H   0  0  0  0  0  0  0  0  0  0  0  0
  154.4827  141.9590  160.2707 H   0  0  0  0  0  0  0  0  0  0  0  0
  150.1796  144.5616  160.2499 H   0  0  0  0  0  0  0  0  0  0  0  0
  151.6368  144.7938  161.2065 H   0  0  0  0  0  0  0  0  0  0  0  0
  150.9547  143.1882  161.0113 H   0  0  0  0  0  0  0  0  0  0  0  0
  151.2650  145.7526  158.2434 H   0  0  0  0  0  0  0  0  0  0  0  0
  152.8583  145.2508  157.6889 H   0  0  0  0  0  0  0  0  0  0  0  0
  152.6799  146.0275  159.2551 H   0  0  0  0  0  0  0  0  0  0  0  0
  151.9107  143.0668  157.2639 H   0  0  0  0  0  0  0  0  0  0  0  0
  150.3426  143.2572  158.0032 H   0  0  0  0  0  0  0  0  0  0  0  0
  1  2  1  0  0  0  0
  1 30  1  0  0  0  0
  1 31  1  0  0  0  0
  1 32  1  0  0  0  0
  2  3  1  0  0  0  0
  2 33  1  0  0  0  0
  2 34  1  0  0  0  0
  3  4  1  0  0  0  0
  3 22  1  0  0  0  0
  4  9  1  0  0  0  0
  4  5  2  0  0  0  0
  5  6  1  0  0  0  0
  6  7  2  0  0  0  0
  6 35  1  0  0  0  0
  7  8  1  0  0  0  0
  8 12  1  0  0  0  0
  8  9  2  0  0  0  0
  9 10  1  0  0  0  0
 10 11  2  0  0  0  0
 11 12  1  0  0  0  0
 11 36  1  0  0  0  0
 12 13  1  0  0  0  0
 13 14  1  0  0  0  0
 13 37  1  0  0  0  0
 13 38  1  0  0  0  0
 14 21  1  0  0  0  0
 14 15  1  0  0  0  0
 14 17  1  0  0  0  0
 15 16  1  0  0  0  0
 15 39  1  0  0  0  0
 15 40  1  0  0  0  0
 16 41  1  0  0  0  0
 17 18  1  0  0  0  0
 17 42  1  0  0  0  0
 17 43  1  0  0  0  0
 18 19  1  0  0  0  0
 18 44  1  0  0  0  0
 18 45  1  0  0  0  0
 19 20  1  0  0  0  0
 20 21  1  0  0  0  0
 20 46  1  0  0  0  0
 20 47  1  0  0  0  0
 21 48  1  0  0  0  0
 21 49  1  0  0  0  0
 22 29  1  0  0  0  0
 22 23  1  0  0  0  0
 22 50  1  0  0  0  0
 23 24  1  0  0  0  0
 23 51  1  0  0  0  0
 23 52  1  0  0  0  0
 24 25  1  0  0  0  0
 24 53  1  0  0  0  0
 24 54  1  0  0  0  0
 25 26  1  0  0  0  0
 26 27  1  0  0  0  0
 26 28  1  0  0  0  0
 26 29  1  0  0  0  0
 27 55  1  0  0  0  0
 27 56  1  0  0  0  0
 27 57  1  0  0  0  0
 28 58  1  0  0  0  0
 28 59  1  0  0  0  0
 28 60  1  0  0  0  0
 29 61  1  0  0  0  0
 29 62  1  0  0  0  0
M  END
> <s_m_source_file>
AV-unprocessed.smi

> <i_m_source_file_index>
85

> <i_lp_mmshare_version>
43012

> <i_f3d_flags>
0

> <s_epik_input>
W0NIM11DMShbQ0gzXSlPW0NIMl1bQ0gyXVtDQEhdKFtDSDJdMSlOKFtDSDJdW0NIM10pYyhuW2NIXW4yKWMoYzIzKW5bY0hdbjNbQ0gyXUM0KFtDSDJdW09IXSlbQ0gyXVtDSDJdT1tDSDJdW0NIMl00

> <s_epik_cmdline>
J2VwaWtfcHl0aG9uJywgJy1waCcsICc3LjAnLCAnLXRuJywgJzgnLCAnLW1hJywgJzIwMCcsICctbWV0YWxfYmluZGluZycsICctaW1hZScsICc8aW5maWxlLm1hZT4nLCAnLW9tYWUnLCAnPG91dGZpbGUubWFlPic=

> <r_lp_tautomer_probability>
1

> <r_epik_Ionization_Penalty>
0.00336056

> <r_epik_Ionization_Penalty_Charging>
0

> <r_epik_Ionization_Penalty_Neutral>
0.00336056

> <r_epik_State_Penalty>
0.00222191

> <r_epik_Charging_Adjusted_Penalty>
0.00222191

> <i_epik_Tot_Q>
0

> <i_epik_Tot_abs_Q>
0

> <r_epik_Metal_State_Penalty>
-0

> <b_epik_Metal_Only>
0

> <s_lp_Force_Field>
OPLS_2005

> <r_lp_Energy>
36.9586

> <b_lp_Chiralities_Consistent>
1

> <s_lp_Variant>
AV-unprocessed.smi:85-2

> <Gold.Version>
5.8.1

> <Gold.Id.Protein>
6NUR|6NUR_protein|mol2

> <Gold.PLP.Fitness>
57.2680

> <Gold.PLP.PLP>
-54.4390

> <Gold.PLP.part.hbond>
-3.0337

> <Gold.PLP.part.metal>
0.0000

> <Gold.PLP.part.buried>
-8.7455

> <Gold.PLP.part.nonpolar>
-43.3843

> <Gold.PLP.part.repulsive>
0.0210

> <Gold.PLP.ligand.clash>
0.0000

> <Gold.PLP.ligand.torsion>
2.1614

> <Gold.PLP.Chemscore.Hbond>
1.9600

> <Gold.PLP.Chemscore.CHOScore>
0.0000

> <Gold.PLP.Chemscore.Metal>
0.0000

> <Gold.Chemscore.Hbonds>
donor molecule, donor type, donor heavy atom, donor atom, acceptor molecule, acceptor atom, score
      P1  H  6896  6907       L1     7  0.91
      P1  H  6934  6947       L1    16  0.88

> <Gold.PLP.Chemscore.Internal.Correction>
1.2718

> <Gold.Rescore>
     Score         DG    S(hbond)    S(metal)    S(lipo)     H(rot)  DE(clash)    DE(int)     intcor
     16.44     -20.46       1.59        0.00     135.20       2.41       0.11       3.90       ----

> <Gold.Chemscore.Fitness>
16.4449

> <Gold.Chemscore.DG>
-20.4592

> <Gold.Chemscore.ZeroCoef>
-5.4800

> <Gold.Chemscore.Hbond>
1.5947

> <Gold.Chemscore.Metal>
0.0000

> <Gold.Chemscore.Lipo>
135.1969

> <Gold.Chemscore.Internal_Hbond>
0.0000

> <Gold.Chemscore.DEClash>
0.1125

> <Gold.Chemscore.DEInternal>
3.9018

> <Gold.Chemscore.Rot>
2.4083

> <Gold.Chemscore.Internal.Correction>
   9.000000E+99

> <Gold.Chemscore.Hbonds>
donor molecule, donor type, donor heavy atom, donor atom, acceptor molecule, acceptor atom, score
      P1  H  6896  6907       L1     7  0.38
      P1  H  6934  6947       L1    16  0.82

> <Gold.Chemscore.Hbond.Weighted>
-5.3263

> <Gold.Chemscore.Metal.Weighted>
-0.0000

> <Gold.Chemscore.Lipo.Weighted>
-15.8180

> <Gold.Chemscore.Internal_Hbond.Weighted>
0.0000

> <Gold.Chemscore.DEClash.Weighted>
0.1125

> <Gold.Chemscore.DEInternal.Weighted>
3.9018

> <Gold.Chemscore.Rot.Weighted>
6.1652

> <Gold.Chemscore.Internal.Correction.Weighted>
   9.000000E+99

> <Gold.Protein.RotatedTorsions>
[ 6907 6896 6895 6894 ] final  -49.19 input  -60.11 | X-H torsion
[ 7974 7965 7964 7962 ] final  133.35 input  175.53 | X-H torsion
[ 8008 7997 7996 7995 ] final  -12.43 input   59.86 | X-H torsion
[ 10167 10162 10161 10158 ] final   19.25 input  -65.29 | X-H torsion
[ 10718 10713 10712 10709 ] final   56.98 input   66.30 | X-H torsion
[ 10763 10752 10751 10750 ] final  -81.66 input  -60.55 | X-H torsion
[ 11005 11000 10999 10996 ] final -129.37 input  -57.11 | X-H torsion

> <Gold.Protein.ActiveResidues>
 VAL166  LYS551  ARG553  GLY616  TRP617  ASP618  TYR619  PRO620  LYS621  CYS622 
 ASP623  PHE694  ASN695  SER759  ASP760  ASP761  ALA762  ILE779  LEU786  VAL792 
 PHE793  MET794  SER795  GLU796  ALA797  LYS798  CYS799  TRP800  GLU811  SER814 

> <Gold.Protein.RotatedAtoms>
  150.8830  134.8224  159.7238 H   0  0  0  0  0  0  0  0  0  0  0  0  # atno 6907 bound_to 6896
  152.4790  134.4766  159.9662 H   0  0  0  0  0  0  0  0  0  0  0  0  # atno 6908 bound_to 6896
  151.4839  133.3501  159.2878 H   0  0  0  0  0  0  0  0  0  0  0  0  # atno 6909 bound_to 6896
  144.9874  139.4441  143.5356 H   0  0  0  0  0  0  0  0  0  0  0  0  # atno 7974 bound_to 7965
  154.5378  140.2276  155.8693 H   0  0  0  0  0  0  0  0  0  0  0  0  # atno 8008 bound_to 7997
  156.1828  140.3096  155.9144 H   0  0  0  0  0  0  0  0  0  0  0  0  # atno 8009 bound_to 7997
  155.3320  140.0446  157.3033 H   0  0  0  0  0  0  0  0  0  0  0  0  # atno 8010 bound_to 7997
  140.5593  143.9367  150.6631 H   0  0  0  0  0  0  0  0  0  0  0  0  # atno 10167 bound_to 10162
  157.5476  130.8742  149.8915 H   0  0  0  0  0  0  0  0  0  0  0  0  # atno 10718 bound_to 10713
  154.5663  135.5618  153.7054 H   0  0  0  0  0  0  0  0  0  0  0  0  # atno 10763 bound_to 10752
  153.0034  135.6286  154.2175 H   0  0  0  0  0  0  0  0  0  0  0  0  # atno 10764 bound_to 10752
  154.2114  135.2873  155.2937 H   0  0  0  0  0  0  0  0  0  0  0  0  # atno 10765 bound_to 10752
  140.9437  134.1159  157.4127 H   0  0  0  0  0  0  0  0  0  0  0  0  # atno 11005 bound_to 11000
  146.3423  139.9185  142.8770 LP  0  0  0  0  0  0  0  0  0  0  0  0  # atno 17320 bound_to 7965
  145.2334  140.9981  143.3978 LP  0  0  0  0  0  0  0  0  0  0  0  0  # atno 17321 bound_to 7965
  140.2813  143.3387  152.1148 LP  0  0  0  0  0  0  0  0  0  0  0  0  # atno 17342 bound_to 10162
  139.5062  144.6810  151.6008 LP  0  0  0  0  0  0  0  0  0  0  0  0  # atno 17343 bound_to 10162
  156.0549  130.3710  150.1114 LP  0  0  0  0  0  0  0  0  0  0  0  0  # atno 17370 bound_to 10713
  156.9289  130.9707  151.3536 LP  0  0  0  0  0  0  0  0  0  0  0  0  # atno 17371 bound_to 10713
  139.8827  135.0044  156.6250 LP  0  0  0  0  0  0  0  0  0  0  0  0  # atno 17394 bound_to 11000
  140.7699  133.8747  155.8483 LP  0  0  0  0  0  0  0  0  0  0  0  0  # atno 17395 bound_to 11000

$$$$
