AV-unprocessed.smi:2869|AV-procd|sdf|11028|dock3
  -GOLD-   2272015493D 1   1.00000     0.00000
 Structure written by MMmdl.
 49 51  0  0  0  0  0  0  0  0  1 V2000
  152.9589  139.1463  154.8716 N   0  0  0  0  0  0  0  0  0  0  0  0
  151.8973  138.6862  154.8411 C   0  0  0  0  0  0  0  0  0  0  0  0
  150.5995  138.0965  154.8205 C   0  0  0  0  0  0  0  0  0  0  0  0
  149.4991  138.8099  154.5056 C   0  0  0  0  0  0  0  0  0  0  0  0
  148.2396  138.2524  154.4699 N   0  0  0  0  0  0  0  0  0  0  0  0
  147.0699  139.0610  154.2701 C   0  0  0  0  0  0  0  0  0  0  0  0
  146.6358  139.4547  152.8713 C   0  0  0  0  0  0  0  0  0  0  0  0
  147.2389  140.4867  153.7926 C   0  0  0  0  0  0  0  0  0  0  0  0
  148.0474  136.9065  154.8520 C   0  0  0  0  0  0  0  0  0  0  0  0
  146.9181  136.4128  154.9038 O   0  0  0  0  0  0  0  0  0  0  0  0
  149.1929  136.1403  155.1772 N   0  0  0  0  0  0  0  0  0  0  0  0
  149.0181  134.7127  155.5249 C   0  0  0  0  0  0  0  0  0  0  0  0
  149.1970  134.4177  157.0220 C   0  0  0  0  0  0  0  0  0  0  0  0
  150.1660  133.7779  157.4337 O   0  0  0  0  0  0  0  0  0  0  0  0
  148.2392  134.9031  157.8269 N   0  0  0  0  0  0  0  0  0  0  0  0
  148.1915  134.7655  159.2829 C   0  0  0  0  0  0  0  0  0  0  0  0
  147.4675  133.4353  159.5945 C   0  0  0  0  0  0  0  0  0  0  0  0
  147.8672  132.6955  160.8898 C   0  0  0  0  0  0  0  0  0  0  0  0
  147.7466  133.4496  162.2264 C   0  0  0  0  0  0  0  0  0  0  0  0
  146.4918  134.3301  162.3645 C   0  0  0  0  0  0  0  0  0  0  0  0
  146.7780  135.8414  162.3657 C   0  0  0  0  0  0  0  0  0  0  0  0
  147.7929  136.3580  161.3265 C   0  0  0  0  0  0  0  0  0  0  0  0
  147.4907  136.0269  159.8553 C   0  0  0  0  0  0  0  0  0  0  0  0
  150.5050  136.6791  155.1630 C   0  0  0  0  0  0  0  0  0  0  0  0
  151.4828  135.9772  155.4274 O   0  0  0  0  0  0  0  0  0  0  0  0
  149.6067  139.8576  154.2637 H   0  0  0  0  0  0  0  0  0  0  0  0
  146.2654  138.8942  154.9844 H   0  0  0  0  0  0  0  0  0  0  0  0
  147.2432  139.1250  152.0304 H   0  0  0  0  0  0  0  0  0  0  0  0
  145.5668  139.5154  152.6775 H   0  0  0  0  0  0  0  0  0  0  0  0
  146.5725  141.2381  154.2110 H   0  0  0  0  0  0  0  0  0  0  0  0
  148.2433  140.8345  153.5580 H   0  0  0  0  0  0  0  0  0  0  0  0
  148.0334  134.3579  155.2162 H   0  0  0  0  0  0  0  0  0  0  0  0
  149.7103  134.0813  154.9657 H   0  0  0  0  0  0  0  0  0  0  0  0
  147.4822  135.4155  157.3982 H   0  0  0  0  0  0  0  0  0  0  0  0
  149.2151  134.7040  159.6572 H   0  0  0  0  0  0  0  0  0  0  0  0
  146.3887  133.5820  159.5485 H   0  0  0  0  0  0  0  0  0  0  0  0
  147.6740  132.7304  158.7871 H   0  0  0  0  0  0  0  0  0  0  0  0
  147.2499  131.7986  160.9534 H   0  0  0  0  0  0  0  0  0  0  0  0
  148.8909  132.3325  160.7911 H   0  0  0  0  0  0  0  0  0  0  0  0
  147.7379  132.7059  163.0242 H   0  0  0  0  0  0  0  0  0  0  0  0
  148.6522  134.0253  162.4116 H   0  0  0  0  0  0  0  0  0  0  0  0
  145.7554  134.0895  161.5994 H   0  0  0  0  0  0  0  0  0  0  0  0
  145.9941  134.0859  163.3038 H   0  0  0  0  0  0  0  0  0  0  0  0
  145.8343  136.3739  162.2425 H   0  0  0  0  0  0  0  0  0  0  0  0
  147.1440  136.1220  163.3539 H   0  0  0  0  0  0  0  0  0  0  0  0
  147.8055  137.4444  161.4240 H   0  0  0  0  0  0  0  0  0  0  0  0
  148.8086  136.0548  161.5785 H   0  0  0  0  0  0  0  0  0  0  0  0
  147.8359  136.8892  159.2822 H   0  0  0  0  0  0  0  0  0  0  0  0
  146.4146  135.9892  159.6821 H   0  0  0  0  0  0  0  0  0  0  0  0
  1  2  3  0  0  0  0
  2  3  1  0  0  0  0
  3 24  1  0  0  0  0
  3  4  2  0  0  0  0
  4  5  1  0  0  0  0
  4 26  1  0  0  0  0
  5  6  1  0  0  0  0
  5  9  1  0  0  0  0
  6  8  1  0  0  0  0
  6  7  1  0  0  0  0
  6 27  1  0  0  0  0
  7  8  1  0  0  0  0
  7 28  1  0  0  0  0
  7 29  1  0  0  0  0
  8 30  1  0  0  0  0
  8 31  1  0  0  0  0
  9 10  2  0  0  0  0
  9 11  1  0  0  0  0
 11 12  1  0  0  0  0
 11 24  1  0  0  0  0
 12 13  1  0  0  0  0
 12 32  1  0  0  0  0
 12 33  1  0  0  0  0
 13 14  2  0  0  0  0
 13 15  1  0  0  0  0
 15 16  1  0  0  0  0
 15 34  1  0  0  0  0
 16 23  1  0  0  0  0
 16 17  1  0  0  0  0
 16 35  1  0  0  0  0
 17 18  1  0  0  0  0
 17 36  1  0  0  0  0
 17 37  1  0  0  0  0
 18 19  1  0  0  0  0
 18 38  1  0  0  0  0
 18 39  1  0  0  0  0
 19 20  1  0  0  0  0
 19 40  1  0  0  0  0
 19 41  1  0  0  0  0
 20 21  1  0  0  0  0
 20 42  1  0  0  0  0
 20 43  1  0  0  0  0
 21 22  1  0  0  0  0
 21 44  1  0  0  0  0
 21 45  1  0  0  0  0
 22 23  1  0  0  0  0
 22 46  1  0  0  0  0
 22 47  1  0  0  0  0
 23 48  1  0  0  0  0
 23 49  1  0  0  0  0
 24 25  2  0  0  0  0
M  END
> <s_m_source_file>
AV-unprocessed.smi

> <i_m_source_file_index>
2869

> <i_lp_mmshare_version>
43012

> <i_f3d_flags>
0

> <s_epik_input>
TiNDYzFbY0hdbihbQ0hdMltDSDJdW0NIMl0yKWMoPU8pbihjMT1PKVtDSDJdQyg9TylbTkhdW0NIXTNbQ0gyXVtDSDJdW0NIMl1bQ0gyXVtDSDJdW0NIMl1bQ0gyXTM=

> <s_epik_cmdline>
J2VwaWtfcHl0aG9uJywgJy1waCcsICc3LjAnLCAnLXRuJywgJzgnLCAnLW1hJywgJzIwMCcsICctbWV0YWxfYmluZGluZycsICctaW1hZScsICc8aW5maWxlLm1hZT4nLCAnLW9tYWUnLCAnPG91dGZpbGUubWFlPic=

> <r_lp_tautomer_probability>
1

> <r_epik_Ionization_Penalty>
2.03018e-08

> <r_epik_Ionization_Penalty_Charging>
8.701e-11

> <r_epik_Ionization_Penalty_Neutral>
2.02148e-08

> <r_epik_State_Penalty>
-0

> <r_epik_Charging_Adjusted_Penalty>
8.701e-11

> <i_epik_Tot_Q>
0

> <i_epik_Tot_abs_Q>
0

> <r_epik_Metal_State_Penalty>
-0

> <b_epik_Metal_Only>
0

> <s_lp_Force_Field>
OPLS_2005

> <r_lp_Energy>
47.5685

> <b_lp_Chiralities_Consistent>
1

> <s_lp_Variant>
AV-unprocessed.smi:2869-1

> <Gold.Version>
5.8.1

> <Gold.Id.Protein>
6NUR|6NUR_protein|mol2

> <Gold.PLP.Fitness>
48.1018

> <Gold.PLP.PLP>
-40.9291

> <Gold.PLP.part.hbond>
-3.0000

> <Gold.PLP.part.metal>
0.0000

> <Gold.PLP.part.buried>
-4.4907

> <Gold.PLP.part.nonpolar>
-34.2231

> <Gold.PLP.part.repulsive>
0.1980

> <Gold.PLP.ligand.clash>
0.0000

> <Gold.PLP.ligand.torsion>
0.9405

> <Gold.PLP.Chemscore.Hbond>
2.9440

> <Gold.PLP.Chemscore.CHOScore>
0.0000

> <Gold.PLP.Chemscore.Metal>
0.0000

> <Gold.Chemscore.Hbonds>
donor molecule, donor type, donor heavy atom, donor atom, acceptor molecule, acceptor atom, score
      P1  H  6896  6908       L1    14  0.94
      P1  H  7997  8009       L1     1  0.83
      P1  H 10752 10765       L1    25  1.00

> <Gold.PLP.Chemscore.Internal.Correction>
0.2216

> <Gold.Rescore>
     Score         DG    S(hbond)    S(metal)    S(lipo)     H(rot)  DE(clash)    DE(int)     intcor
     20.29     -21.09       2.94        0.00      86.18       1.68       0.01       0.79       ----

> <Gold.Chemscore.Fitness>
20.2906

> <Gold.Chemscore.DG>
-21.0891

> <Gold.Chemscore.ZeroCoef>
-5.4800

> <Gold.Chemscore.Hbond>
2.9442

> <Gold.Chemscore.Metal>
0.0000

> <Gold.Chemscore.Lipo>
86.1800

> <Gold.Chemscore.Internal_Hbond>
0.0000

> <Gold.Chemscore.DEClash>
0.0108

> <Gold.Chemscore.DEInternal>
0.7877

> <Gold.Chemscore.Rot>
1.6826

> <Gold.Chemscore.Internal.Correction>
   9.000000E+99

> <Gold.Chemscore.Hbonds>
donor molecule, donor type, donor heavy atom, donor atom, acceptor molecule, acceptor atom, score
      P1  H  6896  6908       L1    14  0.92
      P1  H  7997  8009       L1     1  0.80
      P1  H 10752 10765       L1    25  1.00

> <Gold.Chemscore.Hbond.Weighted>
-9.8336

> <Gold.Chemscore.Metal.Weighted>
-0.0000

> <Gold.Chemscore.Lipo.Weighted>
-10.0831

> <Gold.Chemscore.Internal_Hbond.Weighted>
0.0000

> <Gold.Chemscore.DEClash.Weighted>
0.0108

> <Gold.Chemscore.DEInternal.Weighted>
0.7877

> <Gold.Chemscore.Rot.Weighted>
4.3076

> <Gold.Chemscore.Internal.Correction.Weighted>
   9.000000E+99

> <Gold.Protein.RotatedTorsions>
[ 6907 6896 6895 6894 ] final  112.52 input  -60.11 | X-H torsion
[ 7974 7965 7964 7962 ] final -111.78 input  175.53 | X-H torsion
[ 8008 7997 7996 7995 ] final -144.73 input   59.86 | X-H torsion
[ 10167 10162 10161 10158 ] final  162.00 input  -65.29 | X-H torsion
[ 10718 10713 10712 10709 ] final  -53.74 input   66.30 | X-H torsion
[ 10763 10752 10751 10750 ] final -170.43 input  -60.55 | X-H torsion
[ 11005 11000 10999 10996 ] final  -58.83 input  -57.11 | X-H torsion

> <Gold.Protein.ActiveResidues>
 VAL166  LYS551  ARG553  GLY616  TRP617  ASP618  TYR619  PRO620  LYS621  CYS622 
 ASP623  PHE694  ASN695  SER759  ASP760  ASP761  ALA762  ILE779  LEU786  VAL792 
 PHE793  MET794  SER795  GLU796  ALA797  LYS798  CYS799  TRP800  GLU811  SER814 

> <Gold.Protein.RotatedAtoms>
  152.4912  133.8505  159.7198 H   0  0  0  0  0  0  0  0  0  0  0  0  # atno 6907 bound_to 6896
  150.9043  133.7068  159.2877 H   0  0  0  0  0  0  0  0  0  0  0  0  # atno 6908 bound_to 6896
  151.4499  135.1033  159.9747 H   0  0  0  0  0  0  0  0  0  0  0  0  # atno 6909 bound_to 6896
  145.1520  140.8834  143.3641 H   0  0  0  0  0  0  0  0  0  0  0  0  # atno 7974 bound_to 7965
  155.5316  140.0600  157.2888 H   0  0  0  0  0  0  0  0  0  0  0  0  # atno 8008 bound_to 7997
  154.4482  140.1935  156.0545 H   0  0  0  0  0  0  0  0  0  0  0  0  # atno 8009 bound_to 7997
  156.0648  140.3268  155.7508 H   0  0  0  0  0  0  0  0  0  0  0  0  # atno 8010 bound_to 7997
  139.4855  144.4481  151.8866 H   0  0  0  0  0  0  0  0  0  0  0  0  # atno 10167 bound_to 10162
  156.1510  130.4151  149.9946 H   0  0  0  0  0  0  0  0  0  0  0  0  # atno 10718 bound_to 10713
  154.6415  135.2899  155.0097 H   0  0  0  0  0  0  0  0  0  0  0  0  # atno 10763 bound_to 10752
  154.1222  135.6546  153.4909 H   0  0  0  0  0  0  0  0  0  0  0  0  # atno 10764 bound_to 10752
  153.0329  135.5290  154.7284 H   0  0  0  0  0  0  0  0  0  0  0  0  # atno 10765 bound_to 10752
  141.1223  133.6613  156.4979 H   0  0  0  0  0  0  0  0  0  0  0  0  # atno 11005 bound_to 11000
  145.0421  139.3251  143.5971 LP  0  0  0  0  0  0  0  0  0  0  0  0  # atno 17320 bound_to 7965
  146.3493  139.9798  142.8697 LP  0  0  0  0  0  0  0  0  0  0  0  0  # atno 17321 bound_to 7965
  140.3936  144.2584  150.5898 LP  0  0  0  0  0  0  0  0  0  0  0  0  # atno 17342 bound_to 10162
  140.5123  143.2287  151.8516 LP  0  0  0  0  0  0  0  0  0  0  0  0  # atno 17343 bound_to 10162
  156.7803  130.9219  151.3646 LP  0  0  0  0  0  0  0  0  0  0  0  0  # atno 17370 bound_to 10713
  157.6656  130.9005  149.9926 LP  0  0  0  0  0  0  0  0  0  0  0  0  # atno 17371 bound_to 10713
  140.4470  134.6964  157.5020 LP  0  0  0  0  0  0  0  0  0  0  0  0  # atno 17394 bound_to 11000
  140.0191  134.6574  155.9266 LP  0  0  0  0  0  0  0  0  0  0  0  0  # atno 17395 bound_to 11000

$$$$
