AV-unprocessed.smi:3032|AV-procd|sdf|11569|dock7
  -GOLD-   2272016533D 1   1.00000     0.00000
 Structure written by MMmdl.
 36 37  0  0  0  0  0  0  0  0  2 V2000
  151.8337  145.6664  160.0539 C   0  0  0  0  0  0  0  0  0  0  0  0
  151.5977  144.2002  159.6650 C   0  0  2  0  0  0  0  0  0  0  0  0
  152.7847  143.3103  160.0779 C   0  0  0  0  0  0  0  0  0  0  0  0
  152.5451  141.8395  159.7047 C   0  0  0  0  0  0  0  0  0  0  0  0
  152.2339  141.6785  158.2039 C   0  0  0  0  0  0  0  0  0  0  0  0
  151.0960  142.5991  157.7002 C   0  0  1  0  0  0  0  0  0  0  0  0
  149.6884  142.0966  158.0728 C   0  0  0  0  0  0  0  0  0  0  0  0
  149.5339  141.0840  158.7561 O   0  0  0  0  0  0  0  0  0  0  0  0
  148.6616  142.8278  157.6140 N   0  0  0  0  0  0  0  0  0  0  0  0
  147.2555  142.5859  157.9195 C   0  0  0  0  0  0  0  0  0  0  0  0
  146.6351  143.7067  158.7755 C   0  0  0  0  0  0  0  0  0  0  0  0
  145.8730  143.1915  159.9809 C   0  0  0  0  0  0  0  0  0  0  0  0
  145.7064  141.8935  160.3080 N   0  5  0  0  0  0  0  0  0  0  0  0
  144.9611  141.7903  161.3910 N   0  0  0  0  0  0  0  0  0  0  0  0
  144.6716  143.0570  161.7113 C   0  0  0  0  0  0  0  0  0  0  0  0
  145.2121  143.9379  160.8631 N   0  0  0  0  0  0  0  0  0  0  0  0
  151.3277  144.0591  158.1523 C   0  0  0  0  0  0  0  0  0  0  0  0
  152.7073  146.0766  159.5465 H   0  0  0  0  0  0  0  0  0  0  0  0
  151.9936  145.7664  161.1279 H   0  0  0  0  0  0  0  0  0  0  0  0
  150.9743  146.2840  159.7905 H   0  0  0  0  0  0  0  0  0  0  0  0
  150.7148  143.8628  160.2089 H   0  0  0  0  0  0  0  0  0  0  0  0
  153.6963  143.6637  159.5941 H   0  0  0  0  0  0  0  0  0  0  0  0
  152.9551  143.3894  161.1521 H   0  0  0  0  0  0  0  0  0  0  0  0
  153.4250  141.2485  159.9606 H   0  0  0  0  0  0  0  0  0  0  0  0
  151.7316  141.4377  160.3077 H   0  0  0  0  0  0  0  0  0  0  0  0
  153.1375  141.9017  157.6356 H   0  0  0  0  0  0  0  0  0  0  0  0
  151.9996  140.6351  157.9881 H   0  0  0  0  0  0  0  0  0  0  0  0
  151.1448  142.5886  156.6098 H   0  0  0  0  0  0  0  0  0  0  0  0
  148.8718  143.6518  157.0694 H   0  0  0  0  0  0  0  0  0  0  0  0
  146.7218  142.5197  156.9712 H   0  0  0  0  0  0  0  0  0  0  0  0
  147.1332  141.6193  158.4102 H   0  0  0  0  0  0  0  0  0  0  0  0
  147.4165  144.3852  159.1188 H   0  0  0  0  0  0  0  0  0  0  0  0
  145.9548  144.3051  158.1683 H   0  0  0  0  0  0  0  0  0  0  0  0
  144.0635  143.3376  162.5623 H   0  0  0  0  0  0  0  0  0  0  0  0
  150.4707  144.6743  157.8729 H   0  0  0  0  0  0  0  0  0  0  0  0
  152.1745  144.4664  157.5983 H   0  0  0  0  0  0  0  0  0  0  0  0
  1  2  1  0  0  0  0
  1 18  1  0  0  0  0
  1 19  1  0  0  0  0
  1 20  1  0  0  0  0
  2 17  1  0  0  0  0
  2  3  1  0  0  0  0
  2 21  1  0  0  0  0
  3  4  1  0  0  0  0
  3 22  1  0  0  0  0
  3 23  1  0  0  0  0
  4  5  1  0  0  0  0
  4 24  1  0  0  0  0
  4 25  1  0  0  0  0
  5  6  1  0  0  0  0
  5 26  1  0  0  0  0
  5 27  1  0  0  0  0
  6  7  1  0  0  0  0
  6 17  1  0  0  0  0
  6 28  1  0  0  0  0
  7  8  2  0  0  0  0
  7  9  1  0  0  0  0
  9 10  1  0  0  0  0
  9 29  1  0  0  0  0
 10 11  1  0  0  0  0
 10 30  1  0  0  0  0
 10 31  1  0  0  0  0
 11 32  1  0  0  0  0
 11 33  1  0  0  0  0
 11 12  1  0  0  0  0
 12 16  2  0  0  0  0
 12 13  1  0  0  0  0
 13 14  1  0  0  0  0
 14 15  2  0  0  0  0
 15 16  1  0  0  0  0
 15 34  1  0  0  0  0
 17 35  1  0  0  0  0
 17 36  1  0  0  0  0
M  CHG  1  13  -1
M  END
> <s_m_source_file>
AV-unprocessed.smi

> <i_m_source_file_index>
3032

> <i_lp_mmshare_version>
43012

> <i_f3d_flags>
0

> <s_epik_input>
W0NIM11bQ0BASF0xW0NIMl1bQ0gyXVtDSDJdW0NASF0oW0NIMl0xKUMoPU8pW05IXVtDSDJdW0NIMl1jMm5uW2NIXVtuSF0y

> <s_epik_cmdline>
J2VwaWtfcHl0aG9uJywgJy1waCcsICc3LjAnLCAnLXRuJywgJzgnLCAnLW1hJywgJzIwMCcsICctbWV0YWxfYmluZGluZycsICctaW1hZScsICc8aW5maWxlLm1hZT4nLCAnLW9tYWUnLCAnPG91dGZpbGUubWFlPic=

> <r_lp_tautomer_probability>
0.948284

> <r_epik_Ionization_Penalty>
12.042

> <r_epik_Ionization_Penalty_Charging>
12.042

> <r_epik_Ionization_Penalty_Neutral>
4.36781e-08

> <r_epik_State_Penalty>
4.67286

> <r_epik_Charging_Adjusted_Penalty>
16.7149

> <i_epik_Tot_Q>
-1

> <i_epik_Tot_abs_Q>
1

> <r_epik_Metal_State_Penalty>
0.981637

> <b_epik_Metal_Only>
1

> <s_lp_Force_Field>
OPLS_2005

> <r_lp_Energy>
8.77891

> <b_lp_Chiralities_Consistent>
1

> <s_lp_Variant>
AV-unprocessed.smi:3032-13

> <Gold.Version>
5.8.1

> <Gold.Id.Protein>
6NUR|6NUR_protein|mol2

> <Gold.PLP.Fitness>
42.4385

> <Gold.PLP.PLP>
-34.1700

> <Gold.PLP.part.hbond>
-5.9724

> <Gold.PLP.part.metal>
0.0000

> <Gold.PLP.part.buried>
-1.2894

> <Gold.PLP.part.nonpolar>
-27.0746

> <Gold.PLP.part.repulsive>
0.1391

> <Gold.PLP.ligand.clash>
0.0000

> <Gold.PLP.ligand.torsion>
0.3939

> <Gold.PLP.Chemscore.Hbond>
3.0000

> <Gold.PLP.Chemscore.CHOScore>
0.0000

> <Gold.PLP.Chemscore.Metal>
0.0000

> <Gold.Chemscore.Hbonds>
donor molecule, donor type, donor heavy atom, donor atom, acceptor molecule, acceptor atom, score
      L1  H     9    29       P1  8028  1.00
      P1  H  6934  6946       L1    13  1.90

> <Gold.PLP.Chemscore.Internal.Correction>
0.0563

> <Gold.Rescore>
     Score         DG    S(hbond)    S(metal)    S(lipo)     H(rot)  DE(clash)    DE(int)     intcor
     11.73     -12.34       1.08        0.00      76.29       2.21       0.07       0.54       ----

> <Gold.Chemscore.Fitness>
11.7275

> <Gold.Chemscore.DG>
-12.3402

> <Gold.Chemscore.ZeroCoef>
-5.4800

> <Gold.Chemscore.Hbond>
1.0791

> <Gold.Chemscore.Metal>
0.0000

> <Gold.Chemscore.Lipo>
76.2937

> <Gold.Chemscore.Internal_Hbond>
0.0000

> <Gold.Chemscore.DEClash>
0.0749

> <Gold.Chemscore.DEInternal>
0.5377

> <Gold.Chemscore.Rot>
2.2149

> <Gold.Chemscore.Internal.Correction>
   9.000000E+99

> <Gold.Chemscore.Hbonds>
donor molecule, donor type, donor heavy atom, donor atom, acceptor molecule, acceptor atom, score
      L1  H     9    29       P1  8028  0.30
      P1  H  6934  6946       L1    13  0.21

> <Gold.Chemscore.Hbond.Weighted>
-3.6040

> <Gold.Chemscore.Metal.Weighted>
-0.0000

> <Gold.Chemscore.Lipo.Weighted>
-8.9264

> <Gold.Chemscore.Internal_Hbond.Weighted>
0.0000

> <Gold.Chemscore.DEClash.Weighted>
0.0749

> <Gold.Chemscore.DEInternal.Weighted>
0.5377

> <Gold.Chemscore.Rot.Weighted>
5.6702

> <Gold.Chemscore.Internal.Correction.Weighted>
   9.000000E+99

> <Gold.Protein.RotatedTorsions>
[ 6907 6896 6895 6894 ] final  -27.58 input  -60.11 | X-H torsion
[ 7974 7965 7964 7962 ] final  -69.92 input  175.53 | X-H torsion
[ 8008 7997 7996 7995 ] final  146.29 input   59.86 | X-H torsion
[ 10167 10162 10161 10158 ] final  114.62 input  -65.29 | X-H torsion
[ 10718 10713 10712 10709 ] final -174.78 input   66.30 | X-H torsion
[ 10763 10752 10751 10750 ] final   18.48 input  -60.55 | X-H torsion
[ 11005 11000 10999 10996 ] final  125.49 input  -57.11 | X-H torsion

> <Gold.Protein.ActiveResidues>
 VAL166  LYS551  ARG553  GLY616  TRP617  ASP618  TYR619  PRO620  LYS621  CYS622 
 ASP623  PHE694  ASN695  SER759  ASP760  ASP761  ALA762  ILE779  LEU786  VAL792 
 PHE793  MET794  SER795  GLU796  ALA797  LYS798  CYS799  TRP800  GLU811  SER814 

> <Gold.Protein.RotatedAtoms>
  151.1449  135.0198  159.8641 H   0  0  0  0  0  0  0  0  0  0  0  0  # atno 6907 bound_to 6896
  152.5453  134.1456  159.8507 H   0  0  0  0  0  0  0  0  0  0  0  0  # atno 6908 bound_to 6896
  151.1535  133.4846  159.2627 H   0  0  0  0  0  0  0  0  0  0  0  0  # atno 6909 bound_to 6896
  145.6976  140.9129  143.0748 H   0  0  0  0  0  0  0  0  0  0  0  0  # atno 7974 bound_to 7965
  156.2859  140.2186  156.5353 H   0  0  0  0  0  0  0  0  0  0  0  0  # atno 8008 bound_to 7997
  154.7415  140.0487  157.0837 H   0  0  0  0  0  0  0  0  0  0  0  0  # atno 8009 bound_to 7997
  155.0225  140.3125  155.4791 H   0  0  0  0  0  0  0  0  0  0  0  0  # atno 8010 bound_to 7997
  139.6375  144.7121  151.2304 H   0  0  0  0  0  0  0  0  0  0  0  0  # atno 10167 bound_to 10162
  156.7902  130.9515  151.3120 H   0  0  0  0  0  0  0  0  0  0  0  0  # atno 10718 bound_to 10713
  153.1246  135.6727  153.9279 H   0  0  0  0  0  0  0  0  0  0  0  0  # atno 10763 bound_to 10752
  153.8784  135.3061  155.3446 H   0  0  0  0  0  0  0  0  0  0  0  0  # atno 10764 bound_to 10752
  154.7653  135.4967  153.9622 H   0  0  0  0  0  0  0  0  0  0  0  0  # atno 10765 bound_to 10752
  139.9409  134.9635  156.8567 H   0  0  0  0  0  0  0  0  0  0  0  0  # atno 11005 bound_to 11000
  144.6978  139.8904  143.7453 LP  0  0  0  0  0  0  0  0  0  0  0  0  # atno 17320 bound_to 7965
  146.0827  139.3814  143.0455 LP  0  0  0  0  0  0  0  0  0  0  0  0  # atno 17321 bound_to 7965
  140.7473  143.6370  150.8370 LP  0  0  0  0  0  0  0  0  0  0  0  0  # atno 17342 bound_to 10162
  140.0003  143.5751  152.2878 LP  0  0  0  0  0  0  0  0  0  0  0  0  # atno 17343 bound_to 10162
  157.6604  130.8961  149.9818 LP  0  0  0  0  0  0  0  0  0  0  0  0  # atno 17370 bound_to 10713
  156.1164  130.3647  149.9961 LP  0  0  0  0  0  0  0  0  0  0  0  0  # atno 17371 bound_to 10713
  140.5954  134.0222  155.7516 LP  0  0  0  0  0  0  0  0  0  0  0  0  # atno 17394 bound_to 11000
  141.1043  133.9718  157.3024 LP  0  0  0  0  0  0  0  0  0  0  0  0  # atno 17395 bound_to 11000

$$$$
