AV-unprocessed.smi:240|AV-procd|sdf|1829|dock5
  -GOLD-   2262020433D 1   1.00000     0.00000
 Structure written by MMmdl.
 55 59  0  0  0  0  0  0  0  0  1 V2000
  146.4570  131.3707  153.3836 O   0  0  0  0  0  0  0  0  0  0  0  0
  147.3133  132.0522  152.4838 C   0  0  1  0  0  0  0  0  0  0  0  0
  146.4526  132.8234  151.4816 C   0  0  0  0  0  0  0  0  0  0  0  0
  146.1213  134.1522  152.1673 C   0  0  0  0  0  0  0  0  0  0  0  0
  147.0945  134.2814  153.3480 C   0  0  0  0  0  0  0  0  0  0  0  0
  148.1305  133.1471  153.2015 C   0  0  1  0  0  0  0  0  0  0  0  0
  148.8814  132.6926  154.4985 C   0  0  1  0  0  0  0  0  0  0  0  0
  149.6385  131.3619  154.2402 C   0  0  0  0  0  0  0  0  0  0  0  0
  150.3662  130.9457  155.3884 O   0  0  0  0  0  0  0  0  0  0  0  0
  151.3633  131.8891  155.7458 C   0  0  0  0  0  0  0  0  0  0  0  0
  150.6713  133.2053  156.1102 C   0  0  0  0  0  0  0  0  0  0  0  0
  149.8550  133.6811  154.9968 N   0  0  0  0  0  0  0  0  0  0  0  0
  149.4030  134.9228  155.2762 C   0  0  0  0  0  0  0  0  0  0  0  0
  148.1774  135.0169  155.8480 N   0  0  0  0  0  0  0  0  0  0  0  0
  147.6695  136.2176  156.1424 C   0  0  0  0  0  0  0  0  0  0  0  0
  148.2066  137.4234  155.9438 N   0  0  0  0  0  0  0  0  0  0  0  0
  149.4333  137.3307  155.3543 C   0  0  0  0  0  0  0  0  0  0  0  0
  150.1019  136.1294  154.9874 C   0  0  0  0  0  0  0  0  0  0  0  0
  151.3313  136.4270  154.4122 N   0  0  0  0  0  0  0  0  0  0  0  0
  151.3874  137.7306  154.4405 C   0  0  0  0  0  0  0  0  0  0  0  0
  150.2859  138.3550  154.9816 N   0  0  0  0  0  0  0  0  0  0  0  0
  150.0804  139.7879  155.1279 C   0  0  0  0  0  0  0  0  0  0  0  0
  151.0301  140.4406  156.1592 C   0  0  1  0  0  0  0  0  0  0  0  0
  152.3674  140.2749  155.7197 O   0  0  0  0  0  0  0  0  0  0  0  0
  150.7772  141.9276  156.3906 C   0  0  0  0  0  0  0  0  0  0  0  0
  151.1754  142.1164  157.8474 C   0  0  0  0  0  0  0  0  0  0  0  0
  150.6823  140.9360  158.4576 O   0  0  0  0  0  0  0  0  0  0  0  0
  150.9055  139.8410  157.5743 C   0  0  0  0  0  0  0  0  0  0  0  0
  146.1282  130.5940  152.9575 H   0  0  0  0  0  0  0  0  0  0  0  0
  147.9480  131.3253  151.9759 H   0  0  0  0  0  0  0  0  0  0  0  0
  147.0406  133.0229  150.5848 H   0  0  0  0  0  0  0  0  0  0  0  0
  145.5629  132.2755  151.1682 H   0  0  0  0  0  0  0  0  0  0  0  0
  146.2272  134.9830  151.4691 H   0  0  0  0  0  0  0  0  0  0  0  0
  145.0919  134.1570  152.5273 H   0  0  0  0  0  0  0  0  0  0  0  0
  147.5539  135.2689  153.3574 H   0  0  0  0  0  0  0  0  0  0  0  0
  146.5415  134.1654  154.2807 H   0  0  0  0  0  0  0  0  0  0  0  0
  148.8843  133.4879  152.4894 H   0  0  0  0  0  0  0  0  0  0  0  0
  148.1483  132.5088  155.2844 H   0  0  0  0  0  0  0  0  0  0  0  0
  148.9463  130.5561  154.0002 H   0  0  0  0  0  0  0  0  0  0  0  0
  150.3158  131.4586  153.3898 H   0  0  0  0  0  0  0  0  0  0  0  0
  151.9260  131.5095  156.5986 H   0  0  0  0  0  0  0  0  0  0  0  0
  152.0717  132.0281  154.9275 H   0  0  0  0  0  0  0  0  0  0  0  0
  150.0461  133.0567  156.9918 H   0  0  0  0  0  0  0  0  0  0  0  0
  151.4226  133.9525  156.3713 H   0  0  0  0  0  0  0  0  0  0  0  0
  146.6921  136.2111  156.6021 H   0  0  0  0  0  0  0  0  0  0  0  0
  152.2368  138.2777  154.0576 H   0  0  0  0  0  0  0  0  0  0  0  0
  150.2149  140.2524  154.1502 H   0  0  0  0  0  0  0  0  0  0  0  0
  149.0400  139.9602  155.4065 H   0  0  0  0  0  0  0  0  0  0  0  0
  152.4961  140.8053  154.9482 H   0  0  0  0  0  0  0  0  0  0  0  0
  151.3197  142.5806  155.7053 H   0  0  0  0  0  0  0  0  0  0  0  0
  149.7143  142.1493  156.2898 H   0  0  0  0  0  0  0  0  0  0  0  0
  152.2599  142.1642  157.9565 H   0  0  0  0  0  0  0  0  0  0  0  0
  150.7411  143.0119  158.2921 H   0  0  0  0  0  0  0  0  0  0  0  0
  150.0711  139.1441  157.6577 H   0  0  0  0  0  0  0  0  0  0  0  0
  151.8073  139.3057  157.8759 H   0  0  0  0  0  0  0  0  0  0  0  0
  1  2  1  0  0  0  0
  1 29  1  0  0  0  0
  2  6  1  0  0  0  0
  2  3  1  0  0  0  0
  2 30  1  0  0  0  0
  3  4  1  0  0  0  0
  3 31  1  0  0  0  0
  3 32  1  0  0  0  0
  4  5  1  0  0  0  0
  4 33  1  0  0  0  0
  4 34  1  0  0  0  0
  5  6  1  0  0  0  0
  5 35  1  0  0  0  0
  5 36  1  0  0  0  0
  6  7  1  0  0  0  0
  6 37  1  0  0  0  0
  7 12  1  0  0  0  0
  7  8  1  0  0  0  0
  7 38  1  0  0  0  0
  8  9  1  0  0  0  0
  8 39  1  0  0  0  0
  8 40  1  0  0  0  0
  9 10  1  0  0  0  0
 10 11  1  0  0  0  0
 10 41  1  0  0  0  0
 10 42  1  0  0  0  0
 11 12  1  0  0  0  0
 11 43  1  0  0  0  0
 11 44  1  0  0  0  0
 12 13  1  0  0  0  0
 13 18  1  0  0  0  0
 13 14  2  0  0  0  0
 14 15  1  0  0  0  0
 15 16  2  0  0  0  0
 15 45  1  0  0  0  0
 16 17  1  0  0  0  0
 17 21  1  0  0  0  0
 17 18  2  0  0  0  0
 18 19  1  0  0  0  0
 19 20  2  0  0  0  0
 20 21  1  0  0  0  0
 20 46  1  0  0  0  0
 21 22  1  0  0  0  0
 22 23  1  0  0  0  0
 22 47  1  0  0  0  0
 22 48  1  0  0  0  0
 23 28  1  0  0  0  0
 23 24  1  0  0  0  0
 23 25  1  0  0  0  0
 24 49  1  0  0  0  0
 25 26  1  0  0  0  0
 25 50  1  0  0  0  0
 25 51  1  0  0  0  0
 26 27  1  0  0  0  0
 26 52  1  0  0  0  0
 26 53  1  0  0  0  0
 27 28  1  0  0  0  0
 28 54  1  0  0  0  0
 28 55  1  0  0  0  0
M  END
> <s_m_source_file>
AV-unprocessed.smi

> <i_m_source_file_index>
240

> <i_lp_mmshare_version>
43012

> <i_f3d_flags>
0

> <s_epik_input>
W09IXVtDQEBIXTFbQ0gyXVtDSDJdW0NIMl1bQ0BIXTFbQ0BASF0yW0NIMl1PW0NIMl1bQ0gyXU4yYyhuW2NIXW4zKWMoYzM0KW5bY0hdbjRbQ0gyXVtDQEBdNShbT0hdKVtDSDJdW0NIMl1PW0NIMl01

> <s_epik_cmdline>
J2VwaWtfcHl0aG9uJywgJy1waCcsICc3LjAnLCAnLXRuJywgJzgnLCAnLW1hJywgJzIwMCcsICctbWV0YWxfYmluZGluZycsICctaW1hZScsICc8aW5maWxlLm1hZT4nLCAnLW9tYWUnLCAnPG91dGZpbGUubWFlPic=

> <r_lp_tautomer_probability>
1

> <r_epik_Ionization_Penalty>
0.000130618

> <r_epik_Ionization_Penalty_Charging>
0

> <r_epik_Ionization_Penalty_Neutral>
0.000130618

> <r_epik_State_Penalty>
-0

> <r_epik_Charging_Adjusted_Penalty>
0

> <i_epik_Tot_Q>
0

> <i_epik_Tot_abs_Q>
0

> <r_epik_Metal_State_Penalty>
-0

> <b_epik_Metal_Only>
0

> <s_lp_Force_Field>
OPLS_2005

> <r_lp_Energy>
62.2831

> <b_lp_Chiralities_Consistent>
1

> <s_lp_Variant>
AV-unprocessed.smi:240-6

> <Gold.Version>
5.8.1

> <Gold.Id.Protein>
6NUR|6NUR_protein|mol2

> <Gold.PLP.Fitness>
43.5449

> <Gold.PLP.PLP>
-38.9887

> <Gold.PLP.part.hbond>
-2.9888

> <Gold.PLP.part.metal>
0.0000

> <Gold.PLP.part.buried>
-3.0843

> <Gold.PLP.part.nonpolar>
-34.1521

> <Gold.PLP.part.repulsive>
1.4411

> <Gold.PLP.ligand.clash>
0.0000

> <Gold.PLP.ligand.torsion>
0.8721

> <Gold.PLP.Chemscore.Hbond>
2.0000

> <Gold.PLP.Chemscore.CHOScore>
0.0000

> <Gold.PLP.Chemscore.Metal>
0.0000

> <Gold.Chemscore.Hbonds>
donor molecule, donor type, donor heavy atom, donor atom, acceptor molecule, acceptor atom, score
      P1  H  7997  8009       L1    24  0.81
      P1  H 10752 10763       L1    19  1.00

> <Gold.PLP.Chemscore.Internal.Correction>
0.3002

> <Gold.Rescore>
     Score         DG    S(hbond)    S(metal)    S(lipo)     H(rot)  DE(clash)    DE(int)     intcor
      9.32     -13.19       1.70        0.00      83.00       3.00       1.54       2.33       ----

> <Gold.Chemscore.Fitness>
9.3218

> <Gold.Chemscore.DG>
-13.1900

> <Gold.Chemscore.ZeroCoef>
-5.4800

> <Gold.Chemscore.Hbond>
1.7034

> <Gold.Chemscore.Metal>
0.0000

> <Gold.Chemscore.Lipo>
82.9955

> <Gold.Chemscore.Internal_Hbond>
0.0000

> <Gold.Chemscore.DEClash>
1.5381

> <Gold.Chemscore.DEInternal>
2.3301

> <Gold.Chemscore.Rot>
3.0039

> <Gold.Chemscore.Internal.Correction>
   9.000000E+99

> <Gold.Chemscore.Hbonds>
donor molecule, donor type, donor heavy atom, donor atom, acceptor molecule, acceptor atom, score
      P1  H  7997  8009       L1    24  0.13
      P1  H 10752 10763       L1    19  0.91

> <Gold.Chemscore.Hbond.Weighted>
-5.6894

> <Gold.Chemscore.Metal.Weighted>
-0.0000

> <Gold.Chemscore.Lipo.Weighted>
-9.7105

> <Gold.Chemscore.Internal_Hbond.Weighted>
0.0000

> <Gold.Chemscore.DEClash.Weighted>
1.5381

> <Gold.Chemscore.DEInternal.Weighted>
2.3301

> <Gold.Chemscore.Rot.Weighted>
7.6899

> <Gold.Chemscore.Internal.Correction.Weighted>
   9.000000E+99

> <Gold.Protein.RotatedTorsions>
[ 6907 6896 6895 6894 ] final   16.83 input  -60.11 | X-H torsion
[ 7974 7965 7964 7962 ] final   45.34 input  175.53 | X-H torsion
[ 8008 7997 7996 7995 ] final -159.79 input   59.86 | X-H torsion
[ 10167 10162 10161 10158 ] final -176.50 input  -65.29 | X-H torsion
[ 10718 10713 10712 10709 ] final  -47.97 input   66.30 | X-H torsion
[ 10763 10752 10751 10750 ] final   57.55 input  -60.55 | X-H torsion
[ 11005 11000 10999 10996 ] final   58.37 input  -57.11 | X-H torsion

> <Gold.Protein.ActiveResidues>
 VAL166  LYS551  ARG553  GLY616  TRP617  ASP618  TYR619  PRO620  LYS621  CYS622 
 ASP623  PHE694  ASN695  SER759  ASP760  ASP761  ALA762  ILE779  LEU786  VAL792 
 PHE793  MET794  SER795  GLU796  ALA797  LYS798  CYS799  TRP800  GLU811  SER814 

> <Gold.Protein.RotatedAtoms>
  151.8401  135.0593  160.0446 H   0  0  0  0  0  0  0  0  0  0  0  0  # atno 6907 bound_to 6896
  152.2815  133.5471  159.5509 H   0  0  0  0  0  0  0  0  0  0  0  0  # atno 6908 bound_to 6896
  150.7191  134.0473  159.3828 H   0  0  0  0  0  0  0  0  0  0  0  0  # atno 6909 bound_to 6896
  146.0488  139.4974  142.9731 H   0  0  0  0  0  0  0  0  0  0  0  0  # atno 7974 bound_to 7965
  155.7678  140.0848  157.2123 H   0  0  0  0  0  0  0  0  0  0  0  0  # atno 8008 bound_to 7997
  154.3998  140.1531  156.2963 H   0  0  0  0  0  0  0  0  0  0  0  0  # atno 8009 bound_to 7997
  155.8777  140.3422  155.5868 H   0  0  0  0  0  0  0  0  0  0  0  0  # atno 8010 bound_to 7997
  139.5527  144.2069  152.1105 H   0  0  0  0  0  0  0  0  0  0  0  0  # atno 10167 bound_to 10162
  156.2033  130.4157  149.9212 H   0  0  0  0  0  0  0  0  0  0  0  0  # atno 10718 bound_to 10713
  152.9852  135.5637  154.5410 H   0  0  0  0  0  0  0  0  0  0  0  0  # atno 10763 bound_to 10752
  154.4864  135.2791  155.1533 H   0  0  0  0  0  0  0  0  0  0  0  0  # atno 10764 bound_to 10752
  154.3020  135.6305  153.5482 H   0  0  0  0  0  0  0  0  0  0  0  0  # atno 10765 bound_to 10752
  140.0382  134.5912  155.9416 H   0  0  0  0  0  0  0  0  0  0  0  0  # atno 11005 bound_to 11000
  145.6760  141.0204  143.1632 LP  0  0  0  0  0  0  0  0  0  0  0  0  # atno 17320 bound_to 7965
  144.7112  139.8365  143.7414 LP  0  0  0  0  0  0  0  0  0  0  0  0  # atno 17321 bound_to 7965
  140.1567  144.5064  150.6656 LP  0  0  0  0  0  0  0  0  0  0  0  0  # atno 17342 bound_to 10162
  140.6793  143.2319  151.5426 LP  0  0  0  0  0  0  0  0  0  0  0  0  # atno 17343 bound_to 10162
  156.6914  130.8897  151.3588 LP  0  0  0  0  0  0  0  0  0  0  0  0  # atno 17370 bound_to 10713
  157.6998  130.9320  150.0751 LP  0  0  0  0  0  0  0  0  0  0  0  0  # atno 17371 bound_to 10713
  141.1869  133.6558  156.5258 LP  0  0  0  0  0  0  0  0  0  0  0  0  # atno 17394 bound_to 11000
  140.4112  134.7270  157.4837 LP  0  0  0  0  0  0  0  0  0  0  0  0  # atno 17395 bound_to 11000

$$$$
