AV-unprocessed.smi:166|AV-procd|sdf|1388|dock9
  -GOLD-   2262019123D 1   1.00000     0.00000
 Structure written by MMmdl.
 54 58  0  0  0  0  0  0  0  0  1 V2000
  145.1999  135.6022  149.9335 O   0  0  0  0  0  0  0  0  0  0  0  0
  145.0522  134.7686  151.0707 C   0  0  1  0  0  0  0  0  0  0  0  0
  144.5180  135.6157  152.2504 C   0  0  0  0  0  0  0  0  0  0  0  0
  145.4689  136.6041  152.7381 N   0  0  0  0  0  0  0  0  0  0  0  0
  145.9819  137.6732  152.0383 C   0  0  0  0  0  0  0  0  0  0  0  0
  146.8245  138.4191  152.6987 N   0  0  0  0  0  0  0  0  0  0  0  0
  146.8871  137.8303  153.9562 C   0  0  0  0  0  0  0  0  0  0  0  0
  147.6051  138.1185  155.1513 C   0  0  0  0  0  0  0  0  0  0  0  0
  148.4506  139.1746  155.2627 N   0  0  0  0  0  0  0  0  0  0  0  0
  148.0974  140.3301  154.4384 C   0  0  0  0  0  0  0  0  0  0  0  0
  149.2877  141.2940  154.3088 C   0  0  0  0  0  0  0  0  0  0  0  0
  149.8232  141.6922  155.6921 C   0  0  0  0  0  0  0  0  0  0  0  0
  150.1817  140.4397  156.5081 C   0  0  1  0  0  0  0  0  0  0  0  0
  150.5835  140.8718  157.8008 O   0  0  0  0  0  0  0  0  0  0  0  0
  151.6654  141.7938  157.8039 C   0  0  0  0  0  0  0  0  0  0  0  0
  151.7250  142.5651  159.1098 C   0  0  0  0  0  0  0  0  0  0  0  0
  152.5988  143.7949  159.2478 C   0  0  0  0  0  0  0  0  0  0  0  0
  152.9637  142.5330  159.9817 C   0  0  0  0  0  0  0  0  0  0  0  0
  148.9662  139.4934  156.5957 C   0  0  0  0  0  0  0  0  0  0  0  0
  147.4176  137.2839  156.2091 N   0  0  0  0  0  0  0  0  0  0  0  0
  146.5815  136.2464  156.1115 C   0  0  0  0  0  0  0  0  0  0  0  0
  145.8474  135.8623  155.0659 N   0  0  0  0  0  0  0  0  0  0  0  0
  146.0379  136.6881  153.9974 C   0  0  0  0  0  0  0  0  0  0  0  0
  144.1239  133.6177  150.6993 C   0  0  0  0  0  0  0  0  0  0  0  0
  145.0851  132.5697  150.1550 C   0  0  0  0  0  0  0  0  0  0  0  0
  146.1945  132.6811  151.0289 O   0  0  0  0  0  0  0  0  0  0  0  0
  146.3971  134.0573  151.3351 C   0  0  0  0  0  0  0  0  0  0  0  0
  145.3461  135.0552  149.1769 H   0  0  0  0  0  0  0  0  0  0  0  0
  143.6034  136.1351  151.9611 H   0  0  0  0  0  0  0  0  0  0  0  0
  144.2473  134.9654  153.0831 H   0  0  0  0  0  0  0  0  0  0  0  0
  145.7148  137.8808  151.0123 H   0  0  0  0  0  0  0  0  0  0  0  0
  147.7705  140.0275  153.4443 H   0  0  0  0  0  0  0  0  0  0  0  0
  147.2533  140.8434  154.9011 H   0  0  0  0  0  0  0  0  0  0  0  0
  150.0819  140.8177  153.7323 H   0  0  0  0  0  0  0  0  0  0  0  0
  148.9898  142.1829  153.7524 H   0  0  0  0  0  0  0  0  0  0  0  0
  150.6975  142.3349  155.5855 H   0  0  0  0  0  0  0  0  0  0  0  0
  149.0689  142.2756  156.2219 H   0  0  0  0  0  0  0  0  0  0  0  0
  151.0109  139.9322  156.0110 H   0  0  0  0  0  0  0  0  0  0  0  0
  152.6157  141.2783  157.6669 H   0  0  0  0  0  0  0  0  0  0  0  0
  151.5538  142.5055  156.9850 H   0  0  0  0  0  0  0  0  0  0  0  0
  150.7738  142.5993  159.6375 H   0  0  0  0  0  0  0  0  0  0  0  0
  153.2197  144.0803  158.4008 H   0  0  0  0  0  0  0  0  0  0  0  0
  152.2087  144.6228  159.8363 H   0  0  0  0  0  0  0  0  0  0  0  0
  152.8173  142.5195  161.0597 H   0  0  0  0  0  0  0  0  0  0  0  0
  153.8283  141.9770  159.6247 H   0  0  0  0  0  0  0  0  0  0  0  0
  148.1743  139.9593  157.1839 H   0  0  0  0  0  0  0  0  0  0  0  0
  149.2478  138.5715  157.1052 H   0  0  0  0  0  0  0  0  0  0  0  0
  146.4876  135.6364  156.9978 H   0  0  0  0  0  0  0  0  0  0  0  0
  143.6372  133.2198  151.5909 H   0  0  0  0  0  0  0  0  0  0  0  0
  143.3421  133.8920  149.9900 H   0  0  0  0  0  0  0  0  0  0  0  0
  144.6647  131.5639  150.1629 H   0  0  0  0  0  0  0  0  0  0  0  0
  145.3928  132.8095  149.1359 H   0  0  0  0  0  0  0  0  0  0  0  0
  147.2041  134.4599  150.7207 H   0  0  0  0  0  0  0  0  0  0  0  0
  146.7125  134.1302  152.3751 H   0  0  0  0  0  0  0  0  0  0  0  0
  1  2  1  0  0  0  0
  1 28  1  0  0  0  0
  2 27  1  0  0  0  0
  2  3  1  0  0  0  0
  2 24  1  0  0  0  0
  3  4  1  0  0  0  0
  3 29  1  0  0  0  0
  3 30  1  0  0  0  0
  4 23  1  0  0  0  0
  4  5  1  0  0  0  0
  5  6  2  0  0  0  0
  5 31  1  0  0  0  0
  6  7  1  0  0  0  0
  7 23  2  0  0  0  0
  7  8  1  0  0  0  0
  8  9  1  0  0  0  0
  8 20  2  0  0  0  0
  9 19  1  0  0  0  0
  9 10  1  0  0  0  0
 10 11  1  0  0  0  0
 10 32  1  0  0  0  0
 10 33  1  0  0  0  0
 11 12  1  0  0  0  0
 11 34  1  0  0  0  0
 11 35  1  0  0  0  0
 12 13  1  0  0  0  0
 12 36  1  0  0  0  0
 12 37  1  0  0  0  0
 13 14  1  0  0  0  0
 13 19  1  0  0  0  0
 13 38  1  0  0  0  0
 14 15  1  0  0  0  0
 15 16  1  0  0  0  0
 15 39  1  0  0  0  0
 15 40  1  0  0  0  0
 16 18  1  0  0  0  0
 16 17  1  0  0  0  0
 16 41  1  0  0  0  0
 17 18  1  0  0  0  0
 17 42  1  0  0  0  0
 17 43  1  0  0  0  0
 18 44  1  0  0  0  0
 18 45  1  0  0  0  0
 19 46  1  0  0  0  0
 19 47  1  0  0  0  0
 20 21  1  0  0  0  0
 21 22  2  0  0  0  0
 21 48  1  0  0  0  0
 22 23  1  0  0  0  0
 24 25  1  0  0  0  0
 24 49  1  0  0  0  0
 24 50  1  0  0  0  0
 25 26  1  0  0  0  0
 25 51  1  0  0  0  0
 25 52  1  0  0  0  0
 26 27  1  0  0  0  0
 27 53  1  0  0  0  0
 27 54  1  0  0  0  0
M  END
> <s_m_source_file>
AV-unprocessed.smi

> <i_m_source_file_index>
166

> <i_lp_mmshare_version>
43012

> <i_f3d_flags>
0

> <s_epik_input>
W0NIMl0xT1tDSDJdW0NIMl1bQ0BAXTEoW09IXSlbQ0gyXW4oW2NIXW4yKWMoYzIzKW5bY0hdbmMzTjRbQ0gyXVtDSDJdW0NIMl1bQ0BIXShbQ0gyXTQpT1tDSDJdW0NIXTVbQ0gyXVtDSDJdNQ==

> <s_epik_cmdline>
J2VwaWtfcHl0aG9uJywgJy1waCcsICc3LjAnLCAnLXRuJywgJzgnLCAnLW1hJywgJzIwMCcsICctbWV0YWxfYmluZGluZycsICctaW1hZScsICc8aW5maWxlLm1hZT4nLCAnLW9tYWUnLCAnPG91dGZpbGUubWFlPic=

> <r_lp_tautomer_probability>
1

> <r_epik_Ionization_Penalty>
0.00342552

> <r_epik_Ionization_Penalty_Charging>
0

> <r_epik_Ionization_Penalty_Neutral>
0.00342552

> <r_epik_State_Penalty>
0.0022204

> <r_epik_Charging_Adjusted_Penalty>
0.0022204

> <i_epik_Tot_Q>
0

> <i_epik_Tot_abs_Q>
0

> <r_epik_Metal_State_Penalty>
-0

> <b_epik_Metal_Only>
0

> <s_lp_Force_Field>
OPLS_2005

> <r_lp_Energy>
44.5811

> <b_lp_Chiralities_Consistent>
1

> <s_lp_Variant>
AV-unprocessed.smi:166-1

> <Gold.Version>
5.8.1

> <Gold.Id.Protein>
6NUR|6NUR_protein|mol2

> <Gold.PLP.Fitness>
43.8280

> <Gold.PLP.PLP>
-38.8477

> <Gold.PLP.part.hbond>
-1.8851

> <Gold.PLP.part.metal>
0.0000

> <Gold.PLP.part.buried>
-4.5314

> <Gold.PLP.part.nonpolar>
-32.2243

> <Gold.PLP.part.repulsive>
0.5845

> <Gold.PLP.ligand.clash>
0.0000

> <Gold.PLP.ligand.torsion>
1.0168

> <Gold.PLP.Chemscore.Hbond>
1.0000

> <Gold.PLP.Chemscore.CHOScore>
1.0000

> <Gold.PLP.Chemscore.Metal>
0.0000

> <Gold.Chemscore.Hbonds>
donor molecule, donor type, donor heavy atom, donor atom, acceptor molecule, acceptor atom, score
      L1  H     1    28       P1  7921  0.96
      L1  C     5    31       P1 10171  1.00

> <Gold.PLP.Chemscore.Internal.Correction>
1.0138

> <Gold.Rescore>
     Score         DG    S(hbond)    S(metal)    S(lipo)     H(rot)  DE(clash)    DE(int)     intcor
     11.71     -14.11       1.00        0.00     103.95       2.68       0.00       2.40       ----

> <Gold.Chemscore.Fitness>
11.7095

> <Gold.Chemscore.DG>
-14.1144

> <Gold.Chemscore.ZeroCoef>
-5.4800

> <Gold.Chemscore.Hbond>
0.9991

> <Gold.Chemscore.Metal>
0.0000

> <Gold.Chemscore.Lipo>
103.9536

> <Gold.Chemscore.Internal_Hbond>
0.0000

> <Gold.Chemscore.DEClash>
0.0000

> <Gold.Chemscore.DEInternal>
2.4050

> <Gold.Chemscore.Rot>
2.6817

> <Gold.Chemscore.Internal.Correction>
   9.000000E+99

> <Gold.Chemscore.Hbonds>
donor molecule, donor type, donor heavy atom, donor atom, acceptor molecule, acceptor atom, score
      L1  H     1    28       P1  7921  0.92

> <Gold.Chemscore.Hbond.Weighted>
-3.3369

> <Gold.Chemscore.Metal.Weighted>
-0.0000

> <Gold.Chemscore.Lipo.Weighted>
-12.1626

> <Gold.Chemscore.Internal_Hbond.Weighted>
0.0000

> <Gold.Chemscore.DEClash.Weighted>
0.0000

> <Gold.Chemscore.DEInternal.Weighted>
2.4050

> <Gold.Chemscore.Rot.Weighted>
6.8651

> <Gold.Chemscore.Internal.Correction.Weighted>
   9.000000E+99

> <Gold.Protein.RotatedTorsions>
[ 6907 6896 6895 6894 ] final   74.55 input  -60.11 | X-H torsion
[ 7974 7965 7964 7962 ] final  155.13 input  175.53 | X-H torsion
[ 8008 7997 7996 7995 ] final   17.04 input   59.86 | X-H torsion
[ 10167 10162 10161 10158 ] final  -70.04 input  -65.29 | X-H torsion
[ 10718 10713 10712 10709 ] final   15.18 input   66.30 | X-H torsion
[ 10763 10752 10751 10750 ] final  114.73 input  -60.55 | X-H torsion
[ 11005 11000 10999 10996 ] final   12.39 input  -57.11 | X-H torsion

> <Gold.Protein.ActiveResidues>
 VAL166  LYS551  ARG553  GLY616  TRP617  ASP618  TYR619  PRO620  LYS621  CYS622 
 ASP623  PHE694  ASN695  SER759  ASP760  ASP761  ALA762  ILE779  LEU786  VAL792 
 PHE793  MET794  SER795  GLU796  ALA797  LYS798  CYS799  TRP800  GLU811  SER814 

> <Gold.Protein.RotatedAtoms>
  152.4981  134.4254  159.9494 H   0  0  0  0  0  0  0  0  0  0  0  0  # atno 6907 bound_to 6896
  151.4230  133.3686  159.2766 H   0  0  0  0  0  0  0  0  0  0  0  0  # atno 6908 bound_to 6896
  150.9209  134.8649  159.7548 H   0  0  0  0  0  0  0  0  0  0  0  0  # atno 6909 bound_to 6896
  144.8044  139.7027  143.6168 H   0  0  0  0  0  0  0  0  0  0  0  0  # atno 7974 bound_to 7965
  154.8857  140.2979  155.5399 H   0  0  0  0  0  0  0  0  0  0  0  0  # atno 8008 bound_to 7997
  156.3021  140.2434  156.3800 H   0  0  0  0  0  0  0  0  0  0  0  0  # atno 8009 bound_to 7997
  154.8670  140.0403  157.1690 H   0  0  0  0  0  0  0  0  0  0  0  0  # atno 8010 bound_to 7997
  140.5384  143.2316  151.7135 H   0  0  0  0  0  0  0  0  0  0  0  0  # atno 10167 bound_to 10162
  157.0498  130.6265  149.5766 H   0  0  0  0  0  0  0  0  0  0  0  0  # atno 10718 bound_to 10713
  153.5117  135.3616  155.2590 H   0  0  0  0  0  0  0  0  0  0  0  0  # atno 10763 bound_to 10752
  154.8741  135.4024  154.3361 H   0  0  0  0  0  0  0  0  0  0  0  0  # atno 10764 bound_to 10752
  153.4015  135.7075  153.6489 H   0  0  0  0  0  0  0  0  0  0  0  0  # atno 10765 bound_to 10752
  140.4925  134.0826  155.7774 H   0  0  0  0  0  0  0  0  0  0  0  0  # atno 11005 bound_to 11000
  146.2332  139.5855  142.9541 LP  0  0  0  0  0  0  0  0  0  0  0  0  # atno 17320 bound_to 7965
  145.5474  141.0416  143.2297 LP  0  0  0  0  0  0  0  0  0  0  0  0  # atno 17321 bound_to 7965
  139.4979  144.4007  152.0184 LP  0  0  0  0  0  0  0  0  0  0  0  0  # atno 17342 bound_to 10162
  140.3114  144.3533  150.6033 LP  0  0  0  0  0  0  0  0  0  0  0  0  # atno 17343 bound_to 10162
  156.0011  130.5090  150.7666 LP  0  0  0  0  0  0  0  0  0  0  0  0  # atno 17370 bound_to 10713
  157.5039  131.0920  151.0281 LP  0  0  0  0  0  0  0  0  0  0  0  0  # atno 17371 bound_to 10713
  141.1477  133.9026  157.2176 LP  0  0  0  0  0  0  0  0  0  0  0  0  # atno 17394 bound_to 11000
  139.9760  135.0113  156.9633 LP  0  0  0  0  0  0  0  0  0  0  0  0  # atno 17395 bound_to 11000

$$$$
