AV-unprocessed.smi:2901|AV-procd|sdf|11149|dock4
  -GOLD-   2272016 23D 1   1.00000     0.00000
 Structure written by MMmdl.
 40 41  0  0  0  0  0  0  0  0  1 V2000
  148.5834  141.2414  154.9820 C   0  0  0  0  0  0  0  0  0  0  0  0
  149.4985  140.0661  154.9860 C   0  0  0  0  0  0  0  0  0  0  0  0
  149.1684  138.7847  155.1324 N   0  0  0  0  0  0  0  0  0  0  0  0
  150.3732  138.0985  155.0668 C   0  0  0  0  0  0  0  0  0  0  0  0
  150.4462  136.6068  155.1843 C   0  0  0  0  0  0  0  0  0  0  0  0
  149.0789  135.9854  155.5127 C   0  0  0  0  0  0  0  0  0  0  0  0
  148.3439  135.6319  154.3038 N   0  0  0  0  0  0  0  0  0  0  0  0
  147.0477  135.2946  154.2663 C   0  0  0  0  0  0  0  0  0  0  0  0
  146.3167  135.2504  155.2559 O   0  0  0  0  0  0  0  0  0  0  0  0
  146.6451  135.0040  153.0220 N   0  0  0  0  0  0  0  0  0  0  0  0
  145.2962  134.5845  152.6575 C   0  0  0  0  0  0  0  0  0  0  0  0
  145.2099  134.1188  151.1934 C   0  0  2  0  0  0  0  0  0  0  0  0
  143.8932  133.4419  150.8110 C   0  0  0  0  0  0  0  0  0  0  0  0
  144.2820  132.5246  149.6612 C   0  0  0  0  0  0  0  0  0  0  0  0
  145.8130  132.4986  149.7006 C   0  0  0  0  0  0  0  0  0  0  0  0
  146.1622  133.0998  150.9392 O   0  0  0  0  0  0  0  0  0  0  0  0
  151.3766  139.0145  154.8775 C   0  0  0  0  0  0  0  0  0  0  0  0
  152.8547  138.8891  154.7270 C   0  0  0  0  0  0  0  0  0  0  0  0
  150.8339  140.2704  154.8267 O   0  0  0  0  0  0  0  0  0  0  0  0
  147.5442  140.9131  154.9510 H   0  0  0  0  0  0  0  0  0  0  0  0
  148.7802  141.8646  154.1096 H   0  0  0  0  0  0  0  0  0  0  0  0
  148.7378  141.8361  155.8824 H   0  0  0  0  0  0  0  0  0  0  0  0
  150.8267  136.1793  154.2559 H   0  0  0  0  0  0  0  0  0  0  0  0
  151.1689  136.3364  155.9552 H   0  0  0  0  0  0  0  0  0  0  0  0
  149.1997  135.1057  156.1478 H   0  0  0  0  0  0  0  0  0  0  0  0
  148.4754  136.6957  156.0786 H   0  0  0  0  0  0  0  0  0  0  0  0
  148.8605  135.6406  153.4365 H   0  0  0  0  0  0  0  0  0  0  0  0
  147.3196  135.0692  152.2739 H   0  0  0  0  0  0  0  0  0  0  0  0
  144.9590  133.7913  153.3265 H   0  0  0  0  0  0  0  0  0  0  0  0
  144.6260  135.4291  152.8192 H   0  0  0  0  0  0  0  0  0  0  0  0
  145.4082  134.9521  150.5165 H   0  0  0  0  0  0  0  0  0  0  0  0
  143.5198  132.8439  151.6434 H   0  0  0  0  0  0  0  0  0  0  0  0
  143.1185  134.1593  150.5385 H   0  0  0  0  0  0  0  0  0  0  0  0
  143.8604  131.5288  149.8029 H   0  0  0  0  0  0  0  0  0  0  0  0
  143.9270  132.9062  148.7031 H   0  0  0  0  0  0  0  0  0  0  0  0
  146.2180  131.4894  149.6235 H   0  0  0  0  0  0  0  0  0  0  0  0
  146.2267  133.0943  148.8856 H   0  0  0  0  0  0  0  0  0  0  0  0
  153.1114  138.0046  154.1436 H   0  0  0  0  0  0  0  0  0  0  0  0
  153.3352  138.8030  155.7017 H   0  0  0  0  0  0  0  0  0  0  0  0
  153.2714  139.7593  154.2193 H   0  0  0  0  0  0  0  0  0  0  0  0
  1  2  1  0  0  0  0
  1 20  1  0  0  0  0
  1 21  1  0  0  0  0
  1 22  1  0  0  0  0
  2 19  1  0  0  0  0
  2  3  2  0  0  0  0
  3  4  1  0  0  0  0
  4  5  1  0  0  0  0
  4 17  2  0  0  0  0
  5  6  1  0  0  0  0
  5 23  1  0  0  0  0
  5 24  1  0  0  0  0
  6  7  1  0  0  0  0
  6 25  1  0  0  0  0
  6 26  1  0  0  0  0
  7  8  1  0  0  0  0
  7 27  1  0  0  0  0
  8  9  2  0  0  0  0
  8 10  1  0  0  0  0
 10 11  1  0  0  0  0
 10 28  1  0  0  0  0
 11 12  1  0  0  0  0
 11 29  1  0  0  0  0
 11 30  1  0  0  0  0
 12 16  1  0  0  0  0
 12 13  1  0  0  0  0
 12 31  1  0  0  0  0
 13 14  1  0  0  0  0
 13 32  1  0  0  0  0
 13 33  1  0  0  0  0
 14 15  1  0  0  0  0
 14 34  1  0  0  0  0
 14 35  1  0  0  0  0
 15 16  1  0  0  0  0
 15 36  1  0  0  0  0
 15 37  1  0  0  0  0
 17 18  1  0  0  0  0
 17 19  1  0  0  0  0
 18 38  1  0  0  0  0
 18 39  1  0  0  0  0
 18 40  1  0  0  0  0
M  END
> <s_m_source_file>
AV-unprocessed.smi

> <i_m_source_file_index>
2901

> <i_lp_mmshare_version>
43012

> <i_f3d_flags>
0

> <s_epik_input>
W0NIM11jMW5jKGMobzEpW0NIM10pW0NIMl1bQ0gyXVtOSF1DKD1PKVtOSF1bQ0gyXVtDQEBIXTJbQ0gyXVtDSDJdW0NIMl1PMg==

> <s_epik_cmdline>
J2VwaWtfcHl0aG9uJywgJy1waCcsICc3LjAnLCAnLXRuJywgJzgnLCAnLW1hJywgJzIwMCcsICctbWV0YWxfYmluZGluZycsICctaW1hZScsICc8aW5maWxlLm1hZT4nLCAnLW9tYWUnLCAnPG91dGZpbGUubWFlPic=

> <r_lp_tautomer_probability>
1

> <r_epik_Ionization_Penalty>
9.58254e-05

> <r_epik_Ionization_Penalty_Charging>
0

> <r_epik_Ionization_Penalty_Neutral>
9.58254e-05

> <r_epik_State_Penalty>
-0

> <r_epik_Charging_Adjusted_Penalty>
0

> <i_epik_Tot_Q>
0

> <i_epik_Tot_abs_Q>
0

> <r_epik_Metal_State_Penalty>
-0

> <b_epik_Metal_Only>
0

> <s_lp_Force_Field>
OPLS_2005

> <r_lp_Energy>
8.98545

> <b_lp_Chiralities_Consistent>
1

> <s_lp_Variant>
AV-unprocessed.smi:2901-1

> <Gold.Version>
5.8.1

> <Gold.Id.Protein>
6NUR|6NUR_protein|mol2

> <Gold.PLP.Fitness>
40.4390

> <Gold.PLP.PLP>
-33.6814

> <Gold.PLP.part.hbond>
-2.9309

> <Gold.PLP.part.metal>
0.0000

> <Gold.PLP.part.buried>
-5.9985

> <Gold.PLP.part.nonpolar>
-25.7199

> <Gold.PLP.part.repulsive>
0.3834

> <Gold.PLP.ligand.clash>
0.0000

> <Gold.PLP.ligand.torsion>
0.3609

> <Gold.PLP.Chemscore.Hbond>
2.4790

> <Gold.PLP.Chemscore.CHOScore>
0.0000

> <Gold.PLP.Chemscore.Metal>
0.0000

> <Gold.Chemscore.Hbonds>
donor molecule, donor type, donor heavy atom, donor atom, acceptor molecule, acceptor atom, score
      L1  H     7    27       P1  7948  0.96
      L1  H    10    28       P1  7948  0.75
      P1  H  7989  7998       L1    19  1.00

> <Gold.PLP.Chemscore.Internal.Correction>
0.0425

> <Gold.Rescore>
     Score         DG    S(hbond)    S(metal)    S(lipo)     H(rot)  DE(clash)    DE(int)     intcor
     16.93     -17.20       2.43        0.00      72.84       1.92       0.00       0.27       ----

> <Gold.Chemscore.Fitness>
16.9291

> <Gold.Chemscore.DG>
-17.2033

> <Gold.Chemscore.ZeroCoef>
-5.4800

> <Gold.Chemscore.Hbond>
2.4276

> <Gold.Chemscore.Metal>
0.0000

> <Gold.Chemscore.Lipo>
72.8364

> <Gold.Chemscore.Internal_Hbond>
0.0000

> <Gold.Chemscore.DEClash>
0.0000

> <Gold.Chemscore.DEInternal>
0.2742

> <Gold.Chemscore.Rot>
1.9167

> <Gold.Chemscore.Internal.Correction>
   9.000000E+99

> <Gold.Chemscore.Hbonds>
donor molecule, donor type, donor heavy atom, donor atom, acceptor molecule, acceptor atom, score
      L1  H     7    27       P1  7948  0.83
      L1  H    10    28       P1  7948  0.72
      P1  H  7989  7998       L1    19  0.25

> <Gold.Chemscore.Hbond.Weighted>
-8.1083

> <Gold.Chemscore.Metal.Weighted>
-0.0000

> <Gold.Chemscore.Lipo.Weighted>
-8.5219

> <Gold.Chemscore.Internal_Hbond.Weighted>
0.0000

> <Gold.Chemscore.DEClash.Weighted>
0.0000

> <Gold.Chemscore.DEInternal.Weighted>
0.2742

> <Gold.Chemscore.Rot.Weighted>
4.9069

> <Gold.Chemscore.Internal.Correction.Weighted>
   9.000000E+99

> <Gold.Protein.RotatedTorsions>
[ 6907 6896 6895 6894 ] final  121.93 input  -60.11 | X-H torsion
[ 7974 7965 7964 7962 ] final  -98.84 input  175.53 | X-H torsion
[ 8008 7997 7996 7995 ] final -122.31 input   59.86 | X-H torsion
[ 10167 10162 10161 10158 ] final    8.83 input  -65.29 | X-H torsion
[ 10718 10713 10712 10709 ] final -174.41 input   66.30 | X-H torsion
[ 10763 10752 10751 10750 ] final   97.10 input  -60.55 | X-H torsion
[ 11005 11000 10999 10996 ] final -129.94 input  -57.11 | X-H torsion

> <Gold.Protein.ActiveResidues>
 VAL166  LYS551  ARG553  GLY616  TRP617  ASP618  TYR619  PRO620  LYS621  CYS622 
 ASP623  PHE694  ASN695  SER759  ASP760  ASP761  ALA762  ILE779  LEU786  VAL792 
 PHE793  MET794  SER795  GLU796  ALA797  LYS798  CYS799  TRP800  GLU811  SER814 

> <Gold.Protein.RotatedAtoms>
  152.4283  133.7233  159.6545 H   0  0  0  0  0  0  0  0  0  0  0  0  # atno 6907 bound_to 6896
  150.8161  133.8325  159.3166 H   0  0  0  0  0  0  0  0  0  0  0  0  # atno 6908 bound_to 6896
  151.6021  135.1048  160.0114 H   0  0  0  0  0  0  0  0  0  0  0  0  # atno 6909 bound_to 6896
  145.3153  140.9409  143.2746 H   0  0  0  0  0  0  0  0  0  0  0  0  # atno 7974 bound_to 7965
  155.1621  140.0406  157.2845 H   0  0  0  0  0  0  0  0  0  0  0  0  # atno 8008 bound_to 7997
  154.6329  140.2528  155.7386 H   0  0  0  0  0  0  0  0  0  0  0  0  # atno 8009 bound_to 7997
  156.2494  140.2871  156.0688 H   0  0  0  0  0  0  0  0  0  0  0  0  # atno 8010 bound_to 7997
  140.6291  143.8035  150.7271 H   0  0  0  0  0  0  0  0  0  0  0  0  # atno 10167 bound_to 10162
  156.7847  130.9496  151.3120 H   0  0  0  0  0  0  0  0  0  0  0  0  # atno 10718 bound_to 10713
  153.2728  135.4195  155.1004 H   0  0  0  0  0  0  0  0  0  0  0  0  # atno 10763 bound_to 10752
  154.8462  135.3476  154.6220 H   0  0  0  0  0  0  0  0  0  0  0  0  # atno 10764 bound_to 10752
  153.6640  135.7047  153.5225 H   0  0  0  0  0  0  0  0  0  0  0  0  # atno 10765 bound_to 10752
  140.9389  134.1220  157.4169 H   0  0  0  0  0  0  0  0  0  0  0  0  # atno 11005 bound_to 11000
  144.8982  139.4684  143.6645 LP  0  0  0  0  0  0  0  0  0  0  0  0  # atno 17320 bound_to 7965
  146.3102  139.7721  142.9025 LP  0  0  0  0  0  0  0  0  0  0  0  0  # atno 17321 bound_to 7965
  140.1642  143.4250  152.2046 LP  0  0  0  0  0  0  0  0  0  0  0  0  # atno 17342 bound_to 10162
  139.5507  144.7335  151.4444 LP  0  0  0  0  0  0  0  0  0  0  0  0  # atno 17343 bound_to 10162
  157.6629  130.8982  149.9870 LP  0  0  0  0  0  0  0  0  0  0  0  0  # atno 17370 bound_to 10713
  156.1196  130.3646  149.9909 LP  0  0  0  0  0  0  0  0  0  0  0  0  # atno 17371 bound_to 10713
  139.8815  135.0030  156.6159 LP  0  0  0  0  0  0  0  0  0  0  0  0  # atno 17394 bound_to 11000
  140.7762  133.8698  155.8531 LP  0  0  0  0  0  0  0  0  0  0  0  0  # atno 17395 bound_to 11000

$$$$
