AV-unprocessed.smi:3142|AV-procd|sdf|11970|dock6
  -GOLD-   2272017373D 1   1.00000     0.00000
 Structure written by MMmdl.
 36 38  0  0  0  0  0  0  0  0  1 V2000
  152.2569  139.0166  155.9419 C   0  0  0  0  0  0  0  0  0  0  0  0
  151.5778  140.3934  156.0735 C   0  0  2  0  0  0  0  0  0  0  0  0
  151.3353  140.8098  157.5333 C   0  0  0  0  0  0  0  0  0  0  0  0
  150.6534  140.1106  158.2836 O   0  0  0  0  0  0  0  0  0  0  0  0
  151.9048  141.9632  157.9175 N   0  0  0  0  0  0  0  0  0  0  0  0
  151.7933  142.5741  159.2370 C   0  0  0  0  0  0  0  0  0  0  0  0
  151.3202  144.0128  159.1415 C   0  0  0  0  0  0  0  0  0  0  0  0
  152.2291  145.1117  158.6437 C   0  0  0  0  0  0  0  0  0  0  0  0
  151.8270  145.0623  160.1009 C   0  0  0  0  0  0  0  0  0  0  0  0
  153.0891  142.4931  160.0265 C   0  0  0  0  0  0  0  0  0  0  0  0
  153.5148  141.2148  160.7092 C   0  0  0  0  0  0  0  0  0  0  0  0
  153.0875  142.4066  161.5346 C   0  0  0  0  0  0  0  0  0  0  0  0
  150.3336  140.4449  155.3182 N   0  0  0  0  0  0  0  0  0  0  0  0
  149.5328  141.5614  155.1097 C   0  0  0  0  0  0  0  0  0  0  0  0
  148.4564  141.1427  154.3610 C   0  0  0  0  0  0  0  0  0  0  0  0
  148.5670  139.7790  154.1028 N   0  0  0  0  0  0  0  0  0  0  0  0
  149.7000  139.4350  154.7009 C   0  0  0  0  0  0  0  0  0  0  0  0
  153.2063  138.9918  156.4781 H   0  0  0  0  0  0  0  0  0  0  0  0
  152.4675  138.7862  154.8972 H   0  0  0  0  0  0  0  0  0  0  0  0
  151.6315  138.2147  156.3362 H   0  0  0  0  0  0  0  0  0  0  0  0
  152.2542  141.1322  155.6405 H   0  0  0  0  0  0  0  0  0  0  0  0
  152.4461  142.4691  157.2315 H   0  0  0  0  0  0  0  0  0  0  0  0
  151.0319  142.0312  159.8011 H   0  0  0  0  0  0  0  0  0  0  0  0
  150.2733  144.1051  158.8575 H   0  0  0  0  0  0  0  0  0  0  0  0
  153.2585  144.8548  158.4021 H   0  0  0  0  0  0  0  0  0  0  0  0
  151.7847  145.8880  158.0245 H   0  0  0  0  0  0  0  0  0  0  0  0
  151.1147  145.8055  160.4533 H   0  0  0  0  0  0  0  0  0  0  0  0
  152.5856  144.7646  160.8222 H   0  0  0  0  0  0  0  0  0  0  0  0
  153.8934  143.0870  159.5957 H   0  0  0  0  0  0  0  0  0  0  0  0
  152.8361  140.3653  160.6697 H   0  0  0  0  0  0  0  0  0  0  0  0
  154.5738  140.9664  160.6923 H   0  0  0  0  0  0  0  0  0  0  0  0
  153.8622  142.9527  162.0693 H   0  0  0  0  0  0  0  0  0  0  0  0
  152.1278  142.3416  162.0427 H   0  0  0  0  0  0  0  0  0  0  0  0
  149.7871  142.5355  155.5007 H   0  0  0  0  0  0  0  0  0  0  0  0
  147.6154  141.7130  153.9949 H   0  0  0  0  0  0  0  0  0  0  0  0
  150.0765  138.4223  154.6936 H   0  0  0  0  0  0  0  0  0  0  0  0
  1  2  1  0  0  0  0
  1 18  1  0  0  0  0
  1 19  1  0  0  0  0
  1 20  1  0  0  0  0
  2  3  1  0  0  0  0
  2 13  1  0  0  0  0
  2 21  1  0  0  0  0
  3  4  2  0  0  0  0
  3  5  1  0  0  0  0
  5  6  1  0  0  0  0
  5 22  1  0  0  0  0
  6  7  1  0  0  0  0
  6 10  1  0  0  0  0
  6 23  1  0  0  0  0
  7  9  1  0  0  0  0
  7  8  1  0  0  0  0
  7 24  1  0  0  0  0
  8  9  1  0  0  0  0
  8 25  1  0  0  0  0
  8 26  1  0  0  0  0
  9 27  1  0  0  0  0
  9 28  1  0  0  0  0
 10 12  1  0  0  0  0
 10 11  1  0  0  0  0
 10 29  1  0  0  0  0
 11 12  1  0  0  0  0
 11 30  1  0  0  0  0
 11 31  1  0  0  0  0
 12 32  1  0  0  0  0
 12 33  1  0  0  0  0
 13 17  1  0  0  0  0
 13 14  1  0  0  0  0
 14 15  2  0  0  0  0
 14 34  1  0  0  0  0
 15 16  1  0  0  0  0
 15 35  1  0  0  0  0
 16 17  2  0  0  0  0
 17 36  1  0  0  0  0
M  END
> <s_m_source_file>
AV-unprocessed.smi

> <i_m_source_file_index>
3142

> <i_lp_mmshare_version>
43012

> <i_f3d_flags>
0

> <s_epik_input>
W2NIXTFuW2NIXVtjSF1uMVtDQEhdKFtDSDNdKUMoPU8pW05IXVtDSF0oW0NIXTJbQ0gyXVtDSDJdMilbQ0hdM1tDSDJdW0NIMl0z

> <s_epik_cmdline>
J2VwaWtfcHl0aG9uJywgJy1waCcsICc3LjAnLCAnLXRuJywgJzgnLCAnLW1hJywgJzIwMCcsICctbWV0YWxfYmluZGluZycsICctaW1hZScsICc8aW5maWxlLm1hZT4nLCAnLW9tYWUnLCAnPG91dGZpbGUubWFlPic=

> <r_lp_tautomer_probability>
1

> <r_epik_Ionization_Penalty>
0.32285

> <r_epik_Ionization_Penalty_Charging>
0.32285

> <r_epik_Ionization_Penalty_Neutral>
3.37967e-08

> <r_epik_State_Penalty>
0.317502

> <r_epik_Charging_Adjusted_Penalty>
0.640352

> <i_epik_Tot_Q>
0

> <i_epik_Tot_abs_Q>
0

> <r_epik_Metal_State_Penalty>
0.20415

> <b_epik_Metal_Only>
0

> <s_lp_Force_Field>
OPLS_2005

> <r_lp_Energy>
29.0844

> <b_lp_Chiralities_Consistent>
1

> <s_lp_Variant>
AV-unprocessed.smi:3142-1

> <Gold.Version>
5.8.1

> <Gold.Id.Protein>
6NUR|6NUR_protein|mol2

> <Gold.PLP.Fitness>
46.9641

> <Gold.PLP.PLP>
-44.3516

> <Gold.PLP.part.hbond>
0.0000

> <Gold.PLP.part.metal>
0.0000

> <Gold.PLP.part.buried>
-4.1858

> <Gold.PLP.part.nonpolar>
-41.2002

> <Gold.PLP.part.repulsive>
0.3375

> <Gold.PLP.ligand.clash>
0.0000

> <Gold.PLP.ligand.torsion>
1.2971

> <Gold.PLP.Chemscore.Hbond>
0.0000

> <Gold.PLP.Chemscore.CHOScore>
1.0000

> <Gold.PLP.Chemscore.Metal>
0.0000

> <Gold.Chemscore.Hbonds>
donor molecule, donor type, donor heavy atom, donor atom, acceptor molecule, acceptor atom, score
      L1  C    14    34       P1  8028  1.00

> <Gold.PLP.Chemscore.Internal.Correction>
2.2067

> <Gold.Rescore>
     Score         DG    S(hbond)    S(metal)    S(lipo)     H(rot)  DE(clash)    DE(int)     intcor
     12.01     -13.34       0.00        0.00     107.71       1.85       0.02       1.31       ----

> <Gold.Chemscore.Fitness>
12.0148

> <Gold.Chemscore.DG>
-13.3445

> <Gold.Chemscore.ZeroCoef>
-5.4800

> <Gold.Chemscore.Hbond>
0.0000

> <Gold.Chemscore.Metal>
0.0000

> <Gold.Chemscore.Lipo>
107.7079

> <Gold.Chemscore.Internal_Hbond>
0.0000

> <Gold.Chemscore.DEClash>
0.0180

> <Gold.Chemscore.DEInternal>
1.3118

> <Gold.Chemscore.Rot>
1.8505

> <Gold.Chemscore.Internal.Correction>
   9.000000E+99

> <Gold.Chemscore.Hbond.Weighted>
-0.0000

> <Gold.Chemscore.Metal.Weighted>
-0.0000

> <Gold.Chemscore.Lipo.Weighted>
-12.6018

> <Gold.Chemscore.Internal_Hbond.Weighted>
0.0000

> <Gold.Chemscore.DEClash.Weighted>
0.0180

> <Gold.Chemscore.DEInternal.Weighted>
1.3118

> <Gold.Chemscore.Rot.Weighted>
4.7373

> <Gold.Chemscore.Internal.Correction.Weighted>
   9.000000E+99

> <Gold.Protein.RotatedTorsions>
[ 6907 6896 6895 6894 ] final  -82.86 input  -60.11 | X-H torsion
[ 7974 7965 7964 7962 ] final  -82.97 input  175.53 | X-H torsion
[ 8008 7997 7996 7995 ] final  -52.02 input   59.86 | X-H torsion
[ 10167 10162 10161 10158 ] final   42.01 input  -65.29 | X-H torsion
[ 10718 10713 10712 10709 ] final  -29.22 input   66.30 | X-H torsion
[ 10763 10752 10751 10750 ] final -129.53 input  -60.55 | X-H torsion
[ 11005 11000 10999 10996 ] final -123.66 input  -57.11 | X-H torsion

> <Gold.Protein.ActiveResidues>
 VAL166  LYS551  ARG553  GLY616  TRP617  ASP618  TYR619  PRO620  LYS621  CYS622 
 ASP623  PHE694  ASN695  SER759  ASP760  ASP761  ALA762  ILE779  LEU786  VAL792 
 PHE793  MET794  SER795  GLU796  ALA797  LYS798  CYS799  TRP800  GLU811  SER814 

> <Gold.Protein.RotatedAtoms>
  150.6892  134.3601  159.4946 H   0  0  0  0  0  0  0  0  0  0  0  0  # atno 6907 bound_to 6896
  152.1431  134.9044  160.0562 H   0  0  0  0  0  0  0  0  0  0  0  0  # atno 6908 bound_to 6896
  152.0171  133.3849  159.4280 H   0  0  0  0  0  0  0  0  0  0  0  0  # atno 6909 bound_to 6896
  145.5262  140.9526  143.1628 H   0  0  0  0  0  0  0  0  0  0  0  0  # atno 7974 bound_to 7965
  154.4096  140.1234  156.4923 H   0  0  0  0  0  0  0  0  0  0  0  0  # atno 8008 bound_to 7997
  155.6977  140.3495  155.4900 H   0  0  0  0  0  0  0  0  0  0  0  0  # atno 8009 bound_to 7997
  155.9412  140.1087  157.1044 H   0  0  0  0  0  0  0  0  0  0  0  0  # atno 8010 bound_to 7997
  140.3586  144.2258  150.6140 H   0  0  0  0  0  0  0  0  0  0  0  0  # atno 10167 bound_to 10162
  156.4152  130.4415  149.7223 H   0  0  0  0  0  0  0  0  0  0  0  0  # atno 10718 bound_to 10713
  154.8757  135.3892  154.3935 H   0  0  0  0  0  0  0  0  0  0  0  0  # atno 10763 bound_to 10752
  153.4668  135.7029  153.6022 H   0  0  0  0  0  0  0  0  0  0  0  0  # atno 10764 bound_to 10752
  153.4497  135.3836  155.2245 H   0  0  0  0  0  0  0  0  0  0  0  0  # atno 10765 bound_to 10752
  140.9902  134.0550  157.3664 H   0  0  0  0  0  0  0  0  0  0  0  0  # atno 11005 bound_to 11000
  144.7650  139.6867  143.7218 LP  0  0  0  0  0  0  0  0  0  0  0  0  # atno 17320 bound_to 7965
  146.2074  139.5407  142.9703 LP  0  0  0  0  0  0  0  0  0  0  0  0  # atno 17321 bound_to 7965
  140.5149  143.2280  151.8478 LP  0  0  0  0  0  0  0  0  0  0  0  0  # atno 17342 bound_to 10162
  139.4817  144.4906  151.9190 LP  0  0  0  0  0  0  0  0  0  0  0  0  # atno 17343 bound_to 10162
  156.4186  130.7757  151.2774 LP  0  0  0  0  0  0  0  0  0  0  0  0  # atno 17370 bound_to 10713
  157.7508  131.0190  150.3647 LP  0  0  0  0  0  0  0  0  0  0  0  0  # atno 17371 bound_to 10713
  139.8989  135.0156  156.7168 LP  0  0  0  0  0  0  0  0  0  0  0  0  # atno 17394 bound_to 11000
  140.7052  133.9271  155.8049 LP  0  0  0  0  0  0  0  0  0  0  0  0  # atno 17395 bound_to 11000

$$$$
