AV-unprocessed.smi:2341|AV-procd|sdf|9352|dock6
  -GOLD-   2272012573D 1   1.00000     0.00000
 Structure written by MMmdl.
 52 54  0  0  0  0  0  0  0  0  2 V2000
  141.1737  134.2571  153.2143 C   0  0  0  0  0  0  0  0  0  0  0  0
  142.1653  135.3721  153.4719 C   0  0  0  0  0  0  0  0  0  0  0  0
  141.8414  136.7144  153.1975 C   0  0  0  0  0  0  0  0  0  0  0  0
  142.8025  137.7106  153.4558 C   0  0  0  0  0  0  0  0  0  0  0  0
  144.0621  137.3429  153.9801 C   0  0  0  0  0  0  0  0  0  0  0  0
  144.9580  138.4222  154.2037 N   0  0  0  0  0  0  0  0  0  0  0  0
  146.0228  138.4620  155.0238 C   0  0  0  0  0  0  0  0  0  0  0  0
  146.4093  137.5362  155.7377 O   0  0  0  0  0  0  0  0  0  0  0  0
  146.6315  139.6559  154.9718 N   0  0  0  0  0  0  0  0  0  0  0  0
  147.8108  140.0293  155.7473 C   0  0  2  0  0  0  0  0  0  0  0  0
  147.4148  140.9969  156.8700 C   0  0  0  0  0  0  0  0  0  0  0  0
  148.6437  141.4763  157.6621 C   0  0  0  0  0  0  0  0  0  0  0  0
  149.6601  142.1120  156.7733 N   0  3  1  0  0  0  0  0  0  0  0  0
  150.8432  142.7227  157.4646 C   0  0  0  0  0  0  0  0  0  0  0  0
  151.6680  141.7287  158.3263 C   0  0  0  0  0  0  0  0  0  0  0  0
  152.8460  142.4140  159.0376 C   0  0  0  0  0  0  0  0  0  0  0  0
  152.3695  143.5829  159.9079 C   0  0  0  0  0  0  0  0  0  0  0  0
  151.5673  144.5871  159.0716 C   0  0  0  0  0  0  0  0  0  0  0  0
  150.3895  143.9048  158.3579 C   0  0  0  0  0  0  0  0  0  0  0  0
  150.0696  141.1718  155.6907 C   0  0  0  0  0  0  0  0  0  0  0  0
  148.8679  140.7013  154.8565 C   0  0  0  0  0  0  0  0  0  0  0  0
  144.3651  136.0466  154.2402 N   0  0  0  0  0  0  0  0  0  0  0  0
  143.4434  135.0925  153.9927 C   0  0  0  0  0  0  0  0  0  0  0  0
  140.1845  134.6531  152.9834 H   0  0  0  0  0  0  0  0  0  0  0  0
  141.0867  133.6159  154.0917 H   0  0  0  0  0  0  0  0  0  0  0  0
  141.5035  133.6469  152.3734 H   0  0  0  0  0  0  0  0  0  0  0  0
  140.8747  136.9808  152.7958 H   0  0  0  0  0  0  0  0  0  0  0  0
  142.5699  138.7456  153.2512 H   0  0  0  0  0  0  0  0  0  0  0  0
  144.7633  139.2617  153.6786 H   0  0  0  0  0  0  0  0  0  0  0  0
  146.2465  140.3592  154.3580 H   0  0  0  0  0  0  0  0  0  0  0  0
  148.2386  139.1328  156.2007 H   0  0  0  0  0  0  0  0  0  0  0  0
  146.8986  141.8614  156.4494 H   0  0  0  0  0  0  0  0  0  0  0  0
  146.7078  140.5151  157.5466 H   0  0  0  0  0  0  0  0  0  0  0  0
  148.2791  142.1843  158.4052 H   0  0  0  0  0  0  0  0  0  0  0  0
  149.0967  140.6424  158.2007 H   0  0  0  0  0  0  0  0  0  0  0  0
  151.5156  143.1044  156.6939 H   0  0  0  0  0  0  0  0  0  0  0  0
  151.0249  141.2578  159.0713 H   0  0  0  0  0  0  0  0  0  0  0  0
  152.0805  140.9299  157.7096 H   0  0  0  0  0  0  0  0  0  0  0  0
  153.3809  141.6892  159.6523 H   0  0  0  0  0  0  0  0  0  0  0  0
  153.5599  142.7763  158.2969 H   0  0  0  0  0  0  0  0  0  0  0  0
  151.7521  143.2067  160.7246 H   0  0  0  0  0  0  0  0  0  0  0  0
  153.2247  144.0791  160.3680 H   0  0  0  0  0  0  0  0  0  0  0  0
  151.1991  145.3896  159.7114 H   0  0  0  0  0  0  0  0  0  0  0  0
  152.2207  145.0556  158.3343 H   0  0  0  0  0  0  0  0  0  0  0  0
  149.8640  144.6616  157.7776 H   0  0  0  0  0  0  0  0  0  0  0  0
  149.6770  143.5463  159.1023 H   0  0  0  0  0  0  0  0  0  0  0  0
  150.7886  141.6380  155.0195 H   0  0  0  0  0  0  0  0  0  0  0  0
  150.5728  140.3094  156.1312 H   0  0  0  0  0  0  0  0  0  0  0  0
  149.2091  140.0070  154.0878 H   0  0  0  0  0  0  0  0  0  0  0  0
  148.4312  141.5530  154.3325 H   0  0  0  0  0  0  0  0  0  0  0  0
  143.7362  134.0773  154.2169 H   0  0  0  0  0  0  0  0  0  0  0  0
  149.1798  142.8795  156.3253 H   0  0  0  0  0  0  0  0  0  0  0  0
  1  2  1  0  0  0  0
  1 24  1  0  0  0  0
  1 25  1  0  0  0  0
  1 26  1  0  0  0  0
  2 23  1  0  0  0  0
  2  3  2  0  0  0  0
  3  4  1  0  0  0  0
  3 27  1  0  0  0  0
  4  5  2  0  0  0  0
  4 28  1  0  0  0  0
  5  6  1  0  0  0  0
  5 22  1  0  0  0  0
  6  7  1  0  0  0  0
  6 29  1  0  0  0  0
  7  8  2  0  0  0  0
  7  9  1  0  0  0  0
  9 10  1  0  0  0  0
  9 30  1  0  0  0  0
 10 21  1  0  0  0  0
 10 11  1  0  0  0  0
 10 31  1  0  0  0  0
 11 12  1  0  0  0  0
 11 32  1  0  0  0  0
 11 33  1  0  0  0  0
 12 13  1  0  0  0  0
 12 34  1  0  0  0  0
 12 35  1  0  0  0  0
 13 14  1  0  0  0  0
 13 20  1  0  0  0  0
 13 52  1  0  0  0  0
 14 19  1  0  0  0  0
 14 15  1  0  0  0  0
 14 36  1  0  0  0  0
 15 16  1  0  0  0  0
 15 37  1  0  0  0  0
 15 38  1  0  0  0  0
 16 17  1  0  0  0  0
 16 39  1  0  0  0  0
 16 40  1  0  0  0  0
 17 18  1  0  0  0  0
 17 41  1  0  0  0  0
 17 42  1  0  0  0  0
 18 19  1  0  0  0  0
 18 43  1  0  0  0  0
 18 44  1  0  0  0  0
 19 45  1  0  0  0  0
 19 46  1  0  0  0  0
 20 21  1  0  0  0  0
 20 47  1  0  0  0  0
 20 48  1  0  0  0  0
 21 49  1  0  0  0  0
 21 50  1  0  0  0  0
 22 23  2  0  0  0  0
 23 51  1  0  0  0  0
M  CHG  1  13   1
M  END
> <s_m_source_file>
AV-unprocessed.smi

> <i_m_source_file_index>
2341

> <i_lp_mmshare_version>
43012

> <i_f3d_flags>
0

> <s_epik_input>
W0NIM11jMVtjSF1bY0hdYyhuW2NIXTEpW05IXUMoPU8pW05IXVtDSF0yW0NIMl1bQ0gyXU4oW0NIMl1bQ0gyXTIpW0NIXTNbQ0gyXVtDSDJdW0NIMl1bQ0gyXVtDSDJdMw==

> <s_epik_cmdline>
J2VwaWtfcHl0aG9uJywgJy1waCcsICc3LjAnLCAnLXRuJywgJzgnLCAnLW1hJywgJzIwMCcsICctbWV0YWxfYmluZGluZycsICctaW1hZScsICc8aW5maWxlLm1hZT4nLCAnLW9tYWUnLCAnPG91dGZpbGUubWFlPic=

> <r_epik_Ionization_Penalty>
0.00176486

> <r_epik_Ionization_Penalty_Charging>
0.00171891

> <r_epik_Ionization_Penalty_Neutral>
4.59494e-05

> <r_epik_State_Penalty>
0.00116222

> <r_epik_Charging_Adjusted_Penalty>
0.00288114

> <i_epik_Tot_Q>
1

> <i_epik_Tot_abs_Q>
1

> <r_epik_Metal_State_Penalty>
-0

> <b_epik_Metal_Only>
0

> <s_lp_Force_Field>
OPLS_2005

> <r_lp_Energy>
29.4095

> <b_lp_Chiralities_Consistent>
1

> <s_lp_Variant>
AV-unprocessed.smi:2341-1

> <Gold.Version>
5.8.1

> <Gold.Id.Protein>
6NUR|6NUR_protein|mol2

> <Gold.PLP.Fitness>
45.8022

> <Gold.PLP.PLP>
-35.0449

> <Gold.PLP.part.hbond>
-2.0000

> <Gold.PLP.part.metal>
0.0000

> <Gold.PLP.part.buried>
-2.8829

> <Gold.PLP.part.nonpolar>
-31.9464

> <Gold.PLP.part.repulsive>
0.0537

> <Gold.PLP.ligand.clash>
0.0000

> <Gold.PLP.ligand.torsion>
0.3115

> <Gold.PLP.Chemscore.Hbond>
3.0000

> <Gold.PLP.Chemscore.CHOScore>
0.7801

> <Gold.PLP.Chemscore.Metal>
0.0000

> <Gold.Chemscore.Hbonds>
donor molecule, donor type, donor heavy atom, donor atom, acceptor molecule, acceptor atom, score
      L1  H     6    29       P1 10175  1.00
      L1  H    13    52       P1  8028  2.00
      L1  C    23    51       P1 10957  0.80

> <Gold.PLP.Chemscore.Internal.Correction>
0.0398

> <Gold.Rescore>
     Score         DG    S(hbond)    S(metal)    S(lipo)     H(rot)  DE(clash)    DE(int)     intcor
     19.80     -21.31       1.93        0.00     106.11       1.19       0.04       1.46       ----

> <Gold.Chemscore.Fitness>
19.8016

> <Gold.Chemscore.DG>
-21.3057

> <Gold.Chemscore.ZeroCoef>
-5.4800

> <Gold.Chemscore.Hbond>
1.9348

> <Gold.Chemscore.Metal>
0.0000

> <Gold.Chemscore.Lipo>
106.1066

> <Gold.Chemscore.Internal_Hbond>
0.0000

> <Gold.Chemscore.DEClash>
0.0422

> <Gold.Chemscore.DEInternal>
1.4619

> <Gold.Chemscore.Rot>
1.1918

> <Gold.Chemscore.Internal.Correction>
   9.000000E+99

> <Gold.Chemscore.Hbonds>
donor molecule, donor type, donor heavy atom, donor atom, acceptor molecule, acceptor atom, score
      L1  H     6    29       P1 10175  0.93
      L1  H    13    52       P1  8028  0.97

> <Gold.Chemscore.Hbond.Weighted>
-6.4623

> <Gold.Chemscore.Metal.Weighted>
-0.0000

> <Gold.Chemscore.Lipo.Weighted>
-12.4145

> <Gold.Chemscore.Internal_Hbond.Weighted>
0.0000

> <Gold.Chemscore.DEClash.Weighted>
0.0422

> <Gold.Chemscore.DEInternal.Weighted>
1.4619

> <Gold.Chemscore.Rot.Weighted>
3.0511

> <Gold.Chemscore.Internal.Correction.Weighted>
   9.000000E+99

> <Gold.Protein.RotatedTorsions>
[ 6907 6896 6895 6894 ] final  -29.31 input  -60.11 | X-H torsion
[ 7974 7965 7964 7962 ] final  138.35 input  175.53 | X-H torsion
[ 8008 7997 7996 7995 ] final   47.07 input   59.86 | X-H torsion
[ 10167 10162 10161 10158 ] final -144.17 input  -65.29 | X-H torsion
[ 10718 10713 10712 10709 ] final  160.00 input   66.30 | X-H torsion
[ 10763 10752 10751 10750 ] final  -17.63 input  -60.55 | X-H torsion
[ 11005 11000 10999 10996 ] final   -1.61 input  -57.11 | X-H torsion

> <Gold.Protein.ActiveResidues>
 VAL166  LYS551  ARG553  GLY616  TRP617  ASP618  TYR619  PRO620  LYS621  CYS622 
 ASP623  PHE694  ASN695  SER759  ASP760  ASP761  ALA762  ILE779  LEU786  VAL792 
 PHE793  MET794  SER795  GLU796  ALA797  LYS798  CYS799  TRP800  GLU811  SER814 

> <Gold.Protein.RotatedAtoms>
  151.1209  135.0079  159.8537 H   0  0  0  0  0  0  0  0  0  0  0  0  # atno 6907 bound_to 6896
  152.5448  134.1723  159.8612 H   0  0  0  0  0  0  0  0  0  0  0  0  # atno 6908 bound_to 6896
  151.1781  133.4697  159.2627 H   0  0  0  0  0  0  0  0  0  0  0  0  # atno 6909 bound_to 6896
  144.9381  139.4965  143.5585 H   0  0  0  0  0  0  0  0  0  0  0  0  # atno 7974 bound_to 7965
  155.3630  140.3419  155.4241 H   0  0  0  0  0  0  0  0  0  0  0  0  # atno 8008 bound_to 7997
  156.1703  140.1629  156.8493 H   0  0  0  0  0  0  0  0  0  0  0  0  # atno 8009 bound_to 7997
  154.5226  140.0763  156.8183 H   0  0  0  0  0  0  0  0  0  0  0  0  # atno 8010 bound_to 7997
  139.7924  143.7948  152.2651 H   0  0  0  0  0  0  0  0  0  0  0  0  # atno 10167 bound_to 10162
  157.1565  131.0577  151.2254 H   0  0  0  0  0  0  0  0  0  0  0  0  # atno 10718 bound_to 10713
  153.5767  135.7006  153.5481 H   0  0  0  0  0  0  0  0  0  0  0  0  # atno 10763 bound_to 10752
  153.3296  135.4051  155.1484 H   0  0  0  0  0  0  0  0  0  0  0  0  # atno 10764 bound_to 10752
  154.8624  135.3715  154.5293 H   0  0  0  0  0  0  0  0  0  0  0  0  # atno 10765 bound_to 10752
  140.6492  133.9420  155.8370 H   0  0  0  0  0  0  0  0  0  0  0  0  # atno 11005 bound_to 11000
  146.3274  139.8380  142.8896 LP  0  0  0  0  0  0  0  0  0  0  0  0  # atno 17320 bound_to 7965
  145.3035  141.0201  143.3595 LP  0  0  0  0  0  0  0  0  0  0  0  0  # atno 17321 bound_to 7965
  139.8043  144.7361  150.9782 LP  0  0  0  0  0  0  0  0  0  0  0  0  # atno 17342 bound_to 10162
  140.7820  143.4314  151.0689 LP  0  0  0  0  0  0  0  0  0  0  0  0  # atno 17343 bound_to 10162
  157.4172  130.7418  149.6885 LP  0  0  0  0  0  0  0  0  0  0  0  0  # atno 17370 bound_to 10713
  155.9761  130.4080  150.3801 LP  0  0  0  0  0  0  0  0  0  0  0  0  # atno 17371 bound_to 10713
  141.0549  134.0430  157.3735 LP  0  0  0  0  0  0  0  0  0  0  0  0  # atno 17394 bound_to 11000
  139.9052  135.0177  156.7452 LP  0  0  0  0  0  0  0  0  0  0  0  0  # atno 17395 bound_to 11000

$$$$
