AV-unprocessed.smi:962|AV-procd|sdf|4275|dock5
  -GOLD-   22720 2183D 1   1.00000     0.00000
 Structure written by MMmdl.
 42 43  0  0  0  0  0  0  0  0  1 V2000
  150.5276  140.3214  156.0286 C   0  0  0  0  0  0  0  0  0  0  0  0
  150.8634  138.8260  156.2118 C   0  0  0  0  0  0  0  0  0  0  0  0
  149.5560  138.0229  156.0633 C   0  0  0  0  0  0  0  0  0  0  0  0
  151.8580  138.4224  155.1057 C   0  0  0  0  0  0  0  0  0  0  0  0
  151.4702  138.5648  157.5753 C   0  0  0  0  0  0  0  0  0  0  0  0
  150.9639  137.7933  158.5965 C   0  0  0  0  0  0  0  0  0  0  0  0
  152.0271  137.7385  159.9743 S   0  0  0  0  0  0  0  0  0  0  0  0
  153.1419  138.7916  159.1143 C   0  0  0  0  0  0  0  0  0  0  0  0
  154.4791  139.1880  159.6527 C   0  0  0  0  0  0  0  0  0  0  0  0
  154.4160  140.2727  160.7469 C   0  0  0  0  0  0  0  0  0  0  0  0
  153.8707  141.5334  160.2471 N   0  0  0  0  0  0  0  0  0  0  0  0
  153.2725  142.4783  160.9955 C   0  0  0  0  0  0  0  0  0  0  0  0
  153.2112  142.4240  162.2245 O   0  0  0  0  0  0  0  0  0  0  0  0
  152.7359  143.4898  160.2795 N   0  0  0  0  0  0  0  0  0  0  0  0
  152.6680  143.5860  158.8182 C   0  0  0  0  0  0  0  0  0  0  0  0
  151.7017  144.7333  158.5225 C   0  0  0  0  0  0  0  0  0  0  0  0
  151.7745  145.6110  159.7638 C   0  0  0  0  0  0  0  0  0  0  0  0
  152.0593  144.6277  160.8987 C   0  0  0  0  0  0  0  0  0  0  0  0
  152.7090  139.1334  157.8996 N   0  0  0  0  0  0  0  0  0  0  0  0
  150.0939  140.5133  155.0465 H   0  0  0  0  0  0  0  0  0  0  0  0
  151.4178  140.9457  156.1164 H   0  0  0  0  0  0  0  0  0  0  0  0
  149.8063  140.6639  156.7718 H   0  0  0  0  0  0  0  0  0  0  0  0
  148.8386  138.2894  156.8406 H   0  0  0  0  0  0  0  0  0  0  0  0
  149.7320  136.9491  156.1366 H   0  0  0  0  0  0  0  0  0  0  0  0
  149.0816  138.2079  155.0990 H   0  0  0  0  0  0  0  0  0  0  0  0
  151.4489  138.6168  154.1136 H   0  0  0  0  0  0  0  0  0  0  0  0
  152.1019  137.3605  155.1516 H   0  0  0  0  0  0  0  0  0  0  0  0
  152.7926  138.9780  155.1916 H   0  0  0  0  0  0  0  0  0  0  0  0
  150.0366  137.2408  158.6216 H   0  0  0  0  0  0  0  0  0  0  0  0
  154.9825  138.3003  160.0370 H   0  0  0  0  0  0  0  0  0  0  0  0
  155.0850  139.5475  158.8204 H   0  0  0  0  0  0  0  0  0  0  0  0
  153.8219  139.9083  161.5866 H   0  0  0  0  0  0  0  0  0  0  0  0
  155.4148  140.4561  161.1427 H   0  0  0  0  0  0  0  0  0  0  0  0
  153.8884  141.6703  159.2469 H   0  0  0  0  0  0  0  0  0  0  0  0
  153.6623  143.8127  158.4302 H   0  0  0  0  0  0  0  0  0  0  0  0
  152.3230  142.6592  158.3567 H   0  0  0  0  0  0  0  0  0  0  0  0
  151.9496  145.2715  157.6073 H   0  0  0  0  0  0  0  0  0  0  0  0
  150.6901  144.3397  158.4143 H   0  0  0  0  0  0  0  0  0  0  0  0
  152.6068  146.3097  159.6678 H   0  0  0  0  0  0  0  0  0  0  0  0
  150.8667  146.1929  159.9257 H   0  0  0  0  0  0  0  0  0  0  0  0
  151.1273  144.2831  161.3496 H   0  0  0  0  0  0  0  0  0  0  0  0
  152.6649  145.0876  161.6812 H   0  0  0  0  0  0  0  0  0  0  0  0
  1  2  1  0  0  0  0
  1 20  1  0  0  0  0
  1 21  1  0  0  0  0
  1 22  1  0  0  0  0
  2  3  1  0  0  0  0
  2  4  1  0  0  0  0
  2  5  1  0  0  0  0
  3 23  1  0  0  0  0
  3 24  1  0  0  0  0
  3 25  1  0  0  0  0
  4 26  1  0  0  0  0
  4 27  1  0  0  0  0
  4 28  1  0  0  0  0
  5 19  1  0  0  0  0
  5  6  2  0  0  0  0
  6  7  1  0  0  0  0
  6 29  1  0  0  0  0
  7  8  1  0  0  0  0
  8  9  1  0  0  0  0
  8 19  2  0  0  0  0
  9 10  1  0  0  0  0
  9 30  1  0  0  0  0
  9 31  1  0  0  0  0
 10 11  1  0  0  0  0
 10 32  1  0  0  0  0
 10 33  1  0  0  0  0
 11 12  1  0  0  0  0
 11 34  1  0  0  0  0
 12 13  2  0  0  0  0
 12 14  1  0  0  0  0
 14 18  1  0  0  0  0
 14 15  1  0  0  0  0
 15 16  1  0  0  0  0
 15 35  1  0  0  0  0
 15 36  1  0  0  0  0
 16 17  1  0  0  0  0
 16 37  1  0  0  0  0
 16 38  1  0  0  0  0
 17 18  1  0  0  0  0
 17 39  1  0  0  0  0
 17 40  1  0  0  0  0
 18 41  1  0  0  0  0
 18 42  1  0  0  0  0
M  END
> <s_m_source_file>
AV-unprocessed.smi

> <i_m_source_file_index>
962

> <i_lp_mmshare_version>
43012

> <i_f3d_flags>
0

> <s_epik_input>
W0NIM11DKFtDSDNdKShbQ0gzXSljMVtjSF1zYyhuMSlbQ0gyXVtDSDJdW05IXUMoPU8pTjJbQ0gyXVtDSDJdW0NIMl1bQ0gyXTI=

> <s_epik_cmdline>
J2VwaWtfcHl0aG9uJywgJy1waCcsICc3LjAnLCAnLXRuJywgJzgnLCAnLW1hJywgJzIwMCcsICctbWV0YWxfYmluZGluZycsICctaW1hZScsICc8aW5maWxlLm1hZT4nLCAnLW9tYWUnLCAnPG91dGZpbGUubWFlPic=

> <r_epik_Ionization_Penalty>
0.00160156

> <r_epik_Ionization_Penalty_Charging>
0

> <r_epik_Ionization_Penalty_Neutral>
0.00160156

> <r_epik_State_Penalty>
0.00103428

> <r_epik_Charging_Adjusted_Penalty>
0.00103428

> <i_epik_Tot_Q>
0

> <i_epik_Tot_abs_Q>
0

> <r_epik_Metal_State_Penalty>
-0

> <b_epik_Metal_Only>
0

> <s_lp_Force_Field>
OPLS_2005

> <r_lp_Energy>
25.7371

> <b_lp_Chiralities_Consistent>
1

> <s_lp_Variant>
AV-unprocessed.smi:962-1

> <Gold.Version>
5.8.1

> <Gold.Id.Protein>
6NUR|6NUR_protein|mol2

> <Gold.PLP.Fitness>
47.7973

> <Gold.PLP.PLP>
-45.5595

> <Gold.PLP.part.hbond>
-1.0000

> <Gold.PLP.part.metal>
0.0000

> <Gold.PLP.part.buried>
-5.4567

> <Gold.PLP.part.nonpolar>
-39.5562

> <Gold.PLP.part.repulsive>
0.1069

> <Gold.PLP.ligand.clash>
0.0000

> <Gold.PLP.ligand.torsion>
0.4032

> <Gold.PLP.Chemscore.Hbond>
1.0000

> <Gold.PLP.Chemscore.CHOScore>
0.0000

> <Gold.PLP.Chemscore.Metal>
0.0000

> <Gold.Chemscore.Hbonds>
donor molecule, donor type, donor heavy atom, donor atom, acceptor molecule, acceptor atom, score
      P1  H  7997  8010       L1    19  0.36

> <Gold.PLP.Chemscore.Internal.Correction>
0.0443

> <Gold.Rescore>
     Score         DG    S(hbond)    S(metal)    S(lipo)     H(rot)  DE(clash)    DE(int)     intcor
     17.83     -18.40       0.94        0.00     114.66       1.41       0.13       0.44       ----

> <Gold.Chemscore.Fitness>
17.8287

> <Gold.Chemscore.DG>
-18.4003

> <Gold.Chemscore.ZeroCoef>
-5.4800

> <Gold.Chemscore.Hbond>
0.9362

> <Gold.Chemscore.Metal>
0.0000

> <Gold.Chemscore.Lipo>
114.6640

> <Gold.Chemscore.Internal_Hbond>
0.0000

> <Gold.Chemscore.DEClash>
0.1305

> <Gold.Chemscore.DEInternal>
0.4411

> <Gold.Chemscore.Rot>
1.4149

> <Gold.Chemscore.Internal.Correction>
   9.000000E+99

> <Gold.Chemscore.Hbonds>
donor molecule, donor type, donor heavy atom, donor atom, acceptor molecule, acceptor atom, score
      P1  H  7997  8010       L1    19  0.08

> <Gold.Chemscore.Hbond.Weighted>
-3.1268

> <Gold.Chemscore.Metal.Weighted>
-0.0000

> <Gold.Chemscore.Lipo.Weighted>
-13.4157

> <Gold.Chemscore.Internal_Hbond.Weighted>
0.0000

> <Gold.Chemscore.DEClash.Weighted>
0.1305

> <Gold.Chemscore.DEInternal.Weighted>
0.4411

> <Gold.Chemscore.Rot.Weighted>
3.6222

> <Gold.Chemscore.Internal.Correction.Weighted>
   9.000000E+99

> <Gold.Protein.RotatedTorsions>
[ 6907 6896 6895 6894 ] final  -52.16 input  -60.11 | X-H torsion
[ 7974 7965 7964 7962 ] final   73.74 input  175.53 | X-H torsion
[ 8008 7997 7996 7995 ] final   29.61 input   59.86 | X-H torsion
[ 10167 10162 10161 10158 ] final  113.62 input  -65.29 | X-H torsion
[ 10718 10713 10712 10709 ] final  -78.46 input   66.30 | X-H torsion
[ 10763 10752 10751 10750 ] final   54.67 input  -60.55 | X-H torsion
[ 11005 11000 10999 10996 ] final   63.47 input  -57.11 | X-H torsion

> <Gold.Protein.ActiveResidues>
 VAL166  LYS551  ARG553  GLY616  TRP617  ASP618  TYR619  PRO620  LYS621  CYS622 
 ASP623  PHE694  ASN695  SER759  ASP760  ASP761  ALA762  ILE779  LEU786  VAL792 
 PHE793  MET794  SER795  GLU796  ALA797  LYS798  CYS799  TRP800  GLU811  SER814 

> <Gold.Protein.RotatedAtoms>
  150.8544  134.7878  159.7033 H   0  0  0  0  0  0  0  0  0  0  0  0  # atno 6907 bound_to 6896
  152.4600  134.5203  159.9790 H   0  0  0  0  0  0  0  0  0  0  0  0  # atno 6908 bound_to 6896
  151.5318  133.3410  159.2955 H   0  0  0  0  0  0  0  0  0  0  0  0  # atno 6909 bound_to 6896
  145.7371  139.2706  143.1508 H   0  0  0  0  0  0  0  0  0  0  0  0  # atno 7974 bound_to 7965
  155.0772  140.3206  155.4612 H   0  0  0  0  0  0  0  0  0  0  0  0  # atno 8008 bound_to 7997
  156.2776  140.2101  156.5846 H   0  0  0  0  0  0  0  0  0  0  0  0  # atno 8009 bound_to 7997
  154.7007  140.0507  157.0442 H   0  0  0  0  0  0  0  0  0  0  0  0  # atno 8010 bound_to 7997
  139.6448  144.7126  151.2165 H   0  0  0  0  0  0  0  0  0  0  0  0  # atno 10167 bound_to 10162
  156.0117  130.4519  150.3500 H   0  0  0  0  0  0  0  0  0  0  0  0  # atno 10718 bound_to 10713
  152.9807  135.5737  154.4941 H   0  0  0  0  0  0  0  0  0  0  0  0  # atno 10763 bound_to 10752
  154.4471  135.2777  155.1809 H   0  0  0  0  0  0  0  0  0  0  0  0  # atno 10764 bound_to 10752
  154.3452  135.6221  153.5669 H   0  0  0  0  0  0  0  0  0  0  0  0  # atno 10765 bound_to 10752
  140.0023  134.6424  155.9911 H   0  0  0  0  0  0  0  0  0  0  0  0  # atno 11005 bound_to 11000
  146.0483  140.8095  142.9794 LP  0  0  0  0  0  0  0  0  0  0  0  0  # atno 17320 bound_to 7965
  144.6879  140.3014  143.7262 LP  0  0  0  0  0  0  0  0  0  0  0  0  # atno 17321 bound_to 7965
  140.7509  143.6250  150.8477 LP  0  0  0  0  0  0  0  0  0  0  0  0  # atno 17342 bound_to 10162
  139.9891  143.5866  152.2916 LP  0  0  0  0  0  0  0  0  0  0  0  0  # atno 17343 bound_to 10162
  157.1593  131.0341  151.2848 LP  0  0  0  0  0  0  0  0  0  0  0  0  # atno 17370 bound_to 10713
  157.4325  130.7498  149.7002 LP  0  0  0  0  0  0  0  0  0  0  0  0  # atno 17371 bound_to 10713
  141.1651  133.6537  156.4451 LP  0  0  0  0  0  0  0  0  0  0  0  0  # atno 17394 bound_to 11000
  140.4706  134.6757  157.5127 LP  0  0  0  0  0  0  0  0  0  0  0  0  # atno 17395 bound_to 11000

$$$$
