AV-unprocessed.smi:3150|AV-procd|sdf|12010|dock1
  -GOLD-   2272017413D 1   1.00000     0.00000
 Structure written by MMmdl.
 33 34  0  0  0  0  0  0  0  0  3 V2000
  150.9864  138.6424  154.4980 C   0  0  0  0  0  0  0  0  0  0  0  0
  150.2985  139.9098  155.0278 C   0  0  1  0  0  0  0  0  0  0  0  0
  149.0510  139.5142  155.5921 O   0  0  0  0  0  0  0  0  0  0  0  0
  148.0423  139.1579  154.6547 C   0  0  0  0  0  0  0  0  0  0  0  0
  147.6538  140.3913  153.8684 C   0  0  0  0  0  0  0  0  0  0  0  0
  148.0328  141.7662  154.3696 C   0  0  0  0  0  0  0  0  0  0  0  0
  146.5893  141.3325  154.3855 C   0  0  0  0  0  0  0  0  0  0  0  0
  151.1608  140.6190  156.0847 C   0  0  0  0  0  0  0  0  0  0  0  0
  152.2556  140.1476  156.3969 O   0  0  0  0  0  0  0  0  0  0  0  0
  150.6280  141.7335  156.6198 N   0  0  0  0  0  0  0  0  0  0  0  0
  151.1710  142.5902  157.6172 C   0  0  0  0  0  0  0  0  0  0  0  0
  151.0885  143.9416  157.5312 N   0  3  0  0  0  0  0  0  0  0  0  0
  151.5927  144.7820  158.4600 C   0  0  0  0  0  0  0  0  0  0  0  0
  152.2459  144.2618  159.5937 C   0  0  0  0  0  0  0  0  0  0  0  0
  152.3601  142.8646  159.7340 C   0  0  0  0  0  0  0  0  0  0  0  0
  151.8199  142.0208  158.7399 C   0  0  0  0  0  0  0  0  0  0  0  0
  151.9318  140.6653  158.8760 O   0  5  0  0  0  0  0  0  0  0  0  0
  151.9579  138.8716  154.0588 H   0  0  0  0  0  0  0  0  0  0  0  0
  150.3800  138.1692  153.7255 H   0  0  0  0  0  0  0  0  0  0  0  0
  151.1396  137.9069  155.2887 H   0  0  0  0  0  0  0  0  0  0  0  0
  150.1191  140.5784  154.1834 H   0  0  0  0  0  0  0  0  0  0  0  0
  148.3857  138.3830  153.9684 H   0  0  0  0  0  0  0  0  0  0  0  0
  147.1608  138.7795  155.1737 H   0  0  0  0  0  0  0  0  0  0  0  0
  147.6967  140.2563  152.7892 H   0  0  0  0  0  0  0  0  0  0  0  0
  148.5469  141.8343  155.3264 H   0  0  0  0  0  0  0  0  0  0  0  0
  148.3278  142.5061  153.6283 H   0  0  0  0  0  0  0  0  0  0  0  0
  145.9198  141.7830  153.6555 H   0  0  0  0  0  0  0  0  0  0  0  0
  146.1419  141.1102  155.3525 H   0  0  0  0  0  0  0  0  0  0  0  0
  149.7165  142.0049  156.2792 H   0  0  0  0  0  0  0  0  0  0  0  0
  151.4584  145.8365  158.2687 H   0  0  0  0  0  0  0  0  0  0  0  0
  152.6534  144.9227  160.3445 H   0  0  0  0  0  0  0  0  0  0  0  0
  152.8577  142.4456  160.5966 H   0  0  0  0  0  0  0  0  0  0  0  0
  150.6195  144.3430  156.7185 H   0  0  0  0  0  0  0  0  0  0  0  0
  1  2  1  0  0  0  0
  1 18  1  0  0  0  0
  1 19  1  0  0  0  0
  1 20  1  0  0  0  0
  2  3  1  0  0  0  0
  2  8  1  0  0  0  0
  2 21  1  0  0  0  0
  3  4  1  0  0  0  0
  4  5  1  0  0  0  0
  4 22  1  0  0  0  0
  4 23  1  0  0  0  0
  5  7  1  0  0  0  0
  5  6  1  0  0  0  0
  5 24  1  0  0  0  0
  6  7  1  0  0  0  0
  6 25  1  0  0  0  0
  6 26  1  0  0  0  0
  7 27  1  0  0  0  0
  7 28  1  0  0  0  0
  8  9  2  0  0  0  0
  8 10  1  0  0  0  0
 10 29  1  0  0  0  0
 10 11  1  0  0  0  0
 11 16  2  0  0  0  0
 11 12  1  0  0  0  0
 12 33  1  0  0  0  0
 12 13  2  0  0  0  0
 13 30  1  0  0  0  0
 13 14  1  0  0  0  0
 14 31  1  0  0  0  0
 14 15  2  0  0  0  0
 15 16  1  0  0  0  0
 15 32  1  0  0  0  0
 16 17  1  0  0  0  0
M  CHG  1  12   1
M  CHG  1  17  -1
M  END
> <s_m_source_file>
AV-unprocessed.smi

> <i_m_source_file_index>
3150

> <i_lp_mmshare_version>
43012

> <i_f3d_flags>
0

> <s_epik_input>
W0NIMl0xW0NIMl1bQ0hdMVtDSDJdT1tDQEBIXShbQ0gzXSlDKD1PKVtOSF1jMm5bY0hdW2NIXVtjSF1jMltPSF0=

> <s_epik_cmdline>
J2VwaWtfcHl0aG9uJywgJy1waCcsICc3LjAnLCAnLXRuJywgJzgnLCAnLW1hJywgJzIwMCcsICctbWV0YWxfYmluZGluZycsICctaW1hZScsICc8aW5maWxlLm1hZT4nLCAnLW9tYWUnLCAnPG91dGZpbGUubWFlPic=

> <r_lp_tautomer_probability>
0.56342

> <r_epik_Ionization_Penalty>
0.213151

> <r_epik_Ionization_Penalty_Charging>
0.0249427

> <r_epik_Ionization_Penalty_Neutral>
0.188209

> <r_epik_State_Penalty>
0.538305

> <r_epik_Charging_Adjusted_Penalty>
0.563248

> <i_epik_Tot_Q>
0

> <i_epik_Tot_abs_Q>
2

> <r_epik_Metal_State_Penalty>
2.57454

> <b_epik_Metal_Only>
0

> <s_lp_Force_Field>
OPLS_2005

> <r_lp_Energy>
15.4349

> <b_lp_Chiralities_Consistent>
1

> <s_lp_Variant>
AV-unprocessed.smi:3150-4

> <Gold.Version>
5.8.1

> <Gold.Id.Protein>
6NUR|6NUR_protein|mol2

> <Gold.PLP.Fitness>
44.5777

> <Gold.PLP.PLP>
-36.2551

> <Gold.PLP.part.hbond>
-2.0000

> <Gold.PLP.part.metal>
0.0000

> <Gold.PLP.part.buried>
-4.0715

> <Gold.PLP.part.nonpolar>
-31.0025

> <Gold.PLP.part.repulsive>
0.1187

> <Gold.PLP.ligand.clash>
0.0000

> <Gold.PLP.ligand.torsion>
0.9171

> <Gold.PLP.Chemscore.Hbond>
3.0000

> <Gold.PLP.Chemscore.CHOScore>
0.0000

> <Gold.PLP.Chemscore.Metal>
0.0000

> <Gold.Chemscore.Hbonds>
donor molecule, donor type, donor heavy atom, donor atom, acceptor molecule, acceptor atom, score
      L1  H    12    33       P1  8028  1.98
      P1  H  7997  8008       L1     9  0.89

> <Gold.PLP.Chemscore.Internal.Correction>
1.1569

> <Gold.Rescore>
     Score         DG    S(hbond)    S(metal)    S(lipo)     H(rot)  DE(clash)    DE(int)     intcor
     13.31     -16.96       1.88        0.00      81.30       1.68       0.04       3.62       ----

> <Gold.Chemscore.Fitness>
13.3052

> <Gold.Chemscore.DG>
-16.9594

> <Gold.Chemscore.ZeroCoef>
-5.4800

> <Gold.Chemscore.Hbond>
1.8793

> <Gold.Chemscore.Metal>
0.0000

> <Gold.Chemscore.Lipo>
81.2978

> <Gold.Chemscore.Internal_Hbond>
0.0000

> <Gold.Chemscore.DEClash>
0.0368

> <Gold.Chemscore.DEInternal>
3.6174

> <Gold.Chemscore.Rot>
1.6833

> <Gold.Chemscore.Internal.Correction>
   9.000000E+99

> <Gold.Chemscore.Hbonds>
donor molecule, donor type, donor heavy atom, donor atom, acceptor molecule, acceptor atom, score
      L1  H    12    33       P1  8028  0.87
      P1  H  7997  8008       L1     9  0.85

> <Gold.Chemscore.Hbond.Weighted>
-6.2769

> <Gold.Chemscore.Metal.Weighted>
-0.0000

> <Gold.Chemscore.Lipo.Weighted>
-9.5118

> <Gold.Chemscore.Internal_Hbond.Weighted>
0.0000

> <Gold.Chemscore.DEClash.Weighted>
0.0368

> <Gold.Chemscore.DEInternal.Weighted>
3.6174

> <Gold.Chemscore.Rot.Weighted>
4.3094

> <Gold.Chemscore.Internal.Correction.Weighted>
   9.000000E+99

> <Gold.Protein.RotatedTorsions>
[ 6907 6896 6895 6894 ] final -133.62 input  -60.11 | X-H torsion
[ 7974 7965 7964 7962 ] final -179.22 input  175.53 | X-H torsion
[ 8008 7997 7996 7995 ] final  -41.92 input   59.86 | X-H torsion
[ 10167 10162 10161 10158 ] final -129.52 input  -65.29 | X-H torsion
[ 10718 10713 10712 10709 ] final  -24.57 input   66.30 | X-H torsion
[ 10763 10752 10751 10750 ] final  -72.11 input  -60.55 | X-H torsion
[ 11005 11000 10999 10996 ] final   -9.91 input  -57.11 | X-H torsion

> <Gold.Protein.ActiveResidues>
 VAL166  LYS551  ARG553  GLY616  TRP617  ASP618  TYR619  PRO620  LYS621  CYS622 
 ASP623  PHE694  ASN695  SER759  ASP760  ASP761  ALA762  ILE779  LEU786  VAL792 
 PHE793  MET794  SER795  GLU796  ALA797  LYS798  CYS799  TRP800  GLU811  SER814 

> <Gold.Protein.RotatedAtoms>
  150.9762  133.6293  159.2729 H   0  0  0  0  0  0  0  0  0  0  0  0  # atno 6907 bound_to 6896
  151.3564  135.0894  159.9430 H   0  0  0  0  0  0  0  0  0  0  0  0  # atno 6908 bound_to 6896
  152.5200  133.9344  159.7650 H   0  0  0  0  0  0  0  0  0  0  0  0  # atno 6909 bound_to 6896
  144.7135  140.0750  143.6428 H   0  0  0  0  0  0  0  0  0  0  0  0  # atno 7974 bound_to 7965
  154.4001  140.1487  156.3270 H   0  0  0  0  0  0  0  0  0  0  0  0  # atno 8008 bound_to 7997
  155.8478  140.3459  155.5652 H   0  0  0  0  0  0  0  0  0  0  0  0  # atno 8009 bound_to 7997
  155.8017  140.0871  157.1944 H   0  0  0  0  0  0  0  0  0  0  0  0  # atno 8010 bound_to 7997
  139.9389  143.6186  152.2509 H   0  0  0  0  0  0  0  0  0  0  0  0  # atno 10167 bound_to 10162
  156.4759  130.4534  149.6841 H   0  0  0  0  0  0  0  0  0  0  0  0  # atno 10718 bound_to 10713
  154.4412  135.5940  153.6130 H   0  0  0  0  0  0  0  0  0  0  0  0  # atno 10763 bound_to 10752
  152.9805  135.5998  154.3720 H   0  0  0  0  0  0  0  0  0  0  0  0  # atno 10764 bound_to 10752
  154.3570  135.2841  155.2319 H   0  0  0  0  0  0  0  0  0  0  0  0  # atno 10765 bound_to 10752
  140.7391  133.8685  155.8954 H   0  0  0  0  0  0  0  0  0  0  0  0  # atno 11005 bound_to 11000
  145.9751  139.2899  143.1075 LP  0  0  0  0  0  0  0  0  0  0  0  0  # atno 17320 bound_to 7965
  145.9073  140.9203  143.0472 LP  0  0  0  0  0  0  0  0  0  0  0  0  # atno 17321 bound_to 7965
  139.6721  144.7660  151.1764 LP  0  0  0  0  0  0  0  0  0  0  0  0  # atno 17342 bound_to 10162
  140.7616  143.5850  150.8855 LP  0  0  0  0  0  0  0  0  0  0  0  0  # atno 17343 bound_to 10162
  156.3571  130.7462  151.2429 LP  0  0  0  0  0  0  0  0  0  0  0  0  # atno 17370 bound_to 10713
  157.7487  131.0360  150.4392 LP  0  0  0  0  0  0  0  0  0  0  0  0  # atno 17371 bound_to 10713
  140.9852  134.1352  157.4458 LP  0  0  0  0  0  0  0  0  0  0  0  0  # atno 17394 bound_to 11000
  139.8810  135.0023  156.6120 LP  0  0  0  0  0  0  0  0  0  0  0  0  # atno 17395 bound_to 11000

$$$$
