AV-unprocessed.smi:103|AV-procd|sdf|984|dock5
  -GOLD-   2262017553D 1   1.00000     0.00000
 Structure written by MMmdl.
 53 55  0  0  0  0  0  0  0  0  1 V2000
  154.0851  141.5683  160.6471 C   0  0  0  0  0  0  0  0  0  0  0  0
  153.4900  140.8284  159.4567 C   0  0  0  0  0  0  0  0  0  0  0  0
  154.0719  139.8792  158.9309 O   0  0  0  0  0  0  0  0  0  0  0  0
  152.3025  141.3296  159.0860 O   0  0  0  0  0  0  0  0  0  0  0  0
  151.4403  140.5616  158.2609 C   0  0  0  0  0  0  0  0  0  0  0  0
  150.6219  141.4937  157.3460 C   0  0  1  0  0  0  0  0  0  0  0  0
  149.5963  140.7276  156.7314 O   0  0  0  0  0  0  0  0  0  0  0  0
  148.4913  140.6791  157.5789 C   0  0  2  0  0  0  0  0  0  0  0  0
  147.2523  140.6371  156.7348 N   0  0  0  0  0  0  0  0  0  0  0  0
  147.1246  140.6094  155.3605 C   0  0  0  0  0  0  0  0  0  0  0  0
  148.4532  140.6832  154.1651 S   0  0  0  0  0  0  0  0  0  0  0  0
  147.5669  140.3180  152.5970 C   0  0  0  0  0  0  0  0  0  0  0  0
  148.9387  142.0713  154.1334 O   0  0  0  0  0  0  0  0  0  0  0  0
  149.3719  139.5772  154.4771 O   0  0  0  0  0  0  0  0  0  0  0  0
  145.9090  140.6343  154.8850 N   0  0  0  0  0  0  0  0  0  0  0  0
  145.1237  140.5948  156.0285 C   0  0  0  0  0  0  0  0  0  0  0  0
  143.7259  140.5656  156.2631 C   0  0  0  0  0  0  0  0  0  0  0  0
  142.8180  140.5788  155.2773 N   0  0  0  0  0  0  0  0  0  0  0  0
  143.2856  140.5209  157.5420 N   0  0  0  0  0  0  0  0  0  0  0  0
  144.1708  140.5069  158.5436 C   0  0  0  0  0  0  0  0  0  0  0  0
  145.5047  140.5365  158.4804 N   0  0  0  0  0  0  0  0  0  0  0  0
  145.9488  140.5837  157.1897 C   0  0  0  0  0  0  0  0  0  0  0  0
  148.5533  141.9174  158.5008 C   0  0  2  0  0  0  0  0  0  0  0  0
  147.4517  142.8024  158.3160 O   0  0  0  0  0  0  0  0  0  0  0  0
  146.6049  143.0648  159.3246 C   0  0  0  0  0  0  0  0  0  0  0  0
  145.4304  143.9247  158.8800 C   0  0  0  0  0  0  0  0  0  0  0  0
  146.7133  142.6749  160.4867 O   0  0  0  0  0  0  0  0  0  0  0  0
  149.8432  142.6028  158.0657 C   0  0  1  0  0  0  0  0  0  0  0  0
  150.5592  143.1233  159.1795 O   0  0  0  0  0  0  0  0  0  0  0  0
  151.5070  144.0591  159.0070 C   0  0  0  0  0  0  0  0  0  0  0  0
  151.9624  144.6682  160.3260 C   0  0  0  0  0  0  0  0  0  0  0  0
  151.9840  144.4213  157.9317 O   0  0  0  0  0  0  0  0  0  0  0  0
  153.4100  141.5127  161.5011 H   0  0  0  0  0  0  0  0  0  0  0  0
  154.2465  142.6175  160.3994 H   0  0  0  0  0  0  0  0  0  0  0  0
  155.0409  141.1292  160.9333 H   0  0  0  0  0  0  0  0  0  0  0  0
  152.0545  139.8948  157.6545 H   0  0  0  0  0  0  0  0  0  0  0  0
  150.7776  139.9360  158.8607 H   0  0  0  0  0  0  0  0  0  0  0  0
  151.2696  141.9062  156.5719 H   0  0  0  0  0  0  0  0  0  0  0  0
  148.5102  139.7376  158.1248 H   0  0  0  0  0  0  0  0  0  0  0  0
  148.2760  140.3229  151.7698 H   0  0  0  0  0  0  0  0  0  0  0  0
  146.8014  141.0744  152.4253 H   0  0  0  0  0  0  0  0  0  0  0  0
  147.0980  139.3368  152.6669 H   0  0  0  0  0  0  0  0  0  0  0  0
  143.1207  140.6109  154.3143 H   0  0  0  0  0  0  0  0  0  0  0  0
  141.8332  140.5574  155.4990 H   0  0  0  0  0  0  0  0  0  0  0  0
  143.7506  140.4697  159.5379 H   0  0  0  0  0  0  0  0  0  0  0  0
  148.6454  141.5636  159.5290 H   0  0  0  0  0  0  0  0  0  0  0  0
  144.8453  143.4010  158.1238 H   0  0  0  0  0  0  0  0  0  0  0  0
  145.7880  144.8622  158.4545 H   0  0  0  0  0  0  0  0  0  0  0  0
  144.7802  144.1532  159.7244 H   0  0  0  0  0  0  0  0  0  0  0  0
  149.6210  143.3844  157.3368 H   0  0  0  0  0  0  0  0  0  0  0  0
  152.3797  143.8977  160.9743 H   0  0  0  0  0  0  0  0  0  0  0  0
  151.1209  145.1341  160.8387 H   0  0  0  0  0  0  0  0  0  0  0  0
  152.7257  145.4274  160.1546 H   0  0  0  0  0  0  0  0  0  0  0  0
  1  2  1  0  0  0  0
  1 33  1  0  0  0  0
  1 34  1  0  0  0  0
  1 35  1  0  0  0  0
  2  3  2  0  0  0  0
  2  4  1  0  0  0  0
  4  5  1  0  0  0  0
  5  6  1  0  0  0  0
  5 36  1  0  0  0  0
  5 37  1  0  0  0  0
  6 28  1  0  0  0  0
  6  7  1  0  0  0  0
  6 38  1  0  0  0  0
  7  8  1  0  0  0  0
  8  9  1  0  0  0  0
  8 23  1  0  0  0  0
  8 39  1  0  0  0  0
  9 22  1  0  0  0  0
  9 10  1  0  0  0  0
 10 11  1  0  0  0  0
 10 15  2  0  0  0  0
 11 12  1  0  0  0  0
 11 13  2  0  0  0  0
 11 14  2  0  0  0  0
 12 40  1  0  0  0  0
 12 41  1  0  0  0  0
 12 42  1  0  0  0  0
 15 16  1  0  0  0  0
 16 22  2  0  0  0  0
 16 17  1  0  0  0  0
 17 18  1  0  0  0  0
 17 19  2  0  0  0  0
 18 43  1  0  0  0  0
 18 44  1  0  0  0  0
 19 20  1  0  0  0  0
 20 21  2  0  0  0  0
 20 45  1  0  0  0  0
 21 22  1  0  0  0  0
 23 24  1  0  0  0  0
 23 28  1  0  0  0  0
 23 46  1  0  0  0  0
 24 25  1  0  0  0  0
 25 26  1  0  0  0  0
 25 27  2  0  0  0  0
 26 47  1  0  0  0  0
 26 48  1  0  0  0  0
 26 49  1  0  0  0  0
 28 29  1  0  0  0  0
 28 50  1  0  0  0  0
 29 30  1  0  0  0  0
 30 31  1  0  0  0  0
 30 32  2  0  0  0  0
 31 51  1  0  0  0  0
 31 52  1  0  0  0  0
 31 53  1  0  0  0  0
M  END
> <s_m_source_file>
AV-unprocessed.smi

> <i_m_source_file_index>
103

> <i_lp_mmshare_version>
43012

> <i_f3d_flags>
0

> <s_epik_input>
W0NIM11DKD1PKU9bQ0gyXVtDQEBIXTFPW0NASF0oW0NAQEhdKE9DKD1PKVtDSDNdKVtDQEhdMU9DKD1PKVtDSDNdKW4oYyhuMilTKD1PKSg9TylbQ0gzXSljKGMyMyluW2NIXW5jM1tOSDJd

> <s_epik_cmdline>
J2VwaWtfcHl0aG9uJywgJy1waCcsICc3LjAnLCAnLXRuJywgJzgnLCAnLW1hJywgJzIwMCcsICctbWV0YWxfYmluZGluZycsICctaW1hZScsICc8aW5maWxlLm1hZT4nLCAnLW9tYWUnLCAnPG91dGZpbGUubWFlPic=

> <r_lp_tautomer_probability>
1

> <r_epik_Ionization_Penalty>
1.51338e-05

> <r_epik_Ionization_Penalty_Charging>
0

> <r_epik_Ionization_Penalty_Neutral>
1.51338e-05

> <r_epik_State_Penalty>
-0

> <r_epik_Charging_Adjusted_Penalty>
0

> <i_epik_Tot_Q>
0

> <i_epik_Tot_abs_Q>
0

> <r_epik_Metal_State_Penalty>
-0

> <b_epik_Metal_Only>
0

> <s_epik_Chemistry_Notes>
This compound has an ester and may undergo hydrolysis at high or low pH. This compound contains an acetal/aminal-like group ( X-CH(R)-Y where X, Y are N, S, or O) that may be acid/base labile, releasing an aldehyde.

> <s_lp_Force_Field>
OPLS_2005

> <r_lp_Energy>
18.7929

> <b_lp_Chiralities_Consistent>
1

> <s_lp_Variant>
AV-unprocessed.smi:103-8

> <Gold.Version>
5.8.1

> <Gold.Id.Protein>
6NUR|6NUR_protein|mol2

> <Gold.PLP.Fitness>
43.5755

> <Gold.PLP.PLP>
-34.5101

> <Gold.PLP.part.hbond>
-5.2093

> <Gold.PLP.part.metal>
0.0000

> <Gold.PLP.part.buried>
-4.7127

> <Gold.PLP.part.nonpolar>
-27.4909

> <Gold.PLP.part.repulsive>
0.8558

> <Gold.PLP.ligand.clash>
0.0000

> <Gold.PLP.ligand.torsion>
2.7768

> <Gold.PLP.Chemscore.Hbond>
4.1234

> <Gold.PLP.Chemscore.CHOScore>
0.0000

> <Gold.PLP.Chemscore.Metal>
0.0000

> <Gold.Chemscore.Hbonds>
donor molecule, donor type, donor heavy atom, donor atom, acceptor molecule, acceptor atom, score
      L1  H    18    43       P1 10175  1.00
      P1  H  6933  6944       L1    27  0.79
      P1  H  6934  6946       L1    27  0.98
      P1  H  7997  8008       L1     3  1.00
      P1  H  8011  8017       L1    13  0.37

> <Gold.PLP.Chemscore.Internal.Correction>
2.2488

> <Gold.Rescore>
     Score         DG    S(hbond)    S(metal)    S(lipo)     H(rot)  DE(clash)    DE(int)     intcor
      0.19     -12.85       3.67        0.00      51.25       4.25       1.81      10.86       ----

> <Gold.Chemscore.Fitness>
0.1869

> <Gold.Chemscore.DG>
-12.8531

> <Gold.Chemscore.ZeroCoef>
-5.4800

> <Gold.Chemscore.Hbond>
3.6664

> <Gold.Chemscore.Metal>
0.0000

> <Gold.Chemscore.Lipo>
51.2491

> <Gold.Chemscore.Internal_Hbond>
0.0000

> <Gold.Chemscore.DEClash>
1.8088

> <Gold.Chemscore.DEInternal>
10.8574

> <Gold.Chemscore.Rot>
4.2456

> <Gold.Chemscore.Internal.Correction>
   9.000000E+99

> <Gold.Chemscore.Hbonds>
donor molecule, donor type, donor heavy atom, donor atom, acceptor molecule, acceptor atom, score
      L1  H    18    43       P1 10175  0.94
      P1  H  6933  6944       L1    27  0.73
      P1  H  6934  6946       L1    27  0.88
      P1  H  7997  8008       L1     3  0.97
      P1  H  8011  8017       L1    13  0.26

> <Gold.Chemscore.Hbond.Weighted>
-12.2456

> <Gold.Chemscore.Metal.Weighted>
-0.0000

> <Gold.Chemscore.Lipo.Weighted>
-5.9961

> <Gold.Chemscore.Internal_Hbond.Weighted>
0.0000

> <Gold.Chemscore.DEClash.Weighted>
1.8088

> <Gold.Chemscore.DEInternal.Weighted>
10.8574

> <Gold.Chemscore.Rot.Weighted>
10.8687

> <Gold.Chemscore.Internal.Correction.Weighted>
   9.000000E+99

> <Gold.Protein.RotatedTorsions>
[ 6907 6896 6895 6894 ] final -146.98 input  -60.11 | X-H torsion
[ 7974 7965 7964 7962 ] final   -8.10 input  175.53 | X-H torsion
[ 8008 7997 7996 7995 ] final -114.63 input   59.86 | X-H torsion
[ 10167 10162 10161 10158 ] final   73.92 input  -65.29 | X-H torsion
[ 10718 10713 10712 10709 ] final  135.34 input   66.30 | X-H torsion
[ 10763 10752 10751 10750 ] final -163.71 input  -60.55 | X-H torsion
[ 11005 11000 10999 10996 ] final   54.84 input  -57.11 | X-H torsion

> <Gold.Protein.ActiveResidues>
 VAL166  LYS551  ARG553  GLY616  TRP617  ASP618  TYR619  PRO620  LYS621  CYS622 
 ASP623  PHE694  ASN695  SER759  ASP760  ASP761  ALA762  ILE779  LEU786  VAL792 
 PHE793  MET794  SER795  GLU796  ALA797  LYS798  CYS799  TRP800  GLU811  SER814 

> <Gold.Protein.RotatedAtoms>
  151.1492  133.4919  159.2595 H   0  0  0  0  0  0  0  0  0  0  0  0  # atno 6907 bound_to 6896
  151.1572  135.0256  159.8704 H   0  0  0  0  0  0  0  0  0  0  0  0  # atno 6908 bound_to 6896
  152.5463  134.1369  159.8516 H   0  0  0  0  0  0  0  0  0  0  0  0  # atno 6909 bound_to 6896
  146.2289  140.2418  142.8344 H   0  0  0  0  0  0  0  0  0  0  0  0  # atno 7974 bound_to 7965
  155.0393  140.0392  157.2503 H   0  0  0  0  0  0  0  0  0  0  0  0  # atno 8008 bound_to 7997
  154.7230  140.2715  155.6500 H   0  0  0  0  0  0  0  0  0  0  0  0  # atno 8009 bound_to 7997
  156.2821  140.2699  156.1907 H   0  0  0  0  0  0  0  0  0  0  0  0  # atno 8010 bound_to 7997
  140.0193  144.5553  150.7595 H   0  0  0  0  0  0  0  0  0  0  0  0  # atno 10167 bound_to 10162
  157.4581  131.1071  150.9953 H   0  0  0  0  0  0  0  0  0  0  0  0  # atno 10718 bound_to 10713
  154.7097  135.3004  154.9216 H   0  0  0  0  0  0  0  0  0  0  0  0  # atno 10763 bound_to 10752
  154.0121  135.6693  153.4770 H   0  0  0  0  0  0  0  0  0  0  0  0  # atno 10764 bound_to 10752
  153.0745  135.5042  154.8288 H   0  0  0  0  0  0  0  0  0  0  0  0  # atno 10765 bound_to 10752
  140.0654  134.5544  155.9105 H   0  0  0  0  0  0  0  0  0  0  0  0  # atno 11005 bound_to 11000
  144.9478  140.8147  143.5590 LP  0  0  0  0  0  0  0  0  0  0  0  0  # atno 17320 bound_to 7965
  145.2376  139.2087  143.5010 LP  0  0  0  0  0  0  0  0  0  0  0  0  # atno 17321 bound_to 7965
  140.7349  143.2734  151.3815 LP  0  0  0  0  0  0  0  0  0  0  0  0  # atno 17342 bound_to 10162
  139.6151  144.1019  152.2337 LP  0  0  0  0  0  0  0  0  0  0  0  0  # atno 17343 bound_to 10162
  157.0760  130.5883  149.5411 LP  0  0  0  0  0  0  0  0  0  0  0  0  # atno 17370 bound_to 10713
  156.0016  130.5096  150.7683 LP  0  0  0  0  0  0  0  0  0  0  0  0  # atno 17371 bound_to 10713
  141.1990  133.6604  156.5824 LP  0  0  0  0  0  0  0  0  0  0  0  0  # atno 17394 bound_to 11000
  140.3707  134.7608  157.4596 LP  0  0  0  0  0  0  0  0  0  0  0  0  # atno 17395 bound_to 11000

$$$$
