AV-unprocessed.smi:1712|AV-procd|sdf|6904|dock6
  -GOLD-   22720 8113D 1   1.00000     0.00000
 Structure written by MMmdl.
 38 39  0  0  0  0  0  0  0  0  2 V2000
  149.6065  135.8379  157.0599 C   0  0  0  0  0  0  0  0  0  0  0  0
  149.2929  135.7370  155.5463 C   0  0  1  0  0  0  0  0  0  0  0  0
  147.7729  135.5292  155.3108 C   0  0  0  0  0  0  0  0  0  0  0  0
  147.4120  135.4795  153.8956 N   0  0  0  0  0  0  0  0  0  0  0  0
  146.2981  134.9231  153.3975 C   0  0  0  0  0  0  0  0  0  0  0  0
  145.4474  134.3651  154.0908 O   0  0  0  0  0  0  0  0  0  0  0  0
  146.2449  135.0479  152.0615 N   0  0  0  0  0  0  0  0  0  0  0  0
  145.2251  134.5811  151.1945 C   0  0  0  0  0  0  0  0  0  0  0  0
  144.9151  133.2118  150.9728 C   0  0  0  0  0  0  0  0  0  0  0  0
  143.9172  133.0753  150.1113 N   0  0  0  0  0  0  0  0  0  0  0  0
  143.5881  134.3444  149.7802 N   0  0  0  0  0  0  0  0  0  0  0  0
  144.3573  135.2940  150.4156 C   0  0  0  0  0  0  0  0  0  0  0  0
  149.7791  136.9194  154.7601 N   0  3  0  0  0  0  0  0  0  0  0  0
  149.0305  138.1890  154.9770 C   0  0  0  0  0  0  0  0  0  0  0  0
  149.5911  139.3227  154.1010 C   0  0  0  0  0  0  0  0  0  0  0  0
  150.9755  139.4982  154.3620 O   0  0  0  0  0  0  0  0  0  0  0  0
  151.7143  138.3276  154.0487 C   0  0  0  0  0  0  0  0  0  0  0  0
  151.2366  137.1678  154.9372 C   0  0  0  0  0  0  0  0  0  0  0  0
  142.8448  134.5442  149.1259 H   0  0  0  0  0  0  0  0  0  0  0  0
  149.2457  134.9681  157.6073 H   0  0  0  0  0  0  0  0  0  0  0  0
  149.1440  136.7195  157.5049 H   0  0  0  0  0  0  0  0  0  0  0  0
  150.6775  135.8740  157.2582 H   0  0  0  0  0  0  0  0  0  0  0  0
  149.8216  134.8561  155.1783 H   0  0  0  0  0  0  0  0  0  0  0  0
  147.4362  134.6314  155.8324 H   0  0  0  0  0  0  0  0  0  0  0  0
  147.1930  136.3493  155.7293 H   0  0  0  0  0  0  0  0  0  0  0  0
  148.0539  135.9130  153.2477 H   0  0  0  0  0  0  0  0  0  0  0  0
  147.0145  135.5256  151.6158 H   0  0  0  0  0  0  0  0  0  0  0  0
  145.3714  132.3307  151.3993 H   0  0  0  0  0  0  0  0  0  0  0  0
  144.2175  136.3529  150.2556 H   0  0  0  0  0  0  0  0  0  0  0  0
  147.9796  138.0703  154.7153 H   0  0  0  0  0  0  0  0  0  0  0  0
  149.0791  138.4693  156.0304 H   0  0  0  0  0  0  0  0  0  0  0  0
  149.4324  139.1109  153.0422 H   0  0  0  0  0  0  0  0  0  0  0  0
  149.0709  140.2558  154.3186 H   0  0  0  0  0  0  0  0  0  0  0  0
  151.6072  138.0813  152.9910 H   0  0  0  0  0  0  0  0  0  0  0  0
  152.7725  138.5220  154.2242 H   0  0  0  0  0  0  0  0  0  0  0  0
  151.4431  137.3975  155.9838 H   0  0  0  0  0  0  0  0  0  0  0  0
  151.8225  136.2859  154.6867 H   0  0  0  0  0  0  0  0  0  0  0  0
  149.6386  136.6849  153.7877 H   0  0  0  0  0  0  0  0  0  0  0  0
  1  2  1  0  0  0  0
  1 20  1  0  0  0  0
  1 21  1  0  0  0  0
  1 22  1  0  0  0  0
  2  3  1  0  0  0  0
  2 13  1  0  0  0  0
  2 23  1  0  0  0  0
  3  4  1  0  0  0  0
  3 24  1  0  0  0  0
  3 25  1  0  0  0  0
  4  5  1  0  0  0  0
  4 26  1  0  0  0  0
  5  6  2  0  0  0  0
  5  7  1  0  0  0  0
  7  8  1  0  0  0  0
  7 27  1  0  0  0  0
  8 12  2  0  0  0  0
  8  9  1  0  0  0  0
  9 10  2  0  0  0  0
  9 28  1  0  0  0  0
 10 11  1  0  0  0  0
 11 19  1  0  0  0  0
 11 12  1  0  0  0  0
 12 29  1  0  0  0  0
 13 18  1  0  0  0  0
 13 14  1  0  0  0  0
 13 38  1  0  0  0  0
 14 15  1  0  0  0  0
 14 30  1  0  0  0  0
 14 31  1  0  0  0  0
 15 16  1  0  0  0  0
 15 32  1  0  0  0  0
 15 33  1  0  0  0  0
 16 17  1  0  0  0  0
 17 18  1  0  0  0  0
 17 34  1  0  0  0  0
 17 35  1  0  0  0  0
 18 36  1  0  0  0  0
 18 37  1  0  0  0  0
M  CHG  1  13   1
M  END
> <s_m_source_file>
AV-unprocessed.smi

> <i_m_source_file_index>
1712

> <i_lp_mmshare_version>
43012

> <i_f3d_flags>
0

> <s_epik_input>
W0NIMl0xW0NIMl1PW0NIMl1bQ0gyXU4xW0NASF0oW0NIM10pW0NIMl1bTkhdQyg9TylbTkhdYzJbY0hdbltuSF1bY0hdMg==

> <s_epik_cmdline>
J2VwaWtfcHl0aG9uJywgJy1waCcsICc3LjAnLCAnLXRuJywgJzgnLCAnLW1hJywgJzIwMCcsICctbWV0YWxfYmluZGluZycsICctaW1hZScsICc8aW5maWxlLm1hZT4nLCAnLW9tYWUnLCAnPG91dGZpbGUubWFlPic=

> <r_lp_tautomer_probability>
0.5

> <r_epik_Ionization_Penalty>
0.646007

> <r_epik_Ionization_Penalty_Charging>
0.645968

> <r_epik_Ionization_Penalty_Neutral>
3.91929e-05

> <r_epik_State_Penalty>
0.664063

> <r_epik_Charging_Adjusted_Penalty>
1.31003

> <i_epik_Tot_Q>
1

> <i_epik_Tot_abs_Q>
1

> <r_epik_Metal_State_Penalty>
0.664064

> <b_epik_Metal_Only>
0

> <s_lp_Force_Field>
OPLS_2005

> <r_lp_Energy>
23.8856

> <b_lp_Chiralities_Consistent>
1

> <s_lp_Variant>
AV-unprocessed.smi:1712-4

> <Gold.Version>
5.8.1

> <Gold.Id.Protein>
6NUR|6NUR_protein|mol2

> <Gold.PLP.Fitness>
41.8246

> <Gold.PLP.PLP>
-23.9347

> <Gold.PLP.part.hbond>
-4.9852

> <Gold.PLP.part.metal>
0.0000

> <Gold.PLP.part.buried>
-4.6492

> <Gold.PLP.part.nonpolar>
-14.8536

> <Gold.PLP.part.repulsive>
0.5113

> <Gold.PLP.ligand.clash>
0.0000

> <Gold.PLP.ligand.torsion>
0.8405

> <Gold.PLP.Chemscore.Hbond>
5.5025

> <Gold.PLP.Chemscore.CHOScore>
1.0000

> <Gold.PLP.Chemscore.Metal>
0.0000

> <Gold.Chemscore.Hbonds>
donor molecule, donor type, donor heavy atom, donor atom, acceptor molecule, acceptor atom, score
      L1  H     4    26       P1  7948  1.00
      L1  H     7    27       P1  7948  0.90
      L1  H    11    19       P1 10186  0.50
      L1  H    13    38       P1  7948  1.85
      P1  H  7989  7998       L1    16  1.00
      L1  C    12    29       P1 10171  1.00

> <Gold.PLP.Chemscore.Internal.Correction>
0.0635

> <Gold.Rescore>
     Score         DG    S(hbond)    S(metal)    S(lipo)     H(rot)  DE(clash)    DE(int)     intcor
     17.90     -20.01       3.73        0.00      54.31       1.68       1.37       0.74       ----

> <Gold.Chemscore.Fitness>
17.9039

> <Gold.Chemscore.DG>
-20.0104

> <Gold.Chemscore.ZeroCoef>
-5.4800

> <Gold.Chemscore.Hbond>
3.7335

> <Gold.Chemscore.Metal>
0.0000

> <Gold.Chemscore.Lipo>
54.3068

> <Gold.Chemscore.Internal_Hbond>
0.0000

> <Gold.Chemscore.DEClash>
1.3676

> <Gold.Chemscore.DEInternal>
0.7390

> <Gold.Chemscore.Rot>
1.6771

> <Gold.Chemscore.Internal.Correction>
   9.000000E+99

> <Gold.Chemscore.Hbonds>
donor molecule, donor type, donor heavy atom, donor atom, acceptor molecule, acceptor atom, score
      L1  H     4    26       P1  7948  1.00
      L1  H     7    27       P1  7948  0.82
      L1  H    11    19       P1 10186  0.50
      L1  H    13    38       P1  7948  0.62
      P1  H  7989  7998       L1    16  0.57

> <Gold.Chemscore.Hbond.Weighted>
-12.4700

> <Gold.Chemscore.Metal.Weighted>
-0.0000

> <Gold.Chemscore.Lipo.Weighted>
-6.3539

> <Gold.Chemscore.Internal_Hbond.Weighted>
0.0000

> <Gold.Chemscore.DEClash.Weighted>
1.3676

> <Gold.Chemscore.DEInternal.Weighted>
0.7390

> <Gold.Chemscore.Rot.Weighted>
4.2935

> <Gold.Chemscore.Internal.Correction.Weighted>
   9.000000E+99

> <Gold.Protein.RotatedTorsions>
[ 6907 6896 6895 6894 ] final -122.85 input  -60.11 | X-H torsion
[ 7974 7965 7964 7962 ] final  176.89 input  175.53 | X-H torsion
[ 8008 7997 7996 7995 ] final -164.16 input   59.86 | X-H torsion
[ 10167 10162 10161 10158 ] final -159.60 input  -65.29 | X-H torsion
[ 10718 10713 10712 10709 ] final   92.93 input   66.30 | X-H torsion
[ 10763 10752 10751 10750 ] final  113.32 input  -60.55 | X-H torsion
[ 11005 11000 10999 10996 ] final   82.59 input  -57.11 | X-H torsion

> <Gold.Protein.ActiveResidues>
 VAL166  LYS551  ARG553  GLY616  TRP617  ASP618  TYR619  PRO620  LYS621  CYS622 
 ASP623  PHE694  ASN695  SER759  ASP760  ASP761  ALA762  ILE779  LEU786  VAL792 
 PHE793  MET794  SER795  GLU796  ALA797  LYS798  CYS799  TRP800  GLU811  SER814 

> <Gold.Protein.RotatedAtoms>
  150.8614  133.7637  159.2990 H   0  0  0  0  0  0  0  0  0  0  0  0  # atno 6907 bound_to 6896
  151.5278  135.1066  159.9904 H   0  0  0  0  0  0  0  0  0  0  0  0  # atno 6908 bound_to 6896
  152.4629  133.7817  159.6910 H   0  0  0  0  0  0  0  0  0  0  0  0  # atno 6909 bound_to 6896
  144.7177  140.0165  143.6440 H   0  0  0  0  0  0  0  0  0  0  0  0  # atno 7974 bound_to 7965
  155.8317  140.0935  157.1788 H   0  0  0  0  0  0  0  0  0  0  0  0  # atno 8008 bound_to 7997
  154.3980  140.1418  156.3682 H   0  0  0  0  0  0  0  0  0  0  0  0  # atno 8009 bound_to 7997
  155.8159  140.3448  155.5487 H   0  0  0  0  0  0  0  0  0  0  0  0  # atno 8010 bound_to 7997
  139.6602  143.9925  152.2220 H   0  0  0  0  0  0  0  0  0  0  0  0  # atno 10167 bound_to 10162
  157.6957  131.0460  150.3957 H   0  0  0  0  0  0  0  0  0  0  0  0  # atno 10718 bound_to 10713
  153.4907  135.3659  155.2490 H   0  0  0  0  0  0  0  0  0  0  0  0  # atno 10763 bound_to 10752
  154.8752  135.3976  154.3592 H   0  0  0  0  0  0  0  0  0  0  0  0  # atno 10764 bound_to 10752
  153.4211  135.7080  153.6359 H   0  0  0  0  0  0  0  0  0  0  0  0  # atno 10765 bound_to 10752
  139.9058  134.8082  156.2195 H   0  0  0  0  0  0  0  0  0  0  0  0  # atno 11005 bound_to 11000
  146.0215  139.3255  143.0810 LP  0  0  0  0  0  0  0  0  0  0  0  0  # atno 17320 bound_to 7965
  145.8562  140.9501  143.0724 LP  0  0  0  0  0  0  0  0  0  0  0  0  # atno 17321 bound_to 7965
  139.9663  144.6524  150.8032 LP  0  0  0  0  0  0  0  0  0  0  0  0  # atno 17342 bound_to 10162
  140.7577  143.3091  151.2888 LP  0  0  0  0  0  0  0  0  0  0  0  0  # atno 17343 bound_to 10162
  156.4355  130.3981  149.6731 LP  0  0  0  0  0  0  0  0  0  0  0  0  # atno 17370 bound_to 10713
  156.3934  130.7638  151.2641 LP  0  0  0  0  0  0  0  0  0  0  0  0  # atno 17371 bound_to 10713
  141.0415  133.6935  156.1606 LP  0  0  0  0  0  0  0  0  0  0  0  0  # atno 17394 bound_to 11000
  140.6949  134.4627  157.5588 LP  0  0  0  0  0  0  0  0  0  0  0  0  # atno 17395 bound_to 11000

$$$$
