AV-unprocessed.smi:3150|AV-procd|sdf|12007|dock7
  -GOLD-   2272017413D 1   1.00000     0.00000
 Structure written by MMmdl.
 33 34  0  0  0  0  0  0  0  0  1 V2000
  150.4792  134.0285  155.8059 C   0  0  0  0  0  0  0  0  0  0  0  0
  149.6754  134.5748  154.6163 C   0  0  2  0  0  0  0  0  0  0  0  0
  148.9852  135.7393  155.0624 O   0  0  0  0  0  0  0  0  0  0  0  0
  149.8000  136.7396  155.6612 C   0  0  0  0  0  0  0  0  0  0  0  0
  150.3188  137.6581  154.5764 C   0  0  0  0  0  0  0  0  0  0  0  0
  151.7847  138.0222  154.5128 C   0  0  0  0  0  0  0  0  0  0  0  0
  150.7688  139.0617  154.9131 C   0  0  0  0  0  0  0  0  0  0  0  0
  148.6781  133.5322  154.0851 C   0  0  0  0  0  0  0  0  0  0  0  0
  148.6049  132.4270  154.6236 O   0  0  0  0  0  0  0  0  0  0  0  0
  147.9224  133.9279  153.0439 N   0  0  0  0  0  0  0  0  0  0  0  0
  146.9149  133.2015  152.3510 C   0  0  0  0  0  0  0  0  0  0  0  0
  146.7279  131.8662  152.5024 N   0  0  0  0  0  0  0  0  0  0  0  0
  145.7482  131.2513  151.8079 C   0  0  0  0  0  0  0  0  0  0  0  0
  144.8946  131.9282  150.9187 C   0  0  0  0  0  0  0  0  0  0  0  0
  145.0761  133.3119  150.7511 C   0  0  0  0  0  0  0  0  0  0  0  0
  146.0975  133.9600  151.4742 C   0  0  0  0  0  0  0  0  0  0  0  0
  146.2788  135.3064  151.3164 O   0  0  0  0  0  0  0  0  0  0  0  0
  151.0219  133.1220  155.5351 H   0  0  0  0  0  0  0  0  0  0  0  0
  149.8340  133.7932  156.6535 H   0  0  0  0  0  0  0  0  0  0  0  0
  151.2118  134.7612  156.1449 H   0  0  0  0  0  0  0  0  0  0  0  0
  150.3788  134.8512  153.8282 H   0  0  0  0  0  0  0  0  0  0  0  0
  149.2173  137.3273  156.3715 H   0  0  0  0  0  0  0  0  0  0  0  0
  150.6424  136.3029  156.1992 H   0  0  0  0  0  0  0  0  0  0  0  0
  149.8115  137.5402  153.6207 H   0  0  0  0  0  0  0  0  0  0  0  0
  152.4378  137.6313  155.2908 H   0  0  0  0  0  0  0  0  0  0  0  0
  152.2364  138.1123  153.5271 H   0  0  0  0  0  0  0  0  0  0  0  0
  150.5435  139.8472  154.1948 H   0  0  0  0  0  0  0  0  0  0  0  0
  150.7483  139.3658  155.9579 H   0  0  0  0  0  0  0  0  0  0  0  0
  148.0821  134.8664  152.7071 H   0  0  0  0  0  0  0  0  0  0  0  0
  145.6424  130.1881  151.9660 H   0  0  0  0  0  0  0  0  0  0  0  0
  144.1219  131.3994  150.3807 H   0  0  0  0  0  0  0  0  0  0  0  0
  144.4401  133.8669  150.0771 H   0  0  0  0  0  0  0  0  0  0  0  0
  147.1860  135.5663  151.3661 H   0  0  0  0  0  0  0  0  0  0  0  0
  1  2  1  0  0  0  0
  1 18  1  0  0  0  0
  1 19  1  0  0  0  0
  1 20  1  0  0  0  0
  2  3  1  0  0  0  0
  2  8  1  0  0  0  0
  2 21  1  0  0  0  0
  3  4  1  0  0  0  0
  4  5  1  0  0  0  0
  4 22  1  0  0  0  0
  4 23  1  0  0  0  0
  5  7  1  0  0  0  0
  5  6  1  0  0  0  0
  5 24  1  0  0  0  0
  6  7  1  0  0  0  0
  6 25  1  0  0  0  0
  6 26  1  0  0  0  0
  7 27  1  0  0  0  0
  7 28  1  0  0  0  0
  8  9  2  0  0  0  0
  8 10  1  0  0  0  0
 10 11  1  0  0  0  0
 10 29  1  0  0  0  0
 11 16  1  0  0  0  0
 11 12  2  0  0  0  0
 12 13  1  0  0  0  0
 13 14  2  0  0  0  0
 13 30  1  0  0  0  0
 14 15  1  0  0  0  0
 14 31  1  0  0  0  0
 15 16  2  0  0  0  0
 15 32  1  0  0  0  0
 16 17  1  0  0  0  0
 17 33  1  0  0  0  0
M  END
> <s_m_source_file>
AV-unprocessed.smi

> <i_m_source_file_index>
3150

> <i_lp_mmshare_version>
43012

> <i_f3d_flags>
0

> <s_epik_input>
W0NIMl0xW0NIMl1bQ0hdMVtDSDJdT1tDQEBIXShbQ0gzXSlDKD1PKVtOSF1jMm5bY0hdW2NIXVtjSF1jMltPSF0=

> <s_epik_cmdline>
J2VwaWtfcHl0aG9uJywgJy1waCcsICc3LjAnLCAnLXRuJywgJzgnLCAnLW1hJywgJzIwMCcsICctbWV0YWxfYmluZGluZycsICctaW1hZScsICc8aW5maWxlLm1hZT4nLCAnLW9tYWUnLCAnPG91dGZpbGUubWFlPic=

> <r_lp_tautomer_probability>
0.43658

> <r_epik_Ionization_Penalty>
0.0204299

> <r_epik_Ionization_Penalty_Charging>
0

> <r_epik_Ionization_Penalty_Neutral>
0.0204299

> <r_epik_State_Penalty>
0.419322

> <r_epik_Charging_Adjusted_Penalty>
0.419322

> <i_epik_Tot_Q>
0

> <i_epik_Tot_abs_Q>
0

> <r_epik_Metal_State_Penalty>
0.377394

> <b_epik_Metal_Only>
0

> <s_lp_Force_Field>
OPLS_2005

> <r_lp_Energy>
16.2266

> <b_lp_Chiralities_Consistent>
1

> <s_lp_Variant>
AV-unprocessed.smi:3150-1

> <Gold.Version>
5.8.1

> <Gold.Id.Protein>
6NUR|6NUR_protein|mol2

> <Gold.PLP.Fitness>
36.0421

> <Gold.PLP.PLP>
-30.8265

> <Gold.PLP.part.hbond>
-2.0000

> <Gold.PLP.part.metal>
0.0000

> <Gold.PLP.part.buried>
-4.9535

> <Gold.PLP.part.nonpolar>
-23.8651

> <Gold.PLP.part.repulsive>
0.3086

> <Gold.PLP.ligand.clash>
0.0000

> <Gold.PLP.ligand.torsion>
0.6708

> <Gold.PLP.Chemscore.Hbond>
2.0000

> <Gold.PLP.Chemscore.CHOScore>
0.0000

> <Gold.PLP.Chemscore.Metal>
0.0000

> <Gold.Chemscore.Hbonds>
donor molecule, donor type, donor heavy atom, donor atom, acceptor molecule, acceptor atom, score
      L1  H    10    29       P1  7948  1.00
      L1  H    17    33       P1  7948  1.00

> <Gold.PLP.Chemscore.Internal.Correction>
0.5573

> <Gold.Rescore>
     Score         DG    S(hbond)    S(metal)    S(lipo)     H(rot)  DE(clash)    DE(int)     intcor
     11.78     -13.71       1.82        0.00      67.06       2.22       0.03       1.91       ----

> <Gold.Chemscore.Fitness>
11.7766

> <Gold.Chemscore.DG>
-13.7147

> <Gold.Chemscore.ZeroCoef>
-5.4800

> <Gold.Chemscore.Hbond>
1.8173

> <Gold.Chemscore.Metal>
0.0000

> <Gold.Chemscore.Lipo>
67.0594

> <Gold.Chemscore.Internal_Hbond>
0.0000

> <Gold.Chemscore.DEClash>
0.0328

> <Gold.Chemscore.DEInternal>
1.9052

> <Gold.Chemscore.Rot>
2.2192

> <Gold.Chemscore.Internal.Correction>
   9.000000E+99

> <Gold.Chemscore.Hbonds>
donor molecule, donor type, donor heavy atom, donor atom, acceptor molecule, acceptor atom, score
      L1  H    10    29       P1  7948  0.77
      L1  H    17    33       P1  7948  0.96

> <Gold.Chemscore.Hbond.Weighted>
-6.0699

> <Gold.Chemscore.Metal.Weighted>
-0.0000

> <Gold.Chemscore.Lipo.Weighted>
-7.8460

> <Gold.Chemscore.Internal_Hbond.Weighted>
0.0000

> <Gold.Chemscore.DEClash.Weighted>
0.0328

> <Gold.Chemscore.DEInternal.Weighted>
1.9052

> <Gold.Chemscore.Rot.Weighted>
5.6812

> <Gold.Chemscore.Internal.Correction.Weighted>
   9.000000E+99

> <Gold.Protein.RotatedTorsions>
[ 6907 6896 6895 6894 ] final  147.40 input  -60.11 | X-H torsion
[ 7974 7965 7964 7962 ] final -122.19 input  175.53 | X-H torsion
[ 8008 7997 7996 7995 ] final -146.33 input   59.86 | X-H torsion
[ 10167 10162 10161 10158 ] final -157.56 input  -65.29 | X-H torsion
[ 10718 10713 10712 10709 ] final  -12.64 input   66.30 | X-H torsion
[ 10763 10752 10751 10750 ] final  -55.52 input  -60.55 | X-H torsion
[ 11005 11000 10999 10996 ] final    7.07 input  -57.11 | X-H torsion

> <Gold.Protein.ActiveResidues>
 VAL166  LYS551  ARG553  GLY616  TRP617  ASP618  TYR619  PRO620  LYS621  CYS622 
 ASP623  PHE694  ASN695  SER759  ASP760  ASP761  ALA762  ILE779  LEU786  VAL792 
 PHE793  MET794  SER795  GLU796  ALA797  LYS798  CYS799  TRP800  GLU811  SER814 

> <Gold.Protein.RotatedAtoms>
  152.1552  133.4547  159.4833 H   0  0  0  0  0  0  0  0  0  0  0  0  # atno 6907 bound_to 6896
  150.6900  134.2140  159.4379 H   0  0  0  0  0  0  0  0  0  0  0  0  # atno 6908 bound_to 6896
  152.0039  134.9913  160.0616 H   0  0  0  0  0  0  0  0  0  0  0  0  # atno 6909 bound_to 6896
  145.0322  140.8077  143.4317 H   0  0  0  0  0  0  0  0  0  0  0  0  # atno 7974 bound_to 7965
  155.5577  140.0622  157.2836 H   0  0  0  0  0  0  0  0  0  0  0  0  # atno 8008 bound_to 7997
  154.4400  140.1891  156.0796 H   0  0  0  0  0  0  0  0  0  0  0  0  # atno 8009 bound_to 7997
  156.0470  140.3289  155.7311 H   0  0  0  0  0  0  0  0  0  0  0  0  # atno 8010 bound_to 7997
  139.6761  143.9661  152.2311 H   0  0  0  0  0  0  0  0  0  0  0  0  # atno 10167 bound_to 10162
  156.6417  130.4930  149.6092 H   0  0  0  0  0  0  0  0  0  0  0  0  # atno 10718 bound_to 10713
  154.1921  135.6425  153.5063 H   0  0  0  0  0  0  0  0  0  0  0  0  # atno 10763 bound_to 10752
  153.0032  135.5431  154.6405 H   0  0  0  0  0  0  0  0  0  0  0  0  # atno 10764 bound_to 10752
  154.5796  135.2924  155.0719 H   0  0  0  0  0  0  0  0  0  0  0  0  # atno 10765 bound_to 10752
  140.5523  134.0271  155.7941 H   0  0  0  0  0  0  0  0  0  0  0  0  # atno 11005 bound_to 11000
  145.1756  139.2380  143.5319 LP  0  0  0  0  0  0  0  0  0  0  0  0  # atno 17320 bound_to 7965
  146.3500  140.1517  142.8592 LP  0  0  0  0  0  0  0  0  0  0  0  0  # atno 17321 bound_to 7965
  139.9439  144.6664  150.8239 LP  0  0  0  0  0  0  0  0  0  0  0  0  # atno 17342 bound_to 10162
  140.7636  143.3226  151.2587 LP  0  0  0  0  0  0  0  0  0  0  0  0  # atno 17343 bound_to 10162
  156.2154  130.6704  151.1313 LP  0  0  0  0  0  0  0  0  0  0  0  0  # atno 17370 bound_to 10713
  157.7169  131.0704  150.6292 LP  0  0  0  0  0  0  0  0  0  0  0  0  # atno 17371 bound_to 10713
  141.1164  133.9533  157.2814 LP  0  0  0  0  0  0  0  0  0  0  0  0  # atno 17394 bound_to 11000
  139.9449  135.0185  156.8821 LP  0  0  0  0  0  0  0  0  0  0  0  0  # atno 17395 bound_to 11000

$$$$
