AV-unprocessed.smi:1761|AV-procd|sdf|7098|dock1
  -GOLD-   22720 8313D 1   1.00000     0.00000
 Structure written by MMmdl.
 34 35  0  0  0  0  0  0  0  0  1 V2000
  144.5997  136.5694  152.6579 O   0  0  0  0  0  0  0  0  0  0  0  0
  145.7997  136.3885  152.4495 C   0  0  0  0  0  0  0  0  0  0  0  0
  146.3257  135.3344  151.8016 N   0  0  0  0  0  0  0  0  0  0  0  0
  145.6478  134.2148  151.2495 C   0  0  0  0  0  0  0  0  0  0  0  0
  146.4816  133.2605  150.6237 C   0  0  0  0  0  0  0  0  0  0  0  0
  145.9077  132.1112  150.0468 C   0  0  0  0  0  0  0  0  0  0  0  0
  144.5128  131.9450  150.1115 C   0  0  0  0  0  0  0  0  0  0  0  0
  143.7550  132.9421  150.7528 C   0  0  0  0  0  0  0  0  0  0  0  0
  144.3030  134.0445  151.3061 N   0  0  0  0  0  0  0  0  0  0  0  0
  146.7582  137.2387  152.8456 N   0  0  0  0  0  0  0  0  0  0  0  0
  146.5381  138.4916  153.5656 C   0  0  1  0  0  0  0  0  0  0  0  0
  147.2102  138.3678  154.9488 C   0  0  0  0  0  0  0  0  0  0  0  0
  147.1670  139.6858  155.7352 C   0  0  0  0  0  0  0  0  0  0  0  0
  147.8058  140.8251  154.9302 C   0  0  0  0  0  0  0  0  0  0  0  0
  147.1089  140.9863  153.5726 C   0  0  0  0  0  0  0  0  0  0  0  0
  147.1272  139.6761  152.7615 C   0  0  2  0  0  0  0  0  0  0  0  0
  146.3626  139.8923  151.5922 O   0  0  0  0  0  0  0  0  0  0  0  0
  147.3291  135.3300  151.6939 H   0  0  0  0  0  0  0  0  0  0  0  0
  147.5518  133.4039  150.5836 H   0  0  0  0  0  0  0  0  0  0  0  0
  146.5282  131.3711  149.5634 H   0  0  0  0  0  0  0  0  0  0  0  0
  144.0362  131.0766  149.6813 H   0  0  0  0  0  0  0  0  0  0  0  0
  142.6812  132.8528  150.8242 H   0  0  0  0  0  0  0  0  0  0  0  0
  147.7159  137.0082  152.6253 H   0  0  0  0  0  0  0  0  0  0  0  0
  145.4724  138.6653  153.7282 H   0  0  0  0  0  0  0  0  0  0  0  0
  146.7267  137.5802  155.5279 H   0  0  0  0  0  0  0  0  0  0  0  0
  148.2510  138.0632  154.8275 H   0  0  0  0  0  0  0  0  0  0  0  0
  146.1327  139.9370  155.9738 H   0  0  0  0  0  0  0  0  0  0  0  0
  147.6846  139.5675  156.6874 H   0  0  0  0  0  0  0  0  0  0  0  0
  147.7463  141.7576  155.4922 H   0  0  0  0  0  0  0  0  0  0  0  0
  148.8662  140.6204  154.7779 H   0  0  0  0  0  0  0  0  0  0  0  0
  146.0783  141.3043  153.7387 H   0  0  0  0  0  0  0  0  0  0  0  0
  147.5895  141.7839  153.0050 H   0  0  0  0  0  0  0  0  0  0  0  0
  148.1540  139.4518  152.4684 H   0  0  0  0  0  0  0  0  0  0  0  0
  145.4692  140.0686  151.8452 H   0  0  0  0  0  0  0  0  0  0  0  0
  1  2  2  0  0  0  0
  2  3  1  0  0  0  0
  2 10  1  0  0  0  0
  3  4  1  0  0  0  0
  3 18  1  0  0  0  0
  4  9  1  0  0  0  0
  4  5  2  0  0  0  0
  5  6  1  0  0  0  0
  5 19  1  0  0  0  0
  6  7  2  0  0  0  0
  6 20  1  0  0  0  0
  7  8  1  0  0  0  0
  7 21  1  0  0  0  0
  8  9  2  0  0  0  0
  8 22  1  0  0  0  0
 10 11  1  0  0  0  0
 10 23  1  0  0  0  0
 11 16  1  0  0  0  0
 11 12  1  0  0  0  0
 11 24  1  0  0  0  0
 12 13  1  0  0  0  0
 12 25  1  0  0  0  0
 12 26  1  0  0  0  0
 13 14  1  0  0  0  0
 13 27  1  0  0  0  0
 13 28  1  0  0  0  0
 14 15  1  0  0  0  0
 14 29  1  0  0  0  0
 14 30  1  0  0  0  0
 15 16  1  0  0  0  0
 15 31  1  0  0  0  0
 15 32  1  0  0  0  0
 16 17  1  0  0  0  0
 16 33  1  0  0  0  0
 17 34  1  0  0  0  0
M  END
> <s_m_source_file>
AV-unprocessed.smi

> <i_m_source_file_index>
1761

> <i_lp_mmshare_version>
43012

> <i_f3d_flags>
0

> <s_epik_input>
bjFbY0hdW2NIXVtjSF1bY0hdYzFbTkhdQyg9TylbTkhdW0NAQEhdMltDSDJdW0NIMl1bQ0gyXVtDSDJdW0NASF0yW09IXQ==

> <s_epik_cmdline>
J2VwaWtfcHl0aG9uJywgJy1waCcsICc3LjAnLCAnLXRuJywgJzgnLCAnLW1hJywgJzIwMCcsICctbWV0YWxfYmluZGluZycsICctaW1hZScsICc8aW5maWxlLm1hZT4nLCAnLW9tYWUnLCAnPG91dGZpbGUubWFlPic=

> <r_lp_tautomer_probability>
1

> <r_epik_Ionization_Penalty>
4.92589e-05

> <r_epik_Ionization_Penalty_Charging>
0

> <r_epik_Ionization_Penalty_Neutral>
4.92589e-05

> <r_epik_State_Penalty>
-0

> <r_epik_Charging_Adjusted_Penalty>
0

> <i_epik_Tot_Q>
0

> <i_epik_Tot_abs_Q>
0

> <r_epik_Metal_State_Penalty>
-0

> <b_epik_Metal_Only>
0

> <s_lp_Force_Field>
OPLS_2005

> <r_lp_Energy>
12.6575

> <b_lp_Chiralities_Consistent>
1

> <s_lp_Variant>
AV-unprocessed.smi:1761-4

> <Gold.Version>
5.8.1

> <Gold.Id.Protein>
6NUR|6NUR_protein|mol2

> <Gold.PLP.Fitness>
39.3178

> <Gold.PLP.PLP>
-27.3557

> <Gold.PLP.part.hbond>
-3.7204

> <Gold.PLP.part.metal>
0.0000

> <Gold.PLP.part.buried>
-3.0970

> <Gold.PLP.part.nonpolar>
-21.5943

> <Gold.PLP.part.repulsive>
0.4156

> <Gold.PLP.ligand.clash>
0.0000

> <Gold.PLP.ligand.torsion>
0.0075

> <Gold.PLP.Chemscore.Hbond>
2.9920

> <Gold.PLP.Chemscore.CHOScore>
1.0000

> <Gold.PLP.Chemscore.Metal>
0.0000

> <Gold.Chemscore.Hbonds>
donor molecule, donor type, donor heavy atom, donor atom, acceptor molecule, acceptor atom, score
      L1  H     3    18       P1  7948  1.00
      L1  H    10    23       P1  7948  1.00
      L1  H    17    34       P1 10175  1.00
      L1  C     8    22       P1 10186  0.69

> <Gold.PLP.Chemscore.Internal.Correction>
0.0011

> <Gold.Rescore>
     Score         DG    S(hbond)    S(metal)    S(lipo)     H(rot)  DE(clash)    DE(int)     intcor
     16.49     -18.01       2.70        0.00      62.03       1.47       0.20       1.32       ----

> <Gold.Chemscore.Fitness>
16.4888

> <Gold.Chemscore.DG>
-18.0073

> <Gold.Chemscore.ZeroCoef>
-5.4800

> <Gold.Chemscore.Hbond>
2.7010

> <Gold.Chemscore.Metal>
0.0000

> <Gold.Chemscore.Lipo>
62.0252

> <Gold.Chemscore.Internal_Hbond>
0.0000

> <Gold.Chemscore.DEClash>
0.2020

> <Gold.Chemscore.DEInternal>
1.3165

> <Gold.Chemscore.Rot>
1.4653

> <Gold.Chemscore.Internal.Correction>
   9.000000E+99

> <Gold.Chemscore.Hbonds>
donor molecule, donor type, donor heavy atom, donor atom, acceptor molecule, acceptor atom, score
      L1  H     3    18       P1  7948  0.91
      L1  H    10    23       P1  7948  0.99
      L1  H    17    34       P1 10175  0.40

> <Gold.Chemscore.Hbond.Weighted>
-9.0215

> <Gold.Chemscore.Metal.Weighted>
-0.0000

> <Gold.Chemscore.Lipo.Weighted>
-7.2569

> <Gold.Chemscore.Internal_Hbond.Weighted>
0.0000

> <Gold.Chemscore.DEClash.Weighted>
0.2020

> <Gold.Chemscore.DEInternal.Weighted>
1.3165

> <Gold.Chemscore.Rot.Weighted>
3.7511

> <Gold.Chemscore.Internal.Correction.Weighted>
   9.000000E+99

> <Gold.Protein.RotatedTorsions>
[ 6907 6896 6895 6894 ] final -103.72 input  -60.11 | X-H torsion
[ 7974 7965 7964 7962 ] final    5.00 input  175.53 | X-H torsion
[ 8008 7997 7996 7995 ] final -133.55 input   59.86 | X-H torsion
[ 10167 10162 10161 10158 ] final   -1.62 input  -65.29 | X-H torsion
[ 10718 10713 10712 10709 ] final   -5.61 input   66.30 | X-H torsion
[ 10763 10752 10751 10750 ] final  -53.25 input  -60.55 | X-H torsion
[ 11005 11000 10999 10996 ] final -154.12 input  -57.11 | X-H torsion

> <Gold.Protein.ActiveResidues>
 VAL166  LYS551  ARG553  GLY616  TRP617  ASP618  TYR619  PRO620  LYS621  CYS622 
 ASP623  PHE694  ASN695  SER759  ASP760  ASP761  ALA762  ILE779  LEU786  VAL792 
 PHE793  MET794  SER795  GLU796  ALA797  LYS798  CYS799  TRP800  GLU811  SER814 

> <Gold.Protein.RotatedAtoms>
  150.7253  134.0387  159.3757 H   0  0  0  0  0  0  0  0  0  0  0  0  # atno 6907 bound_to 6896
  151.8359  135.0604  160.0451 H   0  0  0  0  0  0  0  0  0  0  0  0  # atno 6908 bound_to 6896
  152.2899  133.5515  159.5587 H   0  0  0  0  0  0  0  0  0  0  0  0  # atno 6909 bound_to 6896
  146.2442  140.0450  142.8379 H   0  0  0  0  0  0  0  0  0  0  0  0  # atno 7974 bound_to 7965
  155.3473  140.0475  157.3046 H   0  0  0  0  0  0  0  0  0  0  0  0  # atno 8008 bound_to 7997
  154.5246  140.2236  155.8879 H   0  0  0  0  0  0  0  0  0  0  0  0  # atno 8009 bound_to 7997
  156.1725  140.3092  155.9006 H   0  0  0  0  0  0  0  0  0  0  0  0  # atno 8010 bound_to 7997
  140.6817  143.6754  150.8150 H   0  0  0  0  0  0  0  0  0  0  0  0  # atno 10167 bound_to 10162
  156.7441  130.5219  149.5818 H   0  0  0  0  0  0  0  0  0  0  0  0  # atno 10718 bound_to 10713
  154.1558  135.6482  153.4974 H   0  0  0  0  0  0  0  0  0  0  0  0  # atno 10763 bound_to 10752
  153.0124  135.5349  154.6761 H   0  0  0  0  0  0  0  0  0  0  0  0  # atno 10764 bound_to 10752
  154.6061  135.2949  155.0454 H   0  0  0  0  0  0  0  0  0  0  0  0  # atno 10765 bound_to 10752
  140.7008  134.3940  157.5210 H   0  0  0  0  0  0  0  0  0  0  0  0  # atno 11005 bound_to 11000
  145.1035  140.9361  143.4698 LP  0  0  0  0  0  0  0  0  0  0  0  0  # atno 17320 bound_to 7965
  145.0648  139.3077  143.5862 LP  0  0  0  0  0  0  0  0  0  0  0  0  # atno 17321 bound_to 7965
  140.0455  143.5302  152.2698 LP  0  0  0  0  0  0  0  0  0  0  0  0  # atno 17342 bound_to 10162
  139.6145  144.7616  151.2877 LP  0  0  0  0  0  0  0  0  0  0  0  0  # atno 17343 bound_to 10162
  156.1445  130.6267  151.0512 LP  0  0  0  0  0  0  0  0  0  0  0  0  # atno 17370 bound_to 10713
  157.6806  131.0839  150.7380 LP  0  0  0  0  0  0  0  0  0  0  0  0  # atno 17371 bound_to 10713
  139.8897  134.8823  156.2406 LP  0  0  0  0  0  0  0  0  0  0  0  0  # atno 17394 bound_to 11000
  141.0165  133.7065  156.1198 LP  0  0  0  0  0  0  0  0  0  0  0  0  # atno 17395 bound_to 11000

$$$$
