AV-unprocessed.smi:203|AV-procd|sdf|1583|dock4
  -GOLD-   2262019473D 1   1.00000     0.00000
 Structure written by MMmdl.
 57 61  0  0  0  0  0  0  0  0  1 V2000
  151.5876  143.9470  157.6456 O   0  0  0  0  0  0  0  0  0  0  0  0
  150.9430  142.9026  157.5890 C   0  0  0  0  0  0  0  0  0  0  0  0
  151.3295  141.6373  158.3354 C   0  0  0  0  0  0  0  0  0  0  0  0
  150.3731  140.5713  157.7655 C   0  0  2  0  0  0  0  0  0  0  0  0
  151.0826  139.4807  156.9015 C   0  0  2  0  0  0  0  0  0  0  0  0
  151.7622  140.0659  155.6349 C   0  0  0  0  0  0  0  0  0  0  0  0
  152.4532  138.9760  154.8047 C   0  0  0  0  0  0  0  0  0  0  0  0
  151.4481  137.8762  154.4477 C   0  0  0  0  0  0  0  0  0  0  0  0
  150.8000  137.3130  155.7191 C   0  0  0  0  0  0  0  0  0  0  0  0
  150.1878  138.3729  156.5199 N   0  0  0  0  0  0  0  0  0  0  0  0
  149.4387  137.8354  157.5083 C   0  0  0  0  0  0  0  0  0  0  0  0
  150.0996  137.2606  158.5427 N   0  0  0  0  0  0  0  0  0  0  0  0
  149.4129  136.7105  159.5488 C   0  0  0  0  0  0  0  0  0  0  0  0
  148.0905  136.6348  159.7148 N   0  0  0  0  0  0  0  0  0  0  0  0
  147.4253  137.2216  158.6786 C   0  0  0  0  0  0  0  0  0  0  0  0
  148.0159  137.8389  157.5410 C   0  0  0  0  0  0  0  0  0  0  0  0
  147.0256  138.3210  156.6939 N   0  0  0  0  0  0  0  0  0  0  0  0
  145.9121  138.0086  157.2980 C   0  0  0  0  0  0  0  0  0  0  0  0
  146.0599  137.3641  158.5057 N   0  0  0  0  0  0  0  0  0  0  0  0
  144.9969  136.9182  159.3895 C   0  0  0  0  0  0  0  0  0  0  0  0
  145.5076  136.3627  160.7395 C   0  0  2  0  0  0  0  0  0  0  0  0
  146.2095  135.1616  160.4933 O   0  0  0  0  0  0  0  0  0  0  0  0
  144.4510  136.1047  161.8402 C   0  0  2  0  0  0  0  0  0  0  0  0
  143.7670  134.7356  161.8317 C   0  0  0  0  0  0  0  0  0  0  0  0
  142.5119  135.0279  162.6230 C   0  0  0  0  0  0  0  0  0  0  0  0
  142.1595  136.4382  162.1551 C   0  0  0  0  0  0  0  0  0  0  0  0
  143.3932  137.0589  161.8018 O   0  0  0  0  0  0  0  0  0  0  0  0
  149.2922  141.3713  157.0036 C   0  0  0  0  0  0  0  0  0  0  0  0
  149.8274  142.7138  156.8874 N   0  0  0  0  0  0  0  0  0  0  0  0
  152.3831  141.3934  158.1989 H   0  0  0  0  0  0  0  0  0  0  0  0
  151.1567  141.7897  159.4013 H   0  0  0  0  0  0  0  0  0  0  0  0
  149.9014  140.0914  158.6234 H   0  0  0  0  0  0  0  0  0  0  0  0
  151.8756  139.0497  157.5133 H   0  0  0  0  0  0  0  0  0  0  0  0
  151.0262  140.5691  155.0075 H   0  0  0  0  0  0  0  0  0  0  0  0
  152.4999  140.8212  155.9031 H   0  0  0  0  0  0  0  0  0  0  0  0
  152.8788  139.4062  153.8978 H   0  0  0  0  0  0  0  0  0  0  0  0
  153.2830  138.5508  155.3705 H   0  0  0  0  0  0  0  0  0  0  0  0
  150.6771  138.2797  153.7898 H   0  0  0  0  0  0  0  0  0  0  0  0
  151.9441  137.0777  153.8953 H   0  0  0  0  0  0  0  0  0  0  0  0
  150.0486  136.5709  155.4447 H   0  0  0  0  0  0  0  0  0  0  0  0
  151.5525  136.7962  156.3168 H   0  0  0  0  0  0  0  0  0  0  0  0
  150.0084  136.2695  160.3346 H   0  0  0  0  0  0  0  0  0  0  0  0
  144.9464  138.2553  156.8812 H   0  0  0  0  0  0  0  0  0  0  0  0
  144.3141  137.7525  159.5547 H   0  0  0  0  0  0  0  0  0  0  0  0
  144.4220  136.1535  158.8659 H   0  0  0  0  0  0  0  0  0  0  0  0
  146.2394  137.0625  161.1442 H   0  0  0  0  0  0  0  0  0  0  0  0
  146.0825  134.5837  161.2299 H   0  0  0  0  0  0  0  0  0  0  0  0
  144.9250  136.2393  162.8144 H   0  0  0  0  0  0  0  0  0  0  0  0
  143.4971  134.4247  160.8234 H   0  0  0  0  0  0  0  0  0  0  0  0
  144.3798  133.9519  162.2778 H   0  0  0  0  0  0  0  0  0  0  0  0
  141.7132  134.3077  162.4443 H   0  0  0  0  0  0  0  0  0  0  0  0
  142.7362  135.0318  163.6905 H   0  0  0  0  0  0  0  0  0  0  0  0
  141.5257  136.3991  161.2686 H   0  0  0  0  0  0  0  0  0  0  0  0
  141.6326  137.0091  162.9199 H   0  0  0  0  0  0  0  0  0  0  0  0
  149.0592  140.9570  156.0226 H   0  0  0  0  0  0  0  0  0  0  0  0
  148.3634  141.4081  157.5739 H   0  0  0  0  0  0  0  0  0  0  0  0
  149.3913  143.4247  156.3180 H   0  0  0  0  0  0  0  0  0  0  0  0
  1  2  2  0  0  0  0
  2 29  1  0  0  0  0
  2  3  1  0  0  0  0
  3  4  1  0  0  0  0
  3 30  1  0  0  0  0
  3 31  1  0  0  0  0
  4  5  1  0  0  0  0
  4 28  1  0  0  0  0
  4 32  1  0  0  0  0
  5 10  1  0  0  0  0
  5  6  1  0  0  0  0
  5 33  1  0  0  0  0
  6  7  1  0  0  0  0
  6 34  1  0  0  0  0
  6 35  1  0  0  0  0
  7  8  1  0  0  0  0
  7 36  1  0  0  0  0
  7 37  1  0  0  0  0
  8  9  1  0  0  0  0
  8 38  1  0  0  0  0
  8 39  1  0  0  0  0
  9 10  1  0  0  0  0
  9 40  1  0  0  0  0
  9 41  1  0  0  0  0
 10 11  1  0  0  0  0
 11 16  1  0  0  0  0
 11 12  2  0  0  0  0
 12 13  1  0  0  0  0
 13 14  2  0  0  0  0
 13 42  1  0  0  0  0
 14 15  1  0  0  0  0
 15 19  1  0  0  0  0
 15 16  2  0  0  0  0
 16 17  1  0  0  0  0
 17 18  2  0  0  0  0
 18 19  1  0  0  0  0
 18 43  1  0  0  0  0
 19 20  1  0  0  0  0
 20 21  1  0  0  0  0
 20 44  1  0  0  0  0
 20 45  1  0  0  0  0
 21 22  1  0  0  0  0
 21 23  1  0  0  0  0
 21 46  1  0  0  0  0
 22 47  1  0  0  0  0
 23 27  1  0  0  0  0
 23 24  1  0  0  0  0
 23 48  1  0  0  0  0
 24 25  1  0  0  0  0
 24 49  1  0  0  0  0
 24 50  1  0  0  0  0
 25 26  1  0  0  0  0
 25 51  1  0  0  0  0
 25 52  1  0  0  0  0
 26 27  1  0  0  0  0
 26 53  1  0  0  0  0
 26 54  1  0  0  0  0
 28 29  1  0  0  0  0
 28 55  1  0  0  0  0
 28 56  1  0  0  0  0
 29 57  1  0  0  0  0
M  END
> <s_m_source_file>
AV-unprocessed.smi

> <i_m_source_file_index>
203

> <i_lp_mmshare_version>
43012

> <i_f3d_flags>
0

> <s_epik_input>
Tz1DMVtDSDJdW0NASF0oW0NIMl1bTkhdMSlbQ0BASF0yW0NIMl1bQ0gyXVtDSDJdW0NIMl1OMmMobltjSF1uMyljKGMzNCluW2NIXW40W0NIMl1bQ0BIXShbT0hdKVtDQEBIXTVbQ0gyXVtDSDJdW0NIMl1PNQ==

> <s_epik_cmdline>
J2VwaWtfcHl0aG9uJywgJy1waCcsICc3LjAnLCAnLXRuJywgJzgnLCAnLW1hJywgJzIwMCcsICctbWV0YWxfYmluZGluZycsICctaW1hZScsICc8aW5maWxlLm1hZT4nLCAnLW9tYWUnLCAnPG91dGZpbGUubWFlPic=

> <r_lp_tautomer_probability>
1

> <r_epik_Ionization_Penalty>
0.00175146

> <r_epik_Ionization_Penalty_Charging>
0

> <r_epik_Ionization_Penalty_Neutral>
0.00175146

> <r_epik_State_Penalty>
0.00109045

> <r_epik_Charging_Adjusted_Penalty>
0.00109045

> <i_epik_Tot_Q>
0

> <i_epik_Tot_abs_Q>
0

> <r_epik_Metal_State_Penalty>
-0

> <b_epik_Metal_Only>
0

> <s_lp_Force_Field>
OPLS_2005

> <r_lp_Energy>
56.3505

> <b_lp_Chiralities_Consistent>
1

> <s_lp_Variant>
AV-unprocessed.smi:203-2

> <Gold.Version>
5.8.1

> <Gold.Id.Protein>
6NUR|6NUR_protein|mol2

> <Gold.PLP.Fitness>
36.9179

> <Gold.PLP.PLP>
-35.2395

> <Gold.PLP.part.hbond>
-1.7036

> <Gold.PLP.part.metal>
0.0000

> <Gold.PLP.part.buried>
-6.1591

> <Gold.PLP.part.nonpolar>
-28.1258

> <Gold.PLP.part.repulsive>
0.1396

> <Gold.PLP.ligand.clash>
0.0000

> <Gold.PLP.ligand.torsion>
0.8043

> <Gold.PLP.Chemscore.Hbond>
1.0000

> <Gold.PLP.Chemscore.CHOScore>
0.0000

> <Gold.PLP.Chemscore.Metal>
0.0000

> <Gold.Chemscore.Hbonds>
donor molecule, donor type, donor heavy atom, donor atom, acceptor molecule, acceptor atom, score
      L1  H    29    57       P1  8028  1.00

> <Gold.PLP.Chemscore.Internal.Correction>
0.2871

> <Gold.Rescore>
     Score         DG    S(hbond)    S(metal)    S(lipo)     H(rot)  DE(clash)    DE(int)     intcor
      8.87     -10.88       1.00        0.00      77.11       2.72       0.01       2.01       ----

> <Gold.Chemscore.Fitness>
8.8659

> <Gold.Chemscore.DG>
-10.8814

> <Gold.Chemscore.ZeroCoef>
-5.4800

> <Gold.Chemscore.Hbond>
0.9987

> <Gold.Chemscore.Metal>
0.0000

> <Gold.Chemscore.Lipo>
77.1050

> <Gold.Chemscore.Internal_Hbond>
0.0000

> <Gold.Chemscore.DEClash>
0.0064

> <Gold.Chemscore.DEInternal>
2.0091

> <Gold.Chemscore.Rot>
2.7171

> <Gold.Chemscore.Internal.Correction>
   9.000000E+99

> <Gold.Chemscore.Hbonds>
donor molecule, donor type, donor heavy atom, donor atom, acceptor molecule, acceptor atom, score
      L1  H    29    57       P1  8028  0.93

> <Gold.Chemscore.Hbond.Weighted>
-3.3358

> <Gold.Chemscore.Metal.Weighted>
-0.0000

> <Gold.Chemscore.Lipo.Weighted>
-9.0213

> <Gold.Chemscore.Internal_Hbond.Weighted>
0.0000

> <Gold.Chemscore.DEClash.Weighted>
0.0064

> <Gold.Chemscore.DEInternal.Weighted>
2.0091

> <Gold.Chemscore.Rot.Weighted>
6.9557

> <Gold.Chemscore.Internal.Correction.Weighted>
   9.000000E+99

> <Gold.Protein.RotatedTorsions>
[ 6907 6896 6895 6894 ] final   73.06 input  -60.11 | X-H torsion
[ 7974 7965 7964 7962 ] final  -17.24 input  175.53 | X-H torsion
[ 8008 7997 7996 7995 ] final  -64.12 input   59.86 | X-H torsion
[ 10167 10162 10161 10158 ] final  169.04 input  -65.29 | X-H torsion
[ 10718 10713 10712 10709 ] final   85.12 input   66.30 | X-H torsion
[ 10763 10752 10751 10750 ] final -138.09 input  -60.55 | X-H torsion
[ 11005 11000 10999 10996 ] final -115.01 input  -57.11 | X-H torsion

> <Gold.Protein.ActiveResidues>
 VAL166  LYS551  ARG553  GLY616  TRP617  ASP618  TYR619  PRO620  LYS621  CYS622 
 ASP623  PHE694  ASN695  SER759  ASP760  ASP761  ALA762  ILE779  LEU786  VAL792 
 PHE793  MET794  SER795  GLU796  ALA797  LYS798  CYS799  TRP800  GLU811  SER814 

> <Gold.Protein.RotatedAtoms>
  152.4902  134.4479  159.9564 H   0  0  0  0  0  0  0  0  0  0  0  0  # atno 6907 bound_to 6896
  151.4467  133.3622  159.2797 H   0  0  0  0  0  0  0  0  0  0  0  0  # atno 6908 bound_to 6896
  150.9050  134.8488  159.7446 H   0  0  0  0  0  0  0  0  0  0  0  0  # atno 6909 bound_to 6896
  146.1950  140.3751  142.8444 H   0  0  0  0  0  0  0  0  0  0  0  0  # atno 7974 bound_to 7965
  154.4593  140.0960  156.6848 H   0  0  0  0  0  0  0  0  0  0  0  0  # atno 8008 bound_to 7997
  155.5042  140.3474  155.4358 H   0  0  0  0  0  0  0  0  0  0  0  0  # atno 8009 bound_to 7997
  156.0839  140.1380  156.9666 H   0  0  0  0  0  0  0  0  0  0  0  0  # atno 8010 bound_to 7997
  139.4982  144.3749  151.9685 H   0  0  0  0  0  0  0  0  0  0  0  0  # atno 10167 bound_to 10162
  157.6909  131.0161  150.2774 H   0  0  0  0  0  0  0  0  0  0  0  0  # atno 10718 bound_to 10713
  154.8645  135.3622  154.5329 H   0  0  0  0  0  0  0  0  0  0  0  0  # atno 10763 bound_to 10752
  153.5954  135.7014  153.5411 H   0  0  0  0  0  0  0  0  0  0  0  0  # atno 10764 bound_to 10752
  153.3337  135.4117  155.1478 H   0  0  0  0  0  0  0  0  0  0  0  0  # atno 10765 bound_to 10752
  141.0515  133.9679  157.2828 H   0  0  0  0  0  0  0  0  0  0  0  0  # atno 11005 bound_to 11000
  144.8562  140.7074  143.6136 LP  0  0  0  0  0  0  0  0  0  0  0  0  # atno 17320 bound_to 7965
  145.3672  139.1667  143.4352 LP  0  0  0  0  0  0  0  0  0  0  0  0  # atno 17321 bound_to 7965
  140.3185  144.3455  150.6015 LP  0  0  0  0  0  0  0  0  0  0  0  0  # atno 17342 bound_to 10162
  140.5742  143.2178  151.7545 LP  0  0  0  0  0  0  0  0  0  0  0  0  # atno 17343 bound_to 10162
  156.3327  130.3803  149.7477 LP  0  0  0  0  0  0  0  0  0  0  0  0  # atno 17370 bound_to 10713
  156.5012  130.8129  151.3133 LP  0  0  0  0  0  0  0  0  0  0  0  0  # atno 17371 bound_to 10713
  139.9354  135.0197  156.8539 LP  0  0  0  0  0  0  0  0  0  0  0  0  # atno 17394 bound_to 11000
  140.6046  134.0140  155.7551 LP  0  0  0  0  0  0  0  0  0  0  0  0  # atno 17395 bound_to 11000

$$$$
