AV-unprocessed.smi:379|AV-procd|sdf|2458|dock10
  -GOLD-   2262022403D 1   1.00000     0.00000
 Structure written by MMmdl.
 39 40  0  0  0  0  0  0  0  0  1 V2000
  145.6358  143.0353  155.6048 C   0  0  0  0  0  0  0  0  0  0  0  0
  145.9462  141.7443  154.8328 C   0  0  0  0  0  0  0  0  0  0  0  0
  147.0366  141.9059  153.7550 C   0  0  2  0  0  0  0  0  0  0  0  0
  147.2155  140.6216  152.9341 C   0  0  0  0  0  0  0  0  0  0  0  0
  148.3152  142.2645  154.3666 N   0  0  0  0  0  0  0  0  0  0  0  0
  149.1591  141.4244  154.9858 C   0  0  0  0  0  0  0  0  0  0  0  0
  148.9353  140.2218  155.1315 O   0  0  0  0  0  0  0  0  0  0  0  0
  150.4543  142.0565  155.5168 C   0  0  0  0  0  0  0  0  0  0  0  0
  151.1561  141.2122  156.5084 N   0  0  0  0  0  0  0  0  0  0  0  0
  151.6251  139.9385  156.0964 C   0  0  0  0  0  0  0  0  0  0  0  0
  151.4491  139.5401  154.9434 O   0  0  0  0  0  0  0  0  0  0  0  0
  152.3162  139.1605  157.1218 C   0  0  0  0  0  0  0  0  0  0  0  0
  152.8371  137.8912  156.7355 C   0  0  0  0  0  0  0  0  0  0  0  0
  153.2447  136.8605  156.4021 N   0  0  0  0  0  0  0  0  0  0  0  0
  152.4563  139.6345  158.3768 C   0  0  0  0  0  0  0  0  0  0  0  0
  151.9477  140.8531  158.7702 N   0  0  0  0  0  0  0  0  0  0  0  0
  152.2448  141.4070  160.0612 C   0  0  0  0  0  0  0  0  0  0  0  0
  152.8917  142.7724  160.1446 C   0  0  0  0  0  0  0  0  0  0  0  0
  153.6828  141.5439  160.5223 C   0  0  0  0  0  0  0  0  0  0  0  0
  151.3158  141.6961  157.8299 C   0  0  0  0  0  0  0  0  0  0  0  0
  150.9202  142.8204  158.1471 O   0  0  0  0  0  0  0  0  0  0  0  0
  144.8235  142.8760  156.3143 H   0  0  0  0  0  0  0  0  0  0  0  0
  145.3331  143.8344  154.9276 H   0  0  0  0  0  0  0  0  0  0  0  0
  146.5001  143.3846  156.1700 H   0  0  0  0  0  0  0  0  0  0  0  0
  146.2362  140.9646  155.5382 H   0  0  0  0  0  0  0  0  0  0  0  0
  145.0273  141.3963  154.3601 H   0  0  0  0  0  0  0  0  0  0  0  0
  146.7169  142.6881  153.0645 H   0  0  0  0  0  0  0  0  0  0  0  0
  146.2844  140.3364  152.4438 H   0  0  0  0  0  0  0  0  0  0  0  0
  147.5300  139.7872  153.5621 H   0  0  0  0  0  0  0  0  0  0  0  0
  147.9677  140.7553  152.1560 H   0  0  0  0  0  0  0  0  0  0  0  0
  148.5877  143.2343  154.3008 H   0  0  0  0  0  0  0  0  0  0  0  0
  151.1124  142.2753  154.6740 H   0  0  0  0  0  0  0  0  0  0  0  0
  150.2107  143.0394  155.9222 H   0  0  0  0  0  0  0  0  0  0  0  0
  152.9809  139.0339  159.1060 H   0  0  0  0  0  0  0  0  0  0  0  0
  151.5185  141.1808  160.8400 H   0  0  0  0  0  0  0  0  0  0  0  0
  153.1616  143.2710  159.2156 H   0  0  0  0  0  0  0  0  0  0  0  0
  152.5688  143.4300  160.9490 H   0  0  0  0  0  0  0  0  0  0  0  0
  153.8873  141.3810  161.5785 H   0  0  0  0  0  0  0  0  0  0  0  0
  154.4739  141.2343  159.8419 H   0  0  0  0  0  0  0  0  0  0  0  0
  1  2  1  0  0  0  0
  1 22  1  0  0  0  0
  1 23  1  0  0  0  0
  1 24  1  0  0  0  0
  2  3  1  0  0  0  0
  2 25  1  0  0  0  0
  2 26  1  0  0  0  0
  3  4  1  0  0  0  0
  3  5  1  0  0  0  0
  3 27  1  0  0  0  0
  4 28  1  0  0  0  0
  4 29  1  0  0  0  0
  4 30  1  0  0  0  0
  5  6  1  0  0  0  0
  5 31  1  0  0  0  0
  6  7  2  0  0  0  0
  6  8  1  0  0  0  0
  8  9  1  0  0  0  0
  8 32  1  0  0  0  0
  8 33  1  0  0  0  0
  9 20  1  0  0  0  0
  9 10  1  0  0  0  0
 10 11  2  0  0  0  0
 10 12  1  0  0  0  0
 12 13  1  0  0  0  0
 12 15  2  0  0  0  0
 13 14  3  0  0  0  0
 15 16  1  0  0  0  0
 15 34  1  0  0  0  0
 16 17  1  0  0  0  0
 16 20  1  0  0  0  0
 17 19  1  0  0  0  0
 17 18  1  0  0  0  0
 17 35  1  0  0  0  0
 18 19  1  0  0  0  0
 18 36  1  0  0  0  0
 18 37  1  0  0  0  0
 19 38  1  0  0  0  0
 19 39  1  0  0  0  0
 20 21  2  0  0  0  0
M  END
> <s_m_source_file>
AV-unprocessed.smi

> <i_m_source_file_index>
379

> <i_lp_mmshare_version>
43012

> <i_f3d_flags>
0

> <s_epik_input>
W0NIM11bQ0gyXVtDQEhdKFtDSDNdKVtOSF1DKD1PKVtDSDJdbjFjKD1PKWMoQyNOKVtjSF1uKGMxPU8pW0NIXTJbQ0gyXVtDSDJdMg==

> <s_epik_cmdline>
J2VwaWtfcHl0aG9uJywgJy1waCcsICc3LjAnLCAnLXRuJywgJzgnLCAnLW1hJywgJzIwMCcsICctbWV0YWxfYmluZGluZycsICctaW1hZScsICc8aW5maWxlLm1hZT4nLCAnLW9tYWUnLCAnPG91dGZpbGUubWFlPic=

> <r_lp_tautomer_probability>
1

> <r_epik_Ionization_Penalty>
1.93863e-08

> <r_epik_Ionization_Penalty_Charging>
8.45512e-11

> <r_epik_Ionization_Penalty_Neutral>
1.93017e-08

> <r_epik_State_Penalty>
-0

> <r_epik_Charging_Adjusted_Penalty>
8.45512e-11

> <i_epik_Tot_Q>
0

> <i_epik_Tot_abs_Q>
0

> <r_epik_Metal_State_Penalty>
-0

> <b_epik_Metal_Only>
0

> <s_lp_Force_Field>
OPLS_2005

> <r_lp_Energy>
29.5524

> <b_lp_Chiralities_Consistent>
1

> <s_lp_Variant>
AV-unprocessed.smi:379-1

> <Gold.Version>
5.8.1

> <Gold.Id.Protein>
6NUR|6NUR_protein|mol2

> <Gold.PLP.Fitness>
45.7767

> <Gold.PLP.PLP>
-39.1345

> <Gold.PLP.part.hbond>
-3.0000

> <Gold.PLP.part.metal>
0.0000

> <Gold.PLP.part.buried>
-4.6935

> <Gold.PLP.part.nonpolar>
-32.2950

> <Gold.PLP.part.repulsive>
0.4153

> <Gold.PLP.ligand.clash>
0.0000

> <Gold.PLP.ligand.torsion>
0.5755

> <Gold.PLP.Chemscore.Hbond>
2.5200

> <Gold.PLP.Chemscore.CHOScore>
0.0000

> <Gold.PLP.Chemscore.Metal>
0.0000

> <Gold.Chemscore.Hbonds>
donor molecule, donor type, donor heavy atom, donor atom, acceptor molecule, acceptor atom, score
      L1  H     5    31       P1  8028  0.70
      P1  H  7989  7998       L1    11  1.00
      P1  H 10752 10764       L1    14  0.77

> <Gold.PLP.Chemscore.Internal.Correction>
0.2331

> <Gold.Rescore>
     Score         DG    S(hbond)    S(metal)    S(lipo)     H(rot)  DE(clash)    DE(int)     intcor
     10.55     -15.58       2.20        0.00      66.80       1.98       0.13       4.90       ----

> <Gold.Chemscore.Fitness>
10.5524

> <Gold.Chemscore.DG>
-15.5782

> <Gold.Chemscore.ZeroCoef>
-5.4800

> <Gold.Chemscore.Hbond>
2.1992

> <Gold.Chemscore.Metal>
0.0000

> <Gold.Chemscore.Lipo>
66.7967

> <Gold.Chemscore.Internal_Hbond>
0.0000

> <Gold.Chemscore.DEClash>
0.1307

> <Gold.Chemscore.DEInternal>
4.8951

> <Gold.Chemscore.Rot>
1.9774

> <Gold.Chemscore.Internal.Correction>
   9.000000E+99

> <Gold.Chemscore.Hbonds>
donor molecule, donor type, donor heavy atom, donor atom, acceptor molecule, acceptor atom, score
      L1  H     5    31       P1  8028  0.69
      P1  H  7989  7998       L1    11  0.93
      P1  H 10752 10764       L1    14  0.78

> <Gold.Chemscore.Hbond.Weighted>
-7.3452

> <Gold.Chemscore.Metal.Weighted>
-0.0000

> <Gold.Chemscore.Lipo.Weighted>
-7.8152

> <Gold.Chemscore.Internal_Hbond.Weighted>
0.0000

> <Gold.Chemscore.DEClash.Weighted>
0.1307

> <Gold.Chemscore.DEInternal.Weighted>
4.8951

> <Gold.Chemscore.Rot.Weighted>
5.0623

> <Gold.Chemscore.Internal.Correction.Weighted>
   9.000000E+99

> <Gold.Protein.RotatedTorsions>
[ 6907 6896 6895 6894 ] final -160.89 input  -60.11 | X-H torsion
[ 7974 7965 7964 7962 ] final -108.55 input  175.53 | X-H torsion
[ 8008 7997 7996 7995 ] final  174.22 input   59.86 | X-H torsion
[ 10167 10162 10161 10158 ] final  -76.82 input  -65.29 | X-H torsion
[ 10718 10713 10712 10709 ] final -113.19 input   66.30 | X-H torsion
[ 10763 10752 10751 10750 ] final   -2.91 input  -60.55 | X-H torsion
[ 11005 11000 10999 10996 ] final  161.90 input  -57.11 | X-H torsion

> <Gold.Protein.ActiveResidues>
 VAL166  LYS551  ARG553  GLY616  TRP617  ASP618  TYR619  PRO620  LYS621  CYS622 
 ASP623  PHE694  ASN695  SER759  ASP760  ASP761  ALA762  ILE779  LEU786  VAL792 
 PHE793  MET794  SER795  GLU796  ALA797  LYS798  CYS799  TRP800  GLU811  SER814 

> <Gold.Protein.RotatedAtoms>
  151.3561  133.3907  159.2684 H   0  0  0  0  0  0  0  0  0  0  0  0  # atno 6907 bound_to 6896
  150.9763  134.9127  159.7828 H   0  0  0  0  0  0  0  0  0  0  0  0  # atno 6908 bound_to 6896
  152.5202  134.3524  159.9308 H   0  0  0  0  0  0  0  0  0  0  0  0  # atno 6909 bound_to 6896
  145.1915  140.9016  143.3422 H   0  0  0  0  0  0  0  0  0  0  0  0  # atno 7974 bound_to 7965
  156.0997  140.1440  156.9484 H   0  0  0  0  0  0  0  0  0  0  0  0  # atno 8008 bound_to 7997
  154.4694  140.0915  156.7151 H   0  0  0  0  0  0  0  0  0  0  0  0  # atno 8009 bound_to 7997
  155.4781  140.3444  155.4338 H   0  0  0  0  0  0  0  0  0  0  0  0  # atno 8010 bound_to 7997
  140.4824  143.2399  151.8037 H   0  0  0  0  0  0  0  0  0  0  0  0  # atno 10167 bound_to 10162
  156.0751  130.5960  150.8609 H   0  0  0  0  0  0  0  0  0  0  0  0  # atno 10718 bound_to 10713
  153.3643  135.6991  153.6688 H   0  0  0  0  0  0  0  0  0  0  0  0  # atno 10763 bound_to 10752
  153.5363  135.3582  155.2699 H   0  0  0  0  0  0  0  0  0  0  0  0  # atno 10764 bound_to 10752
  154.8672  135.4193  154.2907 H   0  0  0  0  0  0  0  0  0  0  0  0  # atno 10765 bound_to 10752
  140.2203  134.8201  157.3214 H   0  0  0  0  0  0  0  0  0  0  0  0  # atno 11005 bound_to 11000
  145.0037  139.3575  143.6155 LP  0  0  0  0  0  0  0  0  0  0  0  0  # atno 17320 bound_to 7965
  146.3435  139.9270  142.8759 LP  0  0  0  0  0  0  0  0  0  0  0  0  # atno 17321 bound_to 7965
  139.4836  144.4756  151.9371 LP  0  0  0  0  0  0  0  0  0  0  0  0  # atno 17342 bound_to 10162
  140.3841  144.2699  150.5905 LP  0  0  0  0  0  0  0  0  0  0  0  0  # atno 17343 bound_to 10162
  157.5843  131.0946  150.9222 LP  0  0  0  0  0  0  0  0  0  0  0  0  # atno 17370 bound_to 10713
  156.9411  130.5385  149.5280 LP  0  0  0  0  0  0  0  0  0  0  0  0  # atno 17371 bound_to 10713
  140.1856  134.4435  155.7746 LP  0  0  0  0  0  0  0  0  0  0  0  0  # atno 17394 bound_to 11000
  141.2223  133.7003  156.7942 LP  0  0  0  0  0  0  0  0  0  0  0  0  # atno 17395 bound_to 11000

$$$$
