AV-unprocessed.smi:283|AV-procd|sdf|2147|dock7
  -GOLD-   2262021483D 1   1.00000     0.00000
 Structure written by MMmdl.
 48 51  0  0  0  0  0  0  0  0  1 V2000
  149.5263  134.6188  157.5150 C   0  0  0  0  0  0  0  0  0  0  0  0
  148.2771  133.8493  157.9641 C   0  0  2  0  0  0  0  0  0  0  0  0
  147.1799  134.0947  157.0285 N   0  0  0  0  0  0  0  0  0  0  0  0
  147.3155  133.7697  155.7240 C   0  0  0  0  0  0  0  0  0  0  0  0
  148.3783  132.9890  155.4156 N   0  0  0  0  0  0  0  0  0  0  0  0
  148.6186  132.6580  154.1439 C   0  0  0  0  0  0  0  0  0  0  0  0
  147.9382  133.0032  153.0495 N   0  0  0  0  0  0  0  0  0  0  0  0
  146.8582  133.7801  153.3532 C   0  0  0  0  0  0  0  0  0  0  0  0
  146.4639  134.1857  154.6596 C   0  0  0  0  0  0  0  0  0  0  0  0
  145.2864  134.9179  154.5764 N   0  0  0  0  0  0  0  0  0  0  0  0
  145.0206  134.9587  153.3005 C   0  0  0  0  0  0  0  0  0  0  0  0
  145.9486  134.3485  152.4842 N   0  0  0  0  0  0  0  0  0  0  0  0
  145.9465  134.2249  150.9888 C   0  0  1  0  0  0  0  0  0  0  0  0
  146.6867  133.0891  150.6414 O   0  0  0  0  0  0  0  0  0  0  0  0
  145.8232  131.9965  150.3386 C   0  0  1  0  0  0  0  0  0  0  0  0
  145.5116  131.1879  151.6197 C   0  0  0  0  0  0  0  0  0  0  0  0
  146.6780  130.5674  152.1194 O   0  0  0  0  0  0  0  0  0  0  0  0
  144.6340  132.7022  149.6733 C   0  0  1  0  0  0  0  0  0  0  0  0
  143.4367  131.9520  149.7398 O   0  0  0  0  0  0  0  0  0  0  0  0
  144.5174  134.0142  150.4416 C   0  0  2  0  0  0  0  0  0  0  0  0
  144.1355  135.0533  149.5621 O   0  0  0  0  0  0  0  0  0  0  0  0
  147.9548  134.1643  159.4291 C   0  0  0  0  0  0  0  0  0  0  0  0
  147.7654  135.5062  159.8349 C   0  0  0  0  0  0  0  0  0  0  0  0
  147.4461  135.8154  161.1702 C   0  0  0  0  0  0  0  0  0  0  0  0
  147.3240  134.7855  162.1198 C   0  0  0  0  0  0  0  0  0  0  0  0
  147.5302  133.4488  161.7330 C   0  0  0  0  0  0  0  0  0  0  0  0
  147.8494  133.1330  160.3969 C   0  0  0  0  0  0  0  0  0  0  0  0
  148.1054  131.4732  159.9852 Cl  0  0  0  0  0  0  0  0  0  0  0  0
  146.4374  135.1361  150.6443 H   0  0  0  0  0  0  0  0  0  0  0  0
  146.3347  131.3475  149.6264 H   0  0  0  0  0  0  0  0  0  0  0  0
  144.8832  132.8920  148.6277 H   0  0  0  0  0  0  0  0  0  0  0  0
  143.8037  133.9220  151.2617 H   0  0  0  0  0  0  0  0  0  0  0  0
  150.3807  134.3813  158.1495 H   0  0  0  0  0  0  0  0  0  0  0  0
  149.3676  135.6968  157.5605 H   0  0  0  0  0  0  0  0  0  0  0  0
  149.7983  134.3644  156.4901 H   0  0  0  0  0  0  0  0  0  0  0  0
  148.5133  132.7909  157.8721 H   0  0  0  0  0  0  0  0  0  0  0  0
  146.2709  134.1657  157.4616 H   0  0  0  0  0  0  0  0  0  0  0  0
  149.4870  132.0377  153.9779 H   0  0  0  0  0  0  0  0  0  0  0  0
  144.1384  135.4545  152.9231 H   0  0  0  0  0  0  0  0  0  0  0  0
  145.1506  131.8558  152.4013 H   0  0  0  0  0  0  0  0  0  0  0  0
  144.7366  130.4395  151.4508 H   0  0  0  0  0  0  0  0  0  0  0  0
  147.3661  130.6617  151.4784 H   0  0  0  0  0  0  0  0  0  0  0  0
  142.7208  132.5049  149.4655 H   0  0  0  0  0  0  0  0  0  0  0  0
  144.8013  135.1460  148.8982 H   0  0  0  0  0  0  0  0  0  0  0  0
  147.8553  136.3094  159.1183 H   0  0  0  0  0  0  0  0  0  0  0  0
  147.2942  136.8432  161.4649 H   0  0  0  0  0  0  0  0  0  0  0  0
  147.0783  135.0208  163.1448 H   0  0  0  0  0  0  0  0  0  0  0  0
  147.4440  132.6609  162.4669 H   0  0  0  0  0  0  0  0  0  0  0  0
  1  2  1  0  0  0  0
  1 33  1  0  0  0  0
  1 34  1  0  0  0  0
  1 35  1  0  0  0  0
  2  3  1  0  0  0  0
  2 22  1  0  0  0  0
  2 36  1  0  0  0  0
  3  4  1  0  0  0  0
  3 37  1  0  0  0  0
  4  9  1  0  0  0  0
  4  5  2  0  0  0  0
  5  6  1  0  0  0  0
  6  7  2  0  0  0  0
  6 38  1  0  0  0  0
  7  8  1  0  0  0  0
  8 12  1  0  0  0  0
  8  9  2  0  0  0  0
  9 10  1  0  0  0  0
 10 11  2  0  0  0  0
 11 12  1  0  0  0  0
 11 39  1  0  0  0  0
 12 13  1  0  0  0  0
 13 29  1  0  0  0  0
 13 20  1  0  0  0  0
 13 14  1  0  0  0  0
 14 15  1  0  0  0  0
 15 30  1  0  0  0  0
 15 16  1  0  0  0  0
 15 18  1  0  0  0  0
 16 17  1  0  0  0  0
 16 40  1  0  0  0  0
 16 41  1  0  0  0  0
 17 42  1  0  0  0  0
 18 31  1  0  0  0  0
 18 19  1  0  0  0  0
 18 20  1  0  0  0  0
 19 43  1  0  0  0  0
 20 32  1  0  0  0  0
 20 21  1  0  0  0  0
 21 44  1  0  0  0  0
 22 27  1  0  0  0  0
 22 23  2  0  0  0  0
 23 24  1  0  0  0  0
 23 45  1  0  0  0  0
 24 25  2  0  0  0  0
 24 46  1  0  0  0  0
 25 26  1  0  0  0  0
 25 47  1  0  0  0  0
 26 27  2  0  0  0  0
 26 48  1  0  0  0  0
 27 28  1  0  0  0  0
M  END
> <s_m_source_file>
AV-unprocessed.smi

> <i_m_source_file_index>
283

> <i_lp_mmshare_version>
43012

> <i_f3d_flags>
0

> <s_epik_input>
Q2xjMVtjSF1bY0hdW2NIXVtjSF1jMVtDQEhdKFtDSDNdKVtOSF1jKG5bY0hdbjIpYyhjMjMpbltjSF1uM1tDQEBIXTRPW0NASF0oW0NIMl1bT0hdKVtDQEBIXShbT0hdKVtDQEhdNFtPSF0=

> <s_epik_cmdline>
J2VwaWtfcHl0aG9uJywgJy1waCcsICc3LjAnLCAnLXRuJywgJzgnLCAnLW1hJywgJzIwMCcsICctbWV0YWxfYmluZGluZycsICctaW1hZScsICc8aW5maWxlLm1hZT4nLCAnLW9tYWUnLCAnPG91dGZpbGUubWFlPic=

> <r_lp_tautomer_probability>
1

> <r_epik_Ionization_Penalty>
0.000266407

> <r_epik_Ionization_Penalty_Charging>
0

> <r_epik_Ionization_Penalty_Neutral>
0.000266407

> <r_epik_State_Penalty>
-0

> <r_epik_Charging_Adjusted_Penalty>
0

> <i_epik_Tot_Q>
0

> <i_epik_Tot_abs_Q>
0

> <r_epik_Metal_State_Penalty>
-0

> <b_epik_Metal_Only>
0

> <s_epik_Chemistry_Notes>
This compound contains an acetal/aminal-like group ( X-CH(R)-Y where X, Y are N, S, or O) that may be acid/base labile, releasing an aldehyde.

> <s_lp_Force_Field>
OPLS_2005

> <r_lp_Energy>
42.7281

> <b_lp_Chiralities_Consistent>
1

> <s_lp_Variant>
AV-unprocessed.smi:283-23

> <Gold.Version>
5.8.1

> <Gold.Id.Protein>
6NUR|6NUR_protein|mol2

> <Gold.PLP.Fitness>
49.4295

> <Gold.PLP.PLP>
-41.8672

> <Gold.PLP.part.hbond>
-4.7897

> <Gold.PLP.part.metal>
0.0000

> <Gold.PLP.part.buried>
-8.6677

> <Gold.PLP.part.nonpolar>
-29.1315

> <Gold.PLP.part.repulsive>
0.4907

> <Gold.PLP.ligand.clash>
0.0000

> <Gold.PLP.ligand.torsion>
0.7602

> <Gold.PLP.Chemscore.Hbond>
3.0000

> <Gold.PLP.Chemscore.CHOScore>
0.0000

> <Gold.PLP.Chemscore.Metal>
0.0000

> <Gold.Chemscore.Hbonds>
donor molecule, donor type, donor heavy atom, donor atom, acceptor molecule, acceptor atom, score
      L1  H    17    42       P1 10747  1.00
      L1  H    21    44       P1  7921  1.00
      P1  H 10785 10796       L1    19  0.88

> <Gold.PLP.Chemscore.Internal.Correction>
0.0828

> <Gold.Rescore>
     Score         DG    S(hbond)    S(metal)    S(lipo)     H(rot)  DE(clash)    DE(int)     intcor
     11.10     -13.54       2.80        0.00      78.60       4.10       0.08       2.35       ----

> <Gold.Chemscore.Fitness>
11.1013

> <Gold.Chemscore.DG>
-13.5361

> <Gold.Chemscore.ZeroCoef>
-5.4800

> <Gold.Chemscore.Hbond>
2.7987

> <Gold.Chemscore.Metal>
0.0000

> <Gold.Chemscore.Lipo>
78.6021

> <Gold.Chemscore.Internal_Hbond>
0.0000

> <Gold.Chemscore.DEClash>
0.0801

> <Gold.Chemscore.DEInternal>
2.3547

> <Gold.Chemscore.Rot>
4.0968

> <Gold.Chemscore.Internal.Correction>
   9.000000E+99

> <Gold.Chemscore.Hbonds>
donor molecule, donor type, donor heavy atom, donor atom, acceptor molecule, acceptor atom, score
      L1  H    17    42       P1 10747  0.95
      L1  H    21    44       P1  7921  1.00
      P1  H 10785 10796       L1    19  0.49

> <Gold.Chemscore.Hbond.Weighted>
-9.3475

> <Gold.Chemscore.Metal.Weighted>
-0.0000

> <Gold.Chemscore.Lipo.Weighted>
-9.1964

> <Gold.Chemscore.Internal_Hbond.Weighted>
0.0000

> <Gold.Chemscore.DEClash.Weighted>
0.0801

> <Gold.Chemscore.DEInternal.Weighted>
2.3547

> <Gold.Chemscore.Rot.Weighted>
10.4879

> <Gold.Chemscore.Internal.Correction.Weighted>
   9.000000E+99

> <Gold.Protein.RotatedTorsions>
[ 6907 6896 6895 6894 ] final   56.44 input  -60.11 | X-H torsion
[ 7974 7965 7964 7962 ] final  156.54 input  175.53 | X-H torsion
[ 8008 7997 7996 7995 ] final -136.25 input   59.86 | X-H torsion
[ 10167 10162 10161 10158 ] final  159.75 input  -65.29 | X-H torsion
[ 10718 10713 10712 10709 ] final    1.07 input   66.30 | X-H torsion
[ 10763 10752 10751 10750 ] final   39.21 input  -60.55 | X-H torsion
[ 11005 11000 10999 10996 ] final  118.05 input  -57.11 | X-H torsion

> <Gold.Protein.ActiveResidues>
 VAL166  LYS551  ARG553  GLY616  TRP617  ASP618  TYR619  PRO620  LYS621  CYS622 
 ASP623  PHE694  ASN695  SER759  ASP760  ASP761  ALA762  ILE779  LEU786  VAL792 
 PHE793  MET794  SER795  GLU796  ALA797  LYS798  CYS799  TRP800  GLU811  SER814 

> <Gold.Protein.RotatedAtoms>
  152.3636  134.6836  160.0198 H   0  0  0  0  0  0  0  0  0  0  0  0  # atno 6907 bound_to 6896
  151.7152  133.3307  159.3309 H   0  0  0  0  0  0  0  0  0  0  0  0  # atno 6908 bound_to 6896
  150.7622  134.6432  159.6292 H   0  0  0  0  0  0  0  0  0  0  0  0  # atno 6909 bound_to 6896
  144.7957  139.7218  143.6203 H   0  0  0  0  0  0  0  0  0  0  0  0  # atno 7974 bound_to 7965
  155.3921  140.0500  157.3040 H   0  0  0  0  0  0  0  0  0  0  0  0  # atno 8008 bound_to 7997
  154.5031  140.2164  155.9267 H   0  0  0  0  0  0  0  0  0  0  0  0  # atno 8009 bound_to 7997
  156.1492  140.3139  155.8626 H   0  0  0  0  0  0  0  0  0  0  0  0  # atno 8010 bound_to 7997
  139.4834  144.4700  151.8589 H   0  0  0  0  0  0  0  0  0  0  0  0  # atno 10167 bound_to 10162
  156.8428  130.5527  149.5676 H   0  0  0  0  0  0  0  0  0  0  0  0  # atno 10718 bound_to 10713
  152.9975  135.6227  154.2429 H   0  0  0  0  0  0  0  0  0  0  0  0  # atno 10763 bound_to 10752
  154.2169  135.2797  155.2940 H   0  0  0  0  0  0  0  0  0  0  0  0  # atno 10764 bound_to 10752
  154.5561  135.5719  153.7023 H   0  0  0  0  0  0  0  0  0  0  0  0  # atno 10765 bound_to 10752
  139.9096  134.9616  156.7445 H   0  0  0  0  0  0  0  0  0  0  0  0  # atno 11005 bound_to 11000
  146.2224  139.5659  142.9610 LP  0  0  0  0  0  0  0  0  0  0  0  0  # atno 17320 bound_to 7965
  145.5681  141.0397  143.2189 LP  0  0  0  0  0  0  0  0  0  0  0  0  # atno 17321 bound_to 7965
  140.4168  144.2296  150.5887 LP  0  0  0  0  0  0  0  0  0  0  0  0  # atno 17342 bound_to 10162
  140.4912  143.2347  151.8815 LP  0  0  0  0  0  0  0  0  0  0  0  0  # atno 17343 bound_to 10162
  156.0871  130.5866  150.9667 LP  0  0  0  0  0  0  0  0  0  0  0  0  # atno 17370 bound_to 10713
  157.6346  131.0917  150.8374 LP  0  0  0  0  0  0  0  0  0  0  0  0  # atno 17371 bound_to 10713
  140.6823  133.9463  155.7917 LP  0  0  0  0  0  0  0  0  0  0  0  0  # atno 17394 bound_to 11000
  141.0501  134.0497  157.3794 LP  0  0  0  0  0  0  0  0  0  0  0  0  # atno 17395 bound_to 11000

$$$$
