AV-unprocessed.smi:1512|AV-procd|sdf|6102|dock6
  -GOLD-   22720 6233D 1   1.00000     0.00000
 Structure written by MMmdl.
 44 46  0  0  0  0  0  0  0  0  3 V2000
  145.3620  135.4245  150.7542 C   0  0  0  0  0  0  0  0  0  0  0  0
  145.1868  134.9085  152.1932 C   0  0  2  0  0  0  0  0  0  0  0  0
  146.4587  134.9963  152.9076 N   0  0  0  0  0  0  0  0  0  0  0  0
  146.6817  134.5766  154.1624 C   0  0  0  0  0  0  0  0  0  0  0  0
  145.8083  134.0747  154.8715 O   0  0  0  0  0  0  0  0  0  0  0  0
  148.1125  134.7723  154.6855 C   0  0  0  0  0  0  0  0  0  0  0  0
  148.8588  133.5127  154.8499 N   0  0  0  0  0  0  0  0  0  0  0  0
  148.5027  132.4490  153.9999 C   0  0  0  0  0  0  0  0  0  0  0  0
  149.1199  131.2605  154.0553 C   0  0  0  0  0  0  0  0  0  0  0  0
  150.1750  131.0838  155.0227 C   0  0  0  0  0  0  0  0  0  0  0  0
  150.5369  132.0923  155.8491 C   0  0  0  0  0  0  0  0  0  0  0  0
  151.5998  131.8458  156.7967 N   0  3  0  0  0  0  0  0  0  0  0  0
  151.8079  132.6697  157.6822 O   0  0  0  0  0  0  0  0  0  0  0  0
  152.2511  130.8106  156.6906 O   0  5  0  0  0  0  0  0  0  0  0  0
  149.8606  133.4045  155.7775 C   0  0  0  0  0  0  0  0  0  0  0  0
  150.1719  134.3580  156.4937 O   0  0  0  0  0  0  0  0  0  0  0  0
  144.6787  133.4479  152.2377 C   0  0  1  0  0  0  0  0  0  0  0  0
  143.4470  133.1630  151.3473 C   0  0  0  0  0  0  0  0  0  0  0  0
  143.8612  131.8955  150.5766 C   0  0  1  0  0  0  0  0  0  0  0  0
  144.8988  132.2751  149.5045 C   0  0  0  0  0  0  0  0  0  0  0  0
  146.1587  132.5619  150.3412 C   0  0  0  0  0  0  0  0  0  0  0  0
  145.6674  132.3434  151.7873 C   0  0  2  0  0  0  0  0  0  0  0  0
  144.7206  131.1618  151.5997 C   0  0  0  0  0  0  0  0  0  0  0  0
  144.4163  135.4166  150.2124 H   0  0  0  0  0  0  0  0  0  0  0  0
  146.0712  134.8120  150.1967 H   0  0  0  0  0  0  0  0  0  0  0  0
  145.7290  136.4514  150.7434 H   0  0  0  0  0  0  0  0  0  0  0  0
  144.4683  135.5479  152.7072 H   0  0  0  0  0  0  0  0  0  0  0  0
  147.2339  135.3989  152.4010 H   0  0  0  0  0  0  0  0  0  0  0  0
  148.6488  135.4438  154.0121 H   0  0  0  0  0  0  0  0  0  0  0  0
  148.0574  135.3081  155.6342 H   0  0  0  0  0  0  0  0  0  0  0  0
  147.7083  132.6641  153.2998 H   0  0  0  0  0  0  0  0  0  0  0  0
  148.8367  130.4569  153.3913 H   0  0  0  0  0  0  0  0  0  0  0  0
  150.6695  130.1250  155.0826 H   0  0  0  0  0  0  0  0  0  0  0  0
  144.4012  133.2291  153.2708 H   0  0  0  0  0  0  0  0  0  0  0  0
  142.5661  132.9772  151.9629 H   0  0  0  0  0  0  0  0  0  0  0  0
  143.2085  133.9848  150.6707 H   0  0  0  0  0  0  0  0  0  0  0  0
  143.0178  131.3255  150.1859 H   0  0  0  0  0  0  0  0  0  0  0  0
  145.0746  131.4441  148.8204 H   0  0  0  0  0  0  0  0  0  0  0  0
  144.5871  133.1361  148.9120 H   0  0  0  0  0  0  0  0  0  0  0  0
  146.9432  131.8446  150.0962 H   0  0  0  0  0  0  0  0  0  0  0  0
  146.5679  133.5558  150.1653 H   0  0  0  0  0  0  0  0  0  0  0  0
  146.4736  132.1621  152.4985 H   0  0  0  0  0  0  0  0  0  0  0  0
  144.1774  130.8897  152.5064 H   0  0  0  0  0  0  0  0  0  0  0  0
  145.2092  130.2729  151.1961 H   0  0  0  0  0  0  0  0  0  0  0  0
  1  2  1  0  0  0  0
  1 24  1  0  0  0  0
  1 25  1  0  0  0  0
  1 26  1  0  0  0  0
  2  3  1  0  0  0  0
  2 17  1  0  0  0  0
  2 27  1  0  0  0  0
  3  4  1  0  0  0  0
  3 28  1  0  0  0  0
  4  5  2  0  0  0  0
  4  6  1  0  0  0  0
  6  7  1  0  0  0  0
  6 29  1  0  0  0  0
  6 30  1  0  0  0  0
  7 15  1  0  0  0  0
  7  8  1  0  0  0  0
  8  9  2  0  0  0  0
  8 31  1  0  0  0  0
  9 10  1  0  0  0  0
  9 32  1  0  0  0  0
 10 11  2  0  0  0  0
 10 33  1  0  0  0  0
 11 12  1  0  0  0  0
 11 15  1  0  0  0  0
 12 13  2  0  0  0  0
 12 14  1  0  0  0  0
 15 16  2  0  0  0  0
 17 22  1  0  0  0  0
 17 18  1  0  0  0  0
 17 34  1  0  0  0  0
 18 19  1  0  0  0  0
 18 35  1  0  0  0  0
 18 36  1  0  0  0  0
 19 23  1  0  0  0  0
 19 20  1  0  0  0  0
 19 37  1  0  0  0  0
 20 21  1  0  0  0  0
 20 38  1  0  0  0  0
 20 39  1  0  0  0  0
 21 22  1  0  0  0  0
 21 40  1  0  0  0  0
 21 41  1  0  0  0  0
 22 23  1  0  0  0  0
 22 42  1  0  0  0  0
 23 43  1  0  0  0  0
 23 44  1  0  0  0  0
M  CHG  1  12   1
M  CHG  1  14  -1
M  END
> <s_m_source_file>
AV-unprocessed.smi

> <i_m_source_file_index>
1512

> <i_lp_mmshare_version>
43012

> <i_f3d_flags>
0

> <s_epik_input>
W0NIMl0xW0NIMl1bQ0BIXShbQ0gyXTIpW0NAQEhdKFtDSDJdW0NAQEhdMTIpW0NASF0oW0NIM10pW05IXUMoPU8pW0NIMl1uM1tjSF1bY0hdW2NIXWMoW04rXSg9TylbTy1dKWMzPU8=

> <s_epik_cmdline>
J2VwaWtfcHl0aG9uJywgJy1waCcsICc3LjAnLCAnLXRuJywgJzgnLCAnLW1hJywgJzIwMCcsICctbWV0YWxfYmluZGluZycsICctaW1hZScsICc8aW5maWxlLm1hZT4nLCAnLW9tYWUnLCAnPG91dGZpbGUubWFlPic=

> <r_lp_tautomer_probability>
1

> <r_epik_Ionization_Penalty>
2.17697e-08

> <r_epik_Ionization_Penalty_Charging>
1.42735e-10

> <r_epik_Ionization_Penalty_Neutral>
2.16269e-08

> <r_epik_State_Penalty>
-0

> <r_epik_Charging_Adjusted_Penalty>
1.42735e-10

> <i_epik_Tot_Q>
0

> <i_epik_Tot_abs_Q>
2

> <r_epik_Metal_State_Penalty>
-0

> <b_epik_Metal_Only>
0

> <s_lp_Force_Field>
OPLS_2005

> <r_lp_Energy>
64.3295

> <b_lp_Chiralities_Consistent>
1

> <s_lp_Variant>
AV-unprocessed.smi:1512-3

> <Gold.Version>
5.8.1

> <Gold.Id.Protein>
6NUR|6NUR_protein|mol2

> <Gold.PLP.Fitness>
47.0996

> <Gold.PLP.PLP>
-42.3440

> <Gold.PLP.part.hbond>
-2.0000

> <Gold.PLP.part.metal>
0.0000

> <Gold.PLP.part.buried>
-5.1989

> <Gold.PLP.part.nonpolar>
-34.9357

> <Gold.PLP.part.repulsive>
0.0651

> <Gold.PLP.ligand.clash>
0.0034

> <Gold.PLP.ligand.torsion>
0.6329

> <Gold.PLP.Chemscore.Hbond>
2.0000

> <Gold.PLP.Chemscore.CHOScore>
0.0000

> <Gold.PLP.Chemscore.Metal>
0.0000

> <Gold.Chemscore.Hbonds>
donor molecule, donor type, donor heavy atom, donor atom, acceptor molecule, acceptor atom, score
      L1  H     3    28       P1  7948  1.00
      P1  H  6896  6907       L1    13  1.00

> <Gold.PLP.Chemscore.Internal.Correction>
0.0247

> <Gold.Rescore>
     Score         DG    S(hbond)    S(metal)    S(lipo)     H(rot)  DE(clash)    DE(int)     intcor
     14.46     -18.99       2.00        0.00      96.71       1.75       0.28       4.25       ----

> <Gold.Chemscore.Fitness>
14.4600

> <Gold.Chemscore.DG>
-18.9939

> <Gold.Chemscore.ZeroCoef>
-5.4800

> <Gold.Chemscore.Hbond>
1.9976

> <Gold.Chemscore.Metal>
0.0000

> <Gold.Chemscore.Lipo>
96.7112

> <Gold.Chemscore.Internal_Hbond>
0.0000

> <Gold.Chemscore.DEClash>
0.2790

> <Gold.Chemscore.DEInternal>
4.2549

> <Gold.Chemscore.Rot>
1.7474

> <Gold.Chemscore.Internal.Correction>
   9.000000E+99

> <Gold.Chemscore.Hbonds>
donor molecule, donor type, donor heavy atom, donor atom, acceptor molecule, acceptor atom, score
      L1  H     3    28       P1  7948  0.99
      P1  H  6896  6907       L1    13  0.96

> <Gold.Chemscore.Hbond.Weighted>
-6.6720

> <Gold.Chemscore.Metal.Weighted>
-0.0000

> <Gold.Chemscore.Lipo.Weighted>
-11.3152

> <Gold.Chemscore.Internal_Hbond.Weighted>
0.0000

> <Gold.Chemscore.DEClash.Weighted>
0.2790

> <Gold.Chemscore.DEInternal.Weighted>
4.2549

> <Gold.Chemscore.Rot.Weighted>
4.4733

> <Gold.Chemscore.Internal.Correction.Weighted>
   9.000000E+99

> <Gold.Protein.RotatedTorsions>
[ 6907 6896 6895 6894 ] final  178.79 input  -60.11 | X-H torsion
[ 7974 7965 7964 7962 ] final  -26.49 input  175.53 | X-H torsion
[ 8008 7997 7996 7995 ] final  -89.56 input   59.86 | X-H torsion
[ 10167 10162 10161 10158 ] final  -58.41 input  -65.29 | X-H torsion
[ 10718 10713 10712 10709 ] final  -12.68 input   66.30 | X-H torsion
[ 10763 10752 10751 10750 ] final  -18.32 input  -60.55 | X-H torsion
[ 11005 11000 10999 10996 ] final  -71.72 input  -57.11 | X-H torsion

> <Gold.Protein.ActiveResidues>
 VAL166  LYS551  ARG553  GLY616  TRP617  ASP618  TYR619  PRO620  LYS621  CYS622 
 ASP623  PHE694  ASN695  SER759  ASP760  ASP761  ALA762  ILE779  LEU786  VAL792 
 PHE793  MET794  SER795  GLU796  ALA797  LYS798  CYS799  TRP800  GLU811  SER814 

> <Gold.Protein.RotatedAtoms>
  151.6822  133.3312  159.3221 H   0  0  0  0  0  0  0  0  0  0  0  0  # atno 6907 bound_to 6896
  150.7818  134.6771  159.6433 H   0  0  0  0  0  0  0  0  0  0  0  0  # atno 6908 bound_to 6896
  152.3877  134.6495  160.0171 H   0  0  0  0  0  0  0  0  0  0  0  0  # atno 6909 bound_to 6896
  146.1422  140.5027  142.8647 H   0  0  0  0  0  0  0  0  0  0  0  0  # atno 7974 bound_to 7965
  154.6880  140.0540  157.0335 H   0  0  0  0  0  0  0  0  0  0  0  0  # atno 8008 bound_to 7997
  155.0856  140.3214  155.4570 H   0  0  0  0  0  0  0  0  0  0  0  0  # atno 8009 bound_to 7997
  156.2718  140.2057  156.5984 H   0  0  0  0  0  0  0  0  0  0  0  0  # atno 8010 bound_to 7997
  140.6199  143.2415  151.5507 H   0  0  0  0  0  0  0  0  0  0  0  0  # atno 10167 bound_to 10162
  156.6412  130.4928  149.6094 H   0  0  0  0  0  0  0  0  0  0  0  0  # atno 10718 bound_to 10713
  153.5875  135.7003  153.5437 H   0  0  0  0  0  0  0  0  0  0  0  0  # atno 10763 bound_to 10752
  153.3207  135.4075  155.1414 H   0  0  0  0  0  0  0  0  0  0  0  0  # atno 10764 bound_to 10752
  154.8606  135.3695  154.5405 H   0  0  0  0  0  0  0  0  0  0  0  0  # atno 10765 bound_to 10752
  141.1597  133.6825  156.6949 H   0  0  0  0  0  0  0  0  0  0  0  0  # atno 11005 bound_to 11000
  144.7805  140.5830  143.6609 LP  0  0  0  0  0  0  0  0  0  0  0  0  # atno 17320 bound_to 7965
  145.5021  139.1483  143.3651 LP  0  0  0  0  0  0  0  0  0  0  0  0  # atno 17321 bound_to 7965
  139.5429  144.2598  152.1387 LP  0  0  0  0  0  0  0  0  0  0  0  0  # atno 17342 bound_to 10162
  140.1815  144.4839  150.6526 LP  0  0  0  0  0  0  0  0  0  0  0  0  # atno 17343 bound_to 10162
  156.2158  130.6707  151.1317 LP  0  0  0  0  0  0  0  0  0  0  0  0  # atno 17370 bound_to 10713
  157.7170  131.0704  150.6286 LP  0  0  0  0  0  0  0  0  0  0  0  0  # atno 17371 bound_to 10713
  140.3002  134.8169  157.4091 LP  0  0  0  0  0  0  0  0  0  0  0  0  # atno 17394 bound_to 11000
  140.1268  134.5147  155.8138 LP  0  0  0  0  0  0  0  0  0  0  0  0  # atno 17395 bound_to 11000

$$$$
