AV-unprocessed.smi:674|AV-procd|sdf|3300|dock5
  -GOLD-   22720 0263D 1   1.00000     0.00000
 Structure written by MMmdl.
 47 48  0  0  0  0  0  0  0  0  1 V2000
  150.4970  141.9695  157.3180 C   0  0  0  0  0  0  0  0  0  0  0  0
  149.9431  142.1787  155.9040 C   0  0  0  0  0  0  0  0  0  0  0  0
  149.7515  140.8789  155.1740 C   0  0  0  0  0  0  0  0  0  0  0  0
  148.5423  140.3472  154.6388 C   0  0  0  0  0  0  0  0  0  0  0  0
  148.9479  139.1579  154.0975 C   0  0  0  0  0  0  0  0  0  0  0  0
  148.2054  138.2185  153.4535 N   0  0  0  0  0  0  0  0  0  0  0  0
  146.9304  137.8557  153.6771 C   0  0  0  0  0  0  0  0  0  0  0  0
  146.1764  138.3638  154.5073 O   0  0  0  0  0  0  0  0  0  0  0  0
  146.5657  136.8511  152.8693 N   0  0  0  0  0  0  0  0  0  0  0  0
  145.2463  136.2286  152.8736 C   0  0  1  0  0  0  0  0  0  0  0  0
  144.8661  135.6450  151.5147 C   0  0  0  0  0  0  0  0  0  0  0  0
  144.1799  134.5083  152.2947 C   0  0  1  0  0  0  0  0  0  0  0  0
  142.6780  134.6430  152.5901 C   0  0  0  0  0  0  0  0  0  0  0  0
  144.4515  133.2229  151.7338 O   0  0  0  0  0  0  0  0  0  0  0  0
  143.9594  132.9910  150.4202 C   0  0  0  0  0  0  0  0  0  0  0  0
  145.2040  134.7870  153.4430 C   0  0  0  0  0  0  0  0  0  0  0  0
  146.5173  133.9802  153.3912 C   0  0  0  0  0  0  0  0  0  0  0  0
  144.6856  134.6500  154.8782 C   0  0  0  0  0  0  0  0  0  0  0  0
  150.3019  139.0112  154.3108 N   0  0  0  0  0  0  0  0  0  0  0  0
  151.1979  137.9354  153.9326 C   0  0  0  0  0  0  0  0  0  0  0  0
  150.7936  140.0789  154.9748 N   0  0  0  0  0  0  0  0  0  0  0  0
  150.6185  142.9225  157.8330 H   0  0  0  0  0  0  0  0  0  0  0  0
  151.4706  141.4791  157.2921 H   0  0  0  0  0  0  0  0  0  0  0  0
  149.8261  141.3514  157.9153 H   0  0  0  0  0  0  0  0  0  0  0  0
  148.9936  142.7113  155.9650 H   0  0  0  0  0  0  0  0  0  0  0  0
  150.6164  142.8275  155.3424 H   0  0  0  0  0  0  0  0  0  0  0  0
  147.5544  140.7817  154.6627 H   0  0  0  0  0  0  0  0  0  0  0  0
  148.6850  137.7227  152.7168 H   0  0  0  0  0  0  0  0  0  0  0  0
  147.2431  136.4878  152.2149 H   0  0  0  0  0  0  0  0  0  0  0  0
  144.4578  136.8701  153.2735 H   0  0  0  0  0  0  0  0  0  0  0  0
  144.1914  136.2694  150.9284 H   0  0  0  0  0  0  0  0  0  0  0  0
  145.7220  135.3167  150.9219 H   0  0  0  0  0  0  0  0  0  0  0  0
  142.4524  135.5542  153.1436 H   0  0  0  0  0  0  0  0  0  0  0  0
  142.3141  133.8030  153.1820 H   0  0  0  0  0  0  0  0  0  0  0  0
  142.0859  134.6860  151.6765 H   0  0  0  0  0  0  0  0  0  0  0  0
  144.3029  132.0146  150.0788 H   0  0  0  0  0  0  0  0  0  0  0  0
  144.3234  133.7340  149.7108 H   0  0  0  0  0  0  0  0  0  0  0  0
  142.8704  132.9788  150.3885 H   0  0  0  0  0  0  0  0  0  0  0  0
  146.3492  132.9308  153.6351 H   0  0  0  0  0  0  0  0  0  0  0  0
  147.2529  134.3607  154.1005 H   0  0  0  0  0  0  0  0  0  0  0  0
  146.9819  134.0076  152.4054 H   0  0  0  0  0  0  0  0  0  0  0  0
  144.3820  133.6257  155.0957 H   0  0  0  0  0  0  0  0  0  0  0  0
  143.8246  135.2915  155.0647 H   0  0  0  0  0  0  0  0  0  0  0  0
  145.4458  134.9300  155.6082 H   0  0  0  0  0  0  0  0  0  0  0  0
  150.6358  137.0755  153.5687 H   0  0  0  0  0  0  0  0  0  0  0  0
  151.7892  137.6263  154.7952 H   0  0  0  0  0  0  0  0  0  0  0  0
  151.8685  138.2789  153.1445 H   0  0  0  0  0  0  0  0  0  0  0  0
  1  2  1  0  0  0  0
  1 22  1  0  0  0  0
  1 23  1  0  0  0  0
  1 24  1  0  0  0  0
  2  3  1  0  0  0  0
  2 25  1  0  0  0  0
  2 26  1  0  0  0  0
  3 21  2  0  0  0  0
  3  4  1  0  0  0  0
  4  5  2  0  0  0  0
  4 27  1  0  0  0  0
  5  6  1  0  0  0  0
  5 19  1  0  0  0  0
  6  7  1  0  0  0  0
  6 28  1  0  0  0  0
  7  8  2  0  0  0  0
  7  9  1  0  0  0  0
  9 10  1  0  0  0  0
  9 29  1  0  0  0  0
 10 16  1  0  0  0  0
 10 11  1  0  0  0  0
 10 30  1  0  0  0  0
 11 12  1  0  0  0  0
 11 31  1  0  0  0  0
 11 32  1  0  0  0  0
 12 13  1  0  0  0  0
 12 14  1  0  0  0  0
 12 16  1  0  0  0  0
 13 33  1  0  0  0  0
 13 34  1  0  0  0  0
 13 35  1  0  0  0  0
 14 15  1  0  0  0  0
 15 36  1  0  0  0  0
 15 37  1  0  0  0  0
 15 38  1  0  0  0  0
 16 17  1  0  0  0  0
 16 18  1  0  0  0  0
 17 39  1  0  0  0  0
 17 40  1  0  0  0  0
 17 41  1  0  0  0  0
 18 42  1  0  0  0  0
 18 43  1  0  0  0  0
 18 44  1  0  0  0  0
 19 20  1  0  0  0  0
 19 21  1  0  0  0  0
 20 45  1  0  0  0  0
 20 46  1  0  0  0  0
 20 47  1  0  0  0  0
M  END
> <s_m_source_file>
AV-unprocessed.smi

> <i_m_source_file_index>
674

> <i_lp_mmshare_version>
43012

> <i_f3d_flags>
0

> <s_epik_input>
W0NIM11bQ0gyXWMxW2NIXWMobihuMSlbQ0gzXSlbTkhdQyg9TylbTkhdW0NAQEhdKEMyKFtDSDNdKVtDSDNdKVtDSDJdW0NAQF0yKFtDSDNdKU9bQ0gzXQ==

> <s_epik_cmdline>
J2VwaWtfcHl0aG9uJywgJy1waCcsICc3LjAnLCAnLXRuJywgJzgnLCAnLW1hJywgJzIwMCcsICctbWV0YWxfYmluZGluZycsICctaW1hZScsICc8aW5maWxlLm1hZT4nLCAnLW9tYWUnLCAnPG91dGZpbGUubWFlPic=

> <r_lp_tautomer_probability>
1

> <r_epik_Ionization_Penalty>
0.000101626

> <r_epik_Ionization_Penalty_Charging>
0

> <r_epik_Ionization_Penalty_Neutral>
0.000101626

> <r_epik_State_Penalty>
-0

> <r_epik_Charging_Adjusted_Penalty>
0

> <i_epik_Tot_Q>
0

> <i_epik_Tot_abs_Q>
0

> <r_epik_Metal_State_Penalty>
-0

> <b_epik_Metal_Only>
0

> <s_lp_Force_Field>
OPLS_2005

> <r_lp_Energy>
22.8754

> <b_lp_Chiralities_Consistent>
1

> <s_lp_Variant>
AV-unprocessed.smi:674-2

> <Gold.Version>
5.8.1

> <Gold.Id.Protein>
6NUR|6NUR_protein|mol2

> <Gold.PLP.Fitness>
38.3725

> <Gold.PLP.PLP>
-30.8066

> <Gold.PLP.part.hbond>
-3.2095

> <Gold.PLP.part.metal>
0.0000

> <Gold.PLP.part.buried>
-1.0132

> <Gold.PLP.part.nonpolar>
-27.2173

> <Gold.PLP.part.repulsive>
0.3139

> <Gold.PLP.ligand.clash>
0.0000

> <Gold.PLP.ligand.torsion>
0.6079

> <Gold.PLP.Chemscore.Hbond>
2.7995

> <Gold.PLP.Chemscore.CHOScore>
0.0000

> <Gold.PLP.Chemscore.Metal>
0.0000

> <Gold.Chemscore.Hbonds>
donor molecule, donor type, donor heavy atom, donor atom, acceptor molecule, acceptor atom, score
      L1  H     6    28       P1  7948  1.00
      L1  H     9    29       P1  7948  0.96
      P1  H  7989  7998       L1    21  0.80

> <Gold.PLP.Chemscore.Internal.Correction>
0.3833

> <Gold.Rescore>
     Score         DG    S(hbond)    S(metal)    S(lipo)     H(rot)  DE(clash)    DE(int)     intcor
     15.32     -16.57       1.92        0.00      69.71       1.37       0.49       0.76       ----

> <Gold.Chemscore.Fitness>
15.3219

> <Gold.Chemscore.DG>
-16.5665

> <Gold.Chemscore.ZeroCoef>
-5.4800

> <Gold.Chemscore.Hbond>
1.9241

> <Gold.Chemscore.Metal>
0.0000

> <Gold.Chemscore.Lipo>
69.7123

> <Gold.Chemscore.Internal_Hbond>
0.0000

> <Gold.Chemscore.DEClash>
0.4867

> <Gold.Chemscore.DEInternal>
0.7579

> <Gold.Chemscore.Rot>
1.3658

> <Gold.Chemscore.Internal.Correction>
   9.000000E+99

> <Gold.Chemscore.Hbonds>
donor molecule, donor type, donor heavy atom, donor atom, acceptor molecule, acceptor atom, score
      L1  H     6    28       P1  7948  0.94
      L1  H     9    29       P1  7948  0.92
      P1  H  7989  7998       L1    21  0.04

> <Gold.Chemscore.Hbond.Weighted>
-6.4265

> <Gold.Chemscore.Metal.Weighted>
-0.0000

> <Gold.Chemscore.Lipo.Weighted>
-8.1563

> <Gold.Chemscore.Internal_Hbond.Weighted>
0.0000

> <Gold.Chemscore.DEClash.Weighted>
0.4867

> <Gold.Chemscore.DEInternal.Weighted>
0.7579

> <Gold.Chemscore.Rot.Weighted>
3.4963

> <Gold.Chemscore.Internal.Correction.Weighted>
   9.000000E+99

> <Gold.Protein.RotatedTorsions>
[ 6907 6896 6895 6894 ] final -115.10 input  -60.11 | X-H torsion
[ 7974 7965 7964 7962 ] final -136.69 input  175.53 | X-H torsion
[ 8008 7997 7996 7995 ] final  -11.97 input   59.86 | X-H torsion
[ 10167 10162 10161 10158 ] final -173.12 input  -65.29 | X-H torsion
[ 10718 10713 10712 10709 ] final  147.36 input   66.30 | X-H torsion
[ 10763 10752 10751 10750 ] final   97.35 input  -60.55 | X-H torsion
[ 11005 11000 10999 10996 ] final  -50.27 input  -57.11 | X-H torsion

> <Gold.Protein.ActiveResidues>
 VAL166  LYS551  ARG553  GLY616  TRP617  ASP618  TYR619  PRO620  LYS621  CYS622 
 ASP623  PHE694  ASN695  SER759  ASP760  ASP761  ALA762  ILE779  LEU786  VAL792 
 PHE793  MET794  SER795  GLU796  ALA797  LYS798  CYS799  TRP800  GLU811  SER814 

> <Gold.Protein.RotatedAtoms>
  150.7952  133.8706  159.3257 H   0  0  0  0  0  0  0  0  0  0  0  0  # atno 6907 bound_to 6896
  151.6533  135.0997  160.0174 H   0  0  0  0  0  0  0  0  0  0  0  0  # atno 6908 bound_to 6896
  152.4033  133.6811  159.6370 H   0  0  0  0  0  0  0  0  0  0  0  0  # atno 6909 bound_to 6896
  144.8906  140.6636  143.5148 H   0  0  0  0  0  0  0  0  0  0  0  0  # atno 7974 bound_to 7965
  154.5418  140.2288  155.8628 H   0  0  0  0  0  0  0  0  0  0  0  0  # atno 8008 bound_to 7997
  156.1866  140.3087  155.9212 H   0  0  0  0  0  0  0  0  0  0  0  0  # atno 8009 bound_to 7997
  155.3242  140.0442  157.3031 H   0  0  0  0  0  0  0  0  0  0  0  0  # atno 8010 bound_to 7997
  139.5706  144.1651  152.1378 H   0  0  0  0  0  0  0  0  0  0  0  0  # atno 10167 bound_to 10162
  157.3220  131.0906  151.1233 H   0  0  0  0  0  0  0  0  0  0  0  0  # atno 10718 bound_to 10713
  153.2759  135.4186  155.1032 H   0  0  0  0  0  0  0  0  0  0  0  0  # atno 10763 bound_to 10752
  154.8472  135.3483  154.6179 H   0  0  0  0  0  0  0  0  0  0  0  0  # atno 10764 bound_to 10752
  153.6600  135.7049  153.5238 H   0  0  0  0  0  0  0  0  0  0  0  0  # atno 10765 bound_to 10752
  141.0806  133.6654  156.3706 H   0  0  0  0  0  0  0  0  0  0  0  0  # atno 11005 bound_to 11000
  145.3791  139.1641  143.4290 LP  0  0  0  0  0  0  0  0  0  0  0  0  # atno 17320 bound_to 7965
  146.3051  140.3870  142.8690 LP  0  0  0  0  0  0  0  0  0  0  0  0  # atno 17321 bound_to 7965
  140.1183  144.5396  150.6879 LP  0  0  0  0  0  0  0  0  0  0  0  0  # atno 17342 bound_to 10162
  140.6990  143.2422  151.4919 LP  0  0  0  0  0  0  0  0  0  0  0  0  # atno 17343 bound_to 10162
  157.2514  130.6616  149.5933 LP  0  0  0  0  0  0  0  0  0  0  0  0  # atno 17370 bound_to 10713
  155.9687  130.4537  150.5822 LP  0  0  0  0  0  0  0  0  0  0  0  0  # atno 17371 bound_to 10713
  140.5476  134.6059  157.5398 LP  0  0  0  0  0  0  0  0  0  0  0  0  # atno 17394 bound_to 11000
  139.9620  134.7437  156.0217 LP  0  0  0  0  0  0  0  0  0  0  0  0  # atno 17395 bound_to 11000

$$$$
