AV-unprocessed.smi:2973|AV-procd|sdf|11350|dock10
  -GOLD-   2272016263D 1   1.00000     0.00000
 Structure written by MMmdl.
 49 51  0  0  0  0  0  0  0  0  3 V2000
  154.5613  138.4893  159.7545 C   0  0  0  0  0  0  0  0  0  0  0  0
  153.3200  139.4052  159.6801 C   0  0  1  0  0  0  0  0  0  0  0  0
  153.7342  140.8928  159.7003 C   0  0  0  0  0  0  0  0  0  0  0  0
  152.5143  141.8250  159.7380 C   0  0  0  0  0  0  0  0  0  0  0  0
  151.5744  141.5545  158.5562 C   0  0  0  0  0  0  0  0  0  0  0  0
  151.1388  140.0796  158.5183 C   0  0  0  0  0  0  0  0  0  0  0  0
  152.3413  139.0996  158.4995 C   0  0  1  0  0  0  0  0  0  0  0  0
  153.0109  139.1542  157.2095 N   0  5  0  0  0  0  0  0  0  0  0  0
  152.8872  137.9545  156.5965 C   0  0  0  0  0  0  0  0  0  0  0  0
  153.3134  137.6499  155.4834 O   0  0  0  0  0  0  0  0  0  0  0  0
  152.2020  137.0877  157.3664 N   0  0  0  0  0  0  0  0  0  0  0  0
  151.8443  135.7127  156.9837 C   0  0  0  0  0  0  0  0  0  0  0  0
  150.8507  135.6122  155.8124 C   0  0  0  0  0  0  0  0  0  0  0  0
  151.1296  136.1512  154.7416 O   0  0  0  0  0  0  0  0  0  0  0  0
  149.7133  134.9215  156.0014 N   0  0  0  0  0  0  0  0  0  0  0  0
  148.6873  134.6906  154.9942 C   0  0  0  0  0  0  0  0  0  0  0  0
  149.0921  133.5587  154.0360 C   0  0  0  0  0  0  0  0  0  0  0  0
  147.9344  133.0912  153.1768 C   0  0  0  0  0  0  0  0  0  0  0  0
  147.4407  131.7700  153.2351 C   0  0  0  0  0  0  0  0  0  0  0  0
  146.3571  131.4028  152.4099 C   0  0  0  0  0  0  0  0  0  0  0  0
  145.7900  132.3633  151.5469 C   0  0  0  0  0  0  0  0  0  0  0  0
  146.3226  133.6686  151.5298 C   0  0  0  0  0  0  0  0  0  0  0  0
  147.3617  133.9814  152.3346 N   0  3  0  0  0  0  0  0  0  0  0  0
  151.8345  137.6649  158.5160 C   0  0  0  0  0  0  0  0  0  0  0  0
  151.1853  137.1608  159.4337 O   0  0  0  0  0  0  0  0  0  0  0  0
  155.1955  138.6004  158.8746 H   0  0  0  0  0  0  0  0  0  0  0  0
  154.2874  137.4378  159.8373 H   0  0  0  0  0  0  0  0  0  0  0  0
  155.1691  138.7306  160.6267 H   0  0  0  0  0  0  0  0  0  0  0  0
  152.7644  139.2317  160.6035 H   0  0  0  0  0  0  0  0  0  0  0  0
  154.3635  141.0914  160.5683 H   0  0  0  0  0  0  0  0  0  0  0  0
  154.3423  141.1216  158.8242 H   0  0  0  0  0  0  0  0  0  0  0  0
  151.9745  141.6841  160.6751 H   0  0  0  0  0  0  0  0  0  0  0  0
  152.8409  142.8649  159.7215 H   0  0  0  0  0  0  0  0  0  0  0  0
  150.6969  142.1975  158.6255 H   0  0  0  0  0  0  0  0  0  0  0  0
  152.0737  141.8170  157.6228 H   0  0  0  0  0  0  0  0  0  0  0  0
  150.5213  139.8823  159.3960 H   0  0  0  0  0  0  0  0  0  0  0  0
  150.4914  139.9135  157.6554 H   0  0  0  0  0  0  0  0  0  0  0  0
  152.7417  135.1501  156.7223 H   0  0  0  0  0  0  0  0  0  0  0  0
  151.4165  135.1936  157.8429 H   0  0  0  0  0  0  0  0  0  0  0  0
  149.5578  134.5176  156.9146 H   0  0  0  0  0  0  0  0  0  0  0  0
  147.7629  134.4287  155.5097 H   0  0  0  0  0  0  0  0  0  0  0  0
  148.4885  135.6127  154.4454 H   0  0  0  0  0  0  0  0  0  0  0  0
  149.9022  133.8859  153.3823 H   0  0  0  0  0  0  0  0  0  0  0  0
  149.4804  132.7123  154.6043 H   0  0  0  0  0  0  0  0  0  0  0  0
  147.8846  131.0465  153.9038 H   0  0  0  0  0  0  0  0  0  0  0  0
  145.9651  130.3966  152.4391 H   0  0  0  0  0  0  0  0  0  0  0  0
  144.9596  132.1021  150.9071 H   0  0  0  0  0  0  0  0  0  0  0  0
  145.9521  134.4656  150.9015 H   0  0  0  0  0  0  0  0  0  0  0  0
  147.7314  134.9322  152.3071 H   0  0  0  0  0  0  0  0  0  0  0  0
  1  2  1  0  0  0  0
  1 26  1  0  0  0  0
  1 27  1  0  0  0  0
  1 28  1  0  0  0  0
  2  7  1  0  0  0  0
  2  3  1  0  0  0  0
  2 29  1  0  0  0  0
  3  4  1  0  0  0  0
  3 30  1  0  0  0  0
  3 31  1  0  0  0  0
  4  5  1  0  0  0  0
  4 32  1  0  0  0  0
  4 33  1  0  0  0  0
  5  6  1  0  0  0  0
  5 34  1  0  0  0  0
  5 35  1  0  0  0  0
  6  7  1  0  0  0  0
  6 36  1  0  0  0  0
  6 37  1  0  0  0  0
  7 24  1  0  0  0  0
  7  8  1  0  0  0  0
  8  9  1  0  0  0  0
  9 10  2  0  0  0  0
  9 11  1  0  0  0  0
 11 12  1  0  0  0  0
 11 24  1  0  0  0  0
 12 13  1  0  0  0  0
 12 38  1  0  0  0  0
 12 39  1  0  0  0  0
 13 14  2  0  0  0  0
 13 15  1  0  0  0  0
 15 16  1  0  0  0  0
 15 40  1  0  0  0  0
 16 17  1  0  0  0  0
 16 41  1  0  0  0  0
 16 42  1  0  0  0  0
 17 18  1  0  0  0  0
 17 43  1  0  0  0  0
 17 44  1  0  0  0  0
 18 23  1  0  0  0  0
 18 19  2  0  0  0  0
 19 20  1  0  0  0  0
 19 45  1  0  0  0  0
 20 21  2  0  0  0  0
 20 46  1  0  0  0  0
 21 22  1  0  0  0  0
 21 47  1  0  0  0  0
 22 23  2  0  0  0  0
 22 48  1  0  0  0  0
 23 49  1  0  0  0  0
 24 25  2  0  0  0  0
M  CHG  1   8  -1
M  CHG  1  23   1
M  END
> <s_m_source_file>
AV-unprocessed.smi

> <i_m_source_file_index>
2973

> <i_lp_mmshare_version>
43012

> <i_f3d_flags>
0

> <s_epik_input>
W0NIMl0xW0NIMl1bQ0gyXVtDSDJdW0NAQEhdKFtDSDNdKVtDQF0xMltOSF1DKD1PKU4oQzI9TylbQ0gyXUMoPU8pW05IXVtDSDJdW0NIMl1jM1tjSF1bY0hdW2NIXVtjSF1uMw==

> <s_epik_cmdline>
J2VwaWtfcHl0aG9uJywgJy1waCcsICc3LjAnLCAnLXRuJywgJzgnLCAnLW1hJywgJzIwMCcsICctbWV0YWxfYmluZGluZycsICctaW1hZScsICc8aW5maWxlLm1hZT4nLCAnLW9tYWUnLCAnPG91dGZpbGUubWFlPic=

> <r_lp_tautomer_probability>
1

> <r_epik_Ionization_Penalty>
7.89073

> <r_epik_Ionization_Penalty_Charging>
7.89073

> <r_epik_Ionization_Penalty_Neutral>
1.56557e-07

> <r_epik_State_Penalty>
8.01193

> <r_epik_Charging_Adjusted_Penalty>
15.9027

> <i_epik_Tot_Q>
0

> <i_epik_Tot_abs_Q>
2

> <r_epik_Metal_State_Penalty>
3.98737

> <b_epik_Metal_Only>
1

> <s_lp_Force_Field>
OPLS_2005

> <r_lp_Energy>
20.3817

> <b_lp_Chiralities_Consistent>
1

> <s_lp_Variant>
AV-unprocessed.smi:2973-14

> <Gold.Version>
5.8.1

> <Gold.Id.Protein>
6NUR|6NUR_protein|mol2

> <Gold.PLP.Fitness>
56.7418

> <Gold.PLP.PLP>
-39.1989

> <Gold.PLP.part.hbond>
-5.0000

> <Gold.PLP.part.metal>
0.0000

> <Gold.PLP.part.buried>
-5.6782

> <Gold.PLP.part.nonpolar>
-29.6910

> <Gold.PLP.part.repulsive>
0.2655

> <Gold.PLP.ligand.clash>
0.0000

> <Gold.PLP.ligand.torsion>
0.2472

> <Gold.PLP.Chemscore.Hbond>
6.0000

> <Gold.PLP.Chemscore.CHOScore>
0.0000

> <Gold.PLP.Chemscore.Metal>
0.0000

> <Gold.Chemscore.Hbonds>
donor molecule, donor type, donor heavy atom, donor atom, acceptor molecule, acceptor atom, score
      L1  H    23    49       P1  7948  2.00
      P1  H  6896  6909       L1    25  0.89
      P1  H  7997  8010       L1     8  2.00
      P1  H 10752 10763       L1    14  1.00

> <Gold.PLP.Chemscore.Internal.Correction>
0.0373

> <Gold.Rescore>
     Score         DG    S(hbond)    S(metal)    S(lipo)     H(rot)  DE(clash)    DE(int)     intcor
     21.68     -23.33       3.85        0.00      84.46       1.92       0.00       1.65       ----

> <Gold.Chemscore.Fitness>
21.6836

> <Gold.Chemscore.DG>
-23.3286

> <Gold.Chemscore.ZeroCoef>
-5.4800

> <Gold.Chemscore.Hbond>
3.8549

> <Gold.Chemscore.Metal>
0.0000

> <Gold.Chemscore.Lipo>
84.4614

> <Gold.Chemscore.Internal_Hbond>
0.0000

> <Gold.Chemscore.DEClash>
0.0000

> <Gold.Chemscore.DEInternal>
1.6450

> <Gold.Chemscore.Rot>
1.9175

> <Gold.Chemscore.Internal.Correction>
   9.000000E+99

> <Gold.Chemscore.Hbonds>
donor molecule, donor type, donor heavy atom, donor atom, acceptor molecule, acceptor atom, score
      L1  H    23    49       P1  7948  0.85
      P1  H  6896  6909       L1    25  0.86
      P1  H  7997  8010       L1     8  0.85
      P1  H 10752 10763       L1    14  0.45

> <Gold.Chemscore.Hbond.Weighted>
-12.8753

> <Gold.Chemscore.Metal.Weighted>
-0.0000

> <Gold.Chemscore.Lipo.Weighted>
-9.8820

> <Gold.Chemscore.Internal_Hbond.Weighted>
0.0000

> <Gold.Chemscore.DEClash.Weighted>
0.0000

> <Gold.Chemscore.DEInternal.Weighted>
1.6450

> <Gold.Chemscore.Rot.Weighted>
4.9087

> <Gold.Chemscore.Internal.Correction.Weighted>
   9.000000E+99

> <Gold.Protein.RotatedTorsions>
[ 6907 6896 6895 6894 ] final  106.53 input  -60.11 | X-H torsion
[ 7974 7965 7964 7962 ] final -101.93 input  175.53 | X-H torsion
[ 8008 7997 7996 7995 ] final   59.99 input   59.86 | X-H torsion
[ 10167 10162 10161 10158 ] final  -57.22 input  -65.29 | X-H torsion
[ 10718 10713 10712 10709 ] final  -88.36 input   66.30 | X-H torsion
[ 10763 10752 10751 10750 ] final   48.39 input  -60.55 | X-H torsion
[ 11005 11000 10999 10996 ] final  109.03 input  -57.11 | X-H torsion

> <Gold.Protein.ActiveResidues>
 VAL166  LYS551  ARG553  GLY616  TRP617  ASP618  TYR619  PRO620  LYS621  CYS622 
 ASP623  PHE694  ASN695  SER759  ASP760  ASP761  ALA762  ILE779  LEU786  VAL792 
 PHE793  MET794  SER795  GLU796  ALA797  LYS798  CYS799  TRP800  GLU811  SER814 

> <Gold.Protein.RotatedAtoms>
  152.5190  133.9367  159.7606 H   0  0  0  0  0  0  0  0  0  0  0  0  # atno 6907 bound_to 6896
  150.9706  133.6340  159.2745 H   0  0  0  0  0  0  0  0  0  0  0  0  # atno 6908 bound_to 6896
  151.3553  135.0898  159.9469 H   0  0  0  0  0  0  0  0  0  0  0  0  # atno 6909 bound_to 6896
  145.2752  140.9310  143.2963 H   0  0  0  0  0  0  0  0  0  0  0  0  # atno 7974 bound_to 7965
  155.5751  140.3490  155.4525 H   0  0  0  0  0  0  0  0  0  0  0  0  # atno 8008 bound_to 7997
  156.0415  140.1297  157.0176 H   0  0  0  0  0  0  0  0  0  0  0  0  # atno 8009 bound_to 7997
  154.4394  140.1023  156.6229 H   0  0  0  0  0  0  0  0  0  0  0  0  # atno 8010 bound_to 7997
  140.6271  143.2443  151.5336 H   0  0  0  0  0  0  0  0  0  0  0  0  # atno 10167 bound_to 10162
  155.9984  130.4833  150.5007 H   0  0  0  0  0  0  0  0  0  0  0  0  # atno 10718 bound_to 10713
  152.9792  135.5945  154.3919 H   0  0  0  0  0  0  0  0  0  0  0  0  # atno 10763 bound_to 10752
  154.3573  135.2767  155.2341 H   0  0  0  0  0  0  0  0  0  0  0  0  # atno 10764 bound_to 10752
  154.4354  135.6026  153.6150 H   0  0  0  0  0  0  0  0  0  0  0  0  # atno 10765 bound_to 10752
  139.8854  134.9447  156.6062 H   0  0  0  0  0  0  0  0  0  0  0  0  # atno 11005 bound_to 11000
  144.9300  139.4309  143.6499 LP  0  0  0  0  0  0  0  0  0  0  0  0  # atno 17320 bound_to 7965
  146.3234  139.8206  142.8927 LP  0  0  0  0  0  0  0  0  0  0  0  0  # atno 17321 bound_to 7965
  139.5490  144.2446  152.1495 LP  0  0  0  0  0  0  0  0  0  0  0  0  # atno 17342 bound_to 10162
  140.1680  144.4963  150.6595 LP  0  0  0  0  0  0  0  0  0  0  0  0  # atno 17343 bound_to 10162
  157.2992  131.0642  151.2080 LP  0  0  0  0  0  0  0  0  0  0  0  0  # atno 17370 bound_to 10713
  157.3066  130.6869  149.6192 LP  0  0  0  0  0  0  0  0  0  0  0  0  # atno 17371 bound_to 10713
  140.7846  133.8632  155.8595 LP  0  0  0  0  0  0  0  0  0  0  0  0  # atno 17394 bound_to 11000
  140.9731  134.1505  157.4560 LP  0  0  0  0  0  0  0  0  0  0  0  0  # atno 17395 bound_to 11000

$$$$
