AV-unprocessed.smi:606|AV-procd|sdf|3041|dock1
  -GOLD-   2262023563D 1   1.00000     0.00000
 Structure written by MMmdl.
 36 37  0  0  0  0  0  0  0  0  1 V2000
  151.0447  140.9868  156.1385 C   0  0  0  0  0  0  0  0  0  0  0  0
  149.9166  140.3760  155.3800 C   0  0  0  0  0  0  0  0  0  0  0  0
  149.8280  139.2862  154.5602 C   0  0  0  0  0  0  0  0  0  0  0  0
  148.4594  139.2828  154.1797 C   0  0  0  0  0  0  0  0  0  0  0  0
  147.9474  138.2863  153.3098 N   0  0  0  0  0  0  0  0  0  0  0  0
  146.6630  137.9268  153.1432 C   0  0  0  0  0  0  0  0  0  0  0  0
  145.7070  138.4139  153.7479 O   0  0  0  0  0  0  0  0  0  0  0  0
  146.5432  136.9538  152.2271 N   0  0  0  0  0  0  0  0  0  0  0  0
  145.2866  136.3383  151.8045 C   0  0  0  0  0  0  0  0  0  0  0  0
  144.5040  135.8460  153.0427 C   0  0  0  0  0  0  0  0  0  0  0  0
  143.0380  135.4994  152.7326 C   0  0  0  0  0  0  0  0  0  0  0  0
  142.7817  134.0622  152.2460 C   0  0  0  0  0  0  0  0  0  0  0  0
  143.8070  133.4742  151.2605 C   0  0  0  0  0  0  0  0  0  0  0  0
  144.3885  134.4665  150.2408 C   0  0  0  0  0  0  0  0  0  0  0  0
  145.6086  135.2313  150.7830 C   0  0  0  0  0  0  0  0  0  0  0  0
  147.7756  140.2816  154.7169 N   0  0  0  0  0  0  0  0  0  0  0  0
  148.7059  140.9873  155.4887 O   0  0  0  0  0  0  0  0  0  0  0  0
  151.9199  140.3370  156.1263 H   0  0  0  0  0  0  0  0  0  0  0  0
  150.7651  141.1571  157.1783 H   0  0  0  0  0  0  0  0  0  0  0  0
  151.3287  141.9448  155.7027 H   0  0  0  0  0  0  0  0  0  0  0  0
  150.6167  138.6036  154.2809 H   0  0  0  0  0  0  0  0  0  0  0  0
  148.6321  137.7968  152.7532 H   0  0  0  0  0  0  0  0  0  0  0  0
  147.3842  136.6118  151.7857 H   0  0  0  0  0  0  0  0  0  0  0  0
  144.6901  137.0957  151.2921 H   0  0  0  0  0  0  0  0  0  0  0  0
  145.0098  135.0062  153.5208 H   0  0  0  0  0  0  0  0  0  0  0  0
  144.4951  136.6463  153.7842 H   0  0  0  0  0  0  0  0  0  0  0  0
  142.4419  135.6560  153.6324 H   0  0  0  0  0  0  0  0  0  0  0  0
  142.6436  136.2093  152.0045 H   0  0  0  0  0  0  0  0  0  0  0  0
  142.7216  133.3980  153.1088 H   0  0  0  0  0  0  0  0  0  0  0  0
  141.7921  134.0338  151.7885 H   0  0  0  0  0  0  0  0  0  0  0  0
  144.6214  133.0087  151.8168 H   0  0  0  0  0  0  0  0  0  0  0  0
  143.3243  132.6565  150.7243 H   0  0  0  0  0  0  0  0  0  0  0  0
  144.7179  133.8967  149.3714 H   0  0  0  0  0  0  0  0  0  0  0  0
  143.6226  135.1508  149.8741 H   0  0  0  0  0  0  0  0  0  0  0  0
  146.1241  135.6876  149.9368 H   0  0  0  0  0  0  0  0  0  0  0  0
  146.3197  134.5234  151.2116 H   0  0  0  0  0  0  0  0  0  0  0  0
  1  2  1  0  0  0  0
  1 18  1  0  0  0  0
  1 19  1  0  0  0  0
  1 20  1  0  0  0  0
  2 17  1  0  0  0  0
  2  3  2  0  0  0  0
  3  4  1  0  0  0  0
  3 21  1  0  0  0  0
  4  5  1  0  0  0  0
  4 16  2  0  0  0  0
  5  6  1  0  0  0  0
  5 22  1  0  0  0  0
  6  7  2  0  0  0  0
  6  8  1  0  0  0  0
  8  9  1  0  0  0  0
  8 23  1  0  0  0  0
  9 15  1  0  0  0  0
  9 10  1  0  0  0  0
  9 24  1  0  0  0  0
 10 11  1  0  0  0  0
 10 25  1  0  0  0  0
 10 26  1  0  0  0  0
 11 12  1  0  0  0  0
 11 27  1  0  0  0  0
 11 28  1  0  0  0  0
 12 13  1  0  0  0  0
 12 29  1  0  0  0  0
 12 30  1  0  0  0  0
 13 14  1  0  0  0  0
 13 31  1  0  0  0  0
 13 32  1  0  0  0  0
 14 15  1  0  0  0  0
 14 33  1  0  0  0  0
 14 34  1  0  0  0  0
 15 35  1  0  0  0  0
 15 36  1  0  0  0  0
 16 17  1  0  0  0  0
M  END
> <s_m_source_file>
AV-unprocessed.smi

> <i_m_source_file_index>
606

> <i_lp_mmshare_version>
43012

> <i_f3d_flags>
0

> <s_epik_input>
W0NIM11jMVtjSF1jKG5vMSlbTkhdQyg9TylbTkhdW0NIXTJbQ0gyXVtDSDJdW0NIMl1bQ0gyXVtDSDJdW0NIMl0y

> <s_epik_cmdline>
J2VwaWtfcHl0aG9uJywgJy1waCcsICc3LjAnLCAnLXRuJywgJzgnLCAnLW1hJywgJzIwMCcsICctbWV0YWxfYmluZGluZycsICctaW1hZScsICc8aW5maWxlLm1hZT4nLCAnLW9tYWUnLCAnPG91dGZpbGUubWFlPic=

> <r_lp_tautomer_probability>
1

> <r_epik_Ionization_Penalty>
2.39396e-05

> <r_epik_Ionization_Penalty_Charging>
0

> <r_epik_Ionization_Penalty_Neutral>
2.39396e-05

> <r_epik_State_Penalty>
-0

> <r_epik_Charging_Adjusted_Penalty>
0

> <i_epik_Tot_Q>
0

> <i_epik_Tot_abs_Q>
0

> <r_epik_Metal_State_Penalty>
-0

> <b_epik_Metal_Only>
0

> <s_lp_Force_Field>
OPLS_2005

> <r_lp_Energy>
12.5841

> <b_lp_Chiralities_Consistent>
1

> <s_lp_Variant>
AV-unprocessed.smi:606-1

> <Gold.Version>
5.8.1

> <Gold.Id.Protein>
6NUR|6NUR_protein|mol2

> <Gold.PLP.Fitness>
33.2299

> <Gold.PLP.PLP>
-27.7056

> <Gold.PLP.part.hbond>
-2.7566

> <Gold.PLP.part.metal>
0.0000

> <Gold.PLP.part.buried>
-1.7428

> <Gold.PLP.part.nonpolar>
-23.6016

> <Gold.PLP.part.repulsive>
1.3141

> <Gold.PLP.ligand.clash>
0.0000

> <Gold.PLP.ligand.torsion>
0.1127

> <Gold.PLP.Chemscore.Hbond>
1.9120

> <Gold.PLP.Chemscore.CHOScore>
0.0000

> <Gold.PLP.Chemscore.Metal>
0.0000

> <Gold.Chemscore.Hbonds>
donor molecule, donor type, donor heavy atom, donor atom, acceptor molecule, acceptor atom, score
      L1  H     5    22       P1  7948  0.90
      L1  H     8    23       P1  7948  1.00

> <Gold.PLP.Chemscore.Internal.Correction>
0.0138

> <Gold.Rescore>
     Score         DG    S(hbond)    S(metal)    S(lipo)     H(rot)  DE(clash)    DE(int)     intcor
     13.82     -16.24       1.94        0.00      58.31       1.00       0.12       2.30       ----

> <Gold.Chemscore.Fitness>
13.8156

> <Gold.Chemscore.DG>
-16.2383

> <Gold.Chemscore.ZeroCoef>
-5.4800

> <Gold.Chemscore.Hbond>
1.9447

> <Gold.Chemscore.Metal>
0.0000

> <Gold.Chemscore.Lipo>
58.3147

> <Gold.Chemscore.Internal_Hbond>
0.0000

> <Gold.Chemscore.DEClash>
0.1246

> <Gold.Chemscore.DEInternal>
2.2981

> <Gold.Chemscore.Rot>
1.0000

> <Gold.Chemscore.Internal.Correction>
   9.000000E+99

> <Gold.Chemscore.Hbonds>
donor molecule, donor type, donor heavy atom, donor atom, acceptor molecule, acceptor atom, score
      L1  H     5    22       P1  7948  0.88
      L1  H     8    23       P1  7948  0.95

> <Gold.Chemscore.Hbond.Weighted>
-6.4954

> <Gold.Chemscore.Metal.Weighted>
-0.0000

> <Gold.Chemscore.Lipo.Weighted>
-6.8228

> <Gold.Chemscore.Internal_Hbond.Weighted>
0.0000

> <Gold.Chemscore.DEClash.Weighted>
0.1246

> <Gold.Chemscore.DEInternal.Weighted>
2.2981

> <Gold.Chemscore.Rot.Weighted>
2.5600

> <Gold.Chemscore.Internal.Correction.Weighted>
   9.000000E+99

> <Gold.Protein.RotatedTorsions>
[ 6907 6896 6895 6894 ] final  150.36 input  -60.11 | X-H torsion
[ 7974 7965 7964 7962 ] final   46.40 input  175.53 | X-H torsion
[ 8008 7997 7996 7995 ] final -129.57 input   59.86 | X-H torsion
[ 10167 10162 10161 10158 ] final   11.19 input  -65.29 | X-H torsion
[ 10718 10713 10712 10709 ] final -146.11 input   66.30 | X-H torsion
[ 10763 10752 10751 10750 ] final   61.31 input  -60.55 | X-H torsion
[ 11005 11000 10999 10996 ] final -174.64 input  -57.11 | X-H torsion

> <Gold.Protein.ActiveResidues>
 VAL166  LYS551  ARG553  GLY616  TRP617  ASP618  TYR619  PRO620  LYS621  CYS622 
 ASP623  PHE694  ASN695  SER759  ASP760  ASP761  ALA762  ILE779  LEU786  VAL792 
 PHE793  MET794  SER795  GLU796  ALA797  LYS798  CYS799  TRP800  GLU811  SER814 

> <Gold.Protein.RotatedAtoms>
  152.1155  133.4324  159.4650 H   0  0  0  0  0  0  0  0  0  0  0  0  # atno 6907 bound_to 6896
  150.6869  134.2597  159.4553 H   0  0  0  0  0  0  0  0  0  0  0  0  # atno 6908 bound_to 6896
  152.0469  134.9677  160.0625 H   0  0  0  0  0  0  0  0  0  0  0  0  # atno 6909 bound_to 6896
  146.0393  139.4860  142.9788 H   0  0  0  0  0  0  0  0  0  0  0  0  # atno 7974 bound_to 7965
  155.2814  140.0444  157.3016 H   0  0  0  0  0  0  0  0  0  0  0  0  # atno 8008 bound_to 7997
  154.5595  140.2341  155.8326 H   0  0  0  0  0  0  0  0  0  0  0  0  # atno 8009 bound_to 7997
  156.2035  140.3019  155.9584 H   0  0  0  0  0  0  0  0  0  0  0  0  # atno 8010 bound_to 7997
  140.6147  143.8333  150.7105 H   0  0  0  0  0  0  0  0  0  0  0  0  # atno 10167 bound_to 10162
  156.3908  130.7885  151.2086 H   0  0  0  0  0  0  0  0  0  0  0  0  # atno 10718 bound_to 10713
  152.9946  135.5505  154.6012 H   0  0  0  0  0  0  0  0  0  0  0  0  # atno 10763 bound_to 10752
  154.5353  135.2816  155.1146 H   0  0  0  0  0  0  0  0  0  0  0  0  # atno 10764 bound_to 10752
  154.2444  135.6410  153.5271 H   0  0  0  0  0  0  0  0  0  0  0  0  # atno 10765 bound_to 10752
  140.4723  134.6154  157.4887 H   0  0  0  0  0  0  0  0  0  0  0  0  # atno 11005 bound_to 11000
  145.6911  141.0164  143.1555 LP  0  0  0  0  0  0  0  0  0  0  0  0  # atno 17320 bound_to 7965
  144.7067  139.8534  143.7428 LP  0  0  0  0  0  0  0  0  0  0  0  0  # atno 17321 bound_to 7965
  140.1909  143.4037  152.1863 LP  0  0  0  0  0  0  0  0  0  0  0  0  # atno 17342 bound_to 10162
  139.5389  144.7237  151.4799 LP  0  0  0  0  0  0  0  0  0  0  0  0  # atno 17343 bound_to 10162
  157.7499  131.0316  150.4189 LP  0  0  0  0  0  0  0  0  0  0  0  0  # atno 17370 bound_to 10713
  156.4450  130.3999  149.6672 LP  0  0  0  0  0  0  0  0  0  0  0  0  # atno 17371 bound_to 10713
  139.9878  134.7034  155.9743 LP  0  0  0  0  0  0  0  0  0  0  0  0  # atno 17394 bound_to 11000
  141.1571  133.6542  156.4197 LP  0  0  0  0  0  0  0  0  0  0  0  0  # atno 17395 bound_to 11000

$$$$
