AV-unprocessed.smi:2745|AV-procd|sdf|10570|dock2
  -GOLD-   2272015 23D 1   1.00000     0.00000
 Structure written by MMmdl.
 19 19  0  0  0  0  0  0  0  0  2 V2000
  143.4779  133.8385  147.9415 N   0  3  0  0  0  0  0  0  0  0  0  0
  143.7830  132.5032  148.4822 C   0  0  0  0  0  0  0  0  0  0  0  0
  144.9737  132.5491  149.4504 C   0  0  0  0  0  0  0  0  0  0  0  0
  144.7907  133.5782  150.5244 C   0  0  0  0  0  0  0  0  0  0  0  0
  143.6408  133.8403  151.2291 C   0  0  0  0  0  0  0  0  0  0  0  0
  143.8657  135.1183  152.3933 S   0  0  0  0  0  0  0  0  0  0  0  0
  145.5364  135.2484  151.8662 C   0  0  0  0  0  0  0  0  0  0  0  0
  146.4044  136.1689  152.4268 N   0  0  0  0  0  0  0  0  0  0  0  0
  145.8660  134.3907  150.8995 N   0  0  0  0  0  0  0  0  0  0  0  0
  144.3060  134.4153  147.9823 H   0  0  0  0  0  0  0  0  0  0  0  0
  142.7447  134.2651  148.4901 H   0  0  0  0  0  0  0  0  0  0  0  0
  142.8968  132.1191  148.9885 H   0  0  0  0  0  0  0  0  0  0  0  0
  143.9955  131.8313  147.6500 H   0  0  0  0  0  0  0  0  0  0  0  0
  145.1142  131.5662  149.9023 H   0  0  0  0  0  0  0  0  0  0  0  0
  145.8882  132.7546  148.8924 H   0  0  0  0  0  0  0  0  0  0  0  0
  142.6772  133.3617  151.1357 H   0  0  0  0  0  0  0  0  0  0  0  0
  146.1053  136.7972  153.1586 H   0  0  0  0  0  0  0  0  0  0  0  0
  147.3820  136.1924  152.1742 H   0  0  0  0  0  0  0  0  0  0  0  0
  143.1743  133.7538  146.9819 H   0  0  0  0  0  0  0  0  0  0  0  0
  1  2  1  0  0  0  0
  1 10  1  0  0  0  0
  1 11  1  0  0  0  0
  1 19  1  0  0  0  0
  2  3  1  0  0  0  0
  2 12  1  0  0  0  0
  2 13  1  0  0  0  0
  3  4  1  0  0  0  0
  3 14  1  0  0  0  0
  3 15  1  0  0  0  0
  4  9  1  0  0  0  0
  4  5  2  0  0  0  0
  5  6  1  0  0  0  0
  5 16  1  0  0  0  0
  6  7  1  0  0  0  0
  7  8  1  0  0  0  0
  7  9  2  0  0  0  0
  8 17  1  0  0  0  0
  8 18  1  0  0  0  0
M  CHG  1   1   1
M  END
> <s_m_source_file>
AV-unprocessed.smi

> <i_m_source_file_index>
2745

> <i_lp_mmshare_version>
43012

> <i_f3d_flags>
0

> <s_epik_input>
W05IMl1bQ0gyXVtDSDJdYzFbY0hdc2MobjEpW05IMl0=

> <s_epik_cmdline>
J2VwaWtfcHl0aG9uJywgJy1waCcsICc3LjAnLCAnLXRuJywgJzgnLCAnLW1hJywgJzIwMCcsICctbWV0YWxfYmluZGluZycsICctaW1hZScsICc8aW5maWxlLm1hZT4nLCAnLW9tYWUnLCAnPG91dGZpbGUubWFlPic=

> <r_lp_tautomer_probability>
1

> <r_epik_Ionization_Penalty>
0.00283573

> <r_epik_Ionization_Penalty_Charging>
0.00199846

> <r_epik_Ionization_Penalty_Neutral>
0.000837263

> <r_epik_State_Penalty>
-0

> <r_epik_Charging_Adjusted_Penalty>
0.00199846

> <i_epik_Tot_Q>
1

> <i_epik_Tot_abs_Q>
1

> <r_epik_Metal_State_Penalty>
-0

> <b_epik_Metal_Only>
0

> <s_lp_Force_Field>
OPLS_2005

> <r_lp_Energy>
-1.00424

> <b_lp_Chiralities_Consistent>
1

> <s_lp_Variant>
AV-unprocessed.smi:2745-1

> <Gold.Version>
5.8.1

> <Gold.Id.Protein>
6NUR|6NUR_protein|mol2

> <Gold.PLP.Fitness>
35.7903

> <Gold.PLP.PLP>
-19.0682

> <Gold.PLP.part.hbond>
-4.0000

> <Gold.PLP.part.metal>
0.0000

> <Gold.PLP.part.buried>
-1.9288

> <Gold.PLP.part.nonpolar>
-13.6632

> <Gold.PLP.part.repulsive>
0.4335

> <Gold.PLP.ligand.clash>
0.0000

> <Gold.PLP.ligand.torsion>
0.2550

> <Gold.PLP.Chemscore.Hbond>
4.9913

> <Gold.PLP.Chemscore.CHOScore>
0.7527

> <Gold.PLP.Chemscore.Metal>
0.0000

> <Gold.Chemscore.Hbonds>
donor molecule, donor type, donor heavy atom, donor atom, acceptor molecule, acceptor atom, score
      L1  H     1    10       P1  7921  1.00
      L1  H     1    11       P1 10186  2.00
      L1  H     1    19       P1 10195  0.91
      L1  H     8    18       P1  7948  1.00
      L1  C     5    16       P1 10186  0.75

> <Gold.PLP.Chemscore.Internal.Correction>
0.0003

> <Gold.Rescore>
     Score         DG    S(hbond)    S(metal)    S(lipo)     H(rot)  DE(clash)    DE(int)     intcor
     19.31     -19.66       3.89        0.00      42.56       1.49       0.15       0.20       ----

> <Gold.Chemscore.Fitness>
19.3129

> <Gold.Chemscore.DG>
-19.6639

> <Gold.Chemscore.ZeroCoef>
-5.4800

> <Gold.Chemscore.Hbond>
3.8948

> <Gold.Chemscore.Metal>
0.0000

> <Gold.Chemscore.Lipo>
42.5586

> <Gold.Chemscore.Internal_Hbond>
0.0000

> <Gold.Chemscore.DEClash>
0.1538

> <Gold.Chemscore.DEInternal>
0.1972

> <Gold.Chemscore.Rot>
1.4859

> <Gold.Chemscore.Internal.Correction>
   9.000000E+99

> <Gold.Chemscore.Hbonds>
donor molecule, donor type, donor heavy atom, donor atom, acceptor molecule, acceptor atom, score
      L1  H     1    10       P1  7921  0.97
      L1  H     1    11       P1 10186  0.94
      L1  H     1    19       P1 10195  0.84
      L1  H     8    18       P1  7948  0.98

> <Gold.Chemscore.Hbond.Weighted>
-13.0085

> <Gold.Chemscore.Metal.Weighted>
-0.0000

> <Gold.Chemscore.Lipo.Weighted>
-4.9794

> <Gold.Chemscore.Internal_Hbond.Weighted>
0.0000

> <Gold.Chemscore.DEClash.Weighted>
0.1538

> <Gold.Chemscore.DEInternal.Weighted>
0.1972

> <Gold.Chemscore.Rot.Weighted>
3.8039

> <Gold.Chemscore.Internal.Correction.Weighted>
   9.000000E+99

> <Gold.Protein.RotatedTorsions>
[ 6907 6896 6895 6894 ] final -118.52 input  -60.11 | X-H torsion
[ 7974 7965 7964 7962 ] final  -52.49 input  175.53 | X-H torsion
[ 8008 7997 7996 7995 ] final   19.66 input   59.86 | X-H torsion
[ 10167 10162 10161 10158 ] final  -15.93 input  -65.29 | X-H torsion
[ 10718 10713 10712 10709 ] final  -43.67 input   66.30 | X-H torsion
[ 10763 10752 10751 10750 ] final   69.66 input  -60.55 | X-H torsion
[ 11005 11000 10999 10996 ] final   30.09 input  -57.11 | X-H torsion

> <Gold.Protein.ActiveResidues>
 VAL166  LYS551  ARG553  GLY616  TRP617  ASP618  TYR619  PRO620  LYS621  CYS622 
 ASP623  PHE694  ASN695  SER759  ASP760  ASP761  ALA762  ILE779  LEU786  VAL792 
 PHE793  MET794  SER795  GLU796  ALA797  LYS798  CYS799  TRP800  GLU811  SER814 

> <Gold.Protein.RotatedAtoms>
  150.8227  133.8225  159.3131 H   0  0  0  0  0  0  0  0  0  0  0  0  # atno 6907 bound_to 6896
  151.5978  135.1047  160.0063 H   0  0  0  0  0  0  0  0  0  0  0  0  # atno 6908 bound_to 6896
  152.4315  133.7245  159.6608 H   0  0  0  0  0  0  0  0  0  0  0  0  # atno 6909 bound_to 6896
  145.9073  140.7944  142.9713 H   0  0  0  0  0  0  0  0  0  0  0  0  # atno 7974 bound_to 7965
  154.9240  140.3031  155.5202 H   0  0  0  0  0  0  0  0  0  0  0  0  # atno 8008 bound_to 7997
  156.3008  140.2366  156.4229 H   0  0  0  0  0  0  0  0  0  0  0  0  # atno 8009 bound_to 7997
  154.8303  140.0419  157.1461 H   0  0  0  0  0  0  0  0  0  0  0  0  # atno 8010 bound_to 7997
  140.7226  143.5167  150.9683 H   0  0  0  0  0  0  0  0  0  0  0  0  # atno 10167 bound_to 10162
  156.2466  130.4184  149.8698 H   0  0  0  0  0  0  0  0  0  0  0  0  # atno 10718 bound_to 10713
  153.0299  135.5202  154.7322 H   0  0  0  0  0  0  0  0  0  0  0  0  # atno 10763 bound_to 10752
  154.6346  135.2904  155.0178 H   0  0  0  0  0  0  0  0  0  0  0  0  # atno 10764 bound_to 10752
  154.1117  135.6621  153.4939 H   0  0  0  0  0  0  0  0  0  0  0  0  # atno 10765 bound_to 10752
  140.2980  134.2789  155.7760 H   0  0  0  0  0  0  0  0  0  0  0  0  # atno 11005 bound_to 11000
  144.6740  140.1771  143.7409 LP  0  0  0  0  0  0  0  0  0  0  0  0  # atno 17320 bound_to 7965
  145.8715  139.2275  143.1658 LP  0  0  0  0  0  0  0  0  0  0  0  0  # atno 17321 bound_to 7965
  139.8883  143.6985  152.3148 LP  0  0  0  0  0  0  0  0  0  0  0  0  # atno 17342 bound_to 10162
  139.7292  144.7586  151.0830 LP  0  0  0  0  0  0  0  0  0  0  0  0  # atno 17343 bound_to 10162
  156.6261  130.8646  151.3486 LP  0  0  0  0  0  0  0  0  0  0  0  0  # atno 17370 bound_to 10713
  157.7197  130.9543  150.1392 LP  0  0  0  0  0  0  0  0  0  0  0  0  # atno 17371 bound_to 10713
  141.2133  133.7628  156.9724 LP  0  0  0  0  0  0  0  0  0  0  0  0  # atno 17394 bound_to 11000
  140.1135  134.9462  157.2100 LP  0  0  0  0  0  0  0  0  0  0  0  0  # atno 17395 bound_to 11000

$$$$
