AV-unprocessed.smi:438|AV-procd|sdf|2575|dock5
  -GOLD-   2262022553D 1   1.00000     0.00000
 Structure written by MMmdl.
 48 49  0  0  0  0  0  0  0  0  1 V2000
  151.4027  131.6989  156.9043 C   0  0  0  0  0  0  0  0  0  0  0  0
  150.7199  132.9531  156.3905 C   0  0  0  0  0  0  0  0  0  0  0  0
  150.9060  134.0656  157.1342 N   0  0  0  0  0  0  0  0  0  0  0  0
  150.3365  135.1845  156.6891 C   0  0  0  0  0  0  0  0  0  0  0  0
  150.6317  136.6400  157.6736 S   0  0  0  0  0  0  0  0  0  0  0  0
  151.6395  137.6544  156.5472 C   0  0  0  0  0  0  0  0  0  0  0  0
  152.5101  138.6791  157.2742 C   0  0  0  0  0  0  0  0  0  0  0  0
  153.7253  138.5014  157.3518 O   0  0  0  0  0  0  0  0  0  0  0  0
  151.8717  139.7371  157.8036 N   0  0  0  0  0  0  0  0  0  0  0  0
  152.4584  140.8388  158.5728 C   0  0  2  0  0  0  0  0  0  0  0  0
  153.1014  140.3420  159.8873 C   0  0  0  0  0  0  0  0  0  0  0  0
  153.7898  141.4904  160.6387 C   0  0  0  0  0  0  0  0  0  0  0  0
  152.8054  142.6384  160.9053 C   0  0  0  0  0  0  0  0  0  0  0  0
  152.1740  143.1440  159.5984 C   0  0  0  0  0  0  0  0  0  0  0  0
  151.4711  142.0121  158.8210 C   0  0  1  0  0  0  0  0  0  0  0  0
  150.8573  142.5569  157.5191 C   0  0  0  0  0  0  0  0  0  0  0  0
  149.5821  135.3283  155.5984 N   0  0  0  0  0  0  0  0  0  0  0  0
  149.3852  134.2260  154.8445 C   0  0  0  0  0  0  0  0  0  0  0  0
  148.6261  134.3522  153.7173 O   0  0  0  0  0  0  0  0  0  0  0  0
  149.9462  132.9741  155.2011 C   0  0  0  0  0  0  0  0  0  0  0  0
  149.7206  131.7317  154.3451 C   0  0  0  0  0  0  0  0  0  0  0  0
  148.2327  131.3879  154.1678 C   0  0  0  0  0  0  0  0  0  0  0  0
  148.0500  130.5092  153.0784 O   0  0  0  0  0  0  0  0  0  0  0  0
  150.6793  130.8972  157.0490 H   0  0  0  0  0  0  0  0  0  0  0  0
  151.8976  131.8783  157.8594 H   0  0  0  0  0  0  0  0  0  0  0  0
  152.1583  131.3618  156.1947 H   0  0  0  0  0  0  0  0  0  0  0  0
  152.2631  137.0051  155.9319 H   0  0  0  0  0  0  0  0  0  0  0  0
  150.9713  138.1795  155.8643 H   0  0  0  0  0  0  0  0  0  0  0  0
  150.8704  139.7746  157.6768 H   0  0  0  0  0  0  0  0  0  0  0  0
  153.2652  141.2202  157.9454 H   0  0  0  0  0  0  0  0  0  0  0  0
  152.3481  139.8985  160.5387 H   0  0  0  0  0  0  0  0  0  0  0  0
  153.8273  139.5560  159.6756 H   0  0  0  0  0  0  0  0  0  0  0  0
  154.1996  141.1254  161.5808 H   0  0  0  0  0  0  0  0  0  0  0  0
  154.6345  141.8581  160.0547 H   0  0  0  0  0  0  0  0  0  0  0  0
  152.0212  142.2989  161.5831 H   0  0  0  0  0  0  0  0  0  0  0  0
  153.3183  143.4572  161.4112 H   0  0  0  0  0  0  0  0  0  0  0  0
  151.4614  143.9379  159.8242 H   0  0  0  0  0  0  0  0  0  0  0  0
  152.9473  143.5946  158.9746 H   0  0  0  0  0  0  0  0  0  0  0  0
  150.6512  141.6528  159.4440 H   0  0  0  0  0  0  0  0  0  0  0  0
  151.6274  142.9305  156.8437 H   0  0  0  0  0  0  0  0  0  0  0  0
  150.1668  143.3755  157.7235 H   0  0  0  0  0  0  0  0  0  0  0  0
  150.2965  141.7892  156.9888 H   0  0  0  0  0  0  0  0  0  0  0  0
  148.7644  135.1775  153.2787 H   0  0  0  0  0  0  0  0  0  0  0  0
  150.1621  131.9136  153.3648 H   0  0  0  0  0  0  0  0  0  0  0  0
  150.2613  130.8744  154.7448 H   0  0  0  0  0  0  0  0  0  0  0  0
  147.8147  130.9480  155.0737 H   0  0  0  0  0  0  0  0  0  0  0  0
  147.6664  132.2965  153.9625 H   0  0  0  0  0  0  0  0  0  0  0  0
  148.5514  130.8313  152.3448 H   0  0  0  0  0  0  0  0  0  0  0  0
  1  2  1  0  0  0  0
  1 24  1  0  0  0  0
  1 25  1  0  0  0  0
  1 26  1  0  0  0  0
  2 20  1  0  0  0  0
  2  3  2  0  0  0  0
  3  4  1  0  0  0  0
  4  5  1  0  0  0  0
  4 17  2  0  0  0  0
  5  6  1  0  0  0  0
  6  7  1  0  0  0  0
  6 27  1  0  0  0  0
  6 28  1  0  0  0  0
  7  8  2  0  0  0  0
  7  9  1  0  0  0  0
  9 10  1  0  0  0  0
  9 29  1  0  0  0  0
 10 15  1  0  0  0  0
 10 11  1  0  0  0  0
 10 30  1  0  0  0  0
 11 12  1  0  0  0  0
 11 31  1  0  0  0  0
 11 32  1  0  0  0  0
 12 13  1  0  0  0  0
 12 33  1  0  0  0  0
 12 34  1  0  0  0  0
 13 14  1  0  0  0  0
 13 35  1  0  0  0  0
 13 36  1  0  0  0  0
 14 15  1  0  0  0  0
 14 37  1  0  0  0  0
 14 38  1  0  0  0  0
 15 16  1  0  0  0  0
 15 39  1  0  0  0  0
 16 40  1  0  0  0  0
 16 41  1  0  0  0  0
 16 42  1  0  0  0  0
 17 18  1  0  0  0  0
 18 19  1  0  0  0  0
 18 20  2  0  0  0  0
 19 43  1  0  0  0  0
 20 21  1  0  0  0  0
 21 22  1  0  0  0  0
 21 44  1  0  0  0  0
 21 45  1  0  0  0  0
 22 23  1  0  0  0  0
 22 46  1  0  0  0  0
 22 47  1  0  0  0  0
 23 48  1  0  0  0  0
M  END
> <s_m_source_file>
AV-unprocessed.smi

> <i_m_source_file_index>
438

> <i_lp_mmshare_version>
43012

> <i_f3d_flags>
0

> <s_epik_input>
W09IXVtDSDJdW0NIMl1jMWMoW09IXSluYyhuYzFbQ0gzXSlTW0NIMl1DKD1PKVtOSF1bQ0BASF0yW0NIMl1bQ0gyXVtDSDJdW0NIMl1bQ0BIXTJbQ0gzXQ==

> <s_epik_cmdline>
J2VwaWtfcHl0aG9uJywgJy1waCcsICc3LjAnLCAnLXRuJywgJzgnLCAnLW1hJywgJzIwMCcsICctbWV0YWxfYmluZGluZycsICctaW1hZScsICc8aW5maWxlLm1hZT4nLCAnLW9tYWUnLCAnPG91dGZpbGUubWFlPic=

> <r_lp_tautomer_probability>
0.0660145

> <r_epik_Ionization_Penalty>
2.91405

> <r_epik_Ionization_Penalty_Charging>
0

> <r_epik_Ionization_Penalty_Neutral>
2.91405

> <r_epik_State_Penalty>
2.44767

> <r_epik_Charging_Adjusted_Penalty>
2.44767

> <i_epik_Tot_Q>
0

> <i_epik_Tot_abs_Q>
0

> <r_epik_Metal_State_Penalty>
3.04288

> <b_epik_Metal_Only>
0

> <s_lp_Force_Field>
OPLS_2005

> <r_lp_Energy>
1.00415

> <b_lp_Chiralities_Consistent>
1

> <s_lp_Variant>
AV-unprocessed.smi:438-13

> <Gold.Version>
5.8.1

> <Gold.Id.Protein>
6NUR|6NUR_protein|mol2

> <Gold.PLP.Fitness>
48.4446

> <Gold.PLP.PLP>
-39.2071

> <Gold.PLP.part.hbond>
-4.0000

> <Gold.PLP.part.metal>
0.0000

> <Gold.PLP.part.buried>
-4.8499

> <Gold.PLP.part.nonpolar>
-30.8098

> <Gold.PLP.part.repulsive>
0.1628

> <Gold.PLP.ligand.clash>
0.0000

> <Gold.PLP.ligand.torsion>
0.4453

> <Gold.PLP.Chemscore.Hbond>
3.3467

> <Gold.PLP.Chemscore.CHOScore>
0.0000

> <Gold.PLP.Chemscore.Metal>
0.0000

> <Gold.Chemscore.Hbonds>
donor molecule, donor type, donor heavy atom, donor atom, acceptor molecule, acceptor atom, score
      L1  H    19    43       P1  7948  1.00
      L1  H    23    48       P1 10747  0.84
      P1  H  6896  6908       L1     3  0.41
      P1  H  7997  8010       L1     8  0.98

> <Gold.PLP.Chemscore.Internal.Correction>
0.0881

> <Gold.Rescore>
     Score         DG    S(hbond)    S(metal)    S(lipo)     H(rot)  DE(clash)    DE(int)     intcor
     16.31     -17.59       3.09        0.00      90.48       3.44       0.00       1.28       ----

> <Gold.Chemscore.Fitness>
16.3079

> <Gold.Chemscore.DG>
-17.5864

> <Gold.Chemscore.ZeroCoef>
-5.4800

> <Gold.Chemscore.Hbond>
3.0888

> <Gold.Chemscore.Metal>
0.0000

> <Gold.Chemscore.Lipo>
90.4771

> <Gold.Chemscore.Internal_Hbond>
0.0000

> <Gold.Chemscore.DEClash>
0.0000

> <Gold.Chemscore.DEInternal>
1.2785

> <Gold.Chemscore.Rot>
3.4359

> <Gold.Chemscore.Internal.Correction>
   9.000000E+99

> <Gold.Chemscore.Hbonds>
donor molecule, donor type, donor heavy atom, donor atom, acceptor molecule, acceptor atom, score
      L1  H    19    43       P1  7948  0.63
      L1  H    23    48       P1 10747  0.71
      P1  H  6896  6908       L1     3  0.34
      P1  H  7997  8010       L1     8  0.65

> <Gold.Chemscore.Hbond.Weighted>
-10.3166

> <Gold.Chemscore.Metal.Weighted>
-0.0000

> <Gold.Chemscore.Lipo.Weighted>
-10.5858

> <Gold.Chemscore.Internal_Hbond.Weighted>
0.0000

> <Gold.Chemscore.DEClash.Weighted>
0.0000

> <Gold.Chemscore.DEInternal.Weighted>
1.2785

> <Gold.Chemscore.Rot.Weighted>
8.7960

> <Gold.Chemscore.Internal.Correction.Weighted>
   9.000000E+99

> <Gold.Protein.RotatedTorsions>
[ 6907 6896 6895 6894 ] final  105.88 input  -60.11 | X-H torsion
[ 7974 7965 7964 7962 ] final  125.20 input  175.53 | X-H torsion
[ 8008 7997 7996 7995 ] final   38.87 input   59.86 | X-H torsion
[ 10167 10162 10161 10158 ] final   26.01 input  -65.29 | X-H torsion
[ 10718 10713 10712 10709 ] final    8.40 input   66.30 | X-H torsion
[ 10763 10752 10751 10750 ] final   84.14 input  -60.55 | X-H torsion
[ 11005 11000 10999 10996 ] final  -61.48 input  -57.11 | X-H torsion

> <Gold.Protein.ActiveResidues>
 VAL166  LYS551  ARG553  GLY616  TRP617  ASP618  TYR619  PRO620  LYS621  CYS622 
 ASP623  PHE694  ASN695  SER759  ASP760  ASP761  ALA762  ILE779  LEU786  VAL792 
 PHE793  MET794  SER795  GLU796  ALA797  LYS798  CYS799  TRP800  GLU811  SER814 

> <Gold.Protein.RotatedAtoms>
  152.5214  133.9463  159.7650 H   0  0  0  0  0  0  0  0  0  0  0  0  # atno 6907 bound_to 6896
  150.9782  133.6264  159.2734 H   0  0  0  0  0  0  0  0  0  0  0  0  # atno 6908 bound_to 6896
  151.3451  135.0878  159.9437 H   0  0  0  0  0  0  0  0  0  0  0  0  # atno 6909 bound_to 6896
  145.0758  139.3695  143.4934 H   0  0  0  0  0  0  0  0  0  0  0  0  # atno 7974 bound_to 7965
  155.2272  140.3335  155.4308 H   0  0  0  0  0  0  0  0  0  0  0  0  # atno 8008 bound_to 7997
  156.2309  140.1850  156.7290 H   0  0  0  0  0  0  0  0  0  0  0  0  # atno 8009 bound_to 7997
  154.5977  140.0628  156.9311 H   0  0  0  0  0  0  0  0  0  0  0  0  # atno 8010 bound_to 7997
  140.5059  144.0240  150.6352 H   0  0  0  0  0  0  0  0  0  0  0  0  # atno 10167 bound_to 10162
  156.9511  130.5897  149.5657 H   0  0  0  0  0  0  0  0  0  0  0  0  # atno 10718 bound_to 10713
  153.1354  135.4665  154.9414 H   0  0  0  0  0  0  0  0  0  0  0  0  # atno 10763 bound_to 10752
  154.7701  135.3156  154.8208 H   0  0  0  0  0  0  0  0  0  0  0  0  # atno 10764 bound_to 10752
  153.8742  135.6900  153.4826 H   0  0  0  0  0  0  0  0  0  0  0  0  # atno 10765 bound_to 10752
  141.1326  133.6630  156.5381 H   0  0  0  0  0  0  0  0  0  0  0  0  # atno 11005 bound_to 11000
  146.3530  140.0524  142.8635 LP  0  0  0  0  0  0  0  0  0  0  0  0  # atno 17320 bound_to 7965
  145.1238  140.9478  143.4585 LP  0  0  0  0  0  0  0  0  0  0  0  0  # atno 17321 bound_to 7965
  140.3549  143.2941  152.0447 LP  0  0  0  0  0  0  0  0  0  0  0  0  # atno 17342 bound_to 10162
  139.4883  144.6346  151.7001 LP  0  0  0  0  0  0  0  0  0  0  0  0  # atno 17343 bound_to 10162
  156.0362  130.5449  150.8660 LP  0  0  0  0  0  0  0  0  0  0  0  0  # atno 17370 bound_to 10713
  157.5721  131.0946  150.9401 LP  0  0  0  0  0  0  0  0  0  0  0  0  # atno 17371 bound_to 10713
  140.4161  134.7228  157.4864 LP  0  0  0  0  0  0  0  0  0  0  0  0  # atno 17394 bound_to 11000
  140.0392  134.6292  155.9002 LP  0  0  0  0  0  0  0  0  0  0  0  0  # atno 17395 bound_to 11000

$$$$
