AV-unprocessed.smi:2095|AV-procd|sdf|8554|dock9
  -GOLD-   2272011273D 1   1.00000     0.00000
 Structure written by MMmdl.
 42 43  0  0  0  0  0  0  0  0  2 V2000
  144.4557  133.9832  150.1096 C   0  0  0  0  0  0  0  0  0  0  0  0
  145.4720  134.5071  151.1344 C   0  0  2  0  0  0  0  0  0  0  0  0
  145.4130  133.7007  152.4401 C   0  0  0  0  0  0  0  0  0  0  0  0
  146.4176  134.2648  153.4480 C   0  0  0  0  0  0  0  0  0  0  0  0
  146.1702  135.7621  153.6798 C   0  0  0  0  0  0  0  0  0  0  0  0
  146.2501  136.5366  152.4081 N   0  3  2  0  0  0  0  0  0  0  0  0
  146.2166  138.0177  152.6510 C   0  0  2  0  0  0  0  0  0  0  0  0
  146.6217  138.8692  151.4212 C   0  0  0  0  0  0  0  0  0  0  0  0
  147.0998  138.3674  153.8770 C   0  0  0  0  0  0  0  0  0  0  0  0
  148.5244  138.2168  153.5949 N   0  0  0  0  0  0  0  0  0  0  0  0
  149.5267  138.6400  154.3820 C   0  0  0  0  0  0  0  0  0  0  0  0
  149.3551  139.2816  155.4176 O   0  0  0  0  0  0  0  0  0  0  0  0
  150.9404  138.2523  153.9481 C   0  0  0  0  0  0  0  0  0  0  0  0
  151.8586  138.3358  155.0690 N   0  0  0  0  0  0  0  0  0  0  0  0
  152.2246  139.3713  155.8272 C   0  0  0  0  0  0  0  0  0  0  0  0
  153.1251  139.0209  156.7323 N   0  0  0  0  0  0  0  0  0  0  0  0
  153.3023  137.6684  156.4924 N   0  0  0  0  0  0  0  0  0  0  0  0
  152.5540  137.2563  155.5063 N   0  0  0  0  0  0  0  0  0  0  0  0
  145.2694  136.0121  151.4113 C   0  0  0  0  0  0  0  0  0  0  0  0
  143.4342  134.0808  150.4784 H   0  0  0  0  0  0  0  0  0  0  0  0
  144.6296  132.9299  149.8870 H   0  0  0  0  0  0  0  0  0  0  0  0
  144.5240  134.5328  149.1704 H   0  0  0  0  0  0  0  0  0  0  0  0
  146.4665  134.3769  150.7042 H   0  0  0  0  0  0  0  0  0  0  0  0
  144.4069  133.7405  152.8604 H   0  0  0  0  0  0  0  0  0  0  0  0
  145.6306  132.6494  152.2478 H   0  0  0  0  0  0  0  0  0  0  0  0
  146.3393  133.7238  154.3918 H   0  0  0  0  0  0  0  0  0  0  0  0
  147.4346  134.1100  153.0849 H   0  0  0  0  0  0  0  0  0  0  0  0
  145.1879  135.9093  154.1319 H   0  0  0  0  0  0  0  0  0  0  0  0
  146.8994  136.1205  154.4042 H   0  0  0  0  0  0  0  0  0  0  0  0
  145.1850  138.2899  152.8816 H   0  0  0  0  0  0  0  0  0  0  0  0
  146.5677  139.9369  151.6320 H   0  0  0  0  0  0  0  0  0  0  0  0
  145.9549  138.7109  150.5737 H   0  0  0  0  0  0  0  0  0  0  0  0
  147.6420  138.6524  151.1027 H   0  0  0  0  0  0  0  0  0  0  0  0
  146.9586  139.4017  154.1852 H   0  0  0  0  0  0  0  0  0  0  0  0
  146.7997  137.7595  154.7321 H   0  0  0  0  0  0  0  0  0  0  0  0
  148.7680  137.7063  152.7583 H   0  0  0  0  0  0  0  0  0  0  0  0
  150.9470  137.2339  153.5573 H   0  0  0  0  0  0  0  0  0  0  0  0
  151.2869  138.9097  153.1491 H   0  0  0  0  0  0  0  0  0  0  0  0
  151.8444  140.3752  155.7082 H   0  0  0  0  0  0  0  0  0  0  0  0
  145.3846  136.5254  150.4572 H   0  0  0  0  0  0  0  0  0  0  0  0
  144.2542  136.2026  151.7634 H   0  0  0  0  0  0  0  0  0  0  0  0
  147.1587  136.3472  152.0093 H   0  0  0  0  0  0  0  0  0  0  0  0
  1  2  1  0  0  0  0
  1 20  1  0  0  0  0
  1 21  1  0  0  0  0
  1 22  1  0  0  0  0
  2 19  1  0  0  0  0
  2  3  1  0  0  0  0
  2 23  1  0  0  0  0
  3  4  1  0  0  0  0
  3 24  1  0  0  0  0
  3 25  1  0  0  0  0
  4  5  1  0  0  0  0
  4 26  1  0  0  0  0
  4 27  1  0  0  0  0
  5  6  1  0  0  0  0
  5 28  1  0  0  0  0
  5 29  1  0  0  0  0
  6  7  1  0  0  0  0
  6 19  1  0  0  0  0
  6 42  1  0  0  0  0
  7  8  1  0  0  0  0
  7  9  1  0  0  0  0
  7 30  1  0  0  0  0
  8 31  1  0  0  0  0
  8 32  1  0  0  0  0
  8 33  1  0  0  0  0
  9 10  1  0  0  0  0
  9 34  1  0  0  0  0
  9 35  1  0  0  0  0
 10 11  1  0  0  0  0
 10 36  1  0  0  0  0
 11 12  2  0  0  0  0
 11 13  1  0  0  0  0
 13 14  1  0  0  0  0
 13 37  1  0  0  0  0
 13 38  1  0  0  0  0
 14 18  1  0  0  0  0
 14 15  1  0  0  0  0
 15 16  2  0  0  0  0
 15 39  1  0  0  0  0
 16 17  1  0  0  0  0
 17 18  2  0  0  0  0
 19 40  1  0  0  0  0
 19 41  1  0  0  0  0
M  CHG  1   6   1
M  END
> <s_m_source_file>
AV-unprocessed.smi

> <i_m_source_file_index>
2095

> <i_lp_mmshare_version>
43012

> <i_f3d_flags>
0

> <s_epik_input>
W0NIM11bQ0BASF0xW0NIMl1bQ0gyXVtDSDJdTihbQ0gyXTEpW0NASF0oW0NIM10pW0NIMl1bTkhdQyg9TylbQ0gyXW4yW2NIXW5ubjI=

> <s_epik_cmdline>
J2VwaWtfcHl0aG9uJywgJy1waCcsICc3LjAnLCAnLXRuJywgJzgnLCAnLW1hJywgJzIwMCcsICctbWV0YWxfYmluZGluZycsICctaW1hZScsICc8aW5maWxlLm1hZT4nLCAnLW9tYWUnLCAnPG91dGZpbGUubWFlPic=

> <r_lp_tautomer_probability>
1

> <r_epik_Ionization_Penalty>
0.00268321

> <r_epik_Ionization_Penalty_Charging>
0.00267875

> <r_epik_Ionization_Penalty_Neutral>
4.46125e-06

> <r_epik_State_Penalty>
0.00186642

> <r_epik_Charging_Adjusted_Penalty>
0.00454517

> <i_epik_Tot_Q>
1

> <i_epik_Tot_abs_Q>
1

> <r_epik_Metal_State_Penalty>
-0

> <b_epik_Metal_Only>
0

> <s_lp_Force_Field>
OPLS_2005

> <r_lp_Energy>
25.312

> <b_lp_Chiralities_Consistent>
1

> <s_lp_Variant>
AV-unprocessed.smi:2095-1

> <Gold.Version>
5.8.1

> <Gold.Id.Protein>
6NUR|6NUR_protein|mol2

> <Gold.PLP.Fitness>
45.5276

> <Gold.PLP.PLP>
-32.7375

> <Gold.PLP.part.hbond>
-4.7999

> <Gold.PLP.part.metal>
0.0000

> <Gold.PLP.part.buried>
-3.2745

> <Gold.PLP.part.nonpolar>
-25.8461

> <Gold.PLP.part.repulsive>
0.1392

> <Gold.PLP.ligand.clash>
0.0000

> <Gold.PLP.ligand.torsion>
0.5202

> <Gold.PLP.Chemscore.Hbond>
4.5868

> <Gold.PLP.Chemscore.CHOScore>
0.0000

> <Gold.PLP.Chemscore.Metal>
0.0000

> <Gold.Chemscore.Hbonds>
donor molecule, donor type, donor heavy atom, donor atom, acceptor molecule, acceptor atom, score
      L1  H     6    42       P1  7948  2.00
      L1  H    10    36       P1  7948  1.00
      P1  H  7997  8010       L1    16  1.00
      P1  H 10752 10763       L1    18  0.66

> <Gold.PLP.Chemscore.Internal.Correction>
0.0700

> <Gold.Rescore>
     Score         DG    S(hbond)    S(metal)    S(lipo)     H(rot)  DE(clash)    DE(int)     intcor
     15.79     -17.48       3.64        0.00      56.52       2.64       0.08       1.61       ----

> <Gold.Chemscore.Fitness>
15.7939

> <Gold.Chemscore.DG>
-17.4837

> <Gold.Chemscore.ZeroCoef>
-5.4800

> <Gold.Chemscore.Hbond>
3.6404

> <Gold.Chemscore.Metal>
0.0000

> <Gold.Chemscore.Lipo>
56.5229

> <Gold.Chemscore.Internal_Hbond>
0.0000

> <Gold.Chemscore.DEClash>
0.0846

> <Gold.Chemscore.DEInternal>
1.6053

> <Gold.Chemscore.Rot>
2.6439

> <Gold.Chemscore.Internal.Correction>
   9.000000E+99

> <Gold.Chemscore.Hbonds>
donor molecule, donor type, donor heavy atom, donor atom, acceptor molecule, acceptor atom, score
      L1  H     6    42       P1  7948  1.00
      L1  H    10    36       P1  7948  0.98
      P1  H  7997  8010       L1    16  0.84
      P1  H 10752 10763       L1    18  0.58

> <Gold.Chemscore.Hbond.Weighted>
-12.1590

> <Gold.Chemscore.Metal.Weighted>
-0.0000

> <Gold.Chemscore.Lipo.Weighted>
-6.6132

> <Gold.Chemscore.Internal_Hbond.Weighted>
0.0000

> <Gold.Chemscore.DEClash.Weighted>
0.0846

> <Gold.Chemscore.DEInternal.Weighted>
1.6053

> <Gold.Chemscore.Rot.Weighted>
6.7685

> <Gold.Chemscore.Internal.Correction.Weighted>
   9.000000E+99

> <Gold.Protein.RotatedTorsions>
[ 6907 6896 6895 6894 ] final  -50.98 input  -60.11 | X-H torsion
[ 7974 7965 7964 7962 ] final    1.64 input  175.53 | X-H torsion
[ 8008 7997 7996 7995 ] final   48.66 input   59.86 | X-H torsion
[ 10167 10162 10161 10158 ] final  120.12 input  -65.29 | X-H torsion
[ 10718 10713 10712 10709 ] final    8.43 input   66.30 | X-H torsion
[ 10763 10752 10751 10750 ] final   74.73 input  -60.55 | X-H torsion
[ 11005 11000 10999 10996 ] final -105.72 input  -57.11 | X-H torsion

> <Gold.Protein.ActiveResidues>
 VAL166  LYS551  ARG553  GLY616  TRP617  ASP618  TYR619  PRO620  LYS621  CYS622 
 ASP623  PHE694  ASN695  SER759  ASP760  ASP761  ALA762  ILE779  LEU786  VAL792 
 PHE793  MET794  SER795  GLU796  ALA797  LYS798  CYS799  TRP800  GLU811  SER814 

> <Gold.Protein.RotatedAtoms>
  150.8655  134.8017  159.7115 H   0  0  0  0  0  0  0  0  0  0  0  0  # atno 6907 bound_to 6896
  152.4678  134.5031  159.9740 H   0  0  0  0  0  0  0  0  0  0  0  0  # atno 6908 bound_to 6896
  151.5127  133.3443  159.2923 H   0  0  0  0  0  0  0  0  0  0  0  0  # atno 6909 bound_to 6896
  146.2441  140.0956  142.8350 H   0  0  0  0  0  0  0  0  0  0  0  0  # atno 7974 bound_to 7965
  155.3892  140.3432  155.4250 H   0  0  0  0  0  0  0  0  0  0  0  0  # atno 8008 bound_to 7997
  156.1567  140.1588  156.8714 H   0  0  0  0  0  0  0  0  0  0  0  0  # atno 8009 bound_to 7997
  154.5101  140.0792  156.7954 H   0  0  0  0  0  0  0  0  0  0  0  0  # atno 8010 bound_to 7997
  139.6002  144.7054  151.3080 H   0  0  0  0  0  0  0  0  0  0  0  0  # atno 10167 bound_to 10162
  156.9515  130.5899  149.5657 H   0  0  0  0  0  0  0  0  0  0  0  0  # atno 10718 bound_to 10713
  153.0606  135.5015  154.8085 H   0  0  0  0  0  0  0  0  0  0  0  0  # atno 10763 bound_to 10752
  154.6877  135.2979  154.9527 H   0  0  0  0  0  0  0  0  0  0  0  0  # atno 10764 bound_to 10752
  154.0292  135.6732  153.4832 H   0  0  0  0  0  0  0  0  0  0  0  0  # atno 10765 bound_to 10752
  141.1039  133.8832  157.1769 H   0  0  0  0  0  0  0  0  0  0  0  0  # atno 11005 bound_to 11000
  145.0612  140.9089  143.4937 LP  0  0  0  0  0  0  0  0  0  0  0  0  # atno 17320 bound_to 7965
  145.1072  139.2781  143.5656 LP  0  0  0  0  0  0  0  0  0  0  0  0  # atno 17321 bound_to 7965
  140.7244  143.7046  150.7817 LP  0  0  0  0  0  0  0  0  0  0  0  0  # atno 17342 bound_to 10162
  140.0621  143.5144  152.2622 LP  0  0  0  0  0  0  0  0  0  0  0  0  # atno 17343 bound_to 10162
  156.0361  130.5448  150.8656 LP  0  0  0  0  0  0  0  0  0  0  0  0  # atno 17370 bound_to 10713
  157.5719  131.0946  150.9405 LP  0  0  0  0  0  0  0  0  0  0  0  0  # atno 17371 bound_to 10713
  139.9902  135.0067  156.9956 LP  0  0  0  0  0  0  0  0  0  0  0  0  # atno 17394 bound_to 11000
  140.4951  134.1154  155.7240 LP  0  0  0  0  0  0  0  0  0  0  0  0  # atno 17395 bound_to 11000

$$$$
