AV-unprocessed.smi:3198|AV-procd|sdf|12227|dock5
  -GOLD-   2272018 63D 1   1.00000     0.00000
 Structure written by MMmdl.
 38 39  0  0  0  0  0  0  0  0  2 V2000
  147.1159  133.5682  151.7018 C   0  0  0  0  0  0  0  0  0  0  0  0
  145.8605  134.4062  151.8187 C   0  0  0  0  0  0  0  0  0  0  0  0
  144.5713  133.8350  151.8411 C   0  0  0  0  0  0  0  0  0  0  0  0
  143.4492  134.6807  151.9508 C   0  0  0  0  0  0  0  0  0  0  0  0
  143.6386  136.0758  152.0331 C   0  0  0  0  0  0  0  0  0  0  0  0
  144.9532  136.6006  152.0052 C   0  0  0  0  0  0  0  0  0  0  0  0
  145.2588  137.9655  152.0761 N   0  0  0  0  0  0  0  0  0  0  0  0
  146.6448  138.4056  152.0396 C   0  0  0  0  0  0  0  0  0  0  0  0
  146.9412  139.4147  153.1535 C   0  0  0  0  0  0  0  0  0  0  0  0
  148.2312  139.1511  153.6792 O   0  0  0  0  0  0  0  0  0  0  0  0
  148.8222  140.2893  154.2834 C   0  0  0  0  0  0  0  0  0  0  0  0
  149.9652  139.8288  155.1967 C   0  0  2  0  0  0  0  0  0  0  0  0
  150.5462  140.9412  156.0683 C   0  0  0  0  0  0  0  0  0  0  0  0
  151.9715  140.4808  156.3360 C   0  0  0  0  0  0  0  0  0  0  0  0
  152.2014  139.3629  155.3151 C   0  0  0  0  0  0  0  0  0  0  0  0
  151.0925  139.4368  154.4303 O   0  0  0  0  0  0  0  0  0  0  0  0
  145.9979  135.7486  151.9013 N   0  3  0  0  0  0  0  0  0  0  0  0
  146.8787  132.5039  151.6889 H   0  0  0  0  0  0  0  0  0  0  0  0
  147.7803  133.7577  152.5452 H   0  0  0  0  0  0  0  0  0  0  0  0
  147.6488  133.8098  150.7819 H   0  0  0  0  0  0  0  0  0  0  0  0
  144.4410  132.7645  151.7754 H   0  0  0  0  0  0  0  0  0  0  0  0
  142.4532  134.2639  151.9712 H   0  0  0  0  0  0  0  0  0  0  0  0
  142.7767  136.7208  152.1183 H   0  0  0  0  0  0  0  0  0  0  0  0
  144.5585  138.6159  152.4026 H   0  0  0  0  0  0  0  0  0  0  0  0
  147.3127  137.5476  152.1251 H   0  0  0  0  0  0  0  0  0  0  0  0
  146.8355  138.8711  151.0722 H   0  0  0  0  0  0  0  0  0  0  0  0
  146.9164  140.4251  152.7427 H   0  0  0  0  0  0  0  0  0  0  0  0
  146.1823  139.3611  153.9361 H   0  0  0  0  0  0  0  0  0  0  0  0
  149.1911  140.9852  153.5281 H   0  0  0  0  0  0  0  0  0  0  0  0
  148.0682  140.8121  154.8741 H   0  0  0  0  0  0  0  0  0  0  0  0
  149.6433  138.9967  155.8262 H   0  0  0  0  0  0  0  0  0  0  0  0
  150.5661  141.8815  155.5153 H   0  0  0  0  0  0  0  0  0  0  0  0
  149.9732  141.1017  156.9820 H   0  0  0  0  0  0  0  0  0  0  0  0
  152.6761  141.3020  156.1994 H   0  0  0  0  0  0  0  0  0  0  0  0
  152.0883  140.1035  157.3527 H   0  0  0  0  0  0  0  0  0  0  0  0
  153.1427  139.4738  154.7764 H   0  0  0  0  0  0  0  0  0  0  0  0
  152.2031  138.3888  155.8067 H   0  0  0  0  0  0  0  0  0  0  0  0
  146.9407  136.1375  151.8818 H   0  0  0  0  0  0  0  0  0  0  0  0
  1  2  1  0  0  0  0
  1 18  1  0  0  0  0
  1 19  1  0  0  0  0
  1 20  1  0  0  0  0
  2 17  1  0  0  0  0
  2  3  2  0  0  0  0
  3  4  1  0  0  0  0
  3 21  1  0  0  0  0
  4  5  2  0  0  0  0
  4 22  1  0  0  0  0
  5  6  1  0  0  0  0
  5 23  1  0  0  0  0
  6  7  1  0  0  0  0
  6 17  2  0  0  0  0
  7  8  1  0  0  0  0
  7 24  1  0  0  0  0
  8  9  1  0  0  0  0
  8 25  1  0  0  0  0
  8 26  1  0  0  0  0
  9 10  1  0  0  0  0
  9 27  1  0  0  0  0
  9 28  1  0  0  0  0
 10 11  1  0  0  0  0
 11 12  1  0  0  0  0
 11 29  1  0  0  0  0
 11 30  1  0  0  0  0
 12 16  1  0  0  0  0
 12 13  1  0  0  0  0
 12 31  1  0  0  0  0
 13 14  1  0  0  0  0
 13 32  1  0  0  0  0
 13 33  1  0  0  0  0
 14 15  1  0  0  0  0
 14 34  1  0  0  0  0
 14 35  1  0  0  0  0
 15 16  1  0  0  0  0
 15 36  1  0  0  0  0
 15 37  1  0  0  0  0
 17 38  1  0  0  0  0
M  CHG  1  17   1
M  END
> <s_m_source_file>
AV-unprocessed.smi

> <i_m_source_file_index>
3198

> <i_lp_mmshare_version>
43012

> <i_f3d_flags>
0

> <s_epik_input>
W0NIM11jMVtjSF1bY0hdW2NIXWMobjEpW05IXVtDSDJdW0NIMl1PW0NIMl1bQ0BASF0yW0NIMl1bQ0gyXVtDSDJdTzI=

> <s_epik_cmdline>
J2VwaWtfcHl0aG9uJywgJy1waCcsICc3LjAnLCAnLXRuJywgJzgnLCAnLW1hJywgJzIwMCcsICctbWV0YWxfYmluZGluZycsICctaW1hZScsICc8aW5maWxlLm1hZT4nLCAnLW9tYWUnLCAnPG91dGZpbGUubWFlPic=

> <r_lp_tautomer_probability>
0.999994

> <r_epik_Ionization_Penalty>
0.0710016

> <r_epik_Ionization_Penalty_Charging>
0.0710012

> <r_epik_Ionization_Penalty_Neutral>
3.47026e-07

> <r_epik_State_Penalty>
0.0622974

> <r_epik_Charging_Adjusted_Penalty>
0.133299

> <i_epik_Tot_Q>
1

> <i_epik_Tot_abs_Q>
1

> <r_epik_Metal_State_Penalty>
2.79497

> <b_epik_Metal_Only>
0

> <s_lp_Force_Field>
OPLS_2005

> <r_lp_Energy>
24.6681

> <b_lp_Chiralities_Consistent>
1

> <s_lp_Variant>
AV-unprocessed.smi:3198-1

> <Gold.Version>
5.8.1

> <Gold.Id.Protein>
6NUR|6NUR_protein|mol2

> <Gold.PLP.Fitness>
45.6222

> <Gold.PLP.PLP>
-32.4129

> <Gold.PLP.part.hbond>
-4.0000

> <Gold.PLP.part.metal>
0.0000

> <Gold.PLP.part.buried>
-3.4060

> <Gold.PLP.part.nonpolar>
-26.5684

> <Gold.PLP.part.repulsive>
0.9737

> <Gold.PLP.ligand.clash>
0.4332

> <Gold.PLP.ligand.torsion>
0.6201

> <Gold.PLP.Chemscore.Hbond>
4.9500

> <Gold.PLP.Chemscore.CHOScore>
0.0000

> <Gold.PLP.Chemscore.Metal>
0.0000

> <Gold.Chemscore.Hbonds>
donor molecule, donor type, donor heavy atom, donor atom, acceptor molecule, acceptor atom, score
      L1  H     7    24       P1 10175  1.98
      L1  H    17    38       P1  7948  2.00
      P1  H  7989  7998       L1    16  0.90

> <Gold.PLP.Chemscore.Internal.Correction>
0.0327

> <Gold.Rescore>
     Score         DG    S(hbond)    S(metal)    S(lipo)     H(rot)  DE(clash)    DE(int)     intcor
     17.32     -18.71       2.87        0.00      68.30       1.71       0.59       0.79       ----

> <Gold.Chemscore.Fitness>
17.3156

> <Gold.Chemscore.DG>
-18.7053

> <Gold.Chemscore.ZeroCoef>
-5.4800

> <Gold.Chemscore.Hbond>
2.8748

> <Gold.Chemscore.Metal>
0.0000

> <Gold.Chemscore.Lipo>
68.3049

> <Gold.Chemscore.Internal_Hbond>
0.0000

> <Gold.Chemscore.DEClash>
0.5949

> <Gold.Chemscore.DEInternal>
0.7948

> <Gold.Chemscore.Rot>
1.7063

> <Gold.Chemscore.Internal.Correction>
   9.000000E+99

> <Gold.Chemscore.Hbonds>
donor molecule, donor type, donor heavy atom, donor atom, acceptor molecule, acceptor atom, score
      L1  H     7    24       P1 10175  0.90
      L1  H    17    38       P1  7948  0.97
      P1  H  7989  7998       L1    16  0.12

> <Gold.Chemscore.Hbond.Weighted>
-9.6017

> <Gold.Chemscore.Metal.Weighted>
-0.0000

> <Gold.Chemscore.Lipo.Weighted>
-7.9917

> <Gold.Chemscore.Internal_Hbond.Weighted>
0.0000

> <Gold.Chemscore.DEClash.Weighted>
0.5949

> <Gold.Chemscore.DEInternal.Weighted>
0.7948

> <Gold.Chemscore.Rot.Weighted>
4.3681

> <Gold.Chemscore.Internal.Correction.Weighted>
   9.000000E+99

> <Gold.Protein.RotatedTorsions>
[ 6907 6896 6895 6894 ] final  158.72 input  -60.11 | X-H torsion
[ 7974 7965 7964 7962 ] final   -2.16 input  175.53 | X-H torsion
[ 8008 7997 7996 7995 ] final   68.76 input   59.86 | X-H torsion
[ 10167 10162 10161 10158 ] final  -28.89 input  -65.29 | X-H torsion
[ 10718 10713 10712 10709 ] final  -68.50 input   66.30 | X-H torsion
[ 10763 10752 10751 10750 ] final  120.27 input  -60.55 | X-H torsion
[ 11005 11000 10999 10996 ] final  151.94 input  -57.11 | X-H torsion

> <Gold.Protein.ActiveResidues>
 VAL166  LYS551  ARG553  GLY616  TRP617  ASP618  TYR619  PRO620  LYS621  CYS622 
 ASP623  PHE694  ASN695  SER759  ASP760  ASP761  ALA762  ILE779  LEU786  VAL792 
 PHE793  MET794  SER795  GLU796  ALA797  LYS798  CYS799  TRP800  GLU811  SER814 

> <Gold.Protein.RotatedAtoms>
  151.9962  133.3809  159.4163 H   0  0  0  0  0  0  0  0  0  0  0  0  # atno 6907 bound_to 6896
  150.6915  134.3883  159.5074 H   0  0  0  0  0  0  0  0  0  0  0  0  # atno 6908 bound_to 6896
  152.1624  134.8901  160.0591 H   0  0  0  0  0  0  0  0  0  0  0  0  # atno 6909 bound_to 6896
  146.2408  140.1530  142.8333 H   0  0  0  0  0  0  0  0  0  0  0  0  # atno 7974 bound_to 7965
  155.7133  140.3494  155.4983 H   0  0  0  0  0  0  0  0  0  0  0  0  # atno 8008 bound_to 7997
  155.9336  140.1088  157.1134 H   0  0  0  0  0  0  0  0  0  0  0  0  # atno 8009 bound_to 7997
  154.4089  140.1226  156.4821 H   0  0  0  0  0  0  0  0  0  0  0  0  # atno 8010 bound_to 7997
  140.7266  143.3973  151.1325 H   0  0  0  0  0  0  0  0  0  0  0  0  # atno 10167 bound_to 10162
  156.0502  130.4296  150.2010 H   0  0  0  0  0  0  0  0  0  0  0  0  # atno 10718 bound_to 10713
  153.5959  135.3457  155.2928 H   0  0  0  0  0  0  0  0  0  0  0  0  # atno 10763 bound_to 10752
  154.8644  135.4216  154.2465 H   0  0  0  0  0  0  0  0  0  0  0  0  # atno 10764 bound_to 10752
  153.3283  135.7042  153.7041 H   0  0  0  0  0  0  0  0  0  0  0  0  # atno 10765 bound_to 10752
  140.1263  134.8831  157.2142 H   0  0  0  0  0  0  0  0  0  0  0  0  # atno 11005 bound_to 11000
  145.0152  140.8748  143.5200 LP  0  0  0  0  0  0  0  0  0  0  0  0  # atno 17320 bound_to 7965
  145.1569  139.2481  143.5411 LP  0  0  0  0  0  0  0  0  0  0  0  0  # atno 17321 bound_to 7965
  139.7588  143.8667  152.3095 LP  0  0  0  0  0  0  0  0  0  0  0  0  # atno 17342 bound_to 10162
  139.8546  144.7147  150.9173 LP  0  0  0  0  0  0  0  0  0  0  0  0  # atno 17343 bound_to 10162
  157.0095  130.9946  151.3370 LP  0  0  0  0  0  0  0  0  0  0  0  0  # atno 17370 bound_to 10713
  157.5420  130.8126  149.8040 LP  0  0  0  0  0  0  0  0  0  0  0  0  # atno 17371 bound_to 10713
  140.2899  134.3252  155.7318 LP  0  0  0  0  0  0  0  0  0  0  0  0  # atno 17394 bound_to 11000
  141.2162  133.7528  156.9488 LP  0  0  0  0  0  0  0  0  0  0  0  0  # atno 17395 bound_to 11000

$$$$
