AV-unprocessed.smi:3137|AV-procd|sdf|11952|dock9
  -GOLD-   2272017353D 1   1.00000     0.00000
 Structure written by MMmdl.
 40 40  0  0  0  0  0  0  0  0  2 V2000
  144.8206  144.3574  161.5230 C   0  0  0  0  0  0  0  0  0  0  0  0
  146.3233  144.5803  161.3063 C   0  0  0  0  0  0  0  0  0  0  0  0
  146.7396  144.1810  159.9668 N   0  0  0  0  0  0  0  0  0  0  0  0
  146.2843  143.1059  159.3053 C   0  0  0  0  0  0  0  0  0  0  0  0
  145.4580  142.3238  159.7755 O   0  0  0  0  0  0  0  0  0  0  0  0
  146.8537  142.8817  157.9007 C   0  0  0  0  0  0  0  0  0  0  0  0
  148.3557  142.5491  157.9117 C   0  0  0  0  0  0  0  0  0  0  0  0
  149.1636  143.7646  158.1462 N   0  3  0  0  0  0  0  0  0  0  0  0
  150.3663  143.5766  158.9888 C   0  0  2  0  0  0  0  0  0  0  0  0
  151.0726  144.9311  159.1717 C   0  0  0  0  0  0  0  0  0  0  0  0
  151.3012  142.4965  158.3944 C   0  0  0  0  0  0  0  0  0  0  0  0
  152.1508  141.8648  159.3878 N   0  0  0  0  0  0  0  0  0  0  0  0
  152.3586  142.2338  160.7000 C   0  0  0  0  0  0  0  0  0  0  0  0
  153.2506  141.3506  161.2388 C   0  0  0  0  0  0  0  0  0  0  0  0
  153.8037  141.3095  162.6342 C   0  0  0  0  0  0  0  0  0  0  0  0
  153.5380  140.4694  160.1579 C   0  0  0  0  0  0  0  0  0  0  0  0
  152.8833  140.7823  159.0514 N   0  0  0  0  0  0  0  0  0  0  0  0
  144.5331  144.6265  162.5395 H   0  0  0  0  0  0  0  0  0  0  0  0
  144.5498  143.3128  161.3670 H   0  0  0  0  0  0  0  0  0  0  0  0
  144.2251  144.9640  160.8403 H   0  0  0  0  0  0  0  0  0  0  0  0
  146.5831  145.6244  161.4885 H   0  0  0  0  0  0  0  0  0  0  0  0
  146.8888  143.9901  162.0275 H   0  0  0  0  0  0  0  0  0  0  0  0
  147.4191  144.7707  159.5081 H   0  0  0  0  0  0  0  0  0  0  0  0
  146.3044  142.0700  157.4208 H   0  0  0  0  0  0  0  0  0  0  0  0
  146.6725  143.7784  157.3072 H   0  0  0  0  0  0  0  0  0  0  0  0
  148.5747  141.8211  158.6943 H   0  0  0  0  0  0  0  0  0  0  0  0
  148.6379  142.0975  156.9605 H   0  0  0  0  0  0  0  0  0  0  0  0
  149.4453  144.1543  157.2580 H   0  0  0  0  0  0  0  0  0  0  0  0
  150.0327  143.2514  159.9755 H   0  0  0  0  0  0  0  0  0  0  0  0
  151.9054  144.8597  159.8716 H   0  0  0  0  0  0  0  0  0  0  0  0
  150.3866  145.6806  159.5675 H   0  0  0  0  0  0  0  0  0  0  0  0
  151.4645  145.3052  158.2253 H   0  0  0  0  0  0  0  0  0  0  0  0
  150.7282  141.7095  157.9042 H   0  0  0  0  0  0  0  0  0  0  0  0
  151.9418  142.9369  157.6291 H   0  0  0  0  0  0  0  0  0  0  0  0
  151.8591  143.0850  161.1390 H   0  0  0  0  0  0  0  0  0  0  0  0
  154.7854  140.8366  162.6665 H   0  0  0  0  0  0  0  0  0  0  0  0
  153.1540  140.7492  163.3067 H   0  0  0  0  0  0  0  0  0  0  0  0
  153.9162  142.3093  163.0540 H   0  0  0  0  0  0  0  0  0  0  0  0
  154.2020  139.6174  160.1445 H   0  0  0  0  0  0  0  0  0  0  0  0
  148.5674  144.4330  158.6131 H   0  0  0  0  0  0  0  0  0  0  0  0
  1  2  1  0  0  0  0
  1 18  1  0  0  0  0
  1 19  1  0  0  0  0
  1 20  1  0  0  0  0
  2  3  1  0  0  0  0
  2 21  1  0  0  0  0
  2 22  1  0  0  0  0
  3  4  1  0  0  0  0
  3 23  1  0  0  0  0
  4  5  2  0  0  0  0
  4  6  1  0  0  0  0
  6  7  1  0  0  0  0
  6 24  1  0  0  0  0
  6 25  1  0  0  0  0
  7  8  1  0  0  0  0
  7 26  1  0  0  0  0
  7 27  1  0  0  0  0
  8  9  1  0  0  0  0
  8 28  1  0  0  0  0
  8 40  1  0  0  0  0
  9 10  1  0  0  0  0
  9 11  1  0  0  0  0
  9 29  1  0  0  0  0
 10 30  1  0  0  0  0
 10 31  1  0  0  0  0
 10 32  1  0  0  0  0
 11 12  1  0  0  0  0
 11 33  1  0  0  0  0
 11 34  1  0  0  0  0
 12 17  1  0  0  0  0
 12 13  1  0  0  0  0
 13 14  2  0  0  0  0
 13 35  1  0  0  0  0
 14 15  1  0  0  0  0
 14 16  1  0  0  0  0
 15 36  1  0  0  0  0
 15 37  1  0  0  0  0
 15 38  1  0  0  0  0
 16 17  2  0  0  0  0
 16 39  1  0  0  0  0
M  CHG  1   8   1
M  END
> <s_m_source_file>
AV-unprocessed.smi

> <i_m_source_file_index>
3137

> <i_lp_mmshare_version>
43012

> <i_f3d_flags>
0

> <s_epik_input>
W0NIM11bQ0gyXVtOSF1DKD1PKVtDSDJdW0NIMl1bTkhdW0NASF0oW0NIM10pW0NIMl1uMVtjSF1jKFtDSDNdKVtjSF1uMQ==

> <s_epik_cmdline>
J2VwaWtfcHl0aG9uJywgJy1waCcsICc3LjAnLCAnLXRuJywgJzgnLCAnLW1hJywgJzIwMCcsICctbWV0YWxfYmluZGluZycsICctaW1hZScsICc8aW5maWxlLm1hZT4nLCAnLW9tYWUnLCAnPG91dGZpbGUubWFlPic=

> <r_lp_tautomer_probability>
1

> <r_epik_Ionization_Penalty>
0.00598586

> <r_epik_Ionization_Penalty_Charging>
0.00597743

> <r_epik_Ionization_Penalty_Neutral>
8.43172e-06

> <r_epik_State_Penalty>
0.00439883

> <r_epik_Charging_Adjusted_Penalty>
0.0103763

> <i_epik_Tot_Q>
1

> <i_epik_Tot_abs_Q>
1

> <r_epik_Metal_State_Penalty>
-0

> <b_epik_Metal_Only>
0

> <s_lp_Force_Field>
OPLS_2005

> <r_lp_Energy>
5.54244

> <b_lp_Chiralities_Consistent>
1

> <s_lp_Variant>
AV-unprocessed.smi:3137-1

> <Gold.Version>
5.8.1

> <Gold.Id.Protein>
6NUR|6NUR_protein|mol2

> <Gold.PLP.Fitness>
42.6068

> <Gold.PLP.PLP>
-34.9153

> <Gold.PLP.part.hbond>
-3.7001

> <Gold.PLP.part.metal>
0.0000

> <Gold.PLP.part.buried>
-1.0585

> <Gold.PLP.part.nonpolar>
-29.8139

> <Gold.PLP.part.repulsive>
0.1792

> <Gold.PLP.ligand.clash>
0.0000

> <Gold.PLP.ligand.torsion>
0.8521

> <Gold.PLP.Chemscore.Hbond>
3.0776

> <Gold.PLP.Chemscore.CHOScore>
0.0000

> <Gold.PLP.Chemscore.Metal>
0.0000

> <Gold.Chemscore.Hbonds>
donor molecule, donor type, donor heavy atom, donor atom, acceptor molecule, acceptor atom, score
      L1  H     8    28       P1  8028  1.79
      L1  H     8    40       P1  8029  0.34
      P1  H  6934  6946       L1     5  0.38

> <Gold.PLP.Chemscore.Internal.Correction>
0.1630

> <Gold.Rescore>
     Score         DG    S(hbond)    S(metal)    S(lipo)     H(rot)  DE(clash)    DE(int)     intcor
     16.69     -17.60       2.51        0.00      82.20       2.30       0.03       0.89       ----

> <Gold.Chemscore.Fitness>
16.6906

> <Gold.Chemscore.DG>
-17.6044

> <Gold.Chemscore.ZeroCoef>
-5.4800

> <Gold.Chemscore.Hbond>
2.5106

> <Gold.Chemscore.Metal>
0.0000

> <Gold.Chemscore.Lipo>
82.2026

> <Gold.Chemscore.Internal_Hbond>
0.0000

> <Gold.Chemscore.DEClash>
0.0265

> <Gold.Chemscore.DEInternal>
0.8873

> <Gold.Chemscore.Rot>
2.2963

> <Gold.Chemscore.Internal.Correction>
   9.000000E+99

> <Gold.Chemscore.Hbonds>
donor molecule, donor type, donor heavy atom, donor atom, acceptor molecule, acceptor atom, score
      L1  H     8    28       P1  8028  0.23
      L1  H     8    40       P1  8029  0.14
      P1  H  6934  6946       L1     5  0.07

> <Gold.Chemscore.Hbond.Weighted>
-8.3853

> <Gold.Chemscore.Metal.Weighted>
-0.0000

> <Gold.Chemscore.Lipo.Weighted>
-9.6177

> <Gold.Chemscore.Internal_Hbond.Weighted>
0.0000

> <Gold.Chemscore.DEClash.Weighted>
0.0265

> <Gold.Chemscore.DEInternal.Weighted>
0.8873

> <Gold.Chemscore.Rot.Weighted>
5.8786

> <Gold.Chemscore.Internal.Correction.Weighted>
   9.000000E+99

> <Gold.Protein.RotatedTorsions>
[ 6907 6896 6895 6894 ] final  150.01 input  -60.11 | X-H torsion
[ 7974 7965 7964 7962 ] final  -49.15 input  175.53 | X-H torsion
[ 8008 7997 7996 7995 ] final  123.86 input   59.86 | X-H torsion
[ 10167 10162 10161 10158 ] final  -95.91 input  -65.29 | X-H torsion
[ 10718 10713 10712 10709 ] final   83.56 input   66.30 | X-H torsion
[ 10763 10752 10751 10750 ] final   27.39 input  -60.55 | X-H torsion
[ 11005 11000 10999 10996 ] final  164.51 input  -57.11 | X-H torsion

> <Gold.Protein.ActiveResidues>
 VAL166  LYS551  ARG553  GLY616  TRP617  ASP618  TYR619  PRO620  LYS621  CYS622 
 ASP623  PHE694  ASN695  SER759  ASP760  ASP761  ALA762  ILE779  LEU786  VAL792 
 PHE793  MET794  SER795  GLU796  ALA797  LYS798  CYS799  TRP800  GLU811  SER814 

> <Gold.Protein.RotatedAtoms>
  152.1202  133.4349  159.4671 H   0  0  0  0  0  0  0  0  0  0  0  0  # atno 6907 bound_to 6896
  150.6871  134.2544  159.4533 H   0  0  0  0  0  0  0  0  0  0  0  0  # atno 6908 bound_to 6896
  152.0420  134.9705  160.0624 H   0  0  0  0  0  0  0  0  0  0  0  0  # atno 6909 bound_to 6896
  145.9436  140.7639  142.9540 H   0  0  0  0  0  0  0  0  0  0  0  0  # atno 7974 bound_to 7965
  156.2781  140.2753  156.1696 H   0  0  0  0  0  0  0  0  0  0  0  0  # atno 8008 bound_to 7997
  155.0669  140.0387  157.2613 H   0  0  0  0  0  0  0  0  0  0  0  0  # atno 8009 bound_to 7997
  154.7072  140.2661  155.6669 H   0  0  0  0  0  0  0  0  0  0  0  0  # atno 8010 bound_to 7997
  140.2993  143.3172  152.0265 H   0  0  0  0  0  0  0  0  0  0  0  0  # atno 10167 bound_to 10162
  157.6881  131.0096  150.2542 H   0  0  0  0  0  0  0  0  0  0  0  0  # atno 10718 bound_to 10713
  153.0559  135.6538  154.0579 H   0  0  0  0  0  0  0  0  0  0  0  0  # atno 10763 bound_to 10752
  154.0257  135.2916  155.3376 H   0  0  0  0  0  0  0  0  0  0  0  0  # atno 10764 bound_to 10752
  154.6873  135.5296  153.8412 H   0  0  0  0  0  0  0  0  0  0  0  0  # atno 10765 bound_to 10752
  140.2467  134.8009  157.3462 H   0  0  0  0  0  0  0  0  0  0  0  0  # atno 11005 bound_to 11000
  144.6783  140.2320  143.7354 LP  0  0  0  0  0  0  0  0  0  0  0  0  # atno 17320 bound_to 7965
  145.8266  139.2067  143.1907 LP  0  0  0  0  0  0  0  0  0  0  0  0  # atno 17321 bound_to 7965
  139.4919  144.6467  151.6762 LP  0  0  0  0  0  0  0  0  0  0  0  0  # atno 17342 bound_to 10162
  140.5665  144.0181  150.6195 LP  0  0  0  0  0  0  0  0  0  0  0  0  # atno 17343 bound_to 10162
  156.3133  130.3775  149.7641 LP  0  0  0  0  0  0  0  0  0  0  0  0  # atno 17370 bound_to 10713
  156.5234  130.8225  151.3212 LP  0  0  0  0  0  0  0  0  0  0  0  0  # atno 17371 bound_to 10713
  140.1599  134.4742  155.7902 LP  0  0  0  0  0  0  0  0  0  0  0  0  # atno 17394 bound_to 11000
  141.2205  133.6897  156.7526 LP  0  0  0  0  0  0  0  0  0  0  0  0  # atno 17395 bound_to 11000

$$$$
