AV-unprocessed.smi:3286|AV-procd|sdf|12588|dock3
  -GOLD-   2272018513D 1   1.00000     0.00000
 Structure written by MMmdl.
 43 44  0  0  0  0  0  0  0  0  2 V2000
  145.2479  132.0663  150.3098 C   0  0  0  0  0  0  0  0  0  0  0  0
  145.4530  133.3991  150.9989 C   0  0  0  0  0  0  0  0  0  0  0  0
  146.2023  133.4888  152.1909 C   0  0  0  0  0  0  0  0  0  0  0  0
  146.3621  134.7528  152.7897 C   0  0  0  0  0  0  0  0  0  0  0  0
  145.7679  135.8759  152.1774 C   0  0  0  0  0  0  0  0  0  0  0  0
  145.8846  137.2585  152.7944 C   0  0  0  0  0  0  0  0  0  0  0  0
  146.5472  138.2689  151.8463 C   0  0  0  0  0  0  0  0  0  0  0  0
  147.8697  138.6906  152.3530 N   0  3  0  0  0  0  0  0  0  0  0  0
  147.8524  139.3448  153.6803 C   0  0  2  0  0  0  0  0  0  0  0  0
  146.8316  140.4945  153.6395 C   0  0  0  0  0  0  0  0  0  0  0  0
  149.2825  139.8090  154.0642 C   0  0  0  0  0  0  0  0  0  0  0  0
  150.2437  138.6181  154.2712 C   0  0  0  0  0  0  0  0  0  0  0  0
  151.6348  139.0903  154.7223 C   0  0  0  0  0  0  0  0  0  0  0  0
  151.5225  139.8535  155.9164 O   0  0  0  0  0  0  0  0  0  0  0  0
  150.7507  141.0348  155.7411 C   0  0  0  0  0  0  0  0  0  0  0  0
  149.3111  140.6688  155.3446 C   0  0  0  0  0  0  0  0  0  0  0  0
  145.0472  135.6789  150.9799 C   0  0  0  0  0  0  0  0  0  0  0  0
  144.8850  134.4701  150.4020 N   0  0  0  0  0  0  0  0  0  0  0  0
  145.4819  131.2376  150.9788 H   0  0  0  0  0  0  0  0  0  0  0  0
  145.8935  131.9920  149.4345 H   0  0  0  0  0  0  0  0  0  0  0  0
  144.2127  131.9553  149.9849 H   0  0  0  0  0  0  0  0  0  0  0  0
  146.6447  132.6102  152.6374 H   0  0  0  0  0  0  0  0  0  0  0  0
  146.9253  134.8534  153.7061 H   0  0  0  0  0  0  0  0  0  0  0  0
  144.8960  137.6143  153.0886 H   0  0  0  0  0  0  0  0  0  0  0  0
  146.4668  137.1806  153.7134 H   0  0  0  0  0  0  0  0  0  0  0  0
  146.6695  137.8298  150.8555 H   0  0  0  0  0  0  0  0  0  0  0  0
  145.9035  139.1423  151.7325 H   0  0  0  0  0  0  0  0  0  0  0  0
  148.4543  137.8694  152.4195 H   0  0  0  0  0  0  0  0  0  0  0  0
  147.5091  138.6292  154.4297 H   0  0  0  0  0  0  0  0  0  0  0  0
  146.6736  140.9319  154.6248 H   0  0  0  0  0  0  0  0  0  0  0  0
  145.8596  140.1402  153.2944 H   0  0  0  0  0  0  0  0  0  0  0  0
  147.1529  141.2897  152.9657 H   0  0  0  0  0  0  0  0  0  0  0  0
  149.6740  140.4175  153.2469 H   0  0  0  0  0  0  0  0  0  0  0  0
  149.8348  137.9379  155.0196 H   0  0  0  0  0  0  0  0  0  0  0  0
  150.3507  138.0410  153.3530 H   0  0  0  0  0  0  0  0  0  0  0  0
  152.2771  138.2307  154.9147 H   0  0  0  0  0  0  0  0  0  0  0  0
  152.1183  139.6804  153.9422 H   0  0  0  0  0  0  0  0  0  0  0  0
  150.7493  141.5954  156.6761 H   0  0  0  0  0  0  0  0  0  0  0  0
  151.2113  141.6759  154.9877 H   0  0  0  0  0  0  0  0  0  0  0  0
  148.7458  141.5900  155.2067 H   0  0  0  0  0  0  0  0  0  0  0  0
  148.8362  140.1288  156.1648 H   0  0  0  0  0  0  0  0  0  0  0  0
  144.5749  136.5122  150.4805 H   0  0  0  0  0  0  0  0  0  0  0  0
  148.2841  139.3234  151.6838 H   0  0  0  0  0  0  0  0  0  0  0  0
  1  2  1  0  0  0  0
  1 19  1  0  0  0  0
  1 20  1  0  0  0  0
  1 21  1  0  0  0  0
  2 18  1  0  0  0  0
  2  3  2  0  0  0  0
  3  4  1  0  0  0  0
  3 22  1  0  0  0  0
  4  5  2  0  0  0  0
  4 23  1  0  0  0  0
  5  6  1  0  0  0  0
  5 17  1  0  0  0  0
  6  7  1  0  0  0  0
  6 24  1  0  0  0  0
  6 25  1  0  0  0  0
  7  8  1  0  0  0  0
  7 26  1  0  0  0  0
  7 27  1  0  0  0  0
  8  9  1  0  0  0  0
  8 28  1  0  0  0  0
  8 43  1  0  0  0  0
  9 10  1  0  0  0  0
  9 11  1  0  0  0  0
  9 29  1  0  0  0  0
 10 30  1  0  0  0  0
 10 31  1  0  0  0  0
 10 32  1  0  0  0  0
 11 16  1  0  0  0  0
 11 12  1  0  0  0  0
 11 33  1  0  0  0  0
 12 13  1  0  0  0  0
 12 34  1  0  0  0  0
 12 35  1  0  0  0  0
 13 14  1  0  0  0  0
 13 36  1  0  0  0  0
 13 37  1  0  0  0  0
 14 15  1  0  0  0  0
 15 16  1  0  0  0  0
 15 38  1  0  0  0  0
 15 39  1  0  0  0  0
 16 40  1  0  0  0  0
 16 41  1  0  0  0  0
 17 18  2  0  0  0  0
 17 42  1  0  0  0  0
M  CHG  1   8   1
M  END
> <s_m_source_file>
AV-unprocessed.smi

> <i_m_source_file_index>
3286

> <i_lp_mmshare_version>
43012

> <i_f3d_flags>
0

> <s_epik_input>
W0NIM11jMVtjSF1bY0hdYyhbY0hdbjEpW0NIMl1bQ0gyXVtOSF1bQ0BIXShbQ0gzXSlbQ0hdMltDSDJdW0NIMl1PW0NIMl1bQ0gyXTI=

> <s_epik_cmdline>
J2VwaWtfcHl0aG9uJywgJy1waCcsICc3LjAnLCAnLXRuJywgJzgnLCAnLW1hJywgJzIwMCcsICctbWV0YWxfYmluZGluZycsICctaW1hZScsICc8aW5maWxlLm1hZT4nLCAnLW9tYWUnLCAnPG91dGZpbGUubWFlPic=

> <r_lp_tautomer_probability>
1

> <r_epik_Ionization_Penalty>
0.00336271

> <r_epik_Ionization_Penalty_Charging>
0.000752246

> <r_epik_Ionization_Penalty_Neutral>
0.00261046

> <r_epik_State_Penalty>
-0

> <r_epik_Charging_Adjusted_Penalty>
0.000752246

> <i_epik_Tot_Q>
1

> <i_epik_Tot_abs_Q>
1

> <r_epik_Metal_State_Penalty>
-0

> <b_epik_Metal_Only>
0

> <s_lp_Force_Field>
OPLS_2005

> <r_lp_Energy>
17.7254

> <b_lp_Chiralities_Consistent>
1

> <s_lp_Variant>
AV-unprocessed.smi:3286-1

> <Gold.Version>
5.8.1

> <Gold.Id.Protein>
6NUR|6NUR_protein|mol2

> <Gold.PLP.Fitness>
46.7175

> <Gold.PLP.PLP>
-35.5574

> <Gold.PLP.part.hbond>
-1.8890

> <Gold.PLP.part.metal>
0.0000

> <Gold.PLP.part.buried>
-1.5199

> <Gold.PLP.part.nonpolar>
-32.9161

> <Gold.PLP.part.repulsive>
1.2352

> <Gold.PLP.ligand.clash>
0.0000

> <Gold.PLP.ligand.torsion>
0.4378

> <Gold.PLP.Chemscore.Hbond>
3.0000

> <Gold.PLP.Chemscore.CHOScore>
1.0000

> <Gold.PLP.Chemscore.Metal>
0.0000

> <Gold.Chemscore.Hbonds>
donor molecule, donor type, donor heavy atom, donor atom, acceptor molecule, acceptor atom, score
      L1  H     8    28       P1  7948  2.00
      L1  H     8    43       P1  7957  0.98
      L1  C    17    42       P1 10171  1.00

> <Gold.PLP.Chemscore.Internal.Correction>
0.0358

> <Gold.Rescore>
     Score         DG    S(hbond)    S(metal)    S(lipo)     H(rot)  DE(clash)    DE(int)     intcor
     18.55     -19.39       1.94        0.00      94.72       1.43       0.37       0.47       ----

> <Gold.Chemscore.Fitness>
18.5496

> <Gold.Chemscore.DG>
-19.3917

> <Gold.Chemscore.ZeroCoef>
-5.4800

> <Gold.Chemscore.Hbond>
1.9446

> <Gold.Chemscore.Metal>
0.0000

> <Gold.Chemscore.Lipo>
94.7169

> <Gold.Chemscore.Internal_Hbond>
0.0000

> <Gold.Chemscore.DEClash>
0.3717

> <Gold.Chemscore.DEInternal>
0.4704

> <Gold.Chemscore.Rot>
1.4317

> <Gold.Chemscore.Internal.Correction>
   9.000000E+99

> <Gold.Chemscore.Hbonds>
donor molecule, donor type, donor heavy atom, donor atom, acceptor molecule, acceptor atom, score
      L1  H     8    28       P1  7948  0.95
      L1  H     8    43       P1  7957  0.88

> <Gold.Chemscore.Hbond.Weighted>
-6.4949

> <Gold.Chemscore.Metal.Weighted>
-0.0000

> <Gold.Chemscore.Lipo.Weighted>
-11.0819

> <Gold.Chemscore.Internal_Hbond.Weighted>
0.0000

> <Gold.Chemscore.DEClash.Weighted>
0.3717

> <Gold.Chemscore.DEInternal.Weighted>
0.4704

> <Gold.Chemscore.Rot.Weighted>
3.6651

> <Gold.Chemscore.Internal.Correction.Weighted>
   9.000000E+99

> <Gold.Protein.RotatedTorsions>
[ 6907 6896 6895 6894 ] final -150.88 input  -60.11 | X-H torsion
[ 7974 7965 7964 7962 ] final -157.65 input  175.53 | X-H torsion
[ 8008 7997 7996 7995 ] final  -89.21 input   59.86 | X-H torsion
[ 10167 10162 10161 10158 ] final   36.92 input  -65.29 | X-H torsion
[ 10718 10713 10712 10709 ] final  111.86 input   66.30 | X-H torsion
[ 10763 10752 10751 10750 ] final -141.54 input  -60.55 | X-H torsion
[ 11005 11000 10999 10996 ] final  -60.55 input  -57.11 | X-H torsion

> <Gold.Protein.ActiveResidues>
 VAL166  LYS551  ARG553  GLY616  TRP617  ASP618  TYR619  PRO620  LYS621  CYS622 
 ASP623  PHE694  ASN695  SER759  ASP760  ASP761  ALA762  ILE779  LEU786  VAL792 
 PHE793  MET794  SER795  GLU796  ALA797  LYS798  CYS799  TRP800  GLU811  SER814 

> <Gold.Protein.RotatedAtoms>
  151.2050  133.4589  159.2596 H   0  0  0  0  0  0  0  0  0  0  0  0  # atno 6907 bound_to 6896
  151.1032  134.9984  159.8469 H   0  0  0  0  0  0  0  0  0  0  0  0  # atno 6908 bound_to 6896
  152.5445  134.1975  159.8751 H   0  0  0  0  0  0  0  0  0  0  0  0  # atno 6909 bound_to 6896
  144.7539  140.3938  143.6027 H   0  0  0  0  0  0  0  0  0  0  0  0  # atno 7974 bound_to 7965
  154.6839  140.0544  157.0295 H   0  0  0  0  0  0  0  0  0  0  0  0  # atno 8008 bound_to 7997
  155.0912  140.3219  155.4554 H   0  0  0  0  0  0  0  0  0  0  0  0  # atno 8009 bound_to 7997
  156.2704  140.2047  156.6039 H   0  0  0  0  0  0  0  0  0  0  0  0  # atno 8010 bound_to 7997
  140.4082  144.1629  150.6137 H   0  0  0  0  0  0  0  0  0  0  0  0  # atno 10167 bound_to 10162
  157.6422  131.0958  150.6811 H   0  0  0  0  0  0  0  0  0  0  0  0  # atno 10718 bound_to 10713
  154.8541  135.3521  154.5884 H   0  0  0  0  0  0  0  0  0  0  0  0  # atno 10763 bound_to 10752
  153.6494  135.6995  153.5218 H   0  0  0  0  0  0  0  0  0  0  0  0  # atno 10764 bound_to 10752
  153.2906  135.4236  155.1121 H   0  0  0  0  0  0  0  0  0  0  0  0  # atno 10765 bound_to 10752
  141.1291  133.6623  156.5240 H   0  0  0  0  0  0  0  0  0  0  0  0  # atno 11005 bound_to 11000
  145.6848  139.1626  143.2680 LP  0  0  0  0  0  0  0  0  0  0  0  0  # atno 17320 bound_to 7965
  146.1524  140.6906  142.9315 LP  0  0  0  0  0  0  0  0  0  0  0  0  # atno 17321 bound_to 7965
  140.4667  143.2428  151.9146 LP  0  0  0  0  0  0  0  0  0  0  0  0  # atno 17342 bound_to 10162
  139.4783  144.5412  151.8525 LP  0  0  0  0  0  0  0  0  0  0  0  0  # atno 17343 bound_to 10162
  156.7133  130.4658  149.5541 LP  0  0  0  0  0  0  0  0  0  0  0  0  # atno 17370 bound_to 10713
  156.1715  130.6440  151.0843 LP  0  0  0  0  0  0  0  0  0  0  0  0  # atno 17371 bound_to 10713
  140.4269  134.7137  157.4920 LP  0  0  0  0  0  0  0  0  0  0  0  0  # atno 17394 bound_to 11000
  140.0321  134.6391  155.9093 LP  0  0  0  0  0  0  0  0  0  0  0  0  # atno 17395 bound_to 11000

$$$$
