AV-unprocessed.smi:188|AV-procd|sdf|1473|dock2
  -GOLD-   2262019293D 1   1.00000     0.00000
 Structure written by MMmdl.
 48 52  0  0  0  0  0  0  0  0  2 V2000
  148.4076  136.3737  162.3842 O   0  0  0  0  0  0  0  0  0  0  0  0
  148.4255  136.5310  161.1655 C   0  0  0  0  0  0  0  0  0  0  0  0
  149.4869  136.7799  160.3749 N   0  5  0  0  0  0  0  0  0  0  0  0
  149.1095  136.8905  159.0828 C   0  0  0  0  0  0  0  0  0  0  0  0
  149.7903  137.1087  158.0816 O   0  0  0  0  0  0  0  0  0  0  0  0
  147.5852  136.6885  159.0299 C   0  0  0  0  0  0  0  0  0  0  0  0
  146.8256  137.9400  158.5305 C   0  0  0  0  0  0  0  0  0  0  0  0
  146.9336  138.1241  157.0057 C   0  0  0  0  0  0  0  0  0  0  0  0
  146.5334  136.9053  156.2996 N   0  0  0  0  0  0  0  0  0  0  0  0
  146.2813  137.0074  154.9696 C   0  0  0  0  0  0  0  0  0  0  0  0
  146.6460  138.1295  154.2925 N   0  0  0  0  0  0  0  0  0  0  0  0
  146.4168  138.2321  152.9806 C   0  0  0  0  0  0  0  0  0  0  0  0
  145.8402  137.3494  152.1633 N   0  0  0  0  0  0  0  0  0  0  0  0
  145.4584  136.2270  152.8364 C   0  0  0  0  0  0  0  0  0  0  0  0
  145.6414  135.9753  154.2261 C   0  0  0  0  0  0  0  0  0  0  0  0
  145.1205  134.7284  154.5521 N   0  0  0  0  0  0  0  0  0  0  0  0
  144.6678  134.2653  153.4194 C   0  0  0  0  0  0  0  0  0  0  0  0
  144.8193  135.1047  152.3383 N   0  0  0  0  0  0  0  0  0  0  0  0
  144.4015  134.8385  150.9699 C   0  0  0  0  0  0  0  0  0  0  0  0
  144.8541  133.4684  150.4219 C   0  0  0  0  0  0  0  0  0  0  0  0
  146.3850  133.4132  150.2739 C   0  0  0  0  0  0  0  0  0  0  0  0
  146.8012  132.2161  149.6480 O   0  0  0  0  0  0  0  0  0  0  0  0
  144.2415  132.2350  151.1020 C   0  0  0  0  0  0  0  0  0  0  0  0
  143.8464  131.6656  149.8366 O   0  0  0  0  0  0  0  0  0  0  0  0
  144.0719  132.9456  149.2091 C   0  0  0  0  0  0  0  0  0  0  0  0
  147.2610  135.6960  156.6844 C   0  0  0  0  0  0  0  0  0  0  0  0
  147.1652  135.4510  158.2020 C   0  0  0  0  0  0  0  0  0  0  0  0
  147.3141  136.4677  160.4350 N   0  0  0  0  0  0  0  0  0  0  0  0
  145.7720  137.8528  158.7997 H   0  0  0  0  0  0  0  0  0  0  0  0
  147.1917  138.8372  159.0320 H   0  0  0  0  0  0  0  0  0  0  0  0
  146.2975  138.9561  156.7009 H   0  0  0  0  0  0  0  0  0  0  0  0
  147.9542  138.3867  156.7260 H   0  0  0  0  0  0  0  0  0  0  0  0
  146.7424  139.1535  152.5207 H   0  0  0  0  0  0  0  0  0  0  0  0
  144.1984  133.2953  153.3424 H   0  0  0  0  0  0  0  0  0  0  0  0
  143.3151  134.9269  150.9308 H   0  0  0  0  0  0  0  0  0  0  0  0
  144.7796  135.6425  150.3373 H   0  0  0  0  0  0  0  0  0  0  0  0
  146.7670  134.2650  149.7110 H   0  0  0  0  0  0  0  0  0  0  0  0
  146.8653  133.4613  151.2518 H   0  0  0  0  0  0  0  0  0  0  0  0
  147.7257  132.1005  149.8071 H   0  0  0  0  0  0  0  0  0  0  0  0
  144.9627  131.6169  151.6378 H   0  0  0  0  0  0  0  0  0  0  0  0
  143.3743  132.4512  151.7271 H   0  0  0  0  0  0  0  0  0  0  0  0
  143.1363  133.4759  149.0235 H   0  0  0  0  0  0  0  0  0  0  0  0
  144.6629  132.8679  148.2958 H   0  0  0  0  0  0  0  0  0  0  0  0
  146.8801  134.8203  156.1600 H   0  0  0  0  0  0  0  0  0  0  0  0
  148.3029  135.8023  156.3811 H   0  0  0  0  0  0  0  0  0  0  0  0
  147.7735  134.5859  158.4703 H   0  0  0  0  0  0  0  0  0  0  0  0
  146.1369  135.1836  158.4498 H   0  0  0  0  0  0  0  0  0  0  0  0
  146.3912  136.2906  160.8029 H   0  0  0  0  0  0  0  0  0  0  0  0
  1  2  2  0  0  0  0
  2 28  1  0  0  0  0
  2  3  1  0  0  0  0
  3  4  1  0  0  0  0
  4  5  2  0  0  0  0
  4  6  1  0  0  0  0
  6 27  1  0  0  0  0
  6  7  1  0  0  0  0
  6 28  1  0  0  0  0
  7  8  1  0  0  0  0
  7 29  1  0  0  0  0
  7 30  1  0  0  0  0
  8  9  1  0  0  0  0
  8 31  1  0  0  0  0
  8 32  1  0  0  0  0
  9 10  1  0  0  0  0
  9 26  1  0  0  0  0
 10 15  1  0  0  0  0
 10 11  2  0  0  0  0
 11 12  1  0  0  0  0
 12 13  2  0  0  0  0
 12 33  1  0  0  0  0
 13 14  1  0  0  0  0
 14 18  1  0  0  0  0
 14 15  2  0  0  0  0
 15 16  1  0  0  0  0
 16 17  2  0  0  0  0
 17 18  1  0  0  0  0
 17 34  1  0  0  0  0
 18 19  1  0  0  0  0
 19 20  1  0  0  0  0
 19 35  1  0  0  0  0
 19 36  1  0  0  0  0
 20 25  1  0  0  0  0
 20 21  1  0  0  0  0
 20 23  1  0  0  0  0
 21 22  1  0  0  0  0
 21 37  1  0  0  0  0
 21 38  1  0  0  0  0
 22 39  1  0  0  0  0
 23 24  1  0  0  0  0
 23 40  1  0  0  0  0
 23 41  1  0  0  0  0
 24 25  1  0  0  0  0
 25 42  1  0  0  0  0
 25 43  1  0  0  0  0
 26 27  1  0  0  0  0
 26 44  1  0  0  0  0
 26 45  1  0  0  0  0
 27 46  1  0  0  0  0
 27 47  1  0  0  0  0
 28 48  1  0  0  0  0
M  CHG  1   3  -1
M  END
> <s_m_source_file>
AV-unprocessed.smi

> <i_m_source_file_index>
188

> <i_lp_mmshare_version>
43012

> <i_f3d_flags>
0

> <s_epik_input>
Tz1DKFtOSF0xKVtOSF1DKD1PKUMxMltDSDJdW0NIMl1OKFtDSDJdW0NIMl0yKWMobltjSF1uMyljKGMzNCluW2NIXW40W0NIMl1DNShbQ0gyXVtPSF0pW0NIMl1PW0NIMl01

> <s_epik_cmdline>
J2VwaWtfcHl0aG9uJywgJy1waCcsICc3LjAnLCAnLXRuJywgJzgnLCAnLW1hJywgJzIwMCcsICctbWV0YWxfYmluZGluZycsICctaW1hZScsICc8aW5maWxlLm1hZT4nLCAnLW9tYWUnLCAnPG91dGZpbGUubWFlPic=

> <r_lp_tautomer_probability>
1

> <r_epik_Ionization_Penalty>
2.63631

> <r_epik_Ionization_Penalty_Charging>
2.63472

> <r_epik_Ionization_Penalty_Neutral>
0.0015918

> <r_epik_State_Penalty>
2.63293

> <r_epik_Charging_Adjusted_Penalty>
5.26764

> <i_epik_Tot_Q>
-1

> <i_epik_Tot_abs_Q>
1

> <r_epik_Metal_State_Penalty>
0.446503

> <b_epik_Metal_Only>
1

> <s_lp_Force_Field>
OPLS_2005

> <r_lp_Energy>
37.7824

> <b_lp_Chiralities_Consistent>
1

> <s_lp_Variant>
AV-unprocessed.smi:188-2

> <Gold.Version>
5.8.1

> <Gold.Id.Protein>
6NUR|6NUR_protein|mol2

> <Gold.PLP.Fitness>
42.8087

> <Gold.PLP.PLP>
-28.8007

> <Gold.PLP.part.hbond>
-3.5841

> <Gold.PLP.part.metal>
0.0000

> <Gold.PLP.part.buried>
-6.9039

> <Gold.PLP.part.nonpolar>
-20.3979

> <Gold.PLP.part.repulsive>
0.7480

> <Gold.PLP.ligand.clash>
0.0000

> <Gold.PLP.ligand.torsion>
0.5068

> <Gold.PLP.Chemscore.Hbond>
3.9440

> <Gold.PLP.Chemscore.CHOScore>
0.8278

> <Gold.PLP.Chemscore.Metal>
0.0000

> <Gold.Chemscore.Hbonds>
donor molecule, donor type, donor heavy atom, donor atom, acceptor molecule, acceptor atom, score
      L1  H    22    39       P1 10747  0.86
      P1  H 10785 10796       L1    24  0.82
      L1  C    17    34       P1 10957  0.84

> <Gold.PLP.Chemscore.Internal.Correction>
0.7061

> <Gold.Rescore>
     Score         DG    S(hbond)    S(metal)    S(lipo)     H(rot)  DE(clash)    DE(int)     intcor
      9.74     -12.01       2.55        0.00      45.19       2.84       0.16       2.11       ----

> <Gold.Chemscore.Fitness>
9.7411

> <Gold.Chemscore.DG>
-12.0080

> <Gold.Chemscore.ZeroCoef>
-5.4800

> <Gold.Chemscore.Hbond>
2.5521

> <Gold.Chemscore.Metal>
0.0000

> <Gold.Chemscore.Lipo>
45.1884

> <Gold.Chemscore.Internal_Hbond>
0.0000

> <Gold.Chemscore.DEClash>
0.1561

> <Gold.Chemscore.DEInternal>
2.1108

> <Gold.Chemscore.Rot>
2.8450

> <Gold.Chemscore.Internal.Correction>
   9.000000E+99

> <Gold.Chemscore.Hbonds>
donor molecule, donor type, donor heavy atom, donor atom, acceptor molecule, acceptor atom, score
      L1  H    22    39       P1 10747  0.87
      P1  H 10785 10796       L1    24  0.76

> <Gold.Chemscore.Hbond.Weighted>
-8.5241

> <Gold.Chemscore.Metal.Weighted>
-0.0000

> <Gold.Chemscore.Lipo.Weighted>
-5.2870

> <Gold.Chemscore.Internal_Hbond.Weighted>
0.0000

> <Gold.Chemscore.DEClash.Weighted>
0.1561

> <Gold.Chemscore.DEInternal.Weighted>
2.1108

> <Gold.Chemscore.Rot.Weighted>
7.2831

> <Gold.Chemscore.Internal.Correction.Weighted>
   9.000000E+99

> <Gold.Protein.RotatedTorsions>
[ 6907 6896 6895 6894 ] final -133.69 input  -60.11 | X-H torsion
[ 7974 7965 7964 7962 ] final -143.08 input  175.53 | X-H torsion
[ 8008 7997 7996 7995 ] final -148.83 input   59.86 | X-H torsion
[ 10167 10162 10161 10158 ] final -155.96 input  -65.29 | X-H torsion
[ 10718 10713 10712 10709 ] final  174.44 input   66.30 | X-H torsion
[ 10763 10752 10751 10750 ] final -178.03 input  -60.55 | X-H torsion
[ 11005 11000 10999 10996 ] final  -92.03 input  -57.11 | X-H torsion

> <Gold.Protein.ActiveResidues>
 VAL166  LYS551  ARG553  GLY616  TRP617  ASP618  TYR619  PRO620  LYS621  CYS622 
 ASP623  PHE694  ASN695  SER759  ASP760  ASP761  ALA762  ILE779  LEU786  VAL792 
 PHE793  MET794  SER795  GLU796  ALA797  LYS798  CYS799  TRP800  GLU811  SER814 

> <Gold.Protein.RotatedAtoms>
  150.9770  133.6285  159.2728 H   0  0  0  0  0  0  0  0  0  0  0  0  # atno 6907 bound_to 6896
  151.3553  135.0892  159.9426 H   0  0  0  0  0  0  0  0  0  0  0  0  # atno 6908 bound_to 6896
  152.5202  133.9354  159.7655 H   0  0  0  0  0  0  0  0  0  0  0  0  # atno 6909 bound_to 6896
  144.8396  140.5879  143.5461 H   0  0  0  0  0  0  0  0  0  0  0  0  # atno 7974 bound_to 7965
  155.5979  140.0659  157.2741 H   0  0  0  0  0  0  0  0  0  0  0  0  # atno 8008 bound_to 7997
  154.4287  140.1823  156.1189 H   0  0  0  0  0  0  0  0  0  0  0  0  # atno 8009 bound_to 7997
  156.0182  140.3319  155.7014 H   0  0  0  0  0  0  0  0  0  0  0  0  # atno 8010 bound_to 7997
  139.6889  143.9454  152.2375 H   0  0  0  0  0  0  0  0  0  0  0  0  # atno 10167 bound_to 10162
  156.9496  131.0027  151.2951 H   0  0  0  0  0  0  0  0  0  0  0  0  # atno 10718 bound_to 10713
  154.5527  135.2814  155.0993 H   0  0  0  0  0  0  0  0  0  0  0  0  # atno 10763 bound_to 10752
  154.2432  135.6353  153.5218 H   0  0  0  0  0  0  0  0  0  0  0  0  # atno 10764 bound_to 10752
  153.0007  135.5565  154.6098 H   0  0  0  0  0  0  0  0  0  0  0  0  # atno 10765 bound_to 10752
  141.1531  133.7794  156.9963 H   0  0  0  0  0  0  0  0  0  0  0  0  # atno 11005 bound_to 11000
  145.4723  139.1502  143.3807 LP  0  0  0  0  0  0  0  0  0  0  0  0  # atno 17320 bound_to 7965
  146.2690  140.4856  142.8822 LP  0  0  0  0  0  0  0  0  0  0  0  0  # atno 17321 bound_to 7965
  139.9265  144.6768  150.8407 LP  0  0  0  0  0  0  0  0  0  0  0  0  # atno 17342 bound_to 10162
  140.7676  143.3338  151.2352 LP  0  0  0  0  0  0  0  0  0  0  0  0  # atno 17343 bound_to 10162
  157.5731  130.8324  149.8418 LP  0  0  0  0  0  0  0  0  0  0  0  0  # atno 17370 bound_to 10713
  156.0368  130.3749  150.1538 LP  0  0  0  0  0  0  0  0  0  0  0  0  # atno 17371 bound_to 10713
  140.0969  134.9558  157.1864 LP  0  0  0  0  0  0  0  0  0  0  0  0  # atno 17394 bound_to 11000
  140.3370  134.2746  155.7218 LP  0  0  0  0  0  0  0  0  0  0  0  0  # atno 17395 bound_to 11000

$$$$
