AV-unprocessed.smi:1088|AV-procd|sdf|4729|dock6
  -GOLD-   22720 3263D 1   1.00000     0.00000
 Structure written by MMmdl.
 48 49  0  0  0  0  0  0  0  0  2 V2000
  144.3565  136.0308  155.8496 C   0  0  0  0  0  0  0  0  0  0  0  0
  144.6974  137.3627  156.1924 O   0  0  0  0  0  0  0  0  0  0  0  0
  145.3272  138.0538  155.1267 C   0  0  0  0  0  0  0  0  0  0  0  0
  146.5402  137.2390  154.6498 C   0  0  0  0  0  0  0  0  0  0  0  0
  147.1599  137.8028  153.4198 N   0  3  1  0  0  0  0  0  0  0  0  0
  146.2253  137.9429  152.2770 C   0  0  0  0  0  0  0  0  0  0  0  0
  146.7561  139.0988  151.4370 C   0  0  0  0  0  0  0  0  0  0  0  0
  147.3093  140.0366  152.4971 C   0  0  0  0  0  0  0  0  0  0  0  0
  147.9165  139.0876  153.5431 C   0  0  1  0  0  0  0  0  0  0  0  0
  148.0156  139.6992  154.9639 C   0  0  0  0  0  0  0  0  0  0  0  0
  149.3633  140.1869  155.2436 N   0  0  0  0  0  0  0  0  0  0  0  0
  149.7711  140.7216  156.4048 C   0  0  0  0  0  0  0  0  0  0  0  0
  149.0507  140.8065  157.4000 O   0  0  0  0  0  0  0  0  0  0  0  0
  151.2151  141.2385  156.4438 C   0  0  0  0  0  0  0  0  0  0  0  0
  151.5556  141.8615  157.7297 N   0  0  0  0  0  0  0  0  0  0  0  0
  151.0014  143.0826  158.0684 C   0  0  0  0  0  0  0  0  0  0  0  0
  151.2801  143.7332  159.2189 C   0  0  0  0  0  0  0  0  0  0  0  0
  152.2037  143.1671  160.1941 C   0  0  0  0  0  0  0  0  0  0  0  0
  152.5076  143.7356  161.2436 O   0  0  0  0  0  0  0  0  0  0  0  0
  152.7420  141.9095  159.8328 N   0  0  0  0  0  0  0  0  0  0  0  0
  153.6889  141.2980  160.7425 C   0  0  0  0  0  0  0  0  0  0  0  0
  152.4596  141.2408  158.6198 C   0  0  0  0  0  0  0  0  0  0  0  0
  152.9820  140.1619  158.3282 O   0  0  0  0  0  0  0  0  0  0  0  0
  143.8824  135.5429  156.7010 H   0  0  0  0  0  0  0  0  0  0  0  0
  145.2422  135.4531  155.5818 H   0  0  0  0  0  0  0  0  0  0  0  0
  143.6557  136.0053  155.0140 H   0  0  0  0  0  0  0  0  0  0  0  0
  144.6236  138.2358  154.3133 H   0  0  0  0  0  0  0  0  0  0  0  0
  145.6655  139.0300  155.4779 H   0  0  0  0  0  0  0  0  0  0  0  0
  147.2845  137.1901  155.4458 H   0  0  0  0  0  0  0  0  0  0  0  0
  146.2002  136.2207  154.4631 H   0  0  0  0  0  0  0  0  0  0  0  0
  146.1488  137.0183  151.7039 H   0  0  0  0  0  0  0  0  0  0  0  0
  145.2286  138.1955  152.6431 H   0  0  0  0  0  0  0  0  0  0  0  0
  147.5595  138.7547  150.7840 H   0  0  0  0  0  0  0  0  0  0  0  0
  145.9880  139.5629  150.8177 H   0  0  0  0  0  0  0  0  0  0  0  0
  148.0341  140.7454  152.0956 H   0  0  0  0  0  0  0  0  0  0  0  0
  146.4888  140.6076  152.9344 H   0  0  0  0  0  0  0  0  0  0  0  0
  148.9298  138.8499  153.2157 H   0  0  0  0  0  0  0  0  0  0  0  0
  147.2845  140.4981  155.0980 H   0  0  0  0  0  0  0  0  0  0  0  0
  147.7958  138.9435  155.7177 H   0  0  0  0  0  0  0  0  0  0  0  0
  150.0279  140.1487  154.4842 H   0  0  0  0  0  0  0  0  0  0  0  0
  151.8825  140.3998  156.2418 H   0  0  0  0  0  0  0  0  0  0  0  0
  151.3815  141.9514  155.6340 H   0  0  0  0  0  0  0  0  0  0  0  0
  150.3148  143.5473  157.3759 H   0  0  0  0  0  0  0  0  0  0  0  0
  150.8173  144.6886  159.4184 H   0  0  0  0  0  0  0  0  0  0  0  0
  153.6570  140.2130  160.6364 H   0  0  0  0  0  0  0  0  0  0  0  0
  153.4127  141.5420  161.7694 H   0  0  0  0  0  0  0  0  0  0  0  0
  154.6724  141.6948  160.4881 H   0  0  0  0  0  0  0  0  0  0  0  0
  147.8507  137.1251  153.1297 H   0  0  0  0  0  0  0  0  0  0  0  0
  1  2  1  0  0  0  0
  1 24  1  0  0  0  0
  1 25  1  0  0  0  0
  1 26  1  0  0  0  0
  2  3  1  0  0  0  0
  3  4  1  0  0  0  0
  3 27  1  0  0  0  0
  3 28  1  0  0  0  0
  4  5  1  0  0  0  0
  4 29  1  0  0  0  0
  4 30  1  0  0  0  0
  5  9  1  0  0  0  0
  5  6  1  0  0  0  0
  5 48  1  0  0  0  0
  6  7  1  0  0  0  0
  6 31  1  0  0  0  0
  6 32  1  0  0  0  0
  7  8  1  0  0  0  0
  7 33  1  0  0  0  0
  7 34  1  0  0  0  0
  8  9  1  0  0  0  0
  8 35  1  0  0  0  0
  8 36  1  0  0  0  0
  9 10  1  0  0  0  0
  9 37  1  0  0  0  0
 10 11  1  0  0  0  0
 10 38  1  0  0  0  0
 10 39  1  0  0  0  0
 11 12  1  0  0  0  0
 11 40  1  0  0  0  0
 12 13  2  0  0  0  0
 12 14  1  0  0  0  0
 14 15  1  0  0  0  0
 14 41  1  0  0  0  0
 14 42  1  0  0  0  0
 15 22  1  0  0  0  0
 15 16  1  0  0  0  0
 16 17  2  0  0  0  0
 16 43  1  0  0  0  0
 17 18  1  0  0  0  0
 17 44  1  0  0  0  0
 18 19  2  0  0  0  0
 18 20  1  0  0  0  0
 20 21  1  0  0  0  0
 20 22  1  0  0  0  0
 21 45  1  0  0  0  0
 21 46  1  0  0  0  0
 21 47  1  0  0  0  0
 22 23  2  0  0  0  0
M  CHG  1   5   1
M  END
> <s_m_source_file>
AV-unprocessed.smi

> <i_m_source_file_index>
1088

> <i_lp_mmshare_version>
43012

> <i_f3d_flags>
0

> <s_epik_input>
W0NIM11PW0NIMl1bQ0gyXU4xW0NIMl1bQ0gyXVtDSDJdW0NASF0xW0NIMl1bTkhdQyg9TylbQ0gyXW4yW2NIXVtjSF1jKD1PKW4oW0NIM10pYzI9Tw==

> <s_epik_cmdline>
J2VwaWtfcHl0aG9uJywgJy1waCcsICc3LjAnLCAnLXRuJywgJzgnLCAnLW1hJywgJzIwMCcsICctbWV0YWxfYmluZGluZycsICctaW1hZScsICc8aW5maWxlLm1hZT4nLCAnLW9tYWUnLCAnPG91dGZpbGUubWFlPic=

> <r_lp_tautomer_probability>
1

> <r_epik_Ionization_Penalty>
0.0127388

> <r_epik_Ionization_Penalty_Charging>
0.0127387

> <r_epik_Ionization_Penalty_Neutral>
8.26414e-08

> <r_epik_State_Penalty>
0.00987716

> <r_epik_Charging_Adjusted_Penalty>
0.0226159

> <i_epik_Tot_Q>
1

> <i_epik_Tot_abs_Q>
1

> <r_epik_Metal_State_Penalty>
0.00987836

> <b_epik_Metal_Only>
0

> <s_lp_Force_Field>
OPLS_2005

> <r_lp_Energy>
40.5069

> <b_lp_Chiralities_Consistent>
1

> <s_lp_Variant>
AV-unprocessed.smi:1088-2

> <Gold.Version>
5.8.1

> <Gold.Id.Protein>
6NUR|6NUR_protein|mol2

> <Gold.PLP.Fitness>
45.6315

> <Gold.PLP.PLP>
-35.0072

> <Gold.PLP.part.hbond>
-2.0000

> <Gold.PLP.part.metal>
0.0000

> <Gold.PLP.part.buried>
1.9608

> <Gold.PLP.part.nonpolar>
-34.1393

> <Gold.PLP.part.repulsive>
0.2435

> <Gold.PLP.ligand.clash>
0.0000

> <Gold.PLP.ligand.torsion>
0.7511

> <Gold.PLP.Chemscore.Hbond>
2.9760

> <Gold.PLP.Chemscore.CHOScore>
1.0000

> <Gold.PLP.Chemscore.Metal>
0.0000

> <Gold.Chemscore.Hbonds>
donor molecule, donor type, donor heavy atom, donor atom, acceptor molecule, acceptor atom, score
      L1  H     5    48       P1  7948  2.00
      P1  H  7997  8010       L1    23  0.90
      L1  C    16    43       P1  8028  1.00

> <Gold.PLP.Chemscore.Internal.Correction>
0.1984

> <Gold.Rescore>
     Score         DG    S(hbond)    S(metal)    S(lipo)     H(rot)  DE(clash)    DE(int)     intcor
     12.40     -13.81       1.91        0.00      72.91       2.57       0.47       0.94       ----

> <Gold.Chemscore.Fitness>
12.3984

> <Gold.Chemscore.DG>
-13.8089

> <Gold.Chemscore.ZeroCoef>
-5.4800

> <Gold.Chemscore.Hbond>
1.9088

> <Gold.Chemscore.Metal>
0.0000

> <Gold.Chemscore.Lipo>
72.9121

> <Gold.Chemscore.Internal_Hbond>
0.0000

> <Gold.Chemscore.DEClash>
0.4735

> <Gold.Chemscore.DEInternal>
0.9370

> <Gold.Chemscore.Rot>
2.5692

> <Gold.Chemscore.Internal.Correction>
   9.000000E+99

> <Gold.Chemscore.Hbonds>
donor molecule, donor type, donor heavy atom, donor atom, acceptor molecule, acceptor atom, score
      L1  H     5    48       P1  7948  0.97
      P1  H  7997  8010       L1    23  0.81

> <Gold.Chemscore.Hbond.Weighted>
-6.3753

> <Gold.Chemscore.Metal.Weighted>
-0.0000

> <Gold.Chemscore.Lipo.Weighted>
-8.5307

> <Gold.Chemscore.Internal_Hbond.Weighted>
0.0000

> <Gold.Chemscore.DEClash.Weighted>
0.4735

> <Gold.Chemscore.DEInternal.Weighted>
0.9370

> <Gold.Chemscore.Rot.Weighted>
6.5772

> <Gold.Chemscore.Internal.Correction.Weighted>
   9.000000E+99

> <Gold.Protein.RotatedTorsions>
[ 6907 6896 6895 6894 ] final   27.41 input  -60.11 | X-H torsion
[ 7974 7965 7964 7962 ] final  141.48 input  175.53 | X-H torsion
[ 8008 7997 7996 7995 ] final   37.40 input   59.86 | X-H torsion
[ 10167 10162 10161 10158 ] final -153.49 input  -65.29 | X-H torsion
[ 10718 10713 10712 10709 ] final  -59.26 input   66.30 | X-H torsion
[ 10763 10752 10751 10750 ] final   41.95 input  -60.55 | X-H torsion
[ 11005 11000 10999 10996 ] final   -6.26 input  -57.11 | X-H torsion

> <Gold.Protein.ActiveResidues>
 VAL166  LYS551  ARG553  GLY616  TRP617  ASP618  TYR619  PRO620  LYS621  CYS622 
 ASP623  PHE694  ASN695  SER759  ASP760  ASP761  ALA762  ILE779  LEU786  VAL792 
 PHE793  MET794  SER795  GLU796  ALA797  LYS798  CYS799  TRP800  GLU811  SER814 

> <Gold.Protein.RotatedAtoms>
  152.0019  134.9924  160.0565 H   0  0  0  0  0  0  0  0  0  0  0  0  # atno 6907 bound_to 6896
  152.1511  133.4518  159.4822 H   0  0  0  0  0  0  0  0  0  0  0  0  # atno 6908 bound_to 6896
  150.6876  134.2105  159.4400 H   0  0  0  0  0  0  0  0  0  0  0  0  # atno 6909 bound_to 6896
  144.9092  139.5316  143.5717 H   0  0  0  0  0  0  0  0  0  0  0  0  # atno 7974 bound_to 7965
  155.2031  140.3317  155.4340 H   0  0  0  0  0  0  0  0  0  0  0  0  # atno 8008 bound_to 7997
  156.2399  140.1890  156.7066 H   0  0  0  0  0  0  0  0  0  0  0  0  # atno 8009 bound_to 7997
  154.6128  140.0606  156.9501 H   0  0  0  0  0  0  0  0  0  0  0  0  # atno 8010 bound_to 7997
  139.7092  143.9136  152.2461 H   0  0  0  0  0  0  0  0  0  0  0  0  # atno 10167 bound_to 10162
  156.1074  130.4179  150.0691 H   0  0  0  0  0  0  0  0  0  0  0  0  # atno 10718 bound_to 10713
  152.9895  135.6146  154.2870 H   0  0  0  0  0  0  0  0  0  0  0  0  # atno 10763 bound_to 10752
  154.2597  135.2782  155.2785 H   0  0  0  0  0  0  0  0  0  0  0  0  # atno 10764 bound_to 10752
  154.5216  135.5813  153.6743 H   0  0  0  0  0  0  0  0  0  0  0  0  # atno 10765 bound_to 10752
  140.7001  133.8997  155.8677 H   0  0  0  0  0  0  0  0  0  0  0  0  # atno 11005 bound_to 11000
  146.3150  139.7885  142.8991 LP  0  0  0  0  0  0  0  0  0  0  0  0  # atno 17320 bound_to 7965
  145.3483  141.0302  143.3353 LP  0  0  0  0  0  0  0  0  0  0  0  0  # atno 17321 bound_to 7965
  139.9000  144.6917  150.8676 LP  0  0  0  0  0  0  0  0  0  0  0  0  # atno 17342 bound_to 10162
  140.7729  143.3521  151.1994 LP  0  0  0  0  0  0  0  0  0  0  0  0  # atno 17343 bound_to 10162
  156.8663  130.9509  151.3613 LP  0  0  0  0  0  0  0  0  0  0  0  0  # atno 17370 bound_to 10713
  157.6253  130.8686  149.9178 LP  0  0  0  0  0  0  0  0  0  0  0  0  # atno 17371 bound_to 10713
  141.0171  134.0941  157.4161 LP  0  0  0  0  0  0  0  0  0  0  0  0  # atno 17394 bound_to 11000
  139.8899  135.0108  156.6706 LP  0  0  0  0  0  0  0  0  0  0  0  0  # atno 17395 bound_to 11000

$$$$
