AV-unprocessed.smi:2914|AV-procd|sdf|11186|dock5
  -GOLD-   2272016 73D 1   1.00000     0.00000
 Structure written by MMmdl.
 32 34  0  0  0  0  0  0  0  0  1 V2000
  151.3477  140.9537  157.3549 O   0  0  0  0  0  0  0  0  0  0  0  0
  150.8256  141.9390  156.8327 C   0  0  0  0  0  0  0  0  0  0  0  0
  150.0116  141.9141  155.7626 N   0  0  0  0  0  0  0  0  0  0  0  0
  149.5840  140.8428  155.0427 C   0  0  0  0  0  0  0  0  0  0  0  0
  150.1291  139.5905  154.9590 C   0  0  0  0  0  0  0  0  0  0  0  0
  149.2374  138.9250  154.0700 C   0  0  0  0  0  0  0  0  0  0  0  0
  148.2444  139.6998  153.6526 N   0  0  0  0  0  0  0  0  0  0  0  0
  148.4562  140.8927  154.2512 N   0  0  0  0  0  0  0  0  0  0  0  0
  147.5363  141.9917  154.0176 C   0  0  0  0  0  0  0  0  0  0  0  0
  146.2164  141.7775  154.7320 C   0  0  0  0  0  0  0  0  0  0  0  0
  145.1430  142.8404  154.7051 C   0  0  0  0  0  0  0  0  0  0  0  0
  145.8810  142.5454  155.9889 C   0  0  0  0  0  0  0  0  0  0  0  0
  151.0052  143.1926  157.2711 N   0  0  0  0  0  0  0  0  0  0  0  0
  151.8133  143.5729  158.3847 C   0  0  0  0  0  0  0  0  0  0  0  0
  151.5424  144.9183  159.0227 C   0  0  0  0  0  0  0  0  0  0  0  0
  152.7796  144.7215  158.1908 C   0  0  0  0  0  0  0  0  0  0  0  0
  149.6632  142.8082  155.4495 H   0  0  0  0  0  0  0  0  0  0  0  0
  151.0099  139.1963  155.4424 H   0  0  0  0  0  0  0  0  0  0  0  0
  149.2809  137.9053  153.7171 H   0  0  0  0  0  0  0  0  0  0  0  0
  147.9915  142.9197  154.3644 H   0  0  0  0  0  0  0  0  0  0  0  0
  147.3675  142.0981  152.9447 H   0  0  0  0  0  0  0  0  0  0  0  0
  145.8610  140.7495  154.6929 H   0  0  0  0  0  0  0  0  0  0  0  0
  145.3703  143.7761  154.1980 H   0  0  0  0  0  0  0  0  0  0  0  0
  144.1099  142.5080  154.6296 H   0  0  0  0  0  0  0  0  0  0  0  0
  145.3395  142.0167  156.7706 H   0  0  0  0  0  0  0  0  0  0  0  0
  146.5950  143.2887  156.3378 H   0  0  0  0  0  0  0  0  0  0  0  0
  150.5356  143.9383  156.7788 H   0  0  0  0  0  0  0  0  0  0  0  0
  152.1412  142.7822  159.0584 H   0  0  0  0  0  0  0  0  0  0  0  0
  150.7468  145.5310  158.6025 H   0  0  0  0  0  0  0  0  0  0  0  0
  151.6700  144.9967  160.1007 H   0  0  0  0  0  0  0  0  0  0  0  0
  153.7329  144.6679  158.7128 H   0  0  0  0  0  0  0  0  0  0  0  0
  152.8100  145.2034  157.2152 H   0  0  0  0  0  0  0  0  0  0  0  0
  1  2  2  0  0  0  0
  2  3  1  0  0  0  0
  2 13  1  0  0  0  0
  3  4  1  0  0  0  0
  3 17  1  0  0  0  0
  4  8  1  0  0  0  0
  4  5  2  0  0  0  0
  5  6  1  0  0  0  0
  5 18  1  0  0  0  0
  6  7  2  0  0  0  0
  6 19  1  0  0  0  0
  7  8  1  0  0  0  0
  8  9  1  0  0  0  0
  9 10  1  0  0  0  0
  9 20  1  0  0  0  0
  9 21  1  0  0  0  0
 10 12  1  0  0  0  0
 10 11  1  0  0  0  0
 10 22  1  0  0  0  0
 11 12  1  0  0  0  0
 11 23  1  0  0  0  0
 11 24  1  0  0  0  0
 12 25  1  0  0  0  0
 12 26  1  0  0  0  0
 13 14  1  0  0  0  0
 13 27  1  0  0  0  0
 14 16  1  0  0  0  0
 14 15  1  0  0  0  0
 14 28  1  0  0  0  0
 15 16  1  0  0  0  0
 15 29  1  0  0  0  0
 15 30  1  0  0  0  0
 16 31  1  0  0  0  0
 16 32  1  0  0  0  0
M  END
> <s_m_source_file>
AV-unprocessed.smi

> <i_m_source_file_index>
2914

> <i_lp_mmshare_version>
43012

> <i_f3d_flags>
0

> <s_epik_input>
W0NIMl0xW0NIMl1bQ0hdMVtOSF1DKD1PKVtOSF1jMltjSF1bY0hdbm4yW0NIMl1bQ0hdM1tDSDJdW0NIMl0z

> <s_epik_cmdline>
J2VwaWtfcHl0aG9uJywgJy1waCcsICc3LjAnLCAnLXRuJywgJzgnLCAnLW1hJywgJzIwMCcsICctbWV0YWxfYmluZGluZycsICctaW1hZScsICc8aW5maWxlLm1hZT4nLCAnLW9tYWUnLCAnPG91dGZpbGUubWFlPic=

> <r_lp_tautomer_probability>
1

> <r_epik_Ionization_Penalty>
4.83987e-05

> <r_epik_Ionization_Penalty_Charging>
0

> <r_epik_Ionization_Penalty_Neutral>
4.83987e-05

> <r_epik_State_Penalty>
-0

> <r_epik_Charging_Adjusted_Penalty>
0

> <i_epik_Tot_Q>
0

> <i_epik_Tot_abs_Q>
0

> <r_epik_Metal_State_Penalty>
-0

> <b_epik_Metal_Only>
0

> <s_lp_Force_Field>
OPLS_2005

> <r_lp_Energy>
29.2759

> <b_lp_Chiralities_Consistent>
1

> <s_lp_Variant>
AV-unprocessed.smi:2914-1

> <Gold.Version>
5.8.1

> <Gold.Id.Protein>
6NUR|6NUR_protein|mol2

> <Gold.PLP.Fitness>
45.2246

> <Gold.PLP.PLP>
-37.2352

> <Gold.PLP.part.hbond>
-2.0000

> <Gold.PLP.part.metal>
0.0000

> <Gold.PLP.part.buried>
-6.0342

> <Gold.PLP.part.nonpolar>
-31.1780

> <Gold.PLP.part.repulsive>
1.9175

> <Gold.PLP.ligand.clash>
0.0000

> <Gold.PLP.ligand.torsion>
0.7767

> <Gold.PLP.Chemscore.Hbond>
2.0000

> <Gold.PLP.Chemscore.CHOScore>
0.9822

> <Gold.PLP.Chemscore.Metal>
0.0000

> <Gold.Chemscore.Hbonds>
donor molecule, donor type, donor heavy atom, donor atom, acceptor molecule, acceptor atom, score
      L1  H     3    17       P1  8028  0.89
      L1  H    13    27       P1  8028  0.76
      L1  C     6    19       P1  7948  1.00

> <Gold.PLP.Chemscore.Internal.Correction>
0.5961

> <Gold.Rescore>
     Score         DG    S(hbond)    S(metal)    S(lipo)     H(rot)  DE(clash)    DE(int)     intcor
     14.03     -16.58       1.84        0.00      72.85       1.39       0.62       1.93       ----

> <Gold.Chemscore.Fitness>
14.0339

> <Gold.Chemscore.DG>
-16.5832

> <Gold.Chemscore.ZeroCoef>
-5.4800

> <Gold.Chemscore.Hbond>
1.8398

> <Gold.Chemscore.Metal>
0.0000

> <Gold.Chemscore.Lipo>
72.8549

> <Gold.Chemscore.Internal_Hbond>
0.0000

> <Gold.Chemscore.DEClash>
0.6208

> <Gold.Chemscore.DEInternal>
1.9285

> <Gold.Chemscore.Rot>
1.3929

> <Gold.Chemscore.Internal.Correction>
   9.000000E+99

> <Gold.Chemscore.Hbonds>
donor molecule, donor type, donor heavy atom, donor atom, acceptor molecule, acceptor atom, score
      L1  H     3    17       P1  8028  0.86
      L1  H    13    27       P1  8028  0.74

> <Gold.Chemscore.Hbond.Weighted>
-6.1449

> <Gold.Chemscore.Metal.Weighted>
-0.0000

> <Gold.Chemscore.Lipo.Weighted>
-8.5240

> <Gold.Chemscore.Internal_Hbond.Weighted>
0.0000

> <Gold.Chemscore.DEClash.Weighted>
0.6208

> <Gold.Chemscore.DEInternal.Weighted>
1.9285

> <Gold.Chemscore.Rot.Weighted>
3.5657

> <Gold.Chemscore.Internal.Correction.Weighted>
   9.000000E+99

> <Gold.Protein.RotatedTorsions>
[ 6907 6896 6895 6894 ] final  -39.32 input  -60.11 | X-H torsion
[ 7974 7965 7964 7962 ] final   30.33 input  175.53 | X-H torsion
[ 8008 7997 7996 7995 ] final  138.56 input   59.86 | X-H torsion
[ 10167 10162 10161 10158 ] final  -30.28 input  -65.29 | X-H torsion
[ 10718 10713 10712 10709 ] final  -64.89 input   66.30 | X-H torsion
[ 10763 10752 10751 10750 ] final  124.77 input  -60.55 | X-H torsion
[ 11005 11000 10999 10996 ] final  124.19 input  -57.11 | X-H torsion

> <Gold.Protein.ActiveResidues>
 VAL166  LYS551  ARG553  GLY616  TRP617  ASP618  TYR619  PRO620  LYS621  CYS622 
 ASP623  PHE694  ASN695  SER759  ASP760  ASP761  ALA762  ILE779  LEU786  VAL792 
 PHE793  MET794  SER795  GLU796  ALA797  LYS798  CYS799  TRP800  GLU811  SER814 

> <Gold.Protein.RotatedAtoms>
  150.9917  134.9250  159.7903 H   0  0  0  0  0  0  0  0  0  0  0  0  # atno 6907 bound_to 6896
  152.5253  134.3272  159.9180 H   0  0  0  0  0  0  0  0  0  0  0  0  # atno 6908 bound_to 6896
  151.3278  133.3972  159.2694 H   0  0  0  0  0  0  0  0  0  0  0  0  # atno 6909 bound_to 6896
  146.1618  139.6803  142.9028 H   0  0  0  0  0  0  0  0  0  0  0  0  # atno 7974 bound_to 7965
  156.2996  140.2390  156.4093 H   0  0  0  0  0  0  0  0  0  0  0  0  # atno 8008 bound_to 7997
  154.8456  140.0426  157.1590 H   0  0  0  0  0  0  0  0  0  0  0  0  # atno 8009 bound_to 7997
  154.9055  140.2983  155.5298 H   0  0  0  0  0  0  0  0  0  0  0  0  # atno 8010 bound_to 7997
  140.7251  143.3861  151.1513 H   0  0  0  0  0  0  0  0  0  0  0  0  # atno 10167 bound_to 10162
  156.0702  130.4239  150.1485 H   0  0  0  0  0  0  0  0  0  0  0  0  # atno 10718 bound_to 10713
  153.6667  135.3337  155.3142 H   0  0  0  0  0  0  0  0  0  0  0  0  # atno 10763 bound_to 10752
  154.8501  135.4376  154.1748 H   0  0  0  0  0  0  0  0  0  0  0  0  # atno 10764 bound_to 10752
  153.2728  135.7002  153.7539 H   0  0  0  0  0  0  0  0  0  0  0  0  # atno 10765 bound_to 10752
  139.9347  134.9640  156.8371 H   0  0  0  0  0  0  0  0  0  0  0  0  # atno 11005 bound_to 11000
  145.4569  141.0431  143.2773 LP  0  0  0  0  0  0  0  0  0  0  0  0  # atno 17320 bound_to 7965
  144.8037  139.6091  143.7060 LP  0  0  0  0  0  0  0  0  0  0  0  0  # atno 17321 bound_to 7965
  139.7458  143.8854  152.3063 LP  0  0  0  0  0  0  0  0  0  0  0  0  # atno 17342 bound_to 10162
  139.8691  144.7078  150.9009 LP  0  0  0  0  0  0  0  0  0  0  0  0  # atno 17343 bound_to 10162
  156.9537  130.9783  151.3493 LP  0  0  0  0  0  0  0  0  0  0  0  0  # atno 17370 bound_to 10713
  157.5768  130.8348  149.8467 LP  0  0  0  0  0  0  0  0  0  0  0  0  # atno 17371 bound_to 10713
  140.6108  134.0084  155.7576 LP  0  0  0  0  0  0  0  0  0  0  0  0  # atno 17394 bound_to 11000
  141.0954  133.9851  157.3168 LP  0  0  0  0  0  0  0  0  0  0  0  0  # atno 17395 bound_to 11000

$$$$
