AV-unprocessed.smi:1905|AV-procd|sdf|7726|dock4
  -GOLD-   22720 9463D 1   1.00000     0.00000
 Structure written by MMmdl.
 38 39  0  0  0  0  0  0  0  0  1 V2000
  151.8233  138.6589  155.9426 C   0  0  0  0  0  0  0  0  0  0  0  0
  151.6532  138.3071  154.4630 C   0  0  0  0  0  0  0  0  0  0  0  0
  150.2614  138.2264  154.1718 O   0  0  0  0  0  0  0  0  0  0  0  0
  149.5093  139.3859  154.1907 C   0  0  0  0  0  0  0  0  0  0  0  0
  150.0582  140.5022  154.7319 N   0  0  0  0  0  0  0  0  0  0  0  0
  149.3269  141.6350  154.7474 C   0  0  0  0  0  0  0  0  0  0  0  0
  148.0241  141.7173  154.2238 C   0  0  0  0  0  0  0  0  0  0  0  0
  147.4521  140.5608  153.6617 C   0  0  0  0  0  0  0  0  0  0  0  0
  148.2028  139.3593  153.6486 C   0  0  0  0  0  0  0  0  0  0  0  0
  147.7395  138.1312  153.0977 N   0  0  0  0  0  0  0  0  0  0  0  0
  146.4963  137.6213  153.0723 C   0  0  0  0  0  0  0  0  0  0  0  0
  145.4941  138.1491  153.5526 O   0  0  0  0  0  0  0  0  0  0  0  0
  146.4796  136.4307  152.4569 N   0  0  0  0  0  0  0  0  0  0  0  0
  145.2943  135.6042  152.2547 C   0  0  0  0  0  0  0  0  0  0  0  0
  145.3920  134.7371  150.9840 C   0  0  1  0  0  0  0  0  0  0  0  0
  146.4653  133.6564  151.0542 C   0  0  0  0  0  0  0  0  0  0  0  0
  145.8337  132.4454  150.3589 C   0  0  0  0  0  0  0  0  0  0  0  0
  144.6190  132.9221  149.7980 O   0  0  0  0  0  0  0  0  0  0  0  0
  144.1311  133.9397  150.6547 C   0  0  0  0  0  0  0  0  0  0  0  0
  152.8783  138.7261  156.2089 H   0  0  0  0  0  0  0  0  0  0  0  0
  151.3648  137.9023  156.5797 H   0  0  0  0  0  0  0  0  0  0  0  0
  151.3581  139.6179  156.1723 H   0  0  0  0  0  0  0  0  0  0  0  0
  152.1300  139.0726  153.8484 H   0  0  0  0  0  0  0  0  0  0  0  0
  152.1402  137.3530  154.2551 H   0  0  0  0  0  0  0  0  0  0  0  0
  149.7963  142.5027  155.1869 H   0  0  0  0  0  0  0  0  0  0  0  0
  147.4765  142.6477  154.2499 H   0  0  0  0  0  0  0  0  0  0  0  0
  146.4596  140.6286  153.2463 H   0  0  0  0  0  0  0  0  0  0  0  0
  148.4615  137.5435  152.7073 H   0  0  0  0  0  0  0  0  0  0  0  0
  147.3509  136.0715  152.0950 H   0  0  0  0  0  0  0  0  0  0  0  0
  145.1301  134.9738  153.1300 H   0  0  0  0  0  0  0  0  0  0  0  0
  144.4329  136.2692  152.1876 H   0  0  0  0  0  0  0  0  0  0  0  0
  145.6183  135.3736  150.1269 H   0  0  0  0  0  0  0  0  0  0  0  0
  147.3776  133.9811  150.5526 H   0  0  0  0  0  0  0  0  0  0  0  0
  146.7254  133.4043  152.0830 H   0  0  0  0  0  0  0  0  0  0  0  0
  146.4787  132.0208  149.5895 H   0  0  0  0  0  0  0  0  0  0  0  0
  145.6094  131.6623  151.0844 H   0  0  0  0  0  0  0  0  0  0  0  0
  143.6976  133.4898  151.5496 H   0  0  0  0  0  0  0  0  0  0  0  0
  143.3664  134.5431  150.1650 H   0  0  0  0  0  0  0  0  0  0  0  0
  1  2  1  0  0  0  0
  1 20  1  0  0  0  0
  1 21  1  0  0  0  0
  1 22  1  0  0  0  0
  2  3  1  0  0  0  0
  2 23  1  0  0  0  0
  2 24  1  0  0  0  0
  3  4  1  0  0  0  0
  4  9  1  0  0  0  0
  4  5  2  0  0  0  0
  5  6  1  0  0  0  0
  6  7  2  0  0  0  0
  6 25  1  0  0  0  0
  7  8  1  0  0  0  0
  7 26  1  0  0  0  0
  8  9  2  0  0  0  0
  8 27  1  0  0  0  0
  9 10  1  0  0  0  0
 10 11  1  0  0  0  0
 10 28  1  0  0  0  0
 11 12  2  0  0  0  0
 11 13  1  0  0  0  0
 13 14  1  0  0  0  0
 13 29  1  0  0  0  0
 14 15  1  0  0  0  0
 14 30  1  0  0  0  0
 14 31  1  0  0  0  0
 15 19  1  0  0  0  0
 15 16  1  0  0  0  0
 15 32  1  0  0  0  0
 16 17  1  0  0  0  0
 16 33  1  0  0  0  0
 16 34  1  0  0  0  0
 17 18  1  0  0  0  0
 17 35  1  0  0  0  0
 17 36  1  0  0  0  0
 18 19  1  0  0  0  0
 19 37  1  0  0  0  0
 19 38  1  0  0  0  0
M  END
> <s_m_source_file>
AV-unprocessed.smi

> <i_m_source_file_index>
1905

> <i_lp_mmshare_version>
43012

> <i_f3d_flags>
0

> <s_epik_input>
W0NIM11bQ0gyXU9jMW5bY0hdW2NIXVtjSF1jMVtOSF1DKD1PKVtOSF1bQ0gyXVtDQEBIXTJbQ0gyXVtDSDJdT1tDSDJdMg==

> <s_epik_cmdline>
J2VwaWtfcHl0aG9uJywgJy1waCcsICc3LjAnLCAnLXRuJywgJzgnLCAnLW1hJywgJzIwMCcsICctbWV0YWxfYmluZGluZycsICctaW1hZScsICc8aW5maWxlLm1hZT4nLCAnLW9tYWUnLCAnPG91dGZpbGUubWFlPic=

> <r_lp_tautomer_probability>
1

> <r_epik_Ionization_Penalty>
0.000115153

> <r_epik_Ionization_Penalty_Charging>
0

> <r_epik_Ionization_Penalty_Neutral>
0.000115153

> <r_epik_State_Penalty>
-0

> <r_epik_Charging_Adjusted_Penalty>
0

> <i_epik_Tot_Q>
0

> <i_epik_Tot_abs_Q>
0

> <r_epik_Metal_State_Penalty>
-0

> <b_epik_Metal_Only>
0

> <s_lp_Force_Field>
OPLS_2005

> <r_lp_Energy>
21.5364

> <b_lp_Chiralities_Consistent>
1

> <s_lp_Variant>
AV-unprocessed.smi:1905-2

> <Gold.Version>
5.8.1

> <Gold.Id.Protein>
6NUR|6NUR_protein|mol2

> <Gold.PLP.Fitness>
43.2563

> <Gold.PLP.PLP>
-32.7076

> <Gold.PLP.part.hbond>
-3.0647

> <Gold.PLP.part.metal>
0.0000

> <Gold.PLP.part.buried>
-1.8095

> <Gold.PLP.part.nonpolar>
-28.2458

> <Gold.PLP.part.repulsive>
0.7572

> <Gold.PLP.ligand.clash>
0.0000

> <Gold.PLP.ligand.torsion>
0.5964

> <Gold.PLP.Chemscore.Hbond>
2.9120

> <Gold.PLP.Chemscore.CHOScore>
1.0000

> <Gold.PLP.Chemscore.Metal>
0.0000

> <Gold.Chemscore.Hbonds>
donor molecule, donor type, donor heavy atom, donor atom, acceptor molecule, acceptor atom, score
      L1  H    10    28       P1  7948  1.00
      L1  H    13    29       P1  7948  1.00
      P1  H  7989  7998       L1     5  0.91
      L1  C     6    25       P1  8028  1.00

> <Gold.PLP.Chemscore.Internal.Correction>
0.0055

> <Gold.Rescore>
     Score         DG    S(hbond)    S(metal)    S(lipo)     H(rot)  DE(clash)    DE(int)     intcor
     15.54     -17.46       2.33        0.00      71.26       1.61       0.19       1.74       ----

> <Gold.Chemscore.Fitness>
15.5358

> <Gold.Chemscore.DG>
-17.4602

> <Gold.Chemscore.ZeroCoef>
-5.4800

> <Gold.Chemscore.Hbond>
2.3271

> <Gold.Chemscore.Metal>
0.0000

> <Gold.Chemscore.Lipo>
71.2578

> <Gold.Chemscore.Internal_Hbond>
0.0000

> <Gold.Chemscore.DEClash>
0.1879

> <Gold.Chemscore.DEInternal>
1.7365

> <Gold.Chemscore.Rot>
1.6131

> <Gold.Chemscore.Internal.Correction>
   9.000000E+99

> <Gold.Chemscore.Hbonds>
donor molecule, donor type, donor heavy atom, donor atom, acceptor molecule, acceptor atom, score
      L1  H    10    28       P1  7948  0.96
      L1  H    13    29       P1  7948  0.94
      P1  H  7989  7998       L1     5  0.17

> <Gold.Chemscore.Hbond.Weighted>
-7.7726

> <Gold.Chemscore.Metal.Weighted>
-0.0000

> <Gold.Chemscore.Lipo.Weighted>
-8.3372

> <Gold.Chemscore.Internal_Hbond.Weighted>
0.0000

> <Gold.Chemscore.DEClash.Weighted>
0.1879

> <Gold.Chemscore.DEInternal.Weighted>
1.7365

> <Gold.Chemscore.Rot.Weighted>
4.1296

> <Gold.Chemscore.Internal.Correction.Weighted>
   9.000000E+99

> <Gold.Protein.RotatedTorsions>
[ 6907 6896 6895 6894 ] final  -92.53 input  -60.11 | X-H torsion
[ 7974 7965 7964 7962 ] final -114.49 input  175.53 | X-H torsion
[ 8008 7997 7996 7995 ] final   85.43 input   59.86 | X-H torsion
[ 10167 10162 10161 10158 ] final  -23.24 input  -65.29 | X-H torsion
[ 10718 10713 10712 10709 ] final   87.24 input   66.30 | X-H torsion
[ 10763 10752 10751 10750 ] final  101.01 input  -60.55 | X-H torsion
[ 11005 11000 10999 10996 ] final  -51.79 input  -57.11 | X-H torsion

> <Gold.Protein.ActiveResidues>
 VAL166  LYS551  ARG553  GLY616  TRP617  ASP618  TYR619  PRO620  LYS621  CYS622 
 ASP623  PHE694  ASN695  SER759  ASP760  ASP761  ALA762  ILE779  LEU786  VAL792 
 PHE793  MET794  SER795  GLU796  ALA797  LYS798  CYS799  TRP800  GLU811  SER814 

> <Gold.Protein.RotatedAtoms>
  150.6907  134.2108  159.4358 H   0  0  0  0  0  0  0  0  0  0  0  0  # atno 6907 bound_to 6896
  152.0070  134.9895  160.0576 H   0  0  0  0  0  0  0  0  0  0  0  0  # atno 6908 bound_to 6896
  152.1524  133.4495  159.4857 H   0  0  0  0  0  0  0  0  0  0  0  0  # atno 6909 bound_to 6896
  145.1196  140.8661  143.3822 H   0  0  0  0  0  0  0  0  0  0  0  0  # atno 7974 bound_to 7965
  155.9499  140.3401  155.6398 H   0  0  0  0  0  0  0  0  0  0  0  0  # atno 8008 bound_to 7997
  155.6934  140.0751  157.2457 H   0  0  0  0  0  0  0  0  0  0  0  0  # atno 8009 bound_to 7997
  154.4119  140.1653  156.2098 H   0  0  0  0  0  0  0  0  0  0  0  0  # atno 8010 bound_to 7997
  140.7287  143.4461  151.0584 H   0  0  0  0  0  0  0  0  0  0  0  0  # atno 10167 bound_to 10162
  157.6938  131.0248  150.3094 H   0  0  0  0  0  0  0  0  0  0  0  0  # atno 10718 bound_to 10713
  153.3212  135.4059  155.1418 H   0  0  0  0  0  0  0  0  0  0  0  0  # atno 10763 bound_to 10752
  154.8601  135.3588  154.5594 H   0  0  0  0  0  0  0  0  0  0  0  0  # atno 10764 bound_to 10752
  153.6028  135.7070  153.5437 H   0  0  0  0  0  0  0  0  0  0  0  0  # atno 10765 bound_to 10752
  141.0890  133.6636  156.3929 H   0  0  0  0  0  0  0  0  0  0  0  0  # atno 11005 bound_to 11000
  145.0755  139.2999  143.5810 LP  0  0  0  0  0  0  0  0  0  0  0  0  # atno 17320 bound_to 7965
  146.3522  140.0244  142.8656 LP  0  0  0  0  0  0  0  0  0  0  0  0  # atno 17321 bound_to 7965
  139.8133  143.7920  152.3173 LP  0  0  0  0  0  0  0  0  0  0  0  0  # atno 17342 bound_to 10162
  139.7977  144.7386  150.9867 LP  0  0  0  0  0  0  0  0  0  0  0  0  # atno 17343 bound_to 10162
  156.3598  130.3845  149.7261 LP  0  0  0  0  0  0  0  0  0  0  0  0  # atno 17370 bound_to 10713
  156.4711  130.7997  151.3015 LP  0  0  0  0  0  0  0  0  0  0  0  0  # atno 17371 bound_to 10713
  140.5296  134.6225  157.5345 LP  0  0  0  0  0  0  0  0  0  0  0  0  # atno 17394 bound_to 11000
  139.9712  134.7289  156.0037 LP  0  0  0  0  0  0  0  0  0  0  0  0  # atno 17395 bound_to 11000

$$$$
