AV-unprocessed.smi:3035|AV-procd|sdf|11581|dock10
  -GOLD-   2272016553D 1   1.00000     0.00000
 Structure written by MMmdl.
 38 39  0  0  0  0  0  0  0  0  1 V2000
  147.0748  134.1010  162.6531 C   0  0  0  0  0  0  0  0  0  0  0  0
  147.8039  135.0619  161.9097 O   0  0  0  0  0  0  0  0  0  0  0  0
  147.1234  135.4726  160.7357 C   0  0  0  0  0  0  0  0  0  0  0  0
  148.0409  136.2738  159.8619 C   0  0  0  0  0  0  0  0  0  0  0  0
  149.1253  135.8872  159.3048 N   0  0  0  0  0  0  0  0  0  0  0  0
  149.5456  136.9719  158.6526 N   0  0  0  0  0  0  0  0  0  0  0  0
  150.7671  136.9540  157.8556 C   0  0  0  0  0  0  0  0  0  0  0  0
  151.9116  137.6829  158.5752 C   0  0  0  0  0  0  0  0  0  0  0  0
  151.5183  139.0417  158.9199 N   0  0  0  0  0  0  0  0  0  0  0  0
  152.2893  140.1226  158.7324 C   0  0  0  0  0  0  0  0  0  0  0  0
  153.4190  140.0648  158.2452 O   0  0  0  0  0  0  0  0  0  0  0  0
  151.6930  141.4729  159.1641 C   0  0  0  0  0  0  0  0  0  0  0  0
  151.4991  142.4316  157.9658 C   0  0  0  0  0  0  0  0  0  0  0  0
  152.3707  143.6661  158.2319 C   0  0  0  0  0  0  0  0  0  0  0  0
  153.3945  143.2226  159.2729 C   0  0  0  0  0  0  0  0  0  0  0  0
  152.6270  142.2213  160.1345 C   0  0  0  0  0  0  0  0  0  0  0  0
  148.6902  138.0449  158.8169 C   0  0  0  0  0  0  0  0  0  0  0  0
  148.7734  139.1811  158.3535 O   0  0  0  0  0  0  0  0  0  0  0  0
  147.7129  137.5814  159.6078 O   0  0  0  0  0  0  0  0  0  0  0  0
  147.6384  133.8215  163.5432 H   0  0  0  0  0  0  0  0  0  0  0  0
  146.9014  133.1975  162.0669 H   0  0  0  0  0  0  0  0  0  0  0  0
  146.1120  134.4995  162.9756 H   0  0  0  0  0  0  0  0  0  0  0  0
  146.7598  134.5990  160.1920 H   0  0  0  0  0  0  0  0  0  0  0  0
  146.2528  136.0749  160.9999 H   0  0  0  0  0  0  0  0  0  0  0  0
  151.0473  135.9193  157.6515 H   0  0  0  0  0  0  0  0  0  0  0  0
  150.5759  137.4191  156.8871 H   0  0  0  0  0  0  0  0  0  0  0  0
  152.1848  137.1440  159.4840 H   0  0  0  0  0  0  0  0  0  0  0  0
  152.7983  137.7156  157.9397 H   0  0  0  0  0  0  0  0  0  0  0  0
  150.6025  139.1696  159.3255 H   0  0  0  0  0  0  0  0  0  0  0  0
  150.7347  141.2945  159.6550 H   0  0  0  0  0  0  0  0  0  0  0  0
  151.7947  141.9692  157.0225 H   0  0  0  0  0  0  0  0  0  0  0  0
  150.4527  142.7175  157.8551 H   0  0  0  0  0  0  0  0  0  0  0  0
  152.8385  144.0510  157.3252 H   0  0  0  0  0  0  0  0  0  0  0  0
  151.7539  144.4638  158.6481 H   0  0  0  0  0  0  0  0  0  0  0  0
  154.2320  142.7261  158.7807 H   0  0  0  0  0  0  0  0  0  0  0  0
  153.7937  144.0560  159.8516 H   0  0  0  0  0  0  0  0  0  0  0  0
  152.0284  142.7577  160.8720 H   0  0  0  0  0  0  0  0  0  0  0  0
  153.2992  141.5633  160.6877 H   0  0  0  0  0  0  0  0  0  0  0  0
  1  2  1  0  0  0  0
  1 20  1  0  0  0  0
  1 21  1  0  0  0  0
  1 22  1  0  0  0  0
  2  3  1  0  0  0  0
  3  4  1  0  0  0  0
  3 23  1  0  0  0  0
  3 24  1  0  0  0  0
  4 19  1  0  0  0  0
  4  5  2  0  0  0  0
  5  6  1  0  0  0  0
  6  7  1  0  0  0  0
  6 17  1  0  0  0  0
  7  8  1  0  0  0  0
  7 25  1  0  0  0  0
  7 26  1  0  0  0  0
  8  9  1  0  0  0  0
  8 27  1  0  0  0  0
  8 28  1  0  0  0  0
  9 10  1  0  0  0  0
  9 29  1  0  0  0  0
 10 11  2  0  0  0  0
 10 12  1  0  0  0  0
 12 16  1  0  0  0  0
 12 13  1  0  0  0  0
 12 30  1  0  0  0  0
 13 14  1  0  0  0  0
 13 31  1  0  0  0  0
 13 32  1  0  0  0  0
 14 15  1  0  0  0  0
 14 33  1  0  0  0  0
 14 34  1  0  0  0  0
 15 16  1  0  0  0  0
 15 35  1  0  0  0  0
 15 36  1  0  0  0  0
 16 37  1  0  0  0  0
 16 38  1  0  0  0  0
 17 18  2  0  0  0  0
 17 19  1  0  0  0  0
M  END
> <s_m_source_file>
AV-unprocessed.smi

> <i_m_source_file_index>
3035

> <i_lp_mmshare_version>
43012

> <i_f3d_flags>
0

> <s_epik_input>
W0NIM11PW0NIMl1jMW5uKGMoPU8pbzEpW0NIMl1bQ0gyXVtOSF1DKD1PKVtDSF0yW0NIMl1bQ0gyXVtDSDJdW0NIMl0y

> <s_epik_cmdline>
J2VwaWtfcHl0aG9uJywgJy1waCcsICc3LjAnLCAnLXRuJywgJzgnLCAnLW1hJywgJzIwMCcsICctbWV0YWxfYmluZGluZycsICctaW1hZScsICc8aW5maWxlLm1hZT4nLCAnLW9tYWUnLCAnPG91dGZpbGUubWFlPic=

> <r_lp_tautomer_probability>
1

> <r_epik_Ionization_Penalty>
6.81406e-08

> <r_epik_Ionization_Penalty_Charging>
1.21446e-09

> <r_epik_Ionization_Penalty_Neutral>
6.69261e-08

> <r_epik_State_Penalty>
-0

> <r_epik_Charging_Adjusted_Penalty>
1.21446e-09

> <i_epik_Tot_Q>
0

> <i_epik_Tot_abs_Q>
0

> <r_epik_Metal_State_Penalty>
-0

> <b_epik_Metal_Only>
0

> <s_lp_Force_Field>
OPLS_2005

> <r_lp_Energy>
26.4396

> <b_lp_Chiralities_Consistent>
1

> <s_lp_Variant>
AV-unprocessed.smi:3035-1

> <Gold.Version>
5.8.1

> <Gold.Id.Protein>
6NUR|6NUR_protein|mol2

> <Gold.PLP.Fitness>
40.1711

> <Gold.PLP.PLP>
-33.3720

> <Gold.PLP.part.hbond>
-3.6184

> <Gold.PLP.part.metal>
0.0000

> <Gold.PLP.part.buried>
-3.2125

> <Gold.PLP.part.nonpolar>
-26.2499

> <Gold.PLP.part.repulsive>
0.1345

> <Gold.PLP.ligand.clash>
0.0000

> <Gold.PLP.ligand.torsion>
0.3882

> <Gold.PLP.Chemscore.Hbond>
2.5171

> <Gold.PLP.Chemscore.CHOScore>
0.0000

> <Gold.PLP.Chemscore.Metal>
0.0000

> <Gold.Chemscore.Hbonds>
donor molecule, donor type, donor heavy atom, donor atom, acceptor molecule, acceptor atom, score
      P1  H  6896  6907       L1     5  1.00
      P1  H  6934  6947       L1    19  0.66
      P1  H  7997  8009       L1    11  1.00

> <Gold.PLP.Chemscore.Internal.Correction>
0.0240

> <Gold.Rescore>
     Score         DG    S(hbond)    S(metal)    S(lipo)     H(rot)  DE(clash)    DE(int)     intcor
     15.35     -16.10       2.18        0.00      80.26       2.36       0.18       0.56       ----

> <Gold.Chemscore.Fitness>
15.3540

> <Gold.Chemscore.DG>
-16.1006

> <Gold.Chemscore.ZeroCoef>
-5.4800

> <Gold.Chemscore.Hbond>
2.1762

> <Gold.Chemscore.Metal>
0.0000

> <Gold.Chemscore.Lipo>
80.2593

> <Gold.Chemscore.Internal_Hbond>
0.0000

> <Gold.Chemscore.DEClash>
0.1831

> <Gold.Chemscore.DEInternal>
0.5635

> <Gold.Chemscore.Rot>
2.3587

> <Gold.Chemscore.Internal.Correction>
   9.000000E+99

> <Gold.Chemscore.Hbonds>
donor molecule, donor type, donor heavy atom, donor atom, acceptor molecule, acceptor atom, score
      P1  H  6896  6907       L1     5  0.58
      P1  H  6934  6947       L1    19  0.41
      P1  H  7997  8009       L1    11  0.95

> <Gold.Chemscore.Hbond.Weighted>
-7.2685

> <Gold.Chemscore.Metal.Weighted>
-0.0000

> <Gold.Chemscore.Lipo.Weighted>
-9.3903

> <Gold.Chemscore.Internal_Hbond.Weighted>
0.0000

> <Gold.Chemscore.DEClash.Weighted>
0.1831

> <Gold.Chemscore.DEInternal.Weighted>
0.5635

> <Gold.Chemscore.Rot.Weighted>
6.0382

> <Gold.Chemscore.Internal.Correction.Weighted>
   9.000000E+99

> <Gold.Protein.RotatedTorsions>
[ 6907 6896 6895 6894 ] final  -58.54 input  -60.11 | X-H torsion
[ 7974 7965 7964 7962 ] final -162.73 input  175.53 | X-H torsion
[ 8008 7997 7996 7995 ] final  146.99 input   59.86 | X-H torsion
[ 10167 10162 10161 10158 ] final  -60.28 input  -65.29 | X-H torsion
[ 10718 10713 10712 10709 ] final -119.45 input   66.30 | X-H torsion
[ 10763 10752 10751 10750 ] final -126.93 input  -60.55 | X-H torsion
[ 11005 11000 10999 10996 ] final  -41.72 input  -57.11 | X-H torsion

> <Gold.Protein.ActiveResidues>
 VAL166  LYS551  ARG553  GLY616  TRP617  ASP618  TYR619  PRO620  LYS621  CYS622 
 ASP623  PHE694  ASN695  SER759  ASP760  ASP761  ALA762  ILE779  LEU786  VAL792 
 PHE793  MET794  SER795  GLU796  ALA797  LYS798  CYS799  TRP800  GLU811  SER814 

> <Gold.Protein.RotatedAtoms>
  150.7999  134.7085  159.6590 H   0  0  0  0  0  0  0  0  0  0  0  0  # atno 6907 bound_to 6896
  152.4115  134.6113  160.0036 H   0  0  0  0  0  0  0  0  0  0  0  0  # atno 6908 bound_to 6896
  151.6354  133.3292  159.3154 H   0  0  0  0  0  0  0  0  0  0  0  0  # atno 6909 bound_to 6896
  144.7348  140.3210  143.6171 H   0  0  0  0  0  0  0  0  0  0  0  0  # atno 7974 bound_to 7965
  156.2839  140.2167  156.5465 H   0  0  0  0  0  0  0  0  0  0  0  0  # atno 8008 bound_to 7997
  154.7326  140.0494  157.0763 H   0  0  0  0  0  0  0  0  0  0  0  0  # atno 8009 bound_to 7997
  155.0333  140.3137  155.4753 H   0  0  0  0  0  0  0  0  0  0  0  0  # atno 8010 bound_to 7997
  140.6081  143.2379  151.5773 H   0  0  0  0  0  0  0  0  0  0  0  0  # atno 10167 bound_to 10162
  156.1182  130.6302  150.9418 H   0  0  0  0  0  0  0  0  0  0  0  0  # atno 10718 bound_to 10713
  154.8749  135.3979  154.3511 H   0  0  0  0  0  0  0  0  0  0  0  0  # atno 10763 bound_to 10752
  153.4297  135.7025  153.6244 H   0  0  0  0  0  0  0  0  0  0  0  0  # atno 10764 bound_to 10752
  153.4871  135.3756  155.2442 H   0  0  0  0  0  0  0  0  0  0  0  0  # atno 10765 bound_to 10752
  141.0266  133.6839  156.2496 H   0  0  0  0  0  0  0  0  0  0  0  0  # atno 11005 bound_to 11000
  145.7569  139.1812  143.2289 LP  0  0  0  0  0  0  0  0  0  0  0  0  # atno 17320 bound_to 7965
  146.1017  140.7536  142.9546 LP  0  0  0  0  0  0  0  0  0  0  0  0  # atno 17321 bound_to 7965
  139.5340  144.2833  152.1212 LP  0  0  0  0  0  0  0  0  0  0  0  0  # atno 17342 bound_to 10162
  140.2026  144.4642  150.6424 LP  0  0  0  0  0  0  0  0  0  0  0  0  # atno 17343 bound_to 10162
  157.6366  131.0915  150.8337 LP  0  0  0  0  0  0  0  0  0  0  0  0  # atno 17370 bound_to 10713
  156.8437  130.5057  149.5318 LP  0  0  0  0  0  0  0  0  0  0  0  0  # atno 17371 bound_to 10713
  140.6481  134.5096  157.5575 LP  0  0  0  0  0  0  0  0  0  0  0  0  # atno 17394 bound_to 11000
  139.9180  134.8207  156.1304 LP  0  0  0  0  0  0  0  0  0  0  0  0  # atno 17395 bound_to 11000

$$$$
