AV-unprocessed.smi:2562|AV-procd|sdf|10048|dock2
  -GOLD-   2272014 93D 1   1.00000     0.00000
 Structure written by MMmdl.
 30 31  0  0  0  0  0  0  0  0  1 V2000
  152.0153  145.2453  159.7666 C   0  0  0  0  0  0  0  0  0  0  0  0
  151.9008  144.3174  160.9810 C   0  0  0  0  0  0  0  0  0  0  0  0
  152.4277  142.9035  160.6956 C   0  0  0  0  0  0  0  0  0  0  0  0
  151.7776  142.2909  159.4994 C   0  0  0  0  0  0  0  0  0  0  0  0
  150.4615  142.3722  159.3123 N   0  0  0  0  0  0  0  0  0  0  0  0
  150.3093  141.7484  158.1255 N   0  0  0  0  0  0  0  0  0  0  0  0
  151.5025  141.3472  157.6777 C   0  0  0  0  0  0  0  0  0  0  0  0
  151.6861  140.6525  156.3644 C   0  0  2  0  0  0  0  0  0  0  0  0
  150.3437  140.3636  155.6638 C   0  0  0  0  0  0  0  0  0  0  0  0
  150.5663  139.6119  154.4294 N   0  0  0  0  0  0  0  0  0  0  0  0
  151.3322  138.3924  154.6819 C   0  0  0  0  0  0  0  0  0  0  0  0
  152.6477  138.7278  155.4069 C   0  0  0  0  0  0  0  0  0  0  0  0
  152.3614  139.4215  156.6166 O   0  0  0  0  0  0  0  0  0  0  0  0
  152.4886  141.6784  158.5052 N   0  0  0  0  0  0  0  0  0  0  0  0
  149.4135  141.6265  157.6752 H   0  0  0  0  0  0  0  0  0  0  0  0
  151.6322  146.2390  159.9996 H   0  0  0  0  0  0  0  0  0  0  0  0
  151.4459  144.8589  158.9211 H   0  0  0  0  0  0  0  0  0  0  0  0
  153.0534  145.3542  159.4515 H   0  0  0  0  0  0  0  0  0  0  0  0
  152.4515  144.7515  161.8163 H   0  0  0  0  0  0  0  0  0  0  0  0
  150.8575  144.2618  161.2943 H   0  0  0  0  0  0  0  0  0  0  0  0
  153.5063  142.9329  160.5353 H   0  0  0  0  0  0  0  0  0  0  0  0
  152.2614  142.2599  161.5607 H   0  0  0  0  0  0  0  0  0  0  0  0
  152.3117  141.2857  155.7322 H   0  0  0  0  0  0  0  0  0  0  0  0
  149.6948  139.7942  156.3307 H   0  0  0  0  0  0  0  0  0  0  0  0
  149.8254  141.2974  155.4443 H   0  0  0  0  0  0  0  0  0  0  0  0
  149.6729  139.3725  154.0110 H   0  0  0  0  0  0  0  0  0  0  0  0
  150.7447  137.7038  155.2901 H   0  0  0  0  0  0  0  0  0  0  0  0
  151.5415  137.8801  153.7426 H   0  0  0  0  0  0  0  0  0  0  0  0
  153.1888  137.8121  155.6449 H   0  0  0  0  0  0  0  0  0  0  0  0
  153.3020  139.3282  154.7725 H   0  0  0  0  0  0  0  0  0  0  0  0
  1  2  1  0  0  0  0
  1 16  1  0  0  0  0
  1 17  1  0  0  0  0
  1 18  1  0  0  0  0
  2  3  1  0  0  0  0
  2 19  1  0  0  0  0
  2 20  1  0  0  0  0
  3  4  1  0  0  0  0
  3 21  1  0  0  0  0
  3 22  1  0  0  0  0
  4 14  1  0  0  0  0
  4  5  2  0  0  0  0
  5  6  1  0  0  0  0
  6 15  1  0  0  0  0
  6  7  1  0  0  0  0
  7  8  1  0  0  0  0
  7 14  2  0  0  0  0
  8 13  1  0  0  0  0
  8  9  1  0  0  0  0
  8 23  1  0  0  0  0
  9 10  1  0  0  0  0
  9 24  1  0  0  0  0
  9 25  1  0  0  0  0
 10 11  1  0  0  0  0
 10 26  1  0  0  0  0
 11 12  1  0  0  0  0
 11 27  1  0  0  0  0
 11 28  1  0  0  0  0
 12 13  1  0  0  0  0
 12 29  1  0  0  0  0
 12 30  1  0  0  0  0
M  END
> <s_m_source_file>
AV-unprocessed.smi

> <i_m_source_file_index>
2562

> <i_lp_mmshare_version>
43012

> <i_f3d_flags>
0

> <s_epik_input>
W0NIM11bQ0gyXVtDSDJdYzFuW25IXWMobjEpW0NAQEhdMltDSDJdW05IXVtDSDJdW0NIMl1PMg==

> <s_epik_cmdline>
J2VwaWtfcHl0aG9uJywgJy1waCcsICc3LjAnLCAnLXRuJywgJzgnLCAnLW1hJywgJzIwMCcsICctbWV0YWxfYmluZGluZycsICctaW1hZScsICc8aW5maWxlLm1hZT4nLCAnLW9tYWUnLCAnPG91dGZpbGUubWFlPic=

> <r_lp_tautomer_probability>
0.948284

> <r_epik_Ionization_Penalty>
0.982917

> <r_epik_Ionization_Penalty_Charging>
0

> <r_epik_Ionization_Penalty_Neutral>
0.982917

> <r_epik_State_Penalty>
1.68334

> <r_epik_Charging_Adjusted_Penalty>
1.68334

> <i_epik_Tot_Q>
0

> <i_epik_Tot_abs_Q>
0

> <r_epik_Metal_State_Penalty>
1.80323

> <b_epik_Metal_Only>
0

> <s_lp_Force_Field>
OPLS_2005

> <r_lp_Energy>
10.5925

> <b_lp_Chiralities_Consistent>
1

> <s_lp_Variant>
AV-unprocessed.smi:2562-7

> <Gold.Version>
5.8.1

> <Gold.Id.Protein>
6NUR|6NUR_protein|mol2

> <Gold.PLP.Fitness>
35.8126

> <Gold.PLP.PLP>
-31.2694

> <Gold.PLP.part.hbond>
-3.3723

> <Gold.PLP.part.metal>
0.0000

> <Gold.PLP.part.buried>
-3.3967

> <Gold.PLP.part.nonpolar>
-24.2101

> <Gold.PLP.part.repulsive>
0.1225

> <Gold.PLP.ligand.clash>
0.0000

> <Gold.PLP.ligand.torsion>
0.2012

> <Gold.PLP.Chemscore.Hbond>
1.6443

> <Gold.PLP.Chemscore.CHOScore>
0.0000

> <Gold.PLP.Chemscore.Metal>
0.0000

> <Gold.Chemscore.Hbonds>
donor molecule, donor type, donor heavy atom, donor atom, acceptor molecule, acceptor atom, score
      P1  H  7989  7998       L1    10  1.00
      P1  H  7997  8008       L1    13  0.25

> <Gold.PLP.Chemscore.Internal.Correction>
0.0125

> <Gold.Rescore>
     Score         DG    S(hbond)    S(metal)    S(lipo)     H(rot)  DE(clash)    DE(int)     intcor
     10.26     -10.36       0.27        0.00      66.20       1.48       0.03       0.06       ----

> <Gold.Chemscore.Fitness>
10.2619

> <Gold.Chemscore.DG>
-10.3560

> <Gold.Chemscore.ZeroCoef>
-5.4800

> <Gold.Chemscore.Hbond>
0.2728

> <Gold.Chemscore.Metal>
0.0000

> <Gold.Chemscore.Lipo>
66.2006

> <Gold.Chemscore.Internal_Hbond>
0.0000

> <Gold.Chemscore.DEClash>
0.0306

> <Gold.Chemscore.DEInternal>
0.0635

> <Gold.Chemscore.Rot>
1.4769

> <Gold.Chemscore.Internal.Correction>
   9.000000E+99

> <Gold.Chemscore.Hbonds>
donor molecule, donor type, donor heavy atom, donor atom, acceptor molecule, acceptor atom, score
      P1  H  7989  7998       L1    10  0.18

> <Gold.Chemscore.Hbond.Weighted>
-0.9113

> <Gold.Chemscore.Metal.Weighted>
-0.0000

> <Gold.Chemscore.Lipo.Weighted>
-7.7455

> <Gold.Chemscore.Internal_Hbond.Weighted>
0.0000

> <Gold.Chemscore.DEClash.Weighted>
0.0306

> <Gold.Chemscore.DEInternal.Weighted>
0.0635

> <Gold.Chemscore.Rot.Weighted>
3.7808

> <Gold.Chemscore.Internal.Correction.Weighted>
   9.000000E+99

> <Gold.Protein.RotatedTorsions>
[ 6907 6896 6895 6894 ] final   59.02 input  -60.11 | X-H torsion
[ 7974 7965 7964 7962 ] final  127.45 input  175.53 | X-H torsion
[ 8008 7997 7996 7995 ] final  -54.73 input   59.86 | X-H torsion
[ 10167 10162 10161 10158 ] final   86.88 input  -65.29 | X-H torsion
[ 10718 10713 10712 10709 ] final   80.46 input   66.30 | X-H torsion
[ 10763 10752 10751 10750 ] final   33.46 input  -60.55 | X-H torsion
[ 11005 11000 10999 10996 ] final -165.58 input  -57.11 | X-H torsion

> <Gold.Protein.ActiveResidues>
 VAL166  LYS551  ARG553  GLY616  TRP617  ASP618  TYR619  PRO620  LYS621  CYS622 
 ASP623  PHE694  ASN695  SER759  ASP760  ASP761  ALA762  ILE779  LEU786  VAL792 
 PHE793  MET794  SER795  GLU796  ALA797  LYS798  CYS799  TRP800  GLU811  SER814 

> <Gold.Protein.RotatedAtoms>
  152.3877  134.6491  160.0119 H   0  0  0  0  0  0  0  0  0  0  0  0  # atno 6907 bound_to 6896
  151.6735  133.3308  159.3210 H   0  0  0  0  0  0  0  0  0  0  0  0  # atno 6908 bound_to 6896
  150.7799  134.6779  159.6472 H   0  0  0  0  0  0  0  0  0  0  0  0  # atno 6909 bound_to 6896
  145.0504  139.3887  143.5057 H   0  0  0  0  0  0  0  0  0  0  0  0  # atno 7974 bound_to 7965
  154.4172  140.1169  156.5363 H   0  0  0  0  0  0  0  0  0  0  0  0  # atno 8008 bound_to 7997
  155.6554  140.3496  155.4744 H   0  0  0  0  0  0  0  0  0  0  0  0  # atno 8009 bound_to 7997
  155.9758  140.1150  157.0761 H   0  0  0  0  0  0  0  0  0  0  0  0  # atno 8010 bound_to 7997
  139.8830  144.6429  150.8822 H   0  0  0  0  0  0  0  0  0  0  0  0  # atno 10167 bound_to 10162
  157.6806  130.9960  150.2083 H   0  0  0  0  0  0  0  0  0  0  0  0  # atno 10718 bound_to 10713
  153.0211  135.6386  154.1515 H   0  0  0  0  0  0  0  0  0  0  0  0  # atno 10763 bound_to 10752
  154.1250  135.2844  155.3201 H   0  0  0  0  0  0  0  0  0  0  0  0  # atno 10764 bound_to 10752
  154.6236  135.5516  153.7664 H   0  0  0  0  0  0  0  0  0  0  0  0  # atno 10765 bound_to 10752
  140.5741  134.5208  157.5167 H   0  0  0  0  0  0  0  0  0  0  0  0  # atno 11005 bound_to 11000
  146.3517  140.0152  142.8663 LP  0  0  0  0  0  0  0  0  0  0  0  0  # atno 17320 bound_to 7965
  145.1534  140.9635  143.4419 LP  0  0  0  0  0  0  0  0  0  0  0  0  # atno 17321 bound_to 7965
  140.7741  143.3570  151.1901 LP  0  0  0  0  0  0  0  0  0  0  0  0  # atno 17342 bound_to 10162
  139.7178  143.9271  152.2974 LP  0  0  0  0  0  0  0  0  0  0  0  0  # atno 17343 bound_to 10162
  156.2759  130.3727  149.7984 LP  0  0  0  0  0  0  0  0  0  0  0  0  # atno 17370 bound_to 10713
  156.5687  130.8415  151.3350 LP  0  0  0  0  0  0  0  0  0  0  0  0  # atno 17371 bound_to 10713
  139.9348  134.7896  156.0832 LP  0  0  0  0  0  0  0  0  0  0  0  0  # atno 17394 bound_to 11000
  141.1038  133.6667  156.2816 LP  0  0  0  0  0  0  0  0  0  0  0  0  # atno 17395 bound_to 11000

$$$$
