AV-unprocessed.smi:1261|AV-procd|sdf|5307|dock4
  -GOLD-   22720 4433D 1   1.00000     0.00000
 Structure written by MMmdl.
 50 51  0  0  0  0  0  0  0  0  2 V2000
  152.7525  142.2734  159.3663 C   0  0  0  0  0  0  0  0  0  0  0  0
  151.6234  141.7157  158.4883 C   0  0  2  0  0  0  0  0  0  0  0  0
  152.1707  140.7615  157.4121 C   0  0  0  0  0  0  0  0  0  0  0  0
  151.0400  140.2445  156.5052 C   0  0  2  0  0  0  0  0  0  0  0  0
  151.5827  139.3149  155.4107 C   0  0  0  0  0  0  0  0  0  0  0  0
  150.2625  141.4320  155.8994 C   0  0  0  0  0  0  0  0  0  0  0  0
  149.7286  142.3449  156.9440 N   0  3  1  0  0  0  0  0  0  0  0  0
  148.5357  141.8051  157.6508 C   0  0  0  0  0  0  0  0  0  0  0  0
  147.5106  141.1864  156.6856 C   0  0  0  0  0  0  0  0  0  0  0  0
  146.1777  140.8619  157.3797 C   0  0  0  0  0  0  0  0  0  0  0  0
  145.7247  141.9695  158.2118 N   0  0  0  0  0  0  0  0  0  0  0  0
  144.4632  142.4301  158.2721 C   0  0  0  0  0  0  0  0  0  0  0  0
  143.5473  141.9426  157.6109 O   0  0  0  0  0  0  0  0  0  0  0  0
  144.1586  143.6090  159.2136 C   0  0  0  0  0  0  0  0  0  0  0  0
  145.3064  144.0952  159.9964 N   0  0  0  0  0  0  0  0  0  0  0  0
  145.7107  145.3804  159.6674 N   0  0  0  0  0  0  0  0  0  0  0  0
  146.7087  145.9199  160.2818 C   0  0  0  0  0  0  0  0  0  0  0  0
  147.0745  147.1948  159.9261 O   0  0  0  0  0  0  0  0  0  0  0  0
  147.4243  145.2067  161.3167 C   0  0  0  0  0  0  0  0  0  0  0  0
  147.0217  143.9562  161.6320 C   0  0  0  0  0  0  0  0  0  0  0  0
  145.8909  143.3160  160.9579 C   0  0  0  0  0  0  0  0  0  0  0  0
  145.4942  142.1845  161.2344 O   0  0  0  0  0  0  0  0  0  0  0  0
  150.8091  142.8532  157.8333 C   0  0  0  0  0  0  0  0  0  0  0  0
  147.4717  147.1141  159.0728 H   0  0  0  0  0  0  0  0  0  0  0  0
  153.4601  142.8598  158.7793 H   0  0  0  0  0  0  0  0  0  0  0  0
  153.3077  141.4693  159.8502 H   0  0  0  0  0  0  0  0  0  0  0  0
  152.3572  142.9181  160.1518 H   0  0  0  0  0  0  0  0  0  0  0  0
  150.9647  141.1452  159.1431 H   0  0  0  0  0  0  0  0  0  0  0  0
  152.9190  141.2777  156.8086 H   0  0  0  0  0  0  0  0  0  0  0  0
  152.6807  139.9215  157.8855 H   0  0  0  0  0  0  0  0  0  0  0  0
  150.3540  139.6572  157.1171 H   0  0  0  0  0  0  0  0  0  0  0  0
  152.2821  139.8366  154.7565 H   0  0  0  0  0  0  0  0  0  0  0  0
  150.7750  138.9246  154.7908 H   0  0  0  0  0  0  0  0  0  0  0  0
  152.1055  138.4617  155.8439 H   0  0  0  0  0  0  0  0  0  0  0  0
  150.9235  142.0078  155.2499 H   0  0  0  0  0  0  0  0  0  0  0  0
  149.4510  141.0773  155.2625 H   0  0  0  0  0  0  0  0  0  0  0  0
  148.8589  141.0228  158.3387 H   0  0  0  0  0  0  0  0  0  0  0  0
  148.0671  142.5728  158.2659 H   0  0  0  0  0  0  0  0  0  0  0  0
  147.3201  141.8649  155.8549 H   0  0  0  0  0  0  0  0  0  0  0  0
  147.9238  140.2748  156.2519 H   0  0  0  0  0  0  0  0  0  0  0  0
  145.4070  140.6647  156.6342 H   0  0  0  0  0  0  0  0  0  0  0  0
  146.2678  139.9555  157.9808 H   0  0  0  0  0  0  0  0  0  0  0  0
  146.4204  142.4261  158.7843 H   0  0  0  0  0  0  0  0  0  0  0  0
  143.7302  144.4219  158.6251 H   0  0  0  0  0  0  0  0  0  0  0  0
  143.3607  143.2970  159.8896 H   0  0  0  0  0  0  0  0  0  0  0  0
  148.2599  145.6701  161.8206 H   0  0  0  0  0  0  0  0  0  0  0  0
  147.5471  143.4118  162.4029 H   0  0  0  0  0  0  0  0  0  0  0  0
  150.4023  143.5178  158.5941 H   0  0  0  0  0  0  0  0  0  0  0  0
  151.4753  143.4703  157.2286 H   0  0  0  0  0  0  0  0  0  0  0  0
  149.3835  143.1489  156.4393 H   0  0  0  0  0  0  0  0  0  0  0  0
  1  2  1  0  0  0  0
  1 25  1  0  0  0  0
  1 26  1  0  0  0  0
  1 27  1  0  0  0  0
  2 23  1  0  0  0  0
  2  3  1  0  0  0  0
  2 28  1  0  0  0  0
  3  4  1  0  0  0  0
  3 29  1  0  0  0  0
  3 30  1  0  0  0  0
  4  5  1  0  0  0  0
  4  6  1  0  0  0  0
  4 31  1  0  0  0  0
  5 32  1  0  0  0  0
  5 33  1  0  0  0  0
  5 34  1  0  0  0  0
  6  7  1  0  0  0  0
  6 35  1  0  0  0  0
  6 36  1  0  0  0  0
  7  8  1  0  0  0  0
  7 23  1  0  0  0  0
  7 50  1  0  0  0  0
  8  9  1  0  0  0  0
  8 37  1  0  0  0  0
  8 38  1  0  0  0  0
  9 10  1  0  0  0  0
  9 39  1  0  0  0  0
  9 40  1  0  0  0  0
 10 11  1  0  0  0  0
 10 41  1  0  0  0  0
 10 42  1  0  0  0  0
 11 12  1  0  0  0  0
 11 43  1  0  0  0  0
 12 13  2  0  0  0  0
 12 14  1  0  0  0  0
 14 44  1  0  0  0  0
 14 45  1  0  0  0  0
 14 15  1  0  0  0  0
 15 16  1  0  0  0  0
 15 21  1  0  0  0  0
 16 17  2  0  0  0  0
 17 18  1  0  0  0  0
 17 19  1  0  0  0  0
 18 24  1  0  0  0  0
 19 46  1  0  0  0  0
 19 20  2  0  0  0  0
 20 47  1  0  0  0  0
 20 21  1  0  0  0  0
 21 22  2  0  0  0  0
 23 48  1  0  0  0  0
 23 49  1  0  0  0  0
M  CHG  1   7   1
M  END
> <s_m_source_file>
AV-unprocessed.smi

> <i_m_source_file_index>
1261

> <i_lp_mmshare_version>
43012

> <i_f3d_flags>
0

> <s_epik_input>
W0NIM11bQ0BASF0xW0NIMl1bQ0BASF0oW0NIM10pW0NIMl1OKFtDSDJdMSlbQ0gyXVtDSDJdW0NIMl1bTkhdQyg9TylbQ0gyXW4yW25IXWMoPU8pW2NIXVtjSF1jMj1P

> <s_epik_cmdline>
J2VwaWtfcHl0aG9uJywgJy1waCcsICc3LjAnLCAnLXRuJywgJzgnLCAnLW1hJywgJzIwMCcsICctbWV0YWxfYmluZGluZycsICctaW1hZScsICc8aW5maWxlLm1hZT4nLCAnLW9tYWUnLCAnPG91dGZpbGUubWFlPic=

> <r_lp_tautomer_probability>
0.9996

> <r_epik_Ionization_Penalty>
2.1425

> <r_epik_Ionization_Penalty_Charging>
0.000312112

> <r_epik_Ionization_Penalty_Neutral>
2.14218

> <r_epik_State_Penalty>
1.71978

> <r_epik_Charging_Adjusted_Penalty>
1.72009

> <i_epik_Tot_Q>
1

> <i_epik_Tot_abs_Q>
1

> <r_epik_Metal_State_Penalty>
1.71978

> <b_epik_Metal_Only>
0

> <s_lp_Force_Field>
OPLS_2005

> <r_lp_Energy>
29.2022

> <b_lp_Chiralities_Consistent>
1

> <s_lp_Variant>
AV-unprocessed.smi:1261-7

> <Gold.Version>
5.8.1

> <Gold.Id.Protein>
6NUR|6NUR_protein|mol2

> <Gold.PLP.Fitness>
47.4482

> <Gold.PLP.PLP>
-35.9618

> <Gold.PLP.part.hbond>
-4.8306

> <Gold.PLP.part.metal>
0.0000

> <Gold.PLP.part.buried>
-5.7330

> <Gold.PLP.part.nonpolar>
-25.2713

> <Gold.PLP.part.repulsive>
0.2231

> <Gold.PLP.ligand.clash>
0.0000

> <Gold.PLP.ligand.torsion>
0.2873

> <Gold.PLP.Chemscore.Hbond>
3.9516

> <Gold.PLP.Chemscore.CHOScore>
0.0000

> <Gold.PLP.Chemscore.Metal>
0.0000

> <Gold.Chemscore.Hbonds>
donor molecule, donor type, donor heavy atom, donor atom, acceptor molecule, acceptor atom, score
      L1  H     7    50       P1  8028  2.00
      L1  H    18    24       P1  8029  0.75
      P1  H  6934  6946       L1    22  0.91

> <Gold.PLP.Chemscore.Internal.Correction>
0.2062

> <Gold.Rescore>
     Score         DG    S(hbond)    S(metal)    S(lipo)     H(rot)  DE(clash)    DE(int)     intcor
     14.28     -14.66       2.63        0.00      71.96       3.14       0.08       0.31       ----

> <Gold.Chemscore.Fitness>
14.2761

> <Gold.Chemscore.DG>
-14.6640

> <Gold.Chemscore.ZeroCoef>
-5.4800

> <Gold.Chemscore.Hbond>
2.6321

> <Gold.Chemscore.Metal>
0.0000

> <Gold.Chemscore.Lipo>
71.9569

> <Gold.Chemscore.Internal_Hbond>
0.0000

> <Gold.Chemscore.DEClash>
0.0816

> <Gold.Chemscore.DEInternal>
0.3062

> <Gold.Chemscore.Rot>
3.1352

> <Gold.Chemscore.Internal.Correction>
   9.000000E+99

> <Gold.Chemscore.Hbonds>
donor molecule, donor type, donor heavy atom, donor atom, acceptor molecule, acceptor atom, score
      L1  H     7    50       P1  8028  1.00
      L1  H    18    24       P1  8029  0.70
      P1  H  6934  6946       L1    22  0.65

> <Gold.Chemscore.Hbond.Weighted>
-8.7911

> <Gold.Chemscore.Metal.Weighted>
-0.0000

> <Gold.Chemscore.Lipo.Weighted>
-8.4190

> <Gold.Chemscore.Internal_Hbond.Weighted>
0.0000

> <Gold.Chemscore.DEClash.Weighted>
0.0816

> <Gold.Chemscore.DEInternal.Weighted>
0.3062

> <Gold.Chemscore.Rot.Weighted>
8.0260

> <Gold.Chemscore.Internal.Correction.Weighted>
   9.000000E+99

> <Gold.Protein.RotatedTorsions>
[ 6907 6896 6895 6894 ] final  100.31 input  -60.11 | X-H torsion
[ 7974 7965 7964 7962 ] final  109.81 input  175.53 | X-H torsion
[ 8008 7997 7996 7995 ] final  -65.46 input   59.86 | X-H torsion
[ 10167 10162 10161 10158 ] final   68.39 input  -65.29 | X-H torsion
[ 10718 10713 10712 10709 ] final  -73.02 input   66.30 | X-H torsion
[ 10763 10752 10751 10750 ] final -128.34 input  -60.55 | X-H torsion
[ 11005 11000 10999 10996 ] final  123.57 input  -57.11 | X-H torsion

> <Gold.Protein.ActiveResidues>
 VAL166  LYS551  ARG553  GLY616  TRP617  ASP618  TYR619  PRO620  LYS621  CYS622 
 ASP623  PHE694  ASN695  SER759  ASP760  ASP761  ALA762  ILE779  LEU786  VAL792 
 PHE793  MET794  SER795  GLU796  ALA797  LYS798  CYS799  TRP800  GLU811  SER814 

> <Gold.Protein.RotatedAtoms>
  152.5375  134.0297  159.8018 H   0  0  0  0  0  0  0  0  0  0  0  0  # atno 6907 bound_to 6896
  151.0470  133.5649  159.2653 H   0  0  0  0  0  0  0  0  0  0  0  0  # atno 6908 bound_to 6896
  151.2598  135.0657  159.9147 H   0  0  0  0  0  0  0  0  0  0  0  0  # atno 6909 bound_to 6896
  145.2631  139.2695  143.4006 H   0  0  0  0  0  0  0  0  0  0  0  0  # atno 7974 bound_to 7965
  154.4673  140.0932  156.7054 H   0  0  0  0  0  0  0  0  0  0  0  0  # atno 8008 bound_to 7997
  155.4821  140.3468  155.4323 H   0  0  0  0  0  0  0  0  0  0  0  0  # atno 8009 bound_to 7997
  156.0979  140.1414  156.9495 H   0  0  0  0  0  0  0  0  0  0  0  0  # atno 8010 bound_to 7997
  140.0792  144.5085  150.7173 H   0  0  0  0  0  0  0  0  0  0  0  0  # atno 10167 bound_to 10162
  156.0296  130.4385  150.2680 H   0  0  0  0  0  0  0  0  0  0  0  0  # atno 10718 bound_to 10713
  154.8756  135.3932  154.3740 H   0  0  0  0  0  0  0  0  0  0  0  0  # atno 10763 bound_to 10752
  153.4496  135.7028  153.6122 H   0  0  0  0  0  0  0  0  0  0  0  0  # atno 10764 bound_to 10752
  153.4668  135.3799  155.2337 H   0  0  0  0  0  0  0  0  0  0  0  0  # atno 10765 bound_to 10752
  139.9319  134.9641  156.8280 H   0  0  0  0  0  0  0  0  0  0  0  0  # atno 11005 bound_to 11000
  146.3269  140.3053  142.8623 LP  0  0  0  0  0  0  0  0  0  0  0  0  # atno 17320 bound_to 7965
  144.9401  140.8069  143.5636 LP  0  0  0  0  0  0  0  0  0  0  0  0  # atno 17321 bound_to 7965
  140.7086  143.2487  151.4650 LP  0  0  0  0  0  0  0  0  0  0  0  0  # atno 17342 bound_to 10162
  139.5789  144.1754  152.1942 LP  0  0  0  0  0  0  0  0  0  0  0  0  # atno 17343 bound_to 10162
  157.0783  131.0136  151.3166 LP  0  0  0  0  0  0  0  0  0  0  0  0  # atno 17370 bound_to 10713
  157.4947  130.7843  149.7543 LP  0  0  0  0  0  0  0  0  0  0  0  0  # atno 17371 bound_to 10713
  140.6180  134.0021  155.7605 LP  0  0  0  0  0  0  0  0  0  0  0  0  # atno 17394 bound_to 11000
  141.0912  133.9914  157.3234 LP  0  0  0  0  0  0  0  0  0  0  0  0  # atno 17395 bound_to 11000

$$$$
