AV-unprocessed.smi:2443|AV-procd|sdf|9631|dock2
  -GOLD-   2272013263D 1   1.00000     0.00000
 Structure written by MMmdl.
 37 39  0  0  0  0  0  0  0  0  1 V2000
  153.4024  138.7398  154.6051 C   0  0  0  0  0  0  0  0  0  0  0  0
  152.7663  139.6705  155.4737 O   0  0  0  0  0  0  0  0  0  0  0  0
  151.4828  140.0738  155.1685 C   0  0  0  0  0  0  0  0  0  0  0  0
  150.6475  139.2159  154.4240 C   0  0  0  0  0  0  0  0  0  0  0  0
  149.3419  139.6691  154.1296 C   0  0  0  0  0  0  0  0  0  0  0  0
  148.5339  138.7764  153.3774 N   0  0  0  0  0  0  0  0  0  0  0  0
  147.1926  138.7451  153.2910 C   0  0  0  0  0  0  0  0  0  0  0  0
  146.4238  139.5203  153.8604 O   0  0  0  0  0  0  0  0  0  0  0  0
  146.7812  137.7498  152.4929 N   0  0  0  0  0  0  0  0  0  0  0  0
  145.3879  137.4390  152.1935 C   0  0  0  0  0  0  0  0  0  0  0  0
  145.0211  135.9593  152.1787 C   0  0  0  0  0  0  0  0  0  0  0  0
  145.4443  135.1952  150.9271 C   0  0  0  0  0  0  0  0  0  0  0  0
  144.8229  133.8524  150.6175 C   0  0  0  0  0  0  0  0  0  0  0  0
  146.2915  133.9374  150.9461 C   0  0  0  0  0  0  0  0  0  0  0  0
  145.0988  135.2010  153.4905 C   0  0  0  0  0  0  0  0  0  0  0  0
  143.7560  135.5697  152.9286 C   0  0  0  0  0  0  0  0  0  0  0  0
  148.9348  140.8875  154.5639 N   0  0  0  0  0  0  0  0  0  0  0  0
  149.8006  141.6235  155.2630 C   0  0  0  0  0  0  0  0  0  0  0  0
  151.0488  141.2863  155.5891 N   0  0  0  0  0  0  0  0  0  0  0  0
  154.4011  138.5193  154.9814 H   0  0  0  0  0  0  0  0  0  0  0  0
  153.5102  139.1439  153.5975 H   0  0  0  0  0  0  0  0  0  0  0  0
  152.8524  137.7989  154.5567 H   0  0  0  0  0  0  0  0  0  0  0  0
  151.0009  138.2508  154.0914 H   0  0  0  0  0  0  0  0  0  0  0  0
  149.0348  138.0822  152.8429 H   0  0  0  0  0  0  0  0  0  0  0  0
  147.4800  137.1594  152.0660 H   0  0  0  0  0  0  0  0  0  0  0  0
  144.7376  137.9775  152.8851 H   0  0  0  0  0  0  0  0  0  0  0  0
  145.1740  137.8466  151.2053 H   0  0  0  0  0  0  0  0  0  0  0  0
  145.6039  135.8332  150.0598 H   0  0  0  0  0  0  0  0  0  0  0  0
  144.1677  133.4135  151.3671 H   0  0  0  0  0  0  0  0  0  0  0  0
  144.5478  133.6533  149.5837 H   0  0  0  0  0  0  0  0  0  0  0  0
  146.9950  133.7994  150.1276 H   0  0  0  0  0  0  0  0  0  0  0  0
  146.6005  133.5020  151.8922 H   0  0  0  0  0  0  0  0  0  0  0  0
  145.3860  134.1520  153.4507 H   0  0  0  0  0  0  0  0  0  0  0  0
  145.4384  135.7392  154.3733 H   0  0  0  0  0  0  0  0  0  0  0  0
  143.2069  136.3602  153.4366 H   0  0  0  0  0  0  0  0  0  0  0  0
  143.1401  134.7506  152.5689 H   0  0  0  0  0  0  0  0  0  0  0  0
  149.4554  142.5895  155.5996 H   0  0  0  0  0  0  0  0  0  0  0  0
  1  2  1  0  0  0  0
  1 20  1  0  0  0  0
  1 21  1  0  0  0  0
  1 22  1  0  0  0  0
  2  3  1  0  0  0  0
  3 19  1  0  0  0  0
  3  4  2  0  0  0  0
  4  5  1  0  0  0  0
  4 23  1  0  0  0  0
  5  6  1  0  0  0  0
  5 17  2  0  0  0  0
  6  7  1  0  0  0  0
  6 24  1  0  0  0  0
  7  8  2  0  0  0  0
  7  9  1  0  0  0  0
  9 10  1  0  0  0  0
  9 25  1  0  0  0  0
 10 11  1  0  0  0  0
 10 26  1  0  0  0  0
 10 27  1  0  0  0  0
 11 16  1  0  0  0  0
 11 12  1  0  0  0  0
 11 15  1  0  0  0  0
 12 14  1  0  0  0  0
 12 13  1  0  0  0  0
 12 28  1  0  0  0  0
 13 14  1  0  0  0  0
 13 29  1  0  0  0  0
 13 30  1  0  0  0  0
 14 31  1  0  0  0  0
 14 32  1  0  0  0  0
 15 16  1  0  0  0  0
 15 33  1  0  0  0  0
 15 34  1  0  0  0  0
 16 35  1  0  0  0  0
 16 36  1  0  0  0  0
 17 18  1  0  0  0  0
 18 19  2  0  0  0  0
 18 37  1  0  0  0  0
M  END
> <s_m_source_file>
AV-unprocessed.smi

> <i_m_source_file_index>
2443

> <i_lp_mmshare_version>
43012

> <i_f3d_flags>
0

> <s_epik_input>
W0NIM11PYzFbY0hdYyhuW2NIXW4xKVtOSF1DKD1PKVtOSF1bQ0gyXUMyKFtDSDJdW0NIMl0yKVtDSF0zW0NIMl1bQ0gyXTM=

> <s_epik_cmdline>
J2VwaWtfcHl0aG9uJywgJy1waCcsICc3LjAnLCAnLXRuJywgJzgnLCAnLW1hJywgJzIwMCcsICctbWV0YWxfYmluZGluZycsICctaW1hZScsICc8aW5maWxlLm1hZT4nLCAnLW9tYWUnLCAnPG91dGZpbGUubWFlPic=

> <r_lp_tautomer_probability>
1

> <r_epik_Ionization_Penalty>
2.73859e-05

> <r_epik_Ionization_Penalty_Charging>
0

> <r_epik_Ionization_Penalty_Neutral>
2.73859e-05

> <r_epik_State_Penalty>
-0

> <r_epik_Charging_Adjusted_Penalty>
0

> <i_epik_Tot_Q>
0

> <i_epik_Tot_abs_Q>
0

> <r_epik_Metal_State_Penalty>
-0

> <b_epik_Metal_Only>
0

> <s_lp_Force_Field>
OPLS_2005

> <r_lp_Energy>
26.0575

> <b_lp_Chiralities_Consistent>
1

> <s_lp_Variant>
AV-unprocessed.smi:2443-1

> <Gold.Version>
5.8.1

> <Gold.Id.Protein>
6NUR|6NUR_protein|mol2

> <Gold.PLP.Fitness>
43.7191

> <Gold.PLP.PLP>
-33.6202

> <Gold.PLP.part.hbond>
-4.8333

> <Gold.PLP.part.metal>
0.0000

> <Gold.PLP.part.buried>
-1.6128

> <Gold.PLP.part.nonpolar>
-27.7459

> <Gold.PLP.part.repulsive>
0.3968

> <Gold.PLP.ligand.clash>
0.0000

> <Gold.PLP.ligand.torsion>
2.2183

> <Gold.PLP.Chemscore.Hbond>
2.9920

> <Gold.PLP.Chemscore.CHOScore>
1.0000

> <Gold.PLP.Chemscore.Metal>
0.0000

> <Gold.Chemscore.Hbonds>
donor molecule, donor type, donor heavy atom, donor atom, acceptor molecule, acceptor atom, score
      L1  H     6    24       P1  7948  0.87
      L1  H     9    25       P1  7948  1.00
      P1  H  7997  8008       L1     2  0.60
      L1  C    18    37       P1  8028  1.00

> <Gold.PLP.Chemscore.Internal.Correction>
2.5596

> <Gold.Rescore>
     Score         DG    S(hbond)    S(metal)    S(lipo)     H(rot)  DE(clash)    DE(int)     intcor
     12.02     -15.98       2.78        0.00      51.09       1.86       0.71       3.25       ----

> <Gold.Chemscore.Fitness>
12.0150

> <Gold.Chemscore.DG>
-15.9829

> <Gold.Chemscore.ZeroCoef>
-5.4800

> <Gold.Chemscore.Hbond>
2.7820

> <Gold.Chemscore.Metal>
0.0000

> <Gold.Chemscore.Lipo>
51.0900

> <Gold.Chemscore.Internal_Hbond>
0.0000

> <Gold.Chemscore.DEClash>
0.7149

> <Gold.Chemscore.DEInternal>
3.2530

> <Gold.Chemscore.Rot>
1.8619

> <Gold.Chemscore.Internal.Correction>
   9.000000E+99

> <Gold.Chemscore.Hbonds>
donor molecule, donor type, donor heavy atom, donor atom, acceptor molecule, acceptor atom, score
      L1  H     6    24       P1  7948  0.81
      L1  H     9    25       P1  7948  1.00
      P1  H  7997  8008       L1     2  0.04

> <Gold.Chemscore.Hbond.Weighted>
-9.2918

> <Gold.Chemscore.Metal.Weighted>
-0.0000

> <Gold.Chemscore.Lipo.Weighted>
-5.9775

> <Gold.Chemscore.Internal_Hbond.Weighted>
0.0000

> <Gold.Chemscore.DEClash.Weighted>
0.7149

> <Gold.Chemscore.DEInternal.Weighted>
3.2530

> <Gold.Chemscore.Rot.Weighted>
4.7665

> <Gold.Chemscore.Internal.Correction.Weighted>
   9.000000E+99

> <Gold.Protein.RotatedTorsions>
[ 6907 6896 6895 6894 ] final  -54.53 input  -60.11 | X-H torsion
[ 7974 7965 7964 7962 ] final  -33.24 input  175.53 | X-H torsion
[ 8008 7997 7996 7995 ] final  -38.48 input   59.86 | X-H torsion
[ 10167 10162 10161 10158 ] final -117.59 input  -65.29 | X-H torsion
[ 10718 10713 10712 10709 ] final  178.85 input   66.30 | X-H torsion
[ 10763 10752 10751 10750 ] final  161.17 input  -60.55 | X-H torsion
[ 11005 11000 10999 10996 ] final -129.06 input  -57.11 | X-H torsion

> <Gold.Protein.ActiveResidues>
 VAL166  LYS551  ARG553  GLY616  TRP617  ASP618  TYR619  PRO620  LYS621  CYS622 
 ASP623  PHE694  ASN695  SER759  ASP760  ASP761  ALA762  ILE779  LEU786  VAL792 
 PHE793  MET794  SER795  GLU796  ALA797  LYS798  CYS799  TRP800  GLU811  SER814 

> <Gold.Protein.RotatedAtoms>
  150.8330  134.7591  159.6869 H   0  0  0  0  0  0  0  0  0  0  0  0  # atno 6907 bound_to 6896
  152.4431  134.5546  159.9886 H   0  0  0  0  0  0  0  0  0  0  0  0  # atno 6908 bound_to 6896
  151.5703  133.3353  159.3024 H   0  0  0  0  0  0  0  0  0  0  0  0  # atno 6909 bound_to 6896
  146.0926  140.5892  142.8857 H   0  0  0  0  0  0  0  0  0  0  0  0  # atno 7974 bound_to 7965
  154.4036  140.1577  156.2707 H   0  0  0  0  0  0  0  0  0  0  0  0  # atno 8008 bound_to 7997
  155.8956  140.3436  155.5966 H   0  0  0  0  0  0  0  0  0  0  0  0  # atno 8009 bound_to 7997
  155.7508  140.0804  157.2193 H   0  0  0  0  0  0  0  0  0  0  0  0  # atno 8010 bound_to 7997
  140.0667  143.4916  152.2002 H   0  0  0  0  0  0  0  0  0  0  0  0  # atno 10167 bound_to 10162
  156.8845  130.9827  151.3057 H   0  0  0  0  0  0  0  0  0  0  0  0  # atno 10718 bound_to 10713
  154.2588  135.2769  155.2787 H   0  0  0  0  0  0  0  0  0  0  0  0  # atno 10763 bound_to 10752
  154.5402  135.5705  153.6836 H   0  0  0  0  0  0  0  0  0  0  0  0  # atno 10764 bound_to 10752
  152.9966  135.6249  154.2737 H   0  0  0  0  0  0  0  0  0  0  0  0  # atno 10765 bound_to 10752
  140.9463  134.1125  157.4104 H   0  0  0  0  0  0  0  0  0  0  0  0  # atno 11005 bound_to 11000
  144.7371  140.4840  143.6895 LP  0  0  0  0  0  0  0  0  0  0  0  0  # atno 17320 bound_to 7965
  145.6009  139.1504  143.3129 LP  0  0  0  0  0  0  0  0  0  0  0  0  # atno 17321 bound_to 7965
  139.5860  144.7531  151.3518 LP  0  0  0  0  0  0  0  0  0  0  0  0  # atno 17342 bound_to 10162
  140.7145  143.7302  150.7629 LP  0  0  0  0  0  0  0  0  0  0  0  0  # atno 17343 bound_to 10162
  157.6121  130.8590  149.8968 LP  0  0  0  0  0  0  0  0  0  0  0  0  # atno 17370 bound_to 10713
  156.0660  130.3692  150.0877 LP  0  0  0  0  0  0  0  0  0  0  0  0  # atno 17371 bound_to 10713
  139.8834  135.0052  156.6301 LP  0  0  0  0  0  0  0  0  0  0  0  0  # atno 17394 bound_to 11000
  140.7664  133.8775  155.8458 LP  0  0  0  0  0  0  0  0  0  0  0  0  # atno 17395 bound_to 11000

$$$$
