AV-unprocessed.smi:2100|AV-procd|sdf|8575|dock1
  -GOLD-   2272011303D 1   1.00000     0.00000
 Structure written by MMmdl.
 41 42  0  0  0  0  0  0  0  0  1 V2000
  148.3244  137.0134  159.2688 C   0  0  0  0  0  0  0  0  0  0  0  0
  149.1417  136.9396  157.9745 C   0  0  1  0  0  0  0  0  0  0  0  0
  149.9252  138.2378  157.7147 C   0  0  0  0  0  0  0  0  0  0  0  0
  150.8021  138.0959  156.5442 N   0  0  0  0  0  0  0  0  0  0  0  0
  151.4808  139.5495  155.8911 S   0  0  0  0  0  0  0  0  0  0  0  0
  152.9145  139.3322  155.6433 O   0  0  0  0  0  0  0  0  0  0  0  0
  150.5867  140.0365  154.8299 O   0  0  0  0  0  0  0  0  0  0  0  0
  151.3218  140.5843  157.2613 N   0  0  0  0  0  0  0  0  0  0  0  0
  150.5510  141.8240  157.1509 C   0  0  0  0  0  0  0  0  0  0  0  0
  151.4526  143.0566  157.3308 C   0  0  0  0  0  0  0  0  0  0  0  0
  151.8603  143.3056  158.7744 C   0  0  0  0  0  0  0  0  0  0  0  0
  151.6675  144.5731  159.3645 C   0  0  0  0  0  0  0  0  0  0  0  0
  152.0572  144.7570  160.7055 C   0  0  0  0  0  0  0  0  0  0  0  0
  152.6281  143.6736  161.4003 C   0  0  0  0  0  0  0  0  0  0  0  0
  152.7789  142.4477  160.7224 C   0  0  0  0  0  0  0  0  0  0  0  0
  152.4034  142.2597  159.4390 N   0  0  0  0  0  0  0  0  0  0  0  0
  151.6714  136.9086  156.6155 C   0  0  0  0  0  0  0  0  0  0  0  0
  150.8675  135.6364  156.9447 C   0  0  2  0  0  0  0  0  0  0  0  0
  150.0725  135.0932  155.7451 C   0  0  0  0  0  0  0  0  0  0  0  0
  150.0427  135.8444  158.0881 O   0  0  0  0  0  0  0  0  0  0  0  0
  147.6048  137.8316  159.2326 H   0  0  0  0  0  0  0  0  0  0  0  0
  148.9685  137.1713  160.1343 H   0  0  0  0  0  0  0  0  0  0  0  0
  147.7687  136.0895  159.4314 H   0  0  0  0  0  0  0  0  0  0  0  0
  148.4485  136.7627  157.1521 H   0  0  0  0  0  0  0  0  0  0  0  0
  149.2282  139.0606  157.5547 H   0  0  0  0  0  0  0  0  0  0  0  0
  150.5351  138.4988  158.5807 H   0  0  0  0  0  0  0  0  0  0  0  0
  152.1916  140.6863  157.7848 H   0  0  0  0  0  0  0  0  0  0  0  0
  150.0496  141.8637  156.1834 H   0  0  0  0  0  0  0  0  0  0  0  0
  149.7726  141.8149  157.9143 H   0  0  0  0  0  0  0  0  0  0  0  0
  152.3548  142.9295  156.7315 H   0  0  0  0  0  0  0  0  0  0  0  0
  150.9566  143.9457  156.9384 H   0  0  0  0  0  0  0  0  0  0  0  0
  151.2321  145.3878  158.8049 H   0  0  0  0  0  0  0  0  0  0  0  0
  151.9252  145.7130  161.1901 H   0  0  0  0  0  0  0  0  0  0  0  0
  152.9420  143.7791  162.4281 H   0  0  0  0  0  0  0  0  0  0  0  0
  153.2125  141.5953  161.2242 H   0  0  0  0  0  0  0  0  0  0  0  0
  152.2133  136.7765  155.6797 H   0  0  0  0  0  0  0  0  0  0  0  0
  152.4216  137.0783  157.3888 H   0  0  0  0  0  0  0  0  0  0  0  0
  151.5790  134.8594  157.2257 H   0  0  0  0  0  0  0  0  0  0  0  0
  150.7485  134.7866  154.9484 H   0  0  0  0  0  0  0  0  0  0  0  0
  149.3957  135.8367  155.3250 H   0  0  0  0  0  0  0  0  0  0  0  0
  149.4831  134.2216  156.0295 H   0  0  0  0  0  0  0  0  0  0  0  0
  1  2  1  0  0  0  0
  1 21  1  0  0  0  0
  1 22  1  0  0  0  0
  1 23  1  0  0  0  0
  2 20  1  0  0  0  0
  2  3  1  0  0  0  0
  2 24  1  0  0  0  0
  3  4  1  0  0  0  0
  3 25  1  0  0  0  0
  3 26  1  0  0  0  0
  4  5  1  0  0  0  0
  4 17  1  0  0  0  0
  5  6  2  0  0  0  0
  5  7  2  0  0  0  0
  5  8  1  0  0  0  0
  8  9  1  0  0  0  0
  8 27  1  0  0  0  0
  9 10  1  0  0  0  0
  9 28  1  0  0  0  0
  9 29  1  0  0  0  0
 10 11  1  0  0  0  0
 10 30  1  0  0  0  0
 10 31  1  0  0  0  0
 11 16  1  0  0  0  0
 11 12  2  0  0  0  0
 12 13  1  0  0  0  0
 12 32  1  0  0  0  0
 13 14  2  0  0  0  0
 13 33  1  0  0  0  0
 14 15  1  0  0  0  0
 14 34  1  0  0  0  0
 15 16  2  0  0  0  0
 15 35  1  0  0  0  0
 17 18  1  0  0  0  0
 17 36  1  0  0  0  0
 17 37  1  0  0  0  0
 18 19  1  0  0  0  0
 18 20  1  0  0  0  0
 18 38  1  0  0  0  0
 19 39  1  0  0  0  0
 19 40  1  0  0  0  0
 19 41  1  0  0  0  0
M  END
> <s_m_source_file>
AV-unprocessed.smi

> <i_m_source_file_index>
2100

> <i_lp_mmshare_version>
43012

> <i_f3d_flags>
0

> <s_epik_input>
W0NIM11bQ0BASF0xW0NIMl1OKFtDSDJdW0NASF0oTzEpW0NIM10pUyg9TykoPU8pW05IXVtDSDJdW0NIMl1jMltjSF1bY0hdW2NIXVtjSF1uMg==

> <s_epik_cmdline>
J2VwaWtfcHl0aG9uJywgJy1waCcsICc3LjAnLCAnLXRuJywgJzgnLCAnLW1hJywgJzIwMCcsICctbWV0YWxfYmluZGluZycsICctaW1hZScsICc8aW5maWxlLm1hZT4nLCAnLW9tYWUnLCAnPG91dGZpbGUubWFlPic=

> <r_epik_Ionization_Penalty>
0.085378

> <r_epik_Ionization_Penalty_Charging>
0

> <r_epik_Ionization_Penalty_Neutral>
0.085378

> <r_epik_State_Penalty>
0.0441186

> <r_epik_Charging_Adjusted_Penalty>
0.0441186

> <i_epik_Tot_Q>
0

> <i_epik_Tot_abs_Q>
0

> <r_epik_Metal_State_Penalty>
0.24397

> <b_epik_Metal_Only>
0

> <s_lp_Force_Field>
OPLS_2005

> <r_lp_Energy>
8.75792

> <b_lp_Chiralities_Consistent>
1

> <s_lp_Variant>
AV-unprocessed.smi:2100-3

> <Gold.Version>
5.8.1

> <Gold.Id.Protein>
6NUR|6NUR_protein|mol2

> <Gold.PLP.Fitness>
45.1259

> <Gold.PLP.PLP>
-37.9975

> <Gold.PLP.part.hbond>
-3.0000

> <Gold.PLP.part.metal>
0.0000

> <Gold.PLP.part.buried>
-7.7489

> <Gold.PLP.part.nonpolar>
-28.2940

> <Gold.PLP.part.repulsive>
0.0652

> <Gold.PLP.ligand.clash>
0.0000

> <Gold.PLP.ligand.torsion>
0.9972

> <Gold.PLP.Chemscore.Hbond>
2.7520

> <Gold.PLP.Chemscore.CHOScore>
0.0000

> <Gold.PLP.Chemscore.Metal>
0.0000

> <Gold.Chemscore.Hbonds>
donor molecule, donor type, donor heavy atom, donor atom, acceptor molecule, acceptor atom, score
      P1  H  6896  6908       L1    20  0.93
      P1  H  7989  7998       L1     7  1.00
      P1  H  7997  8008       L1     6  1.00

> <Gold.PLP.Chemscore.Internal.Correction>
0.8667

> <Gold.Rescore>
     Score         DG    S(hbond)    S(metal)    S(lipo)     H(rot)  DE(clash)    DE(int)     intcor
     19.82     -21.07       2.55        0.00      97.78       1.71       0.16       1.08       ----

> <Gold.Chemscore.Fitness>
19.8245

> <Gold.Chemscore.DG>
-21.0665

> <Gold.Chemscore.ZeroCoef>
-5.4800

> <Gold.Chemscore.Hbond>
2.5490

> <Gold.Chemscore.Metal>
0.0000

> <Gold.Chemscore.Lipo>
97.7809

> <Gold.Chemscore.Internal_Hbond>
0.0000

> <Gold.Chemscore.DEClash>
0.1596

> <Gold.Chemscore.DEInternal>
1.0825

> <Gold.Chemscore.Rot>
1.7060

> <Gold.Chemscore.Internal.Correction>
   9.000000E+99

> <Gold.Chemscore.Hbonds>
donor molecule, donor type, donor heavy atom, donor atom, acceptor molecule, acceptor atom, score
      P1  H  6896  6908       L1    20  0.56
      P1  H  7989  7998       L1     7  0.70
      P1  H  7997  8008       L1     6  1.00

> <Gold.Chemscore.Hbond.Weighted>
-8.5135

> <Gold.Chemscore.Metal.Weighted>
-0.0000

> <Gold.Chemscore.Lipo.Weighted>
-11.4404

> <Gold.Chemscore.Internal_Hbond.Weighted>
0.0000

> <Gold.Chemscore.DEClash.Weighted>
0.1596

> <Gold.Chemscore.DEInternal.Weighted>
1.0825

> <Gold.Chemscore.Rot.Weighted>
4.3674

> <Gold.Chemscore.Internal.Correction.Weighted>
   9.000000E+99

> <Gold.Protein.RotatedTorsions>
[ 6907 6896 6895 6894 ] final  178.27 input  -60.11 | X-H torsion
[ 7974 7965 7964 7962 ] final  146.94 input  175.53 | X-H torsion
[ 8008 7997 7996 7995 ] final  -38.18 input   59.86 | X-H torsion
[ 10167 10162 10161 10158 ] final  136.49 input  -65.29 | X-H torsion
[ 10718 10713 10712 10709 ] final  -18.88 input   66.30 | X-H torsion
[ 10763 10752 10751 10750 ] final    7.98 input  -60.55 | X-H torsion
[ 11005 11000 10999 10996 ] final  170.02 input  -57.11 | X-H torsion

> <Gold.Protein.ActiveResidues>
 VAL166  LYS551  ARG553  GLY616  TRP617  ASP618  TYR619  PRO620  LYS621  CYS622 
 ASP623  PHE694  ASN695  SER759  ASP760  ASP761  ALA762  ILE779  LEU786  VAL792 
 PHE793  MET794  SER795  GLU796  ALA797  LYS798  CYS799  TRP800  GLU811  SER814 

> <Gold.Protein.RotatedAtoms>
  151.6905  133.3311  159.3241 H   0  0  0  0  0  0  0  0  0  0  0  0  # atno 6907 bound_to 6896
  150.7781  134.6702  159.6397 H   0  0  0  0  0  0  0  0  0  0  0  0  # atno 6908 bound_to 6896
  152.3830  134.6564  160.0188 H   0  0  0  0  0  0  0  0  0  0  0  0  # atno 6909 bound_to 6896
  144.8631  139.5966  143.5921 H   0  0  0  0  0  0  0  0  0  0  0  0  # atno 7974 bound_to 7965
  154.4041  140.1584  156.2658 H   0  0  0  0  0  0  0  0  0  0  0  0  # atno 8008 bound_to 7997
  155.8996  140.3434  155.5994 H   0  0  0  0  0  0  0  0  0  0  0  0  # atno 8009 bound_to 7997
  155.7463  140.0799  157.2213 H   0  0  0  0  0  0  0  0  0  0  0  0  # atno 8010 bound_to 7997
  139.5178  144.6461  151.5434 H   0  0  0  0  0  0  0  0  0  0  0  0  # atno 10167 bound_to 10162
  156.5534  130.4707  149.6441 H   0  0  0  0  0  0  0  0  0  0  0  0  # atno 10718 bound_to 10713
  153.2302  135.6891  153.7899 H   0  0  0  0  0  0  0  0  0  0  0  0  # atno 10763 bound_to 10752
  153.7066  135.3289  155.3238 H   0  0  0  0  0  0  0  0  0  0  0  0  # atno 10764 bound_to 10752
  154.8310  135.4580  154.1184 H   0  0  0  0  0  0  0  0  0  0  0  0  # atno 10765 bound_to 10752
  140.3039  134.7573  157.3938 H   0  0  0  0  0  0  0  0  0  0  0  0  # atno 11005 bound_to 11000
  146.2875  139.7046  142.9184 LP  0  0  0  0  0  0  0  0  0  0  0  0  # atno 17320 bound_to 7965
  145.4273  141.0412  143.2930 LP  0  0  0  0  0  0  0  0  0  0  0  0  # atno 17321 bound_to 7965
  140.6247  143.9191  150.6555 LP  0  0  0  0  0  0  0  0  0  0  0  0  # atno 17342 bound_to 10162
  140.2476  143.3617  152.1433 LP  0  0  0  0  0  0  0  0  0  0  0  0  # atno 17343 bound_to 10162
  156.2863  130.7099  151.1937 LP  0  0  0  0  0  0  0  0  0  0  0  0  # atno 17370 bound_to 10713
  157.7383  131.0542  150.5304 LP  0  0  0  0  0  0  0  0  0  0  0  0  # atno 17371 bound_to 10713
  140.1085  134.5378  155.8288 LP  0  0  0  0  0  0  0  0  0  0  0  0  # atno 17394 bound_to 11000
  141.2122  133.6717  156.6644 LP  0  0  0  0  0  0  0  0  0  0  0  0  # atno 17395 bound_to 11000

$$$$
