AV-unprocessed.smi:98|AV-procd|sdf|863|dock1
  -GOLD-   2262017313D 1   1.00000     0.00000
 Structure written by MMmdl.
 56 59  0  0  0  0  0  0  0  0  1 V2000
  151.5612  137.5615  158.3739 O   0  0  0  0  0  0  0  0  0  0  0  0
  152.6253  137.8294  157.8147 C   0  0  0  0  0  0  0  0  0  0  0  0
  152.6319  138.4925  156.4278 C   0  0  0  0  0  0  0  0  0  0  0  0
  151.8096  139.7205  156.3535 N   0  0  0  0  0  0  0  0  0  0  0  0
  150.8587  139.8341  155.3088 C   0  0  0  0  0  0  0  0  0  0  0  0
  150.7284  138.9462  154.4648 O   0  0  0  0  0  0  0  0  0  0  0  0
  150.0554  141.0510  155.3180 C   0  0  0  0  0  0  0  0  0  0  0  0
  149.1163  141.2366  154.3749 F   0  0  0  0  0  0  0  0  0  0  0  0
  150.2366  141.9950  156.2642 C   0  0  0  0  0  0  0  0  0  0  0  0
  151.1833  141.8838  157.2632 N   0  0  0  0  0  0  0  0  0  0  0  0
  151.2854  142.9717  158.3071 C   0  0  2  0  0  0  0  0  0  0  0  0
  152.7321  143.4142  158.5969 C   0  0  0  0  0  0  0  0  0  0  0  0
  152.8749  143.1540  160.0876 C   0  0  0  0  0  0  0  0  0  0  0  0
  151.4283  143.1279  160.5684 C   0  0  0  0  0  0  0  0  0  0  0  0
  150.7393  142.4982  159.4996 O   0  0  0  0  0  0  0  0  0  0  0  0
  151.9754  140.7152  157.3472 C   0  0  0  0  0  0  0  0  0  0  0  0
  152.7836  140.5611  158.2641 O   0  0  0  0  0  0  0  0  0  0  0  0
  153.8425  137.5699  158.3266 N   0  0  0  0  0  0  0  0  0  0  0  0
  154.1770  136.9575  159.5649 C   0  0  0  0  0  0  0  0  0  0  0  0
  155.3175  136.1264  159.5832 C   0  0  0  0  0  0  0  0  0  0  0  0
  155.7246  135.4946  160.7737 C   0  0  0  0  0  0  0  0  0  0  0  0
  154.9959  135.7087  161.9597 C   0  0  0  0  0  0  0  0  0  0  0  0
  155.5071  134.9058  163.4760 S   0  0  0  0  0  0  0  0  0  0  0  0
  156.8067  134.2572  163.2403 O   0  0  0  0  0  0  0  0  0  0  0  0
  155.3566  135.8653  164.5814 O   0  0  0  0  0  0  0  0  0  0  0  0
  154.3200  133.6526  163.6944 N   0  0  0  0  0  0  0  0  0  0  0  0
  153.8974  133.2779  165.0552 C   0  0  0  0  0  0  0  0  0  0  0  0
  154.5741  131.9708  165.5052 C   0  0  0  0  0  0  0  0  0  0  0  0
  154.3436  130.9479  164.5471 O   0  0  0  0  0  0  0  0  0  0  0  0
  154.9025  131.2732  163.2825 C   0  0  0  0  0  0  0  0  0  0  0  0
  154.2410  132.5461  162.7249 C   0  0  0  0  0  0  0  0  0  0  0  0
  153.8597  136.5406  161.9584 C   0  0  0  0  0  0  0  0  0  0  0  0
  153.4561  137.1715  160.7660 C   0  0  0  0  0  0  0  0  0  0  0  0
  153.6677  138.6919  156.1492 H   0  0  0  0  0  0  0  0  0  0  0  0
  152.2970  137.7628  155.6886 H   0  0  0  0  0  0  0  0  0  0  0  0
  149.6109  142.8750  156.2296 H   0  0  0  0  0  0  0  0  0  0  0  0
  150.6778  143.7998  157.9391 H   0  0  0  0  0  0  0  0  0  0  0  0
  153.4648  142.8733  157.9973 H   0  0  0  0  0  0  0  0  0  0  0  0
  152.8208  144.4778  158.3733 H   0  0  0  0  0  0  0  0  0  0  0  0
  153.3396  142.1823  160.2566 H   0  0  0  0  0  0  0  0  0  0  0  0
  153.4770  143.9075  160.5957 H   0  0  0  0  0  0  0  0  0  0  0  0
  151.3045  142.5835  161.5048 H   0  0  0  0  0  0  0  0  0  0  0  0
  151.0450  144.1405  160.7035 H   0  0  0  0  0  0  0  0  0  0  0  0
  154.6239  137.7709  157.7196 H   0  0  0  0  0  0  0  0  0  0  0  0
  155.8848  135.9648  158.6778 H   0  0  0  0  0  0  0  0  0  0  0  0
  156.5970  134.8579  160.7729 H   0  0  0  0  0  0  0  0  0  0  0  0
  154.1088  134.0824  165.7591 H   0  0  0  0  0  0  0  0  0  0  0  0
  152.8155  133.1426  165.0534 H   0  0  0  0  0  0  0  0  0  0  0  0
  155.6454  132.1074  165.6522 H   0  0  0  0  0  0  0  0  0  0  0  0
  154.1656  131.6522  166.4642 H   0  0  0  0  0  0  0  0  0  0  0  0
  155.9821  131.3931  163.3723 H   0  0  0  0  0  0  0  0  0  0  0  0
  154.7360  130.4390  162.6009 H   0  0  0  0  0  0  0  0  0  0  0  0
  153.1892  132.3459  162.5183 H   0  0  0  0  0  0  0  0  0  0  0  0
  154.6951  132.8321  161.7765 H   0  0  0  0  0  0  0  0  0  0  0  0
  153.3039  136.7095  162.8690 H   0  0  0  0  0  0  0  0  0  0  0  0
  152.5983  137.8248  160.8015 H   0  0  0  0  0  0  0  0  0  0  0  0
  1  2  2  0  0  0  0
  2  3  1  0  0  0  0
  2 18  1  0  0  0  0
  3  4  1  0  0  0  0
  3 34  1  0  0  0  0
  3 35  1  0  0  0  0
  4 16  1  0  0  0  0
  4  5  1  0  0  0  0
  5  6  2  0  0  0  0
  5  7  1  0  0  0  0
  7  8  1  0  0  0  0
  7  9  2  0  0  0  0
  9 10  1  0  0  0  0
  9 36  1  0  0  0  0
 10 11  1  0  0  0  0
 10 16  1  0  0  0  0
 11 15  1  0  0  0  0
 11 12  1  0  0  0  0
 11 37  1  0  0  0  0
 12 13  1  0  0  0  0
 12 38  1  0  0  0  0
 12 39  1  0  0  0  0
 13 14  1  0  0  0  0
 13 40  1  0  0  0  0
 13 41  1  0  0  0  0
 14 15  1  0  0  0  0
 14 42  1  0  0  0  0
 14 43  1  0  0  0  0
 16 17  2  0  0  0  0
 18 19  1  0  0  0  0
 18 44  1  0  0  0  0
 19 33  1  0  0  0  0
 19 20  2  0  0  0  0
 20 21  1  0  0  0  0
 20 45  1  0  0  0  0
 21 22  2  0  0  0  0
 21 46  1  0  0  0  0
 22 23  1  0  0  0  0
 22 32  1  0  0  0  0
 23 24  2  0  0  0  0
 23 25  2  0  0  0  0
 23 26  1  0  0  0  0
 26 31  1  0  0  0  0
 26 27  1  0  0  0  0
 27 28  1  0  0  0  0
 27 47  1  0  0  0  0
 27 48  1  0  0  0  0
 28 29  1  0  0  0  0
 28 49  1  0  0  0  0
 28 50  1  0  0  0  0
 29 30  1  0  0  0  0
 30 31  1  0  0  0  0
 30 51  1  0  0  0  0
 30 52  1  0  0  0  0
 31 53  1  0  0  0  0
 31 54  1  0  0  0  0
 32 33  2  0  0  0  0
 32 55  1  0  0  0  0
 33 56  1  0  0  0  0
M  END
> <s_m_source_file>
AV-unprocessed.smi

> <i_m_source_file_index>
98

> <i_lp_mmshare_version>
43012

> <i_f3d_flags>
0

> <s_epik_input>
TzFbQ0gyXVtDSDJdW0NIMl1bQ0BIXTFuKGMyPU8pW2NIXWMoRiljKD1PKW4yW0NIMl1DKD1PKVtOSF1jM1tjSF1bY0hdYyhbY0hdW2NIXTMpUyg9TykoPU8pTjRbQ0gyXVtDSDJdT1tDSDJdW0NIMl00

> <s_epik_cmdline>
J2VwaWtfcHl0aG9uJywgJy1waCcsICc3LjAnLCAnLXRuJywgJzgnLCAnLW1hJywgJzIwMCcsICctbWV0YWxfYmluZGluZycsICctaW1hZScsICc8aW5maWxlLm1hZT4nLCAnLW9tYWUnLCAnPG91dGZpbGUubWFlPic=

> <r_lp_tautomer_probability>
1

> <r_epik_Ionization_Penalty>
1.9271e-06

> <r_epik_Ionization_Penalty_Charging>
3.88729e-08

> <r_epik_Ionization_Penalty_Neutral>
1.88823e-06

> <r_epik_State_Penalty>
-0

> <r_epik_Charging_Adjusted_Penalty>
3.88729e-08

> <i_epik_Tot_Q>
0

> <i_epik_Tot_abs_Q>
0

> <r_epik_Metal_State_Penalty>
-0

> <b_epik_Metal_Only>
0

> <s_epik_Chemistry_Notes>
This compound contains an acetal/aminal-like group ( X-CH(R)-Y where X, Y are N, S, or O) that may be acid/base labile, releasing an aldehyde.

> <s_lp_Force_Field>
OPLS_2005

> <r_lp_Energy>
27.1293

> <b_lp_Chiralities_Consistent>
1

> <s_lp_Variant>
AV-unprocessed.smi:98-1

> <Gold.Version>
5.8.1

> <Gold.Id.Protein>
6NUR|6NUR_protein|mol2

> <Gold.PLP.Fitness>
51.1621

> <Gold.PLP.PLP>
-47.8953

> <Gold.PLP.part.hbond>
-1.9074

> <Gold.PLP.part.metal>
0.0000

> <Gold.PLP.part.buried>
-1.8353

> <Gold.PLP.part.nonpolar>
-42.2607

> <Gold.PLP.part.repulsive>
0.3550

> <Gold.PLP.ligand.clash>
0.0000

> <Gold.PLP.ligand.torsion>
2.8255

> <Gold.PLP.Chemscore.Hbond>
0.5741

> <Gold.PLP.Chemscore.CHOScore>
1.0000

> <Gold.PLP.Chemscore.Metal>
0.0000

> <Gold.Chemscore.Hbonds>
donor molecule, donor type, donor heavy atom, donor atom, acceptor molecule, acceptor atom, score
      P1  H  7997  8008       L1    17  0.34
      L1  C     9    36       P1  8028  1.00

> <Gold.PLP.Chemscore.Internal.Correction>
4.1957

> <Gold.Rescore>
     Score         DG    S(hbond)    S(metal)    S(lipo)     H(rot)  DE(clash)    DE(int)     intcor
      8.21     -14.60       0.21        0.00     108.62       1.67       0.08       6.31       ----

> <Gold.Chemscore.Fitness>
8.2064

> <Gold.Chemscore.DG>
-14.6009

> <Gold.Chemscore.ZeroCoef>
-5.4800

> <Gold.Chemscore.Hbond>
0.2093

> <Gold.Chemscore.Metal>
0.0000

> <Gold.Chemscore.Lipo>
108.6169

> <Gold.Chemscore.Internal_Hbond>
0.0000

> <Gold.Chemscore.DEClash>
0.0839

> <Gold.Chemscore.DEInternal>
6.3106

> <Gold.Chemscore.Rot>
1.6744

> <Gold.Chemscore.Internal.Correction>
   9.000000E+99

> <Gold.Chemscore.Hbonds>
donor molecule, donor type, donor heavy atom, donor atom, acceptor molecule, acceptor atom, score
      P1  H  7997  8008       L1    17  0.08

> <Gold.Chemscore.Hbond.Weighted>
-0.6992

> <Gold.Chemscore.Metal.Weighted>
-0.0000

> <Gold.Chemscore.Lipo.Weighted>
-12.7082

> <Gold.Chemscore.Internal_Hbond.Weighted>
0.0000

> <Gold.Chemscore.DEClash.Weighted>
0.0839

> <Gold.Chemscore.DEInternal.Weighted>
6.3106

> <Gold.Chemscore.Rot.Weighted>
4.2865

> <Gold.Chemscore.Internal.Correction.Weighted>
   9.000000E+99

> <Gold.Protein.RotatedTorsions>
[ 6907 6896 6895 6894 ] final  -97.80 input  -60.11 | X-H torsion
[ 7974 7965 7964 7962 ] final  -92.26 input  175.53 | X-H torsion
[ 8008 7997 7996 7995 ] final  -87.54 input   59.86 | X-H torsion
[ 10167 10162 10161 10158 ] final  -24.65 input  -65.29 | X-H torsion
[ 10718 10713 10712 10709 ] final -120.08 input   66.30 | X-H torsion
[ 10763 10752 10751 10750 ] final  -67.69 input  -60.55 | X-H torsion
[ 11005 11000 10999 10996 ] final -127.68 input  -57.11 | X-H torsion

> <Gold.Protein.ActiveResidues>
 VAL166  LYS551  ARG553  GLY616  TRP617  ASP618  TYR619  PRO620  LYS621  CYS622 
 ASP623  PHE694  ASN695  SER759  ASP760  ASP761  ALA762  ILE779  LEU786  VAL792 
 PHE793  MET794  SER795  GLU796  ALA797  LYS798  CYS799  TRP800  GLU811  SER814 

> <Gold.Protein.RotatedAtoms>
  150.7027  134.1293  159.4063 H   0  0  0  0  0  0  0  0  0  0  0  0  # atno 6907 bound_to 6896
  151.9279  135.0267  160.0536 H   0  0  0  0  0  0  0  0  0  0  0  0  # atno 6908 bound_to 6896
  152.2201  133.4941  159.5194 H   0  0  0  0  0  0  0  0  0  0  0  0  # atno 6909 bound_to 6896
  145.4022  140.9538  143.2281 H   0  0  0  0  0  0  0  0  0  0  0  0  # atno 7974 bound_to 7965
  154.6644  140.0564  157.0098 H   0  0  0  0  0  0  0  0  0  0  0  0  # atno 8008 bound_to 7997
  155.1180  140.3245  155.4486 H   0  0  0  0  0  0  0  0  0  0  0  0  # atno 8009 bound_to 7997
  156.2632  140.2002  156.6303 H   0  0  0  0  0  0  0  0  0  0  0  0  # atno 8010 bound_to 7997
  140.7288  143.4334  151.0766 H   0  0  0  0  0  0  0  0  0  0  0  0  # atno 10167 bound_to 10162
  156.1230  130.6338  150.9496 H   0  0  0  0  0  0  0  0  0  0  0  0  # atno 10718 bound_to 10713
  154.3781  135.6080  153.5776 H   0  0  0  0  0  0  0  0  0  0  0  0  # atno 10763 bound_to 10752
  152.9788  135.5854  154.4442 H   0  0  0  0  0  0  0  0  0  0  0  0  # atno 10764 bound_to 10752
  154.4207  135.2846  155.1955 H   0  0  0  0  0  0  0  0  0  0  0  0  # atno 10765 bound_to 10752
  140.9579  134.0976  157.3997 H   0  0  0  0  0  0  0  0  0  0  0  0  # atno 11005 bound_to 11000
  144.8366  139.5540  143.6919 LP  0  0  0  0  0  0  0  0  0  0  0  0  # atno 17320 bound_to 7965
  146.2746  139.6720  142.9272 LP  0  0  0  0  0  0  0  0  0  0  0  0  # atno 17321 bound_to 7965
  139.7994  143.8105  152.3161 LP  0  0  0  0  0  0  0  0  0  0  0  0  # atno 17342 bound_to 10162
  139.8117  144.7333  150.9689 LP  0  0  0  0  0  0  0  0  0  0  0  0  # atno 17343 bound_to 10162
  157.6413  131.0910  150.8245 LP  0  0  0  0  0  0  0  0  0  0  0  0  # atno 17370 bound_to 10713
  156.8339  130.5025  149.5328 LP  0  0  0  0  0  0  0  0  0  0  0  0  # atno 17371 bound_to 10713
  139.8868  135.0085  156.6523 LP  0  0  0  0  0  0  0  0  0  0  0  0  # atno 17394 bound_to 11000
  140.7509  133.8898  155.8346 LP  0  0  0  0  0  0  0  0  0  0  0  0  # atno 17395 bound_to 11000

$$$$
