AV-unprocessed.smi:766|AV-procd|sdf|3656|dock9
  -GOLD-   22720 1 63D 1   1.00000     0.00000
 Structure written by MMmdl.
 46 48  0  0  0  0  0  0  0  0  1 V2000
  152.8009  143.2266  160.7976 C   0  0  0  0  0  0  0  0  0  0  0  0
  152.2196  142.6087  159.5383 C   0  0  0  0  0  0  0  0  0  0  0  0
  152.7766  141.4087  159.0415 C   0  0  0  0  0  0  0  0  0  0  0  0
  152.2682  140.8044  157.8711 C   0  0  0  0  0  0  0  0  0  0  0  0
  152.6576  139.6499  157.2140 N   0  0  0  0  0  0  0  0  0  0  0  0
  151.8071  139.6255  156.1923 C   0  0  0  0  0  0  0  0  0  0  0  0
  150.9085  140.6260  156.1118 N   0  0  0  0  0  0  0  0  0  0  0  0
  149.8905  140.8114  155.0929 C   0  0  0  0  0  0  0  0  0  0  0  0
  149.0629  139.5337  154.8336 C   0  0  1  0  0  0  0  0  0  0  0  0
  148.4713  139.0886  156.0365 O   0  0  0  0  0  0  0  0  0  0  0  0
  147.9817  139.6468  153.7396 C   0  0  0  0  0  0  0  0  0  0  0  0
  147.6507  138.3489  153.1580 N   0  0  0  0  0  0  0  0  0  0  0  0
  146.5714  138.4055  152.1771 C   0  0  0  0  0  0  0  0  0  0  0  0
  145.2909  137.7456  152.7136 C   0  0  0  0  0  0  0  0  0  0  0  0
  144.9442  136.5398  151.9814 N   0  0  0  0  0  0  0  0  0  0  0  0
  145.7119  135.8329  151.0797 C   0  0  0  0  0  0  0  0  0  0  0  0
  144.9651  134.7717  150.6540 C   0  0  0  0  0  0  0  0  0  0  0  0
  143.7374  134.9182  151.3584 C   0  0  0  0  0  0  0  0  0  0  0  0
  143.7261  135.9799  152.1480 N   0  0  0  0  0  0  0  0  0  0  0  0
  151.1772  141.4379  157.2070 C   0  0  0  0  0  0  0  0  0  0  0  0
  150.6122  142.6298  157.6931 C   0  0  0  0  0  0  0  0  0  0  0  0
  151.1333  143.2211  158.8629 C   0  0  0  0  0  0  0  0  0  0  0  0
  150.5184  144.5105  159.3775 C   0  0  0  0  0  0  0  0  0  0  0  0
  153.6461  142.6484  161.1721 H   0  0  0  0  0  0  0  0  0  0  0  0
  152.0476  143.2671  161.5845 H   0  0  0  0  0  0  0  0  0  0  0  0
  153.1516  144.2398  160.6001 H   0  0  0  0  0  0  0  0  0  0  0  0
  153.6039  140.9415  159.5552 H   0  0  0  0  0  0  0  0  0  0  0  0
  151.8343  138.8327  155.4602 H   0  0  0  0  0  0  0  0  0  0  0  0
  149.2372  141.6269  155.4055 H   0  0  0  0  0  0  0  0  0  0  0  0
  150.3790  141.1430  154.1755 H   0  0  0  0  0  0  0  0  0  0  0  0
  149.7503  138.7443  154.5275 H   0  0  0  0  0  0  0  0  0  0  0  0
  148.2583  139.8440  156.5628 H   0  0  0  0  0  0  0  0  0  0  0  0
  147.0830  140.0846  154.1765 H   0  0  0  0  0  0  0  0  0  0  0  0
  148.3098  140.3384  152.9627 H   0  0  0  0  0  0  0  0  0  0  0  0
  148.4797  137.9395  152.7389 H   0  0  0  0  0  0  0  0  0  0  0  0
  146.3643  139.4407  151.9032 H   0  0  0  0  0  0  0  0  0  0  0  0
  146.8812  137.8995  151.2623 H   0  0  0  0  0  0  0  0  0  0  0  0
  145.4218  137.4799  153.7634 H   0  0  0  0  0  0  0  0  0  0  0  0
  144.4516  138.4411  152.6697 H   0  0  0  0  0  0  0  0  0  0  0  0
  146.7159  136.1372  150.8231 H   0  0  0  0  0  0  0  0  0  0  0  0
  145.2524  134.0057  149.9491 H   0  0  0  0  0  0  0  0  0  0  0  0
  142.8604  134.2891  151.3196 H   0  0  0  0  0  0  0  0  0  0  0  0
  149.7862  143.0852  157.1670 H   0  0  0  0  0  0  0  0  0  0  0  0
  149.6830  144.8291  158.7534 H   0  0  0  0  0  0  0  0  0  0  0  0
  151.2584  145.3112  159.3809 H   0  0  0  0  0  0  0  0  0  0  0  0
  150.1456  144.3783  160.3934 H   0  0  0  0  0  0  0  0  0  0  0  0
  1  2  1  0  0  0  0
  1 24  1  0  0  0  0
  1 25  1  0  0  0  0
  1 26  1  0  0  0  0
  2 22  1  0  0  0  0
  2  3  2  0  0  0  0
  3  4  1  0  0  0  0
  3 27  1  0  0  0  0
  4 20  2  0  0  0  0
  4  5  1  0  0  0  0
  5  6  2  0  0  0  0
  6  7  1  0  0  0  0
  6 28  1  0  0  0  0
  7  8  1  0  0  0  0
  7 20  1  0  0  0  0
  8  9  1  0  0  0  0
  8 29  1  0  0  0  0
  8 30  1  0  0  0  0
  9 10  1  0  0  0  0
  9 11  1  0  0  0  0
  9 31  1  0  0  0  0
 10 32  1  0  0  0  0
 11 12  1  0  0  0  0
 11 33  1  0  0  0  0
 11 34  1  0  0  0  0
 12 13  1  0  0  0  0
 12 35  1  0  0  0  0
 13 14  1  0  0  0  0
 13 36  1  0  0  0  0
 13 37  1  0  0  0  0
 14 15  1  0  0  0  0
 14 38  1  0  0  0  0
 14 39  1  0  0  0  0
 15 19  1  0  0  0  0
 15 16  1  0  0  0  0
 16 17  2  0  0  0  0
 16 40  1  0  0  0  0
 17 18  1  0  0  0  0
 17 41  1  0  0  0  0
 18 19  2  0  0  0  0
 18 42  1  0  0  0  0
 20 21  1  0  0  0  0
 21 22  2  0  0  0  0
 21 43  1  0  0  0  0
 22 23  1  0  0  0  0
 23 44  1  0  0  0  0
 23 45  1  0  0  0  0
 23 46  1  0  0  0  0
M  END
> <s_m_source_file>
AV-unprocessed.smi

> <i_m_source_file_index>
766

> <i_lp_mmshare_version>
43012

> <i_f3d_flags>
0

> <s_epik_input>
W0NIM11jKFtjSF0xKWMoW0NIM10pW2NIXWMoYzEyKW4oW2NIXW4yKVtDSDJdW0NASF0oW09IXSlbQ0gyXVtOSF1bQ0gyXVtDSDJdbjNbY0hdW2NIXVtjSF1uMw==

> <s_epik_cmdline>
J2VwaWtfcHl0aG9uJywgJy1waCcsICc3LjAnLCAnLXRuJywgJzgnLCAnLW1hJywgJzIwMCcsICctbWV0YWxfYmluZGluZycsICctaW1hZScsICc8aW5maWxlLm1hZT4nLCAnLW9tYWUnLCAnPG91dGZpbGUubWFlPic=

> <r_lp_tautomer_probability>
1

> <r_epik_Ionization_Penalty>
1.68727

> <r_epik_Ionization_Penalty_Charging>
0

> <r_epik_Ionization_Penalty_Neutral>
1.68727

> <r_epik_State_Penalty>
1.78741

> <r_epik_Charging_Adjusted_Penalty>
1.78741

> <i_epik_Tot_Q>
0

> <i_epik_Tot_abs_Q>
0

> <r_epik_Metal_State_Penalty>
1.73664

> <b_epik_Metal_Only>
0

> <s_lp_Force_Field>
OPLS_2005

> <r_lp_Energy>
18.4914

> <b_lp_Chiralities_Consistent>
1

> <s_lp_Variant>
AV-unprocessed.smi:766-6

> <Gold.Version>
5.8.1

> <Gold.Id.Protein>
6NUR|6NUR_protein|mol2

> <Gold.PLP.Fitness>
52.8625

> <Gold.PLP.PLP>
-44.0891

> <Gold.PLP.part.hbond>
-2.4762

> <Gold.PLP.part.metal>
0.0000

> <Gold.PLP.part.buried>
-0.3560

> <Gold.PLP.part.nonpolar>
-41.9566

> <Gold.PLP.part.repulsive>
0.1679

> <Gold.PLP.ligand.clash>
0.0000

> <Gold.PLP.ligand.torsion>
1.1916

> <Gold.PLP.Chemscore.Hbond>
1.7200

> <Gold.PLP.Chemscore.CHOScore>
1.9258

> <Gold.PLP.Chemscore.Metal>
0.0000

> <Gold.Chemscore.Hbonds>
donor molecule, donor type, donor heavy atom, donor atom, acceptor molecule, acceptor atom, score
      L1  H    12    35       P1  7948  0.75
      P1  H  7997  8008       L1     5  1.00
      L1  C    16    40       P1  7948  1.00
      L1  C    18    42       P1 10186  0.77

> <Gold.PLP.Chemscore.Internal.Correction>
0.2193

> <Gold.Rescore>
     Score         DG    S(hbond)    S(metal)    S(lipo)     H(rot)  DE(clash)    DE(int)     intcor
     16.41     -17.64       1.64        0.00     119.05       2.83       0.22       1.02       ----

> <Gold.Chemscore.Fitness>
16.4091

> <Gold.Chemscore.DG>
-17.6441

> <Gold.Chemscore.ZeroCoef>
-5.4800

> <Gold.Chemscore.Hbond>
1.6444

> <Gold.Chemscore.Metal>
0.0000

> <Gold.Chemscore.Lipo>
119.0507

> <Gold.Chemscore.Internal_Hbond>
0.0000

> <Gold.Chemscore.DEClash>
0.2185

> <Gold.Chemscore.DEInternal>
1.0166

> <Gold.Chemscore.Rot>
2.8348

> <Gold.Chemscore.Internal.Correction>
   9.000000E+99

> <Gold.Chemscore.Hbonds>
donor molecule, donor type, donor heavy atom, donor atom, acceptor molecule, acceptor atom, score
      L1  H    12    35       P1  7948  0.75
      P1  H  7997  8008       L1     5  0.30

> <Gold.Chemscore.Hbond.Weighted>
-5.4923

> <Gold.Chemscore.Metal.Weighted>
-0.0000

> <Gold.Chemscore.Lipo.Weighted>
-13.9289

> <Gold.Chemscore.Internal_Hbond.Weighted>
0.0000

> <Gold.Chemscore.DEClash.Weighted>
0.2185

> <Gold.Chemscore.DEInternal.Weighted>
1.0166

> <Gold.Chemscore.Rot.Weighted>
7.2572

> <Gold.Chemscore.Internal.Correction.Weighted>
   9.000000E+99

> <Gold.Protein.RotatedTorsions>
[ 6907 6896 6895 6894 ] final  -40.23 input  -60.11 | X-H torsion
[ 7974 7965 7964 7962 ] final  146.21 input  175.53 | X-H torsion
[ 8008 7997 7996 7995 ] final  -63.96 input   59.86 | X-H torsion
[ 10167 10162 10161 10158 ] final  -25.47 input  -65.29 | X-H torsion
[ 10718 10713 10712 10709 ] final -107.70 input   66.30 | X-H torsion
[ 10763 10752 10751 10750 ] final -149.41 input  -60.55 | X-H torsion
[ 11005 11000 10999 10996 ] final  151.09 input  -57.11 | X-H torsion

> <Gold.Protein.ActiveResidues>
 VAL166  LYS551  ARG553  GLY616  TRP617  ASP618  TYR619  PRO620  LYS621  CYS622 
 ASP623  PHE694  ASN695  SER759  ASP760  ASP761  ALA762  ILE779  LEU786  VAL792 
 PHE793  MET794  SER795  GLU796  ALA797  LYS798  CYS799  TRP800  GLU811  SER814 

> <Gold.Protein.RotatedAtoms>
  150.9809  134.9164  159.7843 H   0  0  0  0  0  0  0  0  0  0  0  0  # atno 6907 bound_to 6896
  152.5221  134.3412  159.9227 H   0  0  0  0  0  0  0  0  0  0  0  0  # atno 6908 bound_to 6896
  151.3419  133.3918  159.2706 H   0  0  0  0  0  0  0  0  0  0  0  0  # atno 6909 bound_to 6896
  144.8689  139.5877  143.5896 H   0  0  0  0  0  0  0  0  0  0  0  0  # atno 7974 bound_to 7965
  154.4584  140.0964  156.6824 H   0  0  0  0  0  0  0  0  0  0  0  0  # atno 8008 bound_to 7997
  155.5067  140.3475  155.4362 H   0  0  0  0  0  0  0  0  0  0  0  0  # atno 8009 bound_to 7997
  156.0823  140.1376  156.9685 H   0  0  0  0  0  0  0  0  0  0  0  0  # atno 8010 bound_to 7997
  140.7286  143.4262  151.0873 H   0  0  0  0  0  0  0  0  0  0  0  0  # atno 10167 bound_to 10162
  156.0449  130.5676  150.7858 H   0  0  0  0  0  0  0  0  0  0  0  0  # atno 10718 bound_to 10713
  154.8179  135.3310  154.7124 H   0  0  0  0  0  0  0  0  0  0  0  0  # atno 10763 bound_to 10752
  153.7761  135.6922  153.4901 H   0  0  0  0  0  0  0  0  0  0  0  0  # atno 10764 bound_to 10752
  153.2011  135.4515  155.0216 H   0  0  0  0  0  0  0  0  0  0  0  0  # atno 10765 bound_to 10752
  140.1188  134.8877  157.2043 H   0  0  0  0  0  0  0  0  0  0  0  0  # atno 11005 bound_to 11000
  146.2916  139.7156  142.9157 LP  0  0  0  0  0  0  0  0  0  0  0  0  # atno 17320 bound_to 7965
  145.4167  141.0402  143.2986 LP  0  0  0  0  0  0  0  0  0  0  0  0  # atno 17321 bound_to 7965
  139.7913  143.8214  152.3152 LP  0  0  0  0  0  0  0  0  0  0  0  0  # atno 17342 bound_to 10162
  139.8199  144.7300  150.9586 LP  0  0  0  0  0  0  0  0  0  0  0  0  # atno 17343 bound_to 10162
  157.5313  131.0936  150.9951 LP  0  0  0  0  0  0  0  0  0  0  0  0  # atno 17370 bound_to 10713
  157.0257  130.5691  149.5337 LP  0  0  0  0  0  0  0  0  0  0  0  0  # atno 17371 bound_to 10713
  140.2992  134.3151  155.7294 LP  0  0  0  0  0  0  0  0  0  0  0  0  # atno 17394 bound_to 11000
  141.2147  133.7582  156.9616 LP  0  0  0  0  0  0  0  0  0  0  0  0  # atno 17395 bound_to 11000

$$$$
