AV-unprocessed.smi:102|AV-procd|sdf|974|dock6
  -GOLD-   2262017533D 1   1.00000     0.00000
 Structure written by MMmdl.
 43 44  0  0  0  0  0  0  0  0  2 V2000
  147.5462  134.9792  162.9209 C   0  0  0  0  0  0  0  0  0  0  0  0
  147.6863  135.6013  161.5369 C   0  0  0  0  0  0  0  0  0  0  0  0
  147.7494  136.8215  161.3859 O   0  0  0  0  0  0  0  0  0  0  0  0
  147.7257  134.6829  160.5610 O   0  0  0  0  0  0  0  0  0  0  0  0
  148.4499  134.9489  159.3698 C   0  0  0  0  0  0  0  0  0  0  0  0
  147.9185  136.2155  158.6809 C   0  0  1  0  0  0  0  0  0  0  0  0
  148.6789  137.3420  159.1150 O   0  0  0  0  0  0  0  0  0  0  0  0
  149.2167  137.9980  158.0107 C   0  0  1  0  0  0  0  0  0  0  0  0
  150.5812  138.5325  158.3940 N   0  0  0  0  0  0  0  0  0  0  0  0
  150.8135  139.8983  158.4088 C   0  0  0  0  0  0  0  0  0  0  0  0
  152.0361  140.4035  158.6684 C   0  0  0  0  0  0  0  0  0  0  0  0
  152.2230  141.7348  158.6730 F   0  0  0  0  0  0  0  0  0  0  0  0
  153.1524  139.4966  158.9214 C   0  0  0  0  0  0  0  0  0  0  0  0
  154.2596  139.9610  159.1887 O   0  0  0  0  0  0  0  0  0  0  0  0
  152.9123  138.1563  158.8409 N   0  5  0  0  0  0  0  0  0  0  0  0
  151.6790  137.6407  158.5610 C   0  0  0  0  0  0  0  0  0  0  0  0
  151.4762  136.4317  158.4528 O   0  0  0  0  0  0  0  0  0  0  0  0
  149.2463  137.0031  156.8487 C   0  0  2  0  0  0  0  0  0  0  0  0
  149.2123  137.6759  155.5961 O   0  0  0  0  0  0  0  0  0  0  0  0
  150.3429  137.8360  154.8890 C   0  0  0  0  0  0  0  0  0  0  0  0
  150.3177  139.0942  154.0318 C   0  0  0  0  0  0  0  0  0  0  0  0
  151.3132  137.0781  154.8913 O   0  0  0  0  0  0  0  0  0  0  0  0
  148.0003  136.1776  157.1432 C   0  0  2  0  0  0  0  0  0  0  0  0
  146.8447  136.7972  156.5840 O   0  0  0  0  0  0  0  0  0  0  0  0
  145.6253  136.2681  156.7834 C   0  0  0  0  0  0  0  0  0  0  0  0
  144.5251  137.0809  156.1146 C   0  0  0  0  0  0  0  0  0  0  0  0
  145.3723  135.2508  157.4289 O   0  0  0  0  0  0  0  0  0  0  0  0
  147.7433  133.9073  162.8905 H   0  0  0  0  0  0  0  0  0  0  0  0
  146.5368  135.1335  163.3015 H   0  0  0  0  0  0  0  0  0  0  0  0
  148.2514  135.4377  163.6142 H   0  0  0  0  0  0  0  0  0  0  0  0
  149.5044  135.0789  159.6168 H   0  0  0  0  0  0  0  0  0  0  0  0
  148.3780  134.0993  158.6892 H   0  0  0  0  0  0  0  0  0  0  0  0
  146.8878  136.3631  159.0049 H   0  0  0  0  0  0  0  0  0  0  0  0
  148.5733  138.8430  157.7660 H   0  0  0  0  0  0  0  0  0  0  0  0
  150.0150  140.5886  158.1920 H   0  0  0  0  0  0  0  0  0  0  0  0
  150.1238  136.3646  156.9273 H   0  0  0  0  0  0  0  0  0  0  0  0
  149.9542  139.9427  154.6119 H   0  0  0  0  0  0  0  0  0  0  0  0
  149.6596  138.9521  153.1747 H   0  0  0  0  0  0  0  0  0  0  0  0
  151.3175  139.3290  153.6661 H   0  0  0  0  0  0  0  0  0  0  0  0
  148.1128  135.1637  156.7557 H   0  0  0  0  0  0  0  0  0  0  0  0
  144.7729  137.2668  155.0692 H   0  0  0  0  0  0  0  0  0  0  0  0
  144.4052  138.0399  156.6188 H   0  0  0  0  0  0  0  0  0  0  0  0
  143.5752  136.5474  156.1547 H   0  0  0  0  0  0  0  0  0  0  0  0
  1  2  1  0  0  0  0
  1 28  1  0  0  0  0
  1 29  1  0  0  0  0
  1 30  1  0  0  0  0
  2  3  2  0  0  0  0
  2  4  1  0  0  0  0
  4  5  1  0  0  0  0
  5  6  1  0  0  0  0
  5 31  1  0  0  0  0
  5 32  1  0  0  0  0
  6 23  1  0  0  0  0
  6  7  1  0  0  0  0
  6 33  1  0  0  0  0
  7  8  1  0  0  0  0
  8  9  1  0  0  0  0
  8 18  1  0  0  0  0
  8 34  1  0  0  0  0
  9 16  1  0  0  0  0
  9 10  1  0  0  0  0
 10 11  2  0  0  0  0
 10 35  1  0  0  0  0
 11 12  1  0  0  0  0
 11 13  1  0  0  0  0
 13 14  2  0  0  0  0
 13 15  1  0  0  0  0
 15 16  1  0  0  0  0
 16 17  2  0  0  0  0
 18 19  1  0  0  0  0
 18 23  1  0  0  0  0
 18 36  1  0  0  0  0
 19 20  1  0  0  0  0
 20 21  1  0  0  0  0
 20 22  2  0  0  0  0
 21 37  1  0  0  0  0
 21 38  1  0  0  0  0
 21 39  1  0  0  0  0
 23 24  1  0  0  0  0
 23 40  1  0  0  0  0
 24 25  1  0  0  0  0
 25 26  1  0  0  0  0
 25 27  2  0  0  0  0
 26 41  1  0  0  0  0
 26 42  1  0  0  0  0
 26 43  1  0  0  0  0
M  CHG  1  15  -1
M  END
> <s_m_source_file>
AV-unprocessed.smi

> <i_m_source_file_index>
102

> <i_lp_mmshare_version>
43012

> <i_f3d_flags>
0

> <s_epik_input>
W0NIM11DKD1PKU9bQ0gyXVtDQEBIXTFPW0NASF0oW0NAQEhdKE9DKD1PKVtDSDNdKVtDQEhdMU9DKD1PKVtDSDNdKW4yW2NIXWMoRiljKD1PKVtuSF1jMj1P

> <s_epik_cmdline>
J2VwaWtfcHl0aG9uJywgJy1waCcsICc3LjAnLCAnLXRuJywgJzgnLCAnLW1hJywgJzIwMCcsICctbWV0YWxfYmluZGluZycsICctaW1hZScsICc8aW5maWxlLm1hZT4nLCAnLW9tYWUnLCAnPG91dGZpbGUubWFlPic=

> <r_epik_Ionization_Penalty>
1.40304

> <r_epik_Ionization_Penalty_Charging>
1.43915e-08

> <r_epik_Ionization_Penalty_Neutral>
1.40304

> <r_epik_State_Penalty>
1.48536

> <r_epik_Charging_Adjusted_Penalty>
1.48536

> <i_epik_Tot_Q>
-1

> <i_epik_Tot_abs_Q>
1

> <r_epik_Metal_State_Penalty>
0.00663881

> <b_epik_Metal_Only>
0

> <s_epik_Chemistry_Notes>
This compound has an ester and may undergo hydrolysis at high or low pH. This compound contains an acetal/aminal-like group ( X-CH(R)-Y where X, Y are N, S, or O) that may be acid/base labile, releasing an aldehyde.

> <s_lp_Force_Field>
OPLS_2005

> <r_lp_Energy>
27.5776

> <b_lp_Chiralities_Consistent>
1

> <s_lp_Variant>
AV-unprocessed.smi:102-30

> <Gold.Version>
5.8.1

> <Gold.Id.Protein>
6NUR|6NUR_protein|mol2

> <Gold.PLP.Fitness>
40.2257

> <Gold.PLP.PLP>
-30.1008

> <Gold.PLP.part.hbond>
-5.0000

> <Gold.PLP.part.metal>
0.0000

> <Gold.PLP.part.buried>
-5.2173

> <Gold.PLP.part.nonpolar>
-20.1428

> <Gold.PLP.part.repulsive>
0.1825

> <Gold.PLP.ligand.clash>
0.0000

> <Gold.PLP.ligand.torsion>
1.8699

> <Gold.PLP.Chemscore.Hbond>
4.5433

> <Gold.PLP.Chemscore.CHOScore>
0.0000

> <Gold.PLP.Chemscore.Metal>
0.0000

> <Gold.Chemscore.Hbonds>
donor molecule, donor type, donor heavy atom, donor atom, acceptor molecule, acceptor atom, score
      P1  H  6896  6907       L1    17  0.64
      P1  H  6931  6943       L1     3  1.00
      P1  H  6934  6947       L1     3  0.25
      P1  H  7997  8010       L1    14  0.97
      P1  H 10752 10764       L1    22  0.54

> <Gold.PLP.Chemscore.Internal.Correction>
0.2350

> <Gold.Rescore>
     Score         DG    S(hbond)    S(metal)    S(lipo)     H(rot)  DE(clash)    DE(int)     intcor
      6.84     -13.38       4.07        0.00      38.87       4.00       0.04       6.50       ----

> <Gold.Chemscore.Fitness>
6.8404

> <Gold.Chemscore.DG>
-13.3793

> <Gold.Chemscore.ZeroCoef>
-5.4800

> <Gold.Chemscore.Hbond>
4.0655

> <Gold.Chemscore.Metal>
0.0000

> <Gold.Chemscore.Lipo>
38.8699

> <Gold.Chemscore.Internal_Hbond>
0.0000

> <Gold.Chemscore.DEClash>
0.0359

> <Gold.Chemscore.DEInternal>
6.5030

> <Gold.Chemscore.Rot>
3.9951

> <Gold.Chemscore.Internal.Correction>
   9.000000E+99

> <Gold.Chemscore.Hbonds>
donor molecule, donor type, donor heavy atom, donor atom, acceptor molecule, acceptor atom, score
      P1  H  6896  6907       L1    17  0.63
      P1  H  6931  6943       L1     3  0.96
      P1  H  6934  6947       L1     3  0.24
      P1  H  7997  8010       L1    14  0.30
      P1  H 10752 10764       L1    22  0.54

> <Gold.Chemscore.Hbond.Weighted>
-13.5789

> <Gold.Chemscore.Metal.Weighted>
-0.0000

> <Gold.Chemscore.Lipo.Weighted>
-4.5478

> <Gold.Chemscore.Internal_Hbond.Weighted>
0.0000

> <Gold.Chemscore.DEClash.Weighted>
0.0359

> <Gold.Chemscore.DEInternal.Weighted>
6.5030

> <Gold.Chemscore.Rot.Weighted>
10.2274

> <Gold.Chemscore.Internal.Correction.Weighted>
   9.000000E+99

> <Gold.Protein.RotatedTorsions>
[ 6907 6896 6895 6894 ] final  -16.41 input  -60.11 | X-H torsion
[ 7974 7965 7964 7962 ] final   28.62 input  175.53 | X-H torsion
[ 8008 7997 7996 7995 ] final   -2.90 input   59.86 | X-H torsion
[ 10167 10162 10161 10158 ] final -151.13 input  -65.29 | X-H torsion
[ 10718 10713 10712 10709 ] final -157.97 input   66.30 | X-H torsion
[ 10763 10752 10751 10750 ] final  -60.66 input  -60.55 | X-H torsion
[ 11005 11000 10999 10996 ] final  117.66 input  -57.11 | X-H torsion

> <Gold.Protein.ActiveResidues>
 VAL166  LYS551  ARG553  GLY616  TRP617  ASP618  TYR619  PRO620  LYS621  CYS622 
 ASP623  PHE694  ASN695  SER759  ASP760  ASP761  ALA762  ILE779  LEU786  VAL792 
 PHE793  MET794  SER795  GLU796  ALA797  LYS798  CYS799  TRP800  GLU811  SER814 

> <Gold.Protein.RotatedAtoms>
  151.3090  135.0789  159.9265 H   0  0  0  0  0  0  0  0  0  0  0  0  # atno 6907 bound_to 6896
  152.5282  133.9755  159.7792 H   0  0  0  0  0  0  0  0  0  0  0  0  # atno 6908 bound_to 6896
  151.0056  133.5963  159.2719 H   0  0  0  0  0  0  0  0  0  0  0  0  # atno 6909 bound_to 6896
  146.1719  139.7032  142.8962 H   0  0  0  0  0  0  0  0  0  0  0  0  # atno 7974 bound_to 7965
  154.6307  140.2523  155.7438 H   0  0  0  0  0  0  0  0  0  0  0  0  # atno 8008 bound_to 7997
  156.2477  140.2907  156.0577 H   0  0  0  0  0  0  0  0  0  0  0  0  # atno 8009 bound_to 7997
  155.1750  140.0387  157.2861 H   0  0  0  0  0  0  0  0  0  0  0  0  # atno 8010 bound_to 7997
  139.7294  143.8833  152.2529 H   0  0  0  0  0  0  0  0  0  0  0  0  # atno 10167 bound_to 10162
  156.5477  130.8591  151.2770 H   0  0  0  0  0  0  0  0  0  0  0  0  # atno 10718 bound_to 10713
  154.2726  135.6287  153.5316 H   0  0  0  0  0  0  0  0  0  0  0  0  # atno 10763 bound_to 10752
  152.9878  135.5614  154.5583 H   0  0  0  0  0  0  0  0  0  0  0  0  # atno 10764 bound_to 10752
  154.5157  135.2879  155.1281 H   0  0  0  0  0  0  0  0  0  0  0  0  # atno 10765 bound_to 10752
  139.9082  134.9612  156.7384 H   0  0  0  0  0  0  0  0  0  0  0  0  # atno 11005 bound_to 11000
  145.4318  141.0415  143.2906 LP  0  0  0  0  0  0  0  0  0  0  0  0  # atno 17320 bound_to 7965
  144.8175  139.5850  143.7001 LP  0  0  0  0  0  0  0  0  0  0  0  0  # atno 17321 bound_to 7965
  139.8751  144.7047  150.8942 LP  0  0  0  0  0  0  0  0  0  0  0  0  # atno 17342 bound_to 10162
  140.7768  143.3706  151.1656 LP  0  0  0  0  0  0  0  0  0  0  0  0  # atno 17343 bound_to 10162
  157.7393  130.9830  150.2308 LP  0  0  0  0  0  0  0  0  0  0  0  0  # atno 17370 bound_to 10713
  156.2913  130.3746  149.7839 LP  0  0  0  0  0  0  0  0  0  0  0  0  # atno 17371 bound_to 10713
  140.6869  133.9425  155.7943 LP  0  0  0  0  0  0  0  0  0  0  0  0  # atno 17394 bound_to 11000
  141.0470  134.0540  157.3832 LP  0  0  0  0  0  0  0  0  0  0  0  0  # atno 17395 bound_to 11000

$$$$
