AV-unprocessed.smi:3105|AV-procd|sdf|11820|dock2
  -GOLD-   2272017193D 1   1.00000     0.00000
 Structure written by MMmdl.
 34 34  0  0  0  0  0  0  0  0  2 V2000
  148.0546  132.8510  152.8535 C   0  0  0  0  0  0  0  0  0  0  0  0
  147.1121  134.0286  153.1821 C   0  0  1  0  0  0  0  0  0  0  0  0
  147.8619  135.1111  153.8613 N   0  3  0  0  0  0  0  0  0  0  0  0
  148.6363  134.6983  155.0508 C   0  0  0  0  0  0  0  0  0  0  0  0
  150.1482  134.7901  154.7786 C   0  0  0  0  0  0  0  0  0  0  0  0
  150.6975  136.2172  154.8786 C   0  0  0  0  0  0  0  0  0  0  0  0
  150.1354  137.1326  154.0858 N   0  0  0  0  0  0  0  0  0  0  0  0
  151.6086  136.4972  155.6552 O   0  0  0  0  0  0  0  0  0  0  0  0
  146.3977  134.5964  151.9258 C   0  0  2  0  0  0  0  0  0  0  0  0
  145.5763  135.8634  152.2346 C   0  0  0  0  0  0  0  0  0  0  0  0
  145.5523  133.6041  151.2730 N   0  0  0  0  0  0  0  0  0  0  0  0
  145.9153  132.3730  150.7658 C   0  0  0  0  0  0  0  0  0  0  0  0
  144.7914  131.7979  150.2460 C   0  0  0  0  0  0  0  0  0  0  0  0
  143.7761  132.7662  150.4804 C   0  0  0  0  0  0  0  0  0  0  0  0
  144.2338  133.8459  151.0933 N   0  0  0  0  0  0  0  0  0  0  0  0
  147.5170  132.0133  152.4095 H   0  0  0  0  0  0  0  0  0  0  0  0
  148.5449  132.4623  153.7454 H   0  0  0  0  0  0  0  0  0  0  0  0
  148.8330  133.1530  152.1523 H   0  0  0  0  0  0  0  0  0  0  0  0
  146.3436  133.6677  153.8678 H   0  0  0  0  0  0  0  0  0  0  0  0
  148.4787  135.5519  153.1940 H   0  0  0  0  0  0  0  0  0  0  0  0
  148.3669  135.3429  155.8890 H   0  0  0  0  0  0  0  0  0  0  0  0
  148.3712  133.6778  155.3277 H   0  0  0  0  0  0  0  0  0  0  0  0
  150.6861  134.1588  155.4877 H   0  0  0  0  0  0  0  0  0  0  0  0
  150.3710  134.4056  153.7824 H   0  0  0  0  0  0  0  0  0  0  0  0
  150.4566  138.0897  154.1058 H   0  0  0  0  0  0  0  0  0  0  0  0
  149.3873  136.8628  153.4631 H   0  0  0  0  0  0  0  0  0  0  0  0
  147.1658  134.8724  151.2011 H   0  0  0  0  0  0  0  0  0  0  0  0
  146.2068  136.6723  152.6031 H   0  0  0  0  0  0  0  0  0  0  0  0
  144.8111  135.6714  152.9876 H   0  0  0  0  0  0  0  0  0  0  0  0
  145.0736  136.2300  151.3389 H   0  0  0  0  0  0  0  0  0  0  0  0
  146.9317  132.0109  150.8163 H   0  0  0  0  0  0  0  0  0  0  0  0
  144.7075  130.8326  149.7688 H   0  0  0  0  0  0  0  0  0  0  0  0
  142.7277  132.7175  150.2248 H   0  0  0  0  0  0  0  0  0  0  0  0
  147.1866  135.7946  154.1724 H   0  0  0  0  0  0  0  0  0  0  0  0
  1  2  1  0  0  0  0
  1 16  1  0  0  0  0
  1 17  1  0  0  0  0
  1 18  1  0  0  0  0
  2  3  1  0  0  0  0
  2  9  1  0  0  0  0
  2 19  1  0  0  0  0
  3  4  1  0  0  0  0
  3 20  1  0  0  0  0
  3 34  1  0  0  0  0
  4  5  1  0  0  0  0
  4 21  1  0  0  0  0
  4 22  1  0  0  0  0
  5  6  1  0  0  0  0
  5 23  1  0  0  0  0
  5 24  1  0  0  0  0
  6  7  1  0  0  0  0
  6  8  2  0  0  0  0
  7 25  1  0  0  0  0
  7 26  1  0  0  0  0
  9 10  1  0  0  0  0
  9 11  1  0  0  0  0
  9 27  1  0  0  0  0
 10 28  1  0  0  0  0
 10 29  1  0  0  0  0
 10 30  1  0  0  0  0
 11 15  1  0  0  0  0
 11 12  1  0  0  0  0
 12 13  2  0  0  0  0
 12 31  1  0  0  0  0
 13 14  1  0  0  0  0
 13 32  1  0  0  0  0
 14 15  2  0  0  0  0
 14 33  1  0  0  0  0
M  CHG  1   3   1
M  END
> <s_m_source_file>
AV-unprocessed.smi

> <i_m_source_file_index>
3105

> <i_lp_mmshare_version>
43012

> <i_f3d_flags>
0

> <s_epik_input>
W05IMl1DKD1PKVtDSDJdW0NIMl1bTkhdW0NAQEhdKFtDSDNdKVtDQEhdKFtDSDNdKW4xW2NIXVtjSF1bY0hdbjE=

> <s_epik_cmdline>
J2VwaWtfcHl0aG9uJywgJy1waCcsICc3LjAnLCAnLXRuJywgJzgnLCAnLW1hJywgJzIwMCcsICctbWV0YWxfYmluZGluZycsICctaW1hZScsICc8aW5maWxlLm1hZT4nLCAnLW9tYWUnLCAnPG91dGZpbGUubWFlPic=

> <r_lp_tautomer_probability>
1

> <r_epik_Ionization_Penalty>
0.00475669

> <r_epik_Ionization_Penalty_Charging>
0.00474654

> <r_epik_Ionization_Penalty_Neutral>
1.01546e-05

> <r_epik_State_Penalty>
-0

> <r_epik_Charging_Adjusted_Penalty>
0.00474654

> <i_epik_Tot_Q>
1

> <i_epik_Tot_abs_Q>
1

> <r_epik_Metal_State_Penalty>
-0

> <b_epik_Metal_Only>
0

> <s_lp_Force_Field>
OPLS_2005

> <r_lp_Energy>
9.05092

> <b_lp_Chiralities_Consistent>
1

> <s_lp_Variant>
AV-unprocessed.smi:3105-2

> <Gold.Version>
5.8.1

> <Gold.Id.Protein>
6NUR|6NUR_protein|mol2

> <Gold.PLP.Fitness>
43.3502

> <Gold.PLP.PLP>
-26.5103

> <Gold.PLP.part.hbond>
-3.9947

> <Gold.PLP.part.metal>
0.0000

> <Gold.PLP.part.buried>
-1.1540

> <Gold.PLP.part.nonpolar>
-21.3352

> <Gold.PLP.part.repulsive>
0.2450

> <Gold.PLP.ligand.clash>
0.0000

> <Gold.PLP.ligand.torsion>
0.5218

> <Gold.PLP.Chemscore.Hbond>
3.8960

> <Gold.PLP.Chemscore.CHOScore>
2.0000

> <Gold.PLP.Chemscore.Metal>
0.0000

> <Gold.Chemscore.Hbonds>
donor molecule, donor type, donor heavy atom, donor atom, acceptor molecule, acceptor atom, score
      L1  H     3    20       P1  7948  2.00
      L1  H     7    26       P1  7948  0.90
      P1  H 10752 10765       L1     8  1.00
      L1  C    12    31       P1 10747  1.00
      L1  C    14    33       P1 10186  1.00

> <Gold.PLP.Chemscore.Internal.Correction>
0.1955

> <Gold.Rescore>
     Score         DG    S(hbond)    S(metal)    S(lipo)     H(rot)  DE(clash)    DE(int)     intcor
     12.95     -13.67       2.59        0.00      58.44       2.85       0.04       0.68       ----

> <Gold.Chemscore.Fitness>
12.9513

> <Gold.Chemscore.DG>
-13.6730

> <Gold.Chemscore.ZeroCoef>
-5.4800

> <Gold.Chemscore.Hbond>
2.5882

> <Gold.Chemscore.Metal>
0.0000

> <Gold.Chemscore.Lipo>
58.4411

> <Gold.Chemscore.Internal_Hbond>
0.0000

> <Gold.Chemscore.DEClash>
0.0369

> <Gold.Chemscore.DEInternal>
0.6848

> <Gold.Chemscore.Rot>
2.8473

> <Gold.Chemscore.Internal.Correction>
   9.000000E+99

> <Gold.Chemscore.Hbonds>
donor molecule, donor type, donor heavy atom, donor atom, acceptor molecule, acceptor atom, score
      L1  H     3    20       P1  7948  0.94
      L1  H     7    26       P1  7948  0.82
      P1  H 10752 10765       L1     8  0.26

> <Gold.Chemscore.Hbond.Weighted>
-8.6446

> <Gold.Chemscore.Metal.Weighted>
-0.0000

> <Gold.Chemscore.Lipo.Weighted>
-6.8376

> <Gold.Chemscore.Internal_Hbond.Weighted>
0.0000

> <Gold.Chemscore.DEClash.Weighted>
0.0369

> <Gold.Chemscore.DEInternal.Weighted>
0.6848

> <Gold.Chemscore.Rot.Weighted>
7.2892

> <Gold.Chemscore.Internal.Correction.Weighted>
   9.000000E+99

> <Gold.Protein.RotatedTorsions>
[ 6907 6896 6895 6894 ] final  159.95 input  -60.11 | X-H torsion
[ 7974 7965 7964 7962 ] final  139.33 input  175.53 | X-H torsion
[ 8008 7997 7996 7995 ] final -111.84 input   59.86 | X-H torsion
[ 10167 10162 10161 10158 ] final   42.74 input  -65.29 | X-H torsion
[ 10718 10713 10712 10709 ] final -155.18 input   66.30 | X-H torsion
[ 10763 10752 10751 10750 ] final -163.00 input  -60.55 | X-H torsion
[ 11005 11000 10999 10996 ] final -127.54 input  -57.11 | X-H torsion

> <Gold.Protein.ActiveResidues>
 VAL166  LYS551  ARG553  GLY616  TRP617  ASP618  TYR619  PRO620  LYS621  CYS622 
 ASP623  PHE694  ASN695  SER759  ASP760  ASP761  ALA762  ILE779  LEU786  VAL792 
 PHE793  MET794  SER795  GLU796  ALA797  LYS798  CYS799  TRP800  GLU811  SER814 

> <Gold.Protein.RotatedAtoms>
  151.9779  133.3748  159.4096 H   0  0  0  0  0  0  0  0  0  0  0  0  # atno 6907 bound_to 6896
  150.6939  134.4070  159.5154 H   0  0  0  0  0  0  0  0  0  0  0  0  # atno 6908 bound_to 6896
  152.1784  134.8775  160.0579 H   0  0  0  0  0  0  0  0  0  0  0  0  # atno 6909 bound_to 6896
  144.9289  139.5073  143.5627 H   0  0  0  0  0  0  0  0  0  0  0  0  # atno 7974 bound_to 7965
  154.9960  140.0394  157.2340 H   0  0  0  0  0  0  0  0  0  0  0  0  # atno 8008 bound_to 7997
  154.7586  140.2780  155.6210 H   0  0  0  0  0  0  0  0  0  0  0  0  # atno 8009 bound_to 7997
  156.2899  140.2633  156.2358 H   0  0  0  0  0  0  0  0  0  0  0  0  # atno 8010 bound_to 7997
  140.3514  144.2346  150.6145 H   0  0  0  0  0  0  0  0  0  0  0  0  # atno 10167 bound_to 10162
  156.5093  130.8427  151.2640 H   0  0  0  0  0  0  0  0  0  0  0  0  # atno 10718 bound_to 10713
  154.7162  135.3016  154.9119 H   0  0  0  0  0  0  0  0  0  0  0  0  # atno 10763 bound_to 10752
  154.0005  135.6707  153.4763 H   0  0  0  0  0  0  0  0  0  0  0  0  # atno 10764 bound_to 10752
  153.0796  135.5016  154.8390 H   0  0  0  0  0  0  0  0  0  0  0  0  # atno 10765 bound_to 10752
  140.9591  134.0961  157.3986 H   0  0  0  0  0  0  0  0  0  0  0  0  # atno 11005 bound_to 11000
  146.3238  139.8224  142.8924 LP  0  0  0  0  0  0  0  0  0  0  0  0  # atno 17320 bound_to 7965
  145.3174  141.0235  143.3519 LP  0  0  0  0  0  0  0  0  0  0  0  0  # atno 17321 bound_to 7965
  140.5215  143.2264  151.8380 LP  0  0  0  0  0  0  0  0  0  0  0  0  # atno 17342 bound_to 10162
  139.4826  144.4830  151.9282 LP  0  0  0  0  0  0  0  0  0  0  0  0  # atno 17343 bound_to 10162
  157.7452  130.9955  150.2746 LP  0  0  0  0  0  0  0  0  0  0  0  0  # atno 17370 bound_to 10713
  156.3256  130.3792  149.7536 LP  0  0  0  0  0  0  0  0  0  0  0  0  # atno 17371 bound_to 10713
  139.8872  135.0088  156.6546 LP  0  0  0  0  0  0  0  0  0  0  0  0  # atno 17394 bound_to 11000
  140.7493  133.8911  155.8335 LP  0  0  0  0  0  0  0  0  0  0  0  0  # atno 17395 bound_to 11000

$$$$
