AV-unprocessed.smi:1451|AV-procd|sdf|5900|dock1
  -GOLD-   22720 5583D 1   1.00000     0.00000
 Structure written by MMmdl.
 47 48  0  0  0  0  0  0  0  0  2 V2000
  145.7000  136.0534  151.2465 C   0  0  0  0  0  0  0  0  0  0  0  0
  145.2635  134.9229  152.1950 C   0  0  1  0  0  0  0  0  0  0  0  0
  145.4262  133.5253  151.5693 C   0  0  0  0  0  0  0  0  0  0  0  0
  146.9034  133.1124  151.5092 C   0  0  0  0  0  0  0  0  0  0  0  0
  147.5639  133.2245  152.8920 C   0  0  0  0  0  0  0  0  0  0  0  0
  147.4130  134.5941  153.4456 N   0  3  2  0  0  0  0  0  0  0  0  0
  148.1743  134.7855  154.7075 C   0  0  0  0  0  0  0  0  0  0  0  0
  147.5148  134.1027  155.9217 C   0  0  0  0  0  0  0  0  0  0  0  0
  147.4973  134.9887  157.0821 N   0  0  0  0  0  0  0  0  0  0  0  0
  148.5189  135.1969  157.9308 C   0  0  0  0  0  0  0  0  0  0  0  0
  149.6303  134.6948  157.7717 O   0  0  0  0  0  0  0  0  0  0  0  0
  148.2648  136.0632  159.1759 C   0  0  0  0  0  0  0  0  0  0  0  0
  147.6757  135.3398  160.3169 N   0  0  0  0  0  0  0  0  0  0  0  0
  147.4827  133.9537  160.1546 C   0  0  0  0  0  0  0  0  0  0  0  0
  146.9490  133.1708  161.1106 C   0  0  0  0  0  0  0  0  0  0  0  0
  146.7072  131.6888  160.8726 C   0  0  0  0  0  0  0  0  0  0  0  0
  147.8538  131.0223  160.7390 F   0  0  0  0  0  0  0  0  0  0  0  0
  146.0294  131.1561  161.8901 F   0  0  0  0  0  0  0  0  0  0  0  0
  145.9896  131.5166  159.7633 F   0  0  0  0  0  0  0  0  0  0  0  0
  146.5584  133.8305  162.3416 C   0  0  0  0  0  0  0  0  0  0  0  0
  146.7220  135.1577  162.5071 C   0  0  0  0  0  0  0  0  0  0  0  0
  147.3015  135.9966  161.4555 C   0  0  0  0  0  0  0  0  0  0  0  0
  147.4320  137.2134  161.5849 O   0  0  0  0  0  0  0  0  0  0  0  0
  145.9837  134.9911  153.5578 C   0  0  0  0  0  0  0  0  0  0  0  0
  146.7682  136.0183  151.0325 H   0  0  0  0  0  0  0  0  0  0  0  0
  145.4836  137.0304  151.6788 H   0  0  0  0  0  0  0  0  0  0  0  0
  145.1695  135.9942  150.2959 H   0  0  0  0  0  0  0  0  0  0  0  0
  144.1990  135.0729  152.3801 H   0  0  0  0  0  0  0  0  0  0  0  0
  144.8777  132.7973  152.1684 H   0  0  0  0  0  0  0  0  0  0  0  0
  144.9833  133.4960  150.5732 H   0  0  0  0  0  0  0  0  0  0  0  0
  146.9880  132.0901  151.1395 H   0  0  0  0  0  0  0  0  0  0  0  0
  147.4357  133.7402  150.7942 H   0  0  0  0  0  0  0  0  0  0  0  0
  147.1255  132.5010  153.5812 H   0  0  0  0  0  0  0  0  0  0  0  0
  148.6221  132.9766  152.8001 H   0  0  0  0  0  0  0  0  0  0  0  0
  149.2029  134.4445  154.5833 H   0  0  0  0  0  0  0  0  0  0  0  0
  148.2320  135.8530  154.9247 H   0  0  0  0  0  0  0  0  0  0  0  0
  146.5110  133.7600  155.6673 H   0  0  0  0  0  0  0  0  0  0  0  0
  148.0763  133.2062  156.1853 H   0  0  0  0  0  0  0  0  0  0  0  0
  146.6244  135.4574  157.2783 H   0  0  0  0  0  0  0  0  0  0  0  0
  149.2149  136.5051  159.4807 H   0  0  0  0  0  0  0  0  0  0  0  0
  147.6437  136.9116  158.8836 H   0  0  0  0  0  0  0  0  0  0  0  0
  147.7855  133.5678  159.1915 H   0  0  0  0  0  0  0  0  0  0  0  0
  146.1304  133.2532  163.1482 H   0  0  0  0  0  0  0  0  0  0  0  0
  146.4211  135.6155  163.4383 H   0  0  0  0  0  0  0  0  0  0  0  0
  145.8992  135.9997  153.9621 H   0  0  0  0  0  0  0  0  0  0  0  0
  145.4874  134.3306  154.2706 H   0  0  0  0  0  0  0  0  0  0  0  0
  147.8329  135.2157  152.7694 H   0  0  0  0  0  0  0  0  0  0  0  0
  1  2  1  0  0  0  0
  1 25  1  0  0  0  0
  1 26  1  0  0  0  0
  1 27  1  0  0  0  0
  2 24  1  0  0  0  0
  2  3  1  0  0  0  0
  2 28  1  0  0  0  0
  3  4  1  0  0  0  0
  3 29  1  0  0  0  0
  3 30  1  0  0  0  0
  4  5  1  0  0  0  0
  4 31  1  0  0  0  0
  4 32  1  0  0  0  0
  5  6  1  0  0  0  0
  5 33  1  0  0  0  0
  5 34  1  0  0  0  0
  6  7  1  0  0  0  0
  6 24  1  0  0  0  0
  6 47  1  0  0  0  0
  7  8  1  0  0  0  0
  7 35  1  0  0  0  0
  7 36  1  0  0  0  0
  8  9  1  0  0  0  0
  8 37  1  0  0  0  0
  8 38  1  0  0  0  0
  9 10  1  0  0  0  0
  9 39  1  0  0  0  0
 10 11  2  0  0  0  0
 10 12  1  0  0  0  0
 12 13  1  0  0  0  0
 12 40  1  0  0  0  0
 12 41  1  0  0  0  0
 13 22  1  0  0  0  0
 13 14  1  0  0  0  0
 14 15  2  0  0  0  0
 14 42  1  0  0  0  0
 15 16  1  0  0  0  0
 15 20  1  0  0  0  0
 16 17  1  0  0  0  0
 16 18  1  0  0  0  0
 16 19  1  0  0  0  0
 20 21  2  0  0  0  0
 20 43  1  0  0  0  0
 21 22  1  0  0  0  0
 21 44  1  0  0  0  0
 22 23  2  0  0  0  0
 24 45  1  0  0  0  0
 24 46  1  0  0  0  0
M  CHG  1   6   1
M  END
> <s_m_source_file>
AV-unprocessed.smi

> <i_m_source_file_index>
1451

> <i_lp_mmshare_version>
43012

> <i_f3d_flags>
0

> <s_epik_input>
W0NIM11bQ0BASF0xW0NIMl1bQ0gyXVtDSDJdTihbQ0gyXTEpW0NIMl1bQ0gyXVtOSF1DKD1PKVtDSDJdbjJbY0hdYyhDKEYpKEYpRilbY0hdW2NIXWMyPU8=

> <s_epik_cmdline>
J2VwaWtfcHl0aG9uJywgJy1waCcsICc3LjAnLCAnLXRuJywgJzgnLCAnLW1hJywgJzIwMCcsICctbWV0YWxfYmluZGluZycsICctaW1hZScsICc8aW5maWxlLm1hZT4nLCAnLW9tYWUnLCAnPG91dGZpbGUubWFlPic=

> <r_lp_tautomer_probability>
1

> <r_epik_Ionization_Penalty>
0.00192452

> <r_epik_Ionization_Penalty_Charging>
0.00192444

> <r_epik_Ionization_Penalty_Neutral>
8.16761e-08

> <r_epik_State_Penalty>
0.00131115

> <r_epik_Charging_Adjusted_Penalty>
0.00323559

> <i_epik_Tot_Q>
1

> <i_epik_Tot_abs_Q>
1

> <r_epik_Metal_State_Penalty>
-0

> <b_epik_Metal_Only>
0

> <s_lp_Force_Field>
OPLS_2005

> <r_lp_Energy>
37.139

> <b_lp_Chiralities_Consistent>
1

> <s_lp_Variant>
AV-unprocessed.smi:1451-2

> <Gold.Version>
5.8.1

> <Gold.Id.Protein>
6NUR|6NUR_protein|mol2

> <Gold.PLP.Fitness>
49.3713

> <Gold.PLP.PLP>
-37.1092

> <Gold.PLP.part.hbond>
-4.0000

> <Gold.PLP.part.metal>
0.0000

> <Gold.PLP.part.buried>
-3.8641

> <Gold.PLP.part.nonpolar>
-29.6847

> <Gold.PLP.part.repulsive>
0.0013

> <Gold.PLP.ligand.clash>
0.0000

> <Gold.PLP.ligand.torsion>
0.9941

> <Gold.PLP.Chemscore.Hbond>
4.7360

> <Gold.PLP.Chemscore.CHOScore>
0.0000

> <Gold.PLP.Chemscore.Metal>
0.0000

> <Gold.Chemscore.Hbonds>
donor molecule, donor type, donor heavy atom, donor atom, acceptor molecule, acceptor atom, score
      L1  H     6    47       P1  7948  2.00
      P1  H  6896  6909       L1    11  1.00
      P1  H  6931  6943       L1    23  0.91
      P1  H  6934  6947       L1    23  0.85

> <Gold.PLP.Chemscore.Internal.Correction>
0.0424

> <Gold.Rescore>
     Score         DG    S(hbond)    S(metal)    S(lipo)     H(rot)  DE(clash)    DE(int)     intcor
     19.79     -20.78       3.70        0.00      70.61       2.08       0.01       0.98       ----

> <Gold.Chemscore.Fitness>
19.7875

> <Gold.Chemscore.DG>
-20.7790

> <Gold.Chemscore.ZeroCoef>
-5.4800

> <Gold.Chemscore.Hbond>
3.6986

> <Gold.Chemscore.Metal>
0.0000

> <Gold.Chemscore.Lipo>
70.6053

> <Gold.Chemscore.Internal_Hbond>
0.0000

> <Gold.Chemscore.DEClash>
0.0135

> <Gold.Chemscore.DEInternal>
0.9780

> <Gold.Chemscore.Rot>
2.0762

> <Gold.Chemscore.Internal.Correction>
   9.000000E+99

> <Gold.Chemscore.Hbonds>
donor molecule, donor type, donor heavy atom, donor atom, acceptor molecule, acceptor atom, score
      L1  H     6    47       P1  7948  1.00
      P1  H  6896  6909       L1    11  0.91
      P1  H  6931  6943       L1    23  0.89
      P1  H  6934  6947       L1    23  0.84

> <Gold.Chemscore.Hbond.Weighted>
-12.3532

> <Gold.Chemscore.Metal.Weighted>
-0.0000

> <Gold.Chemscore.Lipo.Weighted>
-8.2608

> <Gold.Chemscore.Internal_Hbond.Weighted>
0.0000

> <Gold.Chemscore.DEClash.Weighted>
0.0135

> <Gold.Chemscore.DEInternal.Weighted>
0.9780

> <Gold.Chemscore.Rot.Weighted>
5.3150

> <Gold.Chemscore.Internal.Correction.Weighted>
   9.000000E+99

> <Gold.Protein.RotatedTorsions>
[ 6907 6896 6895 6894 ] final   24.08 input  -60.11 | X-H torsion
[ 7974 7965 7964 7962 ] final   95.52 input  175.53 | X-H torsion
[ 8008 7997 7996 7995 ] final  115.00 input   59.86 | X-H torsion
[ 10167 10162 10161 10158 ] final   54.69 input  -65.29 | X-H torsion
[ 10718 10713 10712 10709 ] final  175.08 input   66.30 | X-H torsion
[ 10763 10752 10751 10750 ] final  -33.98 input  -60.55 | X-H torsion
[ 11005 11000 10999 10996 ] final  -28.01 input  -57.11 | X-H torsion

> <Gold.Protein.ActiveResidues>
 VAL166  LYS551  ARG553  GLY616  TRP617  ASP618  TYR619  PRO620  LYS621  CYS622 
 ASP623  PHE694  ASN695  SER759  ASP760  ASP761  ALA762  ILE779  LEU786  VAL792 
 PHE793  MET794  SER795  GLU796  ALA797  LYS798  CYS799  TRP800  GLU811  SER814 

> <Gold.Protein.RotatedAtoms>
  151.9520  135.0164  160.0542 H   0  0  0  0  0  0  0  0  0  0  0  0  # atno 6907 bound_to 6896
  152.1944  133.4791  159.5033 H   0  0  0  0  0  0  0  0  0  0  0  0  # atno 6908 bound_to 6896
  150.6941  134.1588  159.4211 H   0  0  0  0  0  0  0  0  0  0  0  0  # atno 6909 bound_to 6896
  145.4511  139.2293  143.3039 H   0  0  0  0  0  0  0  0  0  0  0  0  # atno 7974 bound_to 7965
  156.2355  140.2947  156.0301 H   0  0  0  0  0  0  0  0  0  0  0  0  # atno 8008 bound_to 7997
  155.2104  140.0412  157.2949 H   0  0  0  0  0  0  0  0  0  0  0  0  # atno 8009 bound_to 7997
  154.6071  140.2442  155.7724 H   0  0  0  0  0  0  0  0  0  0  0  0  # atno 8010 bound_to 7997
  140.2274  144.3724  150.6427 H   0  0  0  0  0  0  0  0  0  0  0  0  # atno 10167 bound_to 10162
  156.9401  130.9998  151.2970 H   0  0  0  0  0  0  0  0  0  0  0  0  # atno 10718 bound_to 10713
  153.8392  135.6859  153.4805 H   0  0  0  0  0  0  0  0  0  0  0  0  # atno 10763 bound_to 10752
  153.1464  135.4636  154.9570 H   0  0  0  0  0  0  0  0  0  0  0  0  # atno 10764 bound_to 10752
  154.7852  135.3282  154.7848 H   0  0  0  0  0  0  0  0  0  0  0  0  # atno 10765 bound_to 10752
  140.9171  133.7423  156.0749 H   0  0  0  0  0  0  0  0  0  0  0  0  # atno 11005 bound_to 11000
  146.2504  140.5270  142.8896 LP  0  0  0  0  0  0  0  0  0  0  0  0  # atno 17320 bound_to 7965
  144.8061  140.6302  143.6446 LP  0  0  0  0  0  0  0  0  0  0  0  0  # atno 17321 bound_to 7965
  140.6210  143.2176  151.6693 LP  0  0  0  0  0  0  0  0  0  0  0  0  # atno 17342 bound_to 10162
  139.5122  144.3483  152.0676 LP  0  0  0  0  0  0  0  0  0  0  0  0  # atno 17343 bound_to 10162
  157.5790  130.8363  149.8496 LP  0  0  0  0  0  0  0  0  0  0  0  0  # atno 17370 bound_to 10713
  156.0408  130.3739  150.1440 LP  0  0  0  0  0  0  0  0  0  0  0  0  # atno 17371 bound_to 10713
  140.8036  134.3480  157.5432 LP  0  0  0  0  0  0  0  0  0  0  0  0  # atno 17394 bound_to 11000
  139.8768  134.9212  156.3271 LP  0  0  0  0  0  0  0  0  0  0  0  0  # atno 17395 bound_to 11000

$$$$
