AV-unprocessed.smi:3128|AV-procd|sdf|11919|dock5
  -GOLD-   2272017303D 1   1.00000     0.00000
 Structure written by MMmdl.
 40 40  0  0  0  0  0  0  0  0  2 V2000
  150.6242  137.4489  154.6981 C   0  0  0  0  0  0  0  0  0  0  0  0
  150.7119  138.9798  154.5443 C   0  0  0  0  0  0  0  0  0  0  0  0
  151.6892  139.5439  155.5915 C   0  0  0  0  0  0  0  0  0  0  0  0
  149.3171  139.6568  154.6126 C   0  0  1  0  0  0  0  0  0  0  0  0
  149.3842  141.1730  154.8686 C   0  0  0  0  0  0  0  0  0  0  0  0
  148.5854  139.4353  153.3648 N   0  0  0  0  0  0  0  0  0  0  0  0
  147.2918  139.0929  153.2577 C   0  0  0  0  0  0  0  0  0  0  0  0
  146.5493  138.9238  154.2256 O   0  0  0  0  0  0  0  0  0  0  0  0
  146.7582  138.9341  151.8332 C   0  0  0  0  0  0  0  0  0  0  0  0
  145.4526  138.2439  151.7996 N   0  3  0  0  0  0  0  0  0  0  0  0
  145.4898  136.8662  152.3265 C   0  0  0  0  0  0  0  0  0  0  0  0
  144.4314  135.9843  151.6490 C   0  0  0  0  0  0  0  0  0  0  0  0
  145.0086  134.7592  151.1303 N   0  0  0  0  0  0  0  0  0  0  0  0
  144.3910  133.7517  150.4190 C   0  0  0  0  0  0  0  0  0  0  0  0
  145.3381  132.8051  150.1510 C   0  0  0  0  0  0  0  0  0  0  0  0
  146.5198  133.3311  150.7444 C   0  0  0  0  0  0  0  0  0  0  0  0
  146.3190  134.5011  151.3298 N   0  0  0  0  0  0  0  0  0  0  0  0
  150.1628  137.1740  155.6473 H   0  0  0  0  0  0  0  0  0  0  0  0
  151.6146  136.9936  154.6680 H   0  0  0  0  0  0  0  0  0  0  0  0
  150.0412  136.9907  153.8990 H   0  0  0  0  0  0  0  0  0  0  0  0
  151.1390  139.1813  153.5607 H   0  0  0  0  0  0  0  0  0  0  0  0
  151.2916  139.4407  156.6017 H   0  0  0  0  0  0  0  0  0  0  0  0
  151.9033  140.5985  155.4204 H   0  0  0  0  0  0  0  0  0  0  0  0
  152.6453  139.0205  155.5577 H   0  0  0  0  0  0  0  0  0  0  0  0
  148.7704  139.2038  155.4420 H   0  0  0  0  0  0  0  0  0  0  0  0
  149.8044  141.4000  155.8480 H   0  0  0  0  0  0  0  0  0  0  0  0
  148.3893  141.6190  154.8418 H   0  0  0  0  0  0  0  0  0  0  0  0
  149.9931  141.6763  154.1167 H   0  0  0  0  0  0  0  0  0  0  0  0
  149.1120  139.5568  152.5117 H   0  0  0  0  0  0  0  0  0  0  0  0
  146.6586  139.9238  151.3856 H   0  0  0  0  0  0  0  0  0  0  0  0
  147.4775  138.3734  151.2343 H   0  0  0  0  0  0  0  0  0  0  0  0
  144.7945  138.7831  152.3439 H   0  0  0  0  0  0  0  0  0  0  0  0
  146.4860  136.4514  152.1652 H   0  0  0  0  0  0  0  0  0  0  0  0
  145.3197  136.8886  153.4038 H   0  0  0  0  0  0  0  0  0  0  0  0
  143.6434  135.7235  152.3569 H   0  0  0  0  0  0  0  0  0  0  0  0
  143.9548  136.5191  150.8259 H   0  0  0  0  0  0  0  0  0  0  0  0
  143.3416  133.7902  150.1663 H   0  0  0  0  0  0  0  0  0  0  0  0
  145.2077  131.8783  149.6123 H   0  0  0  0  0  0  0  0  0  0  0  0
  147.5102  132.9005  150.7667 H   0  0  0  0  0  0  0  0  0  0  0  0
  145.1312  138.2175  150.8419 H   0  0  0  0  0  0  0  0  0  0  0  0
  1  2  1  0  0  0  0
  1 18  1  0  0  0  0
  1 19  1  0  0  0  0
  1 20  1  0  0  0  0
  2  3  1  0  0  0  0
  2  4  1  0  0  0  0
  2 21  1  0  0  0  0
  3 22  1  0  0  0  0
  3 23  1  0  0  0  0
  3 24  1  0  0  0  0
  4  5  1  0  0  0  0
  4  6  1  0  0  0  0
  4 25  1  0  0  0  0
  5 26  1  0  0  0  0
  5 27  1  0  0  0  0
  5 28  1  0  0  0  0
  6  7  1  0  0  0  0
  6 29  1  0  0  0  0
  7  8  2  0  0  0  0
  7  9  1  0  0  0  0
  9 10  1  0  0  0  0
  9 30  1  0  0  0  0
  9 31  1  0  0  0  0
 10 11  1  0  0  0  0
 10 32  1  0  0  0  0
 10 40  1  0  0  0  0
 11 12  1  0  0  0  0
 11 33  1  0  0  0  0
 11 34  1  0  0  0  0
 12 13  1  0  0  0  0
 12 35  1  0  0  0  0
 12 36  1  0  0  0  0
 13 17  1  0  0  0  0
 13 14  1  0  0  0  0
 14 15  2  0  0  0  0
 14 37  1  0  0  0  0
 15 16  1  0  0  0  0
 15 38  1  0  0  0  0
 16 17  2  0  0  0  0
 16 39  1  0  0  0  0
M  CHG  1  10   1
M  END
> <s_m_source_file>
AV-unprocessed.smi

> <i_m_source_file_index>
3128

> <i_lp_mmshare_version>
43012

> <i_f3d_flags>
0

> <s_epik_input>
W0NIM11bQ0hdKFtDSDNdKVtDQEhdKFtDSDNdKVtOSF1DKD1PKVtDSDJdW05IXVtDSDJdW0NIMl1uMVtjSF1bY0hdW2NIXW4x

> <s_epik_cmdline>
J2VwaWtfcHl0aG9uJywgJy1waCcsICc3LjAnLCAnLXRuJywgJzgnLCAnLW1hJywgJzIwMCcsICctbWV0YWxfYmluZGluZycsICctaW1hZScsICc8aW5maWxlLm1hZT4nLCAnLW9tYWUnLCAnPG91dGZpbGUubWFlPic=

> <r_lp_tautomer_probability>
1

> <r_epik_Ionization_Penalty>
0.20724

> <r_epik_Ionization_Penalty_Charging>
0.207237

> <r_epik_Ionization_Penalty_Neutral>
3.20642e-06

> <r_epik_State_Penalty>
0.197613

> <r_epik_Charging_Adjusted_Penalty>
0.40485

> <i_epik_Tot_Q>
1

> <i_epik_Tot_abs_Q>
1

> <r_epik_Metal_State_Penalty>
0.197789

> <b_epik_Metal_Only>
0

> <s_lp_Force_Field>
OPLS_2005

> <r_lp_Energy>
4.49363

> <b_lp_Chiralities_Consistent>
1

> <s_lp_Variant>
AV-unprocessed.smi:3128-2

> <Gold.Version>
5.8.1

> <Gold.Id.Protein>
6NUR|6NUR_protein|mol2

> <Gold.PLP.Fitness>
52.6769

> <Gold.PLP.PLP>
-38.1832

> <Gold.PLP.part.hbond>
-2.6720

> <Gold.PLP.part.metal>
0.0000

> <Gold.PLP.part.buried>
-3.9717

> <Gold.PLP.part.nonpolar>
-32.4942

> <Gold.PLP.part.repulsive>
0.4810

> <Gold.PLP.ligand.clash>
0.0000

> <Gold.PLP.ligand.torsion>
1.2836

> <Gold.PLP.Chemscore.Hbond>
3.6445

> <Gold.PLP.Chemscore.CHOScore>
2.0000

> <Gold.PLP.Chemscore.Metal>
0.0000

> <Gold.Chemscore.Hbonds>
donor molecule, donor type, donor heavy atom, donor atom, acceptor molecule, acceptor atom, score
      L1  H     6    29       P1  7957  0.96
      L1  H    10    32       P1 10175  1.86
      L1  H    10    40       P1 10171  0.91
      L1  C    14    37       P1 10186  1.00
      L1  C    16    39       P1 10747  0.94

> <Gold.PLP.Chemscore.Internal.Correction>
0.1275

> <Gold.Rescore>
     Score         DG    S(hbond)    S(metal)    S(lipo)     H(rot)  DE(clash)    DE(int)     intcor
     15.75     -18.21       2.75        0.00      79.48       2.24       0.00       2.46       ----

> <Gold.Chemscore.Fitness>
15.7480

> <Gold.Chemscore.DG>
-18.2132

> <Gold.Chemscore.ZeroCoef>
-5.4800

> <Gold.Chemscore.Hbond>
2.7462

> <Gold.Chemscore.Metal>
0.0000

> <Gold.Chemscore.Lipo>
79.4812

> <Gold.Chemscore.Internal_Hbond>
0.0000

> <Gold.Chemscore.DEClash>
0.0044

> <Gold.Chemscore.DEInternal>
2.4608

> <Gold.Chemscore.Rot>
2.2416

> <Gold.Chemscore.Internal.Correction>
   9.000000E+99

> <Gold.Chemscore.Hbonds>
donor molecule, donor type, donor heavy atom, donor atom, acceptor molecule, acceptor atom, score
      L1  H     6    29       P1  7957  0.91
      L1  H    10    32       P1 10175  0.85
      L1  H    10    40       P1 10171  0.88

> <Gold.Chemscore.Hbond.Weighted>
-9.1724

> <Gold.Chemscore.Metal.Weighted>
-0.0000

> <Gold.Chemscore.Lipo.Weighted>
-9.2993

> <Gold.Chemscore.Internal_Hbond.Weighted>
0.0000

> <Gold.Chemscore.DEClash.Weighted>
0.0044

> <Gold.Chemscore.DEInternal.Weighted>
2.4608

> <Gold.Chemscore.Rot.Weighted>
5.7385

> <Gold.Chemscore.Internal.Correction.Weighted>
   9.000000E+99

> <Gold.Protein.RotatedTorsions>
[ 6907 6896 6895 6894 ] final -116.41 input  -60.11 | X-H torsion
[ 7974 7965 7964 7962 ] final  -13.23 input  175.53 | X-H torsion
[ 8008 7997 7996 7995 ] final -128.18 input   59.86 | X-H torsion
[ 10167 10162 10161 10158 ] final  107.24 input  -65.29 | X-H torsion
[ 10718 10713 10712 10709 ] final  100.18 input   66.30 | X-H torsion
[ 10763 10752 10751 10750 ] final   75.36 input  -60.55 | X-H torsion
[ 11005 11000 10999 10996 ] final  -18.90 input  -57.11 | X-H torsion

> <Gold.Protein.ActiveResidues>
 VAL166  LYS551  ARG553  GLY616  TRP617  ASP618  TYR619  PRO620  LYS621  CYS622 
 ASP623  PHE694  ASN695  SER759  ASP760  ASP761  ALA762  ILE779  LEU786  VAL792 
 PHE793  MET794  SER795  GLU796  ALA797  LYS798  CYS799  TRP800  GLU811  SER814 

> <Gold.Protein.RotatedAtoms>
  150.8054  133.8520  159.3207 H   0  0  0  0  0  0  0  0  0  0  0  0  # atno 6907 bound_to 6896
  151.6321  135.1020  160.0133 H   0  0  0  0  0  0  0  0  0  0  0  0  # atno 6908 bound_to 6896
  152.4144  133.6975  159.6461 H   0  0  0  0  0  0  0  0  0  0  0  0  # atno 6909 bound_to 6896
  146.2122  140.3173  142.8387 H   0  0  0  0  0  0  0  0  0  0  0  0  # atno 7974 bound_to 7965
  155.2584  140.0435  157.2994 H   0  0  0  0  0  0  0  0  0  0  0  0  # atno 8008 bound_to 7997
  154.5726  140.2378  155.8139 H   0  0  0  0  0  0  0  0  0  0  0  0  # atno 8009 bound_to 7997
  156.2134  140.2992  155.9791 H   0  0  0  0  0  0  0  0  0  0  0  0  # atno 8010 bound_to 7997
  139.6943  144.7103  151.1294 H   0  0  0  0  0  0  0  0  0  0  0  0  # atno 10167 bound_to 10162
  157.6860  131.0691  150.5061 H   0  0  0  0  0  0  0  0  0  0  0  0  # atno 10718 bound_to 10713
  153.0649  135.4991  154.8178 H   0  0  0  0  0  0  0  0  0  0  0  0  # atno 10763 bound_to 10752
  154.6939  135.2989  154.9442 H   0  0  0  0  0  0  0  0  0  0  0  0  # atno 10764 bound_to 10752
  154.0188  135.6745  153.4823 H   0  0  0  0  0  0  0  0  0  0  0  0  # atno 10765 bound_to 10752
  140.8314  133.7994  155.9762 H   0  0  0  0  0  0  0  0  0  0  0  0  # atno 11005 bound_to 11000
  144.8945  140.7566  143.5905 LP  0  0  0  0  0  0  0  0  0  0  0  0  # atno 17320 bound_to 7965
  145.3096  139.1823  143.4646 LP  0  0  0  0  0  0  0  0  0  0  0  0  # atno 17321 bound_to 7965
  140.7692  143.5514  150.9200 LP  0  0  0  0  0  0  0  0  0  0  0  0  # atno 17342 bound_to 10162
  139.9193  143.6625  152.3100 LP  0  0  0  0  0  0  0  0  0  0  0  0  # atno 17343 bound_to 10162
  156.5381  130.4201  149.6168 LP  0  0  0  0  0  0  0  0  0  0  0  0  # atno 17370 bound_to 10713
  156.3010  130.7176  151.2048 LP  0  0  0  0  0  0  0  0  0  0  0  0  # atno 17371 bound_to 10713
  140.8994  134.2397  157.5050 LP  0  0  0  0  0  0  0  0  0  0  0  0  # atno 17394 bound_to 11000
  139.8705  134.9699  156.4683 LP  0  0  0  0  0  0  0  0  0  0  0  0  # atno 17395 bound_to 11000

$$$$
