AV-unprocessed.smi:160|AV-procd|sdf|1357|dock5
  -GOLD-   2262019 63D 1   1.00000     0.00000
 Structure written by MMmdl.
 29 30  0  0  0  0  0  0  0  0  1 V2000
  142.5858  134.3026  155.1617 N   0  0  0  0  0  0  0  0  0  0  0  0
  142.8411  135.6081  155.0280 C   0  0  0  0  0  0  0  0  0  0  0  0
  142.4998  136.4359  155.8714 O   0  0  0  0  0  0  0  0  0  0  0  0
  143.5734  136.0173  153.7802 C   0  0  0  0  0  0  0  0  0  0  0  0
  143.7371  137.3344  153.4569 N   0  0  0  0  0  0  0  0  0  0  0  0
  144.4101  137.1885  152.3227 C   0  0  0  0  0  0  0  0  0  0  0  0
  144.6431  135.9166  151.9832 N   0  0  0  0  0  0  0  0  0  0  0  0
  145.3608  135.3590  150.7898 C   0  0  2  0  0  0  0  0  0  0  0  0
  144.4136  134.7966  149.9302 O   0  0  0  0  0  0  0  0  0  0  0  0
  144.4371  133.3778  150.0511 C   0  0  1  0  0  0  0  0  0  0  0  0
  143.8305  132.7347  148.7947 C   0  0  0  0  0  0  0  0  0  0  0  0
  143.5670  133.7247  147.8234 O   0  0  0  0  0  0  0  0  0  0  0  0
  145.9350  133.1171  150.2158 C   0  0  2  0  0  0  0  0  0  0  0  0
  146.2190  131.8250  150.7191 O   0  0  0  0  0  0  0  0  0  0  0  0
  146.3787  134.2474  151.1438 C   0  0  2  0  0  0  0  0  0  0  0  0
  146.3763  133.8659  152.5118 O   0  0  0  0  0  0  0  0  0  0  0  0
  144.0934  135.1236  152.9376 N   0  0  0  0  0  0  0  0  0  0  0  0
  145.8184  136.2294  150.3182 H   0  0  0  0  0  0  0  0  0  0  0  0
  143.9052  133.0634  150.9512 H   0  0  0  0  0  0  0  0  0  0  0  0
  146.4304  133.2356  149.2508 H   0  0  0  0  0  0  0  0  0  0  0  0
  147.3833  134.5859  150.8882 H   0  0  0  0  0  0  0  0  0  0  0  0
  142.0968  133.9657  155.9777 H   0  0  0  0  0  0  0  0  0  0  0  0
  142.8853  133.6608  154.4416 H   0  0  0  0  0  0  0  0  0  0  0  0
  144.7427  138.0266  151.7282 H   0  0  0  0  0  0  0  0  0  0  0  0
  144.4845  131.9640  148.3860 H   0  0  0  0  0  0  0  0  0  0  0  0
  142.8808  132.2580  149.0391 H   0  0  0  0  0  0  0  0  0  0  0  0
  144.3779  134.1607  147.6104 H   0  0  0  0  0  0  0  0  0  0  0  0
  147.1424  131.6572  150.6095 H   0  0  0  0  0  0  0  0  0  0  0  0
  145.7609  133.1583  152.6279 H   0  0  0  0  0  0  0  0  0  0  0  0
  1  2  1  0  0  0  0
  1 22  1  0  0  0  0
  1 23  1  0  0  0  0
  2  3  2  0  0  0  0
  2  4  1  0  0  0  0
  4 17  2  0  0  0  0
  4  5  1  0  0  0  0
  5  6  2  0  0  0  0
  6  7  1  0  0  0  0
  6 24  1  0  0  0  0
  7  8  1  0  0  0  0
  7 17  1  0  0  0  0
  8 18  1  0  0  0  0
  8 15  1  0  0  0  0
  8  9  1  0  0  0  0
  9 10  1  0  0  0  0
 10 19  1  0  0  0  0
 10 11  1  0  0  0  0
 10 13  1  0  0  0  0
 11 12  1  0  0  0  0
 11 25  1  0  0  0  0
 11 26  1  0  0  0  0
 12 27  1  0  0  0  0
 13 20  1  0  0  0  0
 13 14  1  0  0  0  0
 13 15  1  0  0  0  0
 14 28  1  0  0  0  0
 15 21  1  0  0  0  0
 15 16  1  0  0  0  0
 16 29  1  0  0  0  0
M  END
> <s_m_source_file>
AV-unprocessed.smi

> <i_m_source_file_index>
160

> <i_lp_mmshare_version>
43012

> <i_f3d_flags>
0

> <s_epik_input>
W05IMl1DKD1PKWMxbltjSF1uKG4xKVtDQEBIXTJPW0NASF0oW0NIMl1bT0hdKVtDQEBIXShbT0hdKVtDQEhdMltPSF0=

> <s_epik_cmdline>
J2VwaWtfcHl0aG9uJywgJy1waCcsICc3LjAnLCAnLXRuJywgJzgnLCAnLW1hJywgJzIwMCcsICctbWV0YWxfYmluZGluZycsICctaW1hZScsICc8aW5maWxlLm1hZT4nLCAnLW9tYWUnLCAnPG91dGZpbGUubWFlPic=

> <r_lp_tautomer_probability>
1

> <r_epik_Ionization_Penalty>
1.06932e-05

> <r_epik_Ionization_Penalty_Charging>
0

> <r_epik_Ionization_Penalty_Neutral>
1.06932e-05

> <r_epik_State_Penalty>
-0

> <r_epik_Charging_Adjusted_Penalty>
0

> <i_epik_Tot_Q>
0

> <i_epik_Tot_abs_Q>
0

> <r_epik_Metal_State_Penalty>
0.0142097

> <b_epik_Metal_Only>
0

> <s_epik_Chemistry_Notes>
This compound contains an acetal/aminal-like group ( X-CH(R)-Y where X, Y are N, S, or O) that may be acid/base labile, releasing an aldehyde.

> <s_lp_Force_Field>
OPLS_2005

> <r_lp_Energy>
46.1783

> <b_lp_Chiralities_Consistent>
1

> <s_lp_Variant>
AV-unprocessed.smi:160-15

> <Gold.Version>
5.8.1

> <Gold.Id.Protein>
6NUR|6NUR_protein|mol2

> <Gold.PLP.Fitness>
39.9868

> <Gold.PLP.PLP>
-26.8273

> <Gold.PLP.part.hbond>
-6.9902

> <Gold.PLP.part.metal>
0.0000

> <Gold.PLP.part.buried>
-3.0094

> <Gold.PLP.part.nonpolar>
-17.3742

> <Gold.PLP.part.repulsive>
1.6148

> <Gold.PLP.ligand.clash>
0.0000

> <Gold.PLP.ligand.torsion>
1.0113

> <Gold.PLP.Chemscore.Hbond>
3.6828

> <Gold.PLP.Chemscore.CHOScore>
1.3725

> <Gold.PLP.Chemscore.Metal>
0.0000

> <Gold.Chemscore.Hbonds>
donor molecule, donor type, donor heavy atom, donor atom, acceptor molecule, acceptor atom, score
      L1  H     1    22       P1 11000  0.74
      L1  H     1    23       P1 10957  0.34
      L1  H    12    27       P1  7921  1.00
      L1  H    14    28       P1 10747  1.00
      P1  H 10192 10197       L1    12  0.54
      L1  C     6    24       P1 10171  0.89
      L1  C     6    24       P1 10175  0.34

> <Gold.PLP.Chemscore.Internal.Correction>
0.0161

> <Gold.Rescore>
     Score         DG    S(hbond)    S(metal)    S(lipo)     H(rot)  DE(clash)    DE(int)     intcor
      9.07     -11.33       3.66        0.00      34.29       4.06       0.18       2.07       ----

> <Gold.Chemscore.Fitness>
9.0741

> <Gold.Chemscore.DG>
-11.3276

> <Gold.Chemscore.ZeroCoef>
-5.4800

> <Gold.Chemscore.Hbond>
3.6615

> <Gold.Chemscore.Metal>
0.0000

> <Gold.Chemscore.Lipo>
34.2903

> <Gold.Chemscore.Internal_Hbond>
0.0000

> <Gold.Chemscore.DEClash>
0.1830

> <Gold.Chemscore.DEInternal>
2.0705

> <Gold.Chemscore.Rot>
4.0600

> <Gold.Chemscore.Internal.Correction>
   9.000000E+99

> <Gold.Chemscore.Hbonds>
donor molecule, donor type, donor heavy atom, donor atom, acceptor molecule, acceptor atom, score
      L1  H     1    22       P1 11000  0.61
      L1  H     1    23       P1 10957  0.34
      L1  H    12    27       P1  7921  1.00
      L1  H    14    28       P1 10747  0.93
      P1  H 10192 10197       L1    12  0.21

> <Gold.Chemscore.Hbond.Weighted>
-12.2293

> <Gold.Chemscore.Metal.Weighted>
-0.0000

> <Gold.Chemscore.Lipo.Weighted>
-4.0120

> <Gold.Chemscore.Internal_Hbond.Weighted>
0.0000

> <Gold.Chemscore.DEClash.Weighted>
0.1830

> <Gold.Chemscore.DEInternal.Weighted>
2.0705

> <Gold.Chemscore.Rot.Weighted>
10.3936

> <Gold.Chemscore.Internal.Correction.Weighted>
   9.000000E+99

> <Gold.Protein.RotatedTorsions>
[ 6907 6896 6895 6894 ] final    4.99 input  -60.11 | X-H torsion
[ 7974 7965 7964 7962 ] final  -20.01 input  175.53 | X-H torsion
[ 8008 7997 7996 7995 ] final -138.90 input   59.86 | X-H torsion
[ 10167 10162 10161 10158 ] final  -81.06 input  -65.29 | X-H torsion
[ 10718 10713 10712 10709 ] final   85.27 input   66.30 | X-H torsion
[ 10763 10752 10751 10750 ] final -120.55 input  -60.55 | X-H torsion
[ 11005 11000 10999 10996 ] final  164.87 input  -57.11 | X-H torsion

> <Gold.Protein.ActiveResidues>
 VAL166  LYS551  ARG553  GLY616  TRP617  ASP618  TYR619  PRO620  LYS621  CYS622 
 ASP623  PHE694  ASN695  SER759  ASP760  ASP761  ALA762  ILE779  LEU786  VAL792 
 PHE793  MET794  SER795  GLU796  ALA797  LYS798  CYS799  TRP800  GLU811  SER814 

> <Gold.Protein.RotatedAtoms>
  151.6502  135.1002  160.0158 H   0  0  0  0  0  0  0  0  0  0  0  0  # atno 6907 bound_to 6896
  152.4005  133.6806  159.6321 H   0  0  0  0  0  0  0  0  0  0  0  0  # atno 6908 bound_to 6896
  150.7906  133.8716  159.3301 H   0  0  0  0  0  0  0  0  0  0  0  0  # atno 6909 bound_to 6896
  146.1811  140.4143  142.8494 H   0  0  0  0  0  0  0  0  0  0  0  0  # atno 7974 bound_to 7965
  155.4360  140.0528  157.3014 H   0  0  0  0  0  0  0  0  0  0  0  0  # atno 8008 bound_to 7997
  154.4839  140.2093  155.9658 H   0  0  0  0  0  0  0  0  0  0  0  0  # atno 8009 bound_to 7997
  156.1246  140.3182  155.8263 H   0  0  0  0  0  0  0  0  0  0  0  0  # atno 8010 bound_to 7997
  140.4447  143.2503  151.8576 H   0  0  0  0  0  0  0  0  0  0  0  0  # atno 10167 bound_to 10162
  157.6912  131.0168  150.2798 H   0  0  0  0  0  0  0  0  0  0  0  0  # atno 10718 bound_to 10713
  154.8647  135.4199  154.2478 H   0  0  0  0  0  0  0  0  0  0  0  0  # atno 10763 bound_to 10752
  153.3430  135.6994  153.6857 H   0  0  0  0  0  0  0  0  0  0  0  0  # atno 10764 bound_to 10752
  153.5827  135.3570  155.2854 H   0  0  0  0  0  0  0  0  0  0  0  0  # atno 10765 bound_to 10752
  140.2503  134.7982  157.3495 H   0  0  0  0  0  0  0  0  0  0  0  0  # atno 11005 bound_to 11000
  144.8316  140.6716  143.6287 LP  0  0  0  0  0  0  0  0  0  0  0  0  # atno 17320 bound_to 7965
  145.4074  139.1586  143.4144 LP  0  0  0  0  0  0  0  0  0  0  0  0  # atno 17321 bound_to 7965
  139.4792  144.5189  151.8829 LP  0  0  0  0  0  0  0  0  0  0  0  0  # atno 17342 bound_to 10162
  140.4278  144.2157  150.5887 LP  0  0  0  0  0  0  0  0  0  0  0  0  # atno 17343 bound_to 10162
  156.3346  130.3806  149.7461 LP  0  0  0  0  0  0  0  0  0  0  0  0  # atno 17370 bound_to 10713
  156.4989  130.8120  151.3125 LP  0  0  0  0  0  0  0  0  0  0  0  0  # atno 17371 bound_to 10713
  140.1565  134.4783  155.7924 LP  0  0  0  0  0  0  0  0  0  0  0  0  # atno 17394 bound_to 11000
  141.2202  133.6883  156.7469 LP  0  0  0  0  0  0  0  0  0  0  0  0  # atno 17395 bound_to 11000

$$$$
