AV-unprocessed.smi:3161|AV-procd|sdf|12057|dock1
  -GOLD-   2272017483D 1   1.00000     0.00000
 Structure written by MMmdl.
 41 42  0  0  0  0  0  0  0  0  2 V2000
  151.4000  136.4689  155.0738 C   0  0  0  0  0  0  0  0  0  0  0  0
  150.8830  137.8619  154.8570 C   0  0  0  0  0  0  0  0  0  0  0  0
  151.5108  139.0909  155.2077 C   0  0  0  0  0  0  0  0  0  0  0  0
  150.7851  140.1490  154.8851 N   0  0  0  0  0  0  0  0  0  0  0  0
  149.6736  139.6353  154.3160 N   0  0  0  0  0  0  0  0  0  0  0  0
  148.6237  140.5249  153.8500 C   0  0  0  0  0  0  0  0  0  0  0  0
  148.0812  141.4214  154.9797 C   0  0  2  0  0  0  0  0  0  0  0  0
  147.0517  142.4282  154.4427 C   0  0  0  0  0  0  0  0  0  0  0  0
  149.1983  142.1208  155.6535 N   0  3  0  0  0  0  0  0  0  0  0  0
  149.5552  141.6039  156.9900 C   0  0  0  0  0  0  0  0  0  0  0  0
  150.9663  142.0591  157.3863 C   0  0  1  0  0  0  0  0  0  0  0  0
  150.9829  143.5173  157.8839 C   0  0  0  0  0  0  0  0  0  0  0  0
  152.3835  143.9056  158.3718 C   0  0  0  0  0  0  0  0  0  0  0  0
  152.8752  142.8830  159.4018 C   0  0  0  0  0  0  0  0  0  0  0  0
  152.7621  141.4592  158.8354 C   0  0  0  0  0  0  0  0  0  0  0  0
  151.4189  141.2050  158.4357 O   0  0  0  0  0  0  0  0  0  0  0  0
  149.7068  138.2572  154.2848 C   0  0  0  0  0  0  0  0  0  0  0  0
  152.4895  136.4414  155.1009 H   0  0  0  0  0  0  0  0  0  0  0  0
  151.0823  135.7911  154.2813 H   0  0  0  0  0  0  0  0  0  0  0  0
  151.0443  136.0518  156.0159 H   0  0  0  0  0  0  0  0  0  0  0  0
  152.4662  139.2439  155.6878 H   0  0  0  0  0  0  0  0  0  0  0  0
  149.0067  141.1284  153.0252 H   0  0  0  0  0  0  0  0  0  0  0  0
  147.8213  139.9104  153.4394 H   0  0  0  0  0  0  0  0  0  0  0  0
  147.5865  140.7744  155.7061 H   0  0  0  0  0  0  0  0  0  0  0  0
  146.2293  141.9164  153.9422 H   0  0  0  0  0  0  0  0  0  0  0  0
  147.5035  143.1113  153.7226 H   0  0  0  0  0  0  0  0  0  0  0  0
  146.6187  143.0271  155.2439 H   0  0  0  0  0  0  0  0  0  0  0  0
  150.0148  142.0041  155.0688 H   0  0  0  0  0  0  0  0  0  0  0  0
  148.8275  141.9630  157.7180 H   0  0  0  0  0  0  0  0  0  0  0  0
  149.5052  140.5143  156.9924 H   0  0  0  0  0  0  0  0  0  0  0  0
  151.6301  141.9618  156.5250 H   0  0  0  0  0  0  0  0  0  0  0  0
  150.6660  144.1931  157.0889 H   0  0  0  0  0  0  0  0  0  0  0  0
  150.2680  143.6369  158.6991 H   0  0  0  0  0  0  0  0  0  0  0  0
  153.0718  143.9362  157.5262 H   0  0  0  0  0  0  0  0  0  0  0  0
  152.3726  144.9066  158.8040 H   0  0  0  0  0  0  0  0  0  0  0  0
  153.9061  143.0974  159.6852 H   0  0  0  0  0  0  0  0  0  0  0  0
  152.2775  142.9606  160.3107 H   0  0  0  0  0  0  0  0  0  0  0  0
  153.4378  141.3204  157.9900 H   0  0  0  0  0  0  0  0  0  0  0  0
  153.0482  140.7300  159.5936 H   0  0  0  0  0  0  0  0  0  0  0  0
  148.8970  137.6770  153.8672 H   0  0  0  0  0  0  0  0  0  0  0  0
  148.9901  143.1073  155.7123 H   0  0  0  0  0  0  0  0  0  0  0  0
  1  2  1  0  0  0  0
  1 18  1  0  0  0  0
  1 19  1  0  0  0  0
  1 20  1  0  0  0  0
  2 17  2  0  0  0  0
  2  3  1  0  0  0  0
  3  4  2  0  0  0  0
  3 21  1  0  0  0  0
  4  5  1  0  0  0  0
  5  6  1  0  0  0  0
  5 17  1  0  0  0  0
  6  7  1  0  0  0  0
  6 22  1  0  0  0  0
  6 23  1  0  0  0  0
  7  8  1  0  0  0  0
  7  9  1  0  0  0  0
  7 24  1  0  0  0  0
  8 25  1  0  0  0  0
  8 26  1  0  0  0  0
  8 27  1  0  0  0  0
  9 10  1  0  0  0  0
  9 28  1  0  0  0  0
  9 41  1  0  0  0  0
 10 11  1  0  0  0  0
 10 29  1  0  0  0  0
 10 30  1  0  0  0  0
 11 16  1  0  0  0  0
 11 12  1  0  0  0  0
 11 31  1  0  0  0  0
 12 13  1  0  0  0  0
 12 32  1  0  0  0  0
 12 33  1  0  0  0  0
 13 14  1  0  0  0  0
 13 34  1  0  0  0  0
 13 35  1  0  0  0  0
 14 15  1  0  0  0  0
 14 36  1  0  0  0  0
 14 37  1  0  0  0  0
 15 16  1  0  0  0  0
 15 38  1  0  0  0  0
 15 39  1  0  0  0  0
 17 40  1  0  0  0  0
M  CHG  1   9   1
M  END
> <s_m_source_file>
AV-unprocessed.smi

> <i_m_source_file_index>
3161

> <i_lp_mmshare_version>
43012

> <i_f3d_flags>
0

> <s_epik_input>
W0NIM11jMVtjSF1ubihbY0hdMSlbQ0gyXVtDQEhdKFtDSDNdKVtOSF1bQ0gyXVtDQEBIXTJbQ0gyXVtDSDJdW0NIMl1bQ0gyXU8y

> <s_epik_cmdline>
J2VwaWtfcHl0aG9uJywgJy1waCcsICc3LjAnLCAnLXRuJywgJzgnLCAnLW1hJywgJzIwMCcsICctbWV0YWxfYmluZGluZycsICctaW1hZScsICc8aW5maWxlLm1hZT4nLCAnLW9tYWUnLCAnPG91dGZpbGUubWFlPic=

> <r_lp_tautomer_probability>
1

> <r_epik_Ionization_Penalty>
0.00849661

> <r_epik_Ionization_Penalty_Charging>
0.00848754

> <r_epik_Ionization_Penalty_Neutral>
9.06711e-06

> <r_epik_State_Penalty>
0.00639836

> <r_epik_Charging_Adjusted_Penalty>
0.0148859

> <i_epik_Tot_Q>
1

> <i_epik_Tot_abs_Q>
1

> <r_epik_Metal_State_Penalty>
0.00639921

> <b_epik_Metal_Only>
0

> <s_lp_Force_Field>
OPLS_2005

> <r_lp_Energy>
12.1076

> <b_lp_Chiralities_Consistent>
1

> <s_lp_Variant>
AV-unprocessed.smi:3161-3

> <Gold.Version>
5.8.1

> <Gold.Id.Protein>
6NUR|6NUR_protein|mol2

> <Gold.PLP.Fitness>
45.7106

> <Gold.PLP.PLP>
-35.5003

> <Gold.PLP.part.hbond>
-2.0000

> <Gold.PLP.part.metal>
0.0000

> <Gold.PLP.part.buried>
1.5612

> <Gold.PLP.part.nonpolar>
-36.1284

> <Gold.PLP.part.repulsive>
0.1989

> <Gold.PLP.ligand.clash>
0.0000

> <Gold.PLP.ligand.torsion>
0.9383

> <Gold.PLP.Chemscore.Hbond>
3.0000

> <Gold.PLP.Chemscore.CHOScore>
0.9984

> <Gold.PLP.Chemscore.Metal>
0.0000

> <Gold.Chemscore.Hbonds>
donor molecule, donor type, donor heavy atom, donor atom, acceptor molecule, acceptor atom, score
      L1  H     9    41       P1  8028  2.00
      P1  H  7989  7998       L1     4  1.00
      L1  C    17    40       P1  7948  0.93

> <Gold.PLP.Chemscore.Internal.Correction>
0.0919

> <Gold.Rescore>
     Score         DG    S(hbond)    S(metal)    S(lipo)     H(rot)  DE(clash)    DE(int)     intcor
     16.16     -18.82       1.68        0.00     100.40       1.57       0.35       2.32       ----

> <Gold.Chemscore.Fitness>
16.1558

> <Gold.Chemscore.DG>
-18.8235

> <Gold.Chemscore.ZeroCoef>
-5.4800

> <Gold.Chemscore.Hbond>
1.6825

> <Gold.Chemscore.Metal>
0.0000

> <Gold.Chemscore.Lipo>
100.4002

> <Gold.Chemscore.Internal_Hbond>
0.0000

> <Gold.Chemscore.DEClash>
0.3486

> <Gold.Chemscore.DEInternal>
2.3191

> <Gold.Chemscore.Rot>
1.5714

> <Gold.Chemscore.Internal.Correction>
   9.000000E+99

> <Gold.Chemscore.Hbonds>
donor molecule, donor type, donor heavy atom, donor atom, acceptor molecule, acceptor atom, score
      L1  H     9    41       P1  8028  0.99
      P1  H  7989  7998       L1     4  0.20

> <Gold.Chemscore.Hbond.Weighted>
-5.6195

> <Gold.Chemscore.Metal.Weighted>
-0.0000

> <Gold.Chemscore.Lipo.Weighted>
-11.7468

> <Gold.Chemscore.Internal_Hbond.Weighted>
0.0000

> <Gold.Chemscore.DEClash.Weighted>
0.3486

> <Gold.Chemscore.DEInternal.Weighted>
2.3191

> <Gold.Chemscore.Rot.Weighted>
4.0228

> <Gold.Chemscore.Internal.Correction.Weighted>
   9.000000E+99

> <Gold.Protein.RotatedTorsions>
[ 6907 6896 6895 6894 ] final   66.00 input  -60.11 | X-H torsion
[ 7974 7965 7964 7962 ] final   72.07 input  175.53 | X-H torsion
[ 8008 7997 7996 7995 ] final   80.73 input   59.86 | X-H torsion
[ 10167 10162 10161 10158 ] final   28.09 input  -65.29 | X-H torsion
[ 10718 10713 10712 10709 ] final   -0.22 input   66.30 | X-H torsion
[ 10763 10752 10751 10750 ] final  171.62 input  -60.55 | X-H torsion
[ 11005 11000 10999 10996 ] final   38.57 input  -57.11 | X-H torsion

> <Gold.Protein.ActiveResidues>
 VAL166  LYS551  ARG553  GLY616  TRP617  ASP618  TYR619  PRO620  LYS621  CYS622 
 ASP623  PHE694  ASN695  SER759  ASP760  ASP761  ALA762  ILE779  LEU786  VAL792 
 PHE793  MET794  SER795  GLU796  ALA797  LYS798  CYS799  TRP800  GLU811  SER814 

> <Gold.Protein.RotatedAtoms>
  152.4449  134.5516  159.9868 H   0  0  0  0  0  0  0  0  0  0  0  0  # atno 6907 bound_to 6896
  151.5603  133.3398  159.2978 H   0  0  0  0  0  0  0  0  0  0  0  0  # atno 6908 bound_to 6896
  150.8363  134.7670  159.6959 H   0  0  0  0  0  0  0  0  0  0  0  0  # atno 6909 bound_to 6896
  145.7579  139.2788  143.1393 H   0  0  0  0  0  0  0  0  0  0  0  0  # atno 7974 bound_to 7965
  155.8875  140.3440  155.5932 H   0  0  0  0  0  0  0  0  0  0  0  0  # atno 8008 bound_to 7997
  155.7649  140.0837  157.2156 H   0  0  0  0  0  0  0  0  0  0  0  0  # atno 8009 bound_to 7997
  154.4030  140.1529  156.2862 H   0  0  0  0  0  0  0  0  0  0  0  0  # atno 8010 bound_to 7997
  140.4882  144.0508  150.6288 H   0  0  0  0  0  0  0  0  0  0  0  0  # atno 10167 bound_to 10162
  156.8236  130.5464  149.5694 H   0  0  0  0  0  0  0  0  0  0  0  0  # atno 10718 bound_to 10713
  154.4144  135.2757  155.2016 H   0  0  0  0  0  0  0  0  0  0  0  0  # atno 10763 bound_to 10752
  154.3988  135.6049  153.5889 H   0  0  0  0  0  0  0  0  0  0  0  0  # atno 10764 bound_to 10752
  152.9832  135.5921  154.4431 H   0  0  0  0  0  0  0  0  0  0  0  0  # atno 10765 bound_to 10752
  140.2113  134.3752  155.8048 H   0  0  0  0  0  0  0  0  0  0  0  0  # atno 11005 bound_to 11000
  146.0293  140.8273  142.9884 LP  0  0  0  0  0  0  0  0  0  0  0  0  # atno 17320 bound_to 7965
  144.6836  140.2745  143.7301 LP  0  0  0  0  0  0  0  0  0  0  0  0  # atno 17321 bound_to 7965
  140.3770  143.2823  152.0214 LP  0  0  0  0  0  0  0  0  0  0  0  0  # atno 17342 bound_to 10162
  139.4846  144.6185  151.7300 LP  0  0  0  0  0  0  0  0  0  0  0  0  # atno 17343 bound_to 10162
  156.0974  130.5943  150.9837 LP  0  0  0  0  0  0  0  0  0  0  0  0  # atno 17370 bound_to 10713
  157.6444  131.0906  150.8184 LP  0  0  0  0  0  0  0  0  0  0  0  0  # atno 17371 bound_to 10713
  141.2226  133.7144  156.8422 LP  0  0  0  0  0  0  0  0  0  0  0  0  # atno 17394 bound_to 11000
  140.1948  134.8940  157.3102 LP  0  0  0  0  0  0  0  0  0  0  0  0  # atno 17395 bound_to 11000

$$$$
