AV-unprocessed.smi:1830|AV-procd|sdf|7438|dock4
  -GOLD-   22720 9123D 1   1.00000     0.00000
 Structure written by MMmdl.
 53 56  0  0  0  0  0  0  0  0  2 V2000
  145.1998  138.3705  152.4636 O   0  0  0  0  0  0  0  0  0  0  0  0
  146.2889  137.8099  152.3502 C   0  0  0  0  0  0  0  0  0  0  0  0
  146.4424  136.5967  151.8011 N   0  0  0  0  0  0  0  0  0  0  0  0
  145.3749  135.7753  151.2383 C   0  0  0  0  0  0  0  0  0  0  0  0
  144.6826  134.9489  152.3413 C   0  0  2  0  0  0  0  0  0  0  0  0
  145.6399  133.9575  153.0483 C   0  0  0  0  0  0  0  0  0  0  0  0
  145.8911  132.8084  152.1583 N   0  3  1  0  0  0  0  0  0  0  0  0
  146.7844  131.7389  152.6375 C   0  0  0  0  0  0  0  0  0  0  0  0
  146.3696  130.4875  151.8379 C   0  0  0  0  0  0  0  0  0  0  0  0
  145.1158  130.8961  151.0441 C   0  0  0  0  0  0  0  0  0  0  0  0
  144.6416  132.1519  151.7687 C   0  0  2  0  0  0  0  0  0  0  0  0
  143.7743  133.1470  150.9897 C   0  0  0  0  0  0  0  0  0  0  0  0
  143.5200  134.2690  151.8402 O   0  0  0  0  0  0  0  0  0  0  0  0
  147.4698  138.3054  152.7588 N   0  0  0  0  0  0  0  0  0  0  0  0
  147.7512  139.5270  153.4391 C   0  0  0  0  0  0  0  0  0  0  0  0
  146.9082  140.6649  153.3839 C   0  0  0  0  0  0  0  0  0  0  0  0
  147.2771  141.8282  154.0838 C   0  0  0  0  0  0  0  0  0  0  0  0
  148.4805  141.8189  154.8105 C   0  0  0  0  0  0  0  0  0  0  0  0
  149.3023  140.7516  154.8614 N   0  0  0  0  0  0  0  0  0  0  0  0
  148.9531  139.6283  154.1875 C   0  0  0  0  0  0  0  0  0  0  0  0
  149.8352  138.5341  154.2472 N   0  0  0  0  0  0  0  0  0  0  0  0
  149.3385  137.3651  154.9528 C   0  0  0  0  0  0  0  0  0  0  0  0
  150.5681  136.4846  155.1824 C   0  0  0  0  0  0  0  0  0  0  0  0
  151.7541  137.4565  155.1571 C   0  0  0  0  0  0  0  0  0  0  0  0
  151.1442  138.8193  154.8127 C   0  0  0  0  0  0  0  0  0  0  0  0
  147.3768  136.2163  151.7553 H   0  0  0  0  0  0  0  0  0  0  0  0
  144.6678  136.4293  150.7291 H   0  0  0  0  0  0  0  0  0  0  0  0
  145.7594  135.1001  150.4723 H   0  0  0  0  0  0  0  0  0  0  0  0
  144.3274  135.6531  153.0948 H   0  0  0  0  0  0  0  0  0  0  0  0
  146.5807  134.4418  153.3122 H   0  0  0  0  0  0  0  0  0  0  0  0
  145.1907  133.6037  153.9776 H   0  0  0  0  0  0  0  0  0  0  0  0
  147.8308  132.0052  152.4854 H   0  0  0  0  0  0  0  0  0  0  0  0
  146.6279  131.5703  153.7042 H   0  0  0  0  0  0  0  0  0  0  0  0
  147.1634  130.1540  151.1686 H   0  0  0  0  0  0  0  0  0  0  0  0
  146.1470  129.6644  152.5181 H   0  0  0  0  0  0  0  0  0  0  0  0
  145.3905  131.1352  150.0155 H   0  0  0  0  0  0  0  0  0  0  0  0
  144.3571  130.1132  151.0168 H   0  0  0  0  0  0  0  0  0  0  0  0
  144.1101  131.8471  152.6733 H   0  0  0  0  0  0  0  0  0  0  0  0
  144.2568  133.4601  150.0635 H   0  0  0  0  0  0  0  0  0  0  0  0
  142.8245  132.6889  150.7136 H   0  0  0  0  0  0  0  0  0  0  0  0
  148.2662  137.6965  152.6391 H   0  0  0  0  0  0  0  0  0  0  0  0
  145.9940  140.6797  152.8124 H   0  0  0  0  0  0  0  0  0  0  0  0
  146.6522  142.7086  154.0607 H   0  0  0  0  0  0  0  0  0  0  0  0
  148.7952  142.6936  155.3601 H   0  0  0  0  0  0  0  0  0  0  0  0
  148.8988  137.6514  155.9092 H   0  0  0  0  0  0  0  0  0  0  0  0
  148.5754  136.8471  154.3712 H   0  0  0  0  0  0  0  0  0  0  0  0
  150.5016  135.9282  156.1179 H   0  0  0  0  0  0  0  0  0  0  0  0
  150.6677  135.7618  154.3717 H   0  0  0  0  0  0  0  0  0  0  0  0
  152.2781  137.4892  156.1129 H   0  0  0  0  0  0  0  0  0  0  0  0
  152.4726  137.1522  154.3949 H   0  0  0  0  0  0  0  0  0  0  0  0
  151.7646  139.3678  154.1032 H   0  0  0  0  0  0  0  0  0  0  0  0
  151.0509  139.4254  155.7150 H   0  0  0  0  0  0  0  0  0  0  0  0
  146.3041  133.1670  151.3092 H   0  0  0  0  0  0  0  0  0  0  0  0
  1  2  2  0  0  0  0
  2  3  1  0  0  0  0
  2 14  1  0  0  0  0
  3  4  1  0  0  0  0
  3 26  1  0  0  0  0
  4  5  1  0  0  0  0
  4 27  1  0  0  0  0
  4 28  1  0  0  0  0
  5 13  1  0  0  0  0
  5  6  1  0  0  0  0
  5 29  1  0  0  0  0
  6  7  1  0  0  0  0
  6 30  1  0  0  0  0
  6 31  1  0  0  0  0
  7 11  1  0  0  0  0
  7  8  1  0  0  0  0
  7 53  1  0  0  0  0
  8  9  1  0  0  0  0
  8 32  1  0  0  0  0
  8 33  1  0  0  0  0
  9 10  1  0  0  0  0
  9 34  1  0  0  0  0
  9 35  1  0  0  0  0
 10 11  1  0  0  0  0
 10 36  1  0  0  0  0
 10 37  1  0  0  0  0
 11 12  1  0  0  0  0
 11 38  1  0  0  0  0
 12 13  1  0  0  0  0
 12 39  1  0  0  0  0
 12 40  1  0  0  0  0
 14 15  1  0  0  0  0
 14 41  1  0  0  0  0
 15 20  1  0  0  0  0
 15 16  2  0  0  0  0
 16 17  1  0  0  0  0
 16 42  1  0  0  0  0
 17 18  2  0  0  0  0
 17 43  1  0  0  0  0
 18 19  1  0  0  0  0
 18 44  1  0  0  0  0
 19 20  2  0  0  0  0
 20 21  1  0  0  0  0
 21 25  1  0  0  0  0
 21 22  1  0  0  0  0
 22 23  1  0  0  0  0
 22 45  1  0  0  0  0
 22 46  1  0  0  0  0
 23 24  1  0  0  0  0
 23 47  1  0  0  0  0
 23 48  1  0  0  0  0
 24 25  1  0  0  0  0
 24 49  1  0  0  0  0
 24 50  1  0  0  0  0
 25 51  1  0  0  0  0
 25 52  1  0  0  0  0
M  CHG  1   7   1
M  END
> <s_m_source_file>
AV-unprocessed.smi

> <i_m_source_file_index>
1830

> <i_lp_mmshare_version>
43012

> <i_f3d_flags>
0

> <s_epik_input>
W0NIMl0xW0NIMl1bQ0gyXVtDQEhdKE4xMilbQ0gyXU9bQ0BASF0oW0NIMl0yKVtDSDJdW05IXUMoPU8pW05IXWMzW2NIXVtjSF1bY0hdbmMzTjRbQ0gyXVtDSDJdW0NIMl1bQ0gyXTQ=

> <s_epik_cmdline>
J2VwaWtfcHl0aG9uJywgJy1waCcsICc3LjAnLCAnLXRuJywgJzgnLCAnLW1hJywgJzIwMCcsICctbWV0YWxfYmluZGluZycsICctaW1hZScsICc8aW5maWxlLm1hZT4nLCAnLW9tYWUnLCAnPG91dGZpbGUubWFlPic=

> <r_lp_tautomer_probability>
1

> <r_epik_Ionization_Penalty>
0.193547

> <r_epik_Ionization_Penalty_Charging>
0.10673

> <r_epik_Ionization_Penalty_Neutral>
0.0868166

> <r_epik_State_Penalty>
0.173595

> <r_epik_Charging_Adjusted_Penalty>
0.280326

> <i_epik_Tot_Q>
1

> <i_epik_Tot_abs_Q>
1

> <r_epik_Metal_State_Penalty>
0.164683

> <b_epik_Metal_Only>
0

> <s_lp_Force_Field>
OPLS_2005

> <r_lp_Energy>
70.9361

> <b_lp_Chiralities_Consistent>
1

> <s_lp_Variant>
AV-unprocessed.smi:1830-7

> <Gold.Version>
5.8.1

> <Gold.Id.Protein>
6NUR|6NUR_protein|mol2

> <Gold.PLP.Fitness>
42.7837

> <Gold.PLP.PLP>
-34.7203

> <Gold.PLP.part.hbond>
-2.5242

> <Gold.PLP.part.metal>
0.0000

> <Gold.PLP.part.buried>
-2.0076

> <Gold.PLP.part.nonpolar>
-36.4501

> <Gold.PLP.part.repulsive>
5.2169

> <Gold.PLP.ligand.clash>
0.0000

> <Gold.PLP.ligand.torsion>
0.4775

> <Gold.PLP.Chemscore.Hbond>
1.9920

> <Gold.PLP.Chemscore.CHOScore>
1.0000

> <Gold.PLP.Chemscore.Metal>
0.0000

> <Gold.Chemscore.Hbonds>
donor molecule, donor type, donor heavy atom, donor atom, acceptor molecule, acceptor atom, score
      L1  H     3    26       P1  7948  1.00
      L1  H    14    41       P1  7948  0.96
      L1  C    18    44       P1  8028  1.00

> <Gold.PLP.Chemscore.Internal.Correction>
0.0423

> <Gold.Rescore>
     Score         DG    S(hbond)    S(metal)    S(lipo)     H(rot)  DE(clash)    DE(int)     intcor
     15.76     -19.50       1.92        0.00      95.67       1.41       2.09       1.64       ----

> <Gold.Chemscore.Fitness>
15.7637

> <Gold.Chemscore.DG>
-19.4952

> <Gold.Chemscore.ZeroCoef>
-5.4800

> <Gold.Chemscore.Hbond>
1.9229

> <Gold.Chemscore.Metal>
0.0000

> <Gold.Chemscore.Lipo>
95.6727

> <Gold.Chemscore.Internal_Hbond>
0.0000

> <Gold.Chemscore.DEClash>
2.0922

> <Gold.Chemscore.DEInternal>
1.6393

> <Gold.Chemscore.Rot>
1.4067

> <Gold.Chemscore.Internal.Correction>
   9.000000E+99

> <Gold.Chemscore.Hbonds>
donor molecule, donor type, donor heavy atom, donor atom, acceptor molecule, acceptor atom, score
      L1  H     3    26       P1  7948  0.94
      L1  H    14    41       P1  7948  0.92

> <Gold.Chemscore.Hbond.Weighted>
-6.4226

> <Gold.Chemscore.Metal.Weighted>
-0.0000

> <Gold.Chemscore.Lipo.Weighted>
-11.1937

> <Gold.Chemscore.Internal_Hbond.Weighted>
0.0000

> <Gold.Chemscore.DEClash.Weighted>
2.0922

> <Gold.Chemscore.DEInternal.Weighted>
1.6393

> <Gold.Chemscore.Rot.Weighted>
3.6011

> <Gold.Chemscore.Internal.Correction.Weighted>
   9.000000E+99

> <Gold.Protein.RotatedTorsions>
[ 6907 6896 6895 6894 ] final  171.37 input  -60.11 | X-H torsion
[ 7974 7965 7964 7962 ] final  -44.67 input  175.53 | X-H torsion
[ 8008 7997 7996 7995 ] final   51.94 input   59.86 | X-H torsion
[ 10167 10162 10161 10158 ] final   27.01 input  -65.29 | X-H torsion
[ 10718 10713 10712 10709 ] final   60.70 input   66.30 | X-H torsion
[ 10763 10752 10751 10750 ] final -157.61 input  -60.55 | X-H torsion
[ 11005 11000 10999 10996 ] final -105.04 input  -57.11 | X-H torsion

> <Gold.Protein.ActiveResidues>
 VAL166  LYS551  ARG553  GLY616  TRP617  ASP618  TYR619  PRO620  LYS621  CYS622 
 ASP623  PHE694  ASN695  SER759  ASP760  ASP761  ALA762  ILE779  LEU786  VAL792 
 PHE793  MET794  SER795  GLU796  ALA797  LYS798  CYS799  TRP800  GLU811  SER814 

> <Gold.Protein.RotatedAtoms>
  151.8013  133.3370  159.3527 H   0  0  0  0  0  0  0  0  0  0  0  0  # atno 6907 bound_to 6896
  150.7357  134.5750  159.5919 H   0  0  0  0  0  0  0  0  0  0  0  0  # atno 6908 bound_to 6896
  152.3141  134.7463  160.0381 H   0  0  0  0  0  0  0  0  0  0  0  0  # atno 6909 bound_to 6896
  145.9897  140.7194  142.9323 H   0  0  0  0  0  0  0  0  0  0  0  0  # atno 7974 bound_to 7965
  155.4436  140.3455  155.4292 H   0  0  0  0  0  0  0  0  0  0  0  0  # atno 8008 bound_to 7997
  156.1264  140.1501  156.9161 H   0  0  0  0  0  0  0  0  0  0  0  0  # atno 8009 bound_to 7997
  154.4861  140.0855  156.7469 H   0  0  0  0  0  0  0  0  0  0  0  0  # atno 8010 bound_to 7997
  140.4975  144.0369  150.6320 H   0  0  0  0  0  0  0  0  0  0  0  0  # atno 10167 bound_to 10162
  157.5772  130.8953  149.9368 H   0  0  0  0  0  0  0  0  0  0  0  0  # atno 10718 bound_to 10713
  154.7623  135.3121  154.8355 H   0  0  0  0  0  0  0  0  0  0  0  0  # atno 10763 bound_to 10752
  153.9112  135.6805  153.4755 H   0  0  0  0  0  0  0  0  0  0  0  0  # atno 10764 bound_to 10752
  153.1225  135.4816  154.9150 H   0  0  0  0  0  0  0  0  0  0  0  0  # atno 10765 bound_to 10752
  141.1072  133.8774  157.1685 H   0  0  0  0  0  0  0  0  0  0  0  0  # atno 11005 bound_to 11000
  144.6885  140.3049  143.7257 LP  0  0  0  0  0  0  0  0  0  0  0  0  # atno 17320 bound_to 7965
  145.7648  139.1837  143.2246 LP  0  0  0  0  0  0  0  0  0  0  0  0  # atno 17321 bound_to 7965
  140.3655  143.2884  152.0336 LP  0  0  0  0  0  0  0  0  0  0  0  0  # atno 17342 bound_to 10162
  139.4864  144.6270  151.7145 LP  0  0  0  0  0  0  0  0  0  0  0  0  # atno 17343 bound_to 10162
  156.0817  130.3672  150.0567 LP  0  0  0  0  0  0  0  0  0  0  0  0  # atno 17370 bound_to 10713
  156.8711  130.9524  151.3609 LP  0  0  0  0  0  0  0  0  0  0  0  0  # atno 17371 bound_to 10713
  139.9948  135.0051  157.0057 LP  0  0  0  0  0  0  0  0  0  0  0  0  # atno 17394 bound_to 11000
  140.4871  134.1231  155.7226 LP  0  0  0  0  0  0  0  0  0  0  0  0  # atno 17395 bound_to 11000

$$$$
