AV-unprocessed.smi:773|AV-procd|sdf|3690|dock1
  -GOLD-   22720 1103D 1   1.00000     0.00000
 Structure written by MMmdl.
 39 40  0  0  0  0  0  0  0  0  1 V2000
  153.0200  138.2731  155.2905 C   0  0  0  0  0  0  0  0  0  0  0  0
  152.1689  139.3311  155.9315 C   0  0  0  0  0  0  0  0  0  0  0  0
  152.5324  139.8465  157.0937 N   0  0  0  0  0  0  0  0  0  0  0  0
  151.5388  140.7711  157.4294 O   0  0  0  0  0  0  0  0  0  0  0  0
  150.6062  140.7765  156.4433 C   0  0  0  0  0  0  0  0  0  0  0  0
  149.4416  141.6892  156.6258 C   0  0  0  0  0  0  0  0  0  0  0  0
  150.9459  139.8890  155.4600 C   0  0  0  0  0  0  0  0  0  0  0  0
  150.1948  139.5517  154.1948 C   0  0  0  0  0  0  0  0  0  0  0  0
  148.6611  139.5283  154.3844 C   0  0  1  0  0  0  0  0  0  0  0  0
  148.0193  140.8642  153.9863 C   0  0  0  0  0  0  0  0  0  0  0  0
  148.0488  138.4479  153.6101 N   0  0  0  0  0  0  0  0  0  0  0  0
  146.7639  138.0688  153.6776 C   0  0  0  0  0  0  0  0  0  0  0  0
  145.9047  138.6431  154.3471 O   0  0  0  0  0  0  0  0  0  0  0  0
  146.5369  136.9586  152.9644 N   0  0  0  0  0  0  0  0  0  0  0  0
  145.2683  136.2424  152.9520 C   0  0  0  0  0  0  0  0  0  0  0  0
  145.0706  135.3694  151.7028 C   0  0  0  0  0  0  0  0  0  0  0  0
  143.6183  135.8614  151.6823 C   0  0  0  0  0  0  0  0  0  0  0  0
  144.1012  137.1007  152.4469 C   0  0  0  0  0  0  0  0  0  0  0  0
  152.4106  137.4335  154.9560 H   0  0  0  0  0  0  0  0  0  0  0  0
  153.7670  137.8812  155.9818 H   0  0  0  0  0  0  0  0  0  0  0  0
  153.5451  138.6701  154.4218 H   0  0  0  0  0  0  0  0  0  0  0  0
  149.2386  142.2450  155.7103 H   0  0  0  0  0  0  0  0  0  0  0  0
  149.6261  142.4083  157.4240 H   0  0  0  0  0  0  0  0  0  0  0  0
  148.5471  141.1220  156.8828 H   0  0  0  0  0  0  0  0  0  0  0  0
  150.4432  140.2643  153.4076 H   0  0  0  0  0  0  0  0  0  0  0  0
  150.5190  138.5823  153.8146 H   0  0  0  0  0  0  0  0  0  0  0  0
  148.4549  139.3725  155.4448 H   0  0  0  0  0  0  0  0  0  0  0  0
  148.4391  141.6879  154.5640 H   0  0  0  0  0  0  0  0  0  0  0  0
  146.9436  140.8516  154.1657 H   0  0  0  0  0  0  0  0  0  0  0  0
  148.1783  141.0835  152.9298 H   0  0  0  0  0  0  0  0  0  0  0  0
  148.6682  137.9070  153.0250 H   0  0  0  0  0  0  0  0  0  0  0  0
  147.3007  136.5534  152.4435 H   0  0  0  0  0  0  0  0  0  0  0  0
  145.0306  135.7161  153.8788 H   0  0  0  0  0  0  0  0  0  0  0  0
  145.6432  135.7072  150.8364 H   0  0  0  0  0  0  0  0  0  0  0  0
  145.1893  134.2988  151.8718 H   0  0  0  0  0  0  0  0  0  0  0  0
  143.2180  136.0631  150.6885 H   0  0  0  0  0  0  0  0  0  0  0  0
  142.9483  135.2322  152.2708 H   0  0  0  0  0  0  0  0  0  0  0  0
  143.4206  137.4503  153.2239 H   0  0  0  0  0  0  0  0  0  0  0  0
  144.4079  137.9106  151.7822 H   0  0  0  0  0  0  0  0  0  0  0  0
  1  2  1  0  0  0  0
  1 19  1  0  0  0  0
  1 20  1  0  0  0  0
  1 21  1  0  0  0  0
  2  7  1  0  0  0  0
  2  3  2  0  0  0  0
  3  4  1  0  0  0  0
  4  5  1  0  0  0  0
  5  6  1  0  0  0  0
  5  7  2  0  0  0  0
  6 22  1  0  0  0  0
  6 23  1  0  0  0  0
  6 24  1  0  0  0  0
  7  8  1  0  0  0  0
  8  9  1  0  0  0  0
  8 25  1  0  0  0  0
  8 26  1  0  0  0  0
  9 10  1  0  0  0  0
  9 11  1  0  0  0  0
  9 27  1  0  0  0  0
 10 28  1  0  0  0  0
 10 29  1  0  0  0  0
 10 30  1  0  0  0  0
 11 12  1  0  0  0  0
 11 31  1  0  0  0  0
 12 13  2  0  0  0  0
 12 14  1  0  0  0  0
 14 15  1  0  0  0  0
 14 32  1  0  0  0  0
 15 18  1  0  0  0  0
 15 16  1  0  0  0  0
 15 33  1  0  0  0  0
 16 17  1  0  0  0  0
 16 34  1  0  0  0  0
 16 35  1  0  0  0  0
 17 18  1  0  0  0  0
 17 36  1  0  0  0  0
 17 37  1  0  0  0  0
 18 38  1  0  0  0  0
 18 39  1  0  0  0  0
M  END
> <s_m_source_file>
AV-unprocessed.smi

> <i_m_source_file_index>
773

> <i_lp_mmshare_version>
43012

> <i_f3d_flags>
0

> <s_epik_input>
W0NIM11jMW5vYyhbQ0gzXSljMVtDSDJdW0NASF0oW0NIM10pW05IXUMoPU8pW05IXVtDSF0yW0NIMl1bQ0gyXVtDSDJdMg==

> <s_epik_cmdline>
J2VwaWtfcHl0aG9uJywgJy1waCcsICc3LjAnLCAnLXRuJywgJzgnLCAnLW1hJywgJzIwMCcsICctbWV0YWxfYmluZGluZycsICctaW1hZScsICc8aW5maWxlLm1hZT4nLCAnLW9tYWUnLCAnPG91dGZpbGUubWFlPic=

> <r_lp_tautomer_probability>
1

> <r_epik_Ionization_Penalty>
6.63278e-05

> <r_epik_Ionization_Penalty_Charging>
0

> <r_epik_Ionization_Penalty_Neutral>
6.63278e-05

> <r_epik_State_Penalty>
-0

> <r_epik_Charging_Adjusted_Penalty>
0

> <i_epik_Tot_Q>
0

> <i_epik_Tot_abs_Q>
0

> <r_epik_Metal_State_Penalty>
-0

> <b_epik_Metal_Only>
0

> <s_lp_Force_Field>
OPLS_2005

> <r_lp_Energy>
6.89309

> <b_lp_Chiralities_Consistent>
1

> <s_lp_Variant>
AV-unprocessed.smi:773-2

> <Gold.Version>
5.8.1

> <Gold.Id.Protein>
6NUR|6NUR_protein|mol2

> <Gold.PLP.Fitness>
34.7700

> <Gold.PLP.PLP>
-27.6373

> <Gold.PLP.part.hbond>
-3.0000

> <Gold.PLP.part.metal>
0.0000

> <Gold.PLP.part.buried>
-0.2685

> <Gold.PLP.part.nonpolar>
-24.5190

> <Gold.PLP.part.repulsive>
0.1280

> <Gold.PLP.ligand.clash>
0.0000

> <Gold.PLP.ligand.torsion>
1.0192

> <Gold.PLP.Chemscore.Hbond>
2.9600

> <Gold.PLP.Chemscore.CHOScore>
0.0000

> <Gold.PLP.Chemscore.Metal>
0.0000

> <Gold.Chemscore.Hbonds>
donor molecule, donor type, donor heavy atom, donor atom, acceptor molecule, acceptor atom, score
      L1  H    11    31       P1  7948  0.97
      L1  H    14    32       P1  7948  1.00
      P1  H  7997  8009       L1     3  1.00

> <Gold.PLP.Chemscore.Internal.Correction>
0.2911

> <Gold.Rescore>
     Score         DG    S(hbond)    S(metal)    S(lipo)     H(rot)  DE(clash)    DE(int)     intcor
     17.67     -18.82       2.69        0.00      71.55       1.56       0.20       0.95       ----

> <Gold.Chemscore.Fitness>
17.6713

> <Gold.Chemscore.DG>
-18.8217

> <Gold.Chemscore.ZeroCoef>
-5.4800

> <Gold.Chemscore.Hbond>
2.6857

> <Gold.Chemscore.Metal>
0.0000

> <Gold.Chemscore.Lipo>
71.5507

> <Gold.Chemscore.Internal_Hbond>
0.0000

> <Gold.Chemscore.DEClash>
0.1973

> <Gold.Chemscore.DEInternal>
0.9531

> <Gold.Chemscore.Rot>
1.5625

> <Gold.Chemscore.Internal.Correction>
   9.000000E+99

> <Gold.Chemscore.Hbonds>
donor molecule, donor type, donor heavy atom, donor atom, acceptor molecule, acceptor atom, score
      L1  H    11    31       P1  7948  0.86
      L1  H    14    32       P1  7948  1.00
      P1  H  7997  8009       L1     3  0.29

> <Gold.Chemscore.Hbond.Weighted>
-8.9703

> <Gold.Chemscore.Metal.Weighted>
-0.0000

> <Gold.Chemscore.Lipo.Weighted>
-8.3714

> <Gold.Chemscore.Internal_Hbond.Weighted>
0.0000

> <Gold.Chemscore.DEClash.Weighted>
0.1973

> <Gold.Chemscore.DEInternal.Weighted>
0.9531

> <Gold.Chemscore.Rot.Weighted>
4.0000

> <Gold.Chemscore.Internal.Correction.Weighted>
   9.000000E+99

> <Gold.Protein.RotatedTorsions>
[ 6907 6896 6895 6894 ] final -175.60 input  -60.11 | X-H torsion
[ 7974 7965 7964 7962 ] final  125.56 input  175.53 | X-H torsion
[ 8008 7997 7996 7995 ] final  166.98 input   59.86 | X-H torsion
[ 10167 10162 10161 10158 ] final   23.03 input  -65.29 | X-H torsion
[ 10718 10713 10712 10709 ] final  152.29 input   66.30 | X-H torsion
[ 10763 10752 10751 10750 ] final -124.07 input  -60.55 | X-H torsion
[ 11005 11000 10999 10996 ] final  -93.91 input  -57.11 | X-H torsion

> <Gold.Protein.ActiveResidues>
 VAL166  LYS551  ARG553  GLY616  TRP617  ASP618  TYR619  PRO620  LYS621  CYS622 
 ASP623  PHE694  ASN695  SER759  ASP760  ASP761  ALA762  ILE779  LEU786  VAL792 
 PHE793  MET794  SER795  GLU796  ALA797  LYS798  CYS799  TRP800  GLU811  SER814 

> <Gold.Protein.RotatedAtoms>
  151.5912  133.3366  159.3027 H   0  0  0  0  0  0  0  0  0  0  0  0  # atno 6907 bound_to 6896
  150.8259  134.7493  159.6823 H   0  0  0  0  0  0  0  0  0  0  0  0  # atno 6908 bound_to 6896
  152.4348  134.5713  159.9973 H   0  0  0  0  0  0  0  0  0  0  0  0  # atno 6909 bound_to 6896
  145.0716  139.3725  143.4954 H   0  0  0  0  0  0  0  0  0  0  0  0  # atno 7974 bound_to 7965
  156.1673  140.1629  156.8509 H   0  0  0  0  0  0  0  0  0  0  0  0  # atno 8008 bound_to 7997
  154.5220  140.0776  156.8225 H   0  0  0  0  0  0  0  0  0  0  0  0  # atno 8009 bound_to 7997
  155.3585  140.3394  155.4242 H   0  0  0  0  0  0  0  0  0  0  0  0  # atno 8010 bound_to 7997
  140.5301  143.9855  150.6461 H   0  0  0  0  0  0  0  0  0  0  0  0  # atno 10167 bound_to 10162
  157.2597  131.0795  151.1674 H   0  0  0  0  0  0  0  0  0  0  0  0  # atno 10718 bound_to 10713
  154.8718  135.4076  154.3045 H   0  0  0  0  0  0  0  0  0  0  0  0  # atno 10763 bound_to 10752
  153.3899  135.7014  153.6508 H   0  0  0  0  0  0  0  0  0  0  0  0  # atno 10764 bound_to 10752
  153.5294  135.3670  155.2640 H   0  0  0  0  0  0  0  0  0  0  0  0  # atno 10765 bound_to 10752
  141.1484  133.7920  157.0225 H   0  0  0  0  0  0  0  0  0  0  0  0  # atno 11005 bound_to 11000
  146.3529  140.0464  142.8639 LP  0  0  0  0  0  0  0  0  0  0  0  0  # atno 17320 bound_to 7965
  145.1285  140.9504  143.4558 LP  0  0  0  0  0  0  0  0  0  0  0  0  # atno 17321 bound_to 7965
  140.3228  143.3126  152.0767 LP  0  0  0  0  0  0  0  0  0  0  0  0  # atno 17342 bound_to 10162
  139.4951  144.6562  151.6567 LP  0  0  0  0  0  0  0  0  0  0  0  0  # atno 17343 bound_to 10162
  157.3189  130.6927  149.6257 LP  0  0  0  0  0  0  0  0  0  0  0  0  # atno 17370 bound_to 10713
  155.9664  130.4341  150.5036 LP  0  0  0  0  0  0  0  0  0  0  0  0  # atno 17371 bound_to 10713
  140.0806  134.9650  157.1618 LP  0  0  0  0  0  0  0  0  0  0  0  0  # atno 17394 bound_to 11000
  140.3582  134.2523  155.7190 LP  0  0  0  0  0  0  0  0  0  0  0  0  # atno 17395 bound_to 11000

$$$$
