AV-unprocessed.smi:3333|AV-procd|sdf|12832|dock7
  -GOLD-   2272019213D 1   1.00000     0.00000
 Structure written by MMmdl.
 41 43  0  0  0  0  0  0  0  0  1 V2000
  148.6244  133.0777  155.8476 C   0  0  0  0  0  0  0  0  0  0  0  0
  149.8368  133.8287  156.4085 C   0  0  0  0  0  0  0  0  0  0  0  0
  149.9668  135.2050  155.8467 C   0  0  0  0  0  0  0  0  0  0  0  0
  150.9775  136.0270  156.1404 N   0  0  0  0  0  0  0  0  0  0  0  0
  150.8513  137.2788  155.5287 C   0  0  0  0  0  0  0  0  0  0  0  0
  151.8966  138.3345  155.7580 C   0  0  0  0  0  0  0  0  0  0  0  0
  151.2999  139.7473  155.7193 C   0  0  0  0  0  0  0  0  0  0  0  0
  150.8705  140.2291  154.6697 O   0  0  0  0  0  0  0  0  0  0  0  0
  151.2736  140.4052  156.8885 N   0  0  0  0  0  0  0  0  0  0  0  0
  150.7541  141.7555  157.0767 C   0  0  0  0  0  0  0  0  0  0  0  0
  150.9722  142.2654  158.5174 C   0  0  1  0  0  0  0  0  0  0  0  0
  152.3776  141.9799  159.0861 C   0  0  0  0  0  0  0  0  0  0  0  0
  152.8117  143.3533  159.6323 C   0  0  1  0  0  0  0  0  0  0  0  0
  153.1624  144.2773  158.4517 C   0  0  0  0  0  0  0  0  0  0  0  0
  151.7804  144.6016  157.8553 C   0  0  0  0  0  0  0  0  0  0  0  0
  150.8210  143.7889  158.7491 C   0  0  2  0  0  0  0  0  0  0  0  0
  151.4897  143.9437  160.1117 C   0  0  0  0  0  0  0  0  0  0  0  0
  149.7230  137.3894  154.7535 C   0  0  0  0  0  0  0  0  0  0  0  0
  148.7661  135.9339  154.7863 S   0  0  0  0  0  0  0  0  0  0  0  0
  148.5578  132.0755  156.2713 H   0  0  0  0  0  0  0  0  0  0  0  0
  148.6898  132.9785  154.7637 H   0  0  0  0  0  0  0  0  0  0  0  0
  147.6964  133.6008  156.0811 H   0  0  0  0  0  0  0  0  0  0  0  0
  149.7636  133.8956  157.4946 H   0  0  0  0  0  0  0  0  0  0  0  0
  150.7500  133.2741  156.1905 H   0  0  0  0  0  0  0  0  0  0  0  0
  152.3828  138.1923  156.7238 H   0  0  0  0  0  0  0  0  0  0  0  0
  152.6804  138.2556  155.0033 H   0  0  0  0  0  0  0  0  0  0  0  0
  151.6400  139.9387  157.7056 H   0  0  0  0  0  0  0  0  0  0  0  0
  151.2286  142.4352  156.3673 H   0  0  0  0  0  0  0  0  0  0  0  0
  149.6954  141.7556  156.8190 H   0  0  0  0  0  0  0  0  0  0  0  0
  150.2469  141.7622  159.1595 H   0  0  0  0  0  0  0  0  0  0  0  0
  152.3222  141.2404  159.8862 H   0  0  0  0  0  0  0  0  0  0  0  0
  153.0730  141.6023  158.3352 H   0  0  0  0  0  0  0  0  0  0  0  0
  153.5945  143.2955  160.3889 H   0  0  0  0  0  0  0  0  0  0  0  0
  153.6524  145.1873  158.8002 H   0  0  0  0  0  0  0  0  0  0  0  0
  153.8246  143.7953  157.7314 H   0  0  0  0  0  0  0  0  0  0  0  0
  151.5721  145.6683  157.9486 H   0  0  0  0  0  0  0  0  0  0  0  0
  151.7058  144.3508  156.7980 H   0  0  0  0  0  0  0  0  0  0  0  0
  149.7881  144.1360  158.7099 H   0  0  0  0  0  0  0  0  0  0  0  0
  151.0142  143.3569  160.8996 H   0  0  0  0  0  0  0  0  0  0  0  0
  151.5724  144.9815  160.4398 H   0  0  0  0  0  0  0  0  0  0  0  0
  149.3910  138.2411  154.1785 H   0  0  0  0  0  0  0  0  0  0  0  0
  1  2  1  0  0  0  0
  1 20  1  0  0  0  0
  1 21  1  0  0  0  0
  1 22  1  0  0  0  0
  2  3  1  0  0  0  0
  2 23  1  0  0  0  0
  2 24  1  0  0  0  0
  3 19  1  0  0  0  0
  3  4  2  0  0  0  0
  4  5  1  0  0  0  0
  5  6  1  0  0  0  0
  5 18  2  0  0  0  0
  6  7  1  0  0  0  0
  6 25  1  0  0  0  0
  6 26  1  0  0  0  0
  7  8  2  0  0  0  0
  7  9  1  0  0  0  0
  9 10  1  0  0  0  0
  9 27  1  0  0  0  0
 10 11  1  0  0  0  0
 10 28  1  0  0  0  0
 10 29  1  0  0  0  0
 11 16  1  0  0  0  0
 11 12  1  0  0  0  0
 11 30  1  0  0  0  0
 12 13  1  0  0  0  0
 12 31  1  0  0  0  0
 12 32  1  0  0  0  0
 13 17  1  0  0  0  0
 13 14  1  0  0  0  0
 13 33  1  0  0  0  0
 14 15  1  0  0  0  0
 14 34  1  0  0  0  0
 14 35  1  0  0  0  0
 15 16  1  0  0  0  0
 15 36  1  0  0  0  0
 15 37  1  0  0  0  0
 16 17  1  0  0  0  0
 16 38  1  0  0  0  0
 17 39  1  0  0  0  0
 17 40  1  0  0  0  0
 18 19  1  0  0  0  0
 18 41  1  0  0  0  0
M  END
> <s_m_source_file>
AV-unprocessed.smi

> <i_m_source_file_index>
3333

> <i_lp_mmshare_version>
43012

> <i_f3d_flags>
0

> <s_epik_input>
W0NIM11bQ0gyXWMxbmMoW2NIXXMxKVtDSDJdQyg9TylbTkhdW0NIMl1bQ0BIXShbQ0gyXVtDQEBIXTIzKVtDQEBIXShbQ0gyXTMpW0NIMl1bQ0gyXTI=

> <s_epik_cmdline>
J2VwaWtfcHl0aG9uJywgJy1waCcsICc3LjAnLCAnLXRuJywgJzgnLCAnLW1hJywgJzIwMCcsICctbWV0YWxfYmluZGluZycsICctaW1hZScsICc8aW5maWxlLm1hZT4nLCAnLW9tYWUnLCAnPG91dGZpbGUubWFlPic=

> <r_lp_tautomer_probability>
1

> <r_epik_Ionization_Penalty>
6.68371e-05

> <r_epik_Ionization_Penalty_Charging>
0

> <r_epik_Ionization_Penalty_Neutral>
6.68371e-05

> <r_epik_State_Penalty>
-0

> <r_epik_Charging_Adjusted_Penalty>
0

> <i_epik_Tot_Q>
0

> <i_epik_Tot_abs_Q>
0

> <r_epik_Metal_State_Penalty>
-0

> <b_epik_Metal_Only>
0

> <s_lp_Force_Field>
OPLS_2005

> <r_lp_Energy>
44.5958

> <b_lp_Chiralities_Consistent>
1

> <s_lp_Variant>
AV-unprocessed.smi:3333-2

> <Gold.Version>
5.8.1

> <Gold.Id.Protein>
6NUR|6NUR_protein|mol2

> <Gold.PLP.Fitness>
45.5240

> <Gold.PLP.PLP>
-40.7174

> <Gold.PLP.part.hbond>
-2.0000

> <Gold.PLP.part.metal>
0.0000

> <Gold.PLP.part.buried>
-4.0650

> <Gold.PLP.part.nonpolar>
-34.8248

> <Gold.PLP.part.repulsive>
0.1966

> <Gold.PLP.ligand.clash>
0.0000

> <Gold.PLP.ligand.torsion>
0.5983

> <Gold.PLP.Chemscore.Hbond>
1.9920

> <Gold.PLP.Chemscore.CHOScore>
0.0000

> <Gold.PLP.Chemscore.Metal>
0.0000

> <Gold.Chemscore.Hbonds>
donor molecule, donor type, donor heavy atom, donor atom, acceptor molecule, acceptor atom, score
      P1  H  7989  7998       L1     8  1.00

> <Gold.PLP.Chemscore.Internal.Correction>
0.0272

> <Gold.Rescore>
     Score         DG    S(hbond)    S(metal)    S(lipo)     H(rot)  DE(clash)    DE(int)     intcor
     20.06     -20.85       1.46        0.00     120.68       1.42       0.09       0.70       ----

> <Gold.Chemscore.Fitness>
20.0562

> <Gold.Chemscore.DG>
-20.8473

> <Gold.Chemscore.ZeroCoef>
-5.4800

> <Gold.Chemscore.Hbond>
1.4640

> <Gold.Chemscore.Metal>
0.0000

> <Gold.Chemscore.Lipo>
120.6819

> <Gold.Chemscore.Internal_Hbond>
0.0000

> <Gold.Chemscore.DEClash>
0.0908

> <Gold.Chemscore.DEInternal>
0.7003

> <Gold.Chemscore.Rot>
1.4227

> <Gold.Chemscore.Internal.Correction>
   9.000000E+99

> <Gold.Chemscore.Hbonds>
donor molecule, donor type, donor heavy atom, donor atom, acceptor molecule, acceptor atom, score
      P1  H  7989  7998       L1     8  0.93

> <Gold.Chemscore.Hbond.Weighted>
-4.8896

> <Gold.Chemscore.Metal.Weighted>
-0.0000

> <Gold.Chemscore.Lipo.Weighted>
-14.1198

> <Gold.Chemscore.Internal_Hbond.Weighted>
0.0000

> <Gold.Chemscore.DEClash.Weighted>
0.0908

> <Gold.Chemscore.DEInternal.Weighted>
0.7003

> <Gold.Chemscore.Rot.Weighted>
3.6421

> <Gold.Chemscore.Internal.Correction.Weighted>
   9.000000E+99

> <Gold.Protein.RotatedTorsions>
[ 6907 6896 6895 6894 ] final  -10.46 input  -60.11 | X-H torsion
[ 7974 7965 7964 7962 ] final  159.08 input  175.53 | X-H torsion
[ 8008 7997 7996 7995 ] final  170.18 input   59.86 | X-H torsion
[ 10167 10162 10161 10158 ] final  146.30 input  -65.29 | X-H torsion
[ 10718 10713 10712 10709 ] final   37.04 input   66.30 | X-H torsion
[ 10763 10752 10751 10750 ] final -131.66 input  -60.55 | X-H torsion
[ 11005 11000 10999 10996 ] final  -93.57 input  -57.11 | X-H torsion

> <Gold.Protein.ActiveResidues>
 VAL166  LYS551  ARG553  GLY616  TRP617  ASP618  TYR619  PRO620  LYS621  CYS622 
 ASP623  PHE694  ASN695  SER759  ASP760  ASP761  ALA762  ILE779  LEU786  VAL792 
 PHE793  MET794  SER795  GLU796  ALA797  LYS798  CYS799  TRP800  GLU811  SER814 

> <Gold.Protein.RotatedAtoms>
  151.4015  135.0972  159.9557 H   0  0  0  0  0  0  0  0  0  0  0  0  # atno 6907 bound_to 6896
  152.5049  133.8883  159.7391 H   0  0  0  0  0  0  0  0  0  0  0  0  # atno 6908 bound_to 6896
  150.9358  133.6657  159.2829 H   0  0  0  0  0  0  0  0  0  0  0  0  # atno 6909 bound_to 6896
  144.7810  139.7568  143.6260 H   0  0  0  0  0  0  0  0  0  0  0  0  # atno 7974 bound_to 7965
  156.1389  140.1544  156.8952 H   0  0  0  0  0  0  0  0  0  0  0  0  # atno 8008 bound_to 7997
  154.4970  140.0835  156.7757 H   0  0  0  0  0  0  0  0  0  0  0  0  # atno 8009 bound_to 7997
  155.4117  140.3419  155.4266 H   0  0  0  0  0  0  0  0  0  0  0  0  # atno 8010 bound_to 7997
  139.4909  144.5839  151.6817 H   0  0  0  0  0  0  0  0  0  0  0  0  # atno 10167 bound_to 10162
  157.3421  130.7553  149.6919 H   0  0  0  0  0  0  0  0  0  0  0  0  # atno 10718 bound_to 10713
  154.8749  135.3823  154.4282 H   0  0  0  0  0  0  0  0  0  0  0  0  # atno 10763 bound_to 10752
  153.4979  135.7030  153.5853 H   0  0  0  0  0  0  0  0  0  0  0  0  # atno 10764 bound_to 10752
  153.4198  135.3904  155.2070 H   0  0  0  0  0  0  0  0  0  0  0  0  # atno 10765 bound_to 10752
  141.1493  133.7897  157.0178 H   0  0  0  0  0  0  0  0  0  0  0  0  # atno 11005 bound_to 11000
  146.2017  139.5316  142.9739 LP  0  0  0  0  0  0  0  0  0  0  0  0  # atno 17320 bound_to 7965
  145.6051  141.0349  143.1997 LP  0  0  0  0  0  0  0  0  0  0  0  0  # atno 17321 bound_to 7965
  140.5451  144.0516  150.6104 LP  0  0  0  0  0  0  0  0  0  0  0  0  # atno 17342 bound_to 10162
  140.3552  143.2940  152.0444 LP  0  0  0  0  0  0  0  0  0  0  0  0  # atno 17343 bound_to 10162
  155.9709  130.4164  150.4232 LP  0  0  0  0  0  0  0  0  0  0  0  0  # atno 17370 bound_to 10713
  157.2281  131.0498  151.2508 LP  0  0  0  0  0  0  0  0  0  0  0  0  # atno 17371 bound_to 10713
  140.0835  134.9634  157.1663 LP  0  0  0  0  0  0  0  0  0  0  0  0  # atno 17394 bound_to 11000
  140.3543  134.2564  155.7194 LP  0  0  0  0  0  0  0  0  0  0  0  0  # atno 17395 bound_to 11000

$$$$
