AV-unprocessed.smi:486|AV-procd|sdf|2696|dock9
  -GOLD-   2262023133D 1   1.00000     0.00000
 Structure written by MMmdl.
 43 45  0  0  0  0  0  0  0  0  1 V2000
  155.7242  139.9245  162.6149 C   0  0  0  0  0  0  0  0  0  0  0  0
  154.8714  141.0130  162.9384 O   0  0  0  0  0  0  0  0  0  0  0  0
  154.0936  141.5483  161.9341 C   0  0  0  0  0  0  0  0  0  0  0  0
  153.2613  142.6322  162.2756 C   0  0  0  0  0  0  0  0  0  0  0  0
  152.4345  143.2378  161.3109 C   0  0  0  0  0  0  0  0  0  0  0  0
  152.4200  142.7750  159.9808 C   0  0  0  0  0  0  0  0  0  0  0  0
  151.5808  143.4246  159.1010 O   0  0  0  0  0  0  0  0  0  0  0  0
  151.6687  143.0949  157.7212 C   0  0  0  0  0  0  0  0  0  0  0  0
  150.3556  142.4184  157.2867 C   0  0  1  0  0  0  0  0  0  0  0  0
  149.2944  143.0044  158.0115 O   0  0  0  0  0  0  0  0  0  0  0  0
  150.0241  142.5896  155.7888 C   0  0  0  0  0  0  0  0  0  0  0  0
  149.6965  141.3363  155.1226 N   0  0  0  0  0  0  0  0  0  0  0  0
  148.5766  141.0321  154.4217 C   0  0  0  0  0  0  0  0  0  0  0  0
  147.4693  142.0198  154.2322 C   0  0  0  0  0  0  0  0  0  0  0  0
  148.5259  139.8016  153.9111 N   0  0  0  0  0  0  0  0  0  0  0  0
  149.7299  139.2565  154.3138 C   0  0  0  0  0  0  0  0  0  0  0  0
  150.2768  137.9724  154.0921 C   0  0  0  0  0  0  0  0  0  0  0  0
  151.5437  137.6363  154.6126 C   0  0  0  0  0  0  0  0  0  0  0  0
  152.2819  138.5778  155.3584 C   0  0  0  0  0  0  0  0  0  0  0  0
  151.7561  139.8633  155.5902 C   0  0  0  0  0  0  0  0  0  0  0  0
  150.4896  140.1931  155.0706 C   0  0  0  0  0  0  0  0  0  0  0  0
  153.2551  141.6848  159.6321 C   0  0  0  0  0  0  0  0  0  0  0  0
  154.0824  141.0784  160.5976 C   0  0  0  0  0  0  0  0  0  0  0  0
  156.2662  139.6149  163.5085 H   0  0  0  0  0  0  0  0  0  0  0  0
  156.4624  140.2062  161.8627 H   0  0  0  0  0  0  0  0  0  0  0  0
  155.1563  139.0636  162.2596 H   0  0  0  0  0  0  0  0  0  0  0  0
  153.2564  143.0045  163.2896 H   0  0  0  0  0  0  0  0  0  0  0  0
  151.8045  144.0676  161.5959 H   0  0  0  0  0  0  0  0  0  0  0  0
  151.8733  143.9747  157.1083 H   0  0  0  0  0  0  0  0  0  0  0  0
  152.5008  142.4016  157.6013 H   0  0  0  0  0  0  0  0  0  0  0  0
  150.3967  141.3564  157.5284 H   0  0  0  0  0  0  0  0  0  0  0  0
  149.0323  143.7963  157.5669 H   0  0  0  0  0  0  0  0  0  0  0  0
  149.1892  143.2794  155.6625 H   0  0  0  0  0  0  0  0  0  0  0  0
  150.8684  143.0440  155.2685 H   0  0  0  0  0  0  0  0  0  0  0  0
  146.6725  141.5884  153.6254 H   0  0  0  0  0  0  0  0  0  0  0  0
  147.8390  142.9113  153.7252 H   0  0  0  0  0  0  0  0  0  0  0  0
  147.0467  142.3077  155.1943 H   0  0  0  0  0  0  0  0  0  0  0  0
  149.7194  137.2444  153.5213 H   0  0  0  0  0  0  0  0  0  0  0  0
  151.9508  136.6510  154.4390 H   0  0  0  0  0  0  0  0  0  0  0  0
  153.2517  138.3124  155.7536 H   0  0  0  0  0  0  0  0  0  0  0  0
  152.3178  140.5849  156.1644 H   0  0  0  0  0  0  0  0  0  0  0  0
  153.2802  141.2913  158.6275 H   0  0  0  0  0  0  0  0  0  0  0  0
  154.7008  140.2507  160.2856 H   0  0  0  0  0  0  0  0  0  0  0  0
  1  2  1  0  0  0  0
  1 24  1  0  0  0  0
  1 25  1  0  0  0  0
  1 26  1  0  0  0  0
  2  3  1  0  0  0  0
  3 23  1  0  0  0  0
  3  4  2  0  0  0  0
  4  5  1  0  0  0  0
  4 27  1  0  0  0  0
  5  6  2  0  0  0  0
  5 28  1  0  0  0  0
  6  7  1  0  0  0  0
  6 22  1  0  0  0  0
  7  8  1  0  0  0  0
  8  9  1  0  0  0  0
  8 29  1  0  0  0  0
  8 30  1  0  0  0  0
  9 10  1  0  0  0  0
  9 11  1  0  0  0  0
  9 31  1  0  0  0  0
 10 32  1  0  0  0  0
 11 12  1  0  0  0  0
 11 33  1  0  0  0  0
 11 34  1  0  0  0  0
 12 21  1  0  0  0  0
 12 13  1  0  0  0  0
 13 14  1  0  0  0  0
 13 15  2  0  0  0  0
 14 35  1  0  0  0  0
 14 36  1  0  0  0  0
 14 37  1  0  0  0  0
 15 16  1  0  0  0  0
 16 21  2  0  0  0  0
 16 17  1  0  0  0  0
 17 18  2  0  0  0  0
 17 38  1  0  0  0  0
 18 19  1  0  0  0  0
 18 39  1  0  0  0  0
 19 20  2  0  0  0  0
 19 40  1  0  0  0  0
 20 21  1  0  0  0  0
 20 41  1  0  0  0  0
 22 23  2  0  0  0  0
 22 42  1  0  0  0  0
 23 43  1  0  0  0  0
M  END
> <s_m_source_file>
AV-unprocessed.smi

> <i_m_source_file_index>
486

> <i_lp_mmshare_version>
43012

> <i_f3d_flags>
0

> <s_epik_input>
W0NIM11PYzFbY0hdW2NIXWMoW2NIXVtjSF0xKU9bQ0gyXVtDQEhdKFtPSF0pW0NIMl1uKGMobjIpW0NIM10pYyhjMjMpW2NIXVtjSF1bY0hdW2NIXTM=

> <s_epik_cmdline>
J2VwaWtfcHl0aG9uJywgJy1waCcsICc3LjAnLCAnLXRuJywgJzgnLCAnLW1hJywgJzIwMCcsICctbWV0YWxfYmluZGluZycsICctaW1hZScsICc8aW5maWxlLm1hZT4nLCAnLW9tYWUnLCAnPG91dGZpbGUubWFlPic=

> <r_lp_tautomer_probability>
1

> <r_epik_Ionization_Penalty>
0.114052

> <r_epik_Ionization_Penalty_Charging>
0

> <r_epik_Ionization_Penalty_Neutral>
0.114052

> <r_epik_State_Penalty>
0.103717

> <r_epik_Charging_Adjusted_Penalty>
0.103717

> <i_epik_Tot_Q>
0

> <i_epik_Tot_abs_Q>
0

> <r_epik_Metal_State_Penalty>
0.000113338

> <b_epik_Metal_Only>
0

> <s_lp_Force_Field>
OPLS_2005

> <r_lp_Energy>
20.3049

> <b_lp_Chiralities_Consistent>
1

> <s_lp_Variant>
AV-unprocessed.smi:486-2

> <Gold.Version>
5.8.1

> <Gold.Id.Protein>
6NUR|6NUR_protein|mol2

> <Gold.PLP.Fitness>
51.7595

> <Gold.PLP.PLP>
-52.0538

> <Gold.PLP.part.hbond>
-2.0679

> <Gold.PLP.part.metal>
0.0000

> <Gold.PLP.part.buried>
3.1112

> <Gold.PLP.part.nonpolar>
-53.2776

> <Gold.PLP.part.repulsive>
1.2739

> <Gold.PLP.ligand.clash>
0.0000

> <Gold.PLP.ligand.torsion>
1.4488

> <Gold.PLP.Chemscore.Hbond>
0.8432

> <Gold.PLP.Chemscore.CHOScore>
0.0000

> <Gold.PLP.Chemscore.Metal>
0.0000

> <Gold.Chemscore.Hbonds>
donor molecule, donor type, donor heavy atom, donor atom, acceptor molecule, acceptor atom, score
      L1  H    10    32       P1  8028  0.56

> <Gold.PLP.Chemscore.Internal.Correction>
0.0738

> <Gold.Rescore>
     Score         DG    S(hbond)    S(metal)    S(lipo)     H(rot)  DE(clash)    DE(int)     intcor
     13.29     -16.37       0.00        0.00     143.42       2.30       1.70       1.37       ----

> <Gold.Chemscore.Fitness>
13.2921

> <Gold.Chemscore.DG>
-16.3667

> <Gold.Chemscore.ZeroCoef>
-5.4800

> <Gold.Chemscore.Hbond>
0.0002

> <Gold.Chemscore.Metal>
0.0000

> <Gold.Chemscore.Lipo>
143.4198

> <Gold.Chemscore.Internal_Hbond>
0.0000

> <Gold.Chemscore.DEClash>
1.7049

> <Gold.Chemscore.DEInternal>
1.3698

> <Gold.Chemscore.Rot>
2.3023

> <Gold.Chemscore.Internal.Correction>
   9.000000E+99

> <Gold.Chemscore.Hbonds>
donor molecule, donor type, donor heavy atom, donor atom, acceptor molecule, acceptor atom, score
      L1  H    10    32       P1  8028  0.07

> <Gold.Chemscore.Hbond.Weighted>
-0.0006

> <Gold.Chemscore.Metal.Weighted>
-0.0000

> <Gold.Chemscore.Lipo.Weighted>
-16.7801

> <Gold.Chemscore.Internal_Hbond.Weighted>
0.0000

> <Gold.Chemscore.DEClash.Weighted>
1.7049

> <Gold.Chemscore.DEInternal.Weighted>
1.3698

> <Gold.Chemscore.Rot.Weighted>
5.8940

> <Gold.Chemscore.Internal.Correction.Weighted>
   9.000000E+99

> <Gold.Protein.RotatedTorsions>
[ 6907 6896 6895 6894 ] final -170.21 input  -60.11 | X-H torsion
[ 7974 7965 7964 7962 ] final  -97.16 input  175.53 | X-H torsion
[ 8008 7997 7996 7995 ] final  -52.16 input   59.86 | X-H torsion
[ 10167 10162 10161 10158 ] final   16.45 input  -65.29 | X-H torsion
[ 10718 10713 10712 10709 ] final   41.38 input   66.30 | X-H torsion
[ 10763 10752 10751 10750 ] final  168.07 input  -60.55 | X-H torsion
[ 11005 11000 10999 10996 ] final  101.31 input  -57.11 | X-H torsion

> <Gold.Protein.ActiveResidues>
 VAL166  LYS551  ARG553  GLY616  TRP617  ASP618  TYR619  PRO620  LYS621  CYS622 
 ASP623  PHE694  ASN695  SER759  ASP760  ASP761  ALA762  ILE779  LEU786  VAL792 
 PHE793  MET794  SER795  GLU796  ALA797  LYS798  CYS799  TRP800  GLU811  SER814 

> <Gold.Protein.RotatedAtoms>
  151.5040  133.3498  159.2873 H   0  0  0  0  0  0  0  0  0  0  0  0  # atno 6907 bound_to 6896
  150.8755  134.8139  159.7197 H   0  0  0  0  0  0  0  0  0  0  0  0  # atno 6908 bound_to 6896
  152.4727  134.4930  159.9753 H   0  0  0  0  0  0  0  0  0  0  0  0  # atno 6909 bound_to 6896
  145.3374  140.9453  143.2627 H   0  0  0  0  0  0  0  0  0  0  0  0  # atno 7974 bound_to 7965
  154.4100  140.1230  156.4947 H   0  0  0  0  0  0  0  0  0  0  0  0  # atno 8008 bound_to 7997
  155.6955  140.3495  155.4892 H   0  0  0  0  0  0  0  0  0  0  0  0  # atno 8009 bound_to 7997
  155.9431  140.1091  157.1029 H   0  0  0  0  0  0  0  0  0  0  0  0  # atno 8010 bound_to 7997
  140.5797  143.9005  150.6779 H   0  0  0  0  0  0  0  0  0  0  0  0  # atno 10167 bound_to 10162
  157.3929  130.7816  149.7284 H   0  0  0  0  0  0  0  0  0  0  0  0  # atno 10718 bound_to 10713
  154.3632  135.2753  155.2308 H   0  0  0  0  0  0  0  0  0  0  0  0  # atno 10763 bound_to 10752
  154.4488  135.5936  153.6181 H   0  0  0  0  0  0  0  0  0  0  0  0  # atno 10764 bound_to 10752
  152.9842  135.6036  154.3855 H   0  0  0  0  0  0  0  0  0  0  0  0  # atno 10765 bound_to 10752
  139.8773  134.9177  156.4887 H   0  0  0  0  0  0  0  0  0  0  0  0  # atno 11005 bound_to 11000
  144.8817  139.4895  143.6720 LP  0  0  0  0  0  0  0  0  0  0  0  0  # atno 17320 bound_to 7965
  146.3021  139.7460  142.9083 LP  0  0  0  0  0  0  0  0  0  0  0  0  # atno 17321 bound_to 7965
  140.2501  143.3599  152.1413 LP  0  0  0  0  0  0  0  0  0  0  0  0  # atno 17342 bound_to 10162
  139.5162  144.6974  151.5590 LP  0  0  0  0  0  0  0  0  0  0  0  0  # atno 17343 bound_to 10162
  155.9803  130.4031  150.3538 LP  0  0  0  0  0  0  0  0  0  0  0  0  # atno 17370 bound_to 10713
  157.1656  131.0356  151.2820 LP  0  0  0  0  0  0  0  0  0  0  0  0  # atno 17371 bound_to 10713
  140.8674  133.8014  155.9328 LP  0  0  0  0  0  0  0  0  0  0  0  0  # atno 17394 bound_to 11000
  140.8987  134.2405  157.5054 LP  0  0  0  0  0  0  0  0  0  0  0  0  # atno 17395 bound_to 11000

$$$$
