AV-unprocessed.smi:2359|AV-procd|sdf|9408|dock1
  -GOLD-   2272013 43D 1   1.00000     0.00000
 Structure written by MMmdl.
 40 41  0  0  0  0  0  0  0  0  1 V2000
  154.3524  141.8594  160.2577 C   0  0  0  0  0  0  0  0  0  0  0  0
  153.0307  142.5653  160.0398 C   0  0  0  0  0  0  0  0  0  0  0  0
  152.6034  142.9088  158.7439 C   0  0  0  0  0  0  0  0  0  0  0  0
  151.3665  143.5634  158.5879 C   0  0  0  0  0  0  0  0  0  0  0  0
  150.5864  143.8580  159.7287 C   0  0  0  0  0  0  0  0  0  0  0  0
  149.3591  144.5217  159.4627 N   0  0  0  0  0  0  0  0  0  0  0  0
  148.2575  144.5735  160.2323 C   0  0  0  0  0  0  0  0  0  0  0  0
  148.1241  144.0236  161.3263 O   0  0  0  0  0  0  0  0  0  0  0  0
  147.2975  145.3091  159.6557 N   0  0  0  0  0  0  0  0  0  0  0  0
  145.9853  145.5516  160.2396 C   0  0  0  0  0  0  0  0  0  0  0  0
  145.1069  146.3641  159.2772 C   0  0  0  0  0  0  0  0  0  0  0  0
  145.5834  147.8163  159.1152 C   0  0  1  0  0  0  0  0  0  0  0  0
  144.8806  148.5273  157.9421 C   0  0  0  0  0  0  0  0  0  0  0  0
  145.3247  149.9919  157.8560 C   0  0  0  0  0  0  0  0  0  0  0  0
  145.1240  150.6735  159.2136 C   0  0  0  0  0  0  0  0  0  0  0  0
  145.8006  149.8575  160.3265 C   0  0  0  0  0  0  0  0  0  0  0  0
  145.3017  148.5235  160.3216 O   0  0  0  0  0  0  0  0  0  0  0  0
  151.0063  143.5217  160.9738 N   0  0  0  0  0  0  0  0  0  0  0  0
  152.1918  142.8942  161.1225 C   0  0  0  0  0  0  0  0  0  0  0  0
  155.1518  142.3761  159.7260 H   0  0  0  0  0  0  0  0  0  0  0  0
  154.2980  140.8356  159.8876 H   0  0  0  0  0  0  0  0  0  0  0  0
  154.6134  141.8279  161.3158 H   0  0  0  0  0  0  0  0  0  0  0  0
  153.2114  142.6759  157.8820 H   0  0  0  0  0  0  0  0  0  0  0  0
  151.0240  143.8343  157.5998 H   0  0  0  0  0  0  0  0  0  0  0  0
  149.3159  145.0178  158.5851 H   0  0  0  0  0  0  0  0  0  0  0  0
  147.4845  145.7270  158.7559 H   0  0  0  0  0  0  0  0  0  0  0  0
  145.5133  144.5949  160.4674 H   0  0  0  0  0  0  0  0  0  0  0  0
  146.1005  146.0879  161.1830 H   0  0  0  0  0  0  0  0  0  0  0  0
  145.1086  145.8769  158.3012 H   0  0  0  0  0  0  0  0  0  0  0  0
  144.0725  146.3553  159.6235 H   0  0  0  0  0  0  0  0  0  0  0  0
  146.6612  147.8148  158.9426 H   0  0  0  0  0  0  0  0  0  0  0  0
  145.0990  148.0173  157.0033 H   0  0  0  0  0  0  0  0  0  0  0  0
  143.7993  148.4822  158.0782 H   0  0  0  0  0  0  0  0  0  0  0  0
  146.3768  150.0408  157.5721 H   0  0  0  0  0  0  0  0  0  0  0  0
  144.7651  150.5151  157.0803 H   0  0  0  0  0  0  0  0  0  0  0  0
  145.5250  151.6872  159.1905 H   0  0  0  0  0  0  0  0  0  0  0  0
  144.0578  150.7624  159.4249 H   0  0  0  0  0  0  0  0  0  0  0  0
  146.8846  149.8523  160.2026 H   0  0  0  0  0  0  0  0  0  0  0  0
  145.5942  150.3062  161.2982 H   0  0  0  0  0  0  0  0  0  0  0  0
  152.4756  142.6494  162.1354 H   0  0  0  0  0  0  0  0  0  0  0  0
  1  2  1  0  0  0  0
  1 20  1  0  0  0  0
  1 21  1  0  0  0  0
  1 22  1  0  0  0  0
  2 19  1  0  0  0  0
  2  3  2  0  0  0  0
  3  4  1  0  0  0  0
  3 23  1  0  0  0  0
  4  5  2  0  0  0  0
  4 24  1  0  0  0  0
  5  6  1  0  0  0  0
  5 18  1  0  0  0  0
  6  7  1  0  0  0  0
  6 25  1  0  0  0  0
  7  8  2  0  0  0  0
  7  9  1  0  0  0  0
  9 10  1  0  0  0  0
  9 26  1  0  0  0  0
 10 11  1  0  0  0  0
 10 27  1  0  0  0  0
 10 28  1  0  0  0  0
 11 12  1  0  0  0  0
 11 29  1  0  0  0  0
 11 30  1  0  0  0  0
 12 17  1  0  0  0  0
 12 13  1  0  0  0  0
 12 31  1  0  0  0  0
 13 14  1  0  0  0  0
 13 32  1  0  0  0  0
 13 33  1  0  0  0  0
 14 15  1  0  0  0  0
 14 34  1  0  0  0  0
 14 35  1  0  0  0  0
 15 16  1  0  0  0  0
 15 36  1  0  0  0  0
 15 37  1  0  0  0  0
 16 17  1  0  0  0  0
 16 38  1  0  0  0  0
 16 39  1  0  0  0  0
 18 19  2  0  0  0  0
 19 40  1  0  0  0  0
M  END
> <s_m_source_file>
AV-unprocessed.smi

> <i_m_source_file_index>
2359

> <i_lp_mmshare_version>
43012

> <i_f3d_flags>
0

> <s_epik_input>
W0NIM11jMVtjSF1bY0hdYyhuW2NIXTEpW05IXUMoPU8pW05IXVtDSDJdW0NIMl1bQ0BASF0yW0NIMl1bQ0gyXVtDSDJdW0NIMl1PMg==

> <s_epik_cmdline>
J2VwaWtfcHl0aG9uJywgJy1waCcsICc3LjAnLCAnLXRuJywgJzgnLCAnLW1hJywgJzIwMCcsICctbWV0YWxfYmluZGluZycsICctaW1hZScsICc8aW5maWxlLm1hZT4nLCAnLW9tYWUnLCAnPG91dGZpbGUubWFlPic=

> <r_lp_tautomer_probability>
1

> <r_epik_Ionization_Penalty>
5.73679e-05

> <r_epik_Ionization_Penalty_Charging>
0

> <r_epik_Ionization_Penalty_Neutral>
5.73679e-05

> <r_epik_State_Penalty>
-0

> <r_epik_Charging_Adjusted_Penalty>
0

> <i_epik_Tot_Q>
0

> <i_epik_Tot_abs_Q>
0

> <r_epik_Metal_State_Penalty>
-0

> <b_epik_Metal_Only>
0

> <s_lp_Force_Field>
OPLS_2005

> <r_lp_Energy>
11.4199

> <b_lp_Chiralities_Consistent>
1

> <s_lp_Variant>
AV-unprocessed.smi:2359-2

> <Gold.Version>
5.8.1

> <Gold.Id.Protein>
6NUR|6NUR_protein|mol2

> <Gold.PLP.Fitness>
55.4895

> <Gold.PLP.PLP>
-48.5043

> <Gold.PLP.part.hbond>
-4.7586

> <Gold.PLP.part.metal>
0.0000

> <Gold.PLP.part.buried>
-9.7423

> <Gold.PLP.part.nonpolar>
-36.6297

> <Gold.PLP.part.repulsive>
0.7746

> <Gold.PLP.ligand.clash>
0.0000

> <Gold.PLP.ligand.torsion>
0.2014

> <Gold.PLP.Chemscore.Hbond>
2.4539

> <Gold.PLP.Chemscore.CHOScore>
0.0000

> <Gold.PLP.Chemscore.Metal>
0.0000

> <Gold.Chemscore.Hbonds>
donor molecule, donor type, donor heavy atom, donor atom, acceptor molecule, acceptor atom, score
      L1  H     6    25       P1  8029  0.61
      L1  H     9    26       P1  8029  1.00
      P1  H  6933  6944       L1     8  1.00
      P1  H  6933  6945       L1    18  0.01

> <Gold.PLP.Chemscore.Internal.Correction>
0.0263

> <Gold.Rescore>
     Score         DG    S(hbond)    S(metal)    S(lipo)     H(rot)  DE(clash)    DE(int)     intcor
     20.49     -22.16       2.16        0.00     111.98       1.42       0.10       1.57       ----

> <Gold.Chemscore.Fitness>
20.4857

> <Gold.Chemscore.DG>
-22.1605

> <Gold.Chemscore.ZeroCoef>
-5.4800

> <Gold.Chemscore.Hbond>
2.1637

> <Gold.Chemscore.Metal>
0.0000

> <Gold.Chemscore.Lipo>
111.9776

> <Gold.Chemscore.Internal_Hbond>
0.0000

> <Gold.Chemscore.DEClash>
0.1009

> <Gold.Chemscore.DEInternal>
1.5738

> <Gold.Chemscore.Rot>
1.4248

> <Gold.Chemscore.Internal.Correction>
   9.000000E+99

> <Gold.Chemscore.Hbonds>
donor molecule, donor type, donor heavy atom, donor atom, acceptor molecule, acceptor atom, score
      L1  H     6    25       P1  8029  0.49
      L1  H     9    26       P1  8029  0.93
      P1  H  6933  6944       L1     8  0.94

> <Gold.Chemscore.Hbond.Weighted>
-7.2267

> <Gold.Chemscore.Metal.Weighted>
-0.0000

> <Gold.Chemscore.Lipo.Weighted>
-13.1014

> <Gold.Chemscore.Internal_Hbond.Weighted>
0.0000

> <Gold.Chemscore.DEClash.Weighted>
0.1009

> <Gold.Chemscore.DEInternal.Weighted>
1.5738

> <Gold.Chemscore.Rot.Weighted>
3.6476

> <Gold.Chemscore.Internal.Correction.Weighted>
   9.000000E+99

> <Gold.Protein.RotatedTorsions>
[ 6907 6896 6895 6894 ] final  -84.11 input  -60.11 | X-H torsion
[ 7974 7965 7964 7962 ] final    1.33 input  175.53 | X-H torsion
[ 8008 7997 7996 7995 ] final   57.36 input   59.86 | X-H torsion
[ 10167 10162 10161 10158 ] final   58.30 input  -65.29 | X-H torsion
[ 10718 10713 10712 10709 ] final  114.06 input   66.30 | X-H torsion
[ 10763 10752 10751 10750 ] final  163.72 input  -60.55 | X-H torsion
[ 11005 11000 10999 10996 ] final  -31.06 input  -57.11 | X-H torsion

> <Gold.Protein.ActiveResidues>
 VAL166  LYS551  ARG553  GLY616  TRP617  ASP618  TYR619  PRO620  LYS621  CYS622 
 ASP623  PHE694  ASN695  SER759  ASP760  ASP761  ALA762  ILE779  LEU786  VAL792 
 PHE793  MET794  SER795  GLU796  ALA797  LYS798  CYS799  TRP800  GLU811  SER814 

> <Gold.Protein.RotatedAtoms>
  150.6879  134.3409  159.4867 H   0  0  0  0  0  0  0  0  0  0  0  0  # atno 6907 bound_to 6896
  152.1262  134.9166  160.0570 H   0  0  0  0  0  0  0  0  0  0  0  0  # atno 6908 bound_to 6896
  152.0353  133.3920  159.4351 H   0  0  0  0  0  0  0  0  0  0  0  0  # atno 6909 bound_to 6896
  146.2439  140.1003  142.8348 H   0  0  0  0  0  0  0  0  0  0  0  0  # atno 7974 bound_to 7965
  155.5325  140.3482  155.4429 H   0  0  0  0  0  0  0  0  0  0  0  0  # atno 8008 bound_to 7997
  156.0708  140.1362  156.9857 H   0  0  0  0  0  0  0  0  0  0  0  0  # atno 8009 bound_to 7997
  154.4527  140.0966  156.6641 H   0  0  0  0  0  0  0  0  0  0  0  0  # atno 8010 bound_to 7997
  140.1887  144.4107  150.6581 H   0  0  0  0  0  0  0  0  0  0  0  0  # atno 10167 bound_to 10162
  157.6303  131.0993  150.7131 H   0  0  0  0  0  0  0  0  0  0  0  0  # atno 10718 bound_to 10713
  154.2980  135.2759  155.2624 H   0  0  0  0  0  0  0  0  0  0  0  0  # atno 10763 bound_to 10752
  154.5074  135.5792  153.6581 H   0  0  0  0  0  0  0  0  0  0  0  0  # atno 10764 bound_to 10752
  152.9904  135.6172  154.3148 H   0  0  0  0  0  0  0  0  0  0  0  0  # atno 10765 bound_to 10752
  140.9436  133.7264  156.1112 H   0  0  0  0  0  0  0  0  0  0  0  0  # atno 11005 bound_to 11000
  145.0574  140.9062  143.4959 LP  0  0  0  0  0  0  0  0  0  0  0  0  # atno 17320 bound_to 7965
  145.1112  139.2756  143.5636 LP  0  0  0  0  0  0  0  0  0  0  0  0  # atno 17321 bound_to 7965
  140.6470  143.2216  151.6163 LP  0  0  0  0  0  0  0  0  0  0  0  0  # atno 17342 bound_to 10162
  139.5265  144.3044  152.1046 LP  0  0  0  0  0  0  0  0  0  0  0  0  # atno 17343 bound_to 10162
  156.7472  130.4757  149.5464 LP  0  0  0  0  0  0  0  0  0  0  0  0  # atno 17370 bound_to 10713
  156.1501  130.6304  151.0584 LP  0  0  0  0  0  0  0  0  0  0  0  0  # atno 17371 bound_to 10713
  140.7701  134.3842  157.5509 LP  0  0  0  0  0  0  0  0  0  0  0  0  # atno 17394 bound_to 11000
  139.8827  134.9016  156.2815 LP  0  0  0  0  0  0  0  0  0  0  0  0  # atno 17395 bound_to 11000

$$$$
