AV-unprocessed.smi:732|AV-procd|sdf|3528|dock7
  -GOLD-   22720 0523D 1   1.00000     0.00000
 Structure written by MMmdl.
 34 36  0  0  0  0  0  0  0  0  1 V2000
  146.7297  138.5051  154.8588 C   0  0  0  0  0  0  0  0  0  0  0  0
  147.8380  139.3682  155.3564 C   0  0  0  0  0  0  0  0  0  0  0  0
  147.9582  140.7180  155.5328 C   0  0  0  0  0  0  0  0  0  0  0  0
  149.2771  140.8577  156.0409 C   0  0  0  0  0  0  0  0  0  0  0  0
  149.7994  142.1352  156.3663 N   0  0  0  0  0  0  0  0  0  0  0  0
  151.0182  142.4234  156.8537 C   0  0  0  0  0  0  0  0  0  0  0  0
  151.9030  141.5986  157.0844 O   0  0  0  0  0  0  0  0  0  0  0  0
  151.1562  143.7399  157.0592 N   0  0  0  0  0  0  0  0  0  0  0  0
  152.3281  144.3872  157.5599 C   0  0  2  0  0  0  0  0  0  0  0  0
  153.0333  143.8057  158.7728 C   0  0  2  0  0  0  0  0  0  0  0  0
  152.5053  142.6410  159.5968 C   0  0  0  0  0  0  0  0  0  0  0  0
  152.2308  143.0738  161.0505 C   0  0  0  0  0  0  0  0  0  0  0  0
  151.4309  144.3957  161.1821 C   0  0  0  0  0  0  0  0  0  0  0  0
  151.0617  145.0510  159.8366 C   0  0  0  0  0  0  0  0  0  0  0  0
  152.2617  145.0953  158.9021 C   0  0  2  0  0  0  0  0  0  0  0  0
  149.9056  139.6984  156.1627 N   0  0  0  0  0  0  0  0  0  0  0  0
  148.9862  138.7379  155.7249 O   0  0  0  0  0  0  0  0  0  0  0  0
  145.9260  139.1081  154.4361 H   0  0  0  0  0  0  0  0  0  0  0  0
  146.3134  137.9063  155.6691 H   0  0  0  0  0  0  0  0  0  0  0  0
  147.0858  137.8260  154.0839 H   0  0  0  0  0  0  0  0  0  0  0  0
  147.2197  141.4796  155.3308 H   0  0  0  0  0  0  0  0  0  0  0  0
  149.1755  142.9140  156.2156 H   0  0  0  0  0  0  0  0  0  0  0  0
  150.3723  144.3375  156.8411 H   0  0  0  0  0  0  0  0  0  0  0  0
  152.9773  144.8546  156.8209 H   0  0  0  0  0  0  0  0  0  0  0  0
  154.1160  143.9115  158.8066 H   0  0  0  0  0  0  0  0  0  0  0  0
  151.5849  142.2579  159.1567 H   0  0  0  0  0  0  0  0  0  0  0  0
  153.2243  141.8219  159.5669 H   0  0  0  0  0  0  0  0  0  0  0  0
  151.7110  142.2720  161.5758 H   0  0  0  0  0  0  0  0  0  0  0  0
  153.1851  143.1929  161.5652 H   0  0  0  0  0  0  0  0  0  0  0  0
  150.5235  144.2229  161.7615 H   0  0  0  0  0  0  0  0  0  0  0  0
  152.0224  145.1032  161.7646 H   0  0  0  0  0  0  0  0  0  0  0  0
  150.2498  144.4888  159.3760 H   0  0  0  0  0  0  0  0  0  0  0  0
  150.6855  146.0629  159.9896 H   0  0  0  0  0  0  0  0  0  0  0  0
  152.8741  145.9877  159.0167 H   0  0  0  0  0  0  0  0  0  0  0  0
  1  2  1  0  0  0  0
  1 18  1  0  0  0  0
  1 19  1  0  0  0  0
  1 20  1  0  0  0  0
  2 17  1  0  0  0  0
  2  3  2  0  0  0  0
  3  4  1  0  0  0  0
  3 21  1  0  0  0  0
  4  5  1  0  0  0  0
  4 16  2  0  0  0  0
  5  6  1  0  0  0  0
  5 22  1  0  0  0  0
  6  7  2  0  0  0  0
  6  8  1  0  0  0  0
  8  9  1  0  0  0  0
  8 23  1  0  0  0  0
  9 15  1  0  0  0  0
  9 10  1  0  0  0  0
  9 24  1  0  0  0  0
 10 15  1  0  0  0  0
 10 11  1  0  0  0  0
 10 25  1  0  0  0  0
 11 12  1  0  0  0  0
 11 26  1  0  0  0  0
 11 27  1  0  0  0  0
 12 13  1  0  0  0  0
 12 28  1  0  0  0  0
 12 29  1  0  0  0  0
 13 14  1  0  0  0  0
 13 30  1  0  0  0  0
 13 31  1  0  0  0  0
 14 15  1  0  0  0  0
 14 32  1  0  0  0  0
 14 33  1  0  0  0  0
 15 34  1  0  0  0  0
 16 17  1  0  0  0  0
M  END
> <s_m_source_file>
AV-unprocessed.smi

> <i_m_source_file_index>
732

> <i_lp_mmshare_version>
43012

> <i_f3d_flags>
0

> <s_epik_input>
W0NIM11jMVtjSF1jKG5vMSlbTkhdQyg9TylbTkhdW0NASF0yW0NAQEhdKFtDQEBIXTIzKVtDSDJdW0NIMl1bQ0gyXVtDSDJdMw==

> <s_epik_cmdline>
J2VwaWtfcHl0aG9uJywgJy1waCcsICc3LjAnLCAnLXRuJywgJzgnLCAnLW1hJywgJzIwMCcsICctbWV0YWxfYmluZGluZycsICctaW1hZScsICc8aW5maWxlLm1hZT4nLCAnLW9tYWUnLCAnPG91dGZpbGUubWFlPic=

> <r_lp_tautomer_probability>
1

> <r_epik_Ionization_Penalty>
2.39506e-05

> <r_epik_Ionization_Penalty_Charging>
0

> <r_epik_Ionization_Penalty_Neutral>
2.39506e-05

> <r_epik_State_Penalty>
-0

> <r_epik_Charging_Adjusted_Penalty>
0

> <i_epik_Tot_Q>
0

> <i_epik_Tot_abs_Q>
0

> <r_epik_Metal_State_Penalty>
-0

> <b_epik_Metal_Only>
0

> <s_lp_Force_Field>
OPLS_2005

> <r_lp_Energy>
36.3442

> <b_lp_Chiralities_Consistent>
1

> <s_lp_Variant>
AV-unprocessed.smi:732-2

> <Gold.Version>
5.8.1

> <Gold.Id.Protein>
6NUR|6NUR_protein|mol2

> <Gold.PLP.Fitness>
37.7024

> <Gold.PLP.PLP>
-31.8621

> <Gold.PLP.part.hbond>
-2.0000

> <Gold.PLP.part.metal>
0.0000

> <Gold.PLP.part.buried>
-1.6998

> <Gold.PLP.part.nonpolar>
-28.1310

> <Gold.PLP.part.repulsive>
0.1159

> <Gold.PLP.ligand.clash>
0.0000

> <Gold.PLP.ligand.torsion>
0.0895

> <Gold.PLP.Chemscore.Hbond>
1.9920

> <Gold.PLP.Chemscore.CHOScore>
0.0000

> <Gold.PLP.Chemscore.Metal>
0.0000

> <Gold.Chemscore.Hbonds>
donor molecule, donor type, donor heavy atom, donor atom, acceptor molecule, acceptor atom, score
      L1  H     5    22       P1  8028  1.00
      L1  H     8    23       P1  8028  0.98

> <Gold.PLP.Chemscore.Internal.Correction>
0.0432

> <Gold.Rescore>
     Score         DG    S(hbond)    S(metal)    S(lipo)     H(rot)  DE(clash)    DE(int)     intcor
     15.24     -20.75       1.95        0.00      96.88       1.00       1.73       3.78       ----

> <Gold.Chemscore.Fitness>
15.2418

> <Gold.Chemscore.DG>
-20.7527

> <Gold.Chemscore.ZeroCoef>
-5.4800

> <Gold.Chemscore.Hbond>
1.9454

> <Gold.Chemscore.Metal>
0.0000

> <Gold.Chemscore.Lipo>
96.8796

> <Gold.Chemscore.Internal_Hbond>
0.0000

> <Gold.Chemscore.DEClash>
1.7290

> <Gold.Chemscore.DEInternal>
3.7818

> <Gold.Chemscore.Rot>
1.0000

> <Gold.Chemscore.Internal.Correction>
   9.000000E+99

> <Gold.Chemscore.Hbonds>
donor molecule, donor type, donor heavy atom, donor atom, acceptor molecule, acceptor atom, score
      L1  H     5    22       P1  8028  0.94
      L1  H     8    23       P1  8028  0.88

> <Gold.Chemscore.Hbond.Weighted>
-6.4978

> <Gold.Chemscore.Metal.Weighted>
-0.0000

> <Gold.Chemscore.Lipo.Weighted>
-11.3349

> <Gold.Chemscore.Internal_Hbond.Weighted>
0.0000

> <Gold.Chemscore.DEClash.Weighted>
1.7290

> <Gold.Chemscore.DEInternal.Weighted>
3.7818

> <Gold.Chemscore.Rot.Weighted>
2.5600

> <Gold.Chemscore.Internal.Correction.Weighted>
   9.000000E+99

> <Gold.Protein.RotatedTorsions>
[ 6907 6896 6895 6894 ] final   59.79 input  -60.11 | X-H torsion
[ 7974 7965 7964 7962 ] final   99.79 input  175.53 | X-H torsion
[ 8008 7997 7996 7995 ] final  -56.86 input   59.86 | X-H torsion
[ 10167 10162 10161 10158 ] final  -52.24 input  -65.29 | X-H torsion
[ 10718 10713 10712 10709 ] final  -78.20 input   66.30 | X-H torsion
[ 10763 10752 10751 10750 ] final   12.56 input  -60.55 | X-H torsion
[ 11005 11000 10999 10996 ] final  147.52 input  -57.11 | X-H torsion

> <Gold.Protein.ActiveResidues>
 VAL166  LYS551  ARG553  GLY616  TRP617  ASP618  TYR619  PRO620  LYS621  CYS622 
 ASP623  PHE694  ASN695  SER759  ASP760  ASP761  ALA762  ILE779  LEU786  VAL792 
 PHE793  MET794  SER795  GLU796  ALA797  LYS798  CYS799  TRP800  GLU811  SER814 

> <Gold.Protein.RotatedAtoms>
  152.3946  134.6386  160.0093 H   0  0  0  0  0  0  0  0  0  0  0  0  # atno 6907 bound_to 6896
  151.6610  133.3311  159.3182 H   0  0  0  0  0  0  0  0  0  0  0  0  # atno 6908 bound_to 6896
  150.7856  134.6881  159.6526 H   0  0  0  0  0  0  0  0  0  0  0  0  # atno 6909 bound_to 6896
  145.3942  139.2358  143.3335 H   0  0  0  0  0  0  0  0  0  0  0  0  # atno 7974 bound_to 7965
  154.4246  140.1120  156.5706 H   0  0  0  0  0  0  0  0  0  0  0  0  # atno 8008 bound_to 7997
  155.6216  140.3495  155.4635 H   0  0  0  0  0  0  0  0  0  0  0  0  # atno 8009 bound_to 7997
  156.0019  140.1201  157.0528 H   0  0  0  0  0  0  0  0  0  0  0  0  # atno 8010 bound_to 7997
  140.6547  143.2591  151.4620 H   0  0  0  0  0  0  0  0  0  0  0  0  # atno 10167 bound_to 10162
  156.0124  130.4511  150.3460 H   0  0  0  0  0  0  0  0  0  0  0  0  # atno 10718 bound_to 10713
  153.1810  135.6827  153.8478 H   0  0  0  0  0  0  0  0  0  0  0  0  # atno 10763 bound_to 10752
  153.7810  135.3182  155.3367 H   0  0  0  0  0  0  0  0  0  0  0  0  # atno 10764 bound_to 10752
  154.8059  135.4748  154.0487 H   0  0  0  0  0  0  0  0  0  0  0  0  # atno 10765 bound_to 10752
  140.0882  134.9056  157.1610 H   0  0  0  0  0  0  0  0  0  0  0  0  # atno 11005 bound_to 11000
  146.2783  140.4630  142.8786 LP  0  0  0  0  0  0  0  0  0  0  0  0  # atno 17320 bound_to 7965
  144.8419  140.6869  143.6224 LP  0  0  0  0  0  0  0  0  0  0  0  0  # atno 17321 bound_to 7965
  139.5768  144.1801  152.1914 LP  0  0  0  0  0  0  0  0  0  0  0  0  # atno 17342 bound_to 10162
  140.1114  144.5453  150.6922 LP  0  0  0  0  0  0  0  0  0  0  0  0  # atno 17343 bound_to 10162
  157.1554  131.0331  151.2866 LP  0  0  0  0  0  0  0  0  0  0  0  0  # atno 17370 bound_to 10713
  157.4357  130.7515  149.7027 LP  0  0  0  0  0  0  0  0  0  0  0  0  # atno 17371 bound_to 10713
  140.3389  134.2726  155.7215 LP  0  0  0  0  0  0  0  0  0  0  0  0  # atno 17394 bound_to 11000
  141.2069  133.7819  157.0147 LP  0  0  0  0  0  0  0  0  0  0  0  0  # atno 17395 bound_to 11000

$$$$
