AV-unprocessed.smi:258|AV-procd|sdf|1968|dock9
  -GOLD-   2262021123D 1   1.00000     0.00000
 Structure written by MMmdl.
 57 60  0  0  0  0  0  0  0  0  1 V2000
  142.9333  132.0393  149.1062 O   0  0  0  0  0  0  0  0  0  0  0  0
  143.7429  132.7893  149.9870 C   0  0  0  0  0  0  0  0  0  0  0  0
  145.1600  132.2049  150.0319 C   0  0  0  0  0  0  0  0  0  0  0  0
  146.0013  133.0843  150.7651 O   0  0  0  0  0  0  0  0  0  0  0  0
  146.1804  132.7262  152.1291 C   0  0  1  0  0  0  0  0  0  0  0  0
  146.5045  131.2252  152.2711 C   0  0  0  0  0  0  0  0  0  0  0  0
  146.8428  130.8900  153.7316 C   0  0  0  0  0  0  0  0  0  0  0  0
  147.9769  131.7853  154.2558 C   0  0  0  0  0  0  0  0  0  0  0  0
  147.6574  133.2004  154.0581 N   0  0  0  0  0  0  0  0  0  0  0  0
  148.3935  134.1159  154.7384 C   0  0  0  0  0  0  0  0  0  0  0  0
  149.5994  133.7653  155.2610 N   0  0  0  0  0  0  0  0  0  0  0  0
  150.3370  134.6630  155.9208 C   0  0  0  0  0  0  0  0  0  0  0  0
  150.0640  135.9445  156.1718 N   0  0  0  0  0  0  0  0  0  0  0  0
  148.8527  136.3018  155.6577 C   0  0  0  0  0  0  0  0  0  0  0  0
  147.9609  135.4580  154.9367 C   0  0  0  0  0  0  0  0  0  0  0  0
  146.8181  136.1683  154.5867 N   0  0  0  0  0  0  0  0  0  0  0  0
  147.0280  137.3657  155.0615 C   0  0  0  0  0  0  0  0  0  0  0  0
  148.2295  137.5367  155.7103 N   0  0  0  0  0  0  0  0  0  0  0  0
  148.7130  138.7617  156.3241 C   0  0  0  0  0  0  0  0  0  0  0  0
  149.4692  139.6822  155.3348 C   0  0  1  0  0  0  0  0  0  0  0  0
  148.4760  140.4061  154.3948 C   0  0  0  0  0  0  0  0  0  0  0  0
  149.1669  141.0598  153.3508 O   0  0  0  0  0  0  0  0  0  0  0  0
  150.4611  140.6429  156.0500 C   0  0  2  0  0  0  0  0  0  0  0  0
  151.3829  139.9936  157.0813 C   0  0  0  0  0  0  0  0  0  0  0  0
  151.5301  141.0774  158.1406 C   0  0  0  0  0  0  0  0  0  0  0  0
  150.2367  141.6548  158.1705 O   0  0  0  0  0  0  0  0  0  0  0  0
  149.8044  141.8002  156.8240 C   0  0  0  0  0  0  0  0  0  0  0  0
  147.3397  133.5745  152.6799 C   0  0  0  0  0  0  0  0  0  0  0  0
  142.1487  132.5337  148.9249 H   0  0  0  0  0  0  0  0  0  0  0  0
  143.7549  133.8400  149.6955 H   0  0  0  0  0  0  0  0  0  0  0  0
  143.2895  132.7338  150.9768 H   0  0  0  0  0  0  0  0  0  0  0  0
  145.1298  131.2449  150.5491 H   0  0  0  0  0  0  0  0  0  0  0  0
  145.5348  132.0172  149.0254 H   0  0  0  0  0  0  0  0  0  0  0  0
  145.2817  132.9672  152.7000 H   0  0  0  0  0  0  0  0  0  0  0  0
  145.6666  130.6111  151.9427 H   0  0  0  0  0  0  0  0  0  0  0  0
  147.3500  130.9689  151.6314 H   0  0  0  0  0  0  0  0  0  0  0  0
  145.9554  131.0268  154.3508 H   0  0  0  0  0  0  0  0  0  0  0  0
  147.1247  129.8405  153.8204 H   0  0  0  0  0  0  0  0  0  0  0  0
  148.1381  131.5811  155.3152 H   0  0  0  0  0  0  0  0  0  0  0  0
  148.9068  131.5503  153.7358 H   0  0  0  0  0  0  0  0  0  0  0  0
  151.2819  134.3030  156.3003 H   0  0  0  0  0  0  0  0  0  0  0  0
  146.3097  138.1644  154.9469 H   0  0  0  0  0  0  0  0  0  0  0  0
  147.8515  139.2806  156.7451 H   0  0  0  0  0  0  0  0  0  0  0  0
  149.3560  138.5040  157.1664 H   0  0  0  0  0  0  0  0  0  0  0  0
  150.0849  139.0371  154.7057 H   0  0  0  0  0  0  0  0  0  0  0  0
  147.7639  139.7072  153.9561 H   0  0  0  0  0  0  0  0  0  0  0  0
  147.8951  141.1585  154.9265 H   0  0  0  0  0  0  0  0  0  0  0  0
  149.2126  140.4760  152.6088 H   0  0  0  0  0  0  0  0  0  0  0  0
  151.0920  141.1152  155.2963 H   0  0  0  0  0  0  0  0  0  0  0  0
  150.9258  139.1149  157.5338 H   0  0  0  0  0  0  0  0  0  0  0  0
  152.3414  139.6884  156.6616 H   0  0  0  0  0  0  0  0  0  0  0  0
  151.8199  140.6812  159.1141 H   0  0  0  0  0  0  0  0  0  0  0  0
  152.2631  141.8268  157.8373 H   0  0  0  0  0  0  0  0  0  0  0  0
  150.1585  142.7591  156.4421 H   0  0  0  0  0  0  0  0  0  0  0  0
  148.7163  141.8098  156.7636 H   0  0  0  0  0  0  0  0  0  0  0  0
  148.2305  133.4280  152.0674 H   0  0  0  0  0  0  0  0  0  0  0  0
  147.0807  134.6297  152.6013 H   0  0  0  0  0  0  0  0  0  0  0  0
  1  2  1  0  0  0  0
  1 29  1  0  0  0  0
  2  3  1  0  0  0  0
  2 30  1  0  0  0  0
  2 31  1  0  0  0  0
  3  4  1  0  0  0  0
  3 32  1  0  0  0  0
  3 33  1  0  0  0  0
  4  5  1  0  0  0  0
  5 28  1  0  0  0  0
  5  6  1  0  0  0  0
  5 34  1  0  0  0  0
  6  7  1  0  0  0  0
  6 35  1  0  0  0  0
  6 36  1  0  0  0  0
  7  8  1  0  0  0  0
  7 37  1  0  0  0  0
  7 38  1  0  0  0  0
  8  9  1  0  0  0  0
  8 39  1  0  0  0  0
  8 40  1  0  0  0  0
  9 10  1  0  0  0  0
  9 28  1  0  0  0  0
 10 15  1  0  0  0  0
 10 11  2  0  0  0  0
 11 12  1  0  0  0  0
 12 13  2  0  0  0  0
 12 41  1  0  0  0  0
 13 14  1  0  0  0  0
 14 18  1  0  0  0  0
 14 15  2  0  0  0  0
 15 16  1  0  0  0  0
 16 17  2  0  0  0  0
 17 18  1  0  0  0  0
 17 42  1  0  0  0  0
 18 19  1  0  0  0  0
 19 20  1  0  0  0  0
 19 43  1  0  0  0  0
 19 44  1  0  0  0  0
 20 21  1  0  0  0  0
 20 23  1  0  0  0  0
 20 45  1  0  0  0  0
 21 22  1  0  0  0  0
 21 46  1  0  0  0  0
 21 47  1  0  0  0  0
 22 48  1  0  0  0  0
 23 27  1  0  0  0  0
 23 24  1  0  0  0  0
 23 49  1  0  0  0  0
 24 25  1  0  0  0  0
 24 50  1  0  0  0  0
 24 51  1  0  0  0  0
 25 26  1  0  0  0  0
 25 52  1  0  0  0  0
 25 53  1  0  0  0  0
 26 27  1  0  0  0  0
 27 54  1  0  0  0  0
 27 55  1  0  0  0  0
 28 56  1  0  0  0  0
 28 57  1  0  0  0  0
M  END
> <s_m_source_file>
AV-unprocessed.smi

> <i_m_source_file_index>
258

> <i_lp_mmshare_version>
43012

> <i_f3d_flags>
0

> <s_epik_input>
W09IXVtDSDJdW0NIMl1PW0NAQEhdMVtDSDJdW0NIMl1bQ0gyXU4oW0NIMl0xKWMobltjSF1uMiljKGMyMyluW2NIXW4zW0NIMl1bQ0BIXShbQ0gyXVtPSF0pW0NAQEhdNFtDSDJdW0NIMl1PW0NIMl00

> <s_epik_cmdline>
J2VwaWtfcHl0aG9uJywgJy1waCcsICc3LjAnLCAnLXRuJywgJzgnLCAnLW1hJywgJzIwMCcsICctbWV0YWxfYmluZGluZycsICctaW1hZScsICc8aW5maWxlLm1hZT4nLCAnLW9tYWUnLCAnPG91dGZpbGUubWFlPic=

> <r_lp_tautomer_probability>
1

> <r_epik_Ionization_Penalty>
0.00349036

> <r_epik_Ionization_Penalty_Charging>
0

> <r_epik_Ionization_Penalty_Neutral>
0.00349036

> <r_epik_State_Penalty>
0.00229798

> <r_epik_Charging_Adjusted_Penalty>
0.00229798

> <i_epik_Tot_Q>
0

> <i_epik_Tot_abs_Q>
0

> <r_epik_Metal_State_Penalty>
-0

> <b_epik_Metal_Only>
0

> <s_lp_Force_Field>
OPLS_2005

> <r_lp_Energy>
48.0574

> <b_lp_Chiralities_Consistent>
1

> <s_lp_Variant>
AV-unprocessed.smi:258-4

> <Gold.Version>
5.8.1

> <Gold.Id.Protein>
6NUR|6NUR_protein|mol2

> <Gold.PLP.Fitness>
48.4400

> <Gold.PLP.PLP>
-39.7473

> <Gold.PLP.part.hbond>
-5.4379

> <Gold.PLP.part.metal>
0.0000

> <Gold.PLP.part.buried>
-6.2937

> <Gold.PLP.part.nonpolar>
-29.6109

> <Gold.PLP.part.repulsive>
0.4614

> <Gold.PLP.ligand.clash>
0.0000

> <Gold.PLP.ligand.torsion>
1.2815

> <Gold.PLP.Chemscore.Hbond>
3.5407

> <Gold.PLP.Chemscore.CHOScore>
0.0000

> <Gold.PLP.Chemscore.Metal>
0.0000

> <Gold.Chemscore.Hbonds>
donor molecule, donor type, donor heavy atom, donor atom, acceptor molecule, acceptor atom, score
      L1  H     1    29       P1 10186  0.34
      L1  H    22    48       P1  7957  1.00
      P1  H  8011  8017       L1    22  0.50
      P1  H 10785 10796       L1     1  1.00

> <Gold.PLP.Chemscore.Internal.Correction>
0.6336

> <Gold.Rescore>
     Score         DG    S(hbond)    S(metal)    S(lipo)     H(rot)  DE(clash)    DE(int)     intcor
     12.12     -13.61       2.69        0.00      85.23       4.22       0.08       1.41       ----

> <Gold.Chemscore.Fitness>
12.1187

> <Gold.Chemscore.DG>
-13.6148

> <Gold.Chemscore.ZeroCoef>
-5.4800

> <Gold.Chemscore.Hbond>
2.6878

> <Gold.Chemscore.Metal>
0.0000

> <Gold.Chemscore.Lipo>
85.2343

> <Gold.Chemscore.Internal_Hbond>
0.0000

> <Gold.Chemscore.DEClash>
0.0832

> <Gold.Chemscore.DEInternal>
1.4129

> <Gold.Chemscore.Rot>
4.2246

> <Gold.Chemscore.Internal.Correction>
   9.000000E+99

> <Gold.Chemscore.Hbonds>
donor molecule, donor type, donor heavy atom, donor atom, acceptor molecule, acceptor atom, score
      L1  H     1    29       P1 10186  0.34
      L1  H    22    48       P1  7957  0.94
      P1  H  8011  8017       L1    22  0.02
      P1  H 10785 10796       L1     1  0.98

> <Gold.Chemscore.Hbond.Weighted>
-8.9772

> <Gold.Chemscore.Metal.Weighted>
-0.0000

> <Gold.Chemscore.Lipo.Weighted>
-9.9724

> <Gold.Chemscore.Internal_Hbond.Weighted>
0.0000

> <Gold.Chemscore.DEClash.Weighted>
0.0832

> <Gold.Chemscore.DEInternal.Weighted>
1.4129

> <Gold.Chemscore.Rot.Weighted>
10.8149

> <Gold.Chemscore.Internal.Correction.Weighted>
   9.000000E+99

> <Gold.Protein.RotatedTorsions>
[ 6907 6896 6895 6894 ] final   95.72 input  -60.11 | X-H torsion
[ 7974 7965 7964 7962 ] final  -54.64 input  175.53 | X-H torsion
[ 8008 7997 7996 7995 ] final  151.04 input   59.86 | X-H torsion
[ 10167 10162 10161 10158 ] final  -29.62 input  -65.29 | X-H torsion
[ 10718 10713 10712 10709 ] final  163.00 input   66.30 | X-H torsion
[ 10763 10752 10751 10750 ] final   33.97 input  -60.55 | X-H torsion
[ 11005 11000 10999 10996 ] final  113.99 input  -57.11 | X-H torsion

> <Gold.Protein.ActiveResidues>
 VAL166  LYS551  ARG553  GLY616  TRP617  ASP618  TYR619  PRO620  LYS621  CYS622 
 ASP623  PHE694  ASN695  SER759  ASP760  ASP761  ALA762  ILE779  LEU786  VAL792 
 PHE793  MET794  SER795  GLU796  ALA797  LYS798  CYS799  TRP800  GLU811  SER814 

> <Gold.Protein.RotatedAtoms>
  152.5441  134.0997  159.8312 H   0  0  0  0  0  0  0  0  0  0  0  0  # atno 6907 bound_to 6896
  151.1076  133.5189  159.2614 H   0  0  0  0  0  0  0  0  0  0  0  0  # atno 6908 bound_to 6896
  151.1920  135.0416  159.8891 H   0  0  0  0  0  0  0  0  0  0  0  0  # atno 6909 bound_to 6896
  145.8833  140.8128  142.9829 H   0  0  0  0  0  0  0  0  0  0  0  0  # atno 7974 bound_to 7965
  156.2690  140.2058  156.6113 H   0  0  0  0  0  0  0  0  0  0  0  0  # atno 8008 bound_to 7997
  154.6829  140.0538  157.0308 H   0  0  0  0  0  0  0  0  0  0  0  0  # atno 8009 bound_to 7997
  155.0975  140.3202  155.4559 H   0  0  0  0  0  0  0  0  0  0  0  0  # atno 8010 bound_to 7997
  140.7258  143.3914  151.1423 H   0  0  0  0  0  0  0  0  0  0  0  0  # atno 10167 bound_to 10162
  157.1146  131.0476  151.2442 H   0  0  0  0  0  0  0  0  0  0  0  0  # atno 10718 bound_to 10713
  153.0186  135.6373  154.1594 H   0  0  0  0  0  0  0  0  0  0  0  0  # atno 10763 bound_to 10752
  154.1331  135.2839  155.3181 H   0  0  0  0  0  0  0  0  0  0  0  0  # atno 10764 bound_to 10752
  154.6180  135.5534  153.7605 H   0  0  0  0  0  0  0  0  0  0  0  0  # atno 10765 bound_to 10752
  139.8968  134.9560  156.6824 H   0  0  0  0  0  0  0  0  0  0  0  0  # atno 11005 bound_to 11000
  144.6728  140.1417  143.7436 LP  0  0  0  0  0  0  0  0  0  0  0  0  # atno 17320 bound_to 7965
  145.8997  139.2423  143.1500 LP  0  0  0  0  0  0  0  0  0  0  0  0  # atno 17321 bound_to 7965
  139.7520  143.8765  152.3079 LP  0  0  0  0  0  0  0  0  0  0  0  0  # atno 17342 bound_to 10162
  139.8621  144.7111  150.9087 LP  0  0  0  0  0  0  0  0  0  0  0  0  # atno 17343 bound_to 10162
  157.4530  130.7609  149.7168 LP  0  0  0  0  0  0  0  0  0  0  0  0  # atno 17370 bound_to 10713
  155.9842  130.3993  150.3322 LP  0  0  0  0  0  0  0  0  0  0  0  0  # atno 17371 bound_to 10713
  140.7289  133.9076  155.8197 LP  0  0  0  0  0  0  0  0  0  0  0  0  # atno 17394 bound_to 11000
  141.0169  134.0943  157.4162 LP  0  0  0  0  0  0  0  0  0  0  0  0  # atno 17395 bound_to 11000

$$$$
