AV-unprocessed.smi:3312|AV-procd|sdf|12728|dock1
  -GOLD-   2272019 73D 1   1.00000     0.00000
 Structure written by MMmdl.
 38 39  0  0  0  0  0  0  0  0  1 V2000
  153.4700  142.6801  163.1715 C   0  0  0  0  0  0  0  0  0  0  0  0
  153.1445  142.6381  161.7062 C   0  0  0  0  0  0  0  0  0  0  0  0
  153.5060  141.6397  160.7574 C   0  0  0  0  0  0  0  0  0  0  0  0
  153.0622  141.9030  159.5392 N   0  0  0  0  0  0  0  0  0  0  0  0
  152.4068  143.0760  159.6652 N   0  0  0  0  0  0  0  0  0  0  0  0
  151.7778  143.6817  158.5045 C   0  0  0  0  0  0  0  0  0  0  0  0
  150.3486  143.1643  158.2666 C   0  0  0  0  0  0  0  0  0  0  0  0
  150.3867  141.8510  157.6295 N   0  0  0  0  0  0  0  0  0  0  0  0
  150.7345  141.9197  156.1997 C   0  0  0  0  0  0  0  0  0  0  0  0
  150.1548  140.7937  155.3187 C   0  0  0  0  0  0  0  0  0  0  0  0
  150.9258  140.0010  154.7744 O   0  0  0  0  0  0  0  0  0  0  0  0
  148.8105  140.6954  155.1794 N   0  0  0  0  0  0  0  0  0  0  0  0
  148.1631  139.7166  154.3008 C   0  0  0  0  0  0  0  0  0  0  0  0
  147.4059  140.4815  153.1997 C   0  0  0  0  0  0  0  0  0  0  0  0
  146.4629  141.3723  153.7918 O   0  0  0  0  0  0  0  0  0  0  0  0
  147.0618  142.3156  154.6777 C   0  0  0  0  0  0  0  0  0  0  0  0
  147.8071  141.5679  155.7974 C   0  0  0  0  0  0  0  0  0  0  0  0
  152.4372  143.5403  160.9630 C   0  0  0  0  0  0  0  0  0  0  0  0
  153.6863  141.6873  163.5666 H   0  0  0  0  0  0  0  0  0  0  0  0
  152.6446  143.0853  163.7573 H   0  0  0  0  0  0  0  0  0  0  0  0
  154.3425  143.3027  163.3707 H   0  0  0  0  0  0  0  0  0  0  0  0
  154.0750  140.7357  160.9174 H   0  0  0  0  0  0  0  0  0  0  0  0
  151.7599  144.7622  158.6528 H   0  0  0  0  0  0  0  0  0  0  0  0
  152.4018  143.4990  157.6286 H   0  0  0  0  0  0  0  0  0  0  0  0
  149.8099  143.1037  159.2134 H   0  0  0  0  0  0  0  0  0  0  0  0
  149.8130  143.8793  157.6428 H   0  0  0  0  0  0  0  0  0  0  0  0
  149.4898  141.4063  157.7631 H   0  0  0  0  0  0  0  0  0  0  0  0
  150.3634  142.8674  155.8085 H   0  0  0  0  0  0  0  0  0  0  0  0
  151.8213  141.9446  156.1117 H   0  0  0  0  0  0  0  0  0  0  0  0
  148.8675  139.0201  153.8443 H   0  0  0  0  0  0  0  0  0  0  0  0
  147.4697  139.1082  154.8832 H   0  0  0  0  0  0  0  0  0  0  0  0
  148.0992  141.0393  152.5680 H   0  0  0  0  0  0  0  0  0  0  0  0
  146.8742  139.7840  152.5524 H   0  0  0  0  0  0  0  0  0  0  0  0
  147.7402  142.9688  154.1266 H   0  0  0  0  0  0  0  0  0  0  0  0
  146.2808  142.9477  155.1001 H   0  0  0  0  0  0  0  0  0  0  0  0
  147.1051  140.9560  156.3656 H   0  0  0  0  0  0  0  0  0  0  0  0
  148.2161  142.2791  156.5125 H   0  0  0  0  0  0  0  0  0  0  0  0
  151.9606  144.4670  161.2467 H   0  0  0  0  0  0  0  0  0  0  0  0
  1  2  1  0  0  0  0
  1 19  1  0  0  0  0
  1 20  1  0  0  0  0
  1 21  1  0  0  0  0
  2 18  2  0  0  0  0
  2  3  1  0  0  0  0
  3  4  2  0  0  0  0
  3 22  1  0  0  0  0
  4  5  1  0  0  0  0
  5  6  1  0  0  0  0
  5 18  1  0  0  0  0
  6  7  1  0  0  0  0
  6 23  1  0  0  0  0
  6 24  1  0  0  0  0
  7  8  1  0  0  0  0
  7 25  1  0  0  0  0
  7 26  1  0  0  0  0
  8  9  1  0  0  0  0
  8 27  1  0  0  0  0
  9 10  1  0  0  0  0
  9 28  1  0  0  0  0
  9 29  1  0  0  0  0
 10 11  2  0  0  0  0
 10 12  1  0  0  0  0
 12 17  1  0  0  0  0
 12 13  1  0  0  0  0
 13 14  1  0  0  0  0
 13 30  1  0  0  0  0
 13 31  1  0  0  0  0
 14 15  1  0  0  0  0
 14 32  1  0  0  0  0
 14 33  1  0  0  0  0
 15 16  1  0  0  0  0
 16 17  1  0  0  0  0
 16 34  1  0  0  0  0
 16 35  1  0  0  0  0
 17 36  1  0  0  0  0
 17 37  1  0  0  0  0
 18 38  1  0  0  0  0
M  END
> <s_m_source_file>
AV-unprocessed.smi

> <i_m_source_file_index>
3312

> <i_lp_mmshare_version>
43012

> <i_f3d_flags>
0

> <s_epik_input>
W0NIM11jMVtjSF1ubihbY0hdMSlbQ0gyXVtDSDJdW05IXVtDSDJdQyg9TylOMltDSDJdW0NIMl1PW0NIMl1bQ0gyXTI=

> <s_epik_cmdline>
J2VwaWtfcHl0aG9uJywgJy1waCcsICc3LjAnLCAnLXRuJywgJzgnLCAnLW1hJywgJzIwMCcsICctbWV0YWxfYmluZGluZycsICctaW1hZScsICc8aW5maWxlLm1hZT4nLCAnLW9tYWUnLCAnPG91dGZpbGUubWFlPic=

> <r_lp_tautomer_probability>
1

> <r_epik_Ionization_Penalty>
0.513825

> <r_epik_Ionization_Penalty_Charging>
0

> <r_epik_Ionization_Penalty_Neutral>
0.513825

> <r_epik_State_Penalty>
0.518565

> <r_epik_Charging_Adjusted_Penalty>
0.518565

> <i_epik_Tot_Q>
0

> <i_epik_Tot_abs_Q>
0

> <r_epik_Metal_State_Penalty>
0.515505

> <b_epik_Metal_Only>
0

> <s_lp_Force_Field>
OPLS_2005

> <r_lp_Energy>
26.2636

> <b_lp_Chiralities_Consistent>
1

> <s_lp_Variant>
AV-unprocessed.smi:3312-2

> <Gold.Version>
5.8.1

> <Gold.Id.Protein>
6NUR|6NUR_protein|mol2

> <Gold.PLP.Fitness>
43.3950

> <Gold.PLP.PLP>
-41.7782

> <Gold.PLP.part.hbond>
-1.0000

> <Gold.PLP.part.metal>
0.0000

> <Gold.PLP.part.buried>
-2.9300

> <Gold.PLP.part.nonpolar>
-37.0710

> <Gold.PLP.part.repulsive>
0.2616

> <Gold.PLP.ligand.clash>
0.0000

> <Gold.PLP.ligand.torsion>
0.7031

> <Gold.PLP.Chemscore.Hbond>
1.0000

> <Gold.PLP.Chemscore.CHOScore>
0.0000

> <Gold.PLP.Chemscore.Metal>
0.0000

> <Gold.Chemscore.Hbonds>
donor molecule, donor type, donor heavy atom, donor atom, acceptor molecule, acceptor atom, score
      P1  H  7989  7998       L1    11  1.00

> <Gold.PLP.Chemscore.Internal.Correction>
0.0230

> <Gold.Rescore>
     Score         DG    S(hbond)    S(metal)    S(lipo)     H(rot)  DE(clash)    DE(int)     intcor
     14.34     -15.14       0.88        0.00      97.31       1.82       0.04       0.75       ----

> <Gold.Chemscore.Fitness>
14.3447

> <Gold.Chemscore.DG>
-15.1353

> <Gold.Chemscore.ZeroCoef>
-5.4800

> <Gold.Chemscore.Hbond>
0.8781

> <Gold.Chemscore.Metal>
0.0000

> <Gold.Chemscore.Lipo>
97.3056

> <Gold.Chemscore.Internal_Hbond>
0.0000

> <Gold.Chemscore.DEClash>
0.0358

> <Gold.Chemscore.DEInternal>
0.7548

> <Gold.Chemscore.Rot>
1.8213

> <Gold.Chemscore.Internal.Correction>
   9.000000E+99

> <Gold.Chemscore.Hbonds>
donor molecule, donor type, donor heavy atom, donor atom, acceptor molecule, acceptor atom, score
      P1  H  7989  7998       L1    11  0.50

> <Gold.Chemscore.Hbond.Weighted>
-2.9330

> <Gold.Chemscore.Metal.Weighted>
-0.0000

> <Gold.Chemscore.Lipo.Weighted>
-11.3848

> <Gold.Chemscore.Internal_Hbond.Weighted>
0.0000

> <Gold.Chemscore.DEClash.Weighted>
0.0358

> <Gold.Chemscore.DEInternal.Weighted>
0.7548

> <Gold.Chemscore.Rot.Weighted>
4.6624

> <Gold.Chemscore.Internal.Correction.Weighted>
   9.000000E+99

> <Gold.Protein.RotatedTorsions>
[ 6907 6896 6895 6894 ] final  145.73 input  -60.11 | X-H torsion
[ 7974 7965 7964 7962 ] final  126.14 input  175.53 | X-H torsion
[ 8008 7997 7996 7995 ] final -129.23 input   59.86 | X-H torsion
[ 10167 10162 10161 10158 ] final  -76.01 input  -65.29 | X-H torsion
[ 10718 10713 10712 10709 ] final   42.32 input   66.30 | X-H torsion
[ 10763 10752 10751 10750 ] final   94.62 input  -60.55 | X-H torsion
[ 11005 11000 10999 10996 ] final   -6.60 input  -57.11 | X-H torsion

> <Gold.Protein.ActiveResidues>
 VAL166  LYS551  ARG553  GLY616  TRP617  ASP618  TYR619  PRO620  LYS621  CYS622 
 ASP623  PHE694  ASN695  SER759  ASP760  ASP761  ALA762  ILE779  LEU786  VAL792 
 PHE793  MET794  SER795  GLU796  ALA797  LYS798  CYS799  TRP800  GLU811  SER814 

> <Gold.Protein.RotatedAtoms>
  152.1771  133.4682  159.4938 H   0  0  0  0  0  0  0  0  0  0  0  0  # atno 6907 bound_to 6896
  150.6928  134.1880  159.4283 H   0  0  0  0  0  0  0  0  0  0  0  0  # atno 6908 bound_to 6896
  151.9790  135.0038  160.0607 H   0  0  0  0  0  0  0  0  0  0  0  0  # atno 6909 bound_to 6896
  145.0651  139.3774  143.4986 H   0  0  0  0  0  0  0  0  0  0  0  0  # atno 7974 bound_to 7965
  155.2757  140.0442  157.3011 H   0  0  0  0  0  0  0  0  0  0  0  0  # atno 8008 bound_to 7997
  154.5626  140.2350  155.8280 H   0  0  0  0  0  0  0  0  0  0  0  0  # atno 8009 bound_to 7997
  156.2060  140.3012  155.9635 H   0  0  0  0  0  0  0  0  0  0  0  0  # atno 8010 bound_to 7997
  140.4894  143.2384  151.7931 H   0  0  0  0  0  0  0  0  0  0  0  0  # atno 10167 bound_to 10162
  157.4035  130.7873  149.7369 H   0  0  0  0  0  0  0  0  0  0  0  0  # atno 10718 bound_to 10713
  153.2438  135.4283  155.0726 H   0  0  0  0  0  0  0  0  0  0  0  0  # atno 10763 bound_to 10752
  154.8352  135.3409  154.6611 H   0  0  0  0  0  0  0  0  0  0  0  0  # atno 10764 bound_to 10752
  153.7034  135.7027  153.5113 H   0  0  0  0  0  0  0  0  0  0  0  0  # atno 10765 bound_to 10752
  140.7038  133.8967  155.8702 H   0  0  0  0  0  0  0  0  0  0  0  0  # atno 11005 bound_to 11000
  146.3526  140.0368  142.8646 LP  0  0  0  0  0  0  0  0  0  0  0  0  # atno 17320 bound_to 7965
  145.1361  140.9545  143.4516 LP  0  0  0  0  0  0  0  0  0  0  0  0  # atno 17321 bound_to 7965
  139.4848  144.4669  151.9473 LP  0  0  0  0  0  0  0  0  0  0  0  0  # atno 17342 bound_to 10162
  140.3756  144.2801  150.5914 LP  0  0  0  0  0  0  0  0  0  0  0  0  # atno 17343 bound_to 10162
  155.9830  130.4004  150.3388 LP  0  0  0  0  0  0  0  0  0  0  0  0  # atno 17370 bound_to 10713
  157.1518  131.0323  151.2881 LP  0  0  0  0  0  0  0  0  0  0  0  0  # atno 17371 bound_to 10713
  141.0142  134.0979  157.4190 LP  0  0  0  0  0  0  0  0  0  0  0  0  # atno 17394 bound_to 11000
  139.8889  135.0101  156.6651 LP  0  0  0  0  0  0  0  0  0  0  0  0  # atno 17395 bound_to 11000

$$$$
