AV-unprocessed.smi:1212|AV-procd|sdf|5082|dock5
  -GOLD-   22720 4133D 1   1.00000     0.00000
 Structure written by MMmdl.
 39 40  0  0  0  0  0  0  0  0  1 V2000
  141.2796  145.2385  157.9786 C   0  0  0  0  0  0  0  0  0  0  0  0
  142.6135  144.5797  158.0733 C   0  0  0  0  0  0  0  0  0  0  0  0
  142.8529  143.5371  158.8784 N   0  0  0  0  0  0  0  0  0  0  0  0
  144.1670  143.0974  158.7935 N   0  0  0  0  0  0  0  0  0  0  0  0
  144.8813  143.8232  157.9221 C   0  0  0  0  0  0  0  0  0  0  0  0
  146.2537  143.5926  157.6400 N   0  0  0  0  0  0  0  0  0  0  0  0
  147.1300  142.8349  158.3230 C   0  0  0  0  0  0  0  0  0  0  0  0
  146.8749  142.1947  159.3435 O   0  0  0  0  0  0  0  0  0  0  0  0
  148.3419  142.8585  157.7497 N   0  0  0  0  0  0  0  0  0  0  0  0
  149.5103  142.1356  158.2365 C   0  0  0  0  0  0  0  0  0  0  0  0
  150.7981  142.5995  157.5304 C   0  0  0  0  0  0  0  0  0  0  0  0
  151.8853  142.8058  158.4955 N   0  0  0  0  0  0  0  0  0  0  0  0
  152.4017  144.1797  158.6121 C   0  0  0  0  0  0  0  0  0  0  0  0
  152.0394  144.8708  159.9477 C   0  0  0  0  0  0  0  0  0  0  0  0
  151.8671  143.9494  161.1717 C   0  0  0  0  0  0  0  0  0  0  0  0
  153.0462  142.9906  161.4384 C   0  0  0  0  0  0  0  0  0  0  0  0
  153.4888  142.0965  160.2559 C   0  0  0  0  0  0  0  0  0  0  0  0
  152.3728  141.7862  159.2450 C   0  0  0  0  0  0  0  0  0  0  0  0
  151.9585  140.6300  159.1563 O   0  0  0  0  0  0  0  0  0  0  0  0
  143.9969  145.1146  157.1271 S   0  0  0  0  0  0  0  0  0  0  0  0
  140.6518  144.9598  158.8257 H   0  0  0  0  0  0  0  0  0  0  0  0
  140.7801  144.9372  157.0579 H   0  0  0  0  0  0  0  0  0  0  0  0
  141.3974  146.3223  157.9752 H   0  0  0  0  0  0  0  0  0  0  0  0
  146.6102  144.0594  156.8193 H   0  0  0  0  0  0  0  0  0  0  0  0
  148.4657  143.4130  156.9151 H   0  0  0  0  0  0  0  0  0  0  0  0
  149.6019  142.2573  159.3172 H   0  0  0  0  0  0  0  0  0  0  0  0
  149.3442  141.0726  158.0603 H   0  0  0  0  0  0  0  0  0  0  0  0
  151.0976  141.8643  156.7813 H   0  0  0  0  0  0  0  0  0  0  0  0
  150.6062  143.5133  156.9673 H   0  0  0  0  0  0  0  0  0  0  0  0
  153.4843  144.1661  158.4847 H   0  0  0  0  0  0  0  0  0  0  0  0
  152.0490  144.8067  157.7928 H   0  0  0  0  0  0  0  0  0  0  0  0
  152.7901  145.6311  160.1649 H   0  0  0  0  0  0  0  0  0  0  0  0
  151.1035  145.4140  159.8110 H   0  0  0  0  0  0  0  0  0  0  0  0
  151.7087  144.5669  162.0563 H   0  0  0  0  0  0  0  0  0  0  0  0
  150.9470  143.3734  161.0632 H   0  0  0  0  0  0  0  0  0  0  0  0
  153.9056  143.5721  161.7735 H   0  0  0  0  0  0  0  0  0  0  0  0
  152.7808  142.3513  162.2811 H   0  0  0  0  0  0  0  0  0  0  0  0
  154.3253  142.5567  159.7303 H   0  0  0  0  0  0  0  0  0  0  0  0
  153.8880  141.1596  160.6464 H   0  0  0  0  0  0  0  0  0  0  0  0
  1  2  1  0  0  0  0
  1 21  1  0  0  0  0
  1 22  1  0  0  0  0
  1 23  1  0  0  0  0
  2 20  1  0  0  0  0
  2  3  2  0  0  0  0
  3  4  1  0  0  0  0
  4  5  2  0  0  0  0
  5  6  1  0  0  0  0
  5 20  1  0  0  0  0
  6  7  1  0  0  0  0
  6 24  1  0  0  0  0
  7  8  2  0  0  0  0
  7  9  1  0  0  0  0
  9 10  1  0  0  0  0
  9 25  1  0  0  0  0
 10 11  1  0  0  0  0
 10 26  1  0  0  0  0
 10 27  1  0  0  0  0
 11 12  1  0  0  0  0
 11 28  1  0  0  0  0
 11 29  1  0  0  0  0
 12 18  1  0  0  0  0
 12 13  1  0  0  0  0
 13 14  1  0  0  0  0
 13 30  1  0  0  0  0
 13 31  1  0  0  0  0
 14 15  1  0  0  0  0
 14 32  1  0  0  0  0
 14 33  1  0  0  0  0
 15 16  1  0  0  0  0
 15 34  1  0  0  0  0
 15 35  1  0  0  0  0
 16 17  1  0  0  0  0
 16 36  1  0  0  0  0
 16 37  1  0  0  0  0
 17 18  1  0  0  0  0
 17 38  1  0  0  0  0
 17 39  1  0  0  0  0
 18 19  2  0  0  0  0
M  END
> <s_m_source_file>
AV-unprocessed.smi

> <i_m_source_file_index>
1212

> <i_lp_mmshare_version>
43012

> <i_f3d_flags>
0

> <s_epik_input>
W0NIM11jMW5uYyhzMSlbTkhdQyg9TylbTkhdW0NIMl1bQ0gyXU4yW0NIMl1bQ0gyXVtDSDJdW0NIMl1bQ0gyXUMyPU8=

> <s_epik_cmdline>
J2VwaWtfcHl0aG9uJywgJy1waCcsICc3LjAnLCAnLXRuJywgJzgnLCAnLW1hJywgJzIwMCcsICctbWV0YWxfYmluZGluZycsICctaW1hZScsICc8aW5maWxlLm1hZT4nLCAnLW9tYWUnLCAnPG91dGZpbGUubWFlPic=

> <r_lp_tautomer_probability>
1

> <r_epik_Ionization_Penalty>
0.00255187

> <r_epik_Ionization_Penalty_Charging>
0

> <r_epik_Ionization_Penalty_Neutral>
0.00255187

> <r_epik_State_Penalty>
-0

> <r_epik_Charging_Adjusted_Penalty>
0

> <i_epik_Tot_Q>
0

> <i_epik_Tot_abs_Q>
0

> <r_epik_Metal_State_Penalty>
0.352847

> <b_epik_Metal_Only>
0

> <s_lp_Force_Field>
OPLS_2005

> <r_lp_Energy>
20.0291

> <b_lp_Chiralities_Consistent>
1

> <s_lp_Variant>
AV-unprocessed.smi:1212-1

> <Gold.Version>
5.8.1

> <Gold.Id.Protein>
6NUR|6NUR_protein|mol2

> <Gold.PLP.Fitness>
40.9745

> <Gold.PLP.PLP>
-36.2896

> <Gold.PLP.part.hbond>
-3.7729

> <Gold.PLP.part.metal>
0.0000

> <Gold.PLP.part.buried>
-2.3327

> <Gold.PLP.part.nonpolar>
-29.3351

> <Gold.PLP.part.repulsive>
0.1134

> <Gold.PLP.ligand.clash>
0.0000

> <Gold.PLP.ligand.torsion>
0.4330

> <Gold.PLP.Chemscore.Hbond>
1.8480

> <Gold.PLP.Chemscore.CHOScore>
0.0000

> <Gold.PLP.Chemscore.Metal>
0.0000

> <Gold.Chemscore.Hbonds>
donor molecule, donor type, donor heavy atom, donor atom, acceptor molecule, acceptor atom, score
      L1  H     9    25       P1  8028  0.95
      P1  H  6934  6946       L1     8  0.83

> <Gold.PLP.Chemscore.Internal.Correction>
0.0069

> <Gold.Rescore>
     Score         DG    S(hbond)    S(metal)    S(lipo)     H(rot)  DE(clash)    DE(int)     intcor
     13.41     -15.20       1.43        0.00      78.41       1.65       0.03       1.76       ----

> <Gold.Chemscore.Fitness>
13.4133

> <Gold.Chemscore.DG>
-15.1996

> <Gold.Chemscore.ZeroCoef>
-5.4800

> <Gold.Chemscore.Hbond>
1.4313

> <Gold.Chemscore.Metal>
0.0000

> <Gold.Chemscore.Lipo>
78.4124

> <Gold.Chemscore.Internal_Hbond>
0.0000

> <Gold.Chemscore.DEClash>
0.0270

> <Gold.Chemscore.DEInternal>
1.7593

> <Gold.Chemscore.Rot>
1.6544

> <Gold.Chemscore.Internal.Correction>
   9.000000E+99

> <Gold.Chemscore.Hbonds>
donor molecule, donor type, donor heavy atom, donor atom, acceptor molecule, acceptor atom, score
      L1  H     9    25       P1  8028  0.22
      P1  H  6934  6946       L1     8  0.81

> <Gold.Chemscore.Hbond.Weighted>
-4.7805

> <Gold.Chemscore.Metal.Weighted>
-0.0000

> <Gold.Chemscore.Lipo.Weighted>
-9.1742

> <Gold.Chemscore.Internal_Hbond.Weighted>
0.0000

> <Gold.Chemscore.DEClash.Weighted>
0.0270

> <Gold.Chemscore.DEInternal.Weighted>
1.7593

> <Gold.Chemscore.Rot.Weighted>
4.2352

> <Gold.Chemscore.Internal.Correction.Weighted>
   9.000000E+99

> <Gold.Protein.RotatedTorsions>
[ 6907 6896 6895 6894 ] final  116.16 input  -60.11 | X-H torsion
[ 7974 7965 7964 7962 ] final   75.37 input  175.53 | X-H torsion
[ 8008 7997 7996 7995 ] final  -71.73 input   59.86 | X-H torsion
[ 10167 10162 10161 10158 ] final  -19.94 input  -65.29 | X-H torsion
[ 10718 10713 10712 10709 ] final -155.97 input   66.30 | X-H torsion
[ 10763 10752 10751 10750 ] final -163.82 input  -60.55 | X-H torsion
[ 11005 11000 10999 10996 ] final  -96.42 input  -57.11 | X-H torsion

> <Gold.Protein.ActiveResidues>
 VAL166  LYS551  ARG553  GLY616  TRP617  ASP618  TYR619  PRO620  LYS621  CYS622 
 ASP623  PHE694  ASN695  SER759  ASP760  ASP761  ALA762  ILE779  LEU786  VAL792 
 PHE793  MET794  SER795  GLU796  ALA797  LYS798  CYS799  TRP800  GLU811  SER814 

> <Gold.Protein.RotatedAtoms>
  152.4695  133.7998  159.6946 H   0  0  0  0  0  0  0  0  0  0  0  0  # atno 6907 bound_to 6896
  150.8677  133.7541  159.2978 H   0  0  0  0  0  0  0  0  0  0  0  0  # atno 6908 bound_to 6896
  151.5086  135.1067  159.9900 H   0  0  0  0  0  0  0  0  0  0  0  0  # atno 6909 bound_to 6896
  145.7164  139.2633  143.1621 H   0  0  0  0  0  0  0  0  0  0  0  0  # atno 7974 bound_to 7965
  154.5111  140.0810  156.7991 H   0  0  0  0  0  0  0  0  0  0  0  0  # atno 8008 bound_to 7997
  155.3784  140.3426  155.4227 H   0  0  0  0  0  0  0  0  0  0  0  0  # atno 8009 bound_to 7997
  156.1574  140.1577  156.8657 H   0  0  0  0  0  0  0  0  0  0  0  0  # atno 8010 bound_to 7997
  140.7272  143.4770  151.0169 H   0  0  0  0  0  0  0  0  0  0  0  0  # atno 10167 bound_to 10162
  156.5202  130.8474  151.2679 H   0  0  0  0  0  0  0  0  0  0  0  0  # atno 10718 bound_to 10713
  154.7087  135.3002  154.9231 H   0  0  0  0  0  0  0  0  0  0  0  0  # atno 10763 bound_to 10752
  154.0139  135.6691  153.4771 H   0  0  0  0  0  0  0  0  0  0  0  0  # atno 10764 bound_to 10752
  153.0737  135.5046  154.8272 H   0  0  0  0  0  0  0  0  0  0  0  0  # atno 10765 bound_to 10752
  141.1412  133.8096  157.0568 H   0  0  0  0  0  0  0  0  0  0  0  0  # atno 11005 bound_to 11000
  146.0666  140.7914  142.9709 LP  0  0  0  0  0  0  0  0  0  0  0  0  # atno 17320 bound_to 7965
  144.6928  140.3277  143.7221 LP  0  0  0  0  0  0  0  0  0  0  0  0  # atno 17321 bound_to 7965
  139.8466  143.7493  152.3179 LP  0  0  0  0  0  0  0  0  0  0  0  0  # atno 17342 bound_to 10162
  139.7661  144.7491  151.0293 LP  0  0  0  0  0  0  0  0  0  0  0  0  # atno 17343 bound_to 10162
  157.7438  130.9920  150.2620 LP  0  0  0  0  0  0  0  0  0  0  0  0  # atno 17370 bound_to 10713
  156.3157  130.3778  149.7621 LP  0  0  0  0  0  0  0  0  0  0  0  0  # atno 17371 bound_to 10713
  140.0596  134.9762  157.1282 LP  0  0  0  0  0  0  0  0  0  0  0  0  # atno 17394 bound_to 11000
  140.3868  134.2228  155.7168 LP  0  0  0  0  0  0  0  0  0  0  0  0  # atno 17395 bound_to 11000

$$$$
