AV-unprocessed.smi:500|AV-procd|sdf|2739|dock5
  -GOLD-   2262023193D 1   1.00000     0.00000
 Structure written by MMmdl.
 44 46  0  0  0  0  0  0  0  0  2 V2000
  146.8956  141.9702  153.7900 C   0  0  0  0  0  0  0  0  0  0  0  0
  147.8271  141.7016  154.9797 C   0  0  0  0  0  0  0  0  0  0  0  0
  149.0423  141.1162  154.5417 O   0  0  0  0  0  0  0  0  0  0  0  0
  150.0726  141.1106  155.5161 C   0  0  0  0  0  0  0  0  0  0  0  0
  149.5290  140.5331  156.8304 C   0  0  0  0  0  0  0  0  0  0  0  0
  150.5376  140.5566  157.8945 N   0  0  0  0  0  0  0  0  0  0  0  0
  151.0868  139.5467  158.6407 C   0  0  0  0  0  0  0  0  0  0  0  0
  150.7351  138.0745  158.4894 C   0  0  1  0  0  0  0  0  0  0  0  0
  151.9829  137.1948  158.6488 C   0  0  0  0  0  0  0  0  0  0  0  0
  149.7208  137.6306  159.4513 N   0  5  0  0  0  0  0  0  0  0  0  0
  149.1387  136.3984  159.4418 C   0  0  0  0  0  0  0  0  0  0  0  0
  149.2265  135.4888  158.6113 O   0  0  0  0  0  0  0  0  0  0  0  0
  148.3188  136.1624  160.6516 C   0  0  0  0  0  0  0  0  0  0  0  0
  147.8223  135.0137  161.2139 C   0  0  0  0  0  0  0  0  0  0  0  0
  147.1284  135.3999  162.3938 C   0  0  0  0  0  0  0  0  0  0  0  0
  147.2570  136.7561  162.4765 C   0  0  0  0  0  0  0  0  0  0  0  0
  147.9831  137.2337  161.4299 O   0  0  0  0  0  0  0  0  0  0  0  0
  152.0144  139.9405  159.5218 N   0  0  0  0  0  0  0  0  0  0  0  0
  152.0504  141.3086  159.3613 C   0  0  0  0  0  0  0  0  0  0  0  0
  152.8242  142.2901  160.0208 C   0  0  0  0  0  0  0  0  0  0  0  0
  152.6903  143.6519  159.6804 C   0  0  0  0  0  0  0  0  0  0  0  0
  151.7833  144.0495  158.6771 C   0  0  0  0  0  0  0  0  0  0  0  0
  151.0046  143.0856  158.0083 C   0  0  0  0  0  0  0  0  0  0  0  0
  151.1412  141.7267  158.3527 C   0  0  0  0  0  0  0  0  0  0  0  0
  145.9924  142.4864  154.1154 H   0  0  0  0  0  0  0  0  0  0  0  0
  146.5889  141.0484  153.2966 H   0  0  0  0  0  0  0  0  0  0  0  0
  147.3881  142.5979  153.0468 H   0  0  0  0  0  0  0  0  0  0  0  0
  148.0716  142.6509  155.4562 H   0  0  0  0  0  0  0  0  0  0  0  0
  147.3403  141.0865  155.7380 H   0  0  0  0  0  0  0  0  0  0  0  0
  150.9084  140.5098  155.1561 H   0  0  0  0  0  0  0  0  0  0  0  0
  150.4527  142.1174  155.6913 H   0  0  0  0  0  0  0  0  0  0  0  0
  148.6220  141.0520  157.1382 H   0  0  0  0  0  0  0  0  0  0  0  0
  149.2287  139.4970  156.6731 H   0  0  0  0  0  0  0  0  0  0  0  0
  150.3777  137.9239  157.4706 H   0  0  0  0  0  0  0  0  0  0  0  0
  152.7442  137.4647  157.9167 H   0  0  0  0  0  0  0  0  0  0  0  0
  151.7453  136.1408  158.5023 H   0  0  0  0  0  0  0  0  0  0  0  0
  152.4239  137.3029  159.6407 H   0  0  0  0  0  0  0  0  0  0  0  0
  147.9452  134.0148  160.8216 H   0  0  0  0  0  0  0  0  0  0  0  0
  146.6056  134.7656  163.0940 H   0  0  0  0  0  0  0  0  0  0  0  0
  146.9159  137.5018  163.1793 H   0  0  0  0  0  0  0  0  0  0  0  0
  153.5213  141.9931  160.7903 H   0  0  0  0  0  0  0  0  0  0  0  0
  153.2864  144.3939  160.1910 H   0  0  0  0  0  0  0  0  0  0  0  0
  151.6861  145.0942  158.4213 H   0  0  0  0  0  0  0  0  0  0  0  0
  150.3091  143.3878  157.2396 H   0  0  0  0  0  0  0  0  0  0  0  0
  1  2  1  0  0  0  0
  1 25  1  0  0  0  0
  1 26  1  0  0  0  0
  1 27  1  0  0  0  0
  2  3  1  0  0  0  0
  2 28  1  0  0  0  0
  2 29  1  0  0  0  0
  3  4  1  0  0  0  0
  4  5  1  0  0  0  0
  4 30  1  0  0  0  0
  4 31  1  0  0  0  0
  5  6  1  0  0  0  0
  5 32  1  0  0  0  0
  5 33  1  0  0  0  0
  6 24  1  0  0  0  0
  6  7  1  0  0  0  0
  7  8  1  0  0  0  0
  7 18  2  0  0  0  0
  8  9  1  0  0  0  0
  8 10  1  0  0  0  0
  8 34  1  0  0  0  0
  9 35  1  0  0  0  0
  9 36  1  0  0  0  0
  9 37  1  0  0  0  0
 10 11  1  0  0  0  0
 11 12  2  0  0  0  0
 11 13  1  0  0  0  0
 13 17  1  0  0  0  0
 13 14  2  0  0  0  0
 14 15  1  0  0  0  0
 14 38  1  0  0  0  0
 15 16  2  0  0  0  0
 15 39  1  0  0  0  0
 16 17  1  0  0  0  0
 16 40  1  0  0  0  0
 18 19  1  0  0  0  0
 19 24  2  0  0  0  0
 19 20  1  0  0  0  0
 20 21  2  0  0  0  0
 20 41  1  0  0  0  0
 21 22  1  0  0  0  0
 21 42  1  0  0  0  0
 22 23  2  0  0  0  0
 22 43  1  0  0  0  0
 23 24  1  0  0  0  0
 23 44  1  0  0  0  0
M  CHG  1  10  -1
M  END
> <s_m_source_file>
AV-unprocessed.smi

> <i_m_source_file_index>
500

> <i_lp_mmshare_version>
43012

> <i_f3d_flags>
0

> <s_epik_input>
W0NIM11bQ0gyXU9bQ0gyXVtDSDJdbihjKGMxMilbY0hdW2NIXVtjSF1bY0hdMiljKG4xKVtDQEhdKFtDSDNdKVtOSF1DKD1PKWMzW2NIXVtjSF1bY0hdbzM=

> <s_epik_cmdline>
J2VwaWtfcHl0aG9uJywgJy1waCcsICc3LjAnLCAnLXRuJywgJzgnLCAnLW1hJywgJzIwMCcsICctbWV0YWxfYmluZGluZycsICctaW1hZScsICc8aW5maWxlLm1hZT4nLCAnLW9tYWUnLCAnPG91dGZpbGUubWFlPic=

> <r_epik_Ionization_Penalty>
7.31223

> <r_epik_Ionization_Penalty_Charging>
6.43826

> <r_epik_Ionization_Penalty_Neutral>
0.873973

> <r_epik_State_Penalty>
6.5378

> <r_epik_Charging_Adjusted_Penalty>
12.9761

> <i_epik_Tot_Q>
-1

> <i_epik_Tot_abs_Q>
1

> <r_epik_Metal_State_Penalty>
2.55818

> <b_epik_Metal_Only>
1

> <s_lp_Force_Field>
OPLS_2005

> <r_lp_Energy>
16.2081

> <b_lp_Chiralities_Consistent>
1

> <s_lp_Variant>
AV-unprocessed.smi:500-6

> <Gold.Version>
5.8.1

> <Gold.Id.Protein>
6NUR|6NUR_protein|mol2

> <Gold.PLP.Fitness>
55.7957

> <Gold.PLP.PLP>
-49.3896

> <Gold.PLP.part.hbond>
-3.8300

> <Gold.PLP.part.metal>
0.0000

> <Gold.PLP.part.buried>
-5.9818

> <Gold.PLP.part.nonpolar>
-41.2528

> <Gold.PLP.part.repulsive>
0.1392

> <Gold.PLP.ligand.clash>
0.0000

> <Gold.PLP.ligand.torsion>
0.8838

> <Gold.PLP.Chemscore.Hbond>
2.6560

> <Gold.PLP.Chemscore.CHOScore>
0.0000

> <Gold.PLP.Chemscore.Metal>
0.0000

> <Gold.Chemscore.Hbonds>
donor molecule, donor type, donor heavy atom, donor atom, acceptor molecule, acceptor atom, score
      P1  H  6896  6909       L1    12  1.00
      P1  H  6931  6943       L1    17  1.00
      P1  H  6934  6947       L1    17  0.66

> <Gold.PLP.Chemscore.Internal.Correction>
0.2057

> <Gold.Rescore>
     Score         DG    S(hbond)    S(metal)    S(lipo)     H(rot)  DE(clash)    DE(int)     intcor
     21.19     -22.07       2.02        0.00     124.28       1.84       0.06       0.82       ----

> <Gold.Chemscore.Fitness>
21.1892

> <Gold.Chemscore.DG>
-22.0659

> <Gold.Chemscore.ZeroCoef>
-5.4800

> <Gold.Chemscore.Hbond>
2.0212

> <Gold.Chemscore.Metal>
0.0000

> <Gold.Chemscore.Lipo>
124.2827

> <Gold.Chemscore.Internal_Hbond>
0.0000

> <Gold.Chemscore.DEClash>
0.0580

> <Gold.Chemscore.DEInternal>
0.8187

> <Gold.Chemscore.Rot>
1.8382

> <Gold.Chemscore.Internal.Correction>
   9.000000E+99

> <Gold.Chemscore.Hbonds>
donor molecule, donor type, donor heavy atom, donor atom, acceptor molecule, acceptor atom, score
      P1  H  6896  6909       L1    12  0.35
      P1  H  6931  6943       L1    17  0.71
      P1  H  6934  6947       L1    17  0.38

> <Gold.Chemscore.Hbond.Weighted>
-6.7507

> <Gold.Chemscore.Metal.Weighted>
-0.0000

> <Gold.Chemscore.Lipo.Weighted>
-14.5411

> <Gold.Chemscore.Internal_Hbond.Weighted>
0.0000

> <Gold.Chemscore.DEClash.Weighted>
0.0580

> <Gold.Chemscore.DEInternal.Weighted>
0.8187

> <Gold.Chemscore.Rot.Weighted>
4.7059

> <Gold.Chemscore.Internal.Correction.Weighted>
   9.000000E+99

> <Gold.Protein.RotatedTorsions>
[ 6907 6896 6895 6894 ] final   29.03 input  -60.11 | X-H torsion
[ 7974 7965 7964 7962 ] final  -11.98 input  175.53 | X-H torsion
[ 8008 7997 7996 7995 ] final  136.15 input   59.86 | X-H torsion
[ 10167 10162 10161 10158 ] final  125.21 input  -65.29 | X-H torsion
[ 10718 10713 10712 10709 ] final  172.08 input   66.30 | X-H torsion
[ 10763 10752 10751 10750 ] final   -4.78 input  -60.55 | X-H torsion
[ 11005 11000 10999 10996 ] final  -29.56 input  -57.11 | X-H torsion

> <Gold.Protein.ActiveResidues>
 VAL166  LYS551  ARG553  GLY616  TRP617  ASP618  TYR619  PRO620  LYS621  CYS622 
 ASP623  PHE694  ASN695  SER759  ASP760  ASP761  ALA762  ILE779  LEU786  VAL792 
 PHE793  MET794  SER795  GLU796  ALA797  LYS798  CYS799  TRP800  GLU811  SER814 

> <Gold.Protein.RotatedAtoms>
  152.0256  134.9797  160.0571 H   0  0  0  0  0  0  0  0  0  0  0  0  # atno 6907 bound_to 6896
  152.1294  133.4394  159.4722 H   0  0  0  0  0  0  0  0  0  0  0  0  # atno 6908 bound_to 6896
  150.6855  134.2357  159.4495 H   0  0  0  0  0  0  0  0  0  0  0  0  # atno 6909 bound_to 6896
  146.2168  140.2990  142.8374 H   0  0  0  0  0  0  0  0  0  0  0  0  # atno 7974 bound_to 7965
  156.3004  140.2452  156.3698 H   0  0  0  0  0  0  0  0  0  0  0  0  # atno 8008 bound_to 7997
  154.8799  140.0413  157.1796 H   0  0  0  0  0  0  0  0  0  0  0  0  # atno 8009 bound_to 7997
  154.8706  140.2934  155.5487 H   0  0  0  0  0  0  0  0  0  0  0  0  # atno 8010 bound_to 7997
  139.5698  144.6932  151.3809 H   0  0  0  0  0  0  0  0  0  0  0  0  # atno 10167 bound_to 10162
  156.9842  131.0128  151.2873 H   0  0  0  0  0  0  0  0  0  0  0  0  # atno 10718 bound_to 10713
  153.3895  135.7001  153.6505 H   0  0  0  0  0  0  0  0  0  0  0  0  # atno 10763 bound_to 10752
  153.5083  135.3637  155.2575 H   0  0  0  0  0  0  0  0  0  0  0  0  # atno 10764 bound_to 10752
  154.8701  135.4129  154.3209 H   0  0  0  0  0  0  0  0  0  0  0  0  # atno 10765 bound_to 10752
  140.9307  133.7340  156.0932 H   0  0  0  0  0  0  0  0  0  0  0  0  # atno 11005 bound_to 11000
  144.9071  140.7713  143.5831 LP  0  0  0  0  0  0  0  0  0  0  0  0  # atno 17320 bound_to 7965
  145.2919  139.1880  143.4736 LP  0  0  0  0  0  0  0  0  0  0  0  0  # atno 17321 bound_to 7965
  140.6982  143.7696  150.7361 LP  0  0  0  0  0  0  0  0  0  0  0  0  # atno 17342 bound_to 10162
  140.1199  143.4622  152.2319 LP  0  0  0  0  0  0  0  0  0  0  0  0  # atno 17343 bound_to 10162
  157.5504  130.8179  149.8138 LP  0  0  0  0  0  0  0  0  0  0  0  0  # atno 17370 bound_to 10713
  156.0232  130.3788  150.1899 LP  0  0  0  0  0  0  0  0  0  0  0  0  # atno 17371 bound_to 10713
  140.7866  134.3664  157.5475 LP  0  0  0  0  0  0  0  0  0  0  0  0  # atno 17394 bound_to 11000
  139.8795  134.9115  156.3038 LP  0  0  0  0  0  0  0  0  0  0  0  0  # atno 17395 bound_to 11000

$$$$
