AV-unprocessed.smi:1796|AV-procd|sdf|7254|dock10
  -GOLD-   22720 8503D 1   1.00000     0.00000
 Structure written by MMmdl.
 42 43  0  0  0  0  0  0  0  0  1 V2000
  151.0136  137.5517  154.3283 C   0  0  0  0  0  0  0  0  0  0  0  0
  150.6657  139.0093  154.6389 C   0  0  0  0  0  0  0  0  0  0  0  0
  151.5863  139.8252  154.6890 O   0  0  0  0  0  0  0  0  0  0  0  0
  149.3717  139.3511  154.8497 N   0  0  0  0  0  0  0  0  0  0  0  0
  148.8801  140.7157  155.0818 C   0  0  0  0  0  0  0  0  0  0  0  0
  148.0955  141.1749  153.8402 C   0  0  0  0  0  0  0  0  0  0  0  0
  146.9513  140.1945  153.5191 C   0  0  0  0  0  0  0  0  0  0  0  0
  147.4517  138.7317  153.4538 C   0  0  2  0  0  0  0  0  0  0  0  0
  146.2908  137.7438  153.2875 C   0  0  0  0  0  0  0  0  0  0  0  0
  145.2854  137.8441  153.9920 O   0  0  0  0  0  0  0  0  0  0  0  0
  146.4574  136.7754  152.3721 N   0  0  0  0  0  0  0  0  0  0  0  0
  145.5383  135.6637  152.1315 C   0  0  1  0  0  0  0  0  0  0  0  0
  144.1026  136.2029  152.0740 C   0  0  0  0  0  0  0  0  0  0  0  0
  145.9116  134.9170  150.8325 C   0  0  0  0  0  0  0  0  0  0  0  0
  145.1701  133.6786  150.6646 N   0  0  0  0  0  0  0  0  0  0  0  0
  145.6613  132.3946  150.5563 C   0  0  0  0  0  0  0  0  0  0  0  0
  144.5916  131.5631  150.3884 C   0  0  0  0  0  0  0  0  0  0  0  0
  143.4730  132.4423  150.4111 C   0  0  0  0  0  0  0  0  0  0  0  0
  143.8217  133.7071  150.5821 N   0  0  0  0  0  0  0  0  0  0  0  0
  148.2679  138.3916  154.7215 C   0  0  0  0  0  0  0  0  0  0  0  0
  150.6891  136.8951  155.1360 H   0  0  0  0  0  0  0  0  0  0  0  0
  152.0912  137.4295  154.2134 H   0  0  0  0  0  0  0  0  0  0  0  0
  150.5413  137.2320  153.3991 H   0  0  0  0  0  0  0  0  0  0  0  0
  148.2263  140.7162  155.9552 H   0  0  0  0  0  0  0  0  0  0  0  0
  149.6675  141.4325  155.3096 H   0  0  0  0  0  0  0  0  0  0  0  0
  147.6946  142.1762  153.9987 H   0  0  0  0  0  0  0  0  0  0  0  0
  148.7711  141.2423  152.9863 H   0  0  0  0  0  0  0  0  0  0  0  0
  146.1852  140.2929  154.2900 H   0  0  0  0  0  0  0  0  0  0  0  0
  146.4775  140.4749  152.5777 H   0  0  0  0  0  0  0  0  0  0  0  0
  148.1112  138.6379  152.5886 H   0  0  0  0  0  0  0  0  0  0  0  0
  147.3164  136.7745  151.8412 H   0  0  0  0  0  0  0  0  0  0  0  0
  145.5827  134.9588  152.9637 H   0  0  0  0  0  0  0  0  0  0  0  0
  143.3870  135.3949  151.9190 H   0  0  0  0  0  0  0  0  0  0  0  0
  143.9774  136.9170  151.2593 H   0  0  0  0  0  0  0  0  0  0  0  0
  143.8337  136.7056  153.0036 H   0  0  0  0  0  0  0  0  0  0  0  0
  145.7032  135.5472  149.9672 H   0  0  0  0  0  0  0  0  0  0  0  0
  146.9813  134.7010  150.8078 H   0  0  0  0  0  0  0  0  0  0  0  0
  146.7199  132.1843  150.5989 H   0  0  0  0  0  0  0  0  0  0  0  0
  144.6061  130.4905  150.2648 H   0  0  0  0  0  0  0  0  0  0  0  0
  142.4254  132.2008  150.3091 H   0  0  0  0  0  0  0  0  0  0  0  0
  148.6173  137.3585  154.6783 H   0  0  0  0  0  0  0  0  0  0  0  0
  147.6393  138.4502  155.6119 H   0  0  0  0  0  0  0  0  0  0  0  0
  1  2  1  0  0  0  0
  1 21  1  0  0  0  0
  1 22  1  0  0  0  0
  1 23  1  0  0  0  0
  2  3  2  0  0  0  0
  2  4  1  0  0  0  0
  4 20  1  0  0  0  0
  4  5  1  0  0  0  0
  5  6  1  0  0  0  0
  5 24  1  0  0  0  0
  5 25  1  0  0  0  0
  6  7  1  0  0  0  0
  6 26  1  0  0  0  0
  6 27  1  0  0  0  0
  7  8  1  0  0  0  0
  7 28  1  0  0  0  0
  7 29  1  0  0  0  0
  8  9  1  0  0  0  0
  8 20  1  0  0  0  0
  8 30  1  0  0  0  0
  9 10  2  0  0  0  0
  9 11  1  0  0  0  0
 11 12  1  0  0  0  0
 11 31  1  0  0  0  0
 12 13  1  0  0  0  0
 12 14  1  0  0  0  0
 12 32  1  0  0  0  0
 13 33  1  0  0  0  0
 13 34  1  0  0  0  0
 13 35  1  0  0  0  0
 14 15  1  0  0  0  0
 14 36  1  0  0  0  0
 14 37  1  0  0  0  0
 15 19  1  0  0  0  0
 15 16  1  0  0  0  0
 16 17  2  0  0  0  0
 16 38  1  0  0  0  0
 17 18  1  0  0  0  0
 17 39  1  0  0  0  0
 18 19  2  0  0  0  0
 18 40  1  0  0  0  0
 20 41  1  0  0  0  0
 20 42  1  0  0  0  0
M  END
> <s_m_source_file>
AV-unprocessed.smi

> <i_m_source_file_index>
1796

> <i_lp_mmshare_version>
43012

> <i_f3d_flags>
0

> <s_epik_input>
W0NIM11DKD1PKU4xW0NIMl1bQ0gyXVtDSDJdW0NASF0oW0NIMl0xKUMoPU8pW05IXVtDQEhdKFtDSDNdKVtDSDJdbjJbY0hdW2NIXVtjSF1uMg==

> <s_epik_cmdline>
J2VwaWtfcHl0aG9uJywgJy1waCcsICc3LjAnLCAnLXRuJywgJzgnLCAnLW1hJywgJzIwMCcsICctbWV0YWxfYmluZGluZycsICctaW1hZScsICc8aW5maWxlLm1hZT4nLCAnLW9tYWUnLCAnPG91dGZpbGUubWFlPic=

> <r_lp_tautomer_probability>
1

> <r_epik_Ionization_Penalty>
0.000315051

> <r_epik_Ionization_Penalty_Charging>
0

> <r_epik_Ionization_Penalty_Neutral>
0.000315051

> <r_epik_State_Penalty>
-0

> <r_epik_Charging_Adjusted_Penalty>
0

> <i_epik_Tot_Q>
0

> <i_epik_Tot_abs_Q>
0

> <r_epik_Metal_State_Penalty>
-0

> <b_epik_Metal_Only>
0

> <s_lp_Force_Field>
OPLS_2005

> <r_lp_Energy>
22.8322

> <b_lp_Chiralities_Consistent>
1

> <s_lp_Variant>
AV-unprocessed.smi:1796-4

> <Gold.Version>
5.8.1

> <Gold.Id.Protein>
6NUR|6NUR_protein|mol2

> <Gold.PLP.Fitness>
47.3740

> <Gold.PLP.PLP>
-36.8961

> <Gold.PLP.part.hbond>
-1.9895

> <Gold.PLP.part.metal>
0.0000

> <Gold.PLP.part.buried>
-5.6137

> <Gold.PLP.part.nonpolar>
-31.4542

> <Gold.PLP.part.repulsive>
0.4461

> <Gold.PLP.ligand.clash>
0.0000

> <Gold.PLP.ligand.torsion>
0.5805

> <Gold.PLP.Chemscore.Hbond>
1.9760

> <Gold.PLP.Chemscore.CHOScore>
1.8923

> <Gold.PLP.Chemscore.Metal>
0.0000

> <Gold.Chemscore.Hbonds>
donor molecule, donor type, donor heavy atom, donor atom, acceptor molecule, acceptor atom, score
      L1  H    11    31       P1  7948  0.90
      P1  H  7989  7998       L1     3  1.00
      L1  C    16    38       P1 10747  0.74
      L1  C    18    40       P1 10186  0.31
      L1  C    18    40       P1 10952  0.95

> <Gold.PLP.Chemscore.Internal.Correction>
0.0340

> <Gold.Rescore>
     Score         DG    S(hbond)    S(metal)    S(lipo)     H(rot)  DE(clash)    DE(int)     intcor
     14.33     -17.42       1.91        0.00      83.27       1.63       0.05       3.04       ----

> <Gold.Chemscore.Fitness>
14.3331

> <Gold.Chemscore.DG>
-17.4243

> <Gold.Chemscore.ZeroCoef>
-5.4800

> <Gold.Chemscore.Hbond>
1.9113

> <Gold.Chemscore.Metal>
0.0000

> <Gold.Chemscore.Lipo>
83.2708

> <Gold.Chemscore.Internal_Hbond>
0.0000

> <Gold.Chemscore.DEClash>
0.0518

> <Gold.Chemscore.DEInternal>
3.0393

> <Gold.Chemscore.Rot>
1.6336

> <Gold.Chemscore.Internal.Correction>
   9.000000E+99

> <Gold.Chemscore.Hbonds>
donor molecule, donor type, donor heavy atom, donor atom, acceptor molecule, acceptor atom, score
      L1  H    11    31       P1  7948  0.88
      P1  H  7989  7998       L1     3  0.89

> <Gold.Chemscore.Hbond.Weighted>
-6.3837

> <Gold.Chemscore.Metal.Weighted>
-0.0000

> <Gold.Chemscore.Lipo.Weighted>
-9.7427

> <Gold.Chemscore.Internal_Hbond.Weighted>
0.0000

> <Gold.Chemscore.DEClash.Weighted>
0.0518

> <Gold.Chemscore.DEInternal.Weighted>
3.0393

> <Gold.Chemscore.Rot.Weighted>
4.1821

> <Gold.Chemscore.Internal.Correction.Weighted>
   9.000000E+99

> <Gold.Protein.RotatedTorsions>
[ 6907 6896 6895 6894 ] final   21.80 input  -60.11 | X-H torsion
[ 7974 7965 7964 7962 ] final  -38.02 input  175.53 | X-H torsion
[ 8008 7997 7996 7995 ] final -121.13 input   59.86 | X-H torsion
[ 10167 10162 10161 10158 ] final  145.63 input  -65.29 | X-H torsion
[ 10718 10713 10712 10709 ] final  -75.90 input   66.30 | X-H torsion
[ 10763 10752 10751 10750 ] final   25.39 input  -60.55 | X-H torsion
[ 11005 11000 10999 10996 ] final -142.68 input  -57.11 | X-H torsion

> <Gold.Protein.ActiveResidues>
 VAL166  LYS551  ARG553  GLY616  TRP617  ASP618  TYR619  PRO620  LYS621  CYS622 
 ASP623  PHE694  ASN695  SER759  ASP760  ASP761  ALA762  ILE779  LEU786  VAL792 
 PHE793  MET794  SER795  GLU796  ALA797  LYS798  CYS799  TRP800  GLU811  SER814 

> <Gold.Protein.RotatedAtoms>
  151.9174  135.0313  160.0519 H   0  0  0  0  0  0  0  0  0  0  0  0  # atno 6907 bound_to 6896
  152.2228  133.4992  159.5180 H   0  0  0  0  0  0  0  0  0  0  0  0  # atno 6908 bound_to 6896
  150.7004  134.1236  159.4086 H   0  0  0  0  0  0  0  0  0  0  0  0  # atno 6909 bound_to 6896
  146.0523  140.6463  142.9036 H   0  0  0  0  0  0  0  0  0  0  0  0  # atno 7974 bound_to 7965
  155.1431  140.0402  157.2803 H   0  0  0  0  0  0  0  0  0  0  0  0  # atno 8008 bound_to 7997
  154.6459  140.2558  155.7243 H   0  0  0  0  0  0  0  0  0  0  0  0  # atno 8009 bound_to 7997
  156.2554  140.2846  156.0872 H   0  0  0  0  0  0  0  0  0  0  0  0  # atno 8010 bound_to 7997
  139.4922  144.5888  151.6723 H   0  0  0  0  0  0  0  0  0  0  0  0  # atno 10167 bound_to 10162
  156.0192  130.4452  150.3112 H   0  0  0  0  0  0  0  0  0  0  0  0  # atno 10718 bound_to 10713
  153.0695  135.6584  154.0278 H   0  0  0  0  0  0  0  0  0  0  0  0  # atno 10763 bound_to 10752
  153.9927  135.2944  155.3412 H   0  0  0  0  0  0  0  0  0  0  0  0  # atno 10764 bound_to 10752
  154.7065  135.5223  153.8672 H   0  0  0  0  0  0  0  0  0  0  0  0  # atno 10765 bound_to 10752
  140.8201  134.2642  157.4904 H   0  0  0  0  0  0  0  0  0  0  0  0  # atno 11005 bound_to 11000
  144.7129  140.4106  143.7066 LP  0  0  0  0  0  0  0  0  0  0  0  0  # atno 17320 bound_to 7965
  145.6702  139.1598  143.2758 LP  0  0  0  0  0  0  0  0  0  0  0  0  # atno 17321 bound_to 7965
  140.5510  144.0425  150.6127 LP  0  0  0  0  0  0  0  0  0  0  0  0  # atno 17342 bound_to 10162
  140.3479  143.2980  152.0518 LP  0  0  0  0  0  0  0  0  0  0  0  0  # atno 17343 bound_to 10162
  157.1214  131.0247  151.3007 LP  0  0  0  0  0  0  0  0  0  0  0  0  # atno 17370 bound_to 10713
  157.4625  130.7661  149.7249 LP  0  0  0  0  0  0  0  0  0  0  0  0  # atno 17371 bound_to 10713
  139.8709  134.9530  156.4133 LP  0  0  0  0  0  0  0  0  0  0  0  0  # atno 17394 bound_to 11000
  140.9108  133.7713  155.9789 LP  0  0  0  0  0  0  0  0  0  0  0  0  # atno 17395 bound_to 11000

$$$$
