AV-unprocessed.smi:2083|AV-procd|sdf|8497|dock6
  -GOLD-   2272011203D 1   1.00000     0.00000
 Structure written by MMmdl.
 45 46  0  0  0  0  0  0  0  0  2 V2000
  150.0370  141.9593  157.4438 C   0  0  0  0  0  0  0  0  0  0  0  0
  150.0204  140.9943  156.3083 C   0  0  0  0  0  0  0  0  0  0  0  0
  149.0174  140.4988  155.5235 C   0  0  0  0  0  0  0  0  0  0  0  0
  149.7041  139.6221  154.6425 C   0  0  0  0  0  0  0  0  0  0  0  0
  149.0019  138.8921  153.6500 N   0  0  0  0  0  0  0  0  0  0  0  0
  147.6709  138.8045  153.4859 C   0  0  0  0  0  0  0  0  0  0  0  0
  146.8302  139.3593  154.1938 O   0  0  0  0  0  0  0  0  0  0  0  0
  147.3591  138.0233  152.4409 N   0  0  0  0  0  0  0  0  0  0  0  0
  146.0070  137.7483  151.9597 C   0  0  0  0  0  0  0  0  0  0  0  0
  145.3925  136.4639  152.5825 C   0  0  1  0  0  0  0  0  0  0  0  0
  143.8511  136.4878  152.4776 C   0  0  0  0  0  0  0  0  0  0  0  0
  145.9132  135.1827  151.9983 N   0  3  2  0  0  0  0  0  0  0  0  0
  145.1808  134.8003  150.7569 C   0  0  0  0  0  0  0  0  0  0  0  0
  145.8483  133.6131  150.0482 C   0  0  0  0  0  0  0  0  0  0  0  0
  145.9354  132.4051  150.9846 C   0  0  0  0  0  0  0  0  0  0  0  0
  146.6730  132.7962  152.2732 C   0  0  2  0  0  0  0  0  0  0  0  0
  146.7608  131.6125  153.2472 C   0  0  0  0  0  0  0  0  0  0  0  0
  146.0056  134.0216  152.9331 C   0  0  0  0  0  0  0  0  0  0  0  0
  151.0087  139.5872  154.8664 N   0  0  0  0  0  0  0  0  0  0  0  0
  151.2180  140.4663  155.9359 O   0  0  0  0  0  0  0  0  0  0  0  0
  149.0898  142.4947  157.5135 H   0  0  0  0  0  0  0  0  0  0  0  0
  150.8317  142.6945  157.3166 H   0  0  0  0  0  0  0  0  0  0  0  0
  150.2027  141.4407  158.3881 H   0  0  0  0  0  0  0  0  0  0  0  0
  147.9633  140.7276  155.5762 H   0  0  0  0  0  0  0  0  0  0  0  0
  149.5762  138.3877  152.9912 H   0  0  0  0  0  0  0  0  0  0  0  0
  148.1179  137.6066  151.9212 H   0  0  0  0  0  0  0  0  0  0  0  0
  145.3535  138.6058  152.1304 H   0  0  0  0  0  0  0  0  0  0  0  0
  146.1051  137.6410  150.8796 H   0  0  0  0  0  0  0  0  0  0  0  0
  145.6619  136.4745  153.6401 H   0  0  0  0  0  0  0  0  0  0  0  0
  143.4241  137.3471  152.9940 H   0  0  0  0  0  0  0  0  0  0  0  0
  143.3857  135.6092  152.9208 H   0  0  0  0  0  0  0  0  0  0  0  0
  143.5308  136.5368  151.4362 H   0  0  0  0  0  0  0  0  0  0  0  0
  144.1494  134.5483  151.0084 H   0  0  0  0  0  0  0  0  0  0  0  0
  145.1319  135.6344  150.0589 H   0  0  0  0  0  0  0  0  0  0  0  0
  145.2843  133.3485  149.1531 H   0  0  0  0  0  0  0  0  0  0  0  0
  146.8469  133.8963  149.7133 H   0  0  0  0  0  0  0  0  0  0  0  0
  144.9317  132.0481  151.2209 H   0  0  0  0  0  0  0  0  0  0  0  0
  146.4508  131.5837  150.4855 H   0  0  0  0  0  0  0  0  0  0  0  0
  147.6934  133.0748  152.0047 H   0  0  0  0  0  0  0  0  0  0  0  0
  145.7700  131.2782  153.5566 H   0  0  0  0  0  0  0  0  0  0  0  0
  147.3166  131.8818  154.1456 H   0  0  0  0  0  0  0  0  0  0  0  0
  147.2696  130.7638  152.7890 H   0  0  0  0  0  0  0  0  0  0  0  0
  146.6104  134.2793  153.8018 H   0  0  0  0  0  0  0  0  0  0  0  0
  145.0084  133.7644  153.2939 H   0  0  0  0  0  0  0  0  0  0  0  0
  146.8657  135.3777  151.7244 H   0  0  0  0  0  0  0  0  0  0  0  0
  1  2  1  0  0  0  0
  1 21  1  0  0  0  0
  1 22  1  0  0  0  0
  1 23  1  0  0  0  0
  2 20  1  0  0  0  0
  2  3  2  0  0  0  0
  3  4  1  0  0  0  0
  3 24  1  0  0  0  0
  4  5  1  0  0  0  0
  4 19  2  0  0  0  0
  5  6  1  0  0  0  0
  5 25  1  0  0  0  0
  6  7  2  0  0  0  0
  6  8  1  0  0  0  0
  8  9  1  0  0  0  0
  8 26  1  0  0  0  0
  9 10  1  0  0  0  0
  9 27  1  0  0  0  0
  9 28  1  0  0  0  0
 10 11  1  0  0  0  0
 10 12  1  0  0  0  0
 10 29  1  0  0  0  0
 11 30  1  0  0  0  0
 11 31  1  0  0  0  0
 11 32  1  0  0  0  0
 12 18  1  0  0  0  0
 12 13  1  0  0  0  0
 12 45  1  0  0  0  0
 13 14  1  0  0  0  0
 13 33  1  0  0  0  0
 13 34  1  0  0  0  0
 14 15  1  0  0  0  0
 14 35  1  0  0  0  0
 14 36  1  0  0  0  0
 15 16  1  0  0  0  0
 15 37  1  0  0  0  0
 15 38  1  0  0  0  0
 16 17  1  0  0  0  0
 16 18  1  0  0  0  0
 16 39  1  0  0  0  0
 17 40  1  0  0  0  0
 17 41  1  0  0  0  0
 17 42  1  0  0  0  0
 18 43  1  0  0  0  0
 18 44  1  0  0  0  0
 19 20  1  0  0  0  0
M  CHG  1  12   1
M  END
> <s_m_source_file>
AV-unprocessed.smi

> <i_m_source_file_index>
2083

> <i_lp_mmshare_version>
43012

> <i_f3d_flags>
0

> <s_epik_input>
W0NIM11jMVtjSF1jKG5vMSlbTkhdQyg9TylbTkhdW0NIMl1bQ0BIXShbQ0gzXSlOMltDSDJdW0NIMl1bQ0gyXVtDQEBIXShbQ0gzXSlbQ0gyXTI=

> <s_epik_cmdline>
J2VwaWtfcHl0aG9uJywgJy1waCcsICc3LjAnLCAnLXRuJywgJzgnLCAnLW1hJywgJzIwMCcsICctbWV0YWxfYmluZGluZycsICctaW1hZScsICc8aW5maWxlLm1hZT4nLCAnLW9tYWUnLCAnPG91dGZpbGUubWFlPic=

> <r_epik_Ionization_Penalty>
0.00216453

> <r_epik_Ionization_Penalty_Charging>
0.00212879

> <r_epik_Ionization_Penalty_Neutral>
3.57418e-05

> <r_epik_State_Penalty>
0.00146033

> <r_epik_Charging_Adjusted_Penalty>
0.00358912

> <i_epik_Tot_Q>
1

> <i_epik_Tot_abs_Q>
1

> <r_epik_Metal_State_Penalty>
0.0215827

> <b_epik_Metal_Only>
0

> <s_lp_Force_Field>
OPLS_2005

> <r_lp_Energy>
20.5585

> <b_lp_Chiralities_Consistent>
1

> <s_lp_Variant>
AV-unprocessed.smi:2083-8

> <Gold.Version>
5.8.1

> <Gold.Id.Protein>
6NUR|6NUR_protein|mol2

> <Gold.PLP.Fitness>
40.8949

> <Gold.PLP.PLP>
-31.7247

> <Gold.PLP.part.hbond>
-5.7270

> <Gold.PLP.part.metal>
0.0000

> <Gold.PLP.part.buried>
-2.0154

> <Gold.PLP.part.nonpolar>
-25.0927

> <Gold.PLP.part.repulsive>
0.3662

> <Gold.PLP.ligand.clash>
0.0000

> <Gold.PLP.ligand.torsion>
0.9737

> <Gold.PLP.Chemscore.Hbond>
3.6871

> <Gold.PLP.Chemscore.CHOScore>
0.0000

> <Gold.PLP.Chemscore.Metal>
0.0000

> <Gold.Chemscore.Hbonds>
donor molecule, donor type, donor heavy atom, donor atom, acceptor molecule, acceptor atom, score
      L1  H     8    26       P1  7948  0.83
      L1  H    12    45       P1  7948  1.04
      P1  H  7989  7998       L1    19  0.70

> <Gold.PLP.Chemscore.Internal.Correction>
0.0563

> <Gold.Rescore>
     Score         DG    S(hbond)    S(metal)    S(lipo)     H(rot)  DE(clash)    DE(int)     intcor
     14.73     -17.79       2.72        0.00      61.46       1.55       1.04       2.02       ----

> <Gold.Chemscore.Fitness>
14.7329

> <Gold.Chemscore.DG>
-17.7925

> <Gold.Chemscore.ZeroCoef>
-5.4800

> <Gold.Chemscore.Hbond>
2.7193

> <Gold.Chemscore.Metal>
0.0000

> <Gold.Chemscore.Lipo>
61.4649

> <Gold.Chemscore.Internal_Hbond>
0.0000

> <Gold.Chemscore.DEClash>
1.0414

> <Gold.Chemscore.DEInternal>
2.0183

> <Gold.Chemscore.Rot>
1.5474

> <Gold.Chemscore.Internal.Correction>
   9.000000E+99

> <Gold.Chemscore.Hbonds>
donor molecule, donor type, donor heavy atom, donor atom, acceptor molecule, acceptor atom, score
      L1  H     5    25       P1  7948  0.01
      L1  H     8    26       P1  7948  0.81
      L1  H    12    45       P1  7948  0.52
      P1  H  7989  7998       L1    19  0.02

> <Gold.Chemscore.Hbond.Weighted>
-9.0824

> <Gold.Chemscore.Metal.Weighted>
-0.0000

> <Gold.Chemscore.Lipo.Weighted>
-7.1914

> <Gold.Chemscore.Internal_Hbond.Weighted>
0.0000

> <Gold.Chemscore.DEClash.Weighted>
1.0414

> <Gold.Chemscore.DEInternal.Weighted>
2.0183

> <Gold.Chemscore.Rot.Weighted>
3.9612

> <Gold.Chemscore.Internal.Correction.Weighted>
   9.000000E+99

> <Gold.Protein.RotatedTorsions>
[ 6907 6896 6895 6894 ] final  143.16 input  -60.11 | X-H torsion
[ 7974 7965 7964 7962 ] final -142.94 input  175.53 | X-H torsion
[ 8008 7997 7996 7995 ] final   99.23 input   59.86 | X-H torsion
[ 10167 10162 10161 10158 ] final    6.40 input  -65.29 | X-H torsion
[ 10718 10713 10712 10709 ] final -164.48 input   66.30 | X-H torsion
[ 10763 10752 10751 10750 ] final  146.15 input  -60.55 | X-H torsion
[ 11005 11000 10999 10996 ] final -117.77 input  -57.11 | X-H torsion

> <Gold.Protein.ActiveResidues>
 VAL166  LYS551  ARG553  GLY616  TRP617  ASP618  TYR619  PRO620  LYS621  CYS622 
 ASP623  PHE694  ASN695  SER759  ASP760  ASP761  ALA762  ILE779  LEU786  VAL792 
 PHE793  MET794  SER795  GLU796  ALA797  LYS798  CYS799  TRP800  GLU811  SER814 

> <Gold.Protein.RotatedAtoms>
  152.2097  133.4902  159.5103 H   0  0  0  0  0  0  0  0  0  0  0  0  # atno 6907 bound_to 6896
  150.6987  134.1483  159.4140 H   0  0  0  0  0  0  0  0  0  0  0  0  # atno 6908 bound_to 6896
  151.9402  135.0216  160.0586 H   0  0  0  0  0  0  0  0  0  0  0  0  # atno 6909 bound_to 6896
  144.8406  140.5897  143.5454 H   0  0  0  0  0  0  0  0  0  0  0  0  # atno 7974 bound_to 7965
  156.1084  140.3232  155.8039 H   0  0  0  0  0  0  0  0  0  0  0  0  # atno 8008 bound_to 7997
  155.4715  140.0547  157.2996 H   0  0  0  0  0  0  0  0  0  0  0  0  # atno 8009 bound_to 7997
  154.4743  140.2025  155.9930 H   0  0  0  0  0  0  0  0  0  0  0  0  # atno 8010 bound_to 7997
  140.6429  143.7730  150.7455 H   0  0  0  0  0  0  0  0  0  0  0  0  # atno 10167 bound_to 10162
  156.6396  130.8963  151.2993 H   0  0  0  0  0  0  0  0  0  0  0  0  # atno 10718 bound_to 10713
  154.0172  135.2909  155.3385 H   0  0  0  0  0  0  0  0  0  0  0  0  # atno 10763 bound_to 10752
  154.7068  135.5166  153.8610 H   0  0  0  0  0  0  0  0  0  0  0  0  # atno 10764 bound_to 10752
  153.0697  135.6643  154.0397 H   0  0  0  0  0  0  0  0  0  0  0  0  # atno 10765 bound_to 10752
  141.0332  133.9950  157.3111 H   0  0  0  0  0  0  0  0  0  0  0  0  # atno 11005 bound_to 11000
  145.4701  139.1504  143.3819 LP  0  0  0  0  0  0  0  0  0  0  0  0  # atno 17320 bound_to 7965
  146.2699  140.4834  142.8818 LP  0  0  0  0  0  0  0  0  0  0  0  0  # atno 17321 bound_to 7965
  140.1365  143.4479  152.2221 LP  0  0  0  0  0  0  0  0  0  0  0  0  # atno 17342 bound_to 10162
  139.5639  144.7423  151.4077 LP  0  0  0  0  0  0  0  0  0  0  0  0  # atno 17343 bound_to 10162
  157.7175  130.9516  150.1310 LP  0  0  0  0  0  0  0  0  0  0  0  0  # atno 17370 bound_to 10713
  156.2169  130.3671  149.8602 LP  0  0  0  0  0  0  0  0  0  0  0  0  # atno 17371 bound_to 10713
  139.9222  135.0201  156.8106 LP  0  0  0  0  0  0  0  0  0  0  0  0  # atno 17394 bound_to 11000
  140.6370  133.9853  155.7689 LP  0  0  0  0  0  0  0  0  0  0  0  0  # atno 17395 bound_to 11000

$$$$
