AV-unprocessed.smi:517|AV-procd|sdf|2789|dock1
  -GOLD-   2262023263D 1   1.00000     0.00000
 Structure written by MMmdl.
 35 36  0  0  0  0  0  0  0  0  1 V2000
  148.9387  138.9705  154.1213 C   0  0  0  0  0  0  0  0  0  0  0  0
  150.3165  138.6630  154.7118 C   0  0  0  0  0  0  0  0  0  0  0  0
  151.1050  139.8407  154.6906 O   0  0  0  0  0  0  0  0  0  0  0  0
  151.9049  139.9832  155.8529 C   0  0  0  0  0  0  0  0  0  0  0  0
  151.0255  140.3008  157.0704 C   0  0  0  0  0  0  0  0  0  0  0  0
  151.7853  140.8776  158.1724 N   0  0  0  0  0  0  0  0  0  0  0  0
  152.6418  140.2734  159.0405 C   0  0  0  0  0  0  0  0  0  0  0  0
  152.9768  138.8061  158.9889 C   0  0  1  0  0  0  0  0  0  0  0  0
  151.7259  137.9238  159.1087 C   0  0  0  0  0  0  0  0  0  0  0  0
  153.6551  138.4617  157.7988 O   0  0  0  0  0  0  0  0  0  0  0  0
  153.1603  141.0679  159.9802 N   0  0  0  0  0  0  0  0  0  0  0  0
  152.6217  142.3009  159.6758 C   0  0  0  0  0  0  0  0  0  0  0  0
  152.7983  143.5586  160.2963 C   0  0  0  0  0  0  0  0  0  0  0  0
  152.1355  144.6992  159.7982 C   0  0  0  0  0  0  0  0  0  0  0  0
  151.2872  144.5982  158.6766 C   0  0  0  0  0  0  0  0  0  0  0  0
  151.0954  143.3536  158.0462 C   0  0  0  0  0  0  0  0  0  0  0  0
  151.7603  142.2179  158.5469 C   0  0  0  0  0  0  0  0  0  0  0  0
  148.3182  138.0747  154.0938 H   0  0  0  0  0  0  0  0  0  0  0  0
  149.0244  139.3501  153.1030 H   0  0  0  0  0  0  0  0  0  0  0  0
  148.4155  139.7189  154.7167 H   0  0  0  0  0  0  0  0  0  0  0  0
  150.2083  138.2981  155.7341 H   0  0  0  0  0  0  0  0  0  0  0  0
  150.8026  137.8783  154.1304 H   0  0  0  0  0  0  0  0  0  0  0  0
  152.4664  139.0645  156.0298 H   0  0  0  0  0  0  0  0  0  0  0  0
  152.6309  140.7851  155.7107 H   0  0  0  0  0  0  0  0  0  0  0  0
  150.2514  141.0121  156.7803 H   0  0  0  0  0  0  0  0  0  0  0  0
  150.4892  139.4158  157.4094 H   0  0  0  0  0  0  0  0  0  0  0  0
  153.6377  138.5407  159.8102 H   0  0  0  0  0  0  0  0  0  0  0  0
  151.1837  138.1381  160.0288 H   0  0  0  0  0  0  0  0  0  0  0  0
  151.9895  136.8659  159.1196 H   0  0  0  0  0  0  0  0  0  0  0  0
  151.0398  138.0864  158.2765 H   0  0  0  0  0  0  0  0  0  0  0  0
  154.0653  137.6197  157.9223 H   0  0  0  0  0  0  0  0  0  0  0  0
  153.4463  143.6457  161.1559 H   0  0  0  0  0  0  0  0  0  0  0  0
  152.2789  145.6559  160.2788 H   0  0  0  0  0  0  0  0  0  0  0  0
  150.7834  145.4767  158.3010 H   0  0  0  0  0  0  0  0  0  0  0  0
  150.4466  143.2746  157.1869 H   0  0  0  0  0  0  0  0  0  0  0  0
  1  2  1  0  0  0  0
  1 18  1  0  0  0  0
  1 19  1  0  0  0  0
  1 20  1  0  0  0  0
  2  3  1  0  0  0  0
  2 21  1  0  0  0  0
  2 22  1  0  0  0  0
  3  4  1  0  0  0  0
  4  5  1  0  0  0  0
  4 23  1  0  0  0  0
  4 24  1  0  0  0  0
  5  6  1  0  0  0  0
  5 25  1  0  0  0  0
  5 26  1  0  0  0  0
  6 17  1  0  0  0  0
  6  7  1  0  0  0  0
  7  8  1  0  0  0  0
  7 11  2  0  0  0  0
  8  9  1  0  0  0  0
  8 10  1  0  0  0  0
  8 27  1  0  0  0  0
  9 28  1  0  0  0  0
  9 29  1  0  0  0  0
  9 30  1  0  0  0  0
 10 31  1  0  0  0  0
 11 12  1  0  0  0  0
 12 17  2  0  0  0  0
 12 13  1  0  0  0  0
 13 14  2  0  0  0  0
 13 32  1  0  0  0  0
 14 15  1  0  0  0  0
 14 33  1  0  0  0  0
 15 16  2  0  0  0  0
 15 34  1  0  0  0  0
 16 17  1  0  0  0  0
 16 35  1  0  0  0  0
M  END
> <s_m_source_file>
AV-unprocessed.smi

> <i_m_source_file_index>
517

> <i_lp_mmshare_version>
43012

> <i_f3d_flags>
0

> <s_epik_input>
W0NIM11bQ0gyXU9bQ0gyXVtDSDJdbihjKG4xKVtDQEhdKFtDSDNdKVtPSF0pYyhjMTIpW2NIXVtjSF1bY0hdW2NIXTI=

> <s_epik_cmdline>
J2VwaWtfcHl0aG9uJywgJy1waCcsICc3LjAnLCAnLXRuJywgJzgnLCAnLW1hJywgJzIwMCcsICctbWV0YWxfYmluZGluZycsICctaW1hZScsICc8aW5maWxlLm1hZT4nLCAnLW9tYWUnLCAnPG91dGZpbGUubWFlPic=

> <r_epik_Ionization_Penalty>
0.0517997

> <r_epik_Ionization_Penalty_Charging>
0

> <r_epik_Ionization_Penalty_Neutral>
0.0517997

> <r_epik_State_Penalty>
0.0443961

> <r_epik_Charging_Adjusted_Penalty>
0.0443961

> <i_epik_Tot_Q>
0

> <i_epik_Tot_abs_Q>
0

> <r_epik_Metal_State_Penalty>
4.60999e-05

> <b_epik_Metal_Only>
0

> <s_lp_Force_Field>
OPLS_2005

> <r_lp_Energy>
6.29619

> <b_lp_Chiralities_Consistent>
1

> <s_lp_Variant>
AV-unprocessed.smi:517-2

> <Gold.Version>
5.8.1

> <Gold.Id.Protein>
6NUR|6NUR_protein|mol2

> <Gold.PLP.Fitness>
43.7074

> <Gold.PLP.PLP>
-38.8234

> <Gold.PLP.part.hbond>
-2.0000

> <Gold.PLP.part.metal>
0.0000

> <Gold.PLP.part.buried>
-5.6130

> <Gold.PLP.part.nonpolar>
-31.8772

> <Gold.PLP.part.repulsive>
0.0746

> <Gold.PLP.ligand.clash>
0.0000

> <Gold.PLP.ligand.torsion>
0.5769

> <Gold.PLP.Chemscore.Hbond>
2.0000

> <Gold.PLP.Chemscore.CHOScore>
0.0000

> <Gold.PLP.Chemscore.Metal>
0.0000

> <Gold.Chemscore.Hbonds>
donor molecule, donor type, donor heavy atom, donor atom, acceptor molecule, acceptor atom, score
      P1  H  7989  7998       L1     3  1.00
      P1  H  7997  8009       L1    10  1.00

> <Gold.PLP.Chemscore.Internal.Correction>
0.0377

> <Gold.Rescore>
     Score         DG    S(hbond)    S(metal)    S(lipo)     H(rot)  DE(clash)    DE(int)     intcor
     18.25     -18.96       1.96        0.00     105.20       2.11       0.07       0.64       ----

> <Gold.Chemscore.Fitness>
18.2513

> <Gold.Chemscore.DG>
-18.9572

> <Gold.Chemscore.ZeroCoef>
-5.4800

> <Gold.Chemscore.Hbond>
1.9634

> <Gold.Chemscore.Metal>
0.0000

> <Gold.Chemscore.Lipo>
105.2044

> <Gold.Chemscore.Internal_Hbond>
0.0000

> <Gold.Chemscore.DEClash>
0.0650

> <Gold.Chemscore.DEInternal>
0.6408

> <Gold.Chemscore.Rot>
2.1052

> <Gold.Chemscore.Internal.Correction>
   9.000000E+99

> <Gold.Chemscore.Hbonds>
donor molecule, donor type, donor heavy atom, donor atom, acceptor molecule, acceptor atom, score
      P1  H  7989  7998       L1     3  0.74
      P1  H  7997  8009       L1    10  0.73

> <Gold.Chemscore.Hbond.Weighted>
-6.5577

> <Gold.Chemscore.Metal.Weighted>
-0.0000

> <Gold.Chemscore.Lipo.Weighted>
-12.3089

> <Gold.Chemscore.Internal_Hbond.Weighted>
0.0000

> <Gold.Chemscore.DEClash.Weighted>
0.0650

> <Gold.Chemscore.DEInternal.Weighted>
0.6408

> <Gold.Chemscore.Rot.Weighted>
5.3894

> <Gold.Chemscore.Internal.Correction.Weighted>
   9.000000E+99

> <Gold.Protein.RotatedTorsions>
[ 6907 6896 6895 6894 ] final -143.80 input  -60.11 | X-H torsion
[ 7974 7965 7964 7962 ] final  -81.38 input  175.53 | X-H torsion
[ 8008 7997 7996 7995 ] final  144.56 input   59.86 | X-H torsion
[ 10167 10162 10161 10158 ] final   38.51 input  -65.29 | X-H torsion
[ 10718 10713 10712 10709 ] final  179.39 input   66.30 | X-H torsion
[ 10763 10752 10751 10750 ] final  113.11 input  -60.55 | X-H torsion
[ 11005 11000 10999 10996 ] final   96.22 input  -57.11 | X-H torsion

> <Gold.Protein.ActiveResidues>
 VAL166  LYS551  ARG553  GLY616  TRP617  ASP618  TYR619  PRO620  LYS621  CYS622 
 ASP623  PHE694  ASN695  SER759  ASP760  ASP761  ALA762  ILE779  LEU786  VAL792 
 PHE793  MET794  SER795  GLU796  ALA797  LYS798  CYS799  TRP800  GLU811  SER814 

> <Gold.Protein.RotatedAtoms>
  151.1054  133.5212  159.2607 H   0  0  0  0  0  0  0  0  0  0  0  0  # atno 6907 bound_to 6896
  151.2027  135.0449  159.8889 H   0  0  0  0  0  0  0  0  0  0  0  0  # atno 6908 bound_to 6896
  152.5446  134.0880  159.8318 H   0  0  0  0  0  0  0  0  0  0  0  0  # atno 6909 bound_to 6896
  145.5474  140.9501  143.1518 H   0  0  0  0  0  0  0  0  0  0  0  0  # atno 7974 bound_to 7965
  156.2905  140.2232  156.5073 H   0  0  0  0  0  0  0  0  0  0  0  0  # atno 8008 bound_to 7997
  154.7639  140.0471  157.1018 H   0  0  0  0  0  0  0  0  0  0  0  0  # atno 8009 bound_to 7997
  154.9957  140.3095  155.4891 H   0  0  0  0  0  0  0  0  0  0  0  0  # atno 8010 bound_to 7997
  140.3930  144.1827  150.6131 H   0  0  0  0  0  0  0  0  0  0  0  0  # atno 10167 bound_to 10162
  156.8765  130.9801  151.3067 H   0  0  0  0  0  0  0  0  0  0  0  0  # atno 10718 bound_to 10713
  153.4877  135.3665  155.2475 H   0  0  0  0  0  0  0  0  0  0  0  0  # atno 10763 bound_to 10752
  154.8753  135.3969  154.3625 H   0  0  0  0  0  0  0  0  0  0  0  0  # atno 10764 bound_to 10752
  153.4240  135.7081  153.6341 H   0  0  0  0  0  0  0  0  0  0  0  0  # atno 10765 bound_to 10752
  139.8783  134.8939  156.4126 H   0  0  0  0  0  0  0  0  0  0  0  0  # atno 11005 bound_to 11000
  144.7546  139.7106  143.7259 LP  0  0  0  0  0  0  0  0  0  0  0  0  # atno 17320 bound_to 7965
  146.1940  139.5196  142.9787 LP  0  0  0  0  0  0  0  0  0  0  0  0  # atno 17321 bound_to 7965
  140.4820  143.2376  151.8941 LP  0  0  0  0  0  0  0  0  0  0  0  0  # atno 17342 bound_to 10162
  139.4788  144.5259  151.8736 LP  0  0  0  0  0  0  0  0  0  0  0  0  # atno 17343 bound_to 10162
  157.6165  130.8622  149.9037 LP  0  0  0  0  0  0  0  0  0  0  0  0  # atno 17370 bound_to 10713
  156.0699  130.3686  150.0798 LP  0  0  0  0  0  0  0  0  0  0  0  0  # atno 17371 bound_to 10713
  140.9190  133.7658  155.9883 LP  0  0  0  0  0  0  0  0  0  0  0  0  # atno 17394 bound_to 11000
  140.8461  134.3009  157.5294 LP  0  0  0  0  0  0  0  0  0  0  0  0  # atno 17395 bound_to 11000

$$$$
