AV-unprocessed.smi:2855|AV-procd|sdf|10992|dock9
  -GOLD-   2272015443D 1   1.00000     0.00000
 Structure written by MMmdl.
 46 47  0  0  0  0  0  0  0  0  2 V2000
  156.6024  141.2940  160.8487 C   0  0  0  0  0  0  0  0  0  0  0  0
  155.2079  141.8052  160.4604 C   0  0  1  0  0  0  0  0  0  0  0  0
  154.7487  142.9471  161.3801 C   0  0  0  0  0  0  0  0  0  0  0  0
  153.3538  143.4635  160.9946 C   0  0  0  0  0  0  0  0  0  0  0  0
  153.2781  143.9325  159.5186 C   0  0  2  0  0  0  0  0  0  0  0  0
  151.8637  144.4806  159.1498 C   0  0  0  0  0  0  0  0  0  0  0  0
  151.7678  144.9611  157.6886 C   0  0  0  0  0  0  0  0  0  0  0  0
  151.4144  145.6255  160.0781 C   0  0  0  0  0  0  0  0  0  0  0  0
  153.7755  142.7959  158.5794 C   0  0  2  0  0  0  0  0  0  0  0  0
  152.7983  141.7122  158.5331 N   0  0  0  0  0  0  0  0  0  0  0  0
  152.9386  140.5264  157.9193 C   0  0  0  0  0  0  0  0  0  0  0  0
  153.9683  140.1917  157.3346 O   0  0  0  0  0  0  0  0  0  0  0  0
  151.7423  139.5598  157.9597 C   0  0  0  0  0  0  0  0  0  0  0  0
  151.9644  138.2905  157.2413 N   0  0  0  0  0  0  0  0  0  0  0  0
  152.2201  137.1426  158.0121 C   0  0  0  0  0  0  0  0  0  0  0  0
  152.3952  135.9325  157.4477 C   0  0  0  0  0  0  0  0  0  0  0  0
  152.3145  135.8296  155.9960 C   0  0  0  0  0  0  0  0  0  0  0  0
  152.4699  134.7324  155.4637 O   0  0  0  0  0  0  0  0  0  0  0  0
  152.0650  136.9721  155.2916 N   0  5  0  0  0  0  0  0  0  0  0  0
  151.8852  138.1955  155.8790 C   0  0  0  0  0  0  0  0  0  0  0  0
  151.6430  139.2108  155.2260 O   0  0  0  0  0  0  0  0  0  0  0  0
  155.1662  142.2691  158.9936 C   0  0  0  0  0  0  0  0  0  0  0  0
  157.3533  142.0792  160.7567 H   0  0  0  0  0  0  0  0  0  0  0  0
  156.9073  140.4648  160.2096 H   0  0  0  0  0  0  0  0  0  0  0  0
  156.6168  140.9378  161.8790 H   0  0  0  0  0  0  0  0  0  0  0  0
  154.5117  140.9735  160.5785 H   0  0  0  0  0  0  0  0  0  0  0  0
  154.7358  142.6073  162.4162 H   0  0  0  0  0  0  0  0  0  0  0  0
  155.4643  143.7693  161.3346 H   0  0  0  0  0  0  0  0  0  0  0  0
  152.6135  142.6822  161.1740 H   0  0  0  0  0  0  0  0  0  0  0  0
  153.1054  144.2785  161.6725 H   0  0  0  0  0  0  0  0  0  0  0  0
  153.9814  144.7595  159.4084 H   0  0  0  0  0  0  0  0  0  0  0  0
  151.1385  143.6743  159.2688 H   0  0  0  0  0  0  0  0  0  0  0  0
  152.5257  145.7130  157.4674 H   0  0  0  0  0  0  0  0  0  0  0  0
  150.7924  145.4030  157.4838 H   0  0  0  0  0  0  0  0  0  0  0  0
  151.8873  144.1407  156.9813 H   0  0  0  0  0  0  0  0  0  0  0  0
  152.1396  146.4398  160.0834 H   0  0  0  0  0  0  0  0  0  0  0  0
  151.2738  145.2908  161.1049 H   0  0  0  0  0  0  0  0  0  0  0  0
  150.4578  146.0382  159.7566 H   0  0  0  0  0  0  0  0  0  0  0  0
  153.8808  143.2012  157.5724 H   0  0  0  0  0  0  0  0  0  0  0  0
  151.9110  141.8937  158.9800 H   0  0  0  0  0  0  0  0  0  0  0  0
  151.4848  139.3657  159.0022 H   0  0  0  0  0  0  0  0  0  0  0  0
  150.8758  140.0770  157.5451 H   0  0  0  0  0  0  0  0  0  0  0  0
  152.2543  137.3040  159.0796 H   0  0  0  0  0  0  0  0  0  0  0  0
  152.5860  135.0594  158.0543 H   0  0  0  0  0  0  0  0  0  0  0  0
  155.9019  143.0607  158.8455 H   0  0  0  0  0  0  0  0  0  0  0  0
  155.4689  141.4540  158.3352 H   0  0  0  0  0  0  0  0  0  0  0  0
  1  2  1  0  0  0  0
  1 23  1  0  0  0  0
  1 24  1  0  0  0  0
  1 25  1  0  0  0  0
  2 22  1  0  0  0  0
  2  3  1  0  0  0  0
  2 26  1  0  0  0  0
  3  4  1  0  0  0  0
  3 27  1  0  0  0  0
  3 28  1  0  0  0  0
  4  5  1  0  0  0  0
  4 29  1  0  0  0  0
  4 30  1  0  0  0  0
  5  6  1  0  0  0  0
  5  9  1  0  0  0  0
  5 31  1  0  0  0  0
  6  7  1  0  0  0  0
  6  8  1  0  0  0  0
  6 32  1  0  0  0  0
  7 33  1  0  0  0  0
  7 34  1  0  0  0  0
  7 35  1  0  0  0  0
  8 36  1  0  0  0  0
  8 37  1  0  0  0  0
  8 38  1  0  0  0  0
  9 10  1  0  0  0  0
  9 22  1  0  0  0  0
  9 39  1  0  0  0  0
 10 11  1  0  0  0  0
 10 40  1  0  0  0  0
 11 12  2  0  0  0  0
 11 13  1  0  0  0  0
 13 14  1  0  0  0  0
 13 41  1  0  0  0  0
 13 42  1  0  0  0  0
 14 20  1  0  0  0  0
 14 15  1  0  0  0  0
 15 16  2  0  0  0  0
 15 43  1  0  0  0  0
 16 17  1  0  0  0  0
 16 44  1  0  0  0  0
 17 18  2  0  0  0  0
 17 19  1  0  0  0  0
 19 20  1  0  0  0  0
 20 21  2  0  0  0  0
 22 45  1  0  0  0  0
 22 46  1  0  0  0  0
M  CHG  1  19  -1
M  END
> <s_m_source_file>
AV-unprocessed.smi

> <i_m_source_file_index>
2855

> <i_lp_mmshare_version>
43012

> <i_f3d_flags>
0

> <s_epik_input>
W0NIM11bQ0BASF0xW0NIMl1bQ0gyXVtDQEBIXShbQ0hdKFtDSDNdKVtDSDNdKVtDQEhdKFtDSDJdMSlbTkhdQyg9TylbQ0gyXW4yW2NIXVtjSF1jKD1PKVtuSF1jMj1P

> <s_epik_cmdline>
J2VwaWtfcHl0aG9uJywgJy1waCcsICc3LjAnLCAnLXRuJywgJzgnLCAnLW1hJywgJzIwMCcsICctbWV0YWxfYmluZGluZycsICctaW1hZScsICc8aW5maWxlLm1hZT4nLCAnLW9tYWUnLCAnPG91dGZpbGUubWFlPic=

> <r_lp_tautomer_probability>
0.999537

> <r_epik_Ionization_Penalty>
3.12102

> <r_epik_Ionization_Penalty_Charging>
2.9581e-08

> <r_epik_Ionization_Penalty_Neutral>
3.12102

> <r_epik_State_Penalty>
3.12011

> <r_epik_Charging_Adjusted_Penalty>
3.12011

> <i_epik_Tot_Q>
-1

> <i_epik_Tot_abs_Q>
1

> <r_epik_Metal_State_Penalty>
0.463583

> <b_epik_Metal_Only>
1

> <s_lp_Force_Field>
OPLS_2005

> <r_lp_Energy>
20.8659

> <b_lp_Chiralities_Consistent>
1

> <s_lp_Variant>
AV-unprocessed.smi:2855-16

> <Gold.Version>
5.8.1

> <Gold.Id.Protein>
6NUR|6NUR_protein|mol2

> <Gold.PLP.Fitness>
50.8905

> <Gold.PLP.PLP>
-45.4752

> <Gold.PLP.part.hbond>
-3.0000

> <Gold.PLP.part.metal>
0.0000

> <Gold.PLP.part.buried>
-3.3893

> <Gold.PLP.part.nonpolar>
-37.9344

> <Gold.PLP.part.repulsive>
0.3493

> <Gold.PLP.ligand.clash>
0.0000

> <Gold.PLP.ligand.torsion>
0.3112

> <Gold.PLP.Chemscore.Hbond>
2.0000

> <Gold.PLP.Chemscore.CHOScore>
0.0000

> <Gold.PLP.Chemscore.Metal>
0.0000

> <Gold.Chemscore.Hbonds>
donor molecule, donor type, donor heavy atom, donor atom, acceptor molecule, acceptor atom, score
      P1  H  7989  7998       L1    21  0.11

> <Gold.PLP.Chemscore.Internal.Correction>
0.0378

> <Gold.Rescore>
     Score         DG    S(hbond)    S(metal)    S(lipo)     H(rot)  DE(clash)    DE(int)     intcor
     19.15     -21.06       1.99        0.00     115.92       1.81       0.14       1.77       ----

> <Gold.Chemscore.Fitness>
19.1506

> <Gold.Chemscore.DG>
-21.0581

> <Gold.Chemscore.ZeroCoef>
-5.4800

> <Gold.Chemscore.Hbond>
1.9908

> <Gold.Chemscore.Metal>
0.0000

> <Gold.Chemscore.Lipo>
115.9178

> <Gold.Chemscore.Internal_Hbond>
0.0000

> <Gold.Chemscore.DEClash>
0.1363

> <Gold.Chemscore.DEInternal>
1.7712

> <Gold.Chemscore.Rot>
1.8100

> <Gold.Chemscore.Internal.Correction>
   9.000000E+99

> <Gold.Chemscore.Hbonds>
donor molecule, donor type, donor heavy atom, donor atom, acceptor molecule, acceptor atom, score
      P1  H  7989  7998       L1    21  0.14

> <Gold.Chemscore.Hbond.Weighted>
-6.6492

> <Gold.Chemscore.Metal.Weighted>
-0.0000

> <Gold.Chemscore.Lipo.Weighted>
-13.5624

> <Gold.Chemscore.Internal_Hbond.Weighted>
0.0000

> <Gold.Chemscore.DEClash.Weighted>
0.1363

> <Gold.Chemscore.DEInternal.Weighted>
1.7712

> <Gold.Chemscore.Rot.Weighted>
4.6335

> <Gold.Chemscore.Internal.Correction.Weighted>
   9.000000E+99

> <Gold.Protein.RotatedTorsions>
[ 6907 6896 6895 6894 ] final  -52.66 input  -60.11 | X-H torsion
[ 7974 7965 7964 7962 ] final -139.81 input  175.53 | X-H torsion
[ 8008 7997 7996 7995 ] final   52.20 input   59.86 | X-H torsion
[ 10167 10162 10161 10158 ] final   96.05 input  -65.29 | X-H torsion
[ 10718 10713 10712 10709 ] final   82.65 input   66.30 | X-H torsion
[ 10763 10752 10751 10750 ] final -118.72 input  -60.55 | X-H torsion
[ 11005 11000 10999 10996 ] final  -34.55 input  -57.11 | X-H torsion

> <Gold.Protein.ActiveResidues>
 VAL166  LYS551  ARG553  GLY616  TRP617  ASP618  TYR619  PRO620  LYS621  CYS622 
 ASP623  PHE694  ASN695  SER759  ASP760  ASP761  ALA762  ILE779  LEU786  VAL792 
 PHE793  MET794  SER795  GLU796  ALA797  LYS798  CYS799  TRP800  GLU811  SER814 

> <Gold.Protein.RotatedAtoms>
  150.8498  134.7818  159.6998 H   0  0  0  0  0  0  0  0  0  0  0  0  # atno 6907 bound_to 6896
  152.4565  134.5276  159.9811 H   0  0  0  0  0  0  0  0  0  0  0  0  # atno 6908 bound_to 6896
  151.5399  133.3396  159.2969 H   0  0  0  0  0  0  0  0  0  0  0  0  # atno 6909 bound_to 6896
  144.8647  140.6275  143.5305 H   0  0  0  0  0  0  0  0  0  0  0  0  # atno 7974 bound_to 7965
  155.4479  140.3457  155.4297 H   0  0  0  0  0  0  0  0  0  0  0  0  # atno 8008 bound_to 7997
  156.1238  140.1495  156.9195 H   0  0  0  0  0  0  0  0  0  0  0  0  # atno 8009 bound_to 7997
  154.4843  140.0860  156.7430 H   0  0  0  0  0  0  0  0  0  0  0  0  # atno 8010 bound_to 7997
  139.7931  144.6844  150.9866 H   0  0  0  0  0  0  0  0  0  0  0  0  # atno 10167 bound_to 10162
  157.6862  131.0057  150.2406 H   0  0  0  0  0  0  0  0  0  0  0  0  # atno 10718 bound_to 10713
  154.8596  135.4264  154.2184 H   0  0  0  0  0  0  0  0  0  0  0  0  # atno 10763 bound_to 10752
  153.3194  135.6981  153.7050 H   0  0  0  0  0  0  0  0  0  0  0  0  # atno 10764 bound_to 10752
  153.6111  135.3519  155.2952 H   0  0  0  0  0  0  0  0  0  0  0  0  # atno 10765 bound_to 10752
  140.9725  133.7101  156.1547 H   0  0  0  0  0  0  0  0  0  0  0  0  # atno 11005 bound_to 11000
  145.4244  139.1559  143.4056 LP  0  0  0  0  0  0  0  0  0  0  0  0  # atno 17320 bound_to 7965
  146.2887  140.4356  142.8748 LP  0  0  0  0  0  0  0  0  0  0  0  0  # atno 17321 bound_to 7965
  140.7820  143.4360  151.0623 LP  0  0  0  0  0  0  0  0  0  0  0  0  # atno 17342 bound_to 10162
  139.8036  143.8049  152.3165 LP  0  0  0  0  0  0  0  0  0  0  0  0  # atno 17343 bound_to 10162
  156.3021  130.3760  149.7740 LP  0  0  0  0  0  0  0  0  0  0  0  0  # atno 17370 bound_to 10713
  156.5367  130.8282  151.3255 LP  0  0  0  0  0  0  0  0  0  0  0  0  # atno 17371 bound_to 10713
  140.7308  134.4257  157.5566 LP  0  0  0  0  0  0  0  0  0  0  0  0  # atno 17394 bound_to 11000
  139.8918  134.8771  156.2303 LP  0  0  0  0  0  0  0  0  0  0  0  0  # atno 17395 bound_to 11000

$$$$
