AV-unprocessed.smi:2746|AV-procd|sdf|10576|dock7
  -GOLD-   2272015 33D 1   1.00000     0.00000
 Structure written by MMmdl.
 38 39  0  0  0  0  0  0  0  0  3 V2000
  151.2516  144.7763  160.1166 C   0  0  0  0  0  0  0  0  0  0  0  0
  152.2859  144.3391  159.3791 C   0  0  0  0  0  0  0  0  0  0  0  0
  152.5929  142.8835  159.0717 C   0  0  1  0  0  0  0  0  0  0  0  0
  152.7754  142.0943  160.3755 C   0  0  0  0  0  0  0  0  0  0  0  0
  151.5692  142.2176  158.2668 N   0  5  0  0  0  0  0  0  0  0  0  0
  151.7520  141.0312  157.6149 C   0  0  0  0  0  0  0  0  0  0  0  0
  152.6309  140.1778  157.7806 O   0  0  0  0  0  0  0  0  0  0  0  0
  150.7055  140.7727  156.5565 C   0  0  0  0  0  0  0  0  0  0  0  0
  149.4170  141.3526  156.6381 C   0  0  0  0  0  0  0  0  0  0  0  0
  148.4592  141.0927  155.6294 C   0  0  0  0  0  0  0  0  0  0  0  0
  147.1732  141.6489  155.6675 N   0  0  0  0  0  0  0  0  0  0  0  0
  146.8151  142.2030  156.9674 C   0  0  0  0  0  0  0  0  0  0  0  0
  145.3515  142.6771  156.9507 C   0  0  0  0  0  0  0  0  0  0  0  0
  145.1654  143.6133  155.8929 O   0  0  0  0  0  0  0  0  0  0  0  0
  145.4473  143.0436  154.6175 C   0  0  0  0  0  0  0  0  0  0  0  0
  146.9125  142.5759  154.5733 C   0  0  0  0  0  0  0  0  0  0  0  0
  148.8127  140.2518  154.5534 C   0  0  0  0  0  0  0  0  0  0  0  0
  150.1055  139.6958  154.5123 C   0  0  0  0  0  0  0  0  0  0  0  0
  150.9855  139.9735  155.4967 N   0  3  0  0  0  0  0  0  0  0  0  0
  150.5342  144.1022  160.5646 H   0  0  0  0  0  0  0  0  0  0  0  0
  151.1092  145.8335  160.2842 H   0  0  0  0  0  0  0  0  0  0  0  0
  152.9693  145.0642  158.9619 H   0  0  0  0  0  0  0  0  0  0  0  0
  153.5566  142.8651  158.5593 H   0  0  0  0  0  0  0  0  0  0  0  0
  153.5614  142.5330  160.9908 H   0  0  0  0  0  0  0  0  0  0  0  0
  153.0586  141.0601  160.1754 H   0  0  0  0  0  0  0  0  0  0  0  0
  151.8596  142.0814  160.9681 H   0  0  0  0  0  0  0  0  0  0  0  0
  149.1623  141.9964  157.4674 H   0  0  0  0  0  0  0  0  0  0  0  0
  146.9558  141.4492  157.7429 H   0  0  0  0  0  0  0  0  0  0  0  0
  147.4697  143.0414  157.2086 H   0  0  0  0  0  0  0  0  0  0  0  0
  144.6702  141.8335  156.8286 H   0  0  0  0  0  0  0  0  0  0  0  0
  145.0999  143.1556  157.8972 H   0  0  0  0  0  0  0  0  0  0  0  0
  144.7674  142.2131  154.4201 H   0  0  0  0  0  0  0  0  0  0  0  0
  145.2679  143.7926  153.8463 H   0  0  0  0  0  0  0  0  0  0  0  0
  147.5766  143.4379  154.6508 H   0  0  0  0  0  0  0  0  0  0  0  0
  147.1217  142.0914  153.6187 H   0  0  0  0  0  0  0  0  0  0  0  0
  148.1029  140.0356  153.7681 H   0  0  0  0  0  0  0  0  0  0  0  0
  150.4619  139.0435  153.7288 H   0  0  0  0  0  0  0  0  0  0  0  0
  151.9208  139.5660  155.4540 H   0  0  0  0  0  0  0  0  0  0  0  0
  1  2  2  0  0  0  0
  1 20  1  0  0  0  0
  1 21  1  0  0  0  0
  2  3  1  0  0  0  0
  2 22  1  0  0  0  0
  3  4  1  0  0  0  0
  3  5  1  0  0  0  0
  3 23  1  0  0  0  0
  4 24  1  0  0  0  0
  4 25  1  0  0  0  0
  4 26  1  0  0  0  0
  5  6  1  0  0  0  0
  6  7  2  0  0  0  0
  6  8  1  0  0  0  0
  8 19  1  0  0  0  0
  8  9  2  0  0  0  0
  9 10  1  0  0  0  0
  9 27  1  0  0  0  0
 10 11  1  0  0  0  0
 10 17  2  0  0  0  0
 11 16  1  0  0  0  0
 11 12  1  0  0  0  0
 12 13  1  0  0  0  0
 12 28  1  0  0  0  0
 12 29  1  0  0  0  0
 13 14  1  0  0  0  0
 13 30  1  0  0  0  0
 13 31  1  0  0  0  0
 14 15  1  0  0  0  0
 15 16  1  0  0  0  0
 15 32  1  0  0  0  0
 15 33  1  0  0  0  0
 16 34  1  0  0  0  0
 16 35  1  0  0  0  0
 17 18  1  0  0  0  0
 17 36  1  0  0  0  0
 18 19  2  0  0  0  0
 18 37  1  0  0  0  0
 19 38  1  0  0  0  0
M  CHG  1   5  -1
M  CHG  1  19   1
M  END
> <s_m_source_file>
AV-unprocessed.smi

> <i_m_source_file_index>
2746

> <i_lp_mmshare_version>
43012

> <i_f3d_flags>
0

> <s_epik_input>
W0NIMl09W0NIXVtDQEhdKFtDSDNdKVtOSF1DKD1PKWMxW2NIXWMoW2NIXVtjSF1uMSlOMltDSDJdW0NIMl1PW0NIMl1bQ0gyXTI=

> <s_epik_cmdline>
J2VwaWtfcHl0aG9uJywgJy1waCcsICc3LjAnLCAnLXRuJywgJzgnLCAnLW1hJywgJzIwMCcsICctbWV0YWxfYmluZGluZycsICctaW1hZScsICc8aW5maWxlLm1hZT4nLCAnLW9tYWUnLCAnPG91dGZpbGUubWFlPic=

> <r_lp_tautomer_probability>
1

> <r_epik_Ionization_Penalty>
4.23471

> <r_epik_Ionization_Penalty_Charging>
4.23471

> <r_epik_Ionization_Penalty_Neutral>
3.18831e-12

> <r_epik_State_Penalty>
4.68748

> <r_epik_Charging_Adjusted_Penalty>
8.92219

> <i_epik_Tot_Q>
0

> <i_epik_Tot_abs_Q>
2

> <r_epik_Metal_State_Penalty>
1.16626

> <b_epik_Metal_Only>
1

> <s_lp_Force_Field>
OPLS_2005

> <r_lp_Energy>
17.3094

> <b_lp_Chiralities_Consistent>
1

> <s_lp_Variant>
AV-unprocessed.smi:2746-6

> <Gold.Version>
5.8.1

> <Gold.Id.Protein>
6NUR|6NUR_protein|mol2

> <Gold.PLP.Fitness>
39.9032

> <Gold.PLP.PLP>
-38.2339

> <Gold.PLP.part.hbond>
-1.0000

> <Gold.PLP.part.metal>
0.0000

> <Gold.PLP.part.buried>
-4.4767

> <Gold.PLP.part.nonpolar>
-33.3148

> <Gold.PLP.part.repulsive>
0.4473

> <Gold.PLP.ligand.clash>
0.0000

> <Gold.PLP.ligand.torsion>
0.7406

> <Gold.PLP.Chemscore.Hbond>
0.9833

> <Gold.PLP.Chemscore.CHOScore>
0.0000

> <Gold.PLP.Chemscore.Metal>
0.0000

> <Gold.Chemscore.Hbonds>
donor molecule, donor type, donor heavy atom, donor atom, acceptor molecule, acceptor atom, score
      P1  H  7997  8009       L1     7  0.94

> <Gold.PLP.Chemscore.Internal.Correction>
0.2004

> <Gold.Rescore>
     Score         DG    S(hbond)    S(metal)    S(lipo)     H(rot)  DE(clash)    DE(int)     intcor
     15.94     -16.49       0.95        0.00      94.80       1.27       0.05       0.50       ----

> <Gold.Chemscore.Fitness>
15.9399

> <Gold.Chemscore.DG>
-16.4933

> <Gold.Chemscore.ZeroCoef>
-5.4800

> <Gold.Chemscore.Hbond>
0.9533

> <Gold.Chemscore.Metal>
0.0000

> <Gold.Chemscore.Lipo>
94.7974

> <Gold.Chemscore.Internal_Hbond>
0.0000

> <Gold.Chemscore.DEClash>
0.0493

> <Gold.Chemscore.DEInternal>
0.5041

> <Gold.Chemscore.Rot>
1.2742

> <Gold.Chemscore.Internal.Correction>
   9.000000E+99

> <Gold.Chemscore.Hbonds>
donor molecule, donor type, donor heavy atom, donor atom, acceptor molecule, acceptor atom, score
      P1  H  7997  8009       L1     7  0.86

> <Gold.Chemscore.Hbond.Weighted>
-3.1839

> <Gold.Chemscore.Metal.Weighted>
-0.0000

> <Gold.Chemscore.Lipo.Weighted>
-11.0913

> <Gold.Chemscore.Internal_Hbond.Weighted>
0.0000

> <Gold.Chemscore.DEClash.Weighted>
0.0493

> <Gold.Chemscore.DEInternal.Weighted>
0.5041

> <Gold.Chemscore.Rot.Weighted>
3.2619

> <Gold.Chemscore.Internal.Correction.Weighted>
   9.000000E+99

> <Gold.Protein.RotatedTorsions>
[ 6907 6896 6895 6894 ] final  103.86 input  -60.11 | X-H torsion
[ 7974 7965 7964 7962 ] final  -21.20 input  175.53 | X-H torsion
[ 8008 7997 7996 7995 ] final  172.91 input   59.86 | X-H torsion
[ 10167 10162 10161 10158 ] final  152.10 input  -65.29 | X-H torsion
[ 10718 10713 10712 10709 ] final  -64.87 input   66.30 | X-H torsion
[ 10763 10752 10751 10750 ] final -118.14 input  -60.55 | X-H torsion
[ 11005 11000 10999 10996 ] final   15.25 input  -57.11 | X-H torsion

> <Gold.Protein.ActiveResidues>
 VAL166  LYS551  ARG553  GLY616  TRP617  ASP618  TYR619  PRO620  LYS621  CYS622 
 ASP623  PHE694  ASN695  SER759  ASP760  ASP761  ALA762  ILE779  LEU786  VAL792 
 PHE793  MET794  SER795  GLU796  ALA797  LYS798  CYS799  TRP800  GLU811  SER814 

> <Gold.Protein.RotatedAtoms>
  152.5282  133.9763  159.7785 H   0  0  0  0  0  0  0  0  0  0  0  0  # atno 6907 bound_to 6896
  151.0025  133.6034  159.2700 H   0  0  0  0  0  0  0  0  0  0  0  0  # atno 6908 bound_to 6896
  151.3138  135.0807  159.9335 H   0  0  0  0  0  0  0  0  0  0  0  0  # atno 6909 bound_to 6896
  146.1746  140.4308  142.8519 H   0  0  0  0  0  0  0  0  0  0  0  0  # atno 7974 bound_to 7965
  156.1127  140.1473  156.9315 H   0  0  0  0  0  0  0  0  0  0  0  0  # atno 8008 bound_to 7997
  154.4779  140.0889  156.7349 H   0  0  0  0  0  0  0  0  0  0  0  0  # atno 8009 bound_to 7997
  155.4567  140.3437  155.4310 H   0  0  0  0  0  0  0  0  0  0  0  0  # atno 8010 bound_to 7997
  139.4835  144.5386  151.7603 H   0  0  0  0  0  0  0  0  0  0  0  0  # atno 10167 bound_to 10162
  156.0703  130.4239  150.1482 H   0  0  0  0  0  0  0  0  0  0  0  0  # atno 10718 bound_to 10713
  154.8578  135.4284  154.2092 H   0  0  0  0  0  0  0  0  0  0  0  0  # atno 10763 bound_to 10752
  153.3121  135.6976  153.7112 H   0  0  0  0  0  0  0  0  0  0  0  0  # atno 10764 bound_to 10752
  153.6200  135.3503  155.2981 H   0  0  0  0  0  0  0  0  0  0  0  0  # atno 10765 bound_to 10752
  140.4604  134.1133  155.7715 H   0  0  0  0  0  0  0  0  0  0  0  0  # atno 11005 bound_to 11000
  144.8216  140.6559  143.6349 LP  0  0  0  0  0  0  0  0  0  0  0  0  # atno 17320 bound_to 7965
  145.4247  139.1558  143.4055 LP  0  0  0  0  0  0  0  0  0  0  0  0  # atno 17321 bound_to 7965
  140.4922  144.1293  150.5952 LP  0  0  0  0  0  0  0  0  0  0  0  0  # atno 17342 bound_to 10162
  140.4158  143.2635  151.9777 LP  0  0  0  0  0  0  0  0  0  0  0  0  # atno 17343 bound_to 10162
  156.9534  130.9782  151.3494 LP  0  0  0  0  0  0  0  0  0  0  0  0  # atno 17370 bound_to 10713
  157.5770  130.8350  149.8470 LP  0  0  0  0  0  0  0  0  0  0  0  0  # atno 17371 bound_to 10713
  141.1624  133.8768  157.1811 LP  0  0  0  0  0  0  0  0  0  0  0  0  # atno 17394 bound_to 11000
  139.9949  135.0050  157.0059 LP  0  0  0  0  0  0  0  0  0  0  0  0  # atno 17395 bound_to 11000

$$$$
