AV-unprocessed.smi:922|AV-procd|sdf|4173|dock9
  -GOLD-   22720 2 83D 1   1.00000     0.00000
 Structure written by MMmdl.
 32 33  0  0  0  0  0  0  0  0  2 V2000
  152.7667  143.6992  162.9520 C   0  0  0  0  0  0  0  0  0  0  0  0
  152.2711  143.1636  161.6052 C   0  0  2  0  0  0  0  0  0  0  0  0
  153.0609  141.9200  161.1565 C   0  0  0  0  0  0  0  0  0  0  0  0
  152.6439  141.5080  159.8229 N   0  0  0  0  0  0  0  0  0  0  0  0
  152.2320  140.2219  159.4699 C   0  0  0  0  0  0  0  0  0  0  0  0
  151.0796  140.0546  158.5499 C   0  0  0  0  0  0  0  0  0  0  0  0
  150.6487  138.9137  158.1828 N   0  0  0  0  0  0  0  0  0  0  0  0
  151.2764  137.6986  158.6480 N   0  5  0  0  0  0  0  0  0  0  0  0
  152.3378  137.7606  159.5072 C   0  0  0  0  0  0  0  0  0  0  0  0
  152.8904  136.7470  159.9319 O   0  0  0  0  0  0  0  0  0  0  0  0
  152.8236  139.0820  159.9272 C   0  0  0  0  0  0  0  0  0  0  0  0
  154.1326  139.1170  161.0641 Cl  0  0  0  0  0  0  0  0  0  0  0  0
  152.8280  142.5891  158.8621 C   0  0  0  0  0  0  0  0  0  0  0  0
  152.0518  143.8542  159.2938 C   0  0  0  0  0  0  0  0  0  0  0  0
  152.4842  145.0473  158.4278 C   0  0  0  0  0  0  0  0  0  0  0  0
  150.5242  143.6655  159.1730 C   0  0  0  0  0  0  0  0  0  0  0  0
  152.4253  144.1992  160.6335 O   0  0  0  0  0  0  0  0  0  0  0  0
  152.6554  142.9499  163.7361 H   0  0  0  0  0  0  0  0  0  0  0  0
  152.2003  144.5811  163.2521 H   0  0  0  0  0  0  0  0  0  0  0  0
  153.8192  143.9796  162.9027 H   0  0  0  0  0  0  0  0  0  0  0  0
  151.2150  142.9194  161.7118 H   0  0  0  0  0  0  0  0  0  0  0  0
  154.1278  142.1452  161.1305 H   0  0  0  0  0  0  0  0  0  0  0  0
  152.9391  141.1047  161.8695 H   0  0  0  0  0  0  0  0  0  0  0  0
  150.6151  140.9782  158.1951 H   0  0  0  0  0  0  0  0  0  0  0  0
  153.8949  142.8042  158.7883 H   0  0  0  0  0  0  0  0  0  0  0  0
  152.5015  142.2807  157.8681 H   0  0  0  0  0  0  0  0  0  0  0  0
  152.2583  144.8753  157.3748 H   0  0  0  0  0  0  0  0  0  0  0  0
  153.5564  145.2274  158.5110 H   0  0  0  0  0  0  0  0  0  0  0  0
  151.9739  145.9616  158.7319 H   0  0  0  0  0  0  0  0  0  0  0  0
  150.2321  143.5127  158.1337 H   0  0  0  0  0  0  0  0  0  0  0  0
  149.9898  144.5418  159.5404 H   0  0  0  0  0  0  0  0  0  0  0  0
  150.1643  142.8015  159.7307 H   0  0  0  0  0  0  0  0  0  0  0  0
  1  2  1  0  0  0  0
  1 18  1  0  0  0  0
  1 19  1  0  0  0  0
  1 20  1  0  0  0  0
  2 17  1  0  0  0  0
  2  3  1  0  0  0  0
  2 21  1  0  0  0  0
  3  4  1  0  0  0  0
  3 22  1  0  0  0  0
  3 23  1  0  0  0  0
  4  5  1  0  0  0  0
  4 13  1  0  0  0  0
  5 11  2  0  0  0  0
  5  6  1  0  0  0  0
  6  7  2  0  0  0  0
  6 24  1  0  0  0  0
  7  8  1  0  0  0  0
  8  9  1  0  0  0  0
  9 10  2  0  0  0  0
  9 11  1  0  0  0  0
 11 12  1  0  0  0  0
 13 14  1  0  0  0  0
 13 25  1  0  0  0  0
 13 26  1  0  0  0  0
 14 15  1  0  0  0  0
 14 16  1  0  0  0  0
 14 17  1  0  0  0  0
 15 27  1  0  0  0  0
 15 28  1  0  0  0  0
 15 29  1  0  0  0  0
 16 30  1  0  0  0  0
 16 31  1  0  0  0  0
 16 32  1  0  0  0  0
M  CHG  1   8  -1
M  END
> <s_m_source_file>
AV-unprocessed.smi

> <i_m_source_file_index>
922

> <i_lp_mmshare_version>
43012

> <i_f3d_flags>
0

> <s_epik_input>
W0NIM11bQ0BASF0oTzEpW0NIMl1OKFtDSDJdQzEoW0NIM10pW0NIM10pYzJbY0hdbltuSF1jKD1PKWMyQ2w=

> <s_epik_cmdline>
J2VwaWtfcHl0aG9uJywgJy1waCcsICc3LjAnLCAnLXRuJywgJzgnLCAnLW1hJywgJzIwMCcsICctbWV0YWxfYmluZGluZycsICctaW1hZScsICc8aW5maWxlLm1hZT4nLCAnLW9tYWUnLCAnPG91dGZpbGUubWFlPic=

> <r_lp_tautomer_probability>
1

> <r_epik_Ionization_Penalty>
2.48086

> <r_epik_Ionization_Penalty_Charging>
0.00187014

> <r_epik_Ionization_Penalty_Neutral>
2.47899

> <r_epik_State_Penalty>
0.0455822

> <r_epik_Charging_Adjusted_Penalty>
0.0474524

> <i_epik_Tot_Q>
-1

> <i_epik_Tot_abs_Q>
1

> <r_epik_Metal_State_Penalty>
0.000768086

> <b_epik_Metal_Only>
0

> <s_lp_Force_Field>
OPLS_2005

> <r_lp_Energy>
41.3096

> <b_lp_Chiralities_Consistent>
1

> <s_lp_Variant>
AV-unprocessed.smi:922-1

> <Gold.Version>
5.8.1

> <Gold.Id.Protein>
6NUR|6NUR_protein|mol2

> <Gold.PLP.Fitness>
38.9864

> <Gold.PLP.PLP>
-36.4574

> <Gold.PLP.part.hbond>
-1.0000

> <Gold.PLP.part.metal>
0.0000

> <Gold.PLP.part.buried>
-3.7734

> <Gold.PLP.part.nonpolar>
-31.5049

> <Gold.PLP.part.repulsive>
0.0725

> <Gold.PLP.ligand.clash>
0.0000

> <Gold.PLP.ligand.torsion>
0.7134

> <Gold.PLP.Chemscore.Hbond>
1.0000

> <Gold.PLP.Chemscore.CHOScore>
0.0000

> <Gold.PLP.Chemscore.Metal>
0.0000

> <Gold.Chemscore.Hbonds>
donor molecule, donor type, donor heavy atom, donor atom, acceptor molecule, acceptor atom, score
      P1  H  6896  6907       L1    10  1.00

> <Gold.PLP.Chemscore.Internal.Correction>
0.9558

> <Gold.Rescore>
     Score         DG    S(hbond)    S(metal)    S(lipo)     H(rot)  DE(clash)    DE(int)     intcor
     18.63     -20.48       0.96        0.00     100.84       0.00       0.08       1.77       ----

> <Gold.Chemscore.Fitness>
18.6350

> <Gold.Chemscore.DG>
-20.4803

> <Gold.Chemscore.ZeroCoef>
-5.4800

> <Gold.Chemscore.Hbond>
0.9586

> <Gold.Chemscore.Metal>
0.0000

> <Gold.Chemscore.Lipo>
100.8439

> <Gold.Chemscore.Internal_Hbond>
0.0000

> <Gold.Chemscore.DEClash>
0.0775

> <Gold.Chemscore.DEInternal>
1.7678

> <Gold.Chemscore.Rot>
0.0000

> <Gold.Chemscore.Internal.Correction>
   9.000000E+99

> <Gold.Chemscore.Hbonds>
donor molecule, donor type, donor heavy atom, donor atom, acceptor molecule, acceptor atom, score
      P1  H  6896  6907       L1    10  1.00

> <Gold.Chemscore.Hbond.Weighted>
-3.2016

> <Gold.Chemscore.Metal.Weighted>
-0.0000

> <Gold.Chemscore.Lipo.Weighted>
-11.7987

> <Gold.Chemscore.Internal_Hbond.Weighted>
0.0000

> <Gold.Chemscore.DEClash.Weighted>
0.0775

> <Gold.Chemscore.DEInternal.Weighted>
1.7678

> <Gold.Chemscore.Rot.Weighted>
0.0000

> <Gold.Chemscore.Internal.Correction.Weighted>
   9.000000E+99

> <Gold.Protein.RotatedTorsions>
[ 6907 6896 6895 6894 ] final   33.62 input  -60.11 | X-H torsion
[ 7974 7965 7964 7962 ] final  -98.76 input  175.53 | X-H torsion
[ 8008 7997 7996 7995 ] final  129.13 input   59.86 | X-H torsion
[ 10167 10162 10161 10158 ] final   49.86 input  -65.29 | X-H torsion
[ 10718 10713 10712 10709 ] final -141.94 input   66.30 | X-H torsion
[ 10763 10752 10751 10750 ] final   55.61 input  -60.55 | X-H torsion
[ 11005 11000 10999 10996 ] final   90.98 input  -57.11 | X-H torsion

> <Gold.Protein.ActiveResidues>
 VAL166  LYS551  ARG553  GLY616  TRP617  ASP618  TYR619  PRO620  LYS621  CYS622 
 ASP623  PHE694  ASN695  SER759  ASP760  ASP761  ALA762  ILE779  LEU786  VAL792 
 PHE793  MET794  SER795  GLU796  ALA797  LYS798  CYS799  TRP800  GLU811  SER814 

> <Gold.Protein.RotatedAtoms>
  152.0910  134.9407  160.0571 H   0  0  0  0  0  0  0  0  0  0  0  0  # atno 6907 bound_to 6896
  152.0658  133.4078  159.4446 H   0  0  0  0  0  0  0  0  0  0  0  0  # atno 6908 bound_to 6896
  150.6837  134.3068  159.4773 H   0  0  0  0  0  0  0  0  0  0  0  0  # atno 6909 bound_to 6896
  145.3164  140.9412  143.2740 H   0  0  0  0  0  0  0  0  0  0  0  0  # atno 7974 bound_to 7965
  156.2930  140.2628  156.2549 H   0  0  0  0  0  0  0  0  0  0  0  0  # atno 8008 bound_to 7997
  154.9846  140.0389  157.2311 H   0  0  0  0  0  0  0  0  0  0  0  0  # atno 8009 bound_to 7997
  154.7741  140.2783  155.6120 H   0  0  0  0  0  0  0  0  0  0  0  0  # atno 8010 bound_to 7997
  140.2785  144.3184  150.6270 H   0  0  0  0  0  0  0  0  0  0  0  0  # atno 10167 bound_to 10162
  156.3400  130.7632  151.1766 H   0  0  0  0  0  0  0  0  0  0  0  0  # atno 10718 bound_to 10713
  152.9819  135.5705  154.5094 H   0  0  0  0  0  0  0  0  0  0  0  0  # atno 10763 bound_to 10752
  154.4600  135.2781  155.1721 H   0  0  0  0  0  0  0  0  0  0  0  0  # atno 10764 bound_to 10752
  154.3313  135.6248  153.5606 H   0  0  0  0  0  0  0  0  0  0  0  0  # atno 10765 bound_to 10752
  139.8846  134.8646  156.3362 H   0  0  0  0  0  0  0  0  0  0  0  0  # atno 11005 bound_to 11000
  144.8974  139.4693  143.6648 LP  0  0  0  0  0  0  0  0  0  0  0  0  # atno 17320 bound_to 7965
  146.3099  139.7709  142.9028 LP  0  0  0  0  0  0  0  0  0  0  0  0  # atno 17321 bound_to 7965
  140.5831  143.2171  151.7391 LP  0  0  0  0  0  0  0  0  0  0  0  0  # atno 17342 bound_to 10162
  139.4969  144.4051  152.0141 LP  0  0  0  0  0  0  0  0  0  0  0  0  # atno 17343 bound_to 10162
  157.7445  131.0457  150.4857 LP  0  0  0  0  0  0  0  0  0  0  0  0  # atno 17370 bound_to 10713
  156.5036  130.4123  149.6340 LP  0  0  0  0  0  0  0  0  0  0  0  0  # atno 17371 bound_to 10713
  140.9689  133.7340  156.0507 LP  0  0  0  0  0  0  0  0  0  0  0  0  # atno 17394 bound_to 11000
  140.7895  134.3633  157.5468 LP  0  0  0  0  0  0  0  0  0  0  0  0  # atno 17395 bound_to 11000

$$$$
