AV-unprocessed.smi:137|AV-procd|sdf|1176|dock3
  -GOLD-   2262018323D 1   1.00000     0.00000
 Structure written by MMmdl.
 51 54  0  0  0  0  0  0  0  0  1 V2000
  152.2588  126.7768  154.9776 C   0  0  0  0  0  0  0  0  0  0  0  0
  152.3295  128.2965  154.7640 C   0  0  1  0  0  0  0  0  0  0  0  0
  151.1674  128.9827  155.5178 C   0  0  0  0  0  0  0  0  0  0  0  0
  150.8647  130.3136  154.9916 N   0  0  0  0  0  0  0  0  0  0  0  0
  149.7300  130.4771  154.2504 C   0  0  0  0  0  0  0  0  0  0  0  0
  149.0427  129.3700  153.8570 N   0  0  0  0  0  0  0  0  0  0  0  0
  147.9329  129.4751  153.1224 C   0  0  0  0  0  0  0  0  0  0  0  0
  147.3306  130.5772  152.6779 N   0  0  0  0  0  0  0  0  0  0  0  0
  147.9988  131.6972  153.0734 C   0  0  0  0  0  0  0  0  0  0  0  0
  149.1966  131.7403  153.8467 C   0  0  0  0  0  0  0  0  0  0  0  0
  149.5730  133.0662  154.0356 N   0  0  0  0  0  0  0  0  0  0  0  0
  148.6670  133.7591  153.4034 C   0  0  0  0  0  0  0  0  0  0  0  0
  147.6658  133.0170  152.8221 N   0  0  0  0  0  0  0  0  0  0  0  0
  146.5709  133.5137  152.0409 C   0  0  0  0  0  0  0  0  0  0  0  0
  145.1192  133.2239  152.4302 C   0  0  0  0  0  0  0  0  0  0  0  0
  144.7285  133.2183  150.9344 C   0  0  0  0  0  0  0  0  0  0  0  0
  143.7401  132.1195  150.5105 C   0  0  0  0  0  0  0  0  0  0  0  0
  143.7752  131.9093  149.1133 O   0  0  0  0  0  0  0  0  0  0  0  0
  144.2509  134.5727  150.3724 C   0  0  0  0  0  0  0  0  0  0  0  0
  143.9220  134.4752  149.0015 O   0  0  0  0  0  0  0  0  0  0  0  0
  146.2180  132.8935  150.6868 C   0  0  0  0  0  0  0  0  0  0  0  0
  151.4732  131.5009  155.6017 C   0  0  0  0  0  0  0  0  0  0  0  0
  152.9241  131.3167  156.0749 C   0  0  0  0  0  0  0  0  0  0  0  0
  153.9416  130.5932  154.7016 S   0  0  1  0  0  0  0  0  0  0  0  0
  155.3994  130.9601  154.9849 O   0  0  0  0  0  0  0  0  0  0  0  0
  153.7286  128.8070  155.1672 C   0  0  0  0  0  0  0  0  0  0  0  0
  152.3778  126.5189  156.0305 H   0  0  0  0  0  0  0  0  0  0  0  0
  153.0402  126.2623  154.4176 H   0  0  0  0  0  0  0  0  0  0  0  0
  151.3019  126.3755  154.6425 H   0  0  0  0  0  0  0  0  0  0  0  0
  152.2054  128.4709  153.6948 H   0  0  0  0  0  0  0  0  0  0  0  0
  150.2712  128.3633  155.4760 H   0  0  0  0  0  0  0  0  0  0  0  0
  151.4018  129.0522  156.5802 H   0  0  0  0  0  0  0  0  0  0  0  0
  147.4592  128.5426  152.8534 H   0  0  0  0  0  0  0  0  0  0  0  0
  148.7022  134.8377  153.3520 H   0  0  0  0  0  0  0  0  0  0  0  0
  146.7364  134.5879  151.9423 H   0  0  0  0  0  0  0  0  0  0  0  0
  145.0016  132.2473  152.9039 H   0  0  0  0  0  0  0  0  0  0  0  0
  144.6502  134.0047  153.0297 H   0  0  0  0  0  0  0  0  0  0  0  0
  143.9834  131.1731  150.9941 H   0  0  0  0  0  0  0  0  0  0  0  0
  142.7193  132.3599  150.8082 H   0  0  0  0  0  0  0  0  0  0  0  0
  144.0477  132.7120  148.6955 H   0  0  0  0  0  0  0  0  0  0  0  0
  143.3678  134.9309  150.9013 H   0  0  0  0  0  0  0  0  0  0  0  0
  145.0091  135.3463  150.4963 H   0  0  0  0  0  0  0  0  0  0  0  0
  144.6790  134.7240  148.4935 H   0  0  0  0  0  0  0  0  0  0  0  0
  146.6607  133.3993  149.8283 H   0  0  0  0  0  0  0  0  0  0  0  0
  146.4206  131.8212  150.6542 H   0  0  0  0  0  0  0  0  0  0  0  0
  151.4652  132.3115  154.8714 H   0  0  0  0  0  0  0  0  0  0  0  0
  150.8566  131.8275  156.4399 H   0  0  0  0  0  0  0  0  0  0  0  0
  153.3373  132.2907  156.3364 H   0  0  0  0  0  0  0  0  0  0  0  0
  152.9924  130.6986  156.9699 H   0  0  0  0  0  0  0  0  0  0  0  0
  153.9233  128.6662  156.2307 H   0  0  0  0  0  0  0  0  0  0  0  0
  154.4898  128.2413  154.6294 H   0  0  0  0  0  0  0  0  0  0  0  0
  1  2  1  0  0  0  0
  1 27  1  0  0  0  0
  1 28  1  0  0  0  0
  1 29  1  0  0  0  0
  2 26  1  0  0  0  0
  2  3  1  0  0  0  0
  2 30  1  0  0  0  0
  3  4  1  0  0  0  0
  3 31  1  0  0  0  0
  3 32  1  0  0  0  0
  4  5  1  0  0  0  0
  4 22  1  0  0  0  0
  5 10  1  0  0  0  0
  5  6  2  0  0  0  0
  6  7  1  0  0  0  0
  7  8  2  0  0  0  0
  7 33  1  0  0  0  0
  8  9  1  0  0  0  0
  9 13  1  0  0  0  0
  9 10  2  0  0  0  0
 10 11  1  0  0  0  0
 11 12  2  0  0  0  0
 12 13  1  0  0  0  0
 12 34  1  0  0  0  0
 13 14  1  0  0  0  0
 14 21  1  0  0  0  0
 14 15  1  0  0  0  0
 14 35  1  0  0  0  0
 15 16  1  0  0  0  0
 15 36  1  0  0  0  0
 15 37  1  0  0  0  0
 16 17  1  0  0  0  0
 16 19  1  0  0  0  0
 16 21  1  0  0  0  0
 17 18  1  0  0  0  0
 17 38  1  0  0  0  0
 17 39  1  0  0  0  0
 18 40  1  0  0  0  0
 19 20  1  0  0  0  0
 19 41  1  0  0  0  0
 19 42  1  0  0  0  0
 20 43  1  0  0  0  0
 21 44  1  0  0  0  0
 21 45  1  0  0  0  0
 22 23  1  0  0  0  0
 22 46  1  0  0  0  0
 22 47  1  0  0  0  0
 23 24  1  0  0  0  0
 23 48  1  0  0  0  0
 23 49  1  0  0  0  0
 24 25  2  0  0  0  0
 24 26  1  0  0  0  0
 26 50  1  0  0  0  0
 26 51  1  0  0  0  0
M  END
> <s_m_source_file>
AV-unprocessed.smi

> <i_m_source_file_index>
137

> <i_lp_mmshare_version>
43012

> <i_f3d_flags>
0

> <s_epik_input>
Tz1bU0BAXShbQ0gyXTEpW0NIMl1bQ0gyXU4oW0NIMl1bQ0BIXTFbQ0gzXSljKG5bY0hdbjIpYyhjMjMpbltjSF1uM1tDSF0oW0NIMl00KVtDSDJdQzQoW0NIMl1bT0hdKVtDSDJdW09IXQ==

> <s_epik_cmdline>
J2VwaWtfcHl0aG9uJywgJy1waCcsICc3LjAnLCAnLXRuJywgJzgnLCAnLW1hJywgJzIwMCcsICctbWV0YWxfYmluZGluZycsICctaW1hZScsICc8aW5maWxlLm1hZT4nLCAnLW9tYWUnLCAnPG91dGZpbGUubWFlPic=

> <r_lp_tautomer_probability>
1

> <r_epik_Ionization_Penalty>
0.000811024

> <r_epik_Ionization_Penalty_Charging>
0

> <r_epik_Ionization_Penalty_Neutral>
0.000811024

> <r_epik_State_Penalty>
0.000429598

> <r_epik_Charging_Adjusted_Penalty>
0.000429598

> <i_epik_Tot_Q>
0

> <i_epik_Tot_abs_Q>
0

> <r_epik_Metal_State_Penalty>
-0

> <b_epik_Metal_Only>
0

> <s_lp_Force_Field>
OPLS_2005

> <r_lp_Energy>
40.014

> <b_lp_Chiralities_Consistent>
1

> <s_lp_Variant>
AV-unprocessed.smi:137-2

> <Gold.Version>
5.8.1

> <Gold.Id.Protein>
6NUR|6NUR_protein|mol2

> <Gold.PLP.Fitness>
52.1580

> <Gold.PLP.PLP>
-43.9491

> <Gold.PLP.part.hbond>
-3.5966

> <Gold.PLP.part.metal>
0.0000

> <Gold.PLP.part.buried>
-6.4128

> <Gold.PLP.part.nonpolar>
-34.8187

> <Gold.PLP.part.repulsive>
0.3186

> <Gold.PLP.ligand.clash>
0.0000

> <Gold.PLP.ligand.torsion>
0.4722

> <Gold.PLP.Chemscore.Hbond>
1.9920

> <Gold.PLP.Chemscore.CHOScore>
0.8617

> <Gold.PLP.Chemscore.Metal>
0.0000

> <Gold.Chemscore.Hbonds>
donor molecule, donor type, donor heavy atom, donor atom, acceptor molecule, acceptor atom, score
      L1  H    20    43       P1  7921  1.00
      P1  H 10785 10796       L1    18  0.78
      L1  C    12    34       P1  7948  0.97

> <Gold.PLP.Chemscore.Internal.Correction>
0.5923

> <Gold.Rescore>
     Score         DG    S(hbond)    S(metal)    S(lipo)     H(rot)  DE(clash)    DE(int)     intcor
     10.82     -12.76       1.97        0.00      68.85       2.87       0.13       1.81       ----

> <Gold.Chemscore.Fitness>
10.8162

> <Gold.Chemscore.DG>
-12.7623

> <Gold.Chemscore.ZeroCoef>
-5.4800

> <Gold.Chemscore.Hbond>
1.9703

> <Gold.Chemscore.Metal>
0.0000

> <Gold.Chemscore.Lipo>
68.8469

> <Gold.Chemscore.Internal_Hbond>
0.0000

> <Gold.Chemscore.DEClash>
0.1348

> <Gold.Chemscore.DEInternal>
1.8113

> <Gold.Chemscore.Rot>
2.8725

> <Gold.Chemscore.Internal.Correction>
   9.000000E+99

> <Gold.Chemscore.Hbonds>
donor molecule, donor type, donor heavy atom, donor atom, acceptor molecule, acceptor atom, score
      L1  H    20    43       P1  7921  1.00
      P1  H 10785 10796       L1    18  0.54

> <Gold.Chemscore.Hbond.Weighted>
-6.5808

> <Gold.Chemscore.Metal.Weighted>
-0.0000

> <Gold.Chemscore.Lipo.Weighted>
-8.0551

> <Gold.Chemscore.Internal_Hbond.Weighted>
0.0000

> <Gold.Chemscore.DEClash.Weighted>
0.1348

> <Gold.Chemscore.DEInternal.Weighted>
1.8113

> <Gold.Chemscore.Rot.Weighted>
7.3535

> <Gold.Chemscore.Internal.Correction.Weighted>
   9.000000E+99

> <Gold.Protein.RotatedTorsions>
[ 6907 6896 6895 6894 ] final   38.40 input  -60.11 | X-H torsion
[ 7974 7965 7964 7962 ] final  111.68 input  175.53 | X-H torsion
[ 8008 7997 7996 7995 ] final  -75.53 input   59.86 | X-H torsion
[ 10167 10162 10161 10158 ] final -156.17 input  -65.29 | X-H torsion
[ 10718 10713 10712 10709 ] final   42.58 input   66.30 | X-H torsion
[ 10763 10752 10751 10750 ] final  137.72 input  -60.55 | X-H torsion
[ 11005 11000 10999 10996 ] final -179.58 input  -57.11 | X-H torsion

> <Gold.Protein.ActiveResidues>
 VAL166  LYS551  ARG553  GLY616  TRP617  ASP618  TYR619  PRO620  LYS621  CYS622 
 ASP623  PHE694  ASN695  SER759  ASP760  ASP761  ALA762  ILE779  LEU786  VAL792 
 PHE793  MET794  SER795  GLU796  ALA797  LYS798  CYS799  TRP800  GLU811  SER814 

> <Gold.Protein.RotatedAtoms>
  152.1559  134.8951  160.0544 H   0  0  0  0  0  0  0  0  0  0  0  0  # atno 6907 bound_to 6896
  151.9965  133.3805  159.4173 H   0  0  0  0  0  0  0  0  0  0  0  0  # atno 6908 bound_to 6896
  150.6881  134.3802  159.5075 H   0  0  0  0  0  0  0  0  0  0  0  0  # atno 6909 bound_to 6896
  145.2392  139.2786  143.4127 H   0  0  0  0  0  0  0  0  0  0  0  0  # atno 7974 bound_to 7965
  154.5425  140.0742  156.8533 H   0  0  0  0  0  0  0  0  0  0  0  0  # atno 8008 bound_to 7997
  155.3153  140.3393  155.4224 H   0  0  0  0  0  0  0  0  0  0  0  0  # atno 8009 bound_to 7997
  156.1887  140.1678  156.8120 H   0  0  0  0  0  0  0  0  0  0  0  0  # atno 8010 bound_to 7997
  139.6872  143.9482  152.2367 H   0  0  0  0  0  0  0  0  0  0  0  0  # atno 10167 bound_to 10162
  157.4064  130.7889  149.7393 H   0  0  0  0  0  0  0  0  0  0  0  0  # atno 10718 bound_to 10713
  153.8777  135.3048  155.3444 H   0  0  0  0  0  0  0  0  0  0  0  0  # atno 10763 bound_to 10752
  154.7776  135.4853  153.9780 H   0  0  0  0  0  0  0  0  0  0  0  0  # atno 10764 bound_to 10752
  153.1369  135.6816  153.9185 H   0  0  0  0  0  0  0  0  0  0  0  0  # atno 10765 bound_to 10752
  140.4170  134.6640  157.4644 H   0  0  0  0  0  0  0  0  0  0  0  0  # atno 11005 bound_to 11000
  146.3333  140.2750  142.8607 LP  0  0  0  0  0  0  0  0  0  0  0  0  # atno 17320 bound_to 7965
  144.9605  140.8270  143.5516 LP  0  0  0  0  0  0  0  0  0  0  0  0  # atno 17321 bound_to 7965
  139.9288  144.6754  150.8384 LP  0  0  0  0  0  0  0  0  0  0  0  0  # atno 17342 bound_to 10162
  140.7671  143.3323  151.2383 LP  0  0  0  0  0  0  0  0  0  0  0  0  # atno 17343 bound_to 10162
  155.9838  130.3997  150.3346 LP  0  0  0  0  0  0  0  0  0  0  0  0  # atno 17370 bound_to 10713
  157.1479  131.0313  151.2898 LP  0  0  0  0  0  0  0  0  0  0  0  0  # atno 17371 bound_to 10713
  140.0227  134.6523  155.9217 LP  0  0  0  0  0  0  0  0  0  0  0  0  # atno 17394 bound_to 11000
  141.1799  133.6545  156.4977 LP  0  0  0  0  0  0  0  0  0  0  0  0  # atno 17395 bound_to 11000

$$$$
