AV-unprocessed.smi:2047|AV-procd|sdf|8319|dock5
  -GOLD-   2272010583D 1   1.00000     0.00000
 Structure written by MMmdl.
 42 44  0  0  0  0  0  0  0  0  3 V2000
  151.6725  138.3054  159.2810 O   0  0  0  0  0  0  0  0  0  0  0  0
  150.8340  138.0816  158.4004 C   0  0  0  0  0  0  0  0  0  0  0  0
  150.3750  139.0826  157.6302 N   0  0  0  0  0  0  0  0  0  0  0  0
  150.7194  140.4634  157.6597 C   0  0  0  0  0  0  0  0  0  0  0  0
  151.7546  140.9591  158.4920 C   0  0  0  0  0  0  0  0  0  0  0  0
  152.0523  142.3354  158.4938 C   0  0  0  0  0  0  0  0  0  0  0  0
  151.3031  143.1960  157.6721 C   0  0  0  0  0  0  0  0  0  0  0  0
  150.3111  142.6954  156.9066 N   0  3  0  0  0  0  0  0  0  0  0  0
  149.9804  141.3806  156.8636 C   0  0  0  0  0  0  0  0  0  0  0  0
  148.9046  140.9735  156.0453 N   0  0  0  0  0  0  0  0  0  0  0  0
  147.6108  141.5350  156.4262 C   0  0  0  0  0  0  0  0  0  0  0  0
  146.8562  141.8121  155.1239 C   0  0  0  0  0  0  0  0  0  0  0  0
  147.9750  142.0119  154.1091 C   0  0  0  0  0  0  0  0  0  0  0  0
  149.0350  141.0236  154.5903 C   0  0  0  0  0  0  0  0  0  0  0  0
  150.2808  136.8864  158.0622 N   0  5  0  0  0  0  0  0  0  0  0  0
  149.0582  136.3321  158.6502 C   0  0  2  0  0  0  0  0  0  0  0  0
  147.8225  137.1406  158.2076 C   0  0  0  0  0  0  0  0  0  0  0  0
  146.6380  136.7599  159.1072 C   0  0  0  0  0  0  0  0  0  0  0  0
  147.3631  136.3712  160.7471 S   0  0  0  0  0  0  0  0  0  0  0  0
  147.1525  137.5064  161.6592 O   0  0  0  0  0  0  0  0  0  0  0  0
  146.9638  135.0096  161.1363 O   0  0  0  0  0  0  0  0  0  0  0  0
  149.1115  136.3690  160.1858 C   0  0  0  0  0  0  0  0  0  0  0  0
  149.7791  138.7968  156.8674 H   0  0  0  0  0  0  0  0  0  0  0  0
  152.3176  140.3034  159.1388 H   0  0  0  0  0  0  0  0  0  0  0  0
  152.8412  142.7238  159.1210 H   0  0  0  0  0  0  0  0  0  0  0  0
  151.4587  144.2634  157.6112 H   0  0  0  0  0  0  0  0  0  0  0  0
  147.0548  140.8481  157.0647 H   0  0  0  0  0  0  0  0  0  0  0  0
  147.7537  142.4648  156.9797 H   0  0  0  0  0  0  0  0  0  0  0  0
  146.2614  140.9400  154.8482 H   0  0  0  0  0  0  0  0  0  0  0  0
  146.1857  142.6687  155.1961 H   0  0  0  0  0  0  0  0  0  0  0  0
  147.6590  141.8303  153.0816 H   0  0  0  0  0  0  0  0  0  0  0  0
  148.3582  143.0313  154.1729 H   0  0  0  0  0  0  0  0  0  0  0  0
  150.0283  141.2885  154.2289 H   0  0  0  0  0  0  0  0  0  0  0  0
  148.8147  140.0276  154.2049 H   0  0  0  0  0  0  0  0  0  0  0  0
  148.8904  135.2978  158.3454 H   0  0  0  0  0  0  0  0  0  0  0  0
  148.0223  138.2063  158.3296 H   0  0  0  0  0  0  0  0  0  0  0  0
  147.5894  136.9791  157.1546 H   0  0  0  0  0  0  0  0  0  0  0  0
  145.9052  137.5612  159.2002 H   0  0  0  0  0  0  0  0  0  0  0  0
  146.1300  135.8673  158.7386 H   0  0  0  0  0  0  0  0  0  0  0  0
  149.6437  135.5184  160.6116 H   0  0  0  0  0  0  0  0  0  0  0  0
  149.5762  137.2874  160.5461 H   0  0  0  0  0  0  0  0  0  0  0  0
  149.7755  143.3445  156.3304 H   0  0  0  0  0  0  0  0  0  0  0  0
  1  2  2  0  0  0  0
  2  3  1  0  0  0  0
  2 15  1  0  0  0  0
  3  4  1  0  0  0  0
  3 23  1  0  0  0  0
  4  9  1  0  0  0  0
  4  5  2  0  0  0  0
  5  6  1  0  0  0  0
  5 24  1  0  0  0  0
  6  7  2  0  0  0  0
  6 25  1  0  0  0  0
  7  8  1  0  0  0  0
  7 26  1  0  0  0  0
  8  9  2  0  0  0  0
  8 42  1  0  0  0  0
  9 10  1  0  0  0  0
 10 14  1  0  0  0  0
 10 11  1  0  0  0  0
 11 12  1  0  0  0  0
 11 27  1  0  0  0  0
 11 28  1  0  0  0  0
 12 13  1  0  0  0  0
 12 29  1  0  0  0  0
 12 30  1  0  0  0  0
 13 14  1  0  0  0  0
 13 31  1  0  0  0  0
 13 32  1  0  0  0  0
 14 33  1  0  0  0  0
 14 34  1  0  0  0  0
 15 16  1  0  0  0  0
 16 22  1  0  0  0  0
 16 17  1  0  0  0  0
 16 35  1  0  0  0  0
 17 18  1  0  0  0  0
 17 36  1  0  0  0  0
 17 37  1  0  0  0  0
 18 19  1  0  0  0  0
 18 38  1  0  0  0  0
 18 39  1  0  0  0  0
 19 20  2  0  0  0  0
 19 21  2  0  0  0  0
 19 22  1  0  0  0  0
 22 40  1  0  0  0  0
 22 41  1  0  0  0  0
M  CHG  1   8   1
M  CHG  1  15  -1
M  END
> <s_m_source_file>
AV-unprocessed.smi

> <i_m_source_file_index>
2047

> <i_lp_mmshare_version>
43012

> <i_f3d_flags>
0

> <s_epik_input>
Tz1TMSg9TylbQ0gyXVtDSDJdW0NASF0oW0NIMl0xKVtOSF1DKD1PKVtOSF1jMltjSF1bY0hdW2NIXW5jMk4zW0NIMl1bQ0gyXVtDSDJdW0NIMl0z

> <s_epik_cmdline>
J2VwaWtfcHl0aG9uJywgJy1waCcsICc3LjAnLCAnLXRuJywgJzgnLCAnLW1hJywgJzIwMCcsICctbWV0YWxfYmluZGluZycsICctaW1hZScsICc8aW5maWxlLm1hZT4nLCAnLW9tYWUnLCAnPG91dGZpbGUubWFlPic=

> <r_lp_tautomer_probability>
0.999994

> <r_epik_Ionization_Penalty>
8.27033

> <r_epik_Ionization_Penalty_Charging>
8.27033

> <r_epik_Ionization_Penalty_Neutral>
3.23223e-06

> <r_epik_State_Penalty>
7.90314

> <r_epik_Charging_Adjusted_Penalty>
16.1735

> <i_epik_Tot_Q>
0

> <i_epik_Tot_abs_Q>
2

> <r_epik_Metal_State_Penalty>
3.89381

> <b_epik_Metal_Only>
1

> <s_lp_Force_Field>
OPLS_2005

> <r_lp_Energy>
38.7939

> <b_lp_Chiralities_Consistent>
1

> <s_lp_Variant>
AV-unprocessed.smi:2047-5

> <Gold.Version>
5.8.1

> <Gold.Id.Protein>
6NUR|6NUR_protein|mol2

> <Gold.PLP.Fitness>
38.6436

> <Gold.PLP.PLP>
-29.6134

> <Gold.PLP.part.hbond>
-3.0000

> <Gold.PLP.part.metal>
0.0000

> <Gold.PLP.part.buried>
-3.6726

> <Gold.PLP.part.nonpolar>
-22.6637

> <Gold.PLP.part.repulsive>
0.1427

> <Gold.PLP.ligand.clash>
0.0000

> <Gold.PLP.ligand.torsion>
0.9412

> <Gold.PLP.Chemscore.Hbond>
3.5778

> <Gold.PLP.Chemscore.CHOScore>
0.0000

> <Gold.PLP.Chemscore.Metal>
0.0000

> <Gold.Chemscore.Hbonds>
donor molecule, donor type, donor heavy atom, donor atom, acceptor molecule, acceptor atom, score
      L1  H     8    42       P1  8028  2.00
      P1  H  6931  6943       L1    20  0.70
      P1  H  6934  6947       L1    20  0.86

> <Gold.PLP.Chemscore.Internal.Correction>
0.1791

> <Gold.Rescore>
     Score         DG    S(hbond)    S(metal)    S(lipo)     H(rot)  DE(clash)    DE(int)     intcor
     15.35     -17.98       2.44        0.00      64.44       1.25       0.25       2.38       ----

> <Gold.Chemscore.Fitness>
15.3507

> <Gold.Chemscore.DG>
-17.9829

> <Gold.Chemscore.ZeroCoef>
-5.4800

> <Gold.Chemscore.Hbond>
2.4428

> <Gold.Chemscore.Metal>
0.0000

> <Gold.Chemscore.Lipo>
64.4350

> <Gold.Chemscore.Internal_Hbond>
0.0000

> <Gold.Chemscore.DEClash>
0.2512

> <Gold.Chemscore.DEInternal>
2.3809

> <Gold.Chemscore.Rot>
1.2480

> <Gold.Chemscore.Internal.Correction>
   9.000000E+99

> <Gold.Chemscore.Hbonds>
donor molecule, donor type, donor heavy atom, donor atom, acceptor molecule, acceptor atom, score
      L1  H     8    42       P1  8028  1.00
      P1  H  6931  6943       L1    20  0.29
      P1  H  6934  6947       L1    20  0.79

> <Gold.Chemscore.Hbond.Weighted>
-8.1588

> <Gold.Chemscore.Metal.Weighted>
-0.0000

> <Gold.Chemscore.Lipo.Weighted>
-7.5389

> <Gold.Chemscore.Internal_Hbond.Weighted>
0.0000

> <Gold.Chemscore.DEClash.Weighted>
0.2512

> <Gold.Chemscore.DEInternal.Weighted>
2.3809

> <Gold.Chemscore.Rot.Weighted>
3.1948

> <Gold.Chemscore.Internal.Correction.Weighted>
   9.000000E+99

> <Gold.Protein.RotatedTorsions>
[ 6907 6896 6895 6894 ] final   39.28 input  -60.11 | X-H torsion
[ 7974 7965 7964 7962 ] final -178.93 input  175.53 | X-H torsion
[ 8008 7997 7996 7995 ] final  -58.60 input   59.86 | X-H torsion
[ 10167 10162 10161 10158 ] final   36.76 input  -65.29 | X-H torsion
[ 10718 10713 10712 10709 ] final   13.37 input   66.30 | X-H torsion
[ 10763 10752 10751 10750 ] final  -68.99 input  -60.55 | X-H torsion
[ 11005 11000 10999 10996 ] final -170.71 input  -57.11 | X-H torsion

> <Gold.Protein.ActiveResidues>
 VAL166  LYS551  ARG553  GLY616  TRP617  ASP618  TYR619  PRO620  LYS621  CYS622 
 ASP623  PHE694  ASN695  SER759  ASP760  ASP761  ALA762  ILE779  LEU786  VAL792 
 PHE793  MET794  SER795  GLU796  ALA797  LYS798  CYS799  TRP800  GLU811  SER814 

> <Gold.Protein.RotatedAtoms>
  152.1675  134.8861  160.0536 H   0  0  0  0  0  0  0  0  0  0  0  0  # atno 6907 bound_to 6896
  151.9833  133.3760  159.4124 H   0  0  0  0  0  0  0  0  0  0  0  0  # atno 6908 bound_to 6896
  150.6897  134.3937  159.5132 H   0  0  0  0  0  0  0  0  0  0  0  0  # atno 6909 bound_to 6896
  144.7133  140.0794  143.6426 H   0  0  0  0  0  0  0  0  0  0  0  0  # atno 7974 bound_to 7965
  154.4315  140.1080  156.5982 H   0  0  0  0  0  0  0  0  0  0  0  0  # atno 8008 bound_to 7997
  155.5939  140.3492  155.4555 H   0  0  0  0  0  0  0  0  0  0  0  0  # atno 8009 bound_to 7997
  156.0225  140.1243  157.0332 H   0  0  0  0  0  0  0  0  0  0  0  0  # atno 8010 bound_to 7997
  140.4097  144.1609  150.6138 H   0  0  0  0  0  0  0  0  0  0  0  0  # atno 10167 bound_to 10162
  157.0237  130.6165  149.5725 H   0  0  0  0  0  0  0  0  0  0  0  0  # atno 10718 bound_to 10713
  154.3970  135.6040  153.5875 H   0  0  0  0  0  0  0  0  0  0  0  0  # atno 10763 bound_to 10752
  152.9788  135.5897  154.4230 H   0  0  0  0  0  0  0  0  0  0  0  0  # atno 10764 bound_to 10752
  154.4022  135.2843  155.2067 H   0  0  0  0  0  0  0  0  0  0  0  0  # atno 10765 bound_to 10752
  140.5164  134.5751  157.5035 H   0  0  0  0  0  0  0  0  0  0  0  0  # atno 11005 bound_to 11000
  145.9715  139.2873  143.1096 LP  0  0  0  0  0  0  0  0  0  0  0  0  # atno 17320 bound_to 7965
  145.9111  140.9179  143.0453 LP  0  0  0  0  0  0  0  0  0  0  0  0  # atno 17321 bound_to 7965
  140.4651  143.2434  151.9167 LP  0  0  0  0  0  0  0  0  0  0  0  0  # atno 17342 bound_to 10162
  139.4783  144.5428  151.8503 LP  0  0  0  0  0  0  0  0  0  0  0  0  # atno 17343 bound_to 10162
  156.0093  130.5183  150.7936 LP  0  0  0  0  0  0  0  0  0  0  0  0  # atno 17370 bound_to 10713
  157.5230  131.0932  151.0054 LP  0  0  0  0  0  0  0  0  0  0  0  0  # atno 17371 bound_to 10713
  139.9630  134.7421  156.0197 LP  0  0  0  0  0  0  0  0  0  0  0  0  # atno 17394 bound_to 11000
  141.1358  133.6575  156.3589 LP  0  0  0  0  0  0  0  0  0  0  0  0  # atno 17395 bound_to 11000

$$$$
