AV-unprocessed.smi:594|AV-procd|sdf|3017|dock1
  -GOLD-   2262023523D 1   1.00000     0.00000
 Structure written by MMmdl.
 40 41  0  0  0  0  0  0  0  0  3 V2000
  152.8117  142.6357  162.2543 C   0  0  0  0  0  0  0  0  0  0  0  0
  152.1862  143.1005  160.9263 C   0  0  1  0  0  0  0  0  0  0  0  0
  152.2012  144.6400  160.8336 C   0  0  0  0  0  0  0  0  0  0  0  0
  151.5717  145.1429  159.5257 C   0  0  0  0  0  0  0  0  0  0  0  0
  152.2734  144.5288  158.3071 C   0  0  0  0  0  0  0  0  0  0  0  0
  152.2489  142.9951  158.3757 C   0  0  0  0  0  0  0  0  0  0  0  0
  152.8728  142.4728  159.6849 C   0  0  2  0  0  0  0  0  0  0  0  0
  152.7614  141.0151  159.7103 N   0  0  0  0  0  0  0  0  0  0  0  0
  153.7648  140.1514  159.9306 C   0  0  0  0  0  0  0  0  0  0  0  0
  154.9332  140.4976  160.1101 O   0  0  0  0  0  0  0  0  0  0  0  0
  153.3820  138.6654  159.9408 C   0  0  0  0  0  0  0  0  0  0  0  0
  152.2523  138.3606  159.0467 N   0  0  0  0  0  0  0  0  0  0  0  0
  151.1167  137.7611  159.6269 C   0  0  0  0  0  0  0  0  0  0  0  0
  150.0251  137.4452  158.9028 C   0  0  0  0  0  0  0  0  0  0  0  0
  148.8666  136.8334  159.5155 N   0  3  0  0  0  0  0  0  0  0  0  0
  148.0153  136.3285  158.7904 O   0  0  0  0  0  0  0  0  0  0  0  0
  148.7689  136.8355  160.7390 O   0  5  0  0  0  0  0  0  0  0  0  0
  150.0481  137.7429  157.4836 C   0  0  0  0  0  0  0  0  0  0  0  0
  151.1298  138.3189  156.9232 C   0  0  0  0  0  0  0  0  0  0  0  0
  152.3161  138.6636  157.7137 C   0  0  0  0  0  0  0  0  0  0  0  0
  153.3066  139.1924  157.2081 O   0  0  0  0  0  0  0  0  0  0  0  0
  153.8759  142.8700  162.2930 H   0  0  0  0  0  0  0  0  0  0  0  0
  152.7021  141.5608  162.3980 H   0  0  0  0  0  0  0  0  0  0  0  0
  152.3333  143.1225  163.1045 H   0  0  0  0  0  0  0  0  0  0  0  0
  151.1420  142.7833  160.9310 H   0  0  0  0  0  0  0  0  0  0  0  0
  151.6655  145.0696  161.6810 H   0  0  0  0  0  0  0  0  0  0  0  0
  153.2280  145.0019  160.9040 H   0  0  0  0  0  0  0  0  0  0  0  0
  150.5114  144.8875  159.5064 H   0  0  0  0  0  0  0  0  0  0  0  0
  151.6293  146.2307  159.4790 H   0  0  0  0  0  0  0  0  0  0  0  0
  151.7919  144.8688  157.3898 H   0  0  0  0  0  0  0  0  0  0  0  0
  153.3059  144.8776  158.2634 H   0  0  0  0  0  0  0  0  0  0  0  0
  151.2178  142.6482  158.2926 H   0  0  0  0  0  0  0  0  0  0  0  0
  152.7827  142.5835  157.5181 H   0  0  0  0  0  0  0  0  0  0  0  0
  153.9240  142.7677  159.6888 H   0  0  0  0  0  0  0  0  0  0  0  0
  151.8376  140.6328  159.5688 H   0  0  0  0  0  0  0  0  0  0  0  0
  154.2475  138.0594  159.6653 H   0  0  0  0  0  0  0  0  0  0  0  0
  153.1511  138.3820  160.9685 H   0  0  0  0  0  0  0  0  0  0  0  0
  151.1952  137.5872  160.6905 H   0  0  0  0  0  0  0  0  0  0  0  0
  149.1983  137.5068  156.8602 H   0  0  0  0  0  0  0  0  0  0  0  0
  151.1252  138.5330  155.8644 H   0  0  0  0  0  0  0  0  0  0  0  0
  1  2  1  0  0  0  0
  1 22  1  0  0  0  0
  1 23  1  0  0  0  0
  1 24  1  0  0  0  0
  2  7  1  0  0  0  0
  2  3  1  0  0  0  0
  2 25  1  0  0  0  0
  3  4  1  0  0  0  0
  3 26  1  0  0  0  0
  3 27  1  0  0  0  0
  4  5  1  0  0  0  0
  4 28  1  0  0  0  0
  4 29  1  0  0  0  0
  5  6  1  0  0  0  0
  5 30  1  0  0  0  0
  5 31  1  0  0  0  0
  6  7  1  0  0  0  0
  6 32  1  0  0  0  0
  6 33  1  0  0  0  0
  7  8  1  0  0  0  0
  7 34  1  0  0  0  0
  8  9  1  0  0  0  0
  8 35  1  0  0  0  0
  9 10  2  0  0  0  0
  9 11  1  0  0  0  0
 11 12  1  0  0  0  0
 11 36  1  0  0  0  0
 11 37  1  0  0  0  0
 12 20  1  0  0  0  0
 12 13  1  0  0  0  0
 13 14  2  0  0  0  0
 13 38  1  0  0  0  0
 14 15  1  0  0  0  0
 14 18  1  0  0  0  0
 15 16  2  0  0  0  0
 15 17  1  0  0  0  0
 18 19  2  0  0  0  0
 18 39  1  0  0  0  0
 19 20  1  0  0  0  0
 19 40  1  0  0  0  0
 20 21  2  0  0  0  0
M  CHG  1  15   1
M  CHG  1  17  -1
M  END
> <s_m_source_file>
AV-unprocessed.smi

> <i_m_source_file_index>
594

> <i_lp_mmshare_version>
43012

> <i_f3d_flags>
0

> <s_epik_input>
W0NIM11bQ0BASF0xW0NIMl1bQ0gyXVtDSDJdW0NIMl1bQ0BIXTFbTkhdQyg9TylbQ0gyXW4yW2NIXWMoW04rXSg9TylbTy1dKVtjSF1bY0hdYzI9Tw==

> <s_epik_cmdline>
J2VwaWtfcHl0aG9uJywgJy1waCcsICc3LjAnLCAnLXRuJywgJzgnLCAnLW1hJywgJzIwMCcsICctbWV0YWxfYmluZGluZycsICctaW1hZScsICc8aW5maWxlLm1hZT4nLCAnLW9tYWUnLCAnPG91dGZpbGUubWFlPic=

> <r_lp_tautomer_probability>
1

> <r_epik_Ionization_Penalty>
1.91305e-08

> <r_epik_Ionization_Penalty_Charging>
8.35811e-11

> <r_epik_Ionization_Penalty_Neutral>
1.90469e-08

> <r_epik_State_Penalty>
-0

> <r_epik_Charging_Adjusted_Penalty>
8.35811e-11

> <i_epik_Tot_Q>
0

> <i_epik_Tot_abs_Q>
2

> <r_epik_Metal_State_Penalty>
-0

> <b_epik_Metal_Only>
0

> <s_lp_Force_Field>
OPLS_2005

> <r_lp_Energy>
21.4369

> <b_lp_Chiralities_Consistent>
1

> <s_lp_Variant>
AV-unprocessed.smi:594-4

> <Gold.Version>
5.8.1

> <Gold.Id.Protein>
6NUR|6NUR_protein|mol2

> <Gold.PLP.Fitness>
47.2349

> <Gold.PLP.PLP>
-42.6803

> <Gold.PLP.part.hbond>
-1.8022

> <Gold.PLP.part.metal>
0.0000

> <Gold.PLP.part.buried>
-7.1364

> <Gold.PLP.part.nonpolar>
-33.7776

> <Gold.PLP.part.repulsive>
0.1188

> <Gold.PLP.ligand.clash>
0.0000

> <Gold.PLP.ligand.torsion>
0.5537

> <Gold.PLP.Chemscore.Hbond>
1.8800

> <Gold.PLP.Chemscore.CHOScore>
0.0000

> <Gold.PLP.Chemscore.Metal>
0.0000

> <Gold.Chemscore.Hbonds>
donor molecule, donor type, donor heavy atom, donor atom, acceptor molecule, acceptor atom, score
      P1  H  6931  6943       L1    17  0.91
      P1  H  7997  8009       L1    21  0.99

> <Gold.PLP.Chemscore.Internal.Correction>
0.0220

> <Gold.Rescore>
     Score         DG    S(hbond)    S(metal)    S(lipo)     H(rot)  DE(clash)    DE(int)     intcor
     18.68     -20.31       1.88        0.00     106.91       1.55       0.20       1.42       ----

> <Gold.Chemscore.Fitness>
18.6814

> <Gold.Chemscore.DG>
-20.3086

> <Gold.Chemscore.ZeroCoef>
-5.4800

> <Gold.Chemscore.Hbond>
1.8829

> <Gold.Chemscore.Metal>
0.0000

> <Gold.Chemscore.Lipo>
106.9146

> <Gold.Chemscore.Internal_Hbond>
0.0000

> <Gold.Chemscore.DEClash>
0.2039

> <Gold.Chemscore.DEInternal>
1.4233

> <Gold.Chemscore.Rot>
1.5505

> <Gold.Chemscore.Internal.Correction>
   9.000000E+99

> <Gold.Chemscore.Hbonds>
donor molecule, donor type, donor heavy atom, donor atom, acceptor molecule, acceptor atom, score
      P1  H  6931  6943       L1    17  0.89
      P1  H  7997  8009       L1    21  0.91

> <Gold.Chemscore.Hbond.Weighted>
-6.2888

> <Gold.Chemscore.Metal.Weighted>
-0.0000

> <Gold.Chemscore.Lipo.Weighted>
-12.5090

> <Gold.Chemscore.Internal_Hbond.Weighted>
0.0000

> <Gold.Chemscore.DEClash.Weighted>
0.2039

> <Gold.Chemscore.DEInternal.Weighted>
1.4233

> <Gold.Chemscore.Rot.Weighted>
3.9692

> <Gold.Chemscore.Internal.Correction.Weighted>
   9.000000E+99

> <Gold.Protein.RotatedTorsions>
[ 6907 6896 6895 6894 ] final  -73.43 input  -60.11 | X-H torsion
[ 7974 7965 7964 7962 ] final   27.48 input  175.53 | X-H torsion
[ 8008 7997 7996 7995 ] final  156.68 input   59.86 | X-H torsion
[ 10167 10162 10161 10158 ] final  135.00 input  -65.29 | X-H torsion
[ 10718 10713 10712 10709 ] final   67.34 input   66.30 | X-H torsion
[ 10763 10752 10751 10750 ] final   57.52 input  -60.55 | X-H torsion
[ 11005 11000 10999 10996 ] final   34.43 input  -57.11 | X-H torsion

> <Gold.Protein.ActiveResidues>
 VAL166  LYS551  ARG553  GLY616  TRP617  ASP618  TYR619  PRO620  LYS621  CYS622 
 ASP623  PHE694  ASN695  SER759  ASP760  ASP761  ALA762  ILE779  LEU786  VAL792 
 PHE793  MET794  SER795  GLU796  ALA797  LYS798  CYS799  TRP800  GLU811  SER814 

> <Gold.Protein.RotatedAtoms>
  150.7130  134.5017  159.5564 H   0  0  0  0  0  0  0  0  0  0  0  0  # atno 6907 bound_to 6896
  152.2613  134.8028  160.0439 H   0  0  0  0  0  0  0  0  0  0  0  0  # atno 6908 bound_to 6896
  151.8740  133.3446  159.3781 H   0  0  0  0  0  0  0  0  0  0  0  0  # atno 6909 bound_to 6896
  146.1782  139.7185  142.8919 H   0  0  0  0  0  0  0  0  0  0  0  0  # atno 7974 bound_to 7965
  156.2408  140.1906  156.6993 H   0  0  0  0  0  0  0  0  0  0  0  0  # atno 8008 bound_to 7997
  154.6194  140.0611  156.9622 H   0  0  0  0  0  0  0  0  0  0  0  0  # atno 8009 bound_to 7997
  155.1887  140.3282  155.4365 H   0  0  0  0  0  0  0  0  0  0  0  0  # atno 8010 bound_to 7997
  139.5234  144.6539  151.5221 H   0  0  0  0  0  0  0  0  0  0  0  0  # atno 10167 bound_to 10162
  157.6224  130.9316  150.0229 H   0  0  0  0  0  0  0  0  0  0  0  0  # atno 10718 bound_to 10713
  152.9851  135.5639  154.5404 H   0  0  0  0  0  0  0  0  0  0  0  0  # atno 10763 bound_to 10752
  154.4859  135.2790  155.1536 H   0  0  0  0  0  0  0  0  0  0  0  0  # atno 10764 bound_to 10752
  154.3026  135.6304  153.5484 H   0  0  0  0  0  0  0  0  0  0  0  0  # atno 10765 bound_to 10752
  140.2529  134.3282  155.7884 H   0  0  0  0  0  0  0  0  0  0  0  0  # atno 11005 bound_to 11000
  145.4153  141.0401  143.2994 LP  0  0  0  0  0  0  0  0  0  0  0  0  # atno 17320 bound_to 7965
  144.8270  139.5693  143.6961 LP  0  0  0  0  0  0  0  0  0  0  0  0  # atno 17321 bound_to 7965
  140.6356  143.8991  150.6644 LP  0  0  0  0  0  0  0  0  0  0  0  0  # atno 17342 bound_to 10162
  140.2309  143.3736  152.1566 LP  0  0  0  0  0  0  0  0  0  0  0  0  # atno 17343 bound_to 10162
  156.1377  130.3642  149.9631 LP  0  0  0  0  0  0  0  0  0  0  0  0  # atno 17370 bound_to 10713
  156.7679  130.9175  151.3643 LP  0  0  0  0  0  0  0  0  0  0  0  0  # atno 17371 bound_to 10713
  141.2199  133.7364  156.9065 LP  0  0  0  0  0  0  0  0  0  0  0  0  # atno 17394 bound_to 11000
  140.1540  134.9210  157.2630 LP  0  0  0  0  0  0  0  0  0  0  0  0  # atno 17395 bound_to 11000

$$$$
