AV-unprocessed.smi:2032|AV-procd|sdf|8237|dock4
  -GOLD-   2272010503D 1   1.00000     0.00000
 Structure written by MMmdl.
 43 44  0  0  0  0  0  0  0  0  2 V2000
  152.5672  138.4085  154.6653 C   0  0  0  0  0  0  0  0  0  0  0  0
  151.3249  139.0916  155.2485 C   0  0  2  0  0  0  0  0  0  0  0  0
  150.0323  138.6360  154.5450 C   0  0  0  0  0  0  0  0  0  0  0  0
  148.8521  139.3823  155.0597 N   0  3  2  0  0  0  0  0  0  0  0  0
  147.5168  138.9644  154.5175 C   0  0  2  0  0  0  0  0  0  0  0  0
  146.4404  139.9911  154.9383 C   0  0  0  0  0  0  0  0  0  0  0  0
  147.0968  137.5233  154.9230 C   0  0  0  0  0  0  0  0  0  0  0  0
  147.1453  136.5777  153.8096 N   0  0  0  0  0  0  0  0  0  0  0  0
  146.1272  135.8058  153.4001 C   0  0  0  0  0  0  0  0  0  0  0  0
  145.0136  135.8184  153.9254 O   0  0  0  0  0  0  0  0  0  0  0  0
  146.4850  135.0404  152.3542 N   0  0  0  0  0  0  0  0  0  0  0  0
  145.6739  134.1514  151.6011 C   0  0  0  0  0  0  0  0  0  0  0  0
  144.3367  134.1279  151.6464 N   0  0  0  0  0  0  0  0  0  0  0  0
  143.8001  133.1603  150.7933 C   0  0  0  0  0  0  0  0  0  0  0  0
  144.7499  132.4518  150.1006 C   0  0  0  0  0  0  0  0  0  0  0  0
  146.3658  132.9738  150.4951 S   0  0  0  0  0  0  0  0  0  0  0  0
  149.0936  140.8433  154.9101 C   0  0  0  0  0  0  0  0  0  0  0  0
  150.4048  141.2770  155.5912 C   0  0  1  0  0  0  0  0  0  0  0  0
  150.3300  141.2782  157.1288 C   0  0  0  0  0  0  0  0  0  0  0  0
  151.4902  140.4970  155.0966 O   0  0  0  0  0  0  0  0  0  0  0  0
  152.5073  137.3252  154.7724 H   0  0  0  0  0  0  0  0  0  0  0  0
  153.4710  138.7421  155.1759 H   0  0  0  0  0  0  0  0  0  0  0  0
  152.6821  138.6343  153.6047 H   0  0  0  0  0  0  0  0  0  0  0  0
  151.2720  138.8404  156.3080 H   0  0  0  0  0  0  0  0  0  0  0  0
  150.1128  138.7801  153.4661 H   0  0  0  0  0  0  0  0  0  0  0  0
  149.9272  137.5669  154.7271 H   0  0  0  0  0  0  0  0  0  0  0  0
  147.5881  138.9741  153.4287 H   0  0  0  0  0  0  0  0  0  0  0  0
  145.4782  139.7814  154.4721 H   0  0  0  0  0  0  0  0  0  0  0  0
  146.6908  141.0104  154.6511 H   0  0  0  0  0  0  0  0  0  0  0  0
  146.2924  139.9819  156.0187 H   0  0  0  0  0  0  0  0  0  0  0  0
  147.7834  137.1217  155.6682 H   0  0  0  0  0  0  0  0  0  0  0  0
  146.1067  137.5289  155.3826 H   0  0  0  0  0  0  0  0  0  0  0  0
  148.0236  136.5013  153.3176 H   0  0  0  0  0  0  0  0  0  0  0  0
  147.4423  135.1193  152.0445 H   0  0  0  0  0  0  0  0  0  0  0  0
  142.7278  133.0439  150.7399 H   0  0  0  0  0  0  0  0  0  0  0  0
  144.5968  131.6580  149.3847 H   0  0  0  0  0  0  0  0  0  0  0  0
  149.1429  141.0849  153.8471 H   0  0  0  0  0  0  0  0  0  0  0  0
  148.2737  141.4302  155.3194 H   0  0  0  0  0  0  0  0  0  0  0  0
  150.6115  142.3035  155.2868 H   0  0  0  0  0  0  0  0  0  0  0  0
  149.5793  141.9877  157.4774 H   0  0  0  0  0  0  0  0  0  0  0  0
  151.2857  141.5708  157.5640 H   0  0  0  0  0  0  0  0  0  0  0  0
  150.0625  140.3024  157.5330 H   0  0  0  0  0  0  0  0  0  0  0  0
  148.8208  139.1891  156.0506 H   0  0  0  0  0  0  0  0  0  0  0  0
  1  2  1  0  0  0  0
  1 21  1  0  0  0  0
  1 22  1  0  0  0  0
  1 23  1  0  0  0  0
  2 20  1  0  0  0  0
  2  3  1  0  0  0  0
  2 24  1  0  0  0  0
  3  4  1  0  0  0  0
  3 25  1  0  0  0  0
  3 26  1  0  0  0  0
  4  5  1  0  0  0  0
  4 17  1  0  0  0  0
  4 43  1  0  0  0  0
  5  6  1  0  0  0  0
  5  7  1  0  0  0  0
  5 27  1  0  0  0  0
  6 28  1  0  0  0  0
  6 29  1  0  0  0  0
  6 30  1  0  0  0  0
  7  8  1  0  0  0  0
  7 31  1  0  0  0  0
  7 32  1  0  0  0  0
  8  9  1  0  0  0  0
  8 33  1  0  0  0  0
  9 10  2  0  0  0  0
  9 11  1  0  0  0  0
 11 12  1  0  0  0  0
 11 34  1  0  0  0  0
 12 16  1  0  0  0  0
 12 13  2  0  0  0  0
 13 14  1  0  0  0  0
 14 15  2  0  0  0  0
 14 35  1  0  0  0  0
 15 16  1  0  0  0  0
 15 36  1  0  0  0  0
 17 18  1  0  0  0  0
 17 37  1  0  0  0  0
 17 38  1  0  0  0  0
 18 19  1  0  0  0  0
 18 20  1  0  0  0  0
 18 39  1  0  0  0  0
 19 40  1  0  0  0  0
 19 41  1  0  0  0  0
 19 42  1  0  0  0  0
M  CHG  1   4   1
M  END
> <s_m_source_file>
AV-unprocessed.smi

> <i_m_source_file_index>
2032

> <i_lp_mmshare_version>
43012

> <i_f3d_flags>
0

> <s_epik_input>
W0NIM11bQ0BASF0xW0NIMl1OKFtDSDJdW0NASF0oTzEpW0NIM10pW0NASF0oW0NIM10pW0NIMl1bTkhdQyg9TylbTkhdYzJuW2NIXVtjSF1zMg==

> <s_epik_cmdline>
J2VwaWtfcHl0aG9uJywgJy1waCcsICc3LjAnLCAnLXRuJywgJzgnLCAnLW1hJywgJzIwMCcsICctbWV0YWxfYmluZGluZycsICctaW1hZScsICc8aW5maWxlLm1hZT4nLCAnLW9tYWUnLCAnPG91dGZpbGUubWFlPic=

> <r_lp_tautomer_probability>
0.999

> <r_epik_Ionization_Penalty>
0.695838

> <r_epik_Ionization_Penalty_Charging>
0.695697

> <r_epik_Ionization_Penalty_Neutral>
0.000141198

> <r_epik_State_Penalty>
0.717972

> <r_epik_Charging_Adjusted_Penalty>
1.41367

> <i_epik_Tot_Q>
1

> <i_epik_Tot_abs_Q>
1

> <r_epik_Metal_State_Penalty>
0.756405

> <b_epik_Metal_Only>
0

> <s_lp_Force_Field>
OPLS_2005

> <r_lp_Energy>
21.5501

> <b_lp_Chiralities_Consistent>
1

> <s_lp_Variant>
AV-unprocessed.smi:2032-7

> <Gold.Version>
5.8.1

> <Gold.Id.Protein>
6NUR|6NUR_protein|mol2

> <Gold.PLP.Fitness>
41.7689

> <Gold.PLP.PLP>
-32.0122

> <Gold.PLP.part.hbond>
-3.0000

> <Gold.PLP.part.metal>
0.0000

> <Gold.PLP.part.buried>
-4.0215

> <Gold.PLP.part.nonpolar>
-25.2168

> <Gold.PLP.part.repulsive>
0.2370

> <Gold.PLP.ligand.clash>
0.0000

> <Gold.PLP.ligand.torsion>
0.9072

> <Gold.PLP.Chemscore.Hbond>
2.8400

> <Gold.PLP.Chemscore.CHOScore>
1.0000

> <Gold.PLP.Chemscore.Metal>
0.0000

> <Gold.Chemscore.Hbonds>
donor molecule, donor type, donor heavy atom, donor atom, acceptor molecule, acceptor atom, score
      L1  H     8    33       P1  7948  1.00
      L1  H    11    34       P1  7948  0.96
      P1  H  7989  7998       L1    20  0.88
      L1  C    14    35       P1 10186  1.00

> <Gold.PLP.Chemscore.Internal.Correction>
0.0512

> <Gold.Rescore>
     Score         DG    S(hbond)    S(metal)    S(lipo)     H(rot)  DE(clash)    DE(int)     intcor
     16.35     -18.53       2.52        0.00      74.74       1.61       0.04       2.14       ----

> <Gold.Chemscore.Fitness>
16.3510

> <Gold.Chemscore.DG>
-18.5251

> <Gold.Chemscore.ZeroCoef>
-5.4800

> <Gold.Chemscore.Hbond>
2.5225

> <Gold.Chemscore.Metal>
0.0000

> <Gold.Chemscore.Lipo>
74.7364

> <Gold.Chemscore.Internal_Hbond>
0.0000

> <Gold.Chemscore.DEClash>
0.0383

> <Gold.Chemscore.DEInternal>
2.1358

> <Gold.Chemscore.Rot>
1.6110

> <Gold.Chemscore.Internal.Correction>
   9.000000E+99

> <Gold.Chemscore.Hbonds>
donor molecule, donor type, donor heavy atom, donor atom, acceptor molecule, acceptor atom, score
      L1  H     8    33       P1  7948  0.96
      L1  H    11    34       P1  7948  0.89
      P1  H  7989  7998       L1    20  0.35

> <Gold.Chemscore.Hbond.Weighted>
-8.4251

> <Gold.Chemscore.Metal.Weighted>
-0.0000

> <Gold.Chemscore.Lipo.Weighted>
-8.7442

> <Gold.Chemscore.Internal_Hbond.Weighted>
0.0000

> <Gold.Chemscore.DEClash.Weighted>
0.0383

> <Gold.Chemscore.DEInternal.Weighted>
2.1358

> <Gold.Chemscore.Rot.Weighted>
4.1242

> <Gold.Chemscore.Internal.Correction.Weighted>
   9.000000E+99

> <Gold.Protein.RotatedTorsions>
[ 6907 6896 6895 6894 ] final -101.73 input  -60.11 | X-H torsion
[ 7974 7965 7964 7962 ] final  -47.44 input  175.53 | X-H torsion
[ 8008 7997 7996 7995 ] final -137.97 input   59.86 | X-H torsion
[ 10167 10162 10161 10158 ] final  -31.35 input  -65.29 | X-H torsion
[ 10718 10713 10712 10709 ] final -120.61 input   66.30 | X-H torsion
[ 10763 10752 10751 10750 ] final -125.35 input  -60.55 | X-H torsion
[ 11005 11000 10999 10996 ] final  -80.02 input  -57.11 | X-H torsion

> <Gold.Protein.ActiveResidues>
 VAL166  LYS551  ARG553  GLY616  TRP617  ASP618  TYR619  PRO620  LYS621  CYS622 
 ASP623  PHE694  ASN695  SER759  ASP760  ASP761  ALA762  ILE779  LEU786  VAL792 
 PHE793  MET794  SER795  GLU796  ALA797  LYS798  CYS799  TRP800  GLU811  SER814 

> <Gold.Protein.RotatedAtoms>
  150.7166  134.0689  159.3857 H   0  0  0  0  0  0  0  0  0  0  0  0  # atno 6907 bound_to 6896
  151.8671  135.0501  160.0485 H   0  0  0  0  0  0  0  0  0  0  0  0  # atno 6908 bound_to 6896
  152.2672  133.5314  159.5454 H   0  0  0  0  0  0  0  0  0  0  0  0  # atno 6909 bound_to 6896
  145.9615  140.7474  142.9455 H   0  0  0  0  0  0  0  0  0  0  0  0  # atno 7974 bound_to 7965
  155.4206  140.0518  157.3026 H   0  0  0  0  0  0  0  0  0  0  0  0  # atno 8008 bound_to 7997
  154.4904  140.2118  155.9520 H   0  0  0  0  0  0  0  0  0  0  0  0  # atno 8009 bound_to 7997
  156.1334  140.3167  155.8389 H   0  0  0  0  0  0  0  0  0  0  0  0  # atno 8010 bound_to 7997
  140.7237  143.3778  151.1657 H   0  0  0  0  0  0  0  0  0  0  0  0  # atno 10167 bound_to 10162
  156.1272  130.6368  150.9562 H   0  0  0  0  0  0  0  0  0  0  0  0  # atno 10718 bound_to 10713
  154.8735  135.4032  154.3254 H   0  0  0  0  0  0  0  0  0  0  0  0  # atno 10763 bound_to 10752
  153.4076  135.7020  153.6387 H   0  0  0  0  0  0  0  0  0  0  0  0  # atno 10764 bound_to 10752
  153.5103  135.3708  155.2554 H   0  0  0  0  0  0  0  0  0  0  0  0  # atno 10765 bound_to 10752
  141.1668  133.7131  156.8210 H   0  0  0  0  0  0  0  0  0  0  0  0  # atno 11005 bound_to 11000
  144.6816  140.2599  143.7320 LP  0  0  0  0  0  0  0  0  0  0  0  0  # atno 17320 bound_to 7965
  145.8033  139.1973  143.2035 LP  0  0  0  0  0  0  0  0  0  0  0  0  # atno 17321 bound_to 7965
  139.7361  143.8996  152.3035 LP  0  0  0  0  0  0  0  0  0  0  0  0  # atno 17342 bound_to 10162
  139.8802  144.7022  150.8887 LP  0  0  0  0  0  0  0  0  0  0  0  0  # atno 17343 bound_to 10162
  157.6453  131.0905  150.8167 LP  0  0  0  0  0  0  0  0  0  0  0  0  # atno 17370 bound_to 10713
  156.8256  130.4998  149.5337 LP  0  0  0  0  0  0  0  0  0  0  0  0  # atno 17371 bound_to 10713
  140.2119  134.8821  157.3284 LP  0  0  0  0  0  0  0  0  0  0  0  0  # atno 17394 bound_to 11000
  140.2078  134.4176  155.7629 LP  0  0  0  0  0  0  0  0  0  0  0  0  # atno 17395 bound_to 11000

$$$$
