AV-unprocessed.smi:2521|AV-procd|sdf|9918|dock8
  -GOLD-   2272013553D 1   1.00000     0.00000
 Structure written by MMmdl.
 35 36  0  0  0  0  0  0  0  0  2 V2000
  148.4989  141.6768  154.3848 C   0  0  0  0  0  0  0  0  0  0  0  0
  148.9137  140.8229  155.5918 C   0  0  0  0  0  0  0  0  0  0  0  0
  149.5298  141.6479  156.7311 C   0  0  0  0  0  0  0  0  0  0  0  0
  149.7834  139.6710  155.1956 C   0  0  0  0  0  0  0  0  0  0  0  0
  151.0285  139.8204  154.7329 N   0  0  0  0  0  0  0  0  0  0  0  0
  151.6276  138.6053  154.4362 N   0  0  0  0  0  0  0  0  0  0  0  0
  150.8283  137.5547  154.6680 C   0  0  0  0  0  0  0  0  0  0  0  0
  151.2200  136.2888  154.4488 N   0  5  0  0  0  0  0  0  0  0  0  0
  150.5649  135.2658  155.0437 C   0  0  0  0  0  0  0  0  0  0  0  0
  150.8456  134.7492  156.1276 O   0  0  0  0  0  0  0  0  0  0  0  0
  149.5215  134.8098  154.3383 N   0  0  0  0  0  0  0  0  0  0  0  0
  148.6477  133.7158  154.7428 C   0  0  0  0  0  0  0  0  0  0  0  0
  149.0798  132.3945  154.0865 C   0  0  1  0  0  0  0  0  0  0  0  0
  150.1820  131.6690  154.8296 C   0  0  0  0  0  0  0  0  0  0  0  0
  150.0687  130.2601  154.2566 C   0  0  0  0  0  0  0  0  0  0  0  0
  148.6869  130.0707  153.9665 O   0  0  0  0  0  0  0  0  0  0  0  0
  147.9960  131.3153  154.0397 C   0  0  0  0  0  0  0  0  0  0  0  0
  149.2466  138.0022  155.3054 S   0  0  0  0  0  0  0  0  0  0  0  0
  147.9882  141.0722  153.6346 H   0  0  0  0  0  0  0  0  0  0  0  0
  149.3648  142.1373  153.9081 H   0  0  0  0  0  0  0  0  0  0  0  0
  147.8198  142.4757  154.6833 H   0  0  0  0  0  0  0  0  0  0  0  0
  147.9950  140.3905  155.9902 H   0  0  0  0  0  0  0  0  0  0  0  0
  149.7329  141.0235  157.6016 H   0  0  0  0  0  0  0  0  0  0  0  0
  148.8573  142.4459  157.0466 H   0  0  0  0  0  0  0  0  0  0  0  0
  150.4701  142.1074  156.4246 H   0  0  0  0  0  0  0  0  0  0  0  0
  149.3213  135.2586  153.4567 H   0  0  0  0  0  0  0  0  0  0  0  0
  148.6767  133.6130  155.8287 H   0  0  0  0  0  0  0  0  0  0  0  0
  147.6194  133.9583  154.4708 H   0  0  0  0  0  0  0  0  0  0  0  0
  149.4225  132.5910  153.0690 H   0  0  0  0  0  0  0  0  0  0  0  0
  151.1664  132.1120  154.6761 H   0  0  0  0  0  0  0  0  0  0  0  0
  149.9756  131.6547  155.9008 H   0  0  0  0  0  0  0  0  0  0  0  0
  150.6324  130.1818  153.3261 H   0  0  0  0  0  0  0  0  0  0  0  0
  150.4408  129.4993  154.9430 H   0  0  0  0  0  0  0  0  0  0  0  0
  147.4021  131.3243  154.9546 H   0  0  0  0  0  0  0  0  0  0  0  0
  147.3168  131.4423  153.1964 H   0  0  0  0  0  0  0  0  0  0  0  0
  1  2  1  0  0  0  0
  1 19  1  0  0  0  0
  1 20  1  0  0  0  0
  1 21  1  0  0  0  0
  2  3  1  0  0  0  0
  2  4  1  0  0  0  0
  2 22  1  0  0  0  0
  3 23  1  0  0  0  0
  3 24  1  0  0  0  0
  3 25  1  0  0  0  0
  4 18  1  0  0  0  0
  4  5  2  0  0  0  0
  5  6  1  0  0  0  0
  6  7  2  0  0  0  0
  7  8  1  0  0  0  0
  7 18  1  0  0  0  0
  8  9  1  0  0  0  0
  9 10  2  0  0  0  0
  9 11  1  0  0  0  0
 11 12  1  0  0  0  0
 11 26  1  0  0  0  0
 12 13  1  0  0  0  0
 12 27  1  0  0  0  0
 12 28  1  0  0  0  0
 13 17  1  0  0  0  0
 13 14  1  0  0  0  0
 13 29  1  0  0  0  0
 14 15  1  0  0  0  0
 14 30  1  0  0  0  0
 14 31  1  0  0  0  0
 15 16  1  0  0  0  0
 15 32  1  0  0  0  0
 15 33  1  0  0  0  0
 16 17  1  0  0  0  0
 17 34  1  0  0  0  0
 17 35  1  0  0  0  0
M  CHG  1   8  -1
M  END
> <s_m_source_file>
AV-unprocessed.smi

> <i_m_source_file_index>
2521

> <i_lp_mmshare_version>
43012

> <i_f3d_flags>
0

> <s_epik_input>
W0NIM11bQ0hdKFtDSDNdKWMxbm5jKHMxKVtOSF1DKD1PKVtOSF1bQ0gyXVtDQEBIXTJbQ0gyXVtDSDJdT1tDSDJdMg==

> <s_epik_cmdline>
J2VwaWtfcHl0aG9uJywgJy1waCcsICc3LjAnLCAnLXRuJywgJzgnLCAnLW1hJywgJzIwMCcsICctbWV0YWxfYmluZGluZycsICctaW1hZScsICc8aW5maWxlLm1hZT4nLCAnLW9tYWUnLCAnPG91dGZpbGUubWFlPic=

> <r_lp_tautomer_probability>
1

> <r_epik_Ionization_Penalty>
4.4451

> <r_epik_Ionization_Penalty_Charging>
4.28522

> <r_epik_Ionization_Penalty_Neutral>
0.159875

> <r_epik_State_Penalty>
4.28479

> <r_epik_Charging_Adjusted_Penalty>
8.57002

> <i_epik_Tot_Q>
-1

> <i_epik_Tot_abs_Q>
1

> <r_epik_Metal_State_Penalty>
0.721771

> <b_epik_Metal_Only>
1

> <s_lp_Force_Field>
OPLS_2005

> <r_lp_Energy>
10.1938

> <b_lp_Chiralities_Consistent>
1

> <s_lp_Variant>
AV-unprocessed.smi:2521-4

> <Gold.Version>
5.8.1

> <Gold.Id.Protein>
6NUR|6NUR_protein|mol2

> <Gold.PLP.Fitness>
36.7279

> <Gold.PLP.PLP>
-27.3230

> <Gold.PLP.part.hbond>
-3.0000

> <Gold.PLP.part.metal>
0.0000

> <Gold.PLP.part.buried>
-4.5236

> <Gold.PLP.part.nonpolar>
-21.3851

> <Gold.PLP.part.repulsive>
1.1634

> <Gold.PLP.ligand.clash>
0.0000

> <Gold.PLP.ligand.torsion>
1.2798

> <Gold.PLP.Chemscore.Hbond>
3.9500

> <Gold.PLP.Chemscore.CHOScore>
0.0000

> <Gold.PLP.Chemscore.Metal>
0.0000

> <Gold.Chemscore.Hbonds>
donor molecule, donor type, donor heavy atom, donor atom, acceptor molecule, acceptor atom, score
      L1  H    11    26       P1  7948  0.90
      P1  H  7989  7998       L1     5  1.00
      P1  H 10752 10764       L1     8  2.00

> <Gold.PLP.Chemscore.Internal.Correction>
0.1145

> <Gold.Rescore>
     Score         DG    S(hbond)    S(metal)    S(lipo)     H(rot)  DE(clash)    DE(int)     intcor
     13.98     -15.69       2.38        0.00      50.47       1.42       0.38       1.33       ----

> <Gold.Chemscore.Fitness>
13.9759

> <Gold.Chemscore.DG>
-15.6861

> <Gold.Chemscore.ZeroCoef>
-5.4800

> <Gold.Chemscore.Hbond>
2.3755

> <Gold.Chemscore.Metal>
0.0000

> <Gold.Chemscore.Lipo>
50.4726

> <Gold.Chemscore.Internal_Hbond>
0.0000

> <Gold.Chemscore.DEClash>
0.3848

> <Gold.Chemscore.DEInternal>
1.3253

> <Gold.Chemscore.Rot>
1.4193

> <Gold.Chemscore.Internal.Correction>
   9.000000E+99

> <Gold.Chemscore.Hbonds>
donor molecule, donor type, donor heavy atom, donor atom, acceptor molecule, acceptor atom, score
      L1  H    11    26       P1  7948  0.18
      P1  H  7989  7998       L1     5  0.40
      P1  H 10752 10764       L1     8  0.26

> <Gold.Chemscore.Hbond.Weighted>
-7.9341

> <Gold.Chemscore.Metal.Weighted>
-0.0000

> <Gold.Chemscore.Lipo.Weighted>
-5.9053

> <Gold.Chemscore.Internal_Hbond.Weighted>
0.0000

> <Gold.Chemscore.DEClash.Weighted>
0.3848

> <Gold.Chemscore.DEInternal.Weighted>
1.3253

> <Gold.Chemscore.Rot.Weighted>
3.6333

> <Gold.Chemscore.Internal.Correction.Weighted>
   9.000000E+99

> <Gold.Protein.RotatedTorsions>
[ 6907 6896 6895 6894 ] final -139.15 input  -60.11 | X-H torsion
[ 7974 7965 7964 7962 ] final   11.20 input  175.53 | X-H torsion
[ 8008 7997 7996 7995 ] final  -84.88 input   59.86 | X-H torsion
[ 10167 10162 10161 10158 ] final  112.81 input  -65.29 | X-H torsion
[ 10718 10713 10712 10709 ] final -141.56 input   66.30 | X-H torsion
[ 10763 10752 10751 10750 ] final  -69.57 input  -60.55 | X-H torsion
[ 11005 11000 10999 10996 ] final  -88.59 input  -57.11 | X-H torsion

> <Gold.Protein.ActiveResidues>
 VAL166  LYS551  ARG553  GLY616  TRP617  ASP618  TYR619  PRO620  LYS621  CYS622 
 ASP623  PHE694  ASN695  SER759  ASP760  ASP761  ALA762  ILE779  LEU786  VAL792 
 PHE793  MET794  SER795  GLU796  ALA797  LYS798  CYS799  TRP800  GLU811  SER814 

> <Gold.Protein.RotatedAtoms>
  151.0441  133.5681  159.2648 H   0  0  0  0  0  0  0  0  0  0  0  0  # atno 6907 bound_to 6896
  151.2716  135.0685  159.9146 H   0  0  0  0  0  0  0  0  0  0  0  0  # atno 6908 bound_to 6896
  152.5370  134.0170  159.8018 H   0  0  0  0  0  0  0  0  0  0  0  0  # atno 6909 bound_to 6896
  146.2375  139.9520  142.8469 H   0  0  0  0  0  0  0  0  0  0  0  0  # atno 7974 bound_to 7965
  154.6346  140.0599  156.9774 H   0  0  0  0  0  0  0  0  0  0  0  0  # atno 8008 bound_to 7997
  155.1611  140.3282  155.4393 H   0  0  0  0  0  0  0  0  0  0  0  0  # atno 8009 bound_to 7997
  156.2500  140.1930  156.6718 H   0  0  0  0  0  0  0  0  0  0  0  0  # atno 8010 bound_to 7997
  139.6508  144.7128  151.2052 H   0  0  0  0  0  0  0  0  0  0  0  0  # atno 10167 bound_to 10162
  156.3355  130.7609  151.1735 H   0  0  0  0  0  0  0  0  0  0  0  0  # atno 10718 bound_to 10713
  154.4053  135.6021  153.5921 H   0  0  0  0  0  0  0  0  0  0  0  0  # atno 10763 bound_to 10752
  152.9789  135.5916  154.4135 H   0  0  0  0  0  0  0  0  0  0  0  0  # atno 10764 bound_to 10752
  154.3939  135.2842  155.2116 H   0  0  0  0  0  0  0  0  0  0  0  0  # atno 10765 bound_to 10752
  141.1599  133.7579  156.9474 H   0  0  0  0  0  0  0  0  0  0  0  0  # atno 11005 bound_to 11000
  145.1852  140.9786  143.4243 LP  0  0  0  0  0  0  0  0  0  0  0  0  # atno 17320 bound_to 7965
  144.9906  139.3693  143.6216 LP  0  0  0  0  0  0  0  0  0  0  0  0  # atno 17321 bound_to 7965
  140.7536  143.6154  150.8565 LP  0  0  0  0  0  0  0  0  0  0  0  0  # atno 17342 bound_to 10162
  139.9802  143.5960  152.2945 LP  0  0  0  0  0  0  0  0  0  0  0  0  # atno 17343 bound_to 10162
  157.7438  131.0469  150.4918 LP  0  0  0  0  0  0  0  0  0  0  0  0  # atno 17370 bound_to 10713
  156.5090  130.4135  149.6311 LP  0  0  0  0  0  0  0  0  0  0  0  0  # atno 17371 bound_to 10713
  140.1280  134.9374  157.2298 LP  0  0  0  0  0  0  0  0  0  0  0  0  # atno 17394 bound_to 11000
  140.2988  134.3156  155.7295 LP  0  0  0  0  0  0  0  0  0  0  0  0  # atno 17395 bound_to 11000

$$$$
