AV-unprocessed.smi:3112|AV-procd|sdf|11842|dock6
  -GOLD-   2272017223D 1   1.00000     0.00000
 Structure written by MMmdl.
 37 37  0  0  0  0  0  0  0  0  2 V2000
  145.4739  135.9616  151.0858 C   0  0  0  0  0  0  0  0  0  0  0  0
  146.0071  136.7359  152.2991 C   0  0  0  0  0  0  0  0  0  0  0  0
  146.2069  138.2385  152.0283 C   0  0  2  0  0  0  0  0  0  0  0  0
  146.9692  138.3938  150.8470 O   0  0  0  0  0  0  0  0  0  0  0  0
  146.9514  138.9357  153.1793 C   0  0  0  0  0  0  0  0  0  0  0  0
  148.4014  138.6503  153.1277 N   0  3  0  0  0  0  0  0  0  0  0  0
  149.1497  138.9275  154.3754 C   0  0  1  0  0  0  0  0  0  0  0  0
  150.3218  137.9340  154.5223 C   0  0  0  0  0  0  0  0  0  0  0  0
  149.6067  140.4099  154.3898 C   0  0  1  0  0  0  0  0  0  0  0  0
  148.4316  141.3932  154.2312 C   0  0  0  0  0  0  0  0  0  0  0  0
  150.3665  140.7379  155.5903 N   0  0  0  0  0  0  0  0  0  0  0  0
  150.1075  141.7059  156.5408 C   0  0  0  0  0  0  0  0  0  0  0  0
  151.0907  141.6253  157.4847 C   0  0  0  0  0  0  0  0  0  0  0  0
  151.9164  140.5631  157.0224 C   0  0  0  0  0  0  0  0  0  0  0  0
  151.4798  140.0337  155.8911 N   0  0  0  0  0  0  0  0  0  0  0  0
  145.3109  134.9133  151.3376 H   0  0  0  0  0  0  0  0  0  0  0  0
  146.1750  135.9939  150.2515 H   0  0  0  0  0  0  0  0  0  0  0  0
  144.5236  136.3716  150.7424 H   0  0  0  0  0  0  0  0  0  0  0  0
  145.2994  136.6115  153.1197 H   0  0  0  0  0  0  0  0  0  0  0  0
  146.9428  136.2879  152.6364 H   0  0  0  0  0  0  0  0  0  0  0  0
  145.2337  138.7105  151.8839 H   0  0  0  0  0  0  0  0  0  0  0  0
  146.8528  139.2760  150.5271 H   0  0  0  0  0  0  0  0  0  0  0  0
  146.8133  140.0151  153.1032 H   0  0  0  0  0  0  0  0  0  0  0  0
  146.5325  138.6283  154.1378 H   0  0  0  0  0  0  0  0  0  0  0  0
  148.5390  137.6830  152.8708 H   0  0  0  0  0  0  0  0  0  0  0  0
  148.4736  138.7805  155.2194 H   0  0  0  0  0  0  0  0  0  0  0  0
  150.8457  138.0613  155.4696 H   0  0  0  0  0  0  0  0  0  0  0  0
  151.0507  138.0649  153.7216 H   0  0  0  0  0  0  0  0  0  0  0  0
  149.9835  136.8986  154.4943 H   0  0  0  0  0  0  0  0  0  0  0  0
  150.2718  140.5607  153.5367 H   0  0  0  0  0  0  0  0  0  0  0  0
  147.9107  141.2478  153.2848 H   0  0  0  0  0  0  0  0  0  0  0  0
  148.7818  142.4259  154.2500 H   0  0  0  0  0  0  0  0  0  0  0  0
  147.7006  141.2770  155.0320 H   0  0  0  0  0  0  0  0  0  0  0  0
  149.2542  142.3640  156.4683 H   0  0  0  0  0  0  0  0  0  0  0  0
  151.2027  142.2319  158.3711 H   0  0  0  0  0  0  0  0  0  0  0  0
  152.8132  140.1634  157.4727 H   0  0  0  0  0  0  0  0  0  0  0  0
  148.7926  139.2310  152.3999 H   0  0  0  0  0  0  0  0  0  0  0  0
  1  2  1  0  0  0  0
  1 16  1  0  0  0  0
  1 17  1  0  0  0  0
  1 18  1  0  0  0  0
  2  3  1  0  0  0  0
  2 19  1  0  0  0  0
  2 20  1  0  0  0  0
  3  4  1  0  0  0  0
  3  5  1  0  0  0  0
  3 21  1  0  0  0  0
  4 22  1  0  0  0  0
  5  6  1  0  0  0  0
  5 23  1  0  0  0  0
  5 24  1  0  0  0  0
  6  7  1  0  0  0  0
  6 25  1  0  0  0  0
  6 37  1  0  0  0  0
  7  8  1  0  0  0  0
  7  9  1  0  0  0  0
  7 26  1  0  0  0  0
  8 27  1  0  0  0  0
  8 28  1  0  0  0  0
  8 29  1  0  0  0  0
  9 10  1  0  0  0  0
  9 11  1  0  0  0  0
  9 30  1  0  0  0  0
 10 31  1  0  0  0  0
 10 32  1  0  0  0  0
 10 33  1  0  0  0  0
 11 15  1  0  0  0  0
 11 12  1  0  0  0  0
 12 13  2  0  0  0  0
 12 34  1  0  0  0  0
 13 14  1  0  0  0  0
 13 35  1  0  0  0  0
 14 15  2  0  0  0  0
 14 36  1  0  0  0  0
M  CHG  1   6   1
M  END
> <s_m_source_file>
AV-unprocessed.smi

> <i_m_source_file_index>
3112

> <i_lp_mmshare_version>
43012

> <i_f3d_flags>
0

> <s_epik_input>
W0NIM11bQ0gyXVtDQEhdKFtPSF0pW0NIMl1bTkhdW0NASF0oW0NIM10pW0NASF0oW0NIM10pbjFbY0hdW2NIXVtjSF1uMQ==

> <s_epik_cmdline>
J2VwaWtfcHl0aG9uJywgJy1waCcsICc3LjAnLCAnLXRuJywgJzgnLCAnLW1hJywgJzIwMCcsICctbWV0YWxfYmluZGluZycsICctaW1hZScsICc8aW5maWxlLm1hZT4nLCAnLW9tYWUnLCAnPG91dGZpbGUubWFlPic=

> <r_lp_tautomer_probability>
1

> <r_epik_Ionization_Penalty>
0.0154842

> <r_epik_Ionization_Penalty_Charging>
0.0154724

> <r_epik_Ionization_Penalty_Neutral>
1.17979e-05

> <r_epik_State_Penalty>
0.0121607

> <r_epik_Charging_Adjusted_Penalty>
0.0276331

> <i_epik_Tot_Q>
1

> <i_epik_Tot_abs_Q>
1

> <r_epik_Metal_State_Penalty>
0.0121863

> <b_epik_Metal_Only>
0

> <s_lp_Force_Field>
OPLS_2005

> <r_lp_Energy>
13.0446

> <b_lp_Chiralities_Consistent>
1

> <s_lp_Variant>
AV-unprocessed.smi:3112-7

> <Gold.Version>
5.8.1

> <Gold.Id.Protein>
6NUR|6NUR_protein|mol2

> <Gold.PLP.Fitness>
47.7807

> <Gold.PLP.PLP>
-33.9353

> <Gold.PLP.part.hbond>
-5.0747

> <Gold.PLP.part.metal>
0.0000

> <Gold.PLP.part.buried>
-0.8002

> <Gold.PLP.part.nonpolar>
-27.8367

> <Gold.PLP.part.repulsive>
0.0613

> <Gold.PLP.ligand.clash>
0.0000

> <Gold.PLP.ligand.torsion>
0.6517

> <Gold.PLP.Chemscore.Hbond>
4.0000

> <Gold.PLP.Chemscore.CHOScore>
1.0000

> <Gold.PLP.Chemscore.Metal>
0.0000

> <Gold.Chemscore.Hbonds>
donor molecule, donor type, donor heavy atom, donor atom, acceptor molecule, acceptor atom, score
      L1  H     6    25       P1  7948  2.00
      L1  H     6    37       P1  7957  1.00
      P1  H  7954  7966       L1     4  1.00
      L1  C    12    34       P1  8028  1.00

> <Gold.PLP.Chemscore.Internal.Correction>
0.1487

> <Gold.Rescore>
     Score         DG    S(hbond)    S(metal)    S(lipo)     H(rot)  DE(clash)    DE(int)     intcor
     14.70     -17.41       2.83        0.00      73.92       2.41       0.54       2.17       ----

> <Gold.Chemscore.Fitness>
14.6984

> <Gold.Chemscore.DG>
-17.4078

> <Gold.Chemscore.ZeroCoef>
-5.4800

> <Gold.Chemscore.Hbond>
2.8282

> <Gold.Chemscore.Metal>
0.0000

> <Gold.Chemscore.Lipo>
73.9180

> <Gold.Chemscore.Internal_Hbond>
0.0000

> <Gold.Chemscore.DEClash>
0.5402

> <Gold.Chemscore.DEInternal>
2.1693

> <Gold.Chemscore.Rot>
2.4089

> <Gold.Chemscore.Internal.Correction>
   9.000000E+99

> <Gold.Chemscore.Hbonds>
donor molecule, donor type, donor heavy atom, donor atom, acceptor molecule, acceptor atom, score
      L1  H     6    25       P1  7948  0.99
      L1  H     6    37       P1  7957  1.00
      P1  H  7954  7966       L1     4  0.24

> <Gold.Chemscore.Hbond.Weighted>
-9.4461

> <Gold.Chemscore.Metal.Weighted>
-0.0000

> <Gold.Chemscore.Lipo.Weighted>
-8.6484

> <Gold.Chemscore.Internal_Hbond.Weighted>
0.0000

> <Gold.Chemscore.DEClash.Weighted>
0.5402

> <Gold.Chemscore.DEInternal.Weighted>
2.1693

> <Gold.Chemscore.Rot.Weighted>
6.1667

> <Gold.Chemscore.Internal.Correction.Weighted>
   9.000000E+99

> <Gold.Protein.RotatedTorsions>
[ 6907 6896 6895 6894 ] final   36.57 input  -60.11 | X-H torsion
[ 7974 7965 7964 7962 ] final -130.68 input  175.53 | X-H torsion
[ 8008 7997 7996 7995 ] final  160.77 input   59.86 | X-H torsion
[ 10167 10162 10161 10158 ] final -173.00 input  -65.29 | X-H torsion
[ 10718 10713 10712 10709 ] final  125.55 input   66.30 | X-H torsion
[ 10763 10752 10751 10750 ] final  103.71 input  -60.55 | X-H torsion
[ 11005 11000 10999 10996 ] final  126.51 input  -57.11 | X-H torsion

> <Gold.Protein.ActiveResidues>
 VAL166  LYS551  ARG553  GLY616  TRP617  ASP618  TYR619  PRO620  LYS621  CYS622 
 ASP623  PHE694  ASN695  SER759  ASP760  ASP761  ALA762  ILE779  LEU786  VAL792 
 PHE793  MET794  SER795  GLU796  ALA797  LYS798  CYS799  TRP800  GLU811  SER814 

> <Gold.Protein.RotatedAtoms>
  152.1316  134.9131  160.0558 H   0  0  0  0  0  0  0  0  0  0  0  0  # atno 6907 bound_to 6896
  152.0233  133.3902  159.4275 H   0  0  0  0  0  0  0  0  0  0  0  0  # atno 6908 bound_to 6896
  150.6857  134.3523  159.4958 H   0  0  0  0  0  0  0  0  0  0  0  0  # atno 6909 bound_to 6896
  144.9452  140.7283  143.4822 H   0  0  0  0  0  0  0  0  0  0  0  0  # atno 7974 bound_to 7965
  156.2150  140.1795  156.7610 H   0  0  0  0  0  0  0  0  0  0  0  0  # atno 8008 bound_to 7997
  154.5777  140.0671  156.9088 H   0  0  0  0  0  0  0  0  0  0  0  0  # atno 8009 bound_to 7997
  155.2558  140.3332  155.4280 H   0  0  0  0  0  0  0  0  0  0  0  0  # atno 8010 bound_to 7997
  139.5713  144.1636  152.1387 H   0  0  0  0  0  0  0  0  0  0  0  0  # atno 10167 bound_to 10162
  157.5493  131.1094  150.8728 H   0  0  0  0  0  0  0  0  0  0  0  0  # atno 10718 bound_to 10713
  153.3562  135.3967  155.1684 H   0  0  0  0  0  0  0  0  0  0  0  0  # atno 10763 bound_to 10752
  154.8671  135.3668  154.5158 H   0  0  0  0  0  0  0  0  0  0  0  0  # atno 10764 bound_to 10752
  153.5613  135.7081  153.5606 H   0  0  0  0  0  0  0  0  0  0  0  0  # atno 10765 bound_to 10752
  139.9460  134.9629  156.8718 H   0  0  0  0  0  0  0  0  0  0  0  0  # atno 11005 bound_to 11000
  145.2930  139.1877  143.4730 LP  0  0  0  0  0  0  0  0  0  0  0  0  # atno 17320 bound_to 7965
  146.3301  140.2909  142.8615 LP  0  0  0  0  0  0  0  0  0  0  0  0  # atno 17321 bound_to 7965
  140.1169  144.5407  150.6888 LP  0  0  0  0  0  0  0  0  0  0  0  0  # atno 17342 bound_to 10162
  140.6997  143.2426  151.4900 LP  0  0  0  0  0  0  0  0  0  0  0  0  # atno 17343 bound_to 10162
  156.9258  130.5331  149.5279 LP  0  0  0  0  0  0  0  0  0  0  0  0  # atno 17370 bound_to 10713
  156.0563  130.5624  150.9098 LP  0  0  0  0  0  0  0  0  0  0  0  0  # atno 17371 bound_to 10713
  140.5834  134.0330  155.7472 LP  0  0  0  0  0  0  0  0  0  0  0  0  # atno 17394 bound_to 11000
  141.1110  133.9616  157.2910 LP  0  0  0  0  0  0  0  0  0  0  0  0  # atno 17395 bound_to 11000

$$$$
