AV-unprocessed.smi:2252|AV-procd|sdf|9107|dock4
  -GOLD-   2272012313D 1   1.00000     0.00000
 Structure written by MMmdl.
 45 47  0  0  0  0  0  0  0  0  2 V2000
  153.1147  142.5639  160.0366 C   0  0  0  0  0  0  0  0  0  0  0  0
  152.1900  143.3493  159.2161 N   0  0  0  0  0  0  0  0  0  0  0  0
  151.9457  144.6951  159.3190 C   0  0  0  0  0  0  0  0  0  0  0  0
  151.0197  145.0012  158.3560 C   0  0  0  0  0  0  0  0  0  0  0  0
  150.7364  143.8304  157.7060 N   0  3  0  0  0  0  0  0  0  0  0  0
  151.4443  142.8230  158.2304 C   0  0  0  0  0  0  0  0  0  0  0  0
  151.4070  141.4001  157.7690 C   0  0  0  0  0  0  0  0  0  0  0  0
  151.0721  141.2690  156.2743 C   0  0  0  0  0  0  0  0  0  0  0  0
  149.7685  140.6498  156.0729 N   0  0  0  0  0  0  0  0  0  0  0  0
  149.0648  140.6996  154.9309 C   0  0  0  0  0  0  0  0  0  0  0  0
  149.4551  141.2960  153.9263 O   0  0  0  0  0  0  0  0  0  0  0  0
  147.7060  139.9763  154.9248 C   0  0  2  0  0  0  0  0  0  0  0  0
  147.6721  138.9478  153.7729 C   0  0  0  0  0  0  0  0  0  0  0  0
  146.7549  139.1403  152.5834 C   0  0  0  0  0  0  0  0  0  0  0  0
  146.4694  138.0458  153.5755 C   0  0  0  0  0  0  0  0  0  0  0  0
  146.5565  140.9100  154.8309 N   0  0  0  0  0  0  0  0  0  0  0  0
  146.6657  141.9329  153.7918 C   0  0  0  0  0  0  0  0  0  0  0  0
  145.5716  142.9408  154.1481 C   0  0  0  0  0  0  0  0  0  0  0  0
  145.3320  142.7449  155.6420 C   0  0  0  0  0  0  0  0  0  0  0  0
  146.3373  141.6714  156.0570 C   0  0  0  0  0  0  0  0  0  0  0  0
  153.6429  143.2244  160.7250 H   0  0  0  0  0  0  0  0  0  0  0  0
  153.8382  142.0630  159.3927 H   0  0  0  0  0  0  0  0  0  0  0  0
  152.5526  141.8236  160.6069 H   0  0  0  0  0  0  0  0  0  0  0  0
  152.4375  145.3205  160.0500 H   0  0  0  0  0  0  0  0  0  0  0  0
  150.5544  145.9394  158.0907 H   0  0  0  0  0  0  0  0  0  0  0  0
  152.3756  140.9574  158.0031 H   0  0  0  0  0  0  0  0  0  0  0  0
  150.6635  140.8854  158.3788 H   0  0  0  0  0  0  0  0  0  0  0  0
  151.0587  142.2541  155.8075 H   0  0  0  0  0  0  0  0  0  0  0  0
  151.8377  140.6906  155.7548 H   0  0  0  0  0  0  0  0  0  0  0  0
  149.3715  140.1476  156.8542 H   0  0  0  0  0  0  0  0  0  0  0  0
  147.6287  139.4350  155.8700 H   0  0  0  0  0  0  0  0  0  0  0  0
  148.6350  138.4814  153.5699 H   0  0  0  0  0  0  0  0  0  0  0  0
  146.0944  140.0050  152.5856 H   0  0  0  0  0  0  0  0  0  0  0  0
  147.1354  138.8484  151.6066 H   0  0  0  0  0  0  0  0  0  0  0  0
  146.6584  137.0208  153.2631 H   0  0  0  0  0  0  0  0  0  0  0  0
  145.6144  138.1815  154.2349 H   0  0  0  0  0  0  0  0  0  0  0  0
  147.6453  142.4126  153.8403 H   0  0  0  0  0  0  0  0  0  0  0  0
  146.5320  141.5283  152.7879 H   0  0  0  0  0  0  0  0  0  0  0  0
  145.8769  143.9602  153.9098 H   0  0  0  0  0  0  0  0  0  0  0  0
  144.6578  142.7291  153.5913 H   0  0  0  0  0  0  0  0  0  0  0  0
  145.4684  143.6665  156.2088 H   0  0  0  0  0  0  0  0  0  0  0  0
  144.3126  142.3963  155.8137 H   0  0  0  0  0  0  0  0  0  0  0  0
  145.9610  141.0513  156.8711 H   0  0  0  0  0  0  0  0  0  0  0  0
  147.2678  142.1388  156.3855 H   0  0  0  0  0  0  0  0  0  0  0  0
  150.0836  143.7360  156.9381 H   0  0  0  0  0  0  0  0  0  0  0  0
  1  2  1  0  0  0  0
  1 21  1  0  0  0  0
  1 22  1  0  0  0  0
  1 23  1  0  0  0  0
  2  6  1  0  0  0  0
  2  3  1  0  0  0  0
  3  4  2  0  0  0  0
  3 24  1  0  0  0  0
  4  5  1  0  0  0  0
  4 25  1  0  0  0  0
  5  6  2  0  0  0  0
  5 45  1  0  0  0  0
  6  7  1  0  0  0  0
  7  8  1  0  0  0  0
  7 26  1  0  0  0  0
  7 27  1  0  0  0  0
  8  9  1  0  0  0  0
  8 28  1  0  0  0  0
  8 29  1  0  0  0  0
  9 10  1  0  0  0  0
  9 30  1  0  0  0  0
 10 11  2  0  0  0  0
 10 12  1  0  0  0  0
 12 13  1  0  0  0  0
 12 16  1  0  0  0  0
 12 31  1  0  0  0  0
 13 15  1  0  0  0  0
 13 14  1  0  0  0  0
 13 32  1  0  0  0  0
 14 15  1  0  0  0  0
 14 33  1  0  0  0  0
 14 34  1  0  0  0  0
 15 35  1  0  0  0  0
 15 36  1  0  0  0  0
 16 20  1  0  0  0  0
 16 17  1  0  0  0  0
 17 18  1  0  0  0  0
 17 37  1  0  0  0  0
 17 38  1  0  0  0  0
 18 19  1  0  0  0  0
 18 39  1  0  0  0  0
 18 40  1  0  0  0  0
 19 20  1  0  0  0  0
 19 41  1  0  0  0  0
 19 42  1  0  0  0  0
 20 43  1  0  0  0  0
 20 44  1  0  0  0  0
M  CHG  1   5   1
M  END
> <s_m_source_file>
AV-unprocessed.smi

> <i_m_source_file_index>
2252

> <i_lp_mmshare_version>
43012

> <i_f3d_flags>
0

> <s_epik_input>
W0NIM11uMVtjSF1bY0hdbmMxW0NIMl1bQ0gyXVtOSF1DKD1PKVtDQEhdKFtDSF0yW0NIMl1bQ0gyXTIpTjNbQ0gyXVtDSDJdW0NIMl1bQ0gyXTM=

> <s_epik_cmdline>
J2VwaWtfcHl0aG9uJywgJy1waCcsICc3LjAnLCAnLXRuJywgJzgnLCAnLW1hJywgJzIwMCcsICctbWV0YWxfYmluZGluZycsICctaW1hZScsICc8aW5maWxlLm1hZT4nLCAnLW9tYWUnLCAnPG91dGZpbGUubWFlPic=

> <r_epik_Ionization_Penalty>
2.52117

> <r_epik_Ionization_Penalty_Charging>
0

> <r_epik_Ionization_Penalty_Neutral>
2.52117

> <r_epik_State_Penalty>
2.63608

> <r_epik_Charging_Adjusted_Penalty>
2.63608

> <i_epik_Tot_Q>
1

> <i_epik_Tot_abs_Q>
1

> <r_epik_Metal_State_Penalty>
2.94973

> <b_epik_Metal_Only>
0

> <s_lp_Force_Field>
OPLS_2005

> <r_lp_Energy>
33.8127

> <b_lp_Chiralities_Consistent>
1

> <s_lp_Variant>
AV-unprocessed.smi:2252-5

> <Gold.Version>
5.8.1

> <Gold.Id.Protein>
6NUR|6NUR_protein|mol2

> <Gold.PLP.Fitness>
49.3683

> <Gold.PLP.PLP>
-43.2409

> <Gold.PLP.part.hbond>
-3.0000

> <Gold.PLP.part.metal>
0.0000

> <Gold.PLP.part.buried>
-5.9176

> <Gold.PLP.part.nonpolar>
-35.5669

> <Gold.PLP.part.repulsive>
1.2591

> <Gold.PLP.ligand.clash>
0.0000

> <Gold.PLP.ligand.torsion>
1.8020

> <Gold.PLP.Chemscore.Hbond>
2.8335

> <Gold.PLP.Chemscore.CHOScore>
0.0000

> <Gold.PLP.Chemscore.Metal>
0.0000

> <Gold.Chemscore.Hbonds>
donor molecule, donor type, donor heavy atom, donor atom, acceptor molecule, acceptor atom, score
      L1  H     5    45       P1  8028  1.76
      P1  H  7989  7998       L1    11  0.15
      P1  H  8011  8017       L1    11  0.80

> <Gold.PLP.Chemscore.Internal.Correction>
1.2310

> <Gold.Rescore>
     Score         DG    S(hbond)    S(metal)    S(lipo)     H(rot)  DE(clash)    DE(int)     intcor
     13.49     -17.29       1.85        0.00      90.92       1.96       0.58       3.21       ----

> <Gold.Chemscore.Fitness>
13.4908

> <Gold.Chemscore.DG>
-17.2862

> <Gold.Chemscore.ZeroCoef>
-5.4800

> <Gold.Chemscore.Hbond>
1.8518

> <Gold.Chemscore.Metal>
0.0000

> <Gold.Chemscore.Lipo>
90.9197

> <Gold.Chemscore.Internal_Hbond>
0.0000

> <Gold.Chemscore.DEClash>
0.5822

> <Gold.Chemscore.DEInternal>
3.2131

> <Gold.Chemscore.Rot>
1.9595

> <Gold.Chemscore.Internal.Correction>
   9.000000E+99

> <Gold.Chemscore.Hbonds>
donor molecule, donor type, donor heavy atom, donor atom, acceptor molecule, acceptor atom, score
      L1  H     5    45       P1  8028  0.83
      P1  H  7989  7998       L1    11  0.12
      P1  H  8011  8017       L1    11  0.78

> <Gold.Chemscore.Hbond.Weighted>
-6.1849

> <Gold.Chemscore.Metal.Weighted>
-0.0000

> <Gold.Chemscore.Lipo.Weighted>
-10.6376

> <Gold.Chemscore.Internal_Hbond.Weighted>
0.0000

> <Gold.Chemscore.DEClash.Weighted>
0.5822

> <Gold.Chemscore.DEInternal.Weighted>
3.2131

> <Gold.Chemscore.Rot.Weighted>
5.0164

> <Gold.Chemscore.Internal.Correction.Weighted>
   9.000000E+99

> <Gold.Protein.RotatedTorsions>
[ 6907 6896 6895 6894 ] final -127.61 input  -60.11 | X-H torsion
[ 7974 7965 7964 7962 ] final  -80.31 input  175.53 | X-H torsion
[ 8008 7997 7996 7995 ] final  -57.29 input   59.86 | X-H torsion
[ 10167 10162 10161 10158 ] final  -98.55 input  -65.29 | X-H torsion
[ 10718 10713 10712 10709 ] final -134.51 input   66.30 | X-H torsion
[ 10763 10752 10751 10750 ] final -112.66 input  -60.55 | X-H torsion
[ 11005 11000 10999 10996 ] final  115.41 input  -57.11 | X-H torsion

> <Gold.Protein.ActiveResidues>
 VAL166  LYS551  ARG553  GLY616  TRP617  ASP618  TYR619  PRO620  LYS621  CYS622 
 ASP623  PHE694  ASN695  SER759  ASP760  ASP761  ALA762  ILE779  LEU786  VAL792 
 PHE793  MET794  SER795  GLU796  ALA797  LYS798  CYS799  TRP800  GLU811  SER814 

> <Gold.Protein.RotatedAtoms>
  150.9091  133.7020  159.2859 H   0  0  0  0  0  0  0  0  0  0  0  0  # atno 6907 bound_to 6896
  151.4513  135.1028  159.9708 H   0  0  0  0  0  0  0  0  0  0  0  0  # atno 6908 bound_to 6896
  152.4920  133.8476  159.7240 H   0  0  0  0  0  0  0  0  0  0  0  0  # atno 6909 bound_to 6896
  145.5616  140.9481  143.1444 H   0  0  0  0  0  0  0  0  0  0  0  0  # atno 7974 bound_to 7965
  154.4262  140.1110  156.5775 H   0  0  0  0  0  0  0  0  0  0  0  0  # atno 8008 bound_to 7997
  155.6148  140.3494  155.4614 H   0  0  0  0  0  0  0  0  0  0  0  0  # atno 8009 bound_to 7997
  156.0071  140.1211  157.0480 H   0  0  0  0  0  0  0  0  0  0  0  0  # atno 8010 bound_to 7997
  140.2717  143.3339  152.0527 H   0  0  0  0  0  0  0  0  0  0  0  0  # atno 10167 bound_to 10162
  156.2562  130.7182  151.1100 H   0  0  0  0  0  0  0  0  0  0  0  0  # atno 10718 bound_to 10713
  154.8360  135.4482  154.1228 H   0  0  0  0  0  0  0  0  0  0  0  0  # atno 10763 bound_to 10752
  153.2460  135.6921  153.7737 H   0  0  0  0  0  0  0  0  0  0  0  0  # atno 10764 bound_to 10752
  153.7067  135.3363  155.3213 H   0  0  0  0  0  0  0  0  0  0  0  0  # atno 10765 bound_to 10752
  139.9009  134.9583  156.7041 H   0  0  0  0  0  0  0  0  0  0  0  0  # atno 11005 bound_to 11000
  144.7480  139.7269  143.7284 LP  0  0  0  0  0  0  0  0  0  0  0  0  # atno 17320 bound_to 7965
  146.1847  139.5056  142.9844 LP  0  0  0  0  0  0  0  0  0  0  0  0  # atno 17321 bound_to 7965
  139.4987  144.6651  151.6374 LP  0  0  0  0  0  0  0  0  0  0  0  0  # atno 17342 bound_to 10162
  140.5884  143.9824  150.6309 LP  0  0  0  0  0  0  0  0  0  0  0  0  # atno 17343 bound_to 10162
  157.7233  131.0667  150.6041 LP  0  0  0  0  0  0  0  0  0  0  0  0  # atno 17370 bound_to 10713
  156.6125  130.4384  149.5853 LP  0  0  0  0  0  0  0  0  0  0  0  0  # atno 17371 bound_to 10713
  140.7127  133.9209  155.8095 LP  0  0  0  0  0  0  0  0  0  0  0  0  # atno 17394 bound_to 11000
  141.0288  134.0785  157.4038 LP  0  0  0  0  0  0  0  0  0  0  0  0  # atno 17395 bound_to 11000

$$$$
