AV-unprocessed.smi:1472|AV-procd|sdf|5965|dock9
  -GOLD-   22720 6 53D 1   1.00000     0.00000
 Structure written by MMmdl.
 42 43  0  0  0  0  0  0  0  0  2 V2000
  151.5901  138.5191  158.5416 C   0  0  0  0  0  0  0  0  0  0  0  0
  152.9427  138.1291  157.3575 S   0  0  0  0  0  0  0  0  0  0  0  0
  154.1893  138.7132  157.8753 O   0  0  0  0  0  0  0  0  0  0  0  0
  152.8833  136.6913  157.0526 O   0  0  0  0  0  0  0  0  0  0  0  0
  152.5062  138.9964  155.9131 N   0  0  0  0  0  0  0  0  0  0  0  0
  152.1926  138.2548  154.6761 C   0  0  0  0  0  0  0  0  0  0  0  0
  150.6747  138.1623  154.4369 C   0  0  0  0  0  0  0  0  0  0  0  0
  150.0118  139.5523  154.4524 C   0  0  0  0  0  0  0  0  0  0  0  0
  148.4853  139.4916  154.2284 C   0  0  0  0  0  0  0  0  0  0  0  0
  148.0776  138.3373  153.4327 N   0  0  0  0  0  0  0  0  0  0  0  0
  146.8481  137.8026  153.4271 C   0  0  0  0  0  0  0  0  0  0  0  0
  145.9223  138.2253  154.1190 O   0  0  0  0  0  0  0  0  0  0  0  0
  146.7752  136.7523  152.5907 N   0  0  0  0  0  0  0  0  0  0  0  0
  145.6439  135.9542  152.2667 C   0  0  0  0  0  0  0  0  0  0  0  0
  144.4268  136.2479  152.9212 C   0  0  0  0  0  0  0  0  0  0  0  0
  143.2831  135.4704  152.6464 C   0  0  0  0  0  0  0  0  0  0  0  0
  143.3604  134.4474  151.7686 N   0  3  0  0  0  0  0  0  0  0  0  0
  144.5035  134.1197  151.1289 C   0  0  0  0  0  0  0  0  0  0  0  0
  145.6797  134.8608  151.3637 C   0  0  0  0  0  0  0  0  0  0  0  0
  150.3495  140.2442  155.7827 C   0  0  0  0  0  0  0  0  0  0  0  0
  151.8689  140.3243  156.0114 C   0  0  0  0  0  0  0  0  0  0  0  0
  151.7908  138.0175  159.4878 H   0  0  0  0  0  0  0  0  0  0  0  0
  150.6396  138.1624  158.1492 H   0  0  0  0  0  0  0  0  0  0  0  0
  151.5440  139.5929  158.7131 H   0  0  0  0  0  0  0  0  0  0  0  0
  152.6627  138.7707  153.8380 H   0  0  0  0  0  0  0  0  0  0  0  0
  152.6334  137.2588  154.7091 H   0  0  0  0  0  0  0  0  0  0  0  0
  150.4996  137.6705  153.4797 H   0  0  0  0  0  0  0  0  0  0  0  0
  150.2145  137.5264  155.1921 H   0  0  0  0  0  0  0  0  0  0  0  0
  150.4508  140.1469  153.6496 H   0  0  0  0  0  0  0  0  0  0  0  0
  147.9703  139.4381  155.1880 H   0  0  0  0  0  0  0  0  0  0  0  0
  148.1368  140.4065  153.7459 H   0  0  0  0  0  0  0  0  0  0  0  0
  148.7827  137.9230  152.8408 H   0  0  0  0  0  0  0  0  0  0  0  0
  147.6440  136.4664  152.1630 H   0  0  0  0  0  0  0  0  0  0  0  0
  144.3641  137.0649  153.6257 H   0  0  0  0  0  0  0  0  0  0  0  0
  142.3170  135.6336  153.1010 H   0  0  0  0  0  0  0  0  0  0  0  0
  144.4462  133.2753  150.4576 H   0  0  0  0  0  0  0  0  0  0  0  0
  146.5864  134.5671  150.8571 H   0  0  0  0  0  0  0  0  0  0  0  0
  149.9324  141.2518  155.7919 H   0  0  0  0  0  0  0  0  0  0  0  0
  149.8750  139.7139  156.6076 H   0  0  0  0  0  0  0  0  0  0  0  0
  152.0843  140.7793  156.9778 H   0  0  0  0  0  0  0  0  0  0  0  0
  152.3163  140.9759  155.2599 H   0  0  0  0  0  0  0  0  0  0  0  0
  142.5217  133.8959  151.5850 H   0  0  0  0  0  0  0  0  0  0  0  0
  1  2  1  0  0  0  0
  1 22  1  0  0  0  0
  1 23  1  0  0  0  0
  1 24  1  0  0  0  0
  2  3  2  0  0  0  0
  2  4  2  0  0  0  0
  2  5  1  0  0  0  0
  5 21  1  0  0  0  0
  5  6  1  0  0  0  0
  6  7  1  0  0  0  0
  6 25  1  0  0  0  0
  6 26  1  0  0  0  0
  7  8  1  0  0  0  0
  7 27  1  0  0  0  0
  7 28  1  0  0  0  0
  8  9  1  0  0  0  0
  8 20  1  0  0  0  0
  8 29  1  0  0  0  0
  9 10  1  0  0  0  0
  9 30  1  0  0  0  0
  9 31  1  0  0  0  0
 10 11  1  0  0  0  0
 10 32  1  0  0  0  0
 11 12  2  0  0  0  0
 11 13  1  0  0  0  0
 13 14  1  0  0  0  0
 13 33  1  0  0  0  0
 14 19  1  0  0  0  0
 14 15  2  0  0  0  0
 15 16  1  0  0  0  0
 15 34  1  0  0  0  0
 16 17  2  0  0  0  0
 16 35  1  0  0  0  0
 17 18  1  0  0  0  0
 17 42  1  0  0  0  0
 18 19  2  0  0  0  0
 18 36  1  0  0  0  0
 19 37  1  0  0  0  0
 20 21  1  0  0  0  0
 20 38  1  0  0  0  0
 20 39  1  0  0  0  0
 21 40  1  0  0  0  0
 21 41  1  0  0  0  0
M  CHG  1  17   1
M  END
> <s_m_source_file>
AV-unprocessed.smi

> <i_m_source_file_index>
1472

> <i_lp_mmshare_version>
43012

> <i_f3d_flags>
0

> <s_epik_input>
W0NIM11TKD1PKSg9TylOMVtDSDJdW0NIMl1bQ0hdKFtDSDJdW0NIMl0xKVtDSDJdW05IXUMoPU8pW05IXWMyW2NIXVtjSF1uW2NIXVtjSF0y

> <s_epik_cmdline>
J2VwaWtfcHl0aG9uJywgJy1waCcsICc3LjAnLCAnLXRuJywgJzgnLCAnLW1hJywgJzIwMCcsICctbWV0YWxfYmluZGluZycsICctaW1hZScsICc8aW5maWxlLm1hZT4nLCAnLW9tYWUnLCAnPG91dGZpbGUubWFlPic=

> <r_epik_Ionization_Penalty>
1.02593

> <r_epik_Ionization_Penalty_Charging>
1.02591

> <r_epik_Ionization_Penalty_Neutral>
2.05222e-05

> <r_epik_State_Penalty>
1.07662

> <r_epik_Charging_Adjusted_Penalty>
2.10252

> <i_epik_Tot_Q>
1

> <i_epik_Tot_abs_Q>
1

> <r_epik_Metal_State_Penalty>
1.17465

> <b_epik_Metal_Only>
0

> <s_lp_Force_Field>
OPLS_2005

> <r_lp_Energy>
12.5629

> <b_lp_Chiralities_Consistent>
1

> <s_lp_Variant>
AV-unprocessed.smi:1472-2

> <Gold.Version>
5.8.1

> <Gold.Id.Protein>
6NUR|6NUR_protein|mol2

> <Gold.PLP.Fitness>
48.7948

> <Gold.PLP.PLP>
-35.7442

> <Gold.PLP.part.hbond>
-5.6769

> <Gold.PLP.part.metal>
0.0000

> <Gold.PLP.part.buried>
-2.7481

> <Gold.PLP.part.nonpolar>
-28.1446

> <Gold.PLP.part.repulsive>
0.2558

> <Gold.PLP.ligand.clash>
0.0000

> <Gold.PLP.ligand.torsion>
1.6493

> <Gold.PLP.Chemscore.Hbond>
4.7651

> <Gold.PLP.Chemscore.CHOScore>
0.0000

> <Gold.PLP.Chemscore.Metal>
0.0000

> <Gold.Chemscore.Hbonds>
donor molecule, donor type, donor heavy atom, donor atom, acceptor molecule, acceptor atom, score
      L1  H    10    32       P1  7948  0.74
      L1  H    13    33       P1  7948  0.55
      P1  H  7997  8008       L1     3  1.00
      P1  H 10752 10763       L1     4  0.37

> <Gold.PLP.Chemscore.Internal.Correction>
2.0538

> <Gold.Rescore>
     Score         DG    S(hbond)    S(metal)    S(lipo)     H(rot)  DE(clash)    DE(int)     intcor
     19.33     -22.57       3.80        0.00      66.20       1.30       0.00       3.24       ----

> <Gold.Chemscore.Fitness>
19.3346

> <Gold.Chemscore.DG>
-22.5740

> <Gold.Chemscore.ZeroCoef>
-5.4800

> <Gold.Chemscore.Hbond>
3.7977

> <Gold.Chemscore.Metal>
0.0000

> <Gold.Chemscore.Lipo>
66.2027

> <Gold.Chemscore.Internal_Hbond>
0.0000

> <Gold.Chemscore.DEClash>
0.0004

> <Gold.Chemscore.DEInternal>
3.2390

> <Gold.Chemscore.Rot>
1.3031

> <Gold.Chemscore.Internal.Correction>
   9.000000E+99

> <Gold.Chemscore.Hbonds>
donor molecule, donor type, donor heavy atom, donor atom, acceptor molecule, acceptor atom, score
      L1  H    10    32       P1  7948  0.71
      L1  H    13    33       P1  7948  0.54
      P1  H  7997  8008       L1     3  0.90
      P1  H 10752 10763       L1     4  0.35

> <Gold.Chemscore.Hbond.Weighted>
-12.6843

> <Gold.Chemscore.Metal.Weighted>
-0.0000

> <Gold.Chemscore.Lipo.Weighted>
-7.7457

> <Gold.Chemscore.Internal_Hbond.Weighted>
0.0000

> <Gold.Chemscore.DEClash.Weighted>
0.0004

> <Gold.Chemscore.DEInternal.Weighted>
3.2390

> <Gold.Chemscore.Rot.Weighted>
3.3359

> <Gold.Chemscore.Internal.Correction.Weighted>
   9.000000E+99

> <Gold.Protein.RotatedTorsions>
[ 6907 6896 6895 6894 ] final   15.33 input  -60.11 | X-H torsion
[ 7974 7965 7964 7962 ] final  106.98 input  175.53 | X-H torsion
[ 8008 7997 7996 7995 ] final  -96.67 input   59.86 | X-H torsion
[ 10167 10162 10161 10158 ] final  116.38 input  -65.29 | X-H torsion
[ 10718 10713 10712 10709 ] final   42.49 input   66.30 | X-H torsion
[ 10763 10752 10751 10750 ] final   99.23 input  -60.55 | X-H torsion
[ 11005 11000 10999 10996 ] final  -88.32 input  -57.11 | X-H torsion

> <Gold.Protein.ActiveResidues>
 VAL166  LYS551  ARG553  GLY616  TRP617  ASP618  TYR619  PRO620  LYS621  CYS622 
 ASP623  PHE694  ASN695  SER759  ASP760  ASP761  ALA762  ILE779  LEU786  VAL792 
 PHE793  MET794  SER795  GLU796  ALA797  LYS798  CYS799  TRP800  GLU811  SER814 

> <Gold.Protein.RotatedAtoms>
  151.8163  135.0665  160.0419 H   0  0  0  0  0  0  0  0  0  0  0  0  # atno 6907 bound_to 6896
  152.2983  133.5625  159.5610 H   0  0  0  0  0  0  0  0  0  0  0  0  # atno 6908 bound_to 6896
  150.7261  134.0244  159.3754 H   0  0  0  0  0  0  0  0  0  0  0  0  # atno 6909 bound_to 6896
  145.2996  139.2574  143.3821 H   0  0  0  0  0  0  0  0  0  0  0  0  # atno 7974 bound_to 7965
  154.7776  140.0469  157.1101 H   0  0  0  0  0  0  0  0  0  0  0  0  # atno 8008 bound_to 7997
  154.9744  140.3093  155.4954 H   0  0  0  0  0  0  0  0  0  0  0  0  # atno 8009 bound_to 7997
  156.2931  140.2247  156.4839 H   0  0  0  0  0  0  0  0  0  0  0  0  # atno 8010 bound_to 7997
  139.6251  144.7107  151.2551 H   0  0  0  0  0  0  0  0  0  0  0  0  # atno 10167 bound_to 10162
  157.4054  130.7884  149.7384 H   0  0  0  0  0  0  0  0  0  0  0  0  # atno 10718 bound_to 10713
  153.2988  135.4121  155.1234 H   0  0  0  0  0  0  0  0  0  0  0  0  # atno 10763 bound_to 10752
  154.8543  135.3536  154.5880 H   0  0  0  0  0  0  0  0  0  0  0  0  # atno 10764 bound_to 10752
  153.6305  135.7061  153.5335 H   0  0  0  0  0  0  0  0  0  0  0  0  # atno 10765 bound_to 10752
  141.1603  133.7563  156.9434 H   0  0  0  0  0  0  0  0  0  0  0  0  # atno 11005 bound_to 11000
  146.3157  140.3507  142.8656 LP  0  0  0  0  0  0  0  0  0  0  0  0  # atno 17320 bound_to 7965
  144.9105  140.7751  143.5811 LP  0  0  0  0  0  0  0  0  0  0  0  0  # atno 17321 bound_to 7965
  140.7406  143.6583  150.8186 LP  0  0  0  0  0  0  0  0  0  0  0  0  # atno 17342 bound_to 10162
  140.0200  143.5552  152.2804 LP  0  0  0  0  0  0  0  0  0  0  0  0  # atno 17343 bound_to 10162
  155.9835  130.4000  150.3360 LP  0  0  0  0  0  0  0  0  0  0  0  0  # atno 17370 bound_to 10713
  157.1493  131.0316  151.2892 LP  0  0  0  0  0  0  0  0  0  0  0  0  # atno 17371 bound_to 10713
  140.1306  134.9358  157.2331 LP  0  0  0  0  0  0  0  0  0  0  0  0  # atno 17394 bound_to 11000
  140.2958  134.3188  155.7303 LP  0  0  0  0  0  0  0  0  0  0  0  0  # atno 17395 bound_to 11000

$$$$
