AV-unprocessed.smi:261|AV-procd|sdf|1997|dock9
  -GOLD-   2262021193D 1   1.00000     0.00000
 Structure written by MMmdl.
 51 54  0  0  0  0  0  0  0  0  1 V2000
  151.3943  142.7025  158.8798 C   0  0  0  0  0  0  0  0  0  0  0  0
  150.0123  142.4330  158.7086 O   0  0  0  0  0  0  0  0  0  0  0  0
  149.6950  141.8771  157.4407 C   0  0  1  0  0  0  0  0  0  0  0  0
  150.3034  140.4902  157.2128 C   0  0  0  0  0  0  0  0  0  0  0  0
  149.3792  139.8322  156.1736 C   0  0  2  0  0  0  0  0  0  0  0  0
  149.8547  140.1125  154.7362 C   0  0  0  0  0  0  0  0  0  0  0  0
  148.9581  140.6423  153.9009 N   0  0  0  0  0  0  0  0  0  0  0  0
  151.0019  139.8483  154.3793 O   0  0  0  0  0  0  0  0  0  0  0  0
  148.0782  140.4409  156.4523 N   0  0  0  0  0  0  0  0  0  0  0  0
  146.8725  139.9291  156.0783 C   0  0  0  0  0  0  0  0  0  0  0  0
  145.7529  140.5503  156.5362 N   0  0  0  0  0  0  0  0  0  0  0  0
  144.5381  140.1046  156.2077 C   0  0  0  0  0  0  0  0  0  0  0  0
  144.2127  139.0653  155.4399 N   0  0  0  0  0  0  0  0  0  0  0  0
  145.3250  138.4307  154.9729 C   0  0  0  0  0  0  0  0  0  0  0  0
  146.6800  138.7872  155.2406 C   0  0  0  0  0  0  0  0  0  0  0  0
  147.5245  137.8917  154.5917 N   0  0  0  0  0  0  0  0  0  0  0  0
  146.7232  137.0653  153.9796 C   0  0  0  0  0  0  0  0  0  0  0  0
  145.3828  137.3271  154.1390 N   0  0  0  0  0  0  0  0  0  0  0  0
  144.2770  136.5687  153.5783 C   0  0  0  0  0  0  0  0  0  0  0  0
  143.9966  136.8830  152.0905 C   0  0  1  0  0  0  0  0  0  0  0  0
  144.7443  138.0457  151.7961 O   0  0  0  0  0  0  0  0  0  0  0  0
  144.4369  135.7924  151.0864 C   0  0  1  0  0  0  0  0  0  0  0  0
  145.9045  135.3636  151.1530 C   0  0  0  0  0  0  0  0  0  0  0  0
  145.8977  133.9590  150.5743 C   0  0  0  0  0  0  0  0  0  0  0  0
  144.4361  133.5241  150.6891 C   0  0  0  0  0  0  0  0  0  0  0  0
  143.7952  134.5670  151.4105 O   0  0  0  0  0  0  0  0  0  0  0  0
  148.1952  141.6012  157.3303 C   0  0  0  0  0  0  0  0  0  0  0  0
  149.9919  142.5531  156.6364 H   0  0  0  0  0  0  0  0  0  0  0  0
  149.3548  138.7578  156.3572 H   0  0  0  0  0  0  0  0  0  0  0  0
  151.5565  143.1641  159.8536 H   0  0  0  0  0  0  0  0  0  0  0  0
  151.7608  143.3913  158.1175 H   0  0  0  0  0  0  0  0  0  0  0  0
  151.9890  141.7893  158.8421 H   0  0  0  0  0  0  0  0  0  0  0  0
  151.3475  140.5357  156.8994 H   0  0  0  0  0  0  0  0  0  0  0  0
  150.2678  139.9174  158.1408 H   0  0  0  0  0  0  0  0  0  0  0  0
  149.2142  140.8377  152.9440 H   0  0  0  0  0  0  0  0  0  0  0  0
  148.0231  140.8373  154.2281 H   0  0  0  0  0  0  0  0  0  0  0  0
  143.7088  140.6619  156.6177 H   0  0  0  0  0  0  0  0  0  0  0  0
  147.0918  136.2411  153.3862 H   0  0  0  0  0  0  0  0  0  0  0  0
  144.5289  135.5134  153.6941 H   0  0  0  0  0  0  0  0  0  0  0  0
  143.3809  136.7383  154.1766 H   0  0  0  0  0  0  0  0  0  0  0  0
  142.9404  137.1163  151.9514 H   0  0  0  0  0  0  0  0  0  0  0  0
  144.7072  138.1989  150.8643 H   0  0  0  0  0  0  0  0  0  0  0  0
  144.1857  136.0798  150.0633 H   0  0  0  0  0  0  0  0  0  0  0  0
  146.5667  136.0316  150.6032 H   0  0  0  0  0  0  0  0  0  0  0  0
  146.2407  135.3251  152.1899 H   0  0  0  0  0  0  0  0  0  0  0  0
  146.2124  133.9613  149.5301 H   0  0  0  0  0  0  0  0  0  0  0  0
  146.5675  133.3000  151.1272 H   0  0  0  0  0  0  0  0  0  0  0  0
  143.9820  133.4350  149.7015 H   0  0  0  0  0  0  0  0  0  0  0  0
  144.3227  132.5701  151.2044 H   0  0  0  0  0  0  0  0  0  0  0  0
  147.7754  141.3485  158.3052 H   0  0  0  0  0  0  0  0  0  0  0  0
  147.6631  142.4704  156.9417 H   0  0  0  0  0  0  0  0  0  0  0  0
  1  2  1  0  0  0  0
  1 30  1  0  0  0  0
  1 31  1  0  0  0  0
  1 32  1  0  0  0  0
  2  3  1  0  0  0  0
  3 28  1  0  0  0  0
  3 27  1  0  0  0  0
  3  4  1  0  0  0  0
  4  5  1  0  0  0  0
  4 33  1  0  0  0  0
  4 34  1  0  0  0  0
  5 29  1  0  0  0  0
  5  6  1  0  0  0  0
  5  9  1  0  0  0  0
  6  7  1  0  0  0  0
  6  8  2  0  0  0  0
  7 35  1  0  0  0  0
  7 36  1  0  0  0  0
  9 10  1  0  0  0  0
  9 27  1  0  0  0  0
 10 15  1  0  0  0  0
 10 11  2  0  0  0  0
 11 12  1  0  0  0  0
 12 13  2  0  0  0  0
 12 37  1  0  0  0  0
 13 14  1  0  0  0  0
 14 18  1  0  0  0  0
 14 15  2  0  0  0  0
 15 16  1  0  0  0  0
 16 17  2  0  0  0  0
 17 18  1  0  0  0  0
 17 38  1  0  0  0  0
 18 19  1  0  0  0  0
 19 20  1  0  0  0  0
 19 39  1  0  0  0  0
 19 40  1  0  0  0  0
 20 21  1  0  0  0  0
 20 22  1  0  0  0  0
 20 41  1  0  0  0  0
 21 42  1  0  0  0  0
 22 26  1  0  0  0  0
 22 23  1  0  0  0  0
 22 43  1  0  0  0  0
 23 24  1  0  0  0  0
 23 44  1  0  0  0  0
 23 45  1  0  0  0  0
 24 25  1  0  0  0  0
 24 46  1  0  0  0  0
 24 47  1  0  0  0  0
 25 26  1  0  0  0  0
 25 48  1  0  0  0  0
 25 49  1  0  0  0  0
 27 50  1  0  0  0  0
 27 51  1  0  0  0  0
M  END
> <s_m_source_file>
AV-unprocessed.smi

> <i_m_source_file_index>
261

> <i_lp_mmshare_version>
43012

> <i_f3d_flags>
0

> <s_epik_input>
W0NIM11PW0NASF0xW0NIMl1bQ0BASF0oQyg9TylbTkgyXSlOKFtDSDJdMSljKG5bY0hdbjIpYyhjMjMpbltjSF1uM1tDSDJdW0NASF0oW09IXSlbQ0BASF00W0NIMl1bQ0gyXVtDSDJdTzQ=

> <s_epik_cmdline>
J2VwaWtfcHl0aG9uJywgJy1waCcsICc3LjAnLCAnLXRuJywgJzgnLCAnLW1hJywgJzIwMCcsICctbWV0YWxfYmluZGluZycsICctaW1hZScsICc8aW5maWxlLm1hZT4nLCAnLW9tYWUnLCAnPG91dGZpbGUubWFlPic=

> <r_lp_tautomer_probability>
1

> <r_epik_Ionization_Penalty>
0.000713824

> <r_epik_Ionization_Penalty_Charging>
0

> <r_epik_Ionization_Penalty_Neutral>
0.000713824

> <r_epik_State_Penalty>
0.000402132

> <r_epik_Charging_Adjusted_Penalty>
0.000402132

> <i_epik_Tot_Q>
0

> <i_epik_Tot_abs_Q>
0

> <r_epik_Metal_State_Penalty>
-0

> <b_epik_Metal_Only>
0

> <s_lp_Force_Field>
OPLS_2005

> <r_lp_Energy>
45.931

> <b_lp_Chiralities_Consistent>
1

> <s_lp_Variant>
AV-unprocessed.smi:261-15

> <Gold.Version>
5.8.1

> <Gold.Id.Protein>
6NUR|6NUR_protein|mol2

> <Gold.PLP.Fitness>
38.2699

> <Gold.PLP.PLP>
-28.5299

> <Gold.PLP.part.hbond>
-4.1262

> <Gold.PLP.part.metal>
0.0000

> <Gold.PLP.part.buried>
-5.9455

> <Gold.PLP.part.nonpolar>
-17.8759

> <Gold.PLP.part.repulsive>
0.6888

> <Gold.PLP.ligand.clash>
0.0000

> <Gold.PLP.ligand.torsion>
1.0875

> <Gold.PLP.Chemscore.Hbond>
3.0000

> <Gold.PLP.Chemscore.CHOScore>
0.9155

> <Gold.PLP.Chemscore.Metal>
0.0000

> <Gold.Chemscore.Hbonds>
donor molecule, donor type, donor heavy atom, donor atom, acceptor molecule, acceptor atom, score
      L1  H     7    35       P1  7957  0.91
      L1  H    21    42       P1 10171  0.59
      P1  H  7989  7998       L1     8  0.89
      L1  C    17    38       P1  7948  0.97

> <Gold.PLP.Chemscore.Internal.Correction>
0.1687

> <Gold.Rescore>
     Score         DG    S(hbond)    S(metal)    S(lipo)     H(rot)  DE(clash)    DE(int)     intcor
     11.85     -12.97       2.85        0.00      52.45       3.18       0.00       1.12       ----

> <Gold.Chemscore.Fitness>
11.8480

> <Gold.Chemscore.DG>
-12.9749

> <Gold.Chemscore.ZeroCoef>
-5.4800

> <Gold.Chemscore.Hbond>
2.8465

> <Gold.Chemscore.Metal>
0.0000

> <Gold.Chemscore.Lipo>
52.4456

> <Gold.Chemscore.Internal_Hbond>
0.0000

> <Gold.Chemscore.DEClash>
0.0029

> <Gold.Chemscore.DEInternal>
1.1240

> <Gold.Chemscore.Rot>
3.1831

> <Gold.Chemscore.Internal.Correction>
   9.000000E+99

> <Gold.Chemscore.Hbonds>
donor molecule, donor type, donor heavy atom, donor atom, acceptor molecule, acceptor atom, score
      L1  H     7    35       P1  7957  0.87
      L1  H    21    42       P1 10171  0.58
      P1  H  7989  7998       L1     8  0.78

> <Gold.Chemscore.Hbond.Weighted>
-9.5074

> <Gold.Chemscore.Metal.Weighted>
-0.0000

> <Gold.Chemscore.Lipo.Weighted>
-6.1361

> <Gold.Chemscore.Internal_Hbond.Weighted>
0.0000

> <Gold.Chemscore.DEClash.Weighted>
0.0029

> <Gold.Chemscore.DEInternal.Weighted>
1.1240

> <Gold.Chemscore.Rot.Weighted>
8.1486

> <Gold.Chemscore.Internal.Correction.Weighted>
   9.000000E+99

> <Gold.Protein.RotatedTorsions>
[ 6907 6896 6895 6894 ] final  -22.06 input  -60.11 | X-H torsion
[ 7974 7965 7964 7962 ] final  123.71 input  175.53 | X-H torsion
[ 8008 7997 7996 7995 ] final -169.74 input   59.86 | X-H torsion
[ 10167 10162 10161 10158 ] final -128.35 input  -65.29 | X-H torsion
[ 10718 10713 10712 10709 ] final  -72.07 input   66.30 | X-H torsion
[ 10763 10752 10751 10750 ] final  -67.38 input  -60.55 | X-H torsion
[ 11005 11000 10999 10996 ] final -145.45 input  -57.11 | X-H torsion

> <Gold.Protein.ActiveResidues>
 VAL166  LYS551  ARG553  GLY616  TRP617  ASP618  TYR619  PRO620  LYS621  CYS622 
 ASP623  PHE694  ASN695  SER759  ASP760  ASP761  ALA762  ILE779  LEU786  VAL792 
 PHE793  MET794  SER795  GLU796  ALA797  LYS798  CYS799  TRP800  GLU811  SER814 

> <Gold.Protein.RotatedAtoms>
  151.2242  135.0530  159.8961 H   0  0  0  0  0  0  0  0  0  0  0  0  # atno 6907 bound_to 6896
  152.5412  134.0607  159.8161 H   0  0  0  0  0  0  0  0  0  0  0  0  # atno 6908 bound_to 6896
  151.0778  133.5366  159.2654 H   0  0  0  0  0  0  0  0  0  0  0  0  # atno 6909 bound_to 6896
  145.0928  139.3574  143.4852 H   0  0  0  0  0  0  0  0  0  0  0  0  # atno 7974 bound_to 7965
  155.9090  140.1054  157.1293 H   0  0  0  0  0  0  0  0  0  0  0  0  # atno 8008 bound_to 7997
  154.4037  140.1278  156.4598 H   0  0  0  0  0  0  0  0  0  0  0  0  # atno 8009 bound_to 7997
  155.7332  140.3468  155.5071 H   0  0  0  0  0  0  0  0  0  0  0  0  # atno 8010 bound_to 7997
  139.9513  143.6053  152.2474 H   0  0  0  0  0  0  0  0  0  0  0  0  # atno 10167 bound_to 10162
  156.0336  130.4364  150.2538 H   0  0  0  0  0  0  0  0  0  0  0  0  # atno 10718 bound_to 10713
  154.3737  135.6089  153.5753 H   0  0  0  0  0  0  0  0  0  0  0  0  # atno 10763 bound_to 10752
  152.9789  135.5844  154.4492 H   0  0  0  0  0  0  0  0  0  0  0  0  # atno 10764 bound_to 10752
  154.4250  135.2846  155.1928 H   0  0  0  0  0  0  0  0  0  0  0  0  # atno 10765 bound_to 10752
  140.7922  134.2955  157.5009 H   0  0  0  0  0  0  0  0  0  0  0  0  # atno 11005 bound_to 11000
  146.3531  140.0770  142.8620 LP  0  0  0  0  0  0  0  0  0  0  0  0  # atno 17320 bound_to 7965
  145.1046  140.9367  143.4692 LP  0  0  0  0  0  0  0  0  0  0  0  0  # atno 17321 bound_to 7965
  139.6626  144.7662  151.1933 LP  0  0  0  0  0  0  0  0  0  0  0  0  # atno 17342 bound_to 10162
  140.7582  143.5986  150.8723 LP  0  0  0  0  0  0  0  0  0  0  0  0  # atno 17343 bound_to 10162
  157.0638  131.0097  151.3213 LP  0  0  0  0  0  0  0  0  0  0  0  0  # atno 17370 bound_to 10713
  157.5050  130.7903  149.7644 LP  0  0  0  0  0  0  0  0  0  0  0  0  # atno 17371 bound_to 10713
  139.8730  134.9381  156.3705 LP  0  0  0  0  0  0  0  0  0  0  0  0  # atno 17394 bound_to 11000
  140.9379  133.7535  156.0108 LP  0  0  0  0  0  0  0  0  0  0  0  0  # atno 17395 bound_to 11000

$$$$
