AV-unprocessed.smi:2945|AV-procd|sdf|11278|dock1
  -GOLD-   2272016173D 1   1.00000     0.00000
 Structure written by MMmdl.
 36 37  0  0  0  0  0  0  0  0  1 V2000
  150.0774  135.6050  155.2315 C   0  0  0  0  0  0  0  0  0  0  0  0
  150.3167  136.3851  156.4787 C   0  0  0  0  0  0  0  0  0  0  0  0
  150.7173  137.6711  156.7092 C   0  0  0  0  0  0  0  0  0  0  0  0
  150.7344  137.7514  158.1271 C   0  0  0  0  0  0  0  0  0  0  0  0
  151.1025  138.9539  158.7820 N   0  0  0  0  0  0  0  0  0  0  0  0
  152.2382  139.6561  158.6318 C   0  0  0  0  0  0  0  0  0  0  0  0
  153.1567  139.3633  157.8659 O   0  0  0  0  0  0  0  0  0  0  0  0
  152.2458  140.7348  159.4291 N   0  0  0  0  0  0  0  0  0  0  0  0
  153.3217  141.7221  159.5409 C   0  0  2  0  0  0  0  0  0  0  0  0
  154.4888  141.1300  160.3566 C   0  0  0  0  0  0  0  0  0  0  0  0
  154.1313  140.9588  161.8432 C   0  0  0  0  0  0  0  0  0  0  0  0
  153.6459  142.2818  162.4541 C   0  0  0  0  0  0  0  0  0  0  0  0
  152.4676  142.8673  161.6591 C   0  0  0  0  0  0  0  0  0  0  0  0
  152.8225  143.0488  160.1685 C   0  0  2  0  0  0  0  0  0  0  0  0
  151.6637  143.6879  159.3844 C   0  0  0  0  0  0  0  0  0  0  0  0
  150.3785  136.6168  158.7096 N   0  0  0  0  0  0  0  0  0  0  0  0
  150.1095  135.7351  157.6561 O   0  0  0  0  0  0  0  0  0  0  0  0
  150.1788  136.2382  154.3499 H   0  0  0  0  0  0  0  0  0  0  0  0
  149.0737  135.1798  155.2274 H   0  0  0  0  0  0  0  0  0  0  0  0
  150.7926  134.7869  155.1446 H   0  0  0  0  0  0  0  0  0  0  0  0
  150.9564  138.4300  155.9791 H   0  0  0  0  0  0  0  0  0  0  0  0
  150.4318  139.3142  159.4441 H   0  0  0  0  0  0  0  0  0  0  0  0
  151.4398  140.8877  160.0170 H   0  0  0  0  0  0  0  0  0  0  0  0
  153.7084  141.9463  158.5452 H   0  0  0  0  0  0  0  0  0  0  0  0
  154.7980  140.1734  159.9337 H   0  0  0  0  0  0  0  0  0  0  0  0
  155.3533  141.7899  160.2735 H   0  0  0  0  0  0  0  0  0  0  0  0
  153.3569  140.1990  161.9531 H   0  0  0  0  0  0  0  0  0  0  0  0
  154.9989  140.5932  162.3928 H   0  0  0  0  0  0  0  0  0  0  0  0
  153.3527  142.1255  163.4926 H   0  0  0  0  0  0  0  0  0  0  0  0
  154.4676  142.9990  162.4702 H   0  0  0  0  0  0  0  0  0  0  0  0
  151.5992  142.2152  161.7598 H   0  0  0  0  0  0  0  0  0  0  0  0
  152.1806  143.8261  162.0920 H   0  0  0  0  0  0  0  0  0  0  0  0
  153.6540  143.7538  160.1212 H   0  0  0  0  0  0  0  0  0  0  0  0
  150.7605  143.0788  159.4283 H   0  0  0  0  0  0  0  0  0  0  0  0
  151.9270  143.8188  158.3346 H   0  0  0  0  0  0  0  0  0  0  0  0
  151.4159  144.6705  159.7863 H   0  0  0  0  0  0  0  0  0  0  0  0
  1  2  1  0  0  0  0
  1 18  1  0  0  0  0
  1 19  1  0  0  0  0
  1 20  1  0  0  0  0
  2 17  1  0  0  0  0
  2  3  2  0  0  0  0
  3  4  1  0  0  0  0
  3 21  1  0  0  0  0
  4  5  1  0  0  0  0
  4 16  2  0  0  0  0
  5  6  1  0  0  0  0
  5 22  1  0  0  0  0
  6  7  2  0  0  0  0
  6  8  1  0  0  0  0
  8  9  1  0  0  0  0
  8 23  1  0  0  0  0
  9 14  1  0  0  0  0
  9 10  1  0  0  0  0
  9 24  1  0  0  0  0
 10 11  1  0  0  0  0
 10 25  1  0  0  0  0
 10 26  1  0  0  0  0
 11 12  1  0  0  0  0
 11 27  1  0  0  0  0
 11 28  1  0  0  0  0
 12 13  1  0  0  0  0
 12 29  1  0  0  0  0
 12 30  1  0  0  0  0
 13 14  1  0  0  0  0
 13 31  1  0  0  0  0
 13 32  1  0  0  0  0
 14 15  1  0  0  0  0
 14 33  1  0  0  0  0
 15 34  1  0  0  0  0
 15 35  1  0  0  0  0
 15 36  1  0  0  0  0
 16 17  1  0  0  0  0
M  END
> <s_m_source_file>
AV-unprocessed.smi

> <i_m_source_file_index>
2945

> <i_lp_mmshare_version>
43012

> <i_f3d_flags>
0

> <s_epik_input>
W0NIM11jMVtjSF1jKG5vMSlbTkhdQyg9TylbTkhdW0NAQEhdMltDSDJdW0NIMl1bQ0gyXVtDSDJdW0NASF0yW0NIM10=

> <s_epik_cmdline>
J2VwaWtfcHl0aG9uJywgJy1waCcsICc3LjAnLCAnLXRuJywgJzgnLCAnLW1hJywgJzIwMCcsICctbWV0YWxfYmluZGluZycsICctaW1hZScsICc8aW5maWxlLm1hZT4nLCAnLW9tYWUnLCAnPG91dGZpbGUubWFlPic=

> <r_lp_tautomer_probability>
1

> <r_epik_Ionization_Penalty>
2.357e-05

> <r_epik_Ionization_Penalty_Charging>
0

> <r_epik_Ionization_Penalty_Neutral>
2.357e-05

> <r_epik_State_Penalty>
-0

> <r_epik_Charging_Adjusted_Penalty>
0

> <i_epik_Tot_Q>
0

> <i_epik_Tot_abs_Q>
0

> <r_epik_Metal_State_Penalty>
-0

> <b_epik_Metal_Only>
0

> <s_lp_Force_Field>
OPLS_2005

> <r_lp_Energy>
7.46694

> <b_lp_Chiralities_Consistent>
1

> <s_lp_Variant>
AV-unprocessed.smi:2945-3

> <Gold.Version>
5.8.1

> <Gold.Id.Protein>
6NUR|6NUR_protein|mol2

> <Gold.PLP.Fitness>
37.5700

> <Gold.PLP.PLP>
-34.2380

> <Gold.PLP.part.hbond>
-2.9845

> <Gold.PLP.part.metal>
0.0000

> <Gold.PLP.part.buried>
-4.1839

> <Gold.PLP.part.nonpolar>
-26.7718

> <Gold.PLP.part.repulsive>
0.2846

> <Gold.PLP.ligand.clash>
0.0000

> <Gold.PLP.ligand.torsion>
0.7421

> <Gold.PLP.Chemscore.Hbond>
1.6032

> <Gold.PLP.Chemscore.CHOScore>
0.0000

> <Gold.PLP.Chemscore.Metal>
0.0000

> <Gold.Chemscore.Hbonds>
donor molecule, donor type, donor heavy atom, donor atom, acceptor molecule, acceptor atom, score
      P1  H  6896  6909       L1    16  0.51
      P1  H  7997  8010       L1     7  1.00

> <Gold.PLP.Chemscore.Internal.Correction>
0.0067

> <Gold.Rescore>
     Score         DG    S(hbond)    S(metal)    S(lipo)     H(rot)  DE(clash)    DE(int)     intcor
     16.65     -17.54       1.38        0.00      85.53       1.00       0.04       0.86       ----

> <Gold.Chemscore.Fitness>
16.6457

> <Gold.Chemscore.DG>
-17.5379

> <Gold.Chemscore.ZeroCoef>
-5.4800

> <Gold.Chemscore.Hbond>
1.3806

> <Gold.Chemscore.Metal>
0.0000

> <Gold.Chemscore.Lipo>
85.5281

> <Gold.Chemscore.Internal_Hbond>
0.0000

> <Gold.Chemscore.DEClash>
0.0370

> <Gold.Chemscore.DEInternal>
0.8552

> <Gold.Chemscore.Rot>
1.0000

> <Gold.Chemscore.Internal.Correction>
   9.000000E+99

> <Gold.Chemscore.Hbonds>
donor molecule, donor type, donor heavy atom, donor atom, acceptor molecule, acceptor atom, score
      P1  H  6896  6909       L1    16  0.04
      P1  H  7997  8010       L1     7  1.00

> <Gold.Chemscore.Hbond.Weighted>
-4.6111

> <Gold.Chemscore.Metal.Weighted>
-0.0000

> <Gold.Chemscore.Lipo.Weighted>
-10.0068

> <Gold.Chemscore.Internal_Hbond.Weighted>
0.0000

> <Gold.Chemscore.DEClash.Weighted>
0.0370

> <Gold.Chemscore.DEInternal.Weighted>
0.8552

> <Gold.Chemscore.Rot.Weighted>
2.5600

> <Gold.Chemscore.Internal.Correction.Weighted>
   9.000000E+99

> <Gold.Protein.RotatedTorsions>
[ 6907 6896 6895 6894 ] final  101.24 input  -60.11 | X-H torsion
[ 7974 7965 7964 7962 ] final   90.45 input  175.53 | X-H torsion
[ 8008 7997 7996 7995 ] final   39.76 input   59.86 | X-H torsion
[ 10167 10162 10161 10158 ] final  158.47 input  -65.29 | X-H torsion
[ 10718 10713 10712 10709 ] final   65.37 input   66.30 | X-H torsion
[ 10763 10752 10751 10750 ] final  -73.41 input  -60.55 | X-H torsion
[ 11005 11000 10999 10996 ] final  -94.52 input  -57.11 | X-H torsion

> <Gold.Protein.ActiveResidues>
 VAL166  LYS551  ARG553  GLY616  TRP617  ASP618  TYR619  PRO620  LYS621  CYS622 
 ASP623  PHE694  ASN695  SER759  ASP760  ASP761  ALA762  ILE779  LEU786  VAL792 
 PHE793  MET794  SER795  GLU796  ALA797  LYS798  CYS799  TRP800  GLU811  SER814 

> <Gold.Protein.RotatedAtoms>
  152.5354  134.0155  159.7957 H   0  0  0  0  0  0  0  0  0  0  0  0  # atno 6907 bound_to 6896
  151.0350  133.5748  159.2664 H   0  0  0  0  0  0  0  0  0  0  0  0  # atno 6908 bound_to 6896
  151.2739  135.0700  159.9198 H   0  0  0  0  0  0  0  0  0  0  0  0  # atno 6909 bound_to 6896
  145.5188  139.2279  143.2683 H   0  0  0  0  0  0  0  0  0  0  0  0  # atno 7974 bound_to 7965
  155.2419  140.3346  155.4291 H   0  0  0  0  0  0  0  0  0  0  0  0  # atno 8008 bound_to 7997
  156.2252  140.1826  156.7425 H   0  0  0  0  0  0  0  0  0  0  0  0  # atno 8009 bound_to 7997
  154.5887  140.0641  156.9194 H   0  0  0  0  0  0  0  0  0  0  0  0  # atno 8010 bound_to 7997
  139.4827  144.4821  151.8429 H   0  0  0  0  0  0  0  0  0  0  0  0  # atno 10167 bound_to 10162
  157.6101  130.9211  149.9968 H   0  0  0  0  0  0  0  0  0  0  0  0  # atno 10718 bound_to 10713
  154.4591  135.5898  153.6243 H   0  0  0  0  0  0  0  0  0  0  0  0  # atno 10763 bound_to 10752
  152.9821  135.6039  154.3509 H   0  0  0  0  0  0  0  0  0  0  0  0  # atno 10764 bound_to 10752
  154.3378  135.2842  155.2417 H   0  0  0  0  0  0  0  0  0  0  0  0  # atno 10765 bound_to 10752
  141.1468  133.7962  157.0310 H   0  0  0  0  0  0  0  0  0  0  0  0  # atno 11005 bound_to 11000
  146.2119  140.5999  142.9056 LP  0  0  0  0  0  0  0  0  0  0  0  0  # atno 17320 bound_to 7965
  144.7687  140.5589  143.6685 LP  0  0  0  0  0  0  0  0  0  0  0  0  # atno 17321 bound_to 7965
  140.4298  144.2131  150.5888 LP  0  0  0  0  0  0  0  0  0  0  0  0  # atno 17342 bound_to 10162
  140.4790  143.2386  151.8982 LP  0  0  0  0  0  0  0  0  0  0  0  0  # atno 17343 bound_to 10162
  156.1201  130.3646  149.9902 LP  0  0  0  0  0  0  0  0  0  0  0  0  # atno 17370 bound_to 10713
  156.7983  130.9281  151.3646 LP  0  0  0  0  0  0  0  0  0  0  0  0  # atno 17371 bound_to 10713
  140.0754  134.9678  157.1537 LP  0  0  0  0  0  0  0  0  0  0  0  0  # atno 17394 bound_to 11000
  140.3651  134.2451  155.7183 LP  0  0  0  0  0  0  0  0  0  0  0  0  # atno 17395 bound_to 11000

$$$$
