AV-unprocessed.smi:1997|AV-procd|sdf|8089|dock9
  -GOLD-   2272010303D 1   1.00000     0.00000
 Structure written by MMmdl.
 36 38  0  0  0  0  0  0  0  0  2 V2000
  142.0452  135.2479  154.5795 O   0  0  0  0  0  0  0  0  0  0  0  0
  142.0172  135.9426  153.5607 C   0  0  0  0  0  0  0  0  0  0  0  0
  141.1290  136.9248  153.2851 N   0  5  0  0  0  0  0  0  0  0  0  0
  140.0094  137.0416  154.0181 C   0  0  0  0  0  0  0  0  0  0  0  0
  139.8186  136.3556  155.1538 N   0  0  0  0  0  0  0  0  0  0  0  0
  138.5973  136.6251  155.7541 N   0  0  0  0  0  0  0  0  0  0  0  0
  137.8833  137.5179  155.0645 C   0  0  0  0  0  0  0  0  0  0  0  0
  136.5311  137.9715  155.5025 C   0  0  0  0  0  0  0  0  0  0  0  0
  135.3935  136.9866  155.6457 C   0  0  0  0  0  0  0  0  0  0  0  0
  135.3625  138.0126  154.5421 C   0  0  0  0  0  0  0  0  0  0  0  0
  138.6694  138.1127  153.6107 S   0  0  0  0  0  0  0  0  0  0  0  0
  142.9272  135.7496  152.5935 N   0  0  0  0  0  0  0  0  0  0  0  0
  144.0048  134.7563  152.6039 C   0  0  1  0  0  0  0  0  0  0  0  0
  143.6922  133.7165  151.5034 C   0  0  0  0  0  0  0  0  0  0  0  0
  144.3805  132.3573  151.7196 C   0  0  0  0  0  0  0  0  0  0  0  0
  145.9149  132.3870  151.6488 C   0  0  0  0  0  0  0  0  0  0  0  0
  146.5675  133.2610  152.7333 C   0  0  0  0  0  0  0  0  0  0  0  0
  146.4857  134.6801  152.4143 N   0  0  0  0  0  0  0  0  0  0  0  0
  145.3704  135.4179  152.3045 C   0  0  0  0  0  0  0  0  0  0  0  0
  145.4397  136.5988  151.9645 O   0  0  0  0  0  0  0  0  0  0  0  0
  136.6127  138.7684  156.2389 H   0  0  0  0  0  0  0  0  0  0  0  0
  135.5829  135.9524  155.3647 H   0  0  0  0  0  0  0  0  0  0  0  0
  134.7118  137.1262  156.4822 H   0  0  0  0  0  0  0  0  0  0  0  0
  134.6605  138.8378  154.6424 H   0  0  0  0  0  0  0  0  0  0  0  0
  135.5171  137.6538  153.5267 H   0  0  0  0  0  0  0  0  0  0  0  0
  142.8710  136.3484  151.7830 H   0  0  0  0  0  0  0  0  0  0  0  0
  144.0293  134.2707  153.5810 H   0  0  0  0  0  0  0  0  0  0  0  0
  142.6173  133.5294  151.4880 H   0  0  0  0  0  0  0  0  0  0  0  0
  143.9330  134.1096  150.5141 H   0  0  0  0  0  0  0  0  0  0  0  0
  144.0701  131.9446  152.6804 H   0  0  0  0  0  0  0  0  0  0  0  0
  144.0138  131.6597  150.9661 H   0  0  0  0  0  0  0  0  0  0  0  0
  146.2780  131.3654  151.7650 H   0  0  0  0  0  0  0  0  0  0  0  0
  146.2406  132.7090  150.6588 H   0  0  0  0  0  0  0  0  0  0  0  0
  146.1358  133.0628  153.7155 H   0  0  0  0  0  0  0  0  0  0  0  0
  147.6257  133.0096  152.8073 H   0  0  0  0  0  0  0  0  0  0  0  0
  147.3612  135.1460  152.2254 H   0  0  0  0  0  0  0  0  0  0  0  0
  1  2  2  0  0  0  0
  2  3  1  0  0  0  0
  2 12  1  0  0  0  0
  3  4  1  0  0  0  0
  4 11  1  0  0  0  0
  4  5  2  0  0  0  0
  5  6  1  0  0  0  0
  6  7  2  0  0  0  0
  7  8  1  0  0  0  0
  7 11  1  0  0  0  0
  8 10  1  0  0  0  0
  8  9  1  0  0  0  0
  8 21  1  0  0  0  0
  9 10  1  0  0  0  0
  9 22  1  0  0  0  0
  9 23  1  0  0  0  0
 10 24  1  0  0  0  0
 10 25  1  0  0  0  0
 12 13  1  0  0  0  0
 12 26  1  0  0  0  0
 13 19  1  0  0  0  0
 13 14  1  0  0  0  0
 13 27  1  0  0  0  0
 14 15  1  0  0  0  0
 14 28  1  0  0  0  0
 14 29  1  0  0  0  0
 15 16  1  0  0  0  0
 15 30  1  0  0  0  0
 15 31  1  0  0  0  0
 16 17  1  0  0  0  0
 16 32  1  0  0  0  0
 16 33  1  0  0  0  0
 17 18  1  0  0  0  0
 17 34  1  0  0  0  0
 17 35  1  0  0  0  0
 18 19  1  0  0  0  0
 18 36  1  0  0  0  0
 19 20  2  0  0  0  0
M  CHG  1   3  -1
M  END
> <s_m_source_file>
AV-unprocessed.smi

> <i_m_source_file_index>
1997

> <i_lp_mmshare_version>
43012

> <i_f3d_flags>
0

> <s_epik_input>
W0NIMl0xW0NIMl1bQ0hdMWMoczIpbm5jMltOSF1DKD1PKVtOSF1bQ0BASF0zW0NIMl1bQ0gyXVtDSDJdW0NIMl1bTkhdQzM9Tw==

> <s_epik_cmdline>
J2VwaWtfcHl0aG9uJywgJy1waCcsICc3LjAnLCAnLXRuJywgJzgnLCAnLW1hJywgJzIwMCcsICctbWV0YWxfYmluZGluZycsICctaW1hZScsICc8aW5maWxlLm1hZT4nLCAnLW9tYWUnLCAnPG91dGZpbGUubWFlPic=

> <r_lp_tautomer_probability>
1

> <r_epik_Ionization_Penalty>
4.47229

> <r_epik_Ionization_Penalty_Charging>
4.32584

> <r_epik_Ionization_Penalty_Neutral>
0.146443

> <r_epik_State_Penalty>
4.32544

> <r_epik_Charging_Adjusted_Penalty>
8.65129

> <i_epik_Tot_Q>
-1

> <i_epik_Tot_abs_Q>
1

> <r_epik_Metal_State_Penalty>
0.738743

> <b_epik_Metal_Only>
1

> <s_lp_Force_Field>
OPLS_2005

> <r_lp_Energy>
7.41149

> <b_lp_Chiralities_Consistent>
1

> <s_lp_Variant>
AV-unprocessed.smi:1997-4

> <Gold.Version>
5.8.1

> <Gold.Id.Protein>
6NUR|6NUR_protein|mol2

> <Gold.PLP.Fitness>
36.5516

> <Gold.PLP.PLP>
-31.4294

> <Gold.PLP.part.hbond>
-3.6704

> <Gold.PLP.part.metal>
0.0000

> <Gold.PLP.part.buried>
-6.4096

> <Gold.PLP.part.nonpolar>
-22.7239

> <Gold.PLP.part.repulsive>
0.6356

> <Gold.PLP.ligand.clash>
0.0000

> <Gold.PLP.ligand.torsion>
0.2487

> <Gold.PLP.Chemscore.Hbond>
1.8296

> <Gold.PLP.Chemscore.CHOScore>
0.0000

> <Gold.PLP.Chemscore.Metal>
0.0000

> <Gold.Chemscore.Hbonds>
donor molecule, donor type, donor heavy atom, donor atom, acceptor molecule, acceptor atom, score
      L1  H    18    36       P1  7948  1.00
      P1  H 11000 11005       L1     5  0.72

> <Gold.PLP.Chemscore.Internal.Correction>
0.1307

> <Gold.Rescore>
     Score         DG    S(hbond)    S(metal)    S(lipo)     H(rot)  DE(clash)    DE(int)     intcor
     11.55     -13.50       1.32        0.00      58.89       1.27       0.00       1.95       ----

> <Gold.Chemscore.Fitness>
11.5511

> <Gold.Chemscore.DG>
-13.5023

> <Gold.Chemscore.ZeroCoef>
-5.4800

> <Gold.Chemscore.Hbond>
1.3153

> <Gold.Chemscore.Metal>
0.0000

> <Gold.Chemscore.Lipo>
58.8897

> <Gold.Chemscore.Internal_Hbond>
0.0000

> <Gold.Chemscore.DEClash>
0.0004

> <Gold.Chemscore.DEInternal>
1.9508

> <Gold.Chemscore.Rot>
1.2738

> <Gold.Chemscore.Internal.Correction>
   9.000000E+99

> <Gold.Chemscore.Hbonds>
donor molecule, donor type, donor heavy atom, donor atom, acceptor molecule, acceptor atom, score
      L1  H    18    36       P1  7948  0.99
      P1  H 11000 11005       L1     5  0.10

> <Gold.Chemscore.Hbond.Weighted>
-4.3932

> <Gold.Chemscore.Metal.Weighted>
-0.0000

> <Gold.Chemscore.Lipo.Weighted>
-6.8901

> <Gold.Chemscore.Internal_Hbond.Weighted>
0.0000

> <Gold.Chemscore.DEClash.Weighted>
0.0004

> <Gold.Chemscore.DEInternal.Weighted>
1.9508

> <Gold.Chemscore.Rot.Weighted>
3.2610

> <Gold.Chemscore.Internal.Correction.Weighted>
   9.000000E+99

> <Gold.Protein.RotatedTorsions>
[ 6907 6896 6895 6894 ] final  -10.53 input  -60.11 | X-H torsion
[ 7974 7965 7964 7962 ] final -137.44 input  175.53 | X-H torsion
[ 8008 7997 7996 7995 ] final  -37.69 input   59.86 | X-H torsion
[ 10167 10162 10161 10158 ] final -167.83 input  -65.29 | X-H torsion
[ 10718 10713 10712 10709 ] final   72.54 input   66.30 | X-H torsion
[ 10763 10752 10751 10750 ] final -127.91 input  -60.55 | X-H torsion
[ 11005 11000 10999 10996 ] final   57.79 input  -57.11 | X-H torsion

> <Gold.Protein.ActiveResidues>
 VAL166  LYS551  ARG553  GLY616  TRP617  ASP618  TYR619  PRO620  LYS621  CYS622 
 ASP623  PHE694  ASN695  SER759  ASP760  ASP761  ALA762  ILE779  LEU786  VAL792 
 PHE793  MET794  SER795  GLU796  ALA797  LYS798  CYS799  TRP800  GLU811  SER814 

> <Gold.Protein.RotatedAtoms>
  151.4004  135.0970  159.9553 H   0  0  0  0  0  0  0  0  0  0  0  0  # atno 6907 bound_to 6896
  152.5052  133.8893  159.7396 H   0  0  0  0  0  0  0  0  0  0  0  0  # atno 6908 bound_to 6896
  150.9366  133.6648  159.2828 H   0  0  0  0  0  0  0  0  0  0  0  0  # atno 6909 bound_to 6896
  144.8842  140.6550  143.5187 H   0  0  0  0  0  0  0  0  0  0  0  0  # atno 7974 bound_to 7965
  154.4049  140.1597  156.2579 H   0  0  0  0  0  0  0  0  0  0  0  0  # atno 8008 bound_to 7997
  155.9062  140.3430  155.6041 H   0  0  0  0  0  0  0  0  0  0  0  0  # atno 8009 bound_to 7997
  155.7389  140.0790  157.2245 H   0  0  0  0  0  0  0  0  0  0  0  0  # atno 8010 bound_to 7997
  139.6024  144.0983  152.1757 H   0  0  0  0  0  0  0  0  0  0  0  0  # atno 10167 bound_to 10162
  157.6506  130.9584  150.0943 H   0  0  0  0  0  0  0  0  0  0  0  0  # atno 10718 bound_to 10713
  154.8754  135.3946  154.3670 H   0  0  0  0  0  0  0  0  0  0  0  0  # atno 10763 bound_to 10752
  153.4435  135.7027  153.6159 H   0  0  0  0  0  0  0  0  0  0  0  0  # atno 10764 bound_to 10752
  153.4729  135.3786  155.2370 H   0  0  0  0  0  0  0  0  0  0  0  0  # atno 10765 bound_to 10752
  140.0426  134.5852  155.9363 H   0  0  0  0  0  0  0  0  0  0  0  0  # atno 11005 bound_to 11000
  145.3900  139.1618  143.4234 LP  0  0  0  0  0  0  0  0  0  0  0  0  # atno 17320 bound_to 7965
  146.3013  140.3988  142.8703 LP  0  0  0  0  0  0  0  0  0  0  0  0  # atno 17321 bound_to 7965
  140.0582  144.5878  150.7283 LP  0  0  0  0  0  0  0  0  0  0  0  0  # atno 17342 bound_to 10162
  140.7260  143.2636  151.4119 LP  0  0  0  0  0  0  0  0  0  0  0  0  # atno 17343 bound_to 10162
  156.1883  130.3653  149.8943 LP  0  0  0  0  0  0  0  0  0  0  0  0  # atno 17370 bound_to 10713
  156.6878  130.8883  151.3584 LP  0  0  0  0  0  0  0  0  0  0  0  0  # atno 17371 bound_to 10713
  141.1890  133.6564  156.5351 LP  0  0  0  0  0  0  0  0  0  0  0  0  # atno 17394 bound_to 11000
  140.4045  134.7327  157.4799 LP  0  0  0  0  0  0  0  0  0  0  0  0  # atno 17395 bound_to 11000

$$$$
