AV-unprocessed.smi:234|AV-procd|sdf|1796|dock10
  -GOLD-   2262020363D 1   1.00000     0.00000
 Structure written by MMmdl.
 59 62  0  0  0  0  0  0  0  0  1 V2000
  151.7394  144.9902  159.5420 C   0  0  0  0  0  0  0  0  0  0  0  0
  152.0323  143.7383  160.3718 C   0  0  0  0  0  0  0  0  0  0  0  0
  151.1748  142.6942  159.9413 O   0  0  0  0  0  0  0  0  0  0  0  0
  151.6165  142.0568  158.7479 C   0  0  1  0  0  0  0  0  0  0  0  0
  152.4198  140.8062  159.1074 C   0  0  0  0  0  0  0  0  0  0  0  0
  151.0913  140.0450  159.0600 C   0  0  2  0  0  0  0  0  0  0  0  0
  151.2176  138.6940  158.5017 N   0  0  0  0  0  0  0  0  0  0  0  0
  152.1082  137.7629  159.1884 C   0  0  0  0  0  0  0  0  0  0  0  0
  150.0833  138.0736  158.0930 C   0  0  0  0  0  0  0  0  0  0  0  0
  148.8697  138.6366  158.3337 N   0  0  0  0  0  0  0  0  0  0  0  0
  147.7525  138.0180  157.9413 C   0  0  0  0  0  0  0  0  0  0  0  0
  147.6230  136.8466  157.3153 N   0  0  0  0  0  0  0  0  0  0  0  0
  148.8374  136.2687  157.0884 C   0  0  0  0  0  0  0  0  0  0  0  0
  150.1052  136.8113  157.4395 C   0  0  0  0  0  0  0  0  0  0  0  0
  151.1188  135.9510  157.0371 N   0  0  0  0  0  0  0  0  0  0  0  0
  150.4857  134.9532  156.4834 C   0  0  0  0  0  0  0  0  0  0  0  0
  149.1119  135.0527  156.4859 N   0  0  0  0  0  0  0  0  0  0  0  0
  148.1695  134.0848  155.9444 C   0  0  0  0  0  0  0  0  0  0  0  0
  147.9834  134.1379  154.4025 C   0  0  1  0  0  0  0  0  0  0  0  0
  147.6353  135.4749  154.0931 O   0  0  0  0  0  0  0  0  0  0  0  0
  149.2282  133.7387  153.6127 C   0  0  0  0  0  0  0  0  0  0  0  0
  149.0201  132.2560  153.2884 C   0  0  0  0  0  0  0  0  0  0  0  0
  147.6833  131.9420  153.6679 O   0  0  0  0  0  0  0  0  0  0  0  0
  146.9381  133.1369  153.8691 C   0  0  2  0  0  0  0  0  0  0  0  0
  146.2784  133.5117  152.5272 C   0  0  0  0  0  0  0  0  0  0  0  0
  150.5606  141.1336  158.0795 C   0  0  0  0  0  0  0  0  0  0  0  0
  149.0959  141.5525  158.2365 C   0  0  0  0  0  0  0  0  0  0  0  0
  150.7897  140.9110  156.5749 C   0  0  0  0  0  0  0  0  0  0  0  0
  152.3821  145.8173  159.8437 H   0  0  0  0  0  0  0  0  0  0  0  0
  150.7039  145.3085  159.6656 H   0  0  0  0  0  0  0  0  0  0  0  0
  151.9087  144.8044  158.4811 H   0  0  0  0  0  0  0  0  0  0  0  0
  153.0779  143.4526  160.2561 H   0  0  0  0  0  0  0  0  0  0  0  0
  151.8641  143.9450  161.4297 H   0  0  0  0  0  0  0  0  0  0  0  0
  152.1534  142.7175  158.0647 H   0  0  0  0  0  0  0  0  0  0  0  0
  153.1255  140.5141  158.3277 H   0  0  0  0  0  0  0  0  0  0  0  0
  152.8951  140.8329  160.0885 H   0  0  0  0  0  0  0  0  0  0  0  0
  150.5848  140.0759  160.0267 H   0  0  0  0  0  0  0  0  0  0  0  0
  151.5576  136.9556  159.6746 H   0  0  0  0  0  0  0  0  0  0  0  0
  152.6957  138.2643  159.9574 H   0  0  0  0  0  0  0  0  0  0  0  0
  152.8025  137.3190  158.4749 H   0  0  0  0  0  0  0  0  0  0  0  0
  146.8305  138.5353  158.1624 H   0  0  0  0  0  0  0  0  0  0  0  0
  151.0081  134.1060  156.0632 H   0  0  0  0  0  0  0  0  0  0  0  0
  148.4954  133.0886  156.2467 H   0  0  0  0  0  0  0  0  0  0  0  0
  147.2104  134.2489  156.4379 H   0  0  0  0  0  0  0  0  0  0  0  0
  147.9592  135.6762  153.2286 H   0  0  0  0  0  0  0  0  0  0  0  0
  149.2811  134.2952  152.6755 H   0  0  0  0  0  0  0  0  0  0  0  0
  150.1579  133.9313  154.1480 H   0  0  0  0  0  0  0  0  0  0  0  0
  149.1635  132.0646  152.2245 H   0  0  0  0  0  0  0  0  0  0  0  0
  149.7120  131.6191  153.8397 H   0  0  0  0  0  0  0  0  0  0  0  0
  146.1464  132.9650  154.5978 H   0  0  0  0  0  0  0  0  0  0  0  0
  145.6600  134.4042  152.6243 H   0  0  0  0  0  0  0  0  0  0  0  0
  145.6313  132.7062  152.1800 H   0  0  0  0  0  0  0  0  0  0  0  0
  147.0167  133.7002  151.7475 H   0  0  0  0  0  0  0  0  0  0  0  0
  148.4159  140.8231  157.7970 H   0  0  0  0  0  0  0  0  0  0  0  0
  148.8990  142.5064  157.7474 H   0  0  0  0  0  0  0  0  0  0  0  0
  148.8173  141.6584  159.2852 H   0  0  0  0  0  0  0  0  0  0  0  0
  150.1032  140.1690  156.1660 H   0  0  0  0  0  0  0  0  0  0  0  0
  151.8004  140.5643  156.3595 H   0  0  0  0  0  0  0  0  0  0  0  0
  150.6427  141.8328  156.0112 H   0  0  0  0  0  0  0  0  0  0  0  0
  1  2  1  0  0  0  0
  1 29  1  0  0  0  0
  1 30  1  0  0  0  0
  1 31  1  0  0  0  0
  2  3  1  0  0  0  0
  2 32  1  0  0  0  0
  2 33  1  0  0  0  0
  3  4  1  0  0  0  0
  4 26  1  0  0  0  0
  4  5  1  0  0  0  0
  4 34  1  0  0  0  0
  5  6  1  0  0  0  0
  5 35  1  0  0  0  0
  5 36  1  0  0  0  0
  6  7  1  0  0  0  0
  6 26  1  0  0  0  0
  6 37  1  0  0  0  0
  7  8  1  0  0  0  0
  7  9  1  0  0  0  0
  8 38  1  0  0  0  0
  8 39  1  0  0  0  0
  8 40  1  0  0  0  0
  9 14  1  0  0  0  0
  9 10  2  0  0  0  0
 10 11  1  0  0  0  0
 11 12  2  0  0  0  0
 11 41  1  0  0  0  0
 12 13  1  0  0  0  0
 13 17  1  0  0  0  0
 13 14  2  0  0  0  0
 14 15  1  0  0  0  0
 15 16  2  0  0  0  0
 16 17  1  0  0  0  0
 16 42  1  0  0  0  0
 17 18  1  0  0  0  0
 18 19  1  0  0  0  0
 18 43  1  0  0  0  0
 18 44  1  0  0  0  0
 19 24  1  0  0  0  0
 19 20  1  0  0  0  0
 19 21  1  0  0  0  0
 20 45  1  0  0  0  0
 21 22  1  0  0  0  0
 21 46  1  0  0  0  0
 21 47  1  0  0  0  0
 22 23  1  0  0  0  0
 22 48  1  0  0  0  0
 22 49  1  0  0  0  0
 23 24  1  0  0  0  0
 24 25  1  0  0  0  0
 24 50  1  0  0  0  0
 25 51  1  0  0  0  0
 25 52  1  0  0  0  0
 25 53  1  0  0  0  0
 26 27  1  0  0  0  0
 26 28  1  0  0  0  0
 27 54  1  0  0  0  0
 27 55  1  0  0  0  0
 27 56  1  0  0  0  0
 28 57  1  0  0  0  0
 28 58  1  0  0  0  0
 28 59  1  0  0  0  0
M  END
> <s_m_source_file>
AV-unprocessed.smi

> <i_m_source_file_index>
234

> <i_lp_mmshare_version>
43012

> <i_f3d_flags>
0

> <s_epik_input>
W0NIM11bQ0gyXU9bQ0BASF0oQzEoW0NIM10pW0NIM10pW0NIMl1bQ0BIXTFOKFtDSDNdKWMobltjSF1uMiljKGMyMyluW2NIXW4zW0NIMl1bQ0BAXTQoW09IXSlbQ0gyXVtDSDJdT1tDQEhdNFtDSDNd

> <s_epik_cmdline>
J2VwaWtfcHl0aG9uJywgJy1waCcsICc3LjAnLCAnLXRuJywgJzgnLCAnLW1hJywgJzIwMCcsICctbWV0YWxfYmluZGluZycsICctaW1hZScsICc8aW5maWxlLm1hZT4nLCAnLW9tYWUnLCAnPG91dGZpbGUubWFlPic=

> <r_lp_tautomer_probability>
1

> <r_epik_Ionization_Penalty>
0.00349132

> <r_epik_Ionization_Penalty_Charging>
0

> <r_epik_Ionization_Penalty_Neutral>
0.00349132

> <r_epik_State_Penalty>
0.00242418

> <r_epik_Charging_Adjusted_Penalty>
0.00242418

> <i_epik_Tot_Q>
0

> <i_epik_Tot_abs_Q>
0

> <r_epik_Metal_State_Penalty>
-0

> <b_epik_Metal_Only>
0

> <s_lp_Force_Field>
OPLS_2005

> <r_lp_Energy>
50.3749

> <b_lp_Chiralities_Consistent>
1

> <s_lp_Variant>
AV-unprocessed.smi:234-12

> <Gold.Version>
5.8.1

> <Gold.Id.Protein>
6NUR|6NUR_protein|mol2

> <Gold.PLP.Fitness>
40.3260

> <Gold.PLP.PLP>
-38.5221

> <Gold.PLP.part.hbond>
-1.4406

> <Gold.PLP.part.metal>
0.0000

> <Gold.PLP.part.buried>
-7.3440

> <Gold.PLP.part.nonpolar>
-30.1128

> <Gold.PLP.part.repulsive>
0.0601

> <Gold.PLP.ligand.clash>
0.0000

> <Gold.PLP.ligand.torsion>
1.0353

> <Gold.PLP.Chemscore.Hbond>
1.0000

> <Gold.PLP.Chemscore.CHOScore>
0.0000

> <Gold.PLP.Chemscore.Metal>
0.0000

> <Gold.Chemscore.Hbonds>
donor molecule, donor type, donor heavy atom, donor atom, acceptor molecule, acceptor atom, score
      L1  H    20    45       P1  7948  1.00

> <Gold.PLP.Chemscore.Internal.Correction>
0.8745

> <Gold.Rescore>
     Score         DG    S(hbond)    S(metal)    S(lipo)     H(rot)  DE(clash)    DE(int)     intcor
      9.45     -13.99       0.98        0.00     102.05       2.62       0.01       4.53       ----

> <Gold.Chemscore.Fitness>
9.4516

> <Gold.Chemscore.DG>
-13.9904

> <Gold.Chemscore.ZeroCoef>
-5.4800

> <Gold.Chemscore.Hbond>
0.9829

> <Gold.Chemscore.Metal>
0.0000

> <Gold.Chemscore.Lipo>
102.0484

> <Gold.Chemscore.Internal_Hbond>
0.0000

> <Gold.Chemscore.DEClash>
0.0082

> <Gold.Chemscore.DEInternal>
4.5307

> <Gold.Chemscore.Rot>
2.6219

> <Gold.Chemscore.Internal.Correction>
   9.000000E+99

> <Gold.Chemscore.Hbonds>
donor molecule, donor type, donor heavy atom, donor atom, acceptor molecule, acceptor atom, score
      L1  H    20    45       P1  7948  1.00

> <Gold.Chemscore.Hbond.Weighted>
-3.2829

> <Gold.Chemscore.Metal.Weighted>
-0.0000

> <Gold.Chemscore.Lipo.Weighted>
-11.9397

> <Gold.Chemscore.Internal_Hbond.Weighted>
0.0000

> <Gold.Chemscore.DEClash.Weighted>
0.0082

> <Gold.Chemscore.DEInternal.Weighted>
4.5307

> <Gold.Chemscore.Rot.Weighted>
6.7121

> <Gold.Chemscore.Internal.Correction.Weighted>
   9.000000E+99

> <Gold.Protein.RotatedTorsions>
[ 6907 6896 6895 6894 ] final -162.86 input  -60.11 | X-H torsion
[ 7974 7965 7964 7962 ] final  -86.27 input  175.53 | X-H torsion
[ 8008 7997 7996 7995 ] final  -59.65 input   59.86 | X-H torsion
[ 10167 10162 10161 10158 ] final   12.49 input  -65.29 | X-H torsion
[ 10718 10713 10712 10709 ] final  143.52 input   66.30 | X-H torsion
[ 10763 10752 10751 10750 ] final   26.85 input  -60.55 | X-H torsion
[ 11005 11000 10999 10996 ] final   11.90 input  -57.11 | X-H torsion

> <Gold.Protein.ActiveResidues>
 VAL166  LYS551  ARG553  GLY616  TRP617  ASP618  TYR619  PRO620  LYS621  CYS622 
 ASP623  PHE694  ASN695  SER759  ASP760  ASP761  ALA762  ILE779  LEU786  VAL792 
 PHE793  MET794  SER795  GLU796  ALA797  LYS798  CYS799  TRP800  GLU811  SER814 

> <Gold.Protein.RotatedAtoms>
  151.3869  133.3802  159.2716 H   0  0  0  0  0  0  0  0  0  0  0  0  # atno 6907 bound_to 6896
  150.9535  134.8933  159.7697 H   0  0  0  0  0  0  0  0  0  0  0  0  # atno 6908 bound_to 6896
  152.5121  134.3825  159.9408 H   0  0  0  0  0  0  0  0  0  0  0  0  # atno 6909 bound_to 6896
  145.4822  140.9556  143.1858 H   0  0  0  0  0  0  0  0  0  0  0  0  # atno 7974 bound_to 7965
  154.4362  140.1057  156.6150 H   0  0  0  0  0  0  0  0  0  0  0  0  # atno 8008 bound_to 7997
  155.5769  140.3490  155.4511 H   0  0  0  0  0  0  0  0  0  0  0  0  # atno 8009 bound_to 7997
  156.0348  140.1268  157.0209 H   0  0  0  0  0  0  0  0  0  0  0  0  # atno 8010 bound_to 7997
  140.6065  143.8498  150.7019 H   0  0  0  0  0  0  0  0  0  0  0  0  # atno 10167 bound_to 10162
  157.3680  131.0975  151.0854 H   0  0  0  0  0  0  0  0  0  0  0  0  # atno 10718 bound_to 10713
  153.0595  135.6551  154.0497 H   0  0  0  0  0  0  0  0  0  0  0  0  # atno 10763 bound_to 10752
  154.0168  135.2923  155.3387 H   0  0  0  0  0  0  0  0  0  0  0  0  # atno 10764 bound_to 10752
  154.6926  135.5276  153.8482 H   0  0  0  0  0  0  0  0  0  0  0  0  # atno 10765 bound_to 10752
  140.4980  134.0774  155.7787 H   0  0  0  0  0  0  0  0  0  0  0  0  # atno 11005 bound_to 11000
  144.7882  139.6382  143.7125 LP  0  0  0  0  0  0  0  0  0  0  0  0  # atno 17320 bound_to 7965
  146.2334  139.5858  142.9540 LP  0  0  0  0  0  0  0  0  0  0  0  0  # atno 17321 bound_to 7965
  140.2056  143.3924  152.1758 LP  0  0  0  0  0  0  0  0  0  0  0  0  # atno 17342 bound_to 10162
  139.5328  144.7178  151.4995 LP  0  0  0  0  0  0  0  0  0  0  0  0  # atno 17343 bound_to 10162
  157.1969  130.6377  149.5724 LP  0  0  0  0  0  0  0  0  0  0  0  0  # atno 17370 bound_to 10713
  155.9750  130.4704  150.6427 LP  0  0  0  0  0  0  0  0  0  0  0  0  # atno 17371 bound_to 10713
  141.1450  133.9071  157.2237 LP  0  0  0  0  0  0  0  0  0  0  0  0  # atno 17394 bound_to 11000
  139.9730  135.0122  156.9559 LP  0  0  0  0  0  0  0  0  0  0  0  0  # atno 17395 bound_to 11000

$$$$
