AV-unprocessed.smi:1056|AV-procd|sdf|4646|dock1
  -GOLD-   22720 3153D 1   1.00000     0.00000
 Structure written by MMmdl.
 45 47  0  0  0  0  0  0  0  0  4 V2000
  152.6206  143.3974  161.7918 C   0  0  0  0  0  0  0  0  0  0  0  0
  152.1630  142.8937  160.4334 C   0  0  0  0  0  0  0  0  0  0  0  0
  152.4487  141.5560  160.0793 C   0  0  0  0  0  0  0  0  0  0  0  0
  152.0149  141.1236  158.8317 C   0  0  0  0  0  0  0  0  0  0  0  0
  152.1368  139.8830  158.2035 N   0  3  0  0  0  0  0  0  0  0  0  0
  151.5499  139.9359  156.9766 C   0  0  0  0  0  0  0  0  0  0  0  0
  151.0588  141.1943  156.8081 N   0  0  0  0  0  0  0  0  0  0  0  0
  150.3311  141.7679  155.6633 C   0  0  0  0  0  0  0  0  0  0  0  0
  149.4872  140.7402  154.8775 C   0  0  2  0  0  0  0  0  0  0  0  0
  150.3444  140.0018  154.0274 O   0  0  0  0  0  0  0  0  0  0  0  0
  148.3708  141.3861  154.0272 C   0  0  0  0  0  0  0  0  0  0  0  0
  147.4190  142.1969  154.8301 N   0  3  2  0  0  0  0  0  0  0  0  0
  147.0311  141.5282  156.0993 C   0  0  0  0  0  0  0  0  0  0  0  0
  146.3101  142.5210  157.0311 C   0  0  0  0  0  0  0  0  0  0  0  0
  145.2778  143.2565  156.2918 N   0  5  0  0  0  0  0  0  0  0  0  0
  145.2337  143.4568  154.9379 C   0  0  0  0  0  0  0  0  0  0  0  0
  144.4462  144.1959  154.3514 O   0  0  0  0  0  0  0  0  0  0  0  0
  146.2244  142.6475  154.0585 C   0  0  0  0  0  0  0  0  0  0  0  0
  151.3206  141.9702  157.9447 C   0  0  0  0  0  0  0  0  0  0  0  0
  151.0318  143.2918  158.2794 C   0  0  0  0  0  0  0  0  0  0  0  0
  151.4637  143.7504  159.5445 C   0  0  0  0  0  0  0  0  0  0  0  0
  151.1598  145.1864  159.9367 C   0  0  0  0  0  0  0  0  0  0  0  0
  153.0986  142.6064  162.3704 H   0  0  0  0  0  0  0  0  0  0  0  0
  151.7733  143.7657  162.3705 H   0  0  0  0  0  0  0  0  0  0  0  0
  153.3404  144.2081  161.6762 H   0  0  0  0  0  0  0  0  0  0  0  0
  152.9794  140.8975  160.7516 H   0  0  0  0  0  0  0  0  0  0  0  0
  151.4876  139.1266  156.2629 H   0  0  0  0  0  0  0  0  0  0  0  0
  149.6828  142.5516  156.0578 H   0  0  0  0  0  0  0  0  0  0  0  0
  151.0361  142.2722  155.0031 H   0  0  0  0  0  0  0  0  0  0  0  0
  149.0632  140.0484  155.6038 H   0  0  0  0  0  0  0  0  0  0  0  0
  149.9102  139.8641  153.1991 H   0  0  0  0  0  0  0  0  0  0  0  0
  148.8024  142.0187  153.2504 H   0  0  0  0  0  0  0  0  0  0  0  0
  147.8261  140.5957  153.5088 H   0  0  0  0  0  0  0  0  0  0  0  0
  146.3896  140.6728  155.8794 H   0  0  0  0  0  0  0  0  0  0  0  0
  147.9112  141.1402  156.6134 H   0  0  0  0  0  0  0  0  0  0  0  0
  145.8967  141.9816  157.8828 H   0  0  0  0  0  0  0  0  0  0  0  0
  147.0499  143.2071  157.4441 H   0  0  0  0  0  0  0  0  0  0  0  0
  146.5252  143.2720  153.2182 H   0  0  0  0  0  0  0  0  0  0  0  0
  145.6977  141.7844  153.6488 H   0  0  0  0  0  0  0  0  0  0  0  0
  150.4991  143.9479  157.6076 H   0  0  0  0  0  0  0  0  0  0  0  0
  150.6498  145.7202  159.1342 H   0  0  0  0  0  0  0  0  0  0  0  0
  152.0795  145.7265  160.1630 H   0  0  0  0  0  0  0  0  0  0  0  0
  150.5161  145.2136  160.8163 H   0  0  0  0  0  0  0  0  0  0  0  0
  147.9110  143.0320  155.1129 H   0  0  0  0  0  0  0  0  0  0  0  0
  152.5834  139.0577  158.5830 H   0  0  0  0  0  0  0  0  0  0  0  0
  1  2  1  0  0  0  0
  1 23  1  0  0  0  0
  1 24  1  0  0  0  0
  1 25  1  0  0  0  0
  2 21  1  0  0  0  0
  2  3  2  0  0  0  0
  3  4  1  0  0  0  0
  3 26  1  0  0  0  0
  4 19  2  0  0  0  0
  4  5  1  0  0  0  0
  5  6  2  0  0  0  0
  5 45  1  0  0  0  0
  6  7  1  0  0  0  0
  6 27  1  0  0  0  0
  7  8  1  0  0  0  0
  7 19  1  0  0  0  0
  8  9  1  0  0  0  0
  8 28  1  0  0  0  0
  8 29  1  0  0  0  0
  9 10  1  0  0  0  0
  9 11  1  0  0  0  0
  9 30  1  0  0  0  0
 10 31  1  0  0  0  0
 11 12  1  0  0  0  0
 11 32  1  0  0  0  0
 11 33  1  0  0  0  0
 12 18  1  0  0  0  0
 12 13  1  0  0  0  0
 12 44  1  0  0  0  0
 13 14  1  0  0  0  0
 13 34  1  0  0  0  0
 13 35  1  0  0  0  0
 14 15  1  0  0  0  0
 14 36  1  0  0  0  0
 14 37  1  0  0  0  0
 15 16  1  0  0  0  0
 16 17  2  0  0  0  0
 16 18  1  0  0  0  0
 18 38  1  0  0  0  0
 18 39  1  0  0  0  0
 19 20  1  0  0  0  0
 20 21  2  0  0  0  0
 20 40  1  0  0  0  0
 21 22  1  0  0  0  0
 22 41  1  0  0  0  0
 22 42  1  0  0  0  0
 22 43  1  0  0  0  0
M  CHG  1   5   1
M  CHG  1  12   1
M  CHG  1  15  -1
M  END
> <s_m_source_file>
AV-unprocessed.smi

> <i_m_source_file_index>
1056

> <i_lp_mmshare_version>
43012

> <i_f3d_flags>
0

> <s_epik_input>
W0NIM11jKFtjSF0xKWMoW0NIM10pW2NIXWMoYzEyKW4oW2NIXW4yKVtDSDJdW0NASF0oW09IXSlbQ0gyXU4zW0NIMl1bQ0gyXVtOSF1DKD1PKVtDSDJdMw==

> <s_epik_cmdline>
J2VwaWtfcHl0aG9uJywgJy1waCcsICc3LjAnLCAnLXRuJywgJzgnLCAnLW1hJywgJzIwMCcsICctbWV0YWxfYmluZGluZycsICctaW1hZScsICc8aW5maWxlLm1hZT4nLCAnLW9tYWUnLCAnPG91dGZpbGUubWFlPic=

> <r_epik_Ionization_Penalty>
6.22415

> <r_epik_Ionization_Penalty_Charging>
6.22415

> <r_epik_Ionization_Penalty_Neutral>
4.02797e-07

> <r_epik_State_Penalty>
6.37716

> <r_epik_Charging_Adjusted_Penalty>
12.6013

> <i_epik_Tot_Q>
1

> <i_epik_Tot_abs_Q>
3

> <r_epik_Metal_State_Penalty>
2.53509

> <b_epik_Metal_Only>
1

> <s_lp_Force_Field>
OPLS_2005

> <r_lp_Energy>
27.0798

> <b_lp_Chiralities_Consistent>
1

> <s_lp_Variant>
AV-unprocessed.smi:1056-17

> <Gold.Version>
5.8.1

> <Gold.Id.Protein>
6NUR|6NUR_protein|mol2

> <Gold.PLP.Fitness>
58.9989

> <Gold.PLP.PLP>
-48.1942

> <Gold.PLP.part.hbond>
-3.0000

> <Gold.PLP.part.metal>
0.0000

> <Gold.PLP.part.buried>
-7.0015

> <Gold.PLP.part.nonpolar>
-38.1517

> <Gold.PLP.part.repulsive>
0.4930

> <Gold.PLP.ligand.clash>
0.0000

> <Gold.PLP.ligand.torsion>
0.6442

> <Gold.PLP.Chemscore.Hbond>
4.0000

> <Gold.PLP.Chemscore.CHOScore>
0.0000

> <Gold.PLP.Chemscore.Metal>
0.0000

> <Gold.Chemscore.Hbonds>
donor molecule, donor type, donor heavy atom, donor atom, acceptor molecule, acceptor atom, score
      L1  H    10    31       P1  7957  0.91
      L1  H    12    44       P1  8028  2.00
      P1  H  7989  7998       L1    10  0.90

> <Gold.PLP.Chemscore.Internal.Correction>
0.0931

> <Gold.Rescore>
     Score         DG    S(hbond)    S(metal)    S(lipo)     H(rot)  DE(clash)    DE(int)     intcor
     19.40     -20.42       2.25        0.00     115.43       2.37       0.37       0.65       ----

> <Gold.Chemscore.Fitness>
19.4001

> <Gold.Chemscore.DG>
-20.4171

> <Gold.Chemscore.ZeroCoef>
-5.4800

> <Gold.Chemscore.Hbond>
2.2469

> <Gold.Chemscore.Metal>
0.0000

> <Gold.Chemscore.Lipo>
115.4346

> <Gold.Chemscore.Internal_Hbond>
0.0000

> <Gold.Chemscore.DEClash>
0.3679

> <Gold.Chemscore.DEInternal>
0.6491

> <Gold.Chemscore.Rot>
2.3724

> <Gold.Chemscore.Internal.Correction>
   9.000000E+99

> <Gold.Chemscore.Hbonds>
donor molecule, donor type, donor heavy atom, donor atom, acceptor molecule, acceptor atom, score
      L1  H    10    31       P1  7957  0.87
      L1  H    12    44       P1  8028  0.79
      P1  H  7989  7998       L1    10  0.15

> <Gold.Chemscore.Hbond.Weighted>
-7.5047

> <Gold.Chemscore.Metal.Weighted>
-0.0000

> <Gold.Chemscore.Lipo.Weighted>
-13.5058

> <Gold.Chemscore.Internal_Hbond.Weighted>
0.0000

> <Gold.Chemscore.DEClash.Weighted>
0.3679

> <Gold.Chemscore.DEInternal.Weighted>
0.6491

> <Gold.Chemscore.Rot.Weighted>
6.0734

> <Gold.Chemscore.Internal.Correction.Weighted>
   9.000000E+99

> <Gold.Protein.RotatedTorsions>
[ 6907 6896 6895 6894 ] final   97.91 input  -60.11 | X-H torsion
[ 7974 7965 7964 7962 ] final  137.90 input  175.53 | X-H torsion
[ 8008 7997 7996 7995 ] final -150.04 input   59.86 | X-H torsion
[ 10167 10162 10161 10158 ] final -116.72 input  -65.29 | X-H torsion
[ 10718 10713 10712 10709 ] final  142.05 input   66.30 | X-H torsion
[ 10763 10752 10751 10750 ] final  151.22 input  -60.55 | X-H torsion
[ 11005 11000 10999 10996 ] final  -77.09 input  -57.11 | X-H torsion

> <Gold.Protein.ActiveResidues>
 VAL166  LYS551  ARG553  GLY616  TRP617  ASP618  TYR619  PRO620  LYS621  CYS622 
 ASP623  PHE694  ASN695  SER759  ASP760  ASP761  ALA762  ILE779  LEU786  VAL792 
 PHE793  MET794  SER795  GLU796  ALA797  LYS798  CYS799  TRP800  GLU811  SER814 

> <Gold.Protein.RotatedAtoms>
  152.5417  134.0661  159.8172 H   0  0  0  0  0  0  0  0  0  0  0  0  # atno 6907 bound_to 6896
  151.0782  133.5404  159.2629 H   0  0  0  0  0  0  0  0  0  0  0  0  # atno 6908 bound_to 6896
  151.2241  135.0538  159.9015 H   0  0  0  0  0  0  0  0  0  0  0  0  # atno 6909 bound_to 6896
  144.9423  139.4916  143.5566 H   0  0  0  0  0  0  0  0  0  0  0  0  # atno 7974 bound_to 7965
  155.6172  140.0678  157.2689 H   0  0  0  0  0  0  0  0  0  0  0  0  # atno 8008 bound_to 7997
  154.4238  140.1791  156.1382 H   0  0  0  0  0  0  0  0  0  0  0  0  # atno 8009 bound_to 7997
  156.0038  140.3333  155.6875 H   0  0  0  0  0  0  0  0  0  0  0  0  # atno 8010 bound_to 7997
  140.0761  143.4831  152.1952 H   0  0  0  0  0  0  0  0  0  0  0  0  # atno 10167 bound_to 10162
  157.3850  131.0997  151.0702 H   0  0  0  0  0  0  0  0  0  0  0  0  # atno 10718 bound_to 10713
  154.1002  135.2846  155.3253 H   0  0  0  0  0  0  0  0  0  0  0  0  # atno 10763 bound_to 10752
  154.6560  135.5351  153.7963 H   0  0  0  0  0  0  0  0  0  0  0  0  # atno 10764 bound_to 10752
  153.0381  135.6522  154.1166 H   0  0  0  0  0  0  0  0  0  0  0  0  # atno 10765 bound_to 10752
  141.1658  133.7009  156.7768 H   0  0  0  0  0  0  0  0  0  0  0  0  # atno 11005 bound_to 11000
  146.3290  139.8451  142.8883 LP  0  0  0  0  0  0  0  0  0  0  0  0  # atno 17320 bound_to 7965
  145.2972  141.0184  143.3629 LP  0  0  0  0  0  0  0  0  0  0  0  0  # atno 17321 bound_to 7965
  139.5807  144.7509  151.3648 LP  0  0  0  0  0  0  0  0  0  0  0  0  # atno 17342 bound_to 10162
  140.7101  143.7412  150.7552 LP  0  0  0  0  0  0  0  0  0  0  0  0  # atno 17343 bound_to 10162
  157.1757  130.6287  149.5655 LP  0  0  0  0  0  0  0  0  0  0  0  0  # atno 17370 bound_to 10713
  155.9784  130.4770  150.6656 LP  0  0  0  0  0  0  0  0  0  0  0  0  # atno 17371 bound_to 10713
  140.2424  134.8603  157.3586 LP  0  0  0  0  0  0  0  0  0  0  0  0  # atno 17394 bound_to 11000
  140.1783  134.4522  155.7788 LP  0  0  0  0  0  0  0  0  0  0  0  0  # atno 17395 bound_to 11000

$$$$
