AV-unprocessed.smi:1641|AV-procd|sdf|6566|dock9
  -GOLD-   22720 7253D 1   1.00000     0.00000
 Structure written by MMmdl.
 41 42  0  0  0  0  0  0  0  0  3 V2000
  152.4180  141.4665  159.5473 C   0  0  0  0  0  0  0  0  0  0  0  0
  152.0454  141.0640  158.1618 C   0  0  0  0  0  0  0  0  0  0  0  0
  152.7130  140.1317  157.4779 N   0  0  0  0  0  0  0  0  0  0  0  0
  152.1812  139.9303  156.2124 N   0  0  0  0  0  0  0  0  0  0  0  0
  151.1164  140.7047  155.9601 C   0  0  0  0  0  0  0  0  0  0  0  0
  150.4592  140.6641  154.7893 N   0  5  0  0  0  0  0  0  0  0  0  0
  149.1099  140.7446  154.7685 C   0  0  0  0  0  0  0  0  0  0  0  0
  148.3878  141.1883  155.6640 O   0  0  0  0  0  0  0  0  0  0  0  0
  148.5607  140.2838  153.6376 N   0  0  0  0  0  0  0  0  0  0  0  0
  147.1336  140.2572  153.3511 C   0  0  0  0  0  0  0  0  0  0  0  0
  146.7727  138.9953  152.5523 C   0  0  0  0  0  0  0  0  0  0  0  0
  145.4359  138.4611  152.9131 N   0  3  1  0  0  0  0  0  0  0  0  0
  145.1863  137.1236  152.3256 C   0  0  0  0  0  0  0  0  0  0  0  0
  143.7664  136.6370  152.6706 C   0  0  1  0  0  0  0  0  0  0  0  0
  143.4961  135.2232  152.1445 C   0  0  0  0  0  0  0  0  0  0  0  0
  143.6127  136.6212  154.0853 O   0  0  0  0  0  0  0  0  0  0  0  0
  143.7600  137.9129  154.6649 C   0  0  1  0  0  0  0  0  0  0  0  0
  143.4824  137.7966  156.1677 C   0  0  0  0  0  0  0  0  0  0  0  0
  145.1787  138.4381  154.3742 C   0  0  0  0  0  0  0  0  0  0  0  0
  150.6969  141.7794  157.2943 S   0  0  0  0  0  0  0  0  0  0  0  0
  152.4162  140.5957  160.2032 H   0  0  0  0  0  0  0  0  0  0  0  0
  151.7079  142.1972  159.9347 H   0  0  0  0  0  0  0  0  0  0  0  0
  153.4139  141.9097  159.5523 H   0  0  0  0  0  0  0  0  0  0  0  0
  149.1839  139.9255  152.9289 H   0  0  0  0  0  0  0  0  0  0  0  0
  146.5918  140.2920  154.2965 H   0  0  0  0  0  0  0  0  0  0  0  0
  146.8609  141.1498  152.7859 H   0  0  0  0  0  0  0  0  0  0  0  0
  146.7773  139.2537  151.4921 H   0  0  0  0  0  0  0  0  0  0  0  0
  147.5303  138.2211  152.6854 H   0  0  0  0  0  0  0  0  0  0  0  0
  145.3042  137.1695  151.2421 H   0  0  0  0  0  0  0  0  0  0  0  0
  145.9300  136.4179  152.6999 H   0  0  0  0  0  0  0  0  0  0  0  0
  143.0289  137.3146  152.2365 H   0  0  0  0  0  0  0  0  0  0  0  0
  143.5845  135.1843  151.0585 H   0  0  0  0  0  0  0  0  0  0  0  0
  142.4899  134.8957  152.4070 H   0  0  0  0  0  0  0  0  0  0  0  0
  144.2000  134.5038  152.5639 H   0  0  0  0  0  0  0  0  0  0  0  0
  143.0215  138.5879  154.2285 H   0  0  0  0  0  0  0  0  0  0  0  0
  143.5735  138.7650  156.6604 H   0  0  0  0  0  0  0  0  0  0  0  0
  144.1807  137.1098  156.6471 H   0  0  0  0  0  0  0  0  0  0  0  0
  142.4735  137.4256  156.3497 H   0  0  0  0  0  0  0  0  0  0  0  0
  145.9217  137.8071  154.8649 H   0  0  0  0  0  0  0  0  0  0  0  0
  145.2832  139.4383  154.7934 H   0  0  0  0  0  0  0  0  0  0  0  0
  144.7563  139.0840  152.5006 H   0  0  0  0  0  0  0  0  0  0  0  0
  1  2  1  0  0  0  0
  1 21  1  0  0  0  0
  1 22  1  0  0  0  0
  1 23  1  0  0  0  0
  2 20  1  0  0  0  0
  2  3  2  0  0  0  0
  3  4  1  0  0  0  0
  4  5  2  0  0  0  0
  5  6  1  0  0  0  0
  5 20  1  0  0  0  0
  6  7  1  0  0  0  0
  7  8  2  0  0  0  0
  7  9  1  0  0  0  0
  9 10  1  0  0  0  0
  9 24  1  0  0  0  0
 10 11  1  0  0  0  0
 10 25  1  0  0  0  0
 10 26  1  0  0  0  0
 11 12  1  0  0  0  0
 11 27  1  0  0  0  0
 11 28  1  0  0  0  0
 12 19  1  0  0  0  0
 12 13  1  0  0  0  0
 12 41  1  0  0  0  0
 13 14  1  0  0  0  0
 13 29  1  0  0  0  0
 13 30  1  0  0  0  0
 14 15  1  0  0  0  0
 14 16  1  0  0  0  0
 14 31  1  0  0  0  0
 15 32  1  0  0  0  0
 15 33  1  0  0  0  0
 15 34  1  0  0  0  0
 16 17  1  0  0  0  0
 17 18  1  0  0  0  0
 17 19  1  0  0  0  0
 17 35  1  0  0  0  0
 18 36  1  0  0  0  0
 18 37  1  0  0  0  0
 18 38  1  0  0  0  0
 19 39  1  0  0  0  0
 19 40  1  0  0  0  0
M  CHG  1   6  -1
M  CHG  1  12   1
M  END
> <s_m_source_file>
AV-unprocessed.smi

> <i_m_source_file_index>
1641

> <i_lp_mmshare_version>
43012

> <i_f3d_flags>
0

> <s_epik_input>
W0NIM11jMW5uYyhzMSlbTkhdQyg9TylbTkhdW0NIMl1bQ0gyXU4yW0NIMl1bQ0BASF0oW0NIM10pT1tDQEBIXShbQ0gzXSlbQ0gyXTI=

> <s_epik_cmdline>
J2VwaWtfcHl0aG9uJywgJy1waCcsICc3LjAnLCAnLXRuJywgJzgnLCAnLW1hJywgJzIwMCcsICctbWV0YWxfYmluZGluZycsICctaW1hZScsICc8aW5maWxlLm1hZT4nLCAnLW9tYWUnLCAnPG91dGZpbGUubWFlPic=

> <r_lp_tautomer_probability>
1

> <r_epik_Ionization_Penalty>
3.5343

> <r_epik_Ionization_Penalty_Charging>
3.42778

> <r_epik_Ionization_Penalty_Neutral>
0.106519

> <r_epik_State_Penalty>
3.62118

> <r_epik_Charging_Adjusted_Penalty>
7.04896

> <i_epik_Tot_Q>
0

> <i_epik_Tot_abs_Q>
2

> <r_epik_Metal_State_Penalty>
1.13984

> <b_epik_Metal_Only>
1

> <s_lp_Force_Field>
OPLS_2005

> <r_lp_Energy>
7.34164

> <b_lp_Chiralities_Consistent>
1

> <s_lp_Variant>
AV-unprocessed.smi:1641-11

> <Gold.Version>
5.8.1

> <Gold.Id.Protein>
6NUR|6NUR_protein|mol2

> <Gold.PLP.Fitness>
43.0743

> <Gold.PLP.PLP>
-30.2835

> <Gold.PLP.part.hbond>
-4.6781

> <Gold.PLP.part.metal>
0.0000

> <Gold.PLP.part.buried>
-3.4302

> <Gold.PLP.part.nonpolar>
-22.3015

> <Gold.PLP.part.repulsive>
0.3546

> <Gold.PLP.ligand.clash>
0.0000

> <Gold.PLP.ligand.torsion>
0.8912

> <Gold.PLP.Chemscore.Hbond>
4.8480

> <Gold.PLP.Chemscore.CHOScore>
0.0000

> <Gold.PLP.Chemscore.Metal>
0.0000

> <Gold.Chemscore.Hbonds>
donor molecule, donor type, donor heavy atom, donor atom, acceptor molecule, acceptor atom, score
      L1  H     9    24       P1  7957  0.86
      L1  H    12    41       P1 10175  2.00
      P1  H  7989  7998       L1     6  0.91
      P1  H  7997  8008       L1     3  0.73

> <Gold.PLP.Chemscore.Internal.Correction>
0.0291

> <Gold.Rescore>
     Score         DG    S(hbond)    S(metal)    S(lipo)     H(rot)  DE(clash)    DE(int)     intcor
     15.49     -17.60       3.04        0.00      51.92       1.61       0.05       2.06       ----

> <Gold.Chemscore.Fitness>
15.4884

> <Gold.Chemscore.DG>
-17.5973

> <Gold.Chemscore.ZeroCoef>
-5.4800

> <Gold.Chemscore.Hbond>
3.0408

> <Gold.Chemscore.Metal>
0.0000

> <Gold.Chemscore.Lipo>
51.9223

> <Gold.Chemscore.Internal_Hbond>
0.0000

> <Gold.Chemscore.DEClash>
0.0516

> <Gold.Chemscore.DEInternal>
2.0573

> <Gold.Chemscore.Rot>
1.6070

> <Gold.Chemscore.Internal.Correction>
   9.000000E+99

> <Gold.Chemscore.Hbonds>
donor molecule, donor type, donor heavy atom, donor atom, acceptor molecule, acceptor atom, score
      L1  H     9    24       P1  7957  0.85
      L1  H    12    41       P1 10175  0.99
      P1  H  7989  7998       L1     6  0.58
      P1  H  7997  8008       L1     3  0.11

> <Gold.Chemscore.Hbond.Weighted>
-10.1563

> <Gold.Chemscore.Metal.Weighted>
-0.0000

> <Gold.Chemscore.Lipo.Weighted>
-6.0749

> <Gold.Chemscore.Internal_Hbond.Weighted>
0.0000

> <Gold.Chemscore.DEClash.Weighted>
0.0516

> <Gold.Chemscore.DEInternal.Weighted>
2.0573

> <Gold.Chemscore.Rot.Weighted>
4.1139

> <Gold.Chemscore.Internal.Correction.Weighted>
   9.000000E+99

> <Gold.Protein.RotatedTorsions>
[ 6907 6896 6895 6894 ] final -132.09 input  -60.11 | X-H torsion
[ 7974 7965 7964 7962 ] final  178.79 input  175.53 | X-H torsion
[ 8008 7997 7996 7995 ] final  -81.30 input   59.86 | X-H torsion
[ 10167 10162 10161 10158 ] final   -1.33 input  -65.29 | X-H torsion
[ 10718 10713 10712 10709 ] final  -66.55 input   66.30 | X-H torsion
[ 10763 10752 10751 10750 ] final  -19.41 input  -60.55 | X-H torsion
[ 11005 11000 10999 10996 ] final  134.43 input  -57.11 | X-H torsion

> <Gold.Protein.ActiveResidues>
 VAL166  LYS551  ARG553  GLY616  TRP617  ASP618  TYR619  PRO620  LYS621  CYS622 
 ASP623  PHE694  ASN695  SER759  ASP760  ASP761  ALA762  ILE779  LEU786  VAL792 
 PHE793  MET794  SER795  GLU796  ALA797  LYS798  CYS799  TRP800  GLU811  SER814 

> <Gold.Protein.RotatedAtoms>
  150.9584  133.6472  159.2758 H   0  0  0  0  0  0  0  0  0  0  0  0  # atno 6907 bound_to 6896
  151.3803  135.0937  159.9503 H   0  0  0  0  0  0  0  0  0  0  0  0  # atno 6908 bound_to 6896
  152.5138  133.9120  159.7547 H   0  0  0  0  0  0  0  0  0  0  0  0  # atno 6909 bound_to 6896
  144.7152  140.0450  143.6436 H   0  0  0  0  0  0  0  0  0  0  0  0  # atno 7974 bound_to 7965
  154.5969  140.0650  156.9316 H   0  0  0  0  0  0  0  0  0  0  0  0  # atno 8008 bound_to 7997
  155.2198  140.3329  155.4299 H   0  0  0  0  0  0  0  0  0  0  0  0  # atno 8009 bound_to 7997
  156.2293  140.1833  156.7267 H   0  0  0  0  0  0  0  0  0  0  0  0  # atno 8010 bound_to 7997
  140.6806  143.6787  150.8123 H   0  0  0  0  0  0  0  0  0  0  0  0  # atno 10167 bound_to 10162
  156.0606  130.4264  150.1724 H   0  0  0  0  0  0  0  0  0  0  0  0  # atno 10718 bound_to 10713
  153.6044  135.6998  153.5371 H   0  0  0  0  0  0  0  0  0  0  0  0  # atno 10763 bound_to 10752
  153.3070  135.4112  155.1302 H   0  0  0  0  0  0  0  0  0  0  0  0  # atno 10764 bound_to 10752
  154.8576  135.3663  154.5580 H   0  0  0  0  0  0  0  0  0  0  0  0  # atno 10765 bound_to 10752
  139.9914  134.9513  156.9866 H   0  0  0  0  0  0  0  0  0  0  0  0  # atno 11005 bound_to 11000
  145.9992  139.3077  143.0938 LP  0  0  0  0  0  0  0  0  0  0  0  0  # atno 17320 bound_to 7965
  145.8813  140.9361  143.0600 LP  0  0  0  0  0  0  0  0  0  0  0  0  # atno 17321 bound_to 7965
  140.0487  143.5272  152.2684 LP  0  0  0  0  0  0  0  0  0  0  0  0  # atno 17342 bound_to 10162
  139.6125  144.7612  151.2919 LP  0  0  0  0  0  0  0  0  0  0  0  0  # atno 17343 bound_to 10162
  156.9793  130.9859  151.3441 LP  0  0  0  0  0  0  0  0  0  0  0  0  # atno 17370 bound_to 10713
  157.5612  130.8247  149.8268 LP  0  0  0  0  0  0  0  0  0  0  0  0  # atno 17371 bound_to 10713
  140.4900  134.1202  155.7231 LP  0  0  0  0  0  0  0  0  0  0  0  0  # atno 17394 bound_to 11000
  141.1569  133.8865  157.1953 LP  0  0  0  0  0  0  0  0  0  0  0  0  # atno 17395 bound_to 11000

$$$$
