AV-unprocessed.smi:1813|AV-procd|sdf|7344|dock9
  -GOLD-   22720 9 03D 1   1.00000     0.00000
 Structure written by MMmdl.
 39 40  0  0  0  0  0  0  0  0  3 V2000
  145.5932  135.9491  150.8110 C   0  0  0  0  0  0  0  0  0  0  0  0
  145.8524  135.7752  152.2355 N   0  5  0  0  0  0  0  0  0  0  0  0
  145.9771  136.8113  153.1075 C   0  0  0  0  0  0  0  0  0  0  0  0
  145.9517  136.8333  154.3425 O   0  0  0  0  0  0  0  0  0  0  0  0
  146.2130  138.1325  152.3669 C   0  0  0  0  0  0  0  0  0  0  0  0
  146.8617  139.1118  153.2738 N   0  3  2  0  0  0  0  0  0  0  0  0
  147.0808  140.4286  152.6240 C   0  0  0  0  0  0  0  0  0  0  0  0
  147.6038  141.4634  153.6337 C   0  0  0  0  0  0  0  0  0  0  0  0
  148.8937  140.9777  154.3144 C   0  0  1  0  0  0  0  0  0  0  0  0
  149.3047  141.9378  155.3345 N   0  0  0  0  0  0  0  0  0  0  0  0
  150.3011  141.7544  156.2128 C   0  0  0  0  0  0  0  0  0  0  0  0
  150.9930  140.7364  156.2517 O   0  0  0  0  0  0  0  0  0  0  0  0
  150.4303  142.8147  157.0294 N   0  0  0  0  0  0  0  0  0  0  0  0
  151.3775  143.0128  158.0679 C   0  0  0  0  0  0  0  0  0  0  0  0
  152.0758  142.0308  158.6499 N   0  0  0  0  0  0  0  0  0  0  0  0
  152.9389  142.5152  159.6359 C   0  0  0  0  0  0  0  0  0  0  0  0
  152.8837  143.8778  159.7931 C   0  0  0  0  0  0  0  0  0  0  0  0
  151.7395  144.6116  158.7016 S   0  0  0  0  0  0  0  0  0  0  0  0
  148.6589  139.5892  154.9369 C   0  0  0  0  0  0  0  0  0  0  0  0
  148.1103  138.5977  153.8981 C   0  0  0  0  0  0  0  0  0  0  0  0
  145.6157  135.0000  150.2761 H   0  0  0  0  0  0  0  0  0  0  0  0
  146.3272  136.5940  150.3272 H   0  0  0  0  0  0  0  0  0  0  0  0
  144.6131  136.3875  150.6202 H   0  0  0  0  0  0  0  0  0  0  0  0
  146.7964  138.0100  151.4515 H   0  0  0  0  0  0  0  0  0  0  0  0
  145.2332  138.5003  152.0589 H   0  0  0  0  0  0  0  0  0  0  0  0
  147.7846  140.3159  151.7977 H   0  0  0  0  0  0  0  0  0  0  0  0
  146.1443  140.7897  152.1972 H   0  0  0  0  0  0  0  0  0  0  0  0
  147.7821  142.4135  153.1287 H   0  0  0  0  0  0  0  0  0  0  0  0
  146.8356  141.6522  154.3853 H   0  0  0  0  0  0  0  0  0  0  0  0
  149.6739  140.9007  153.5544 H   0  0  0  0  0  0  0  0  0  0  0  0
  148.7913  142.8061  155.3750 H   0  0  0  0  0  0  0  0  0  0  0  0
  149.7799  143.5735  156.8880 H   0  0  0  0  0  0  0  0  0  0  0  0
  153.5597  141.8180  160.1789 H   0  0  0  0  0  0  0  0  0  0  0  0
  153.4455  144.4917  160.4812 H   0  0  0  0  0  0  0  0  0  0  0  0
  149.5879  139.2015  155.3569 H   0  0  0  0  0  0  0  0  0  0  0  0
  147.9548  139.6678  155.7669 H   0  0  0  0  0  0  0  0  0  0  0  0
  147.9242  137.6420  154.3880 H   0  0  0  0  0  0  0  0  0  0  0  0
  148.8564  138.4133  153.1236 H   0  0  0  0  0  0  0  0  0  0  0  0
  146.2017  139.2693  154.0221 H   0  0  0  0  0  0  0  0  0  0  0  0
  1  2  1  0  0  0  0
  1 21  1  0  0  0  0
  1 22  1  0  0  0  0
  1 23  1  0  0  0  0
  2  3  1  0  0  0  0
  3  4  2  0  0  0  0
  3  5  1  0  0  0  0
  5  6  1  0  0  0  0
  5 24  1  0  0  0  0
  5 25  1  0  0  0  0
  6 20  1  0  0  0  0
  6  7  1  0  0  0  0
  6 39  1  0  0  0  0
  7  8  1  0  0  0  0
  7 26  1  0  0  0  0
  7 27  1  0  0  0  0
  8  9  1  0  0  0  0
  8 28  1  0  0  0  0
  8 29  1  0  0  0  0
  9 10  1  0  0  0  0
  9 19  1  0  0  0  0
  9 30  1  0  0  0  0
 10 11  1  0  0  0  0
 10 31  1  0  0  0  0
 11 12  2  0  0  0  0
 11 13  1  0  0  0  0
 13 14  1  0  0  0  0
 13 32  1  0  0  0  0
 14 18  1  0  0  0  0
 14 15  2  0  0  0  0
 15 16  1  0  0  0  0
 16 17  2  0  0  0  0
 16 33  1  0  0  0  0
 17 18  1  0  0  0  0
 17 34  1  0  0  0  0
 19 20  1  0  0  0  0
 19 35  1  0  0  0  0
 19 36  1  0  0  0  0
 20 37  1  0  0  0  0
 20 38  1  0  0  0  0
M  CHG  1   2  -1
M  CHG  1   6   1
M  END
> <s_m_source_file>
AV-unprocessed.smi

> <i_m_source_file_index>
1813

> <i_lp_mmshare_version>
43012

> <i_f3d_flags>
0

> <s_epik_input>
W0NIM11bTkhdQyg9TylbQ0gyXU4xW0NIMl1bQ0gyXVtDSF0oW0NIMl1bQ0gyXTEpW05IXUMoPU8pW05IXWMybltjSF1bY0hdczI=

> <s_epik_cmdline>
J2VwaWtfcHl0aG9uJywgJy1waCcsICc3LjAnLCAnLXRuJywgJzgnLCAnLW1hJywgJzIwMCcsICctbWV0YWxfYmluZGluZycsICctaW1hZScsICc8aW5maWxlLm1hZT4nLCAnLW9tYWUnLCAnPG91dGZpbGUubWFlPic=

> <r_lp_tautomer_probability>
0.999

> <r_epik_Ionization_Penalty>
6.14232

> <r_epik_Ionization_Penalty_Charging>
6.14218

> <r_epik_Ionization_Penalty_Neutral>
0.000139308

> <r_epik_State_Penalty>
6.98503

> <r_epik_Charging_Adjusted_Penalty>
13.1272

> <i_epik_Tot_Q>
0

> <i_epik_Tot_abs_Q>
2

> <r_epik_Metal_State_Penalty>
2.95036

> <b_epik_Metal_Only>
1

> <s_lp_Force_Field>
OPLS_2005

> <r_lp_Energy>
7.46639

> <b_lp_Chiralities_Consistent>
1

> <s_lp_Variant>
AV-unprocessed.smi:1813-5

> <Gold.Version>
5.8.1

> <Gold.Id.Protein>
6NUR|6NUR_protein|mol2

> <Gold.PLP.Fitness>
41.4786

> <Gold.PLP.PLP>
-36.5185

> <Gold.PLP.part.hbond>
-2.0000

> <Gold.PLP.part.metal>
0.0000

> <Gold.PLP.part.buried>
-4.3668

> <Gold.PLP.part.nonpolar>
-31.2839

> <Gold.PLP.part.repulsive>
0.4407

> <Gold.PLP.ligand.clash>
0.0000

> <Gold.PLP.ligand.torsion>
0.5202

> <Gold.PLP.Chemscore.Hbond>
1.9760

> <Gold.PLP.Chemscore.CHOScore>
0.0000

> <Gold.PLP.Chemscore.Metal>
0.0000

> <Gold.Chemscore.Hbonds>
donor molecule, donor type, donor heavy atom, donor atom, acceptor molecule, acceptor atom, score
      L1  H    10    31       P1  8028  0.94
      L1  H    13    32       P1  8028  0.98

> <Gold.PLP.Chemscore.Internal.Correction>
0.0726

> <Gold.Rescore>
     Score         DG    S(hbond)    S(metal)    S(lipo)     H(rot)  DE(clash)    DE(int)     intcor
     12.83     -17.14       1.87        0.00      84.05       1.73       0.33       3.98       ----

> <Gold.Chemscore.Fitness>
12.8312

> <Gold.Chemscore.DG>
-17.1407

> <Gold.Chemscore.ZeroCoef>
-5.4800

> <Gold.Chemscore.Hbond>
1.8738

> <Gold.Chemscore.Metal>
0.0000

> <Gold.Chemscore.Lipo>
84.0514

> <Gold.Chemscore.Internal_Hbond>
0.0000

> <Gold.Chemscore.DEClash>
0.3311

> <Gold.Chemscore.DEInternal>
3.9784

> <Gold.Chemscore.Rot>
1.7312

> <Gold.Chemscore.Internal.Correction>
   9.000000E+99

> <Gold.Chemscore.Hbonds>
donor molecule, donor type, donor heavy atom, donor atom, acceptor molecule, acceptor atom, score
      L1  H    10    31       P1  8028  0.91
      L1  H    13    32       P1  8028  0.92

> <Gold.Chemscore.Hbond.Weighted>
-6.2585

> <Gold.Chemscore.Metal.Weighted>
-0.0000

> <Gold.Chemscore.Lipo.Weighted>
-9.8340

> <Gold.Chemscore.Internal_Hbond.Weighted>
0.0000

> <Gold.Chemscore.DEClash.Weighted>
0.3311

> <Gold.Chemscore.DEInternal.Weighted>
3.9784

> <Gold.Chemscore.Rot.Weighted>
4.4319

> <Gold.Chemscore.Internal.Correction.Weighted>
   9.000000E+99

> <Gold.Protein.RotatedTorsions>
[ 6907 6896 6895 6894 ] final  -73.56 input  -60.11 | X-H torsion
[ 7974 7965 7964 7962 ] final  155.60 input  175.53 | X-H torsion
[ 8008 7997 7996 7995 ] final   71.41 input   59.86 | X-H torsion
[ 10167 10162 10161 10158 ] final -171.86 input  -65.29 | X-H torsion
[ 10718 10713 10712 10709 ] final  -51.36 input   66.30 | X-H torsion
[ 10763 10752 10751 10750 ] final  110.86 input  -60.55 | X-H torsion
[ 11005 11000 10999 10996 ] final -155.97 input  -57.11 | X-H torsion

> <Gold.Protein.ActiveResidues>
 VAL166  LYS551  ARG553  GLY616  TRP617  ASP618  TYR619  PRO620  LYS621  CYS622 
 ASP623  PHE694  ASN695  SER759  ASP760  ASP761  ALA762  ILE779  LEU786  VAL792 
 PHE793  MET794  SER795  GLU796  ALA797  LYS798  CYS799  TRP800  GLU811  SER814 

> <Gold.Protein.RotatedAtoms>
  150.7125  134.4998  159.5555 H   0  0  0  0  0  0  0  0  0  0  0  0  # atno 6907 bound_to 6896
  152.2598  134.8043  160.0441 H   0  0  0  0  0  0  0  0  0  0  0  0  # atno 6908 bound_to 6896
  151.8760  133.3450  159.3787 H   0  0  0  0  0  0  0  0  0  0  0  0  # atno 6909 bound_to 6896
  144.8015  139.7090  143.6180 H   0  0  0  0  0  0  0  0  0  0  0  0  # atno 7974 bound_to 7965
  155.7535  140.3488  155.5162 H   0  0  0  0  0  0  0  0  0  0  0  0  # atno 8008 bound_to 7997
  155.8982  140.1029  157.1390 H   0  0  0  0  0  0  0  0  0  0  0  0  # atno 8009 bound_to 7997
  154.4041  140.1291  156.4389 H   0  0  0  0  0  0  0  0  0  0  0  0  # atno 8010 bound_to 7997
  139.5778  144.1493  152.1474 H   0  0  0  0  0  0  0  0  0  0  0  0  # atno 10167 bound_to 10162
  156.1717  130.4149  149.9637 H   0  0  0  0  0  0  0  0  0  0  0  0  # atno 10718 bound_to 10713
  153.4550  135.3735  155.2305 H   0  0  0  0  0  0  0  0  0  0  0  0  # atno 10763 bound_to 10752
  154.8757  135.3895  154.3993 H   0  0  0  0  0  0  0  0  0  0  0  0  # atno 10764 bound_to 10752
  153.4558  135.7086  153.6145 H   0  0  0  0  0  0  0  0  0  0  0  0  # atno 10765 bound_to 10752
  140.6807  134.4148  157.5226 H   0  0  0  0  0  0  0  0  0  0  0  0  # atno 11005 bound_to 11000
  146.2297  139.5790  142.9563 LP  0  0  0  0  0  0  0  0  0  0  0  0  # atno 17320 bound_to 7965
  145.5542  141.0410  143.2262 LP  0  0  0  0  0  0  0  0  0  0  0  0  # atno 17321 bound_to 7965
  140.1040  144.5515  150.6970 LP  0  0  0  0  0  0  0  0  0  0  0  0  # atno 17342 bound_to 10162
  140.7059  143.2467  151.4728 LP  0  0  0  0  0  0  0  0  0  0  0  0  # atno 17343 bound_to 10162
  156.7435  130.9088  151.3633 LP  0  0  0  0  0  0  0  0  0  0  0  0  # atno 17370 bound_to 10713
  157.6807  130.9137  150.0261 LP  0  0  0  0  0  0  0  0  0  0  0  0  # atno 17371 bound_to 10713
  139.8952  134.8687  156.2140 LP  0  0  0  0  0  0  0  0  0  0  0  0  # atno 17394 bound_to 11000
  141.0320  133.6984  156.1446 LP  0  0  0  0  0  0  0  0  0  0  0  0  # atno 17395 bound_to 11000

$$$$
