AV-unprocessed.smi:2732|AV-procd|sdf|10535|dock4
  -GOLD-   2272014583D 1   1.00000     0.00000
 Structure written by MMmdl.
 35 36  0  0  0  0  0  0  0  0  2 V2000
  149.6194  142.8782  158.3793 C   0  0  0  0  0  0  0  0  0  0  0  0
  150.7772  142.4867  157.4485 C   0  0  1  0  0  0  0  0  0  0  0  0
  151.8605  142.0574  158.2690 O   0  0  0  0  0  0  0  0  0  0  0  0
  152.3879  143.0417  159.1497 C   0  0  0  0  0  0  0  0  0  0  0  0
  153.5407  142.4364  159.9206 C   0  0  0  0  0  0  0  0  0  0  0  0
  153.6142  140.9420  160.1373 C   0  0  0  0  0  0  0  0  0  0  0  0
  153.3247  141.8565  161.3001 C   0  0  0  0  0  0  0  0  0  0  0  0
  150.3661  141.3669  156.4781 C   0  0  0  0  0  0  0  0  0  0  0  0
  150.9696  140.2942  156.4922 O   0  0  0  0  0  0  0  0  0  0  0  0
  149.3620  141.6649  155.6325 N   0  0  0  0  0  0  0  0  0  0  0  0
  148.7796  140.8466  154.6276 C   0  0  0  0  0  0  0  0  0  0  0  0
  147.5904  141.2999  154.0158 C   0  0  0  0  0  0  0  0  0  0  0  0
  146.9710  140.5143  153.0218 C   0  0  0  0  0  0  0  0  0  0  0  0
  147.5485  139.2791  152.6634 C   0  0  0  0  0  0  0  0  0  0  0  0
  146.9890  138.4543  151.6895 N   0  0  0  0  0  0  0  0  0  0  0  0
  148.6776  138.8673  153.2787 N   0  3  0  0  0  0  0  0  0  0  0  0
  149.3034  139.5902  154.2336 C   0  0  0  0  0  0  0  0  0  0  0  0
  148.7411  143.1894  157.8126 H   0  0  0  0  0  0  0  0  0  0  0  0
  149.9067  143.7102  159.0227 H   0  0  0  0  0  0  0  0  0  0  0  0
  149.3260  142.0503  159.0261 H   0  0  0  0  0  0  0  0  0  0  0  0
  151.0765  143.3736  156.8863 H   0  0  0  0  0  0  0  0  0  0  0  0
  152.7370  143.9220  158.6087 H   0  0  0  0  0  0  0  0  0  0  0  0
  151.6224  143.3647  159.8563 H   0  0  0  0  0  0  0  0  0  0  0  0
  154.4932  142.9347  159.7507 H   0  0  0  0  0  0  0  0  0  0  0  0
  152.7941  140.3324  159.7631 H   0  0  0  0  0  0  0  0  0  0  0  0
  154.5971  140.4771  160.0966 H   0  0  0  0  0  0  0  0  0  0  0  0
  154.1141  142.0038  162.0342 H   0  0  0  0  0  0  0  0  0  0  0  0
  152.3120  141.8581  161.6982 H   0  0  0  0  0  0  0  0  0  0  0  0
  149.0182  142.6134  155.6761 H   0  0  0  0  0  0  0  0  0  0  0  0
  147.1559  142.2476  154.2994 H   0  0  0  0  0  0  0  0  0  0  0  0
  146.0648  140.8590  152.5450 H   0  0  0  0  0  0  0  0  0  0  0  0
  146.1433  138.7118  151.2006 H   0  0  0  0  0  0  0  0  0  0  0  0
  147.4159  137.5765  151.4302 H   0  0  0  0  0  0  0  0  0  0  0  0
  150.1867  139.1271  154.6472 H   0  0  0  0  0  0  0  0  0  0  0  0
  149.0787  137.9674  153.0138 H   0  0  0  0  0  0  0  0  0  0  0  0
  1  2  1  0  0  0  0
  1 18  1  0  0  0  0
  1 19  1  0  0  0  0
  1 20  1  0  0  0  0
  2  3  1  0  0  0  0
  2  8  1  0  0  0  0
  2 21  1  0  0  0  0
  3  4  1  0  0  0  0
  4  5  1  0  0  0  0
  4 22  1  0  0  0  0
  4 23  1  0  0  0  0
  5  7  1  0  0  0  0
  5  6  1  0  0  0  0
  5 24  1  0  0  0  0
  6  7  1  0  0  0  0
  6 25  1  0  0  0  0
  6 26  1  0  0  0  0
  7 27  1  0  0  0  0
  7 28  1  0  0  0  0
  8  9  2  0  0  0  0
  8 10  1  0  0  0  0
 10 11  1  0  0  0  0
 10 29  1  0  0  0  0
 11 17  1  0  0  0  0
 11 12  2  0  0  0  0
 12 13  1  0  0  0  0
 12 30  1  0  0  0  0
 13 14  2  0  0  0  0
 13 31  1  0  0  0  0
 14 15  1  0  0  0  0
 14 16  1  0  0  0  0
 15 32  1  0  0  0  0
 15 33  1  0  0  0  0
 16 17  2  0  0  0  0
 16 35  1  0  0  0  0
 17 34  1  0  0  0  0
M  CHG  1  16   1
M  END
> <s_m_source_file>
AV-unprocessed.smi

> <i_m_source_file_index>
2732

> <i_lp_mmshare_version>
43012

> <i_f3d_flags>
0

> <s_epik_input>
W0NIMl0xW0NIMl1bQ0hdMVtDSDJdT1tDQEBIXShbQ0gzXSlDKD1PKVtOSF1jMltjSF1bY0hdYyhbTkgyXSluW2NIXTI=

> <s_epik_cmdline>
J2VwaWtfcHl0aG9uJywgJy1waCcsICc3LjAnLCAnLXRuJywgJzgnLCAnLW1hJywgJzIwMCcsICctbWV0YWxfYmluZGluZycsICctaW1hZScsICc8aW5maWxlLm1hZT4nLCAnLW9tYWUnLCAnPG91dGZpbGUubWFlPic=

> <r_lp_tautomer_probability>
0.999994

> <r_epik_Ionization_Penalty>
1.25173

> <r_epik_Ionization_Penalty_Charging>
1.25172

> <r_epik_Ionization_Penalty_Neutral>
2.35798e-06

> <r_epik_State_Penalty>
1.32157

> <r_epik_Charging_Adjusted_Penalty>
2.5733

> <i_epik_Tot_Q>
1

> <i_epik_Tot_abs_Q>
1

> <r_epik_Metal_State_Penalty>
1.39188

> <b_epik_Metal_Only>
0

> <s_lp_Force_Field>
OPLS_2005

> <r_lp_Energy>
25.671

> <b_lp_Chiralities_Consistent>
1

> <s_lp_Variant>
AV-unprocessed.smi:2732-4

> <Gold.Version>
5.8.1

> <Gold.Id.Protein>
6NUR|6NUR_protein|mol2

> <Gold.PLP.Fitness>
50.7658

> <Gold.PLP.PLP>
-37.6871

> <Gold.PLP.part.hbond>
-4.9933

> <Gold.PLP.part.metal>
0.0000

> <Gold.PLP.part.buried>
0.2136

> <Gold.PLP.part.nonpolar>
-33.6567

> <Gold.PLP.part.repulsive>
0.3275

> <Gold.PLP.ligand.clash>
0.0000

> <Gold.PLP.ligand.torsion>
0.5074

> <Gold.PLP.Chemscore.Hbond>
4.5104

> <Gold.PLP.Chemscore.CHOScore>
0.0000

> <Gold.PLP.Chemscore.Metal>
0.0000

> <Gold.Chemscore.Hbonds>
donor molecule, donor type, donor heavy atom, donor atom, acceptor molecule, acceptor atom, score
      L1  H    10    29       P1  8028  0.81
      L1  H    15    33       P1  7948  1.75
      L1  H    16    35       P1  7948  1.81

> <Gold.PLP.Chemscore.Internal.Correction>
0.5622

> <Gold.Rescore>
     Score         DG    S(hbond)    S(metal)    S(lipo)     H(rot)  DE(clash)    DE(int)     intcor
     16.82     -19.11       2.41        0.00      86.35       1.76       0.46       1.83       ----

> <Gold.Chemscore.Fitness>
16.8225

> <Gold.Chemscore.DG>
-19.1114

> <Gold.Chemscore.ZeroCoef>
-5.4800

> <Gold.Chemscore.Hbond>
2.4058

> <Gold.Chemscore.Metal>
0.0000

> <Gold.Chemscore.Lipo>
86.3483

> <Gold.Chemscore.Internal_Hbond>
0.0000

> <Gold.Chemscore.DEClash>
0.4615

> <Gold.Chemscore.DEInternal>
1.8275

> <Gold.Chemscore.Rot>
1.7604

> <Gold.Chemscore.Internal.Correction>
   9.000000E+99

> <Gold.Chemscore.Hbonds>
donor molecule, donor type, donor heavy atom, donor atom, acceptor molecule, acceptor atom, score
      L1  H    10    29       P1  8028  0.80
      L1  H    15    33       P1  7948  0.81
      L1  H    16    35       P1  7948  0.82

> <Gold.Chemscore.Hbond.Weighted>
-8.0352

> <Gold.Chemscore.Metal.Weighted>
-0.0000

> <Gold.Chemscore.Lipo.Weighted>
-10.1027

> <Gold.Chemscore.Internal_Hbond.Weighted>
0.0000

> <Gold.Chemscore.DEClash.Weighted>
0.4615

> <Gold.Chemscore.DEInternal.Weighted>
1.8275

> <Gold.Chemscore.Rot.Weighted>
4.5065

> <Gold.Chemscore.Internal.Correction.Weighted>
   9.000000E+99

> <Gold.Protein.RotatedTorsions>
[ 6907 6896 6895 6894 ] final  -43.94 input  -60.11 | X-H torsion
[ 7974 7965 7964 7962 ] final   67.80 input  175.53 | X-H torsion
[ 8008 7997 7996 7995 ] final  113.67 input   59.86 | X-H torsion
[ 10167 10162 10161 10158 ] final  118.07 input  -65.29 | X-H torsion
[ 10718 10713 10712 10709 ] final  -93.85 input   66.30 | X-H torsion
[ 10763 10752 10751 10750 ] final  178.27 input  -60.55 | X-H torsion
[ 11005 11000 10999 10996 ] final  104.32 input  -57.11 | X-H torsion

> <Gold.Protein.ActiveResidues>
 VAL166  LYS551  ARG553  GLY616  TRP617  ASP618  TYR619  PRO620  LYS621  CYS622 
 ASP623  PHE694  ASN695  SER759  ASP760  ASP761  ALA762  ILE779  LEU786  VAL792 
 PHE793  MET794  SER795  GLU796  ALA797  LYS798  CYS799  TRP800  GLU811  SER814 

> <Gold.Protein.RotatedAtoms>
  150.9384  134.8795  159.7595 H   0  0  0  0  0  0  0  0  0  0  0  0  # atno 6907 bound_to 6896
  152.5069  134.3978  159.9416 H   0  0  0  0  0  0  0  0  0  0  0  0  # atno 6908 bound_to 6896
  151.4000  133.3720  159.2766 H   0  0  0  0  0  0  0  0  0  0  0  0  # atno 6909 bound_to 6896
  145.8103  139.3029  143.1103 H   0  0  0  0  0  0  0  0  0  0  0  0  # atno 7974 bound_to 7965
  156.2273  140.2975  156.0099 H   0  0  0  0  0  0  0  0  0  0  0  0  # atno 8008 bound_to 7997
  155.2322  140.0419  157.2981 H   0  0  0  0  0  0  0  0  0  0  0  0  # atno 8009 bound_to 7997
  154.5936  140.2408  155.7894 H   0  0  0  0  0  0  0  0  0  0  0  0  # atno 8010 bound_to 7997
  139.6136  144.7087  151.2788 H   0  0  0  0  0  0  0  0  0  0  0  0  # atno 10167 bound_to 10162
  156.0019  130.5044  150.5839 H   0  0  0  0  0  0  0  0  0  0  0  0  # atno 10718 bound_to 10713
  154.5055  135.2786  155.1386 H   0  0  0  0  0  0  0  0  0  0  0  0  # atno 10763 bound_to 10752
  154.3002  135.6249  153.5425 H   0  0  0  0  0  0  0  0  0  0  0  0  # atno 10764 bound_to 10752
  152.9909  135.5695  154.5508 H   0  0  0  0  0  0  0  0  0  0  0  0  # atno 10765 bound_to 10752
  139.8791  134.9296  156.5343 H   0  0  0  0  0  0  0  0  0  0  0  0  # atno 11005 bound_to 11000
  145.9784  140.8703  143.0127 LP  0  0  0  0  0  0  0  0  0  0  0  0  # atno 17320 bound_to 7965
  144.6758  140.2045  143.7383 LP  0  0  0  0  0  0  0  0  0  0  0  0  # atno 17321 bound_to 7965
  140.7336  143.6790  150.8017 LP  0  0  0  0  0  0  0  0  0  0  0  0  # atno 17342 bound_to 10162
  140.0389  143.5366  152.2727 LP  0  0  0  0  0  0  0  0  0  0  0  0  # atno 17343 bound_to 10162
  157.3714  131.0766  151.1554 LP  0  0  0  0  0  0  0  0  0  0  0  0  # atno 17370 bound_to 10713
  157.2306  130.6523  149.5848 LP  0  0  0  0  0  0  0  0  0  0  0  0  # atno 17371 bound_to 10713
  140.8357  133.8244  155.9026 LP  0  0  0  0  0  0  0  0  0  0  0  0  # atno 17394 bound_to 11000
  140.9286  134.2051  157.4879 LP  0  0  0  0  0  0  0  0  0  0  0  0  # atno 17395 bound_to 11000

$$$$
