AV-unprocessed.smi:282|AV-procd|sdf|2123|dock2
  -GOLD-   2262021423D 1   1.00000     0.00000
 Structure written by MMmdl.
 65 69  0  0  0  0  0  0  0  0  2 V2000
  155.1590  139.3928  160.5830 C   0  0  0  0  0  0  0  0  0  0  0  0
  153.8490  139.2010  159.8010 C   0  0  0  0  0  0  0  0  0  0  0  0
  153.2494  140.4946  159.1889 C   0  0  2  0  0  0  0  0  0  0  0  0
  152.9869  141.5571  160.2786 C   0  0  0  0  0  0  0  0  0  0  0  0
  152.3949  142.7948  159.7158 N   0  3  2  0  0  0  0  0  0  0  0  0
  152.2088  143.8398  160.7554 C   0  0  0  0  0  0  0  0  0  0  0  0
  151.6797  145.1476  160.1471 C   0  0  0  0  0  0  0  0  0  0  0  0
  150.3705  144.9007  159.3896 C   0  0  0  0  0  0  0  0  0  0  0  0
  150.5809  143.8114  158.3309 C   0  0  0  0  0  0  0  0  0  0  0  0
  151.1457  142.5177  158.9521 C   0  0  1  0  0  0  0  0  0  0  0  0
  151.4051  141.4645  157.8600 C   0  0  0  0  0  0  0  0  0  0  0  0
  152.0345  140.2611  158.3959 N   0  0  0  0  0  0  0  0  0  0  0  0
  152.0975  139.3097  157.4345 C   0  0  0  0  0  0  0  0  0  0  0  0
  152.8153  139.5268  156.3009 N   0  0  0  0  0  0  0  0  0  0  0  0
  152.8588  138.5890  155.3497 C   0  0  0  0  0  0  0  0  0  0  0  0
  152.2663  137.3929  155.3290 N   0  0  0  0  0  0  0  0  0  0  0  0
  151.5386  137.1781  156.4628 C   0  0  0  0  0  0  0  0  0  0  0  0
  151.3959  138.0816  157.5519 C   0  0  0  0  0  0  0  0  0  0  0  0
  150.5699  137.5343  158.5241 N   0  0  0  0  0  0  0  0  0  0  0  0
  150.2423  136.3682  158.0371 C   0  0  0  0  0  0  0  0  0  0  0  0
  150.7945  136.0639  156.8120 N   0  0  0  0  0  0  0  0  0  0  0  0
  150.6005  134.8390  156.0484 C   0  0  0  0  0  0  0  0  0  0  0  0
  149.1240  134.5442  155.6469 C   0  0  0  0  0  0  0  0  0  0  0  0
  148.3290  135.8667  155.4481 C   0  0  0  0  0  0  0  0  0  0  0  0
  148.8998  136.6910  154.4517 O   0  0  0  0  0  0  0  0  0  0  0  0
  149.1306  133.6911  154.3534 C   0  0  0  0  0  0  0  0  0  0  0  0
  147.7517  133.0939  154.0191 C   0  0  0  0  0  0  0  0  0  0  0  0
  147.2804  132.3192  155.1140 O   0  0  0  0  0  0  0  0  0  0  0  0
  147.0988  133.0881  156.2956 C   0  0  0  0  0  0  0  0  0  0  0  0
  148.4420  133.6913  156.7463 C   0  0  0  0  0  0  0  0  0  0  0  0
  155.4860  138.4474  161.0161 H   0  0  0  0  0  0  0  0  0  0  0  0
  155.0386  140.1011  161.4025 H   0  0  0  0  0  0  0  0  0  0  0  0
  155.9654  139.7502  159.9438 H   0  0  0  0  0  0  0  0  0  0  0  0
  154.0218  138.4793  159.0019 H   0  0  0  0  0  0  0  0  0  0  0  0
  153.1207  138.7245  160.4570 H   0  0  0  0  0  0  0  0  0  0  0  0
  153.9976  140.9127  158.5135 H   0  0  0  0  0  0  0  0  0  0  0  0
  152.3067  141.1677  161.0369 H   0  0  0  0  0  0  0  0  0  0  0  0
  153.9212  141.8008  160.7863 H   0  0  0  0  0  0  0  0  0  0  0  0
  151.5174  143.4773  161.5180 H   0  0  0  0  0  0  0  0  0  0  0  0
  153.1592  144.0310  161.2552 H   0  0  0  0  0  0  0  0  0  0  0  0
  151.5221  145.8878  160.9320 H   0  0  0  0  0  0  0  0  0  0  0  0
  152.4249  145.5674  159.4700 H   0  0  0  0  0  0  0  0  0  0  0  0
  149.5899  144.5939  160.0870 H   0  0  0  0  0  0  0  0  0  0  0  0
  150.0266  145.8225  158.9195 H   0  0  0  0  0  0  0  0  0  0  0  0
  149.6363  143.6027  157.8270 H   0  0  0  0  0  0  0  0  0  0  0  0
  151.2633  144.1814  157.5643 H   0  0  0  0  0  0  0  0  0  0  0  0
  150.4085  142.1160  159.6499 H   0  0  0  0  0  0  0  0  0  0  0  0
  150.4618  141.2051  157.3764 H   0  0  0  0  0  0  0  0  0  0  0  0
  152.0507  141.8849  157.0867 H   0  0  0  0  0  0  0  0  0  0  0  0
  153.4526  138.8312  154.4806 H   0  0  0  0  0  0  0  0  0  0  0  0
  149.5899  135.6886  158.5661 H   0  0  0  0  0  0  0  0  0  0  0  0
  151.2297  134.8960  155.1591 H   0  0  0  0  0  0  0  0  0  0  0  0
  151.0029  134.0129  156.6365 H   0  0  0  0  0  0  0  0  0  0  0  0
  147.2960  135.6770  155.1617 H   0  0  0  0  0  0  0  0  0  0  0  0
  148.2785  136.4333  156.3780 H   0  0  0  0  0  0  0  0  0  0  0  0
  148.7378  136.2978  153.6076 H   0  0  0  0  0  0  0  0  0  0  0  0
  149.4964  134.2735  153.5075 H   0  0  0  0  0  0  0  0  0  0  0  0
  149.8332  132.8645  154.4690 H   0  0  0  0  0  0  0  0  0  0  0  0
  147.0286  133.8687  153.7635 H   0  0  0  0  0  0  0  0  0  0  0  0
  147.8324  132.4456  153.1463 H   0  0  0  0  0  0  0  0  0  0  0  0
  146.3455  133.8594  156.1321 H   0  0  0  0  0  0  0  0  0  0  0  0
  146.7078  132.4357  157.0765 H   0  0  0  0  0  0  0  0  0  0  0  0
  149.1007  132.8684  157.0265 H   0  0  0  0  0  0  0  0  0  0  0  0
  148.2892  134.2795  157.6516 H   0  0  0  0  0  0  0  0  0  0  0  0
  153.0632  143.1597  159.0523 H   0  0  0  0  0  0  0  0  0  0  0  0
  1  2  1  0  0  0  0
  1 31  1  0  0  0  0
  1 32  1  0  0  0  0
  1 33  1  0  0  0  0
  2  3  1  0  0  0  0
  2 34  1  0  0  0  0
  2 35  1  0  0  0  0
  3 12  1  0  0  0  0
  3  4  1  0  0  0  0
  3 36  1  0  0  0  0
  4  5  1  0  0  0  0
  4 37  1  0  0  0  0
  4 38  1  0  0  0  0
  5 10  1  0  0  0  0
  5  6  1  0  0  0  0
  5 65  1  0  0  0  0
  6  7  1  0  0  0  0
  6 39  1  0  0  0  0
  6 40  1  0  0  0  0
  7  8  1  0  0  0  0
  7 41  1  0  0  0  0
  7 42  1  0  0  0  0
  8  9  1  0  0  0  0
  8 43  1  0  0  0  0
  8 44  1  0  0  0  0
  9 10  1  0  0  0  0
  9 45  1  0  0  0  0
  9 46  1  0  0  0  0
 10 11  1  0  0  0  0
 10 47  1  0  0  0  0
 11 12  1  0  0  0  0
 11 48  1  0  0  0  0
 11 49  1  0  0  0  0
 12 13  1  0  0  0  0
 13 18  1  0  0  0  0
 13 14  2  0  0  0  0
 14 15  1  0  0  0  0
 15 16  2  0  0  0  0
 15 50  1  0  0  0  0
 16 17  1  0  0  0  0
 17 21  1  0  0  0  0
 17 18  2  0  0  0  0
 18 19  1  0  0  0  0
 19 20  2  0  0  0  0
 20 21  1  0  0  0  0
 20 51  1  0  0  0  0
 21 22  1  0  0  0  0
 22 23  1  0  0  0  0
 22 52  1  0  0  0  0
 22 53  1  0  0  0  0
 23 30  1  0  0  0  0
 23 24  1  0  0  0  0
 23 26  1  0  0  0  0
 24 25  1  0  0  0  0
 24 54  1  0  0  0  0
 24 55  1  0  0  0  0
 25 56  1  0  0  0  0
 26 27  1  0  0  0  0
 26 57  1  0  0  0  0
 26 58  1  0  0  0  0
 27 28  1  0  0  0  0
 27 59  1  0  0  0  0
 27 60  1  0  0  0  0
 28 29  1  0  0  0  0
 29 30  1  0  0  0  0
 29 61  1  0  0  0  0
 29 62  1  0  0  0  0
 30 63  1  0  0  0  0
 30 64  1  0  0  0  0
M  CHG  1   5   1
M  END
> <s_m_source_file>
AV-unprocessed.smi

> <i_m_source_file_index>
282

> <i_lp_mmshare_version>
43012

> <i_f3d_flags>
0

> <s_epik_input>
W0NIMl0xW0NIMl1bQ0gyXVtDSDJdW0NAQEhdKE4xMilbQ0gyXU4oW0NAQEhdKFtDSDJdMilbQ0gyXVtDSDNdKWMobltjSF1uMyljKGMzNCluW2NIXW40W0NIMl1DNShbQ0gyXVtPSF0pW0NIMl1bQ0gyXU9bQ0gyXVtDSDJdNQ==

> <s_epik_cmdline>
J2VwaWtfcHl0aG9uJywgJy1waCcsICc3LjAnLCAnLXRuJywgJzgnLCAnLW1hJywgJzIwMCcsICctbWV0YWxfYmluZGluZycsICctaW1hZScsICc8aW5maWxlLm1hZT4nLCAnLW9tYWUnLCAnPG91dGZpbGUubWFlPic=

> <r_lp_tautomer_probability>
1

> <r_epik_Ionization_Penalty>
0.00308583

> <r_epik_Ionization_Penalty_Charging>
0.00300384

> <r_epik_Ionization_Penalty_Neutral>
8.19894e-05

> <r_epik_State_Penalty>
-0

> <r_epik_Charging_Adjusted_Penalty>
0.00300384

> <i_epik_Tot_Q>
1

> <i_epik_Tot_abs_Q>
1

> <r_epik_Metal_State_Penalty>
-0

> <b_epik_Metal_Only>
0

> <s_lp_Force_Field>
OPLS_2005

> <r_lp_Energy>
57.4125

> <b_lp_Chiralities_Consistent>
1

> <s_lp_Variant>
AV-unprocessed.smi:282-7

> <Gold.Version>
5.8.1

> <Gold.Id.Protein>
6NUR|6NUR_protein|mol2

> <Gold.PLP.Fitness>
50.6299

> <Gold.PLP.PLP>
-43.4659

> <Gold.PLP.part.hbond>
-2.7440

> <Gold.PLP.part.metal>
0.0000

> <Gold.PLP.part.buried>
-7.6368

> <Gold.PLP.part.nonpolar>
-34.0337

> <Gold.PLP.part.repulsive>
0.1285

> <Gold.PLP.ligand.clash>
0.0000

> <Gold.PLP.ligand.torsion>
0.6547

> <Gold.PLP.Chemscore.Hbond>
2.7520

> <Gold.PLP.Chemscore.CHOScore>
0.0000

> <Gold.PLP.Chemscore.Metal>
0.0000

> <Gold.Chemscore.Hbonds>
donor molecule, donor type, donor heavy atom, donor atom, acceptor molecule, acceptor atom, score
      L1  H    25    56       P1  7948  1.00
      P1  H  7997  8008       L1    14  1.00
      P1  H 10752 10765       L1    16  0.75

> <Gold.PLP.Chemscore.Internal.Correction>
0.2174

> <Gold.Rescore>
     Score         DG    S(hbond)    S(metal)    S(lipo)     H(rot)  DE(clash)    DE(int)     intcor
     20.78     -21.41       2.65        0.00     114.29       2.46       0.07       0.56       ----

> <Gold.Chemscore.Fitness>
20.7772

> <Gold.Chemscore.DG>
-21.4064

> <Gold.Chemscore.ZeroCoef>
-5.4800

> <Gold.Chemscore.Hbond>
2.6486

> <Gold.Chemscore.Metal>
0.0000

> <Gold.Chemscore.Lipo>
114.2865

> <Gold.Chemscore.Internal_Hbond>
0.0000

> <Gold.Chemscore.DEClash>
0.0650

> <Gold.Chemscore.DEInternal>
0.5642

> <Gold.Chemscore.Rot>
2.4576

> <Gold.Chemscore.Internal.Correction>
   9.000000E+99

> <Gold.Chemscore.Hbonds>
donor molecule, donor type, donor heavy atom, donor atom, acceptor molecule, acceptor atom, score
      L1  H    25    56       P1  7948  0.95
      P1  H  7997  8008       L1    14  0.59
      P1  H 10752 10765       L1    16  0.49

> <Gold.Chemscore.Hbond.Weighted>
-8.8464

> <Gold.Chemscore.Metal.Weighted>
-0.0000

> <Gold.Chemscore.Lipo.Weighted>
-13.3715

> <Gold.Chemscore.Internal_Hbond.Weighted>
0.0000

> <Gold.Chemscore.DEClash.Weighted>
0.0650

> <Gold.Chemscore.DEInternal.Weighted>
0.5642

> <Gold.Chemscore.Rot.Weighted>
6.2915

> <Gold.Chemscore.Internal.Correction.Weighted>
   9.000000E+99

> <Gold.Protein.RotatedTorsions>
[ 6907 6896 6895 6894 ] final  -53.30 input  -60.11 | X-H torsion
[ 7974 7965 7964 7962 ] final  150.12 input  175.53 | X-H torsion
[ 8008 7997 7996 7995 ] final  -60.32 input   59.86 | X-H torsion
[ 10167 10162 10161 10158 ] final   17.79 input  -65.29 | X-H torsion
[ 10718 10713 10712 10709 ] final  104.06 input   66.30 | X-H torsion
[ 10763 10752 10751 10750 ] final -175.96 input  -60.55 | X-H torsion
[ 11005 11000 10999 10996 ] final   52.61 input  -57.11 | X-H torsion

> <Gold.Protein.ActiveResidues>
 VAL166  LYS551  ARG553  GLY616  TRP617  ASP618  TYR619  PRO620  LYS621  CYS622 
 ASP623  PHE694  ASN695  SER759  ASP760  ASP761  ALA762  ILE779  LEU786  VAL792 
 PHE793  MET794  SER795  GLU796  ALA797  LYS798  CYS799  TRP800  GLU811  SER814 

> <Gold.Protein.RotatedAtoms>
  150.8439  134.7742  159.6954 H   0  0  0  0  0  0  0  0  0  0  0  0  # atno 6907 bound_to 6896
  152.4521  134.5369  159.9837 H   0  0  0  0  0  0  0  0  0  0  0  0  # atno 6908 bound_to 6896
  151.5503  133.3380  159.2987 H   0  0  0  0  0  0  0  0  0  0  0  0  # atno 6909 bound_to 6896
  144.8387  139.6368  143.6026 H   0  0  0  0  0  0  0  0  0  0  0  0  # atno 7974 bound_to 7965
  154.4393  140.1042  156.6256 H   0  0  0  0  0  0  0  0  0  0  0  0  # atno 8008 bound_to 7997
  155.5661  140.3488  155.4484 H   0  0  0  0  0  0  0  0  0  0  0  0  # atno 8009 bound_to 7997
  156.0424  140.1285  157.0130 H   0  0  0  0  0  0  0  0  0  0  0  0  # atno 8010 bound_to 7997
  140.5700  143.9178  150.6706 H   0  0  0  0  0  0  0  0  0  0  0  0  # atno 10167 bound_to 10162
  157.6752  131.0794  150.5649 H   0  0  0  0  0  0  0  0  0  0  0  0  # atno 10718 bound_to 10713
  154.5781  135.2834  155.0760 H   0  0  0  0  0  0  0  0  0  0  0  0  # atno 10763 bound_to 10752
  154.2107  135.6408  153.5118 H   0  0  0  0  0  0  0  0  0  0  0  0  # atno 10764 bound_to 10752
  153.0079  135.5491  154.6426 H   0  0  0  0  0  0  0  0  0  0  0  0  # atno 10765 bound_to 10752
  140.0835  134.5306  155.8922 H   0  0  0  0  0  0  0  0  0  0  0  0  # atno 11005 bound_to 11000
  146.2682  139.6572  142.9314 LP  0  0  0  0  0  0  0  0  0  0  0  0  # atno 17320 bound_to 7965
  145.4740  141.0436  143.2683 LP  0  0  0  0  0  0  0  0  0  0  0  0  # atno 17321 bound_to 7965
  140.2651  143.3496  152.1288 LP  0  0  0  0  0  0  0  0  0  0  0  0  # atno 17342 bound_to 10162
  139.5113  144.6898  151.5791 LP  0  0  0  0  0  0  0  0  0  0  0  0  # atno 17343 bound_to 10162
  156.5951  130.4339  149.5920 LP  0  0  0  0  0  0  0  0  0  0  0  0  # atno 17370 bound_to 10713
  156.2551  130.6930  151.1681 LP  0  0  0  0  0  0  0  0  0  0  0  0  # atno 17371 bound_to 10713
  141.2055  133.6647  156.6183 LP  0  0  0  0  0  0  0  0  0  0  0  0  # atno 17394 bound_to 11000
  140.3453  134.7814  157.4428 LP  0  0  0  0  0  0  0  0  0  0  0  0  # atno 17395 bound_to 11000

$$$$
