AV-unprocessed.smi:236|AV-procd|sdf|1815|dock1
  -GOLD-   2262020403D 1   1.00000     0.00000
 Structure written by MMmdl.
 58 62  0  0  0  0  0  0  0  0  1 V2000
  144.3986  135.2782  161.4875 C   0  0  0  0  0  0  0  0  0  0  0  0
  144.9895  133.9517  160.9830 C   0  0  2  0  0  0  0  0  0  0  0  0
  144.0174  132.9177  161.0335 O   0  0  0  0  0  0  0  0  0  0  0  0
  144.7147  131.6900  160.9254 C   0  0  0  0  0  0  0  0  0  0  0  0
  145.9006  131.8913  161.8608 C   0  0  0  0  0  0  0  0  0  0  0  0
  146.2163  133.3865  161.7463 C   0  0  2  0  0  0  0  0  0  0  0  0
  146.3088  133.9182  163.0583 O   0  0  0  0  0  0  0  0  0  0  0  0
  147.5596  133.6442  161.0196 C   0  0  0  0  0  0  0  0  0  0  0  0
  147.7374  135.0249  160.5951 N   0  0  0  0  0  0  0  0  0  0  0  0
  147.3635  136.1541  161.2891 C   0  0  0  0  0  0  0  0  0  0  0  0
  147.6329  137.2862  160.6993 N   0  0  0  0  0  0  0  0  0  0  0  0
  148.2432  136.9109  159.5089 C   0  0  0  0  0  0  0  0  0  0  0  0
  148.7872  137.6215  158.4017 C   0  0  0  0  0  0  0  0  0  0  0  0
  148.8201  138.9658  158.2881 N   0  0  0  0  0  0  0  0  0  0  0  0
  147.7546  139.4988  157.4500 C   0  0  0  0  0  0  0  0  0  0  0  0
  147.7765  141.0351  157.4921 C   0  0  0  0  0  0  0  0  0  0  0  0
  149.0681  141.5006  157.1123 O   0  0  0  0  0  0  0  0  0  0  0  0
  150.0919  141.0503  157.9982 C   0  0  2  0  0  0  0  0  0  0  0  0
  151.4226  141.6655  157.5465 C   0  0  0  0  0  0  0  0  0  0  0  0
  152.4319  141.3146  158.4780 O   0  0  0  0  0  0  0  0  0  0  0  0
  152.3938  142.1045  159.6564 C   0  0  0  0  0  0  0  0  0  0  0  0
  152.9163  143.5067  159.4000 C   0  0  0  0  0  0  0  0  0  0  0  0
  152.1792  144.7236  159.9207 C   0  0  0  0  0  0  0  0  0  0  0  0
  152.2030  144.4401  158.4431 C   0  0  0  0  0  0  0  0  0  0  0  0
  150.1306  139.5102  157.9537 C   0  0  0  0  0  0  0  0  0  0  0  0
  149.3285  136.9035  157.3879 N   0  0  0  0  0  0  0  0  0  0  0  0
  149.3370  135.5681  157.4462 C   0  0  0  0  0  0  0  0  0  0  0  0
  148.8689  134.7707  158.4093 N   0  0  0  0  0  0  0  0  0  0  0  0
  148.3236  135.4919  159.4309 C   0  0  0  0  0  0  0  0  0  0  0  0
  145.1443  136.0733  161.4705 H   0  0  0  0  0  0  0  0  0  0  0  0
  144.0217  135.1886  162.5065 H   0  0  0  0  0  0  0  0  0  0  0  0
  143.5670  135.5927  160.8568 H   0  0  0  0  0  0  0  0  0  0  0  0
  145.2446  134.0676  159.9293 H   0  0  0  0  0  0  0  0  0  0  0  0
  144.0902  130.8435  161.2116 H   0  0  0  0  0  0  0  0  0  0  0  0
  145.0471  131.5433  159.8963 H   0  0  0  0  0  0  0  0  0  0  0  0
  145.5950  131.6303  162.8755 H   0  0  0  0  0  0  0  0  0  0  0  0
  146.7417  131.2477  161.6010 H   0  0  0  0  0  0  0  0  0  0  0  0
  146.9700  134.5932  163.0630 H   0  0  0  0  0  0  0  0  0  0  0  0
  148.3973  133.3775  161.6654 H   0  0  0  0  0  0  0  0  0  0  0  0
  147.6388  133.0028  160.1409 H   0  0  0  0  0  0  0  0  0  0  0  0
  146.8770  136.1115  162.2528 H   0  0  0  0  0  0  0  0  0  0  0  0
  147.8850  139.1556  156.4230 H   0  0  0  0  0  0  0  0  0  0  0  0
  146.7881  139.1284  157.7950 H   0  0  0  0  0  0  0  0  0  0  0  0
  147.0348  141.4412  156.8042 H   0  0  0  0  0  0  0  0  0  0  0  0
  147.5236  141.4017  158.4883 H   0  0  0  0  0  0  0  0  0  0  0  0
  149.8728  141.3797  159.0155 H   0  0  0  0  0  0  0  0  0  0  0  0
  151.6954  141.2781  156.5635 H   0  0  0  0  0  0  0  0  0  0  0  0
  151.3322  142.7494  157.4594 H   0  0  0  0  0  0  0  0  0  0  0  0
  151.3709  142.1745  160.0290 H   0  0  0  0  0  0  0  0  0  0  0  0
  153.0007  141.6444  160.4373 H   0  0  0  0  0  0  0  0  0  0  0  0
  154.0027  143.5731  159.4046 H   0  0  0  0  0  0  0  0  0  0  0  0
  151.2395  144.5680  160.4468 H   0  0  0  0  0  0  0  0  0  0  0  0
  152.7799  145.5560  160.2814 H   0  0  0  0  0  0  0  0  0  0  0  0
  152.8186  145.0840  157.8185 H   0  0  0  0  0  0  0  0  0  0  0  0
  151.2789  144.0946  157.9836 H   0  0  0  0  0  0  0  0  0  0  0  0
  150.8744  139.1327  158.6566 H   0  0  0  0  0  0  0  0  0  0  0  0
  150.4296  139.1803  156.9585 H   0  0  0  0  0  0  0  0  0  0  0  0
  149.7840  135.0664  156.6006 H   0  0  0  0  0  0  0  0  0  0  0  0
  1  2  1  0  0  0  0
  1 30  1  0  0  0  0
  1 31  1  0  0  0  0
  1 32  1  0  0  0  0
  2  6  1  0  0  0  0
  2  3  1  0  0  0  0
  2 33  1  0  0  0  0
  3  4  1  0  0  0  0
  4  5  1  0  0  0  0
  4 34  1  0  0  0  0
  4 35  1  0  0  0  0
  5  6  1  0  0  0  0
  5 36  1  0  0  0  0
  5 37  1  0  0  0  0
  6  7  1  0  0  0  0
  6  8  1  0  0  0  0
  7 38  1  0  0  0  0
  8  9  1  0  0  0  0
  8 39  1  0  0  0  0
  8 40  1  0  0  0  0
  9 29  1  0  0  0  0
  9 10  1  0  0  0  0
 10 11  2  0  0  0  0
 10 41  1  0  0  0  0
 11 12  1  0  0  0  0
 12 29  2  0  0  0  0
 12 13  1  0  0  0  0
 13 14  1  0  0  0  0
 13 26  2  0  0  0  0
 14 25  1  0  0  0  0
 14 15  1  0  0  0  0
 15 16  1  0  0  0  0
 15 42  1  0  0  0  0
 15 43  1  0  0  0  0
 16 17  1  0  0  0  0
 16 44  1  0  0  0  0
 16 45  1  0  0  0  0
 17 18  1  0  0  0  0
 18 19  1  0  0  0  0
 18 25  1  0  0  0  0
 18 46  1  0  0  0  0
 19 20  1  0  0  0  0
 19 47  1  0  0  0  0
 19 48  1  0  0  0  0
 20 21  1  0  0  0  0
 21 22  1  0  0  0  0
 21 49  1  0  0  0  0
 21 50  1  0  0  0  0
 22 24  1  0  0  0  0
 22 23  1  0  0  0  0
 22 51  1  0  0  0  0
 23 24  1  0  0  0  0
 23 52  1  0  0  0  0
 23 53  1  0  0  0  0
 24 54  1  0  0  0  0
 24 55  1  0  0  0  0
 25 56  1  0  0  0  0
 25 57  1  0  0  0  0
 26 27  1  0  0  0  0
 27 28  2  0  0  0  0
 27 58  1  0  0  0  0
 28 29  1  0  0  0  0
M  END
> <s_m_source_file>
AV-unprocessed.smi

> <i_m_source_file_index>
236

> <i_lp_mmshare_version>
43012

> <i_f3d_flags>
0

> <s_epik_input>
W0NIMl0xW0NIMl1PW0NAQEhdKFtDSDNdKVtDQEBdMShbT0hdKVtDSDJdbihbY0hdbjIpYyhjMjMpbltjSF1uYzNONFtDSDJdW0NIMl1PW0NASF0oW0NIMl00KVtDSDJdT1tDSDJdW0NIXTVbQ0gyXVtDSDJdNQ==

> <s_epik_cmdline>
J2VwaWtfcHl0aG9uJywgJy1waCcsICc3LjAnLCAnLXRuJywgJzgnLCAnLW1hJywgJzIwMCcsICctbWV0YWxfYmluZGluZycsICctaW1hZScsICc8aW5maWxlLm1hZT4nLCAnLW9tYWUnLCAnPG91dGZpbGUubWFlPic=

> <r_lp_tautomer_probability>
1

> <r_epik_Ionization_Penalty>
7.21838e-05

> <r_epik_Ionization_Penalty_Charging>
0

> <r_epik_Ionization_Penalty_Neutral>
7.21838e-05

> <r_epik_State_Penalty>
-0

> <r_epik_Charging_Adjusted_Penalty>
0

> <i_epik_Tot_Q>
0

> <i_epik_Tot_abs_Q>
0

> <r_epik_Metal_State_Penalty>
-0

> <b_epik_Metal_Only>
0

> <s_lp_Force_Field>
OPLS_2005

> <r_lp_Energy>
47.5689

> <b_lp_Chiralities_Consistent>
1

> <s_lp_Variant>
AV-unprocessed.smi:236-7

> <Gold.Version>
5.8.1

> <Gold.Id.Protein>
6NUR|6NUR_protein|mol2

> <Gold.PLP.Fitness>
51.1465

> <Gold.PLP.PLP>
-44.8894

> <Gold.PLP.part.hbond>
-4.5545

> <Gold.PLP.part.metal>
0.0000

> <Gold.PLP.part.buried>
-5.9361

> <Gold.PLP.part.nonpolar>
-34.4526

> <Gold.PLP.part.repulsive>
0.1674

> <Gold.PLP.ligand.clash>
0.0000

> <Gold.PLP.ligand.torsion>
1.3014

> <Gold.PLP.Chemscore.Hbond>
2.6156

> <Gold.PLP.Chemscore.CHOScore>
0.0000

> <Gold.PLP.Chemscore.Metal>
0.0000

> <Gold.Chemscore.Hbonds>
donor molecule, donor type, donor heavy atom, donor atom, acceptor molecule, acceptor atom, score
      P1  H  6896  6908       L1    28  0.73
      P1  H  6931  6943       L1    11  0.66
      P1  H  6934  6947       L1    11  0.94

> <Gold.PLP.Chemscore.Internal.Correction>
1.0131

> <Gold.Rescore>
     Score         DG    S(hbond)    S(metal)    S(lipo)     H(rot)  DE(clash)    DE(int)     intcor
     11.77     -13.01       1.21        0.00      92.54       2.87       0.02       1.23       ----

> <Gold.Chemscore.Fitness>
11.7664

> <Gold.Chemscore.DG>
-13.0133

> <Gold.Chemscore.ZeroCoef>
-5.4800

> <Gold.Chemscore.Hbond>
1.2101

> <Gold.Chemscore.Metal>
0.0000

> <Gold.Chemscore.Lipo>
92.5405

> <Gold.Chemscore.Internal_Hbond>
0.0000

> <Gold.Chemscore.DEClash>
0.0174

> <Gold.Chemscore.DEInternal>
1.2295

> <Gold.Chemscore.Rot>
2.8655

> <Gold.Chemscore.Internal.Correction>
   9.000000E+99

> <Gold.Chemscore.Hbonds>
donor molecule, donor type, donor heavy atom, donor atom, acceptor molecule, acceptor atom, score
      P1  H  6896  6908       L1    28  0.06
      P1  H  6931  6943       L1    11  0.27
      P1  H  6934  6947       L1    11  0.87

> <Gold.Chemscore.Hbond.Weighted>
-4.0418

> <Gold.Chemscore.Metal.Weighted>
-0.0000

> <Gold.Chemscore.Lipo.Weighted>
-10.8272

> <Gold.Chemscore.Internal_Hbond.Weighted>
0.0000

> <Gold.Chemscore.DEClash.Weighted>
0.0174

> <Gold.Chemscore.DEInternal.Weighted>
1.2295

> <Gold.Chemscore.Rot.Weighted>
7.3358

> <Gold.Chemscore.Internal.Correction.Weighted>
   9.000000E+99

> <Gold.Protein.RotatedTorsions>
[ 6907 6896 6895 6894 ] final  137.88 input  -60.11 | X-H torsion
[ 7974 7965 7964 7962 ] final   54.03 input  175.53 | X-H torsion
[ 8008 7997 7996 7995 ] final   85.04 input   59.86 | X-H torsion
[ 10167 10162 10161 10158 ] final  112.51 input  -65.29 | X-H torsion
[ 10718 10713 10712 10709 ] final -160.56 input   66.30 | X-H torsion
[ 10763 10752 10751 10750 ] final  -41.35 input  -60.55 | X-H torsion
[ 11005 11000 10999 10996 ] final -101.62 input  -57.11 | X-H torsion

> <Gold.Protein.ActiveResidues>
 VAL166  LYS551  ARG553  GLY616  TRP617  ASP618  TYR619  PRO620  LYS621  CYS622 
 ASP623  PHE694  ASN695  SER759  ASP760  ASP761  ALA762  ILE779  LEU786  VAL792 
 PHE793  MET794  SER795  GLU796  ALA797  LYS798  CYS799  TRP800  GLU811  SER814 

> <Gold.Protein.RotatedAtoms>
  152.2731  133.5400  159.5450 H   0  0  0  0  0  0  0  0  0  0  0  0  # atno 6907 bound_to 6896
  150.7166  134.0670  159.3860 H   0  0  0  0  0  0  0  0  0  0  0  0  # atno 6908 bound_to 6896
  151.8584  135.0533  160.0517 H   0  0  0  0  0  0  0  0  0  0  0  0  # atno 6909 bound_to 6896
  145.9650  139.4095  143.0225 H   0  0  0  0  0  0  0  0  0  0  0  0  # atno 7974 bound_to 7965
  155.9449  140.3405  155.6359 H   0  0  0  0  0  0  0  0  0  0  0  0  # atno 8008 bound_to 7997
  155.6993  140.0758  157.2435 H   0  0  0  0  0  0  0  0  0  0  0  0  # atno 8009 bound_to 7997
  154.4110  140.1643  156.2160 H   0  0  0  0  0  0  0  0  0  0  0  0  # atno 8010 bound_to 7997
  139.6530  144.7128  151.2011 H   0  0  0  0  0  0  0  0  0  0  0  0  # atno 10167 bound_to 10162
  156.5838  130.8741  151.2872 H   0  0  0  0  0  0  0  0  0  0  0  0  # atno 10718 bound_to 10713
  153.9610  135.6739  153.4745 H   0  0  0  0  0  0  0  0  0  0  0  0  # atno 10763 bound_to 10752
  153.0838  135.4909  154.8553 H   0  0  0  0  0  0  0  0  0  0  0  0  # atno 10764 bound_to 10752
  154.7272  135.3130  154.8911 H   0  0  0  0  0  0  0  0  0  0  0  0  # atno 10765 bound_to 10752
  141.1223  133.8493  157.1255 H   0  0  0  0  0  0  0  0  0  0  0  0  # atno 11005 bound_to 11000
  145.7986  140.9781  143.1011 LP  0  0  0  0  0  0  0  0  0  0  0  0  # atno 17320 bound_to 7965
  144.6823  139.9773  143.7483 LP  0  0  0  0  0  0  0  0  0  0  0  0  # atno 17321 bound_to 7965
  140.7546  143.6118  150.8598 LP  0  0  0  0  0  0  0  0  0  0  0  0  # atno 17342 bound_to 10162
  139.9768  143.5995  152.2956 LP  0  0  0  0  0  0  0  0  0  0  0  0  # atno 17343 bound_to 10162
  157.7320  130.9708  150.1907 LP  0  0  0  0  0  0  0  0  0  0  0  0  # atno 17370 bound_to 10713
  156.2608  130.3710  149.8132 LP  0  0  0  0  0  0  0  0  0  0  0  0  # atno 17371 bound_to 10713
  140.0191  134.9954  157.0554 LP  0  0  0  0  0  0  0  0  0  0  0  0  # atno 17394 bound_to 11000
  140.4470  134.1621  155.7178 LP  0  0  0  0  0  0  0  0  0  0  0  0  # atno 17395 bound_to 11000

$$$$
