AV-unprocessed.smi:3238|AV-procd|sdf|12378|dock1
  -GOLD-   2272018243D 1   1.00000     0.00000
 Structure written by MMmdl.
 37 39  0  0  0  0  0  0  0  0  1 V2000
  150.1408  134.9809  154.6903 C   0  0  0  0  0  0  0  0  0  0  0  0
  150.8492  136.2247  154.4322 N   0  0  0  0  0  0  0  0  0  0  0  0
  151.2915  137.0563  155.3880 C   0  0  0  0  0  0  0  0  0  0  0  0
  151.1563  136.8340  156.5911 O   0  0  0  0  0  0  0  0  0  0  0  0
  152.0024  138.3292  154.9199 C   0  0  0  0  0  0  0  0  0  0  0  0
  151.4403  139.5337  155.6053 C   0  0  0  0  0  0  0  0  0  0  0  0
  150.9564  140.5612  154.9167 N   0  0  0  0  0  0  0  0  0  0  0  0
  150.5838  141.4732  155.9147 O   0  0  0  0  0  0  0  0  0  0  0  0
  150.8704  140.8695  157.0930 C   0  0  0  0  0  0  0  0  0  0  0  0
  150.6691  141.6299  158.3619 C   0  0  0  0  0  0  0  0  0  0  0  0
  151.0589  143.1175  158.2416 C   0  0  1  0  0  0  0  0  0  0  0  0
  150.2509  144.0713  159.1465 C   0  0  0  0  0  0  0  0  0  0  0  0
  151.3489  144.9144  159.8235 C   0  0  1  0  0  0  0  0  0  0  0  0
  152.0590  144.0568  160.8861 C   0  0  0  0  0  0  0  0  0  0  0  0
  152.8855  143.0783  160.0318 C   0  0  0  0  0  0  0  0  0  0  0  0
  152.5218  143.4886  158.5892 C   0  0  2  0  0  0  0  0  0  0  0  0
  152.4112  145.0032  158.7326 C   0  0  0  0  0  0  0  0  0  0  0  0
  151.4050  139.6585  156.9609 N   0  0  0  0  0  0  0  0  0  0  0  0
  149.8819  134.4989  153.7479 H   0  0  0  0  0  0  0  0  0  0  0  0
  149.2186  135.1673  155.2423 H   0  0  0  0  0  0  0  0  0  0  0  0
  150.7603  134.2933  155.2676 H   0  0  0  0  0  0  0  0  0  0  0  0
  150.9996  136.4794  153.4663 H   0  0  0  0  0  0  0  0  0  0  0  0
  153.0718  138.2548  155.1230 H   0  0  0  0  0  0  0  0  0  0  0  0
  151.8906  138.4343  153.8401 H   0  0  0  0  0  0  0  0  0  0  0  0
  149.6225  141.5454  158.6560 H   0  0  0  0  0  0  0  0  0  0  0  0
  151.2436  141.1438  159.1508 H   0  0  0  0  0  0  0  0  0  0  0  0
  150.8917  143.4102  157.2033 H   0  0  0  0  0  0  0  0  0  0  0  0
  149.5902  144.6984  158.5465 H   0  0  0  0  0  0  0  0  0  0  0  0
  149.6337  143.5460  159.8768 H   0  0  0  0  0  0  0  0  0  0  0  0
  150.9936  145.8729  160.2028 H   0  0  0  0  0  0  0  0  0  0  0  0
  152.7132  144.6692  161.5081 H   0  0  0  0  0  0  0  0  0  0  0  0
  151.3558  143.5444  161.5437 H   0  0  0  0  0  0  0  0  0  0  0  0
  153.9511  143.2261  160.2120 H   0  0  0  0  0  0  0  0  0  0  0  0
  152.6620  142.0359  160.2551 H   0  0  0  0  0  0  0  0  0  0  0  0
  153.2470  143.1568  157.8452 H   0  0  0  0  0  0  0  0  0  0  0  0
  152.0617  145.5030  157.8274 H   0  0  0  0  0  0  0  0  0  0  0  0
  153.3367  145.4761  159.0666 H   0  0  0  0  0  0  0  0  0  0  0  0
  1  2  1  0  0  0  0
  1 19  1  0  0  0  0
  1 20  1  0  0  0  0
  1 21  1  0  0  0  0
  2  3  1  0  0  0  0
  2 22  1  0  0  0  0
  3  4  2  0  0  0  0
  3  5  1  0  0  0  0
  5  6  1  0  0  0  0
  5 23  1  0  0  0  0
  5 24  1  0  0  0  0
  6 18  1  0  0  0  0
  6  7  2  0  0  0  0
  7  8  1  0  0  0  0
  8  9  1  0  0  0  0
  9 10  1  0  0  0  0
  9 18  2  0  0  0  0
 10 11  1  0  0  0  0
 10 25  1  0  0  0  0
 10 26  1  0  0  0  0
 11 16  1  0  0  0  0
 11 12  1  0  0  0  0
 11 27  1  0  0  0  0
 12 13  1  0  0  0  0
 12 28  1  0  0  0  0
 12 29  1  0  0  0  0
 13 17  1  0  0  0  0
 13 14  1  0  0  0  0
 13 30  1  0  0  0  0
 14 15  1  0  0  0  0
 14 31  1  0  0  0  0
 14 32  1  0  0  0  0
 15 16  1  0  0  0  0
 15 33  1  0  0  0  0
 15 34  1  0  0  0  0
 16 17  1  0  0  0  0
 16 35  1  0  0  0  0
 17 36  1  0  0  0  0
 17 37  1  0  0  0  0
M  END
> <s_m_source_file>
AV-unprocessed.smi

> <i_m_source_file_index>
3238

> <i_lp_mmshare_version>
43012

> <i_f3d_flags>
0

> <s_epik_input>
W0NIM11bTkhdQyg9TylbQ0gyXWMxbm9jKG4xKVtDSDJdW0NASF0oW0NIMl1bQ0BIXTIzKVtDQEhdKFtDSDJdMylbQ0gyXVtDSDJdMg==

> <s_epik_cmdline>
J2VwaWtfcHl0aG9uJywgJy1waCcsICc3LjAnLCAnLXRuJywgJzgnLCAnLW1hJywgJzIwMCcsICctbWV0YWxfYmluZGluZycsICctaW1hZScsICc8aW5maWxlLm1hZT4nLCAnLW9tYWUnLCAnPG91dGZpbGUubWFlPic=

> <r_lp_tautomer_probability>
1

> <r_epik_Ionization_Penalty>
1.02915e-07

> <r_epik_Ionization_Penalty_Charging>
0

> <r_epik_Ionization_Penalty_Neutral>
1.02915e-07

> <r_epik_State_Penalty>
-0

> <r_epik_Charging_Adjusted_Penalty>
0

> <i_epik_Tot_Q>
0

> <i_epik_Tot_abs_Q>
0

> <r_epik_Metal_State_Penalty>
-0

> <b_epik_Metal_Only>
0

> <s_lp_Force_Field>
OPLS_2005

> <r_lp_Energy>
47.2904

> <b_lp_Chiralities_Consistent>
1

> <s_lp_Variant>
AV-unprocessed.smi:3238-4

> <Gold.Version>
5.8.1

> <Gold.Id.Protein>
6NUR|6NUR_protein|mol2

> <Gold.PLP.Fitness>
45.6773

> <Gold.PLP.PLP>
-41.2771

> <Gold.PLP.part.hbond>
-2.7318

> <Gold.PLP.part.metal>
0.0000

> <Gold.PLP.part.buried>
-5.3331

> <Gold.PLP.part.nonpolar>
-33.7185

> <Gold.PLP.part.repulsive>
0.2441

> <Gold.PLP.ligand.clash>
0.0000

> <Gold.PLP.ligand.torsion>
0.7633

> <Gold.PLP.Chemscore.Hbond>
1.9500

> <Gold.PLP.Chemscore.CHOScore>
0.0000

> <Gold.PLP.Chemscore.Metal>
0.0000

> <Gold.Chemscore.Hbonds>
donor molecule, donor type, donor heavy atom, donor atom, acceptor molecule, acceptor atom, score
      L1  H     2    22       P1  7949  0.98
      P1  H  7989  7998       L1     7  1.00

> <Gold.PLP.Chemscore.Internal.Correction>
0.0769

> <Gold.Rescore>
     Score         DG    S(hbond)    S(metal)    S(lipo)     H(rot)  DE(clash)    DE(int)     intcor
     14.64     -16.62       1.19        0.00     101.86       1.85       0.03       1.95       ----

> <Gold.Chemscore.Fitness>
14.6427

> <Gold.Chemscore.DG>
-16.6239

> <Gold.Chemscore.ZeroCoef>
-5.4800

> <Gold.Chemscore.Hbond>
1.1858

> <Gold.Chemscore.Metal>
0.0000

> <Gold.Chemscore.Lipo>
101.8585

> <Gold.Chemscore.Internal_Hbond>
0.0000

> <Gold.Chemscore.DEClash>
0.0297

> <Gold.Chemscore.DEInternal>
1.9515

> <Gold.Chemscore.Rot>
1.8492

> <Gold.Chemscore.Internal.Correction>
   9.000000E+99

> <Gold.Chemscore.Hbonds>
donor molecule, donor type, donor heavy atom, donor atom, acceptor molecule, acceptor atom, score
      L1  H     2    22       P1  7949  0.22
      P1  H  7989  7998       L1     7  0.88

> <Gold.Chemscore.Hbond.Weighted>
-3.9604

> <Gold.Chemscore.Metal.Weighted>
-0.0000

> <Gold.Chemscore.Lipo.Weighted>
-11.9174

> <Gold.Chemscore.Internal_Hbond.Weighted>
0.0000

> <Gold.Chemscore.DEClash.Weighted>
0.0297

> <Gold.Chemscore.DEInternal.Weighted>
1.9515

> <Gold.Chemscore.Rot.Weighted>
4.7340

> <Gold.Chemscore.Internal.Correction.Weighted>
   9.000000E+99

> <Gold.Protein.RotatedTorsions>
[ 6907 6896 6895 6894 ] final   50.12 input  -60.11 | X-H torsion
[ 7974 7965 7964 7962 ] final  -24.52 input  175.53 | X-H torsion
[ 8008 7997 7996 7995 ] final  -21.93 input   59.86 | X-H torsion
[ 10167 10162 10161 10158 ] final  -32.17 input  -65.29 | X-H torsion
[ 10718 10713 10712 10709 ] final   25.24 input   66.30 | X-H torsion
[ 10763 10752 10751 10750 ] final  114.97 input  -60.55 | X-H torsion
[ 11005 11000 10999 10996 ] final -168.50 input  -57.11 | X-H torsion

> <Gold.Protein.ActiveResidues>
 VAL166  LYS551  ARG553  GLY616  TRP617  ASP618  TYR619  PRO620  LYS621  CYS622 
 ASP623  PHE694  ASN695  SER759  ASP760  ASP761  ALA762  ILE779  LEU786  VAL792 
 PHE793  MET794  SER795  GLU796  ALA797  LYS798  CYS799  TRP800  GLU811  SER814 

> <Gold.Protein.RotatedAtoms>
  152.2983  134.7641  160.0363 H   0  0  0  0  0  0  0  0  0  0  0  0  # atno 6907 bound_to 6896
  151.8163  133.3383  159.3579 H   0  0  0  0  0  0  0  0  0  0  0  0  # atno 6908 bound_to 6896
  150.7261  134.5545  159.5856 H   0  0  0  0  0  0  0  0  0  0  0  0  # atno 6909 bound_to 6896
  146.1550  140.4762  142.8595 H   0  0  0  0  0  0  0  0  0  0  0  0  # atno 7974 bound_to 7965
  154.4675  140.2021  156.0080 H   0  0  0  0  0  0  0  0  0  0  0  0  # atno 8008 bound_to 7997
  156.0953  140.3252  155.7840 H   0  0  0  0  0  0  0  0  0  0  0  0  # atno 8009 bound_to 7997
  155.4889  140.0544  157.2947 H   0  0  0  0  0  0  0  0  0  0  0  0  # atno 8010 bound_to 7997
  140.7225  143.3715  151.1770 H   0  0  0  0  0  0  0  0  0  0  0  0  # atno 10167 bound_to 10162
  157.1906  130.6844  149.6148 H   0  0  0  0  0  0  0  0  0  0  0  0  # atno 10718 bound_to 10713
  153.5152  135.3609  155.2606 H   0  0  0  0  0  0  0  0  0  0  0  0  # atno 10763 bound_to 10752
  154.8739  135.4032  154.3322 H   0  0  0  0  0  0  0  0  0  0  0  0  # atno 10764 bound_to 10752
  153.3983  135.7074  153.6511 H   0  0  0  0  0  0  0  0  0  0  0  0  # atno 10765 bound_to 10752
  140.5413  134.5520  157.5100 H   0  0  0  0  0  0  0  0  0  0  0  0  # atno 11005 bound_to 11000
  144.7951  140.6107  143.6515 LP  0  0  0  0  0  0  0  0  0  0  0  0  # atno 17320 bound_to 7965
  145.4731  139.1501  143.3803 LP  0  0  0  0  0  0  0  0  0  0  0  0  # atno 17321 bound_to 7965
  139.7287  143.9107  152.3012 LP  0  0  0  0  0  0  0  0  0  0  0  0  # atno 17342 bound_to 10162
  139.8889  144.6977  150.8793 LP  0  0  0  0  0  0  0  0  0  0  0  0  # atno 17343 bound_to 10162
  155.9712  130.4616  150.6114 LP  0  0  0  0  0  0  0  0  0  0  0  0  # atno 17370 bound_to 10713
  157.3864  131.0789  151.1432 LP  0  0  0  0  0  0  0  0  0  0  0  0  # atno 17371 bound_to 10713
  139.9502  134.7630  156.0465 LP  0  0  0  0  0  0  0  0  0  0  0  0  # atno 17394 bound_to 11000
  141.1225  133.6608  156.3252 LP  0  0  0  0  0  0  0  0  0  0  0  0  # atno 17395 bound_to 11000

$$$$
