AV-unprocessed.smi:2481|AV-procd|sdf|9772|dock2
  -GOLD-   2272013413D 1   1.00000     0.00000
 Structure written by MMmdl.
 37 38  0  0  0  0  0  0  0  0  1 V2000
  151.2645  138.1956  154.2856 C   0  0  0  0  0  0  0  0  0  0  0  0
  150.2173  139.1896  154.4222 N   0  0  0  0  0  0  0  0  0  0  0  0
  150.4951  140.4370  154.8690 N   0  0  0  0  0  0  0  0  0  0  0  0
  149.3006  141.0287  154.8483 C   0  0  0  0  0  0  0  0  0  0  0  0
  148.2578  140.2580  154.4193 N   0  0  0  0  0  0  0  0  0  0  0  0
  148.9065  139.1246  154.1711 C   0  0  0  0  0  0  0  0  0  0  0  0
  148.3314  137.9196  153.6860 N   0  0  0  0  0  0  0  0  0  0  0  0
  147.2180  137.3058  154.1211 C   0  0  0  0  0  0  0  0  0  0  0  0
  146.4942  137.7096  155.0316 O   0  0  0  0  0  0  0  0  0  0  0  0
  146.9825  136.1824  153.4284 N   0  0  0  0  0  0  0  0  0  0  0  0
  145.8545  135.2732  153.6390 C   0  0  1  0  0  0  0  0  0  0  0  0
  144.5401  136.0640  153.8135 C   0  0  0  0  0  0  0  0  0  0  0  0
  144.0888  136.7345  152.5052 C   0  0  0  0  0  0  0  0  0  0  0  0
  143.9709  135.7081  151.3695 C   0  0  0  0  0  0  0  0  0  0  0  0
  145.2833  134.9314  151.1780 C   0  0  0  0  0  0  0  0  0  0  0  0
  145.7365  134.2432  152.4836 C   0  0  1  0  0  0  0  0  0  0  0  0
  147.0197  133.4152  152.2589 C   0  0  0  0  0  0  0  0  0  0  0  0
  146.8400  132.4825  151.2139 O   0  0  0  0  0  0  0  0  0  0  0  0
  151.3724  137.9205  153.2360 H   0  0  0  0  0  0  0  0  0  0  0  0
  151.0055  137.3078  154.8631 H   0  0  0  0  0  0  0  0  0  0  0  0
  152.2157  138.5877  154.6481 H   0  0  0  0  0  0  0  0  0  0  0  0
  149.1756  142.0568  155.1546 H   0  0  0  0  0  0  0  0  0  0  0  0
  148.8230  137.4778  152.9234 H   0  0  0  0  0  0  0  0  0  0  0  0
  147.6303  135.9325  152.6960 H   0  0  0  0  0  0  0  0  0  0  0  0
  146.0325  134.7187  154.5622 H   0  0  0  0  0  0  0  0  0  0  0  0
  143.7579  135.3834  154.1518 H   0  0  0  0  0  0  0  0  0  0  0  0
  144.6462  136.8127  154.5997 H   0  0  0  0  0  0  0  0  0  0  0  0
  143.1307  137.2327  152.6558 H   0  0  0  0  0  0  0  0  0  0  0  0
  144.7988  137.5133  152.2242 H   0  0  0  0  0  0  0  0  0  0  0  0
  143.1631  135.0096  151.5915 H   0  0  0  0  0  0  0  0  0  0  0  0
  143.6975  136.2110  150.4415 H   0  0  0  0  0  0  0  0  0  0  0  0
  145.1484  134.1867  150.3928 H   0  0  0  0  0  0  0  0  0  0  0  0
  146.0606  135.6100  150.8242 H   0  0  0  0  0  0  0  0  0  0  0  0
  144.9482  133.5395  152.7572 H   0  0  0  0  0  0  0  0  0  0  0  0
  147.8468  134.0705  151.9839 H   0  0  0  0  0  0  0  0  0  0  0  0
  147.3217  132.8897  153.1651 H   0  0  0  0  0  0  0  0  0  0  0  0
  147.6569  132.0296  151.0698 H   0  0  0  0  0  0  0  0  0  0  0  0
  1  2  1  0  0  0  0
  1 19  1  0  0  0  0
  1 20  1  0  0  0  0
  1 21  1  0  0  0  0
  2  6  1  0  0  0  0
  2  3  1  0  0  0  0
  3  4  2  0  0  0  0
  4  5  1  0  0  0  0
  4 22  1  0  0  0  0
  5  6  2  0  0  0  0
  6  7  1  0  0  0  0
  7  8  1  0  0  0  0
  7 23  1  0  0  0  0
  8  9  2  0  0  0  0
  8 10  1  0  0  0  0
 10 11  1  0  0  0  0
 10 24  1  0  0  0  0
 11 16  1  0  0  0  0
 11 12  1  0  0  0  0
 11 25  1  0  0  0  0
 12 13  1  0  0  0  0
 12 26  1  0  0  0  0
 12 27  1  0  0  0  0
 13 14  1  0  0  0  0
 13 28  1  0  0  0  0
 13 29  1  0  0  0  0
 14 15  1  0  0  0  0
 14 30  1  0  0  0  0
 14 31  1  0  0  0  0
 15 16  1  0  0  0  0
 15 32  1  0  0  0  0
 15 33  1  0  0  0  0
 16 17  1  0  0  0  0
 16 34  1  0  0  0  0
 17 18  1  0  0  0  0
 17 35  1  0  0  0  0
 17 36  1  0  0  0  0
 18 37  1  0  0  0  0
M  END
> <s_m_source_file>
AV-unprocessed.smi

> <i_m_source_file_index>
2481

> <i_lp_mmshare_version>
43012

> <i_f3d_flags>
0

> <s_epik_input>
W0NIM11uMW5bY0hdbmMxW05IXUMoPU8pW05IXVtDQEBIXTJbQ0gyXVtDSDJdW0NIMl1bQ0gyXVtDQEhdMltDSDJdW09IXQ==

> <s_epik_cmdline>
J2VwaWtfcHl0aG9uJywgJy1waCcsICc3LjAnLCAnLXRuJywgJzgnLCAnLW1hJywgJzIwMCcsICctbWV0YWxfYmluZGluZycsICctaW1hZScsICc8aW5maWxlLm1hZT4nLCAnLW9tYWUnLCAnPG91dGZpbGUubWFlPic=

> <r_lp_tautomer_probability>
1

> <r_epik_Ionization_Penalty>
2.32704e-05

> <r_epik_Ionization_Penalty_Charging>
0

> <r_epik_Ionization_Penalty_Neutral>
2.32704e-05

> <r_epik_State_Penalty>
-0

> <r_epik_Charging_Adjusted_Penalty>
0

> <i_epik_Tot_Q>
0

> <i_epik_Tot_abs_Q>
0

> <r_epik_Metal_State_Penalty>
-0

> <b_epik_Metal_Only>
0

> <s_lp_Force_Field>
OPLS_2005

> <r_lp_Energy>
12.0368

> <b_lp_Chiralities_Consistent>
1

> <s_lp_Variant>
AV-unprocessed.smi:2481-2

> <Gold.Version>
5.8.1

> <Gold.Id.Protein>
6NUR|6NUR_protein|mol2

> <Gold.PLP.Fitness>
39.4162

> <Gold.PLP.PLP>
-27.1104

> <Gold.PLP.part.hbond>
-3.9466

> <Gold.PLP.part.metal>
0.0000

> <Gold.PLP.part.buried>
-2.7806

> <Gold.PLP.part.nonpolar>
-20.5149

> <Gold.PLP.part.repulsive>
0.2805

> <Gold.PLP.ligand.clash>
0.0000

> <Gold.PLP.ligand.torsion>
0.5654

> <Gold.PLP.Chemscore.Hbond>
3.7808

> <Gold.PLP.Chemscore.CHOScore>
0.6921

> <Gold.PLP.Chemscore.Metal>
0.0000

> <Gold.Chemscore.Hbonds>
donor molecule, donor type, donor heavy atom, donor atom, acceptor molecule, acceptor atom, score
      L1  H     7    23       P1  7948  1.00
      L1  H    10    24       P1  7948  1.00
      L1  H    18    37       P1 10747  1.00
      P1  H  7989  7998       L1     3  0.80
      L1  C     4    22       P1  8028  0.53

> <Gold.PLP.Chemscore.Internal.Correction>
0.0179

> <Gold.Rescore>
     Score         DG    S(hbond)    S(metal)    S(lipo)     H(rot)  DE(clash)    DE(int)     intcor
     12.83     -14.75       3.08        0.00      34.78       1.99       0.26       1.67       ----

> <Gold.Chemscore.Fitness>
12.8286

> <Gold.Chemscore.DG>
-14.7526

> <Gold.Chemscore.ZeroCoef>
-5.4800

> <Gold.Chemscore.Hbond>
3.0813

> <Gold.Chemscore.Metal>
0.0000

> <Gold.Chemscore.Lipo>
34.7823

> <Gold.Chemscore.Internal_Hbond>
0.0000

> <Gold.Chemscore.DEClash>
0.2581

> <Gold.Chemscore.DEInternal>
1.6658

> <Gold.Chemscore.Rot>
1.9877

> <Gold.Chemscore.Internal.Correction>
   9.000000E+99

> <Gold.Chemscore.Hbonds>
donor molecule, donor type, donor heavy atom, donor atom, acceptor molecule, acceptor atom, score
      L1  H     7    23       P1  7948  0.95
      L1  H    10    24       P1  7948  0.93
      L1  H    18    37       P1 10747  0.99
      P1  H  7989  7998       L1     3  0.11

> <Gold.Chemscore.Hbond.Weighted>
-10.2915

> <Gold.Chemscore.Metal.Weighted>
-0.0000

> <Gold.Chemscore.Lipo.Weighted>
-4.0695

> <Gold.Chemscore.Internal_Hbond.Weighted>
0.0000

> <Gold.Chemscore.DEClash.Weighted>
0.2581

> <Gold.Chemscore.DEInternal.Weighted>
1.6658

> <Gold.Chemscore.Rot.Weighted>
5.0885

> <Gold.Chemscore.Internal.Correction.Weighted>
   9.000000E+99

> <Gold.Protein.RotatedTorsions>
[ 6907 6896 6895 6894 ] final -170.81 input  -60.11 | X-H torsion
[ 7974 7965 7964 7962 ] final   54.57 input  175.53 | X-H torsion
[ 8008 7997 7996 7995 ] final   25.63 input   59.86 | X-H torsion
[ 10167 10162 10161 10158 ] final -129.26 input  -65.29 | X-H torsion
[ 10718 10713 10712 10709 ] final   10.97 input   66.30 | X-H torsion
[ 10763 10752 10751 10750 ] final -142.20 input  -60.55 | X-H torsion
[ 11005 11000 10999 10996 ] final  -12.56 input  -57.11 | X-H torsion

> <Gold.Protein.ActiveResidues>
 VAL166  LYS551  ARG553  GLY616  TRP617  ASP618  TYR619  PRO620  LYS621  CYS622 
 ASP623  PHE694  ASN695  SER759  ASP760  ASP761  ALA762  ILE779  LEU786  VAL792 
 PHE793  MET794  SER795  GLU796  ALA797  LYS798  CYS799  TRP800  GLU811  SER814 

> <Gold.Protein.RotatedAtoms>
  151.5137  133.3480  159.2889 H   0  0  0  0  0  0  0  0  0  0  0  0  # atno 6907 bound_to 6896
  150.8696  134.8069  159.7155 H   0  0  0  0  0  0  0  0  0  0  0  0  # atno 6908 bound_to 6896
  152.4689  134.5019  159.9779 H   0  0  0  0  0  0  0  0  0  0  0  0  # atno 6909 bound_to 6896
  145.9595  139.4045  143.0257 H   0  0  0  0  0  0  0  0  0  0  0  0  # atno 7974 bound_to 7965
  155.0147  140.3140  155.4816 H   0  0  0  0  0  0  0  0  0  0  0  0  # atno 8008 bound_to 7997
  156.2903  140.2208  156.5205 H   0  0  0  0  0  0  0  0  0  0  0  0  # atno 8009 bound_to 7997
  154.7504  140.0466  157.0876 H   0  0  0  0  0  0  0  0  0  0  0  0  # atno 8010 bound_to 7997
  139.9416  143.6156  152.2502 H   0  0  0  0  0  0  0  0  0  0  0  0  # atno 10167 bound_to 10162
  156.9887  130.6034  149.5684 H   0  0  0  0  0  0  0  0  0  0  0  0  # atno 10718 bound_to 10713
  154.8518  135.3503  154.5989 H   0  0  0  0  0  0  0  0  0  0  0  0  # atno 10763 bound_to 10752
  153.6598  135.6990  153.5186 H   0  0  0  0  0  0  0  0  0  0  0  0  # atno 10764 bound_to 10752
  153.2827  135.4259  155.1051 H   0  0  0  0  0  0  0  0  0  0  0  0  # atno 10765 bound_to 10752
  140.7670  133.8469  155.9173 H   0  0  0  0  0  0  0  0  0  0  0  0  # atno 11005 bound_to 11000
  145.8060  140.9748  143.0974 LP  0  0  0  0  0  0  0  0  0  0  0  0  # atno 17320 bound_to 7965
  144.6812  139.9861  143.7484 LP  0  0  0  0  0  0  0  0  0  0  0  0  # atno 17321 bound_to 7965
  139.6700  144.7661  151.1801 LP  0  0  0  0  0  0  0  0  0  0  0  0  # atno 17342 bound_to 10162
  140.7609  143.5880  150.8826 LP  0  0  0  0  0  0  0  0  0  0  0  0  # atno 17343 bound_to 10162
  156.0216  130.5310  150.8290 LP  0  0  0  0  0  0  0  0  0  0  0  0  # atno 17370 bound_to 10713
  157.5474  131.0943  150.9743 LP  0  0  0  0  0  0  0  0  0  0  0  0  # atno 17371 bound_to 10713
  140.9610  134.1656  157.4654 LP  0  0  0  0  0  0  0  0  0  0  0  0  # atno 17394 bound_to 11000
  139.8761  134.9944  156.5694 LP  0  0  0  0  0  0  0  0  0  0  0  0  # atno 17395 bound_to 11000

$$$$
