AV-unprocessed.smi:1741|AV-procd|sdf|7017|dock9
  -GOLD-   22720 8233D 1   1.00000     0.00000
 Structure written by MMmdl.
 38 39  0  0  0  0  0  0  0  0  1 V2000
  144.3534  133.5525  151.6021 C   0  0  0  0  0  0  0  0  0  0  0  0
  144.7073  134.6645  150.6080 C   0  0  0  0  0  0  0  0  0  0  0  0
  145.1132  135.8789  151.2877 N   0  0  0  0  0  0  0  0  0  0  0  0
  146.2913  136.5839  151.1419 C   0  0  0  0  0  0  0  0  0  0  0  0
  146.1980  137.6405  152.0027 C   0  0  0  0  0  0  0  0  0  0  0  0
  147.1281  138.6804  152.2550 N   0  0  0  0  0  0  0  0  0  0  0  0
  147.2162  139.4472  153.3540 C   0  0  0  0  0  0  0  0  0  0  0  0
  146.4770  139.3625  154.3349 O   0  0  0  0  0  0  0  0  0  0  0  0
  148.2194  140.3302  153.2479 N   0  0  0  0  0  0  0  0  0  0  0  0
  148.5818  141.3390  154.2410 C   0  0  1  0  0  0  0  0  0  0  0  0
  147.2999  142.0230  154.7413 C   0  0  0  0  0  0  0  0  0  0  0  0
  149.3789  140.6700  155.3782 C   0  0  2  0  0  0  0  0  0  0  0  0
  149.6217  141.5603  156.5978 C   0  0  0  0  0  0  0  0  0  0  0  0
  150.8526  140.9248  157.2012 C   0  0  0  0  0  0  0  0  0  0  0  0
  151.6483  140.5464  155.9562 C   0  0  0  0  0  0  0  0  0  0  0  0
  150.6867  140.3167  154.9296 O   0  0  0  0  0  0  0  0  0  0  0  0
  144.9352  137.5129  152.6371 C   0  0  0  0  0  0  0  0  0  0  0  0
  144.2860  136.4436  152.2018 N   0  0  0  0  0  0  0  0  0  0  0  0
  144.0556  132.6445  151.0776 H   0  0  0  0  0  0  0  0  0  0  0  0
  143.5274  133.8502  152.2486 H   0  0  0  0  0  0  0  0  0  0  0  0
  145.2047  133.3060  152.2373 H   0  0  0  0  0  0  0  0  0  0  0  0
  145.5203  134.3431  149.9557 H   0  0  0  0  0  0  0  0  0  0  0  0
  143.8542  134.8853  149.9648 H   0  0  0  0  0  0  0  0  0  0  0  0
  147.0654  136.2717  150.4564 H   0  0  0  0  0  0  0  0  0  0  0  0
  147.7928  138.8640  151.5176 H   0  0  0  0  0  0  0  0  0  0  0  0
  148.7656  140.3208  152.3991 H   0  0  0  0  0  0  0  0  0  0  0  0
  149.2120  142.1064  153.7879 H   0  0  0  0  0  0  0  0  0  0  0  0
  147.5253  142.8239  155.4455 H   0  0  0  0  0  0  0  0  0  0  0  0
  146.6402  141.3140  155.2428 H   0  0  0  0  0  0  0  0  0  0  0  0
  146.7451  142.4673  153.9143 H   0  0  0  0  0  0  0  0  0  0  0  0
  148.8816  139.7533  155.7005 H   0  0  0  0  0  0  0  0  0  0  0  0
  149.8430  142.5838  156.2916 H   0  0  0  0  0  0  0  0  0  0  0  0
  148.7749  141.5830  157.2844 H   0  0  0  0  0  0  0  0  0  0  0  0
  151.3978  141.5909  157.8703 H   0  0  0  0  0  0  0  0  0  0  0  0
  150.5755  140.0291  157.7586 H   0  0  0  0  0  0  0  0  0  0  0  0
  152.2906  141.3723  155.6481 H   0  0  0  0  0  0  0  0  0  0  0  0
  152.2768  139.6701  156.1164 H   0  0  0  0  0  0  0  0  0  0  0  0
  144.4787  138.1448  153.3845 H   0  0  0  0  0  0  0  0  0  0  0  0
  1  2  1  0  0  0  0
  1 19  1  0  0  0  0
  1 20  1  0  0  0  0
  1 21  1  0  0  0  0
  2  3  1  0  0  0  0
  2 22  1  0  0  0  0
  2 23  1  0  0  0  0
  3 18  1  0  0  0  0
  3  4  1  0  0  0  0
  4  5  2  0  0  0  0
  4 24  1  0  0  0  0
  5  6  1  0  0  0  0
  5 17  1  0  0  0  0
  6  7  1  0  0  0  0
  6 25  1  0  0  0  0
  7  8  2  0  0  0  0
  7  9  1  0  0  0  0
  9 10  1  0  0  0  0
  9 26  1  0  0  0  0
 10 11  1  0  0  0  0
 10 12  1  0  0  0  0
 10 27  1  0  0  0  0
 11 28  1  0  0  0  0
 11 29  1  0  0  0  0
 11 30  1  0  0  0  0
 12 16  1  0  0  0  0
 12 13  1  0  0  0  0
 12 31  1  0  0  0  0
 13 14  1  0  0  0  0
 13 32  1  0  0  0  0
 13 33  1  0  0  0  0
 14 15  1  0  0  0  0
 14 34  1  0  0  0  0
 14 35  1  0  0  0  0
 15 16  1  0  0  0  0
 15 36  1  0  0  0  0
 15 37  1  0  0  0  0
 17 18  2  0  0  0  0
 17 38  1  0  0  0  0
M  END
> <s_m_source_file>
AV-unprocessed.smi

> <i_m_source_file_index>
1741

> <i_lp_mmshare_version>
43012

> <i_f3d_flags>
0

> <s_epik_input>
W0NIM11bQ0gyXW4xW2NIXWMoW2NIXW4xKVtOSF1DKD1PKVtOSF1bQ0BIXShbQ0gzXSlbQ0BASF0yW0NIMl1bQ0gyXVtDSDJdTzI=

> <s_epik_cmdline>
J2VwaWtfcHl0aG9uJywgJy1waCcsICc3LjAnLCAnLXRuJywgJzgnLCAnLW1hJywgJzIwMCcsICctbWV0YWxfYmluZGluZycsICctaW1hZScsICc8aW5maWxlLm1hZT4nLCAnLW9tYWUnLCAnPG91dGZpbGUubWFlPic=

> <r_lp_tautomer_probability>
1

> <r_epik_Ionization_Penalty>
0.000179292

> <r_epik_Ionization_Penalty_Charging>
0

> <r_epik_Ionization_Penalty_Neutral>
0.000179292

> <r_epik_State_Penalty>
-0

> <r_epik_Charging_Adjusted_Penalty>
0

> <i_epik_Tot_Q>
0

> <i_epik_Tot_abs_Q>
0

> <r_epik_Metal_State_Penalty>
-0

> <b_epik_Metal_Only>
0

> <s_lp_Force_Field>
OPLS_2005

> <r_lp_Energy>
22.1754

> <b_lp_Chiralities_Consistent>
1

> <s_lp_Variant>
AV-unprocessed.smi:1741-2

> <Gold.Version>
5.8.1

> <Gold.Id.Protein>
6NUR|6NUR_protein|mol2

> <Gold.PLP.Fitness>
41.7803

> <Gold.PLP.PLP>
-31.5306

> <Gold.PLP.part.hbond>
-3.8116

> <Gold.PLP.part.metal>
0.0000

> <Gold.PLP.part.buried>
0.3852

> <Gold.PLP.part.nonpolar>
-28.8345

> <Gold.PLP.part.repulsive>
0.5536

> <Gold.PLP.ligand.clash>
0.0000

> <Gold.PLP.ligand.torsion>
0.4818

> <Gold.PLP.Chemscore.Hbond>
2.5591

> <Gold.PLP.Chemscore.CHOScore>
1.1728

> <Gold.PLP.Chemscore.Metal>
0.0000

> <Gold.Chemscore.Hbonds>
donor molecule, donor type, donor heavy atom, donor atom, acceptor molecule, acceptor atom, score
      L1  H     6    25       P1  7957  0.59
      L1  H     9    26       P1  7957  0.98
      P1  H  7989  7998       L1    16  1.00
      L1  C     4    24       P1  7948  0.47
      L1  C    17    38       P1 10175  0.55

> <Gold.PLP.Chemscore.Internal.Correction>
0.0177

> <Gold.Rescore>
     Score         DG    S(hbond)    S(metal)    S(lipo)     H(rot)  DE(clash)    DE(int)     intcor
     13.74     -18.60       2.69        0.00      65.66       1.38       1.63       3.24       ----

> <Gold.Chemscore.Fitness>
13.7372

> <Gold.Chemscore.DG>
-18.6004

> <Gold.Chemscore.ZeroCoef>
-5.4800

> <Gold.Chemscore.Hbond>
2.6853

> <Gold.Chemscore.Metal>
0.0000

> <Gold.Chemscore.Lipo>
65.6564

> <Gold.Chemscore.Internal_Hbond>
0.0000

> <Gold.Chemscore.DEClash>
1.6256

> <Gold.Chemscore.DEInternal>
3.2376

> <Gold.Chemscore.Rot>
1.3790

> <Gold.Chemscore.Internal.Correction>
   9.000000E+99

> <Gold.Chemscore.Hbonds>
donor molecule, donor type, donor heavy atom, donor atom, acceptor molecule, acceptor atom, score
      L1  H     6    25       P1  7957  0.45
      L1  H     9    26       P1  7957  0.91
      P1  H  7989  7998       L1    16  0.25

> <Gold.Chemscore.Hbond.Weighted>
-8.9687

> <Gold.Chemscore.Metal.Weighted>
-0.0000

> <Gold.Chemscore.Lipo.Weighted>
-7.6818

> <Gold.Chemscore.Internal_Hbond.Weighted>
0.0000

> <Gold.Chemscore.DEClash.Weighted>
1.6256

> <Gold.Chemscore.DEInternal.Weighted>
3.2376

> <Gold.Chemscore.Rot.Weighted>
3.5302

> <Gold.Chemscore.Internal.Correction.Weighted>
   9.000000E+99

> <Gold.Protein.RotatedTorsions>
[ 6907 6896 6895 6894 ] final  113.31 input  -60.11 | X-H torsion
[ 7974 7965 7964 7962 ] final  -54.32 input  175.53 | X-H torsion
[ 8008 7997 7996 7995 ] final   52.46 input   59.86 | X-H torsion
[ 10167 10162 10161 10158 ] final  -49.97 input  -65.29 | X-H torsion
[ 10718 10713 10712 10709 ] final -139.47 input   66.30 | X-H torsion
[ 10763 10752 10751 10750 ] final  -85.54 input  -60.55 | X-H torsion
[ 11005 11000 10999 10996 ] final   82.57 input  -57.11 | X-H torsion

> <Gold.Protein.ActiveResidues>
 VAL166  LYS551  ARG553  GLY616  TRP617  ASP618  TYR619  PRO620  LYS621  CYS622 
 ASP623  PHE694  ASN695  SER759  ASP760  ASP761  ALA762  ILE779  LEU786  VAL792 
 PHE793  MET794  SER795  GLU796  ALA797  LYS798  CYS799  TRP800  GLU811  SER814 

> <Gold.Protein.RotatedAtoms>
  152.4868  133.8394  159.7144 H   0  0  0  0  0  0  0  0  0  0  0  0  # atno 6907 bound_to 6896
  150.8961  133.7169  159.2898 H   0  0  0  0  0  0  0  0  0  0  0  0  # atno 6908 bound_to 6896
  151.4626  135.1043  159.9781 H   0  0  0  0  0  0  0  0  0  0  0  0  # atno 6909 bound_to 6896
  145.8869  140.8101  142.9811 H   0  0  0  0  0  0  0  0  0  0  0  0  # atno 7974 bound_to 7965
  155.4521  140.3458  155.4302 H   0  0  0  0  0  0  0  0  0  0  0  0  # atno 8008 bound_to 7997
  156.1214  140.1488  156.9229 H   0  0  0  0  0  0  0  0  0  0  0  0  # atno 8009 bound_to 7997
  154.4826  140.0865  156.7392 H   0  0  0  0  0  0  0  0  0  0  0  0  # atno 8010 bound_to 7997
  140.6660  143.2676  151.4292 H   0  0  0  0  0  0  0  0  0  0  0  0  # atno 10167 bound_to 10162
  156.3112  130.7482  151.1558 H   0  0  0  0  0  0  0  0  0  0  0  0  # atno 10718 bound_to 10713
  154.6122  135.5481  153.7485 H   0  0  0  0  0  0  0  0  0  0  0  0  # atno 10763 bound_to 10752
  153.0200  135.6392  154.1561 H   0  0  0  0  0  0  0  0  0  0  0  0  # atno 10764 bound_to 10752
  154.1499  135.2903  155.3118 H   0  0  0  0  0  0  0  0  0  0  0  0  # atno 10765 bound_to 10752
  139.9059  134.8081  156.2192 H   0  0  0  0  0  0  0  0  0  0  0  0  # atno 11005 bound_to 11000
  144.6729  140.1469  143.7433 LP  0  0  0  0  0  0  0  0  0  0  0  0  # atno 17320 bound_to 7965
  145.8956  139.2401  143.1524 LP  0  0  0  0  0  0  0  0  0  0  0  0  # atno 17321 bound_to 7965
  139.5909  144.1501  152.2087 LP  0  0  0  0  0  0  0  0  0  0  0  0  # atno 17342 bound_to 10162
  140.0856  144.5664  150.7091 LP  0  0  0  0  0  0  0  0  0  0  0  0  # atno 17343 bound_to 10162
  157.7391  131.0533  150.5252 LP  0  0  0  0  0  0  0  0  0  0  0  0  # atno 17370 bound_to 10713
  156.5392  130.4204  149.6162 LP  0  0  0  0  0  0  0  0  0  0  0  0  # atno 17371 bound_to 10713
  141.0416  133.6934  156.1609 LP  0  0  0  0  0  0  0  0  0  0  0  0  # atno 17394 bound_to 11000
  140.6946  134.4629  157.5588 LP  0  0  0  0  0  0  0  0  0  0  0  0  # atno 17395 bound_to 11000

$$$$
