AV-unprocessed.smi:160|AV-procd|sdf|1358|dock8
  -GOLD-   2262019 63D 1   1.00000     0.00000
 Structure written by MMmdl.
 29 30  0  0  0  0  0  0  0  0  1 V2000
  154.8644  138.0202  158.9182 N   0  0  0  0  0  0  0  0  0  0  0  0
  153.6426  137.4919  159.0444 C   0  0  0  0  0  0  0  0  0  0  0  0
  153.4253  136.4908  159.7251 O   0  0  0  0  0  0  0  0  0  0  0  0
  152.5372  138.1897  158.3013 C   0  0  0  0  0  0  0  0  0  0  0  0
  151.2400  137.7768  158.4148 N   0  0  0  0  0  0  0  0  0  0  0  0
  150.6665  138.6685  157.6168 C   0  0  0  0  0  0  0  0  0  0  0  0
  151.5205  139.5329  157.0597 N   0  0  0  0  0  0  0  0  0  0  0  0
  151.2598  140.6868  156.1472 C   0  0  1  0  0  0  0  0  0  0  0  0
  150.6700  140.1721  154.9898 O   0  0  0  0  0  0  0  0  0  0  0  0
  149.4320  140.8244  154.7165 C   0  0  1  0  0  0  0  0  0  0  0  0
  148.4684  139.8370  154.0400 C   0  0  0  0  0  0  0  0  0  0  0  0
  149.1945  138.8748  153.3058 O   0  0  0  0  0  0  0  0  0  0  0  0
  148.9622  141.2862  156.0969 C   0  0  2  0  0  0  0  0  0  0  0  0
  148.0294  142.3499  156.0472 O   0  0  0  0  0  0  0  0  0  0  0  0
  150.2674  141.6730  156.7812 C   0  0  2  0  0  0  0  0  0  0  0  0
  150.6494  143.0099  156.5139 O   0  0  0  0  0  0  0  0  0  0  0  0
  152.7659  139.2398  157.5107 N   0  0  0  0  0  0  0  0  0  0  0  0
  152.2457  141.1105  155.9494 H   0  0  0  0  0  0  0  0  0  0  0  0
  149.6206  141.6951  154.0853 H   0  0  0  0  0  0  0  0  0  0  0  0
  148.5096  140.4486  156.6293 H   0  0  0  0  0  0  0  0  0  0  0  0
  150.2174  141.5447  157.8636 H   0  0  0  0  0  0  0  0  0  0  0  0
  155.6472  137.5977  159.3955 H   0  0  0  0  0  0  0  0  0  0  0  0
  154.9950  138.8421  158.3466 H   0  0  0  0  0  0  0  0  0  0  0  0
  149.6018  138.6928  157.4362 H   0  0  0  0  0  0  0  0  0  0  0  0
  147.8223  139.3504  154.7715 H   0  0  0  0  0  0  0  0  0  0  0  0
  147.8224  140.3635  153.3368 H   0  0  0  0  0  0  0  0  0  0  0  0
  149.2150  139.1403  152.3990 H   0  0  0  0  0  0  0  0  0  0  0  0
  148.5040  143.1623  155.9600 H   0  0  0  0  0  0  0  0  0  0  0  0
  149.8681  143.5097  156.3314 H   0  0  0  0  0  0  0  0  0  0  0  0
  1  2  1  0  0  0  0
  1 22  1  0  0  0  0
  1 23  1  0  0  0  0
  2  3  2  0  0  0  0
  2  4  1  0  0  0  0
  4 17  2  0  0  0  0
  4  5  1  0  0  0  0
  5  6  2  0  0  0  0
  6  7  1  0  0  0  0
  6 24  1  0  0  0  0
  7  8  1  0  0  0  0
  7 17  1  0  0  0  0
  8 18  1  0  0  0  0
  8 15  1  0  0  0  0
  8  9  1  0  0  0  0
  9 10  1  0  0  0  0
 10 19  1  0  0  0  0
 10 11  1  0  0  0  0
 10 13  1  0  0  0  0
 11 12  1  0  0  0  0
 11 25  1  0  0  0  0
 11 26  1  0  0  0  0
 12 27  1  0  0  0  0
 13 20  1  0  0  0  0
 13 14  1  0  0  0  0
 13 15  1  0  0  0  0
 14 28  1  0  0  0  0
 15 21  1  0  0  0  0
 15 16  1  0  0  0  0
 16 29  1  0  0  0  0
M  END
> <s_m_source_file>
AV-unprocessed.smi

> <i_m_source_file_index>
160

> <i_lp_mmshare_version>
43012

> <i_f3d_flags>
0

> <s_epik_input>
W05IMl1DKD1PKWMxbltjSF1uKG4xKVtDQEBIXTJPW0NASF0oW0NIMl1bT0hdKVtDQEBIXShbT0hdKVtDQEhdMltPSF0=

> <s_epik_cmdline>
J2VwaWtfcHl0aG9uJywgJy1waCcsICc3LjAnLCAnLXRuJywgJzgnLCAnLW1hJywgJzIwMCcsICctbWV0YWxfYmluZGluZycsICctaW1hZScsICc8aW5maWxlLm1hZT4nLCAnLW9tYWUnLCAnPG91dGZpbGUubWFlPic=

> <r_lp_tautomer_probability>
1

> <r_epik_Ionization_Penalty>
1.06932e-05

> <r_epik_Ionization_Penalty_Charging>
0

> <r_epik_Ionization_Penalty_Neutral>
1.06932e-05

> <r_epik_State_Penalty>
-0

> <r_epik_Charging_Adjusted_Penalty>
0

> <i_epik_Tot_Q>
0

> <i_epik_Tot_abs_Q>
0

> <r_epik_Metal_State_Penalty>
0.0142097

> <b_epik_Metal_Only>
0

> <s_epik_Chemistry_Notes>
This compound contains an acetal/aminal-like group ( X-CH(R)-Y where X, Y are N, S, or O) that may be acid/base labile, releasing an aldehyde.

> <s_lp_Force_Field>
OPLS_2005

> <r_lp_Energy>
39.0504

> <b_lp_Chiralities_Consistent>
1

> <s_lp_Variant>
AV-unprocessed.smi:160-16

> <Gold.Version>
5.8.1

> <Gold.Id.Protein>
6NUR|6NUR_protein|mol2

> <Gold.PLP.Fitness>
40.6866

> <Gold.PLP.PLP>
-23.8794

> <Gold.PLP.part.hbond>
-6.7879

> <Gold.PLP.part.metal>
0.0000

> <Gold.PLP.part.buried>
-4.3005

> <Gold.PLP.part.nonpolar>
-13.4384

> <Gold.PLP.part.repulsive>
0.1378

> <Gold.PLP.ligand.clash>
0.0000

> <Gold.PLP.ligand.torsion>
0.4582

> <Gold.PLP.Chemscore.Hbond>
5.9000

> <Gold.PLP.Chemscore.CHOScore>
0.0000

> <Gold.PLP.Chemscore.Metal>
0.0000

> <Gold.Chemscore.Hbonds>
donor molecule, donor type, donor heavy atom, donor atom, acceptor molecule, acceptor atom, score
      L1  H    12    27       P1  7957  1.00
      L1  H    14    28       P1  8028  1.00
      L1  H    16    29       P1  8028  1.00
      P1  H  6896  6908       L1     3  1.00
      P1  H  7989  7998       L1     9  0.85
      P1  H  7997  8010       L1    17  1.00

> <Gold.PLP.Chemscore.Internal.Correction>
0.0236

> <Gold.Rescore>
     Score         DG    S(hbond)    S(metal)    S(lipo)     H(rot)  DE(clash)    DE(int)     intcor
     14.38     -14.98       5.10        0.00      24.57       4.06       0.01       0.59       ----

> <Gold.Chemscore.Fitness>
14.3822

> <Gold.Chemscore.DG>
-14.9807

> <Gold.Chemscore.ZeroCoef>
-5.4800

> <Gold.Chemscore.Hbond>
5.0956

> <Gold.Chemscore.Metal>
0.0000

> <Gold.Chemscore.Lipo>
24.5725

> <Gold.Chemscore.Internal_Hbond>
0.0000

> <Gold.Chemscore.DEClash>
0.0073

> <Gold.Chemscore.DEInternal>
0.5912

> <Gold.Chemscore.Rot>
4.0600

> <Gold.Chemscore.Internal.Correction>
   9.000000E+99

> <Gold.Chemscore.Hbonds>
donor molecule, donor type, donor heavy atom, donor atom, acceptor molecule, acceptor atom, score
      L1  H    12    27       P1  7957  0.95
      L1  H    14    28       P1  8028  0.96
      L1  H    16    29       P1  8028  0.99
      P1  H  6896  6908       L1     3  0.97
      P1  H  7989  7998       L1     9  0.09
      P1  H  7997  8010       L1    17  0.94

> <Gold.Chemscore.Hbond.Weighted>
-17.0193

> <Gold.Chemscore.Metal.Weighted>
-0.0000

> <Gold.Chemscore.Lipo.Weighted>
-2.8750

> <Gold.Chemscore.Internal_Hbond.Weighted>
0.0000

> <Gold.Chemscore.DEClash.Weighted>
0.0073

> <Gold.Chemscore.DEInternal.Weighted>
0.5912

> <Gold.Chemscore.Rot.Weighted>
10.3936

> <Gold.Chemscore.Internal.Correction.Weighted>
   9.000000E+99

> <Gold.Protein.RotatedTorsions>
[ 6907 6896 6895 6894 ] final  -80.36 input  -60.11 | X-H torsion
[ 7974 7965 7964 7962 ] final   95.46 input  175.53 | X-H torsion
[ 8008 7997 7996 7995 ] final   58.38 input   59.86 | X-H torsion
[ 10167 10162 10161 10158 ] final  171.83 input  -65.29 | X-H torsion
[ 10718 10713 10712 10709 ] final  145.88 input   66.30 | X-H torsion
[ 10763 10752 10751 10750 ] final  175.76 input  -60.55 | X-H torsion
[ 11005 11000 10999 10996 ] final   30.27 input  -57.11 | X-H torsion

> <Gold.Protein.ActiveResidues>
 VAL166  LYS551  ARG553  GLY616  TRP617  ASP618  TYR619  PRO620  LYS621  CYS622 
 ASP623  PHE694  ASN695  SER759  ASP760  ASP761  ALA762  ILE779  LEU786  VAL792 
 PHE793  MET794  SER795  GLU796  ALA797  LYS798  CYS799  TRP800  GLU811  SER814 

> <Gold.Protein.RotatedAtoms>
  150.6931  134.3982  159.5106 H   0  0  0  0  0  0  0  0  0  0  0  0  # atno 6907 bound_to 6896
  152.1759  134.8792  160.0539 H   0  0  0  0  0  0  0  0  0  0  0  0  # atno 6908 bound_to 6896
  151.9800  133.3720  159.4141 H   0  0  0  0  0  0  0  0  0  0  0  0  # atno 6909 bound_to 6896
  145.4520  139.2292  143.3035 H   0  0  0  0  0  0  0  0  0  0  0  0  # atno 7974 bound_to 7965
  155.5490  140.3486  155.4464 H   0  0  0  0  0  0  0  0  0  0  0  0  # atno 8008 bound_to 7997
  156.0597  140.1337  156.9982 H   0  0  0  0  0  0  0  0  0  0  0  0  # atno 8009 bound_to 7997
  154.4473  140.0988  156.6483 H   0  0  0  0  0  0  0  0  0  0  0  0  # atno 8010 bound_to 7997
  139.5058  144.3442  151.9988 H   0  0  0  0  0  0  0  0  0  0  0  0  # atno 10167 bound_to 10162
  157.3399  131.0934  151.1091 H   0  0  0  0  0  0  0  0  0  0  0  0  # atno 10718 bound_to 10713
  154.4719  135.2771  155.1636 H   0  0  0  0  0  0  0  0  0  0  0  0  # atno 10763 bound_to 10752
  154.3381  135.6176  153.5587 H   0  0  0  0  0  0  0  0  0  0  0  0  # atno 10764 bound_to 10752
  152.9865  135.5782  154.5102 H   0  0  0  0  0  0  0  0  0  0  0  0  # atno 10765 bound_to 10752
  140.2961  134.2809  155.7764 H   0  0  0  0  0  0  0  0  0  0  0  0  # atno 11005 bound_to 11000
  146.2499  140.5279  142.8898 LP  0  0  0  0  0  0  0  0  0  0  0  0  # atno 17320 bound_to 7965
  144.8056  140.6293  143.6449 LP  0  0  0  0  0  0  0  0  0  0  0  0  # atno 17321 bound_to 7965
  140.2879  144.3786  150.6098 LP  0  0  0  0  0  0  0  0  0  0  0  0  # atno 17342 bound_to 10162
  140.5968  143.2167  151.7148 LP  0  0  0  0  0  0  0  0  0  0  0  0  # atno 17343 bound_to 10162
  157.2307  130.6524  149.5848 LP  0  0  0  0  0  0  0  0  0  0  0  0  # atno 17370 bound_to 10713
  155.9706  130.4599  150.6055 LP  0  0  0  0  0  0  0  0  0  0  0  0  # atno 17371 bound_to 10713
  141.2137  133.7616  156.9698 LP  0  0  0  0  0  0  0  0  0  0  0  0  # atno 17394 bound_to 11000
  140.1151  134.9452  157.2122 LP  0  0  0  0  0  0  0  0  0  0  0  0  # atno 17395 bound_to 11000

$$$$
