AV-unprocessed.smi:1842|AV-procd|sdf|7498|dock6
  -GOLD-   22720 9203D 1   1.00000     0.00000
 Structure written by MMmdl.
 39 40  0  0  0  0  0  0  0  0  2 V2000
  150.7392  140.5015  155.0557 O   0  0  0  0  0  0  0  0  0  0  0  0
  149.9766  141.2714  155.6391 C   0  0  0  0  0  0  0  0  0  0  0  0
  150.4318  141.9921  156.9116 C   0  0  0  0  0  0  0  0  0  0  0  0
  151.7471  141.4388  157.4977 C   0  0  0  0  0  0  0  0  0  0  0  0
  152.4363  142.3625  158.5240 C   0  0  0  0  0  0  0  0  0  0  0  0
  152.1821  141.9553  159.9780 C   0  0  0  0  0  0  0  0  0  0  0  0
  152.4721  143.2117  160.8088 C   0  0  0  0  0  0  0  0  0  0  0  0
  152.3926  144.4002  159.8384 C   0  0  0  0  0  0  0  0  0  0  0  0
  151.9660  143.8190  158.4872 C   0  0  0  0  0  0  0  0  0  0  0  0
  148.7264  141.5258  155.2237 N   0  0  0  0  0  0  0  0  0  0  0  0
  148.1022  140.9583  154.0322 C   0  0  0  0  0  0  0  0  0  0  0  0
  148.2385  139.4251  153.9598 C   0  0  0  0  0  0  0  0  0  0  0  0
  147.1083  138.7904  153.2753 N   0  0  0  0  0  0  0  0  0  0  0  0
  146.2085  137.9015  153.8048 C   0  0  0  0  0  0  0  0  0  0  0  0
  145.3364  137.5814  152.7960 C   0  0  0  0  0  0  0  0  0  0  0  0
  145.7401  138.2884  151.6950 N   0  3  0  0  0  0  0  0  0  0  0  0
  146.8167  139.0248  151.9890 C   0  0  0  0  0  0  0  0  0  0  0  0
  150.5313  143.0615  156.7204 H   0  0  0  0  0  0  0  0  0  0  0  0
  149.6381  141.8909  157.6522 H   0  0  0  0  0  0  0  0  0  0  0  0
  151.5400  140.4746  157.9632 H   0  0  0  0  0  0  0  0  0  0  0  0
  152.4434  141.2266  156.6852 H   0  0  0  0  0  0  0  0  0  0  0  0
  153.5154  142.3472  158.3624 H   0  0  0  0  0  0  0  0  0  0  0  0
  151.1365  141.6723  160.1079 H   0  0  0  0  0  0  0  0  0  0  0  0
  152.7919  141.1047  160.2844 H   0  0  0  0  0  0  0  0  0  0  0  0
  151.7602  143.3119  161.6289 H   0  0  0  0  0  0  0  0  0  0  0  0
  153.4692  143.1570  161.2479 H   0  0  0  0  0  0  0  0  0  0  0  0
  151.7000  145.1685  160.1835 H   0  0  0  0  0  0  0  0  0  0  0  0
  153.3759  144.8640  159.7481 H   0  0  0  0  0  0  0  0  0  0  0  0
  152.3860  144.3751  157.6484 H   0  0  0  0  0  0  0  0  0  0  0  0
  150.8792  143.8574  158.4003 H   0  0  0  0  0  0  0  0  0  0  0  0
  148.1738  142.1780  155.7616 H   0  0  0  0  0  0  0  0  0  0  0  0
  147.0486  141.2392  154.0315 H   0  0  0  0  0  0  0  0  0  0  0  0
  148.5403  141.4131  153.1424 H   0  0  0  0  0  0  0  0  0  0  0  0
  149.1431  139.1576  153.4126 H   0  0  0  0  0  0  0  0  0  0  0  0
  148.3349  138.9875  154.9544 H   0  0  0  0  0  0  0  0  0  0  0  0
  146.2548  137.5713  154.8325 H   0  0  0  0  0  0  0  0  0  0  0  0
  144.4813  136.9212  152.7799 H   0  0  0  0  0  0  0  0  0  0  0  0
  147.3482  139.6768  151.3185 H   0  0  0  0  0  0  0  0  0  0  0  0
  145.2901  138.2612  150.7886 H   0  0  0  0  0  0  0  0  0  0  0  0
  1  2  2  0  0  0  0
  2  3  1  0  0  0  0
  2 10  1  0  0  0  0
  3  4  1  0  0  0  0
  3 18  1  0  0  0  0
  3 19  1  0  0  0  0
  4  5  1  0  0  0  0
  4 20  1  0  0  0  0
  4 21  1  0  0  0  0
  5  9  1  0  0  0  0
  5  6  1  0  0  0  0
  5 22  1  0  0  0  0
  6  7  1  0  0  0  0
  6 23  1  0  0  0  0
  6 24  1  0  0  0  0
  7  8  1  0  0  0  0
  7 25  1  0  0  0  0
  7 26  1  0  0  0  0
  8  9  1  0  0  0  0
  8 27  1  0  0  0  0
  8 28  1  0  0  0  0
  9 29  1  0  0  0  0
  9 30  1  0  0  0  0
 10 11  1  0  0  0  0
 10 31  1  0  0  0  0
 11 12  1  0  0  0  0
 11 32  1  0  0  0  0
 11 33  1  0  0  0  0
 12 13  1  0  0  0  0
 12 34  1  0  0  0  0
 12 35  1  0  0  0  0
 13 17  1  0  0  0  0
 13 14  1  0  0  0  0
 14 15  2  0  0  0  0
 14 36  1  0  0  0  0
 15 16  1  0  0  0  0
 15 37  1  0  0  0  0
 16 17  2  0  0  0  0
 16 39  1  0  0  0  0
 17 38  1  0  0  0  0
M  CHG  1  16   1
M  END
> <s_m_source_file>
AV-unprocessed.smi

> <i_m_source_file_index>
1842

> <i_lp_mmshare_version>
43012

> <i_f3d_flags>
0

> <s_epik_input>
W0NIMl0xW0NIMl1bQ0gyXVtDSDJdW0NIXTFbQ0gyXVtDSDJdQyg9TylbTkhdW0NIMl1bQ0gyXW4yW2NIXVtjSF1uW2NIXTI=

> <s_epik_cmdline>
J2VwaWtfcHl0aG9uJywgJy1waCcsICc3LjAnLCAnLXRuJywgJzgnLCAnLW1hJywgJzIwMCcsICctbWV0YWxfYmluZGluZycsICctaW1hZScsICc8aW5maWxlLm1hZT4nLCAnLW9tYWUnLCAnPG91dGZpbGUubWFlPic=

> <r_lp_tautomer_probability>
1

> <r_epik_Ionization_Penalty>
0.269886

> <r_epik_Ionization_Penalty_Charging>
0

> <r_epik_Ionization_Penalty_Neutral>
0.269886

> <r_epik_State_Penalty>
0.261983

> <r_epik_Charging_Adjusted_Penalty>
0.261983

> <i_epik_Tot_Q>
1

> <i_epik_Tot_abs_Q>
1

> <r_epik_Metal_State_Penalty>
0.546964

> <b_epik_Metal_Only>
0

> <s_lp_Force_Field>
OPLS_2005

> <r_lp_Energy>
23.3455

> <b_lp_Chiralities_Consistent>
1

> <s_lp_Variant>
AV-unprocessed.smi:1842-1

> <Gold.Version>
5.8.1

> <Gold.Id.Protein>
6NUR|6NUR_protein|mol2

> <Gold.PLP.Fitness>
45.3572

> <Gold.PLP.PLP>
-38.3728

> <Gold.PLP.part.hbond>
-3.2822

> <Gold.PLP.part.metal>
0.0000

> <Gold.PLP.part.buried>
-4.4748

> <Gold.PLP.part.nonpolar>
-31.3790

> <Gold.PLP.part.repulsive>
0.2436

> <Gold.PLP.ligand.clash>
0.0000

> <Gold.PLP.ligand.torsion>
1.0261

> <Gold.PLP.Chemscore.Hbond>
2.0000

> <Gold.PLP.Chemscore.CHOScore>
0.9980

> <Gold.PLP.Chemscore.Metal>
0.0000

> <Gold.Chemscore.Hbonds>
donor molecule, donor type, donor heavy atom, donor atom, acceptor molecule, acceptor atom, score
      L1  H    16    39       P1 10171  0.98
      P1  H  7989  7998       L1     1  1.00
      L1  C    17    38       P1  7957  1.00

> <Gold.PLP.Chemscore.Internal.Correction>
0.0426

> <Gold.Rescore>
     Score         DG    S(hbond)    S(metal)    S(lipo)     H(rot)  DE(clash)    DE(int)     intcor
     14.50     -16.89       1.95        0.00      91.09       2.25       0.15       2.23       ----

> <Gold.Chemscore.Fitness>
14.4987

> <Gold.Chemscore.DG>
-16.8877

> <Gold.Chemscore.ZeroCoef>
-5.4800

> <Gold.Chemscore.Hbond>
1.9481

> <Gold.Chemscore.Metal>
0.0000

> <Gold.Chemscore.Lipo>
91.0864

> <Gold.Chemscore.Internal_Hbond>
0.0000

> <Gold.Chemscore.DEClash>
0.1544

> <Gold.Chemscore.DEInternal>
2.2346

> <Gold.Chemscore.Rot>
2.2485

> <Gold.Chemscore.Internal.Correction>
   9.000000E+99

> <Gold.Chemscore.Hbonds>
donor molecule, donor type, donor heavy atom, donor atom, acceptor molecule, acceptor atom, score
      L1  H    16    39       P1 10171  0.93
      P1  H  7989  7998       L1     1  0.95

> <Gold.Chemscore.Hbond.Weighted>
-6.5068

> <Gold.Chemscore.Metal.Weighted>
-0.0000

> <Gold.Chemscore.Lipo.Weighted>
-10.6571

> <Gold.Chemscore.Internal_Hbond.Weighted>
0.0000

> <Gold.Chemscore.DEClash.Weighted>
0.1544

> <Gold.Chemscore.DEInternal.Weighted>
2.2346

> <Gold.Chemscore.Rot.Weighted>
5.7562

> <Gold.Chemscore.Internal.Correction.Weighted>
   9.000000E+99

> <Gold.Protein.RotatedTorsions>
[ 6907 6896 6895 6894 ] final -117.02 input  -60.11 | X-H torsion
[ 7974 7965 7964 7962 ] final    1.74 input  175.53 | X-H torsion
[ 8008 7997 7996 7995 ] final  -87.66 input   59.86 | X-H torsion
[ 10167 10162 10161 10158 ] final   -4.55 input  -65.29 | X-H torsion
[ 10718 10713 10712 10709 ] final  156.08 input   66.30 | X-H torsion
[ 10763 10752 10751 10750 ] final -131.13 input  -60.55 | X-H torsion
[ 11005 11000 10999 10996 ] final -152.36 input  -57.11 | X-H torsion

> <Gold.Protein.ActiveResidues>
 VAL166  LYS551  ARG553  GLY616  TRP617  ASP618  TYR619  PRO620  LYS621  CYS622 
 ASP623  PHE694  ASN695  SER759  ASP760  ASP761  ALA762  ILE779  LEU786  VAL792 
 PHE793  MET794  SER795  GLU796  ALA797  LYS798  CYS799  TRP800  GLU811  SER814 

> <Gold.Protein.RotatedAtoms>
  150.8103  133.8434  159.3185 H   0  0  0  0  0  0  0  0  0  0  0  0  # atno 6907 bound_to 6896
  151.6222  135.1029  160.0113 H   0  0  0  0  0  0  0  0  0  0  0  0  # atno 6908 bound_to 6896
  152.4195  133.7052  159.6504 H   0  0  0  0  0  0  0  0  0  0  0  0  # atno 6909 bound_to 6896
  146.2441  140.0941  142.8350 H   0  0  0  0  0  0  0  0  0  0  0  0  # atno 7974 bound_to 7965
  154.6658  140.0563  157.0112 H   0  0  0  0  0  0  0  0  0  0  0  0  # atno 8008 bound_to 7997
  155.1161  140.3243  155.4490 H   0  0  0  0  0  0  0  0  0  0  0  0  # atno 8009 bound_to 7997
  156.2637  140.2006  156.6284 H   0  0  0  0  0  0  0  0  0  0  0  0  # atno 8010 bound_to 7997
  140.6931  143.6410  150.8435 H   0  0  0  0  0  0  0  0  0  0  0  0  # atno 10167 bound_to 10162
  157.2097  131.0695  151.1976 H   0  0  0  0  0  0  0  0  0  0  0  0  # atno 10718 bound_to 10713
  154.8752  135.3840  154.4196 H   0  0  0  0  0  0  0  0  0  0  0  0  # atno 10763 bound_to 10752
  153.4901  135.7030  153.5894 H   0  0  0  0  0  0  0  0  0  0  0  0  # atno 10764 bound_to 10752
  153.4271  135.3887  155.2115 H   0  0  0  0  0  0  0  0  0  0  0  0  # atno 10765 bound_to 10752
  140.7197  134.3741  157.5185 H   0  0  0  0  0  0  0  0  0  0  0  0  # atno 11005 bound_to 11000
  145.0625  140.9098  143.4930 LP  0  0  0  0  0  0  0  0  0  0  0  0  # atno 17320 bound_to 7965
  145.1059  139.2790  143.5662 LP  0  0  0  0  0  0  0  0  0  0  0  0  # atno 17321 bound_to 7965
  140.0126  143.5627  152.2833 LP  0  0  0  0  0  0  0  0  0  0  0  0  # atno 17342 bound_to 10162
  139.6356  144.7649  151.2445 LP  0  0  0  0  0  0  0  0  0  0  0  0  # atno 17343 bound_to 10162
  157.3684  130.7168  149.6548 LP  0  0  0  0  0  0  0  0  0  0  0  0  # atno 17370 bound_to 10713
  155.9692  130.4206  150.4428 LP  0  0  0  0  0  0  0  0  0  0  0  0  # atno 17371 bound_to 10713
  139.8851  134.8946  156.2663 LP  0  0  0  0  0  0  0  0  0  0  0  0  # atno 17394 bound_to 11000
  141.0014  133.7149  156.0966 LP  0  0  0  0  0  0  0  0  0  0  0  0  # atno 17395 bound_to 11000

$$$$
