AV-unprocessed.smi:3293|AV-procd|sdf|12632|dock4
  -GOLD-   2272018573D 1   1.00000     0.00000
 Structure written by MMmdl.
 44 45  0  0  0  0  0  0  0  0  2 V2000
  153.7156  140.6562  160.6071 C   0  0  0  0  0  0  0  0  0  0  0  0
  153.0734  142.0327  160.5540 C   0  0  0  0  0  0  0  0  0  0  0  0
  152.9762  142.7920  161.6631 C   0  0  0  0  0  0  0  0  0  0  0  0
  152.4073  144.1998  161.7034 C   0  0  0  0  0  0  0  0  0  0  0  0
  151.7789  144.6382  160.3699 C   0  0  0  0  0  0  0  0  0  0  0  0
  152.5628  144.0872  159.1660 C   0  0  2  0  0  0  0  0  0  0  0  0
  152.0859  144.6983  157.8371 C   0  0  0  0  0  0  0  0  0  0  0  0
  152.5934  142.5327  159.1851 C   0  0  2  0  0  0  0  0  0  0  0  0
  151.2420  141.8953  158.7672 C   0  0  0  0  0  0  0  0  0  0  0  0
  151.4065  140.6457  157.9989 N   0  3  0  0  0  0  0  0  0  0  0  0
  150.2580  140.3147  157.1334 C   0  0  0  0  0  0  0  0  0  0  0  0
  150.6399  140.4057  155.6505 C   0  0  0  0  0  0  0  0  0  0  0  0
  149.4513  140.7477  154.7965 C   0  0  0  0  0  0  0  0  0  0  0  0
  148.8897  139.9856  153.7322 C   0  0  0  0  0  0  0  0  0  0  0  0
  147.8363  140.5674  153.1830 N   0  0  0  0  0  0  0  0  0  0  0  0
  147.6903  141.7181  153.8713 N   0  0  0  0  0  0  0  0  0  0  0  0
  146.6141  142.6235  153.5290 C   0  0  0  0  0  0  0  0  0  0  0  0
  148.6500  141.8536  154.8511 C   0  0  0  0  0  0  0  0  0  0  0  0
  154.4513  140.5456  159.8102 H   0  0  0  0  0  0  0  0  0  0  0  0
  152.9739  139.8652  160.5114 H   0  0  0  0  0  0  0  0  0  0  0  0
  154.2321  140.5021  161.5553 H   0  0  0  0  0  0  0  0  0  0  0  0
  153.3496  142.4131  162.6035 H   0  0  0  0  0  0  0  0  0  0  0  0
  151.6737  144.2737  162.5064 H   0  0  0  0  0  0  0  0  0  0  0  0
  153.2251  144.8734  161.9616 H   0  0  0  0  0  0  0  0  0  0  0  0
  150.7440  144.2990  160.3224 H   0  0  0  0  0  0  0  0  0  0  0  0
  151.7391  145.7276  160.3328 H   0  0  0  0  0  0  0  0  0  0  0  0
  153.5959  144.4194  159.2856 H   0  0  0  0  0  0  0  0  0  0  0  0
  151.0165  144.5565  157.6817 H   0  0  0  0  0  0  0  0  0  0  0  0
  152.6144  144.2618  156.9891 H   0  0  0  0  0  0  0  0  0  0  0  0
  152.2708  145.7729  157.8186 H   0  0  0  0  0  0  0  0  0  0  0  0
  153.3438  142.2303  158.4528 H   0  0  0  0  0  0  0  0  0  0  0  0
  150.6310  141.6920  159.6474 H   0  0  0  0  0  0  0  0  0  0  0  0
  150.6746  142.5788  158.1371 H   0  0  0  0  0  0  0  0  0  0  0  0
  152.2301  140.7318  157.4206 H   0  0  0  0  0  0  0  0  0  0  0  0
  149.9091  139.3080  157.3686 H   0  0  0  0  0  0  0  0  0  0  0  0
  149.4375  141.0003  157.3497 H   0  0  0  0  0  0  0  0  0  0  0  0
  151.4257  141.1517  155.5249 H   0  0  0  0  0  0  0  0  0  0  0  0
  151.0767  139.4584  155.3311 H   0  0  0  0  0  0  0  0  0  0  0  0
  149.2138  139.0302  153.3461 H   0  0  0  0  0  0  0  0  0  0  0  0
  146.6522  143.5078  154.1659 H   0  0  0  0  0  0  0  0  0  0  0  0
  145.6538  142.1265  153.6703 H   0  0  0  0  0  0  0  0  0  0  0  0
  146.7089  142.9336  152.4879 H   0  0  0  0  0  0  0  0  0  0  0  0
  148.6821  142.7166  155.5000 H   0  0  0  0  0  0  0  0  0  0  0  0
  151.5472  139.8865  158.6502 H   0  0  0  0  0  0  0  0  0  0  0  0
  1  2  1  0  0  0  0
  1 19  1  0  0  0  0
  1 20  1  0  0  0  0
  1 21  1  0  0  0  0
  2  8  1  0  0  0  0
  2  3  2  0  0  0  0
  3  4  1  0  0  0  0
  3 22  1  0  0  0  0
  4  5  1  0  0  0  0
  4 23  1  0  0  0  0
  4 24  1  0  0  0  0
  5  6  1  0  0  0  0
  5 25  1  0  0  0  0
  5 26  1  0  0  0  0
  6  7  1  0  0  0  0
  6  8  1  0  0  0  0
  6 27  1  0  0  0  0
  7 28  1  0  0  0  0
  7 29  1  0  0  0  0
  7 30  1  0  0  0  0
  8  9  1  0  0  0  0
  8 31  1  0  0  0  0
  9 10  1  0  0  0  0
  9 32  1  0  0  0  0
  9 33  1  0  0  0  0
 10 11  1  0  0  0  0
 10 34  1  0  0  0  0
 10 44  1  0  0  0  0
 11 12  1  0  0  0  0
 11 35  1  0  0  0  0
 11 36  1  0  0  0  0
 12 13  1  0  0  0  0
 12 37  1  0  0  0  0
 12 38  1  0  0  0  0
 13 18  2  0  0  0  0
 13 14  1  0  0  0  0
 14 15  2  0  0  0  0
 14 39  1  0  0  0  0
 15 16  1  0  0  0  0
 16 17  1  0  0  0  0
 16 18  1  0  0  0  0
 17 40  1  0  0  0  0
 17 41  1  0  0  0  0
 17 42  1  0  0  0  0
 18 43  1  0  0  0  0
M  CHG  1  10   1
M  END
> <s_m_source_file>
AV-unprocessed.smi

> <i_m_source_file_index>
3293

> <i_lp_mmshare_version>
43012

> <i_f3d_flags>
0

> <s_epik_input>
W0NIM11DMT1bQ0hdW0NIMl1bQ0gyXVtDQEBIXShbQ0gzXSlbQ0BIXTFbQ0gyXVtOSF1bQ0gyXVtDSDJdYzJbY0hdbm4oW0NIM10pW2NIXTI=

> <s_epik_cmdline>
J2VwaWtfcHl0aG9uJywgJy1waCcsICc3LjAnLCAnLXRuJywgJzgnLCAnLW1hJywgJzIwMCcsICctbWV0YWxfYmluZGluZycsICctaW1hZScsICc8aW5maWxlLm1hZT4nLCAnLW9tYWUnLCAnPG91dGZpbGUubWFlPic=

> <r_lp_tautomer_probability>
1

> <r_epik_Ionization_Penalty>
0.000598621

> <r_epik_Ionization_Penalty_Charging>
0.000582095

> <r_epik_Ionization_Penalty_Neutral>
1.65262e-05

> <r_epik_State_Penalty>
-0

> <r_epik_Charging_Adjusted_Penalty>
0.000582095

> <i_epik_Tot_Q>
1

> <i_epik_Tot_abs_Q>
1

> <r_epik_Metal_State_Penalty>
-0

> <b_epik_Metal_Only>
0

> <s_lp_Force_Field>
OPLS_2005

> <r_lp_Energy>
11.2905

> <b_lp_Chiralities_Consistent>
1

> <s_lp_Variant>
AV-unprocessed.smi:3293-4

> <Gold.Version>
5.8.1

> <Gold.Id.Protein>
6NUR|6NUR_protein|mol2

> <Gold.PLP.Fitness>
51.2335

> <Gold.PLP.PLP>
-48.9035

> <Gold.PLP.part.hbond>
0.0000

> <Gold.PLP.part.metal>
0.0000

> <Gold.PLP.part.buried>
-1.0807

> <Gold.PLP.part.nonpolar>
-48.0638

> <Gold.PLP.part.repulsive>
1.0727

> <Gold.PLP.ligand.clash>
0.0000

> <Gold.PLP.ligand.torsion>
1.0908

> <Gold.PLP.Chemscore.Hbond>
0.0000

> <Gold.PLP.Chemscore.CHOScore>
1.4965

> <Gold.PLP.Chemscore.Metal>
0.0000

> <Gold.Chemscore.Hbonds>
donor molecule, donor type, donor heavy atom, donor atom, acceptor molecule, acceptor atom, score
      L1  C    14    39       P1  7957  0.22
      L1  C    18    43       P1  8028  0.95

> <Gold.PLP.Chemscore.Internal.Correction>
0.0222

> <Gold.Rescore>
     Score         DG    S(hbond)    S(metal)    S(lipo)     H(rot)  DE(clash)    DE(int)     intcor
     16.27     -17.86       0.00        0.00     138.32       1.48       0.27       1.32       ----

> <Gold.Chemscore.Fitness>
16.2712

> <Gold.Chemscore.DG>
-17.8625

> <Gold.Chemscore.ZeroCoef>
-5.4800

> <Gold.Chemscore.Hbond>
0.0000

> <Gold.Chemscore.Metal>
0.0000

> <Gold.Chemscore.Lipo>
138.3193

> <Gold.Chemscore.Internal_Hbond>
0.0000

> <Gold.Chemscore.DEClash>
0.2731

> <Gold.Chemscore.DEInternal>
1.3182

> <Gold.Chemscore.Rot>
1.4847

> <Gold.Chemscore.Internal.Correction>
   9.000000E+99

> <Gold.Chemscore.Hbond.Weighted>
-0.0000

> <Gold.Chemscore.Metal.Weighted>
-0.0000

> <Gold.Chemscore.Lipo.Weighted>
-16.1834

> <Gold.Chemscore.Internal_Hbond.Weighted>
0.0000

> <Gold.Chemscore.DEClash.Weighted>
0.2731

> <Gold.Chemscore.DEInternal.Weighted>
1.3182

> <Gold.Chemscore.Rot.Weighted>
3.8008

> <Gold.Chemscore.Internal.Correction.Weighted>
   9.000000E+99

> <Gold.Protein.RotatedTorsions>
[ 6907 6896 6895 6894 ] final -112.58 input  -60.11 | X-H torsion
[ 7974 7965 7964 7962 ] final  117.37 input  175.53 | X-H torsion
[ 8008 7997 7996 7995 ] final -104.39 input   59.86 | X-H torsion
[ 10167 10162 10161 10158 ] final  -79.37 input  -65.29 | X-H torsion
[ 10718 10713 10712 10709 ] final  -92.57 input   66.30 | X-H torsion
[ 10763 10752 10751 10750 ] final  175.52 input  -60.55 | X-H torsion
[ 11005 11000 10999 10996 ] final  -10.77 input  -57.11 | X-H torsion

> <Gold.Protein.ActiveResidues>
 VAL166  LYS551  ARG553  GLY616  TRP617  ASP618  TYR619  PRO620  LYS621  CYS622 
 ASP623  PHE694  ASN695  SER759  ASP760  ASP761  ALA762  ILE779  LEU786  VAL792 
 PHE793  MET794  SER795  GLU796  ALA797  LYS798  CYS799  TRP800  GLU811  SER814 

> <Gold.Protein.RotatedAtoms>
  150.7768  133.9069  159.3357 H   0  0  0  0  0  0  0  0  0  0  0  0  # atno 6907 bound_to 6896
  151.6941  135.0939  160.0248 H   0  0  0  0  0  0  0  0  0  0  0  0  # atno 6908 bound_to 6896
  152.3807  133.6504  159.6194 H   0  0  0  0  0  0  0  0  0  0  0  0  # atno 6909 bound_to 6896
  145.1683  139.3116  143.4481 H   0  0  0  0  0  0  0  0  0  0  0  0  # atno 7974 bound_to 7965
  154.8847  140.0418  157.1803 H   0  0  0  0  0  0  0  0  0  0  0  0  # atno 8008 bound_to 7997
  154.8603  140.2943  155.5522 H   0  0  0  0  0  0  0  0  0  0  0  0  # atno 8009 bound_to 7997
  156.2998  140.2448  156.3576 H   0  0  0  0  0  0  0  0  0  0  0  0  # atno 8010 bound_to 7997
  140.4599  143.2457  151.8364 H   0  0  0  0  0  0  0  0  0  0  0  0  # atno 10167 bound_to 10162
  156.0004  130.4992  150.5646 H   0  0  0  0  0  0  0  0  0  0  0  0  # atno 10718 bound_to 10713
  154.4687  135.2770  155.1659 H   0  0  0  0  0  0  0  0  0  0  0  0  # atno 10763 bound_to 10752
  154.3416  135.6169  153.5603 H   0  0  0  0  0  0  0  0  0  0  0  0  # atno 10764 bound_to 10752
  152.9862  135.5790  154.5064 H   0  0  0  0  0  0  0  0  0  0  0  0  # atno 10765 bound_to 10752
  140.7483  133.8613  155.9024 H   0  0  0  0  0  0  0  0  0  0  0  0  # atno 11005 bound_to 11000
  146.3472  140.1818  142.8589 LP  0  0  0  0  0  0  0  0  0  0  0  0  # atno 17320 bound_to 7965
  145.0260  140.8832  143.5138 LP  0  0  0  0  0  0  0  0  0  0  0  0  # atno 17321 bound_to 7965
  139.4805  144.5020  151.9047 LP  0  0  0  0  0  0  0  0  0  0  0  0  # atno 17342 bound_to 10162
  140.4106  144.2374  150.5889 LP  0  0  0  0  0  0  0  0  0  0  0  0  # atno 17343 bound_to 10162
  157.3550  131.0740  151.1683 LP  0  0  0  0  0  0  0  0  0  0  0  0  # atno 17370 bound_to 10713
  157.2486  130.6603  149.5921 LP  0  0  0  0  0  0  0  0  0  0  0  0  # atno 17371 bound_to 10713
  140.9774  134.1451  157.4524 LP  0  0  0  0  0  0  0  0  0  0  0  0  # atno 17394 bound_to 11000
  139.8792  134.9999  156.5981 LP  0  0  0  0  0  0  0  0  0  0  0  0  # atno 17395 bound_to 11000

$$$$
