AV-unprocessed.smi:2040|AV-procd|sdf|8289|dock10
  -GOLD-   2272010553D 1   1.00000     0.00000
 Structure written by MMmdl.
 38 39  0  0  0  0  0  0  0  0  1 V2000
  154.7741  140.4751  161.7104 C   0  0  0  0  0  0  0  0  0  0  0  0
  153.8424  140.9681  160.6430 C   0  0  0  0  0  0  0  0  0  0  0  0
  153.1178  140.1988  159.6865 C   0  0  0  0  0  0  0  0  0  0  0  0
  152.4434  141.1560  158.9791 C   0  0  0  0  0  0  0  0  0  0  0  0
  151.5940  141.0040  157.9284 N   0  0  0  0  0  0  0  0  0  0  0  0
  151.7723  140.2977  156.7987 C   0  0  0  0  0  0  0  0  0  0  0  0
  152.7641  139.6198  156.5300 O   0  0  0  0  0  0  0  0  0  0  0  0
  150.7144  140.4214  155.9840 N   0  0  0  0  0  0  0  0  0  0  0  0
  150.5705  139.7991  154.6692 C   0  0  1  0  0  0  0  0  0  0  0  0
  150.8222  138.2885  154.7914 C   0  0  0  0  0  0  0  0  0  0  0  0
  149.1752  140.1098  154.0938 C   0  0  1  0  0  0  0  0  0  0  0  0
  148.0103  139.7393  155.0159 C   0  0  0  0  0  0  0  0  0  0  0  0
  146.9289  140.6813  154.5403 C   0  0  0  0  0  0  0  0  0  0  0  0
  147.7292  141.9480  154.2583 C   0  0  0  0  0  0  0  0  0  0  0  0
  149.0271  141.5102  153.8641 O   0  0  0  0  0  0  0  0  0  0  0  0
  152.7603  142.3942  159.4913 N   0  0  0  0  0  0  0  0  0  0  0  0
  152.3016  143.7062  159.0785 C   0  0  0  0  0  0  0  0  0  0  0  0
  153.6244  142.2729  160.5223 N   0  0  0  0  0  0  0  0  0  0  0  0
  154.9181  139.3968  161.6404 H   0  0  0  0  0  0  0  0  0  0  0  0
  154.3823  140.6935  162.7040 H   0  0  0  0  0  0  0  0  0  0  0  0
  155.7537  140.9461  161.6260 H   0  0  0  0  0  0  0  0  0  0  0  0
  153.1108  139.1270  159.5579 H   0  0  0  0  0  0  0  0  0  0  0  0
  150.7145  141.4915  158.0131 H   0  0  0  0  0  0  0  0  0  0  0  0
  149.9460  140.9983  156.2932 H   0  0  0  0  0  0  0  0  0  0  0  0
  151.3109  140.2114  153.9815 H   0  0  0  0  0  0  0  0  0  0  0  0
  150.7488  137.7972  153.8209 H   0  0  0  0  0  0  0  0  0  0  0  0
  150.0994  137.8171  155.4579 H   0  0  0  0  0  0  0  0  0  0  0  0
  151.8194  138.0874  155.1845 H   0  0  0  0  0  0  0  0  0  0  0  0
  149.0410  139.6035  153.1361 H   0  0  0  0  0  0  0  0  0  0  0  0
  147.7247  138.6895  154.9425 H   0  0  0  0  0  0  0  0  0  0  0  0
  148.2594  139.9537  156.0564 H   0  0  0  0  0  0  0  0  0  0  0  0
  146.4814  140.3043  153.6197 H   0  0  0  0  0  0  0  0  0  0  0  0
  146.1351  140.8314  155.2724 H   0  0  0  0  0  0  0  0  0  0  0  0
  147.2675  142.5700  153.4913 H   0  0  0  0  0  0  0  0  0  0  0  0
  147.8276  142.5456  155.1653 H   0  0  0  0  0  0  0  0  0  0  0  0
  151.2271  143.7858  159.2442 H   0  0  0  0  0  0  0  0  0  0  0  0
  152.5111  143.8511  158.0184 H   0  0  0  0  0  0  0  0  0  0  0  0
  152.8069  144.4873  159.6481 H   0  0  0  0  0  0  0  0  0  0  0  0
  1  2  1  0  0  0  0
  1 19  1  0  0  0  0
  1 20  1  0  0  0  0
  1 21  1  0  0  0  0
  2 18  2  0  0  0  0
  2  3  1  0  0  0  0
  3  4  2  0  0  0  0
  3 22  1  0  0  0  0
  4  5  1  0  0  0  0
  4 16  1  0  0  0  0
  5  6  1  0  0  0  0
  5 23  1  0  0  0  0
  6  7  2  0  0  0  0
  6  8  1  0  0  0  0
  8  9  1  0  0  0  0
  8 24  1  0  0  0  0
  9 10  1  0  0  0  0
  9 11  1  0  0  0  0
  9 25  1  0  0  0  0
 10 26  1  0  0  0  0
 10 27  1  0  0  0  0
 10 28  1  0  0  0  0
 11 15  1  0  0  0  0
 11 12  1  0  0  0  0
 11 29  1  0  0  0  0
 12 13  1  0  0  0  0
 12 30  1  0  0  0  0
 12 31  1  0  0  0  0
 13 14  1  0  0  0  0
 13 32  1  0  0  0  0
 13 33  1  0  0  0  0
 14 15  1  0  0  0  0
 14 34  1  0  0  0  0
 14 35  1  0  0  0  0
 16 17  1  0  0  0  0
 16 18  1  0  0  0  0
 17 36  1  0  0  0  0
 17 37  1  0  0  0  0
 17 38  1  0  0  0  0
M  END
> <s_m_source_file>
AV-unprocessed.smi

> <i_m_source_file_index>
2040

> <i_lp_mmshare_version>
43012

> <i_f3d_flags>
0

> <s_epik_input>
W0NIM11jMVtjSF1jKG4objEpW0NIM10pW05IXUMoPU8pW05IXVtDQEhdKFtDSDNdKVtDQEBIXTJbQ0gyXVtDSDJdW0NIMl1PMg==

> <s_epik_cmdline>
J2VwaWtfcHl0aG9uJywgJy1waCcsICc3LjAnLCAnLXRuJywgJzgnLCAnLW1hJywgJzIwMCcsICctbWV0YWxfYmluZGluZycsICctaW1hZScsICc8aW5maWxlLm1hZT4nLCAnLW9tYWUnLCAnPG91dGZpbGUubWFlPic=

> <r_lp_tautomer_probability>
1

> <r_epik_Ionization_Penalty>
9.09088e-05

> <r_epik_Ionization_Penalty_Charging>
0

> <r_epik_Ionization_Penalty_Neutral>
9.09088e-05

> <r_epik_State_Penalty>
-0

> <r_epik_Charging_Adjusted_Penalty>
0

> <i_epik_Tot_Q>
0

> <i_epik_Tot_abs_Q>
0

> <r_epik_Metal_State_Penalty>
-0

> <b_epik_Metal_Only>
0

> <s_lp_Force_Field>
OPLS_2005

> <r_lp_Energy>
18.8774

> <b_lp_Chiralities_Consistent>
1

> <s_lp_Variant>
AV-unprocessed.smi:2040-4

> <Gold.Version>
5.8.1

> <Gold.Id.Protein>
6NUR|6NUR_protein|mol2

> <Gold.PLP.Fitness>
39.7627

> <Gold.PLP.PLP>
-35.4232

> <Gold.PLP.part.hbond>
-3.0000

> <Gold.PLP.part.metal>
0.0000

> <Gold.PLP.part.buried>
-1.7489

> <Gold.PLP.part.nonpolar>
-30.8597

> <Gold.PLP.part.repulsive>
1.0954

> <Gold.PLP.ligand.clash>
0.0000

> <Gold.PLP.ligand.torsion>
0.5115

> <Gold.PLP.Chemscore.Hbond>
1.7840

> <Gold.PLP.Chemscore.CHOScore>
0.0000

> <Gold.PLP.Chemscore.Metal>
0.0000

> <Gold.Chemscore.Hbonds>
donor molecule, donor type, donor heavy atom, donor atom, acceptor molecule, acceptor atom, score
      P1  H  7997  8009       L1     7  1.00
      P1  H  8011  8017       L1    15  0.72

> <Gold.PLP.Chemscore.Internal.Correction>
0.0105

> <Gold.Rescore>
     Score         DG    S(hbond)    S(metal)    S(lipo)     H(rot)  DE(clash)    DE(int)     intcor
     14.67     -16.53       1.65        0.00      74.28       1.23       0.12       1.74       ----

> <Gold.Chemscore.Fitness>
14.6723

> <Gold.Chemscore.DG>
-16.5329

> <Gold.Chemscore.ZeroCoef>
-5.4800

> <Gold.Chemscore.Hbond>
1.6529

> <Gold.Chemscore.Metal>
0.0000

> <Gold.Chemscore.Lipo>
74.2776

> <Gold.Chemscore.Internal_Hbond>
0.0000

> <Gold.Chemscore.DEClash>
0.1217

> <Gold.Chemscore.DEInternal>
1.7388

> <Gold.Chemscore.Rot>
1.2338

> <Gold.Chemscore.Internal.Correction>
   9.000000E+99

> <Gold.Chemscore.Hbonds>
donor molecule, donor type, donor heavy atom, donor atom, acceptor molecule, acceptor atom, score
      P1  H  7997  8009       L1     7  1.00
      P1  H  8011  8017       L1    15  0.66

> <Gold.Chemscore.Hbond.Weighted>
-5.5208

> <Gold.Chemscore.Metal.Weighted>
-0.0000

> <Gold.Chemscore.Lipo.Weighted>
-8.6905

> <Gold.Chemscore.Internal_Hbond.Weighted>
0.0000

> <Gold.Chemscore.DEClash.Weighted>
0.1217

> <Gold.Chemscore.DEInternal.Weighted>
1.7388

> <Gold.Chemscore.Rot.Weighted>
3.1584

> <Gold.Chemscore.Internal.Correction.Weighted>
   9.000000E+99

> <Gold.Protein.RotatedTorsions>
[ 6907 6896 6895 6894 ] final  -25.54 input  -60.11 | X-H torsion
[ 7974 7965 7964 7962 ] final  -96.31 input  175.53 | X-H torsion
[ 8008 7997 7996 7995 ] final -164.66 input   59.86 | X-H torsion
[ 10167 10162 10161 10158 ] final  172.28 input  -65.29 | X-H torsion
[ 10718 10713 10712 10709 ] final -150.61 input   66.30 | X-H torsion
[ 10763 10752 10751 10750 ] final  133.55 input  -60.55 | X-H torsion
[ 11005 11000 10999 10996 ] final  -20.51 input  -57.11 | X-H torsion

> <Gold.Protein.ActiveResidues>
 VAL166  LYS551  ARG553  GLY616  TRP617  ASP618  TYR619  PRO620  LYS621  CYS622 
 ASP623  PHE694  ASN695  SER759  ASP760  ASP761  ALA762  ILE779  LEU786  VAL792 
 PHE793  MET794  SER795  GLU796  ALA797  LYS798  CYS799  TRP800  GLU811  SER814 

> <Gold.Protein.RotatedAtoms>
  151.1738  135.0330  159.8762 H   0  0  0  0  0  0  0  0  0  0  0  0  # atno 6907 bound_to 6896
  152.5448  134.1140  159.8381 H   0  0  0  0  0  0  0  0  0  0  0  0  # atno 6908 bound_to 6896
  151.1249  133.5031  159.2633 H   0  0  0  0  0  0  0  0  0  0  0  0  # atno 6909 bound_to 6896
  145.3485  140.9472  143.2567 H   0  0  0  0  0  0  0  0  0  0  0  0  # atno 7974 bound_to 7965
  155.8387  140.0945  157.1748 H   0  0  0  0  0  0  0  0  0  0  0  0  # atno 8008 bound_to 7997
  154.3981  140.1405  156.3764 H   0  0  0  0  0  0  0  0  0  0  0  0  # atno 8009 bound_to 7997
  155.8087  140.3450  155.5447 H   0  0  0  0  0  0  0  0  0  0  0  0  # atno 8010 bound_to 7997
  139.5072  144.3391  152.0036 H   0  0  0  0  0  0  0  0  0  0  0  0  # atno 10167 bound_to 10162
  156.4484  130.8156  151.2386 H   0  0  0  0  0  0  0  0  0  0  0  0  # atno 10718 bound_to 10713
  153.8090  135.3131  155.3398 H   0  0  0  0  0  0  0  0  0  0  0  0  # atno 10763 bound_to 10752
  154.8059  135.4698  154.0394 H   0  0  0  0  0  0  0  0  0  0  0  0  # atno 10764 bound_to 10752
  153.1766  135.6886  153.8623 H   0  0  0  0  0  0  0  0  0  0  0  0  # atno 10765 bound_to 10752
  140.8471  133.7883  155.9925 H   0  0  0  0  0  0  0  0  0  0  0  0  # atno 11005 bound_to 11000
  144.8735  139.5004  143.6756 LP  0  0  0  0  0  0  0  0  0  0  0  0  # atno 17320 bound_to 7965
  146.2978  139.7330  142.9114 LP  0  0  0  0  0  0  0  0  0  0  0  0  # atno 17321 bound_to 7965
  140.2829  144.3839  150.6113 LP  0  0  0  0  0  0  0  0  0  0  0  0  # atno 17342 bound_to 10162
  140.6004  143.2167  151.7083 LP  0  0  0  0  0  0  0  0  0  0  0  0  # atno 17343 bound_to 10162
  157.7504  131.0146  150.3469 LP  0  0  0  0  0  0  0  0  0  0  0  0  # atno 17370 bound_to 10713
  156.3842  130.3886  149.7078 LP  0  0  0  0  0  0  0  0  0  0  0  0  # atno 17371 bound_to 10713
  140.8831  134.2587  157.5134 LP  0  0  0  0  0  0  0  0  0  0  0  0  # atno 17394 bound_to 11000
  139.8703  134.9625  156.4430 LP  0  0  0  0  0  0  0  0  0  0  0  0  # atno 17395 bound_to 11000

$$$$
