AV-unprocessed.smi:229|AV-procd|sdf|1756|dock8
  -GOLD-   2262020283D 1   1.00000     0.00000
 Structure written by MMmdl.
 58 62  0  0  0  0  0  0  0  0  1 V2000
  153.7027  141.5404  160.3626 C   0  0  0  0  0  0  0  0  0  0  0  0
  152.8379  142.0329  159.1955 C   0  0  0  0  0  0  0  0  0  0  0  0
  152.0265  140.9074  158.5367 C   0  0  1  0  0  0  0  0  0  0  0  0
  151.2396  141.4087  157.3138 C   0  0  0  0  0  0  0  0  0  0  0  0
  150.5721  140.2879  156.6614 N   0  0  0  0  0  0  0  0  0  0  0  0
  149.5848  140.5530  155.7689 C   0  0  0  0  0  0  0  0  0  0  0  0
  149.1625  141.8327  155.5825 N   0  0  0  0  0  0  0  0  0  0  0  0
  148.1888  142.1031  154.7082 C   0  0  0  0  0  0  0  0  0  0  0  0
  147.5061  141.2594  153.9319 N   0  0  0  0  0  0  0  0  0  0  0  0
  147.9207  139.9741  154.1182 C   0  0  0  0  0  0  0  0  0  0  0  0
  148.9444  139.5362  155.0052 C   0  0  0  0  0  0  0  0  0  0  0  0
  149.0748  138.1537  154.9287 N   0  0  0  0  0  0  0  0  0  0  0  0
  148.1864  137.7968  154.0418 C   0  0  0  0  0  0  0  0  0  0  0  0
  147.4437  138.8270  153.5108 N   0  0  0  0  0  0  0  0  0  0  0  0
  146.3798  138.7204  152.5275 C   0  0  0  0  0  0  0  0  0  0  0  0
  146.4267  137.3837  151.7559 C   0  0  2  0  0  0  0  0  0  0  0  0
  146.6917  137.6720  150.3962 O   0  0  0  0  0  0  0  0  0  0  0  0
  145.1018  136.5980  151.8216 C   0  0  2  0  0  0  0  0  0  0  0  0
  144.7101  136.1142  153.2202 C   0  0  0  0  0  0  0  0  0  0  0  0
  143.8354  134.8989  152.9544 C   0  0  0  0  0  0  0  0  0  0  0  0
  144.1296  134.5462  151.4949 C   0  0  0  0  0  0  0  0  0  0  0  0
  145.2373  135.3602  151.1386 O   0  0  0  0  0  0  0  0  0  0  0  0
  151.4939  139.2247  156.2796 C   0  0  0  0  0  0  0  0  0  0  0  0
  152.3159  138.7503  157.4997 C   0  0  2  0  0  0  0  0  0  0  0  0
  153.4250  137.7935  157.0743 C   0  0  0  0  0  0  0  0  0  0  0  0
  152.8046  136.4215  157.2902 C   0  0  0  0  0  0  0  0  0  0  0  0
  152.0984  136.5965  158.5038 O   0  0  0  0  0  0  0  0  0  0  0  0
  151.4946  137.8850  158.4848 C   0  0  0  0  0  0  0  0  0  0  0  0
  152.9313  139.8797  158.1266 O   0  0  0  0  0  0  0  0  0  0  0  0
  154.2575  142.3657  160.8087 H   0  0  0  0  0  0  0  0  0  0  0  0
  154.4258  140.7942  160.0325 H   0  0  0  0  0  0  0  0  0  0  0  0
  153.0902  141.0906  161.1444 H   0  0  0  0  0  0  0  0  0  0  0  0
  152.1568  142.8003  159.5651 H   0  0  0  0  0  0  0  0  0  0  0  0
  153.4702  142.5171  158.4503 H   0  0  0  0  0  0  0  0  0  0  0  0
  151.3225  140.5148  159.2710 H   0  0  0  0  0  0  0  0  0  0  0  0
  150.5067  142.1522  157.6304 H   0  0  0  0  0  0  0  0  0  0  0  0
  151.9116  141.8928  156.6035 H   0  0  0  0  0  0  0  0  0  0  0  0
  147.9170  143.1444  154.6193 H   0  0  0  0  0  0  0  0  0  0  0  0
  148.0393  136.7648  153.7580 H   0  0  0  0  0  0  0  0  0  0  0  0
  145.4301  138.8303  153.0513 H   0  0  0  0  0  0  0  0  0  0  0  0
  146.4548  139.5629  151.8386 H   0  0  0  0  0  0  0  0  0  0  0  0
  147.2373  136.7679  152.1482 H   0  0  0  0  0  0  0  0  0  0  0  0
  145.8670  137.7874  149.9493 H   0  0  0  0  0  0  0  0  0  0  0  0
  144.2811  137.1732  151.3872 H   0  0  0  0  0  0  0  0  0  0  0  0
  145.5986  135.8061  153.7734 H   0  0  0  0  0  0  0  0  0  0  0  0
  144.1993  136.8804  153.8041 H   0  0  0  0  0  0  0  0  0  0  0  0
  144.0893  134.0803  153.6288 H   0  0  0  0  0  0  0  0  0  0  0  0
  142.7778  135.1295  153.0872 H   0  0  0  0  0  0  0  0  0  0  0  0
  144.3582  133.4893  151.3555 H   0  0  0  0  0  0  0  0  0  0  0  0
  143.2796  134.7981  150.8592 H   0  0  0  0  0  0  0  0  0  0  0  0
  150.9769  138.3792  155.8277 H   0  0  0  0  0  0  0  0  0  0  0  0
  152.1629  139.6212  155.5144 H   0  0  0  0  0  0  0  0  0  0  0  0
  153.7714  137.9481  156.0520 H   0  0  0  0  0  0  0  0  0  0  0  0
  154.2875  137.8997  157.7344 H   0  0  0  0  0  0  0  0  0  0  0  0
  152.1084  136.1718  156.4880 H   0  0  0  0  0  0  0  0  0  0  0  0
  153.5479  135.6278  157.3672 H   0  0  0  0  0  0  0  0  0  0  0  0
  151.4917  138.2818  159.4997 H   0  0  0  0  0  0  0  0  0  0  0  0
  150.4564  137.7912  158.1633 H   0  0  0  0  0  0  0  0  0  0  0  0
  1  2  1  0  0  0  0
  1 30  1  0  0  0  0
  1 31  1  0  0  0  0
  1 32  1  0  0  0  0
  2  3  1  0  0  0  0
  2 33  1  0  0  0  0
  2 34  1  0  0  0  0
  3 29  1  0  0  0  0
  3  4  1  0  0  0  0
  3 35  1  0  0  0  0
  4  5  1  0  0  0  0
  4 36  1  0  0  0  0
  4 37  1  0  0  0  0
  5  6  1  0  0  0  0
  5 23  1  0  0  0  0
  6 11  1  0  0  0  0
  6  7  2  0  0  0  0
  7  8  1  0  0  0  0
  8  9  2  0  0  0  0
  8 38  1  0  0  0  0
  9 10  1  0  0  0  0
 10 14  1  0  0  0  0
 10 11  2  0  0  0  0
 11 12  1  0  0  0  0
 12 13  2  0  0  0  0
 13 14  1  0  0  0  0
 13 39  1  0  0  0  0
 14 15  1  0  0  0  0
 15 16  1  0  0  0  0
 15 40  1  0  0  0  0
 15 41  1  0  0  0  0
 16 17  1  0  0  0  0
 16 18  1  0  0  0  0
 16 42  1  0  0  0  0
 17 43  1  0  0  0  0
 18 22  1  0  0  0  0
 18 19  1  0  0  0  0
 18 44  1  0  0  0  0
 19 20  1  0  0  0  0
 19 45  1  0  0  0  0
 19 46  1  0  0  0  0
 20 21  1  0  0  0  0
 20 47  1  0  0  0  0
 20 48  1  0  0  0  0
 21 22  1  0  0  0  0
 21 49  1  0  0  0  0
 21 50  1  0  0  0  0
 23 24  1  0  0  0  0
 23 51  1  0  0  0  0
 23 52  1  0  0  0  0
 24 28  1  0  0  0  0
 24 25  1  0  0  0  0
 24 29  1  0  0  0  0
 25 26  1  0  0  0  0
 25 53  1  0  0  0  0
 25 54  1  0  0  0  0
 26 27  1  0  0  0  0
 26 55  1  0  0  0  0
 26 56  1  0  0  0  0
 27 28  1  0  0  0  0
 28 57  1  0  0  0  0
 28 58  1  0  0  0  0
M  END
> <s_m_source_file>
AV-unprocessed.smi

> <i_m_source_file_index>
229

> <i_lp_mmshare_version>
43012

> <i_f3d_flags>
0

> <s_epik_input>
W0NIMl0xT1tDSDJdW0NIMl1bQ0BdMTJbQ0gyXU4oW0NIMl1bQ0BIXShPMilbQ0gyXVtDSDNdKWMobltjSF1uMyljKGMzNCluW2NIXW40W0NIMl1bQ0BIXShbT0hdKVtDQEBIXTVbQ0gyXVtDSDJdW0NIMl1PNQ==

> <s_epik_cmdline>
J2VwaWtfcHl0aG9uJywgJy1waCcsICc3LjAnLCAnLXRuJywgJzgnLCAnLW1hJywgJzIwMCcsICctbWV0YWxfYmluZGluZycsICctaW1hZScsICc8aW5maWxlLm1hZT4nLCAnLW9tYWUnLCAnPG91dGZpbGUubWFlPic=

> <r_lp_tautomer_probability>
1

> <r_epik_Ionization_Penalty>
0.00318402

> <r_epik_Ionization_Penalty_Charging>
0

> <r_epik_Ionization_Penalty_Neutral>
0.00318402

> <r_epik_State_Penalty>
0.00215642

> <r_epik_Charging_Adjusted_Penalty>
0.00215642

> <i_epik_Tot_Q>
0

> <i_epik_Tot_abs_Q>
0

> <r_epik_Metal_State_Penalty>
-0

> <b_epik_Metal_Only>
0

> <s_lp_Force_Field>
OPLS_2005

> <r_lp_Energy>
55.2871

> <b_lp_Chiralities_Consistent>
1

> <s_lp_Variant>
AV-unprocessed.smi:229-10

> <Gold.Version>
5.8.1

> <Gold.Id.Protein>
6NUR|6NUR_protein|mol2

> <Gold.PLP.Fitness>
47.5409

> <Gold.PLP.PLP>
-34.3865

> <Gold.PLP.part.hbond>
-5.0000

> <Gold.PLP.part.metal>
0.0000

> <Gold.PLP.part.buried>
-0.6350

> <Gold.PLP.part.nonpolar>
-31.5707

> <Gold.PLP.part.repulsive>
1.9530

> <Gold.PLP.ligand.clash>
0.0000

> <Gold.PLP.ligand.torsion>
1.3778

> <Gold.PLP.Chemscore.Hbond>
3.6800

> <Gold.PLP.Chemscore.CHOScore>
1.4924

> <Gold.PLP.Chemscore.Metal>
0.0000

> <Gold.Chemscore.Hbonds>
donor molecule, donor type, donor heavy atom, donor atom, acceptor molecule, acceptor atom, score
      L1  H    17    43       P1 10171  0.75
      P1  H  6896  6908       L1    27  0.52
      P1  H  7954  7966       L1    17  0.93
      P1  H  7997  8010       L1    29  1.00
      L1  C     8    38       P1  8028  0.92
      L1  C    13    39       P1  7948  0.68

> <Gold.PLP.Chemscore.Internal.Correction>
0.3927

> <Gold.Rescore>
     Score         DG    S(hbond)    S(metal)    S(lipo)     H(rot)  DE(clash)    DE(int)     intcor
     15.34     -20.28       3.30        0.00      85.97       2.46       2.33       2.61       ----

> <Gold.Chemscore.Fitness>
15.3383

> <Gold.Chemscore.DG>
-20.2805

> <Gold.Chemscore.ZeroCoef>
-5.4800

> <Gold.Chemscore.Hbond>
3.3048

> <Gold.Chemscore.Metal>
0.0000

> <Gold.Chemscore.Lipo>
85.9653

> <Gold.Chemscore.Internal_Hbond>
0.0000

> <Gold.Chemscore.DEClash>
2.3285

> <Gold.Chemscore.DEInternal>
2.6138

> <Gold.Chemscore.Rot>
2.4591

> <Gold.Chemscore.Internal.Correction>
   9.000000E+99

> <Gold.Chemscore.Hbonds>
donor molecule, donor type, donor heavy atom, donor atom, acceptor molecule, acceptor atom, score
      L1  H    17    43       P1 10171  0.72
      P1  H  6896  6908       L1    27  0.51
      P1  H  7954  7966       L1    17  0.85
      P1  H  7997  8010       L1    29  0.25

> <Gold.Chemscore.Hbond.Weighted>
-11.0379

> <Gold.Chemscore.Metal.Weighted>
-0.0000

> <Gold.Chemscore.Lipo.Weighted>
-10.0579

> <Gold.Chemscore.Internal_Hbond.Weighted>
0.0000

> <Gold.Chemscore.DEClash.Weighted>
2.3285

> <Gold.Chemscore.DEInternal.Weighted>
2.6138

> <Gold.Chemscore.Rot.Weighted>
6.2953

> <Gold.Chemscore.Internal.Correction.Weighted>
   9.000000E+99

> <Gold.Protein.RotatedTorsions>
[ 6907 6896 6895 6894 ] final -114.19 input  -60.11 | X-H torsion
[ 7974 7965 7964 7962 ] final  -32.11 input  175.53 | X-H torsion
[ 8008 7997 7996 7995 ] final   38.27 input   59.86 | X-H torsion
[ 10167 10162 10161 10158 ] final  147.75 input  -65.29 | X-H torsion
[ 10718 10713 10712 10709 ] final  130.10 input   66.30 | X-H torsion
[ 10763 10752 10751 10750 ] final   22.59 input  -60.55 | X-H torsion
[ 11005 11000 10999 10996 ] final   37.03 input  -57.11 | X-H torsion

> <Gold.Protein.ActiveResidues>
 VAL166  LYS551  ARG553  GLY616  TRP617  ASP618  TYR619  PRO620  LYS621  CYS622 
 ASP623  PHE694  ASN695  SER759  ASP760  ASP761  ALA762  ILE779  LEU786  VAL792 
 PHE793  MET794  SER795  GLU796  ALA797  LYS798  CYS799  TRP800  GLU811  SER814 

> <Gold.Protein.RotatedAtoms>
  150.7884  133.8836  159.3292 H   0  0  0  0  0  0  0  0  0  0  0  0  # atno 6907 bound_to 6896
  151.6681  135.0978  160.0202 H   0  0  0  0  0  0  0  0  0  0  0  0  # atno 6908 bound_to 6896
  152.3953  133.6699  159.6306 H   0  0  0  0  0  0  0  0  0  0  0  0  # atno 6909 bound_to 6896
  146.1015  140.5751  142.8818 H   0  0  0  0  0  0  0  0  0  0  0  0  # atno 7974 bound_to 7965
  155.2175  140.3328  155.4320 H   0  0  0  0  0  0  0  0  0  0  0  0  # atno 8008 bound_to 7997
  156.2346  140.1866  156.7200 H   0  0  0  0  0  0  0  0  0  0  0  0  # atno 8009 bound_to 7997
  154.6037  140.0619  156.9388 H   0  0  0  0  0  0  0  0  0  0  0  0  # atno 8010 bound_to 7997
  139.4885  144.5732  151.7015 H   0  0  0  0  0  0  0  0  0  0  0  0  # atno 10167 bound_to 10162
  157.5093  131.1096  150.9315 H   0  0  0  0  0  0  0  0  0  0  0  0  # atno 10718 bound_to 10713
  153.0904  135.6645  153.9866 H   0  0  0  0  0  0  0  0  0  0  0  0  # atno 10763 bound_to 10752
  153.9464  135.2988  155.3442 H   0  0  0  0  0  0  0  0  0  0  0  0  # atno 10764 bound_to 10752
  154.7317  135.5120  153.9048 H   0  0  0  0  0  0  0  0  0  0  0  0  # atno 10765 bound_to 10752
  140.2267  134.3577  155.7981 H   0  0  0  0  0  0  0  0  0  0  0  0  # atno 11005 bound_to 11000
  144.7437  140.5010  143.6851 LP  0  0  0  0  0  0  0  0  0  0  0  0  # atno 17320 bound_to 7965
  145.5844  139.1491  143.3217 LP  0  0  0  0  0  0  0  0  0  0  0  0  # atno 17321 bound_to 7965
  140.5323  144.0711  150.6058 LP  0  0  0  0  0  0  0  0  0  0  0  0  # atno 17342 bound_to 10162
  140.3705  143.2857  152.0283 LP  0  0  0  0  0  0  0  0  0  0  0  0  # atno 17343 bound_to 10162
  156.9961  130.5582  149.5307 LP  0  0  0  0  0  0  0  0  0  0  0  0  # atno 17370 bound_to 10713
  156.0279  130.5372  150.8455 LP  0  0  0  0  0  0  0  0  0  0  0  0  # atno 17371 bound_to 10713
  141.2220  133.7223  156.8664 LP  0  0  0  0  0  0  0  0  0  0  0  0  # atno 17394 bound_to 11000
  140.1793  134.9044  157.2929 LP  0  0  0  0  0  0  0  0  0  0  0  0  # atno 17395 bound_to 11000

$$$$
