AV-unprocessed.smi:1830|AV-procd|sdf|7435|dock6
  -GOLD-   22720 9123D 1   1.00000     0.00000
 Structure written by MMmdl.
 53 56  0  0  0  0  0  0  0  0  2 V2000
  150.1680  133.7543  155.5936 O   0  0  0  0  0  0  0  0  0  0  0  0
  149.6234  134.3668  154.6749 C   0  0  0  0  0  0  0  0  0  0  0  0
  149.7226  135.6935  154.5141 N   0  0  0  0  0  0  0  0  0  0  0  0
  150.4874  136.5831  155.3816 C   0  0  0  0  0  0  0  0  0  0  0  0
  150.5320  138.0225  154.8378 C   0  0  1  0  0  0  0  0  0  0  0  0
  149.1420  138.5142  154.4051 C   0  0  0  0  0  0  0  0  0  0  0  0
  149.1914  139.9157  153.9172 N   0  3  1  0  0  0  0  0  0  0  0  0
  147.8421  140.5046  153.7664 C   0  0  0  0  0  0  0  0  0  0  0  0
  147.5769  141.3320  155.0376 C   0  0  0  0  0  0  0  0  0  0  0  0
  148.8710  141.2617  155.8563 C   0  0  0  0  0  0  0  0  0  0  0  0
  149.9181  140.8222  154.8329 C   0  0  1  0  0  0  0  0  0  0  0  0
  151.2098  140.2042  155.4067 C   0  0  0  0  0  0  0  0  0  0  0  0
  150.9858  138.8822  155.8757 O   0  0  0  0  0  0  0  0  0  0  0  0
  148.8773  133.8119  153.7054 N   0  0  0  0  0  0  0  0  0  0  0  0
  148.5574  132.4373  153.5146 C   0  0  0  0  0  0  0  0  0  0  0  0
  149.3926  131.4034  154.0050 C   0  0  0  0  0  0  0  0  0  0  0  0
  149.0413  130.0628  153.7734 C   0  0  0  0  0  0  0  0  0  0  0  0
  147.8611  129.7997  153.0591 C   0  0  0  0  0  0  0  0  0  0  0  0
  147.0448  130.7703  152.6033 N   0  0  0  0  0  0  0  0  0  0  0  0
  147.3616  132.0687  152.8328 C   0  0  0  0  0  0  0  0  0  0  0  0
  146.4545  133.0405  152.3514 N   0  0  0  0  0  0  0  0  0  0  0  0
  145.0826  132.6236  152.0770 C   0  0  0  0  0  0  0  0  0  0  0  0
  144.6332  133.3989  150.8339 C   0  0  0  0  0  0  0  0  0  0  0  0
  145.5767  134.5969  150.7954 C   0  0  0  0  0  0  0  0  0  0  0  0
  146.8737  134.0083  151.3426 C   0  0  0  0  0  0  0  0  0  0  0  0
  149.2464  136.1173  153.7310 H   0  0  0  0  0  0  0  0  0  0  0  0
  150.0536  136.5696  156.3829 H   0  0  0  0  0  0  0  0  0  0  0  0
  151.4984  136.1861  155.4783 H   0  0  0  0  0  0  0  0  0  0  0  0
  151.2138  138.0691  153.9864 H   0  0  0  0  0  0  0  0  0  0  0  0
  148.7451  137.8778  153.6131 H   0  0  0  0  0  0  0  0  0  0  0  0
  148.4520  138.4385  155.2474 H   0  0  0  0  0  0  0  0  0  0  0  0
  147.8517  141.1632  152.8971 H   0  0  0  0  0  0  0  0  0  0  0  0
  147.0735  139.7502  153.5906 H   0  0  0  0  0  0  0  0  0  0  0  0
  147.3427  142.3635  154.7719 H   0  0  0  0  0  0  0  0  0  0  0  0
  146.7334  140.9400  155.6063 H   0  0  0  0  0  0  0  0  0  0  0  0
  149.1202  142.2108  156.3319 H   0  0  0  0  0  0  0  0  0  0  0  0
  148.7713  140.5115  156.6419 H   0  0  0  0  0  0  0  0  0  0  0  0
  150.1954  141.7049  154.2540 H   0  0  0  0  0  0  0  0  0  0  0  0
  151.9905  140.1864  154.6444 H   0  0  0  0  0  0  0  0  0  0  0  0
  151.5905  140.8156  156.2250 H   0  0  0  0  0  0  0  0  0  0  0  0
  148.5829  134.4291  152.9629 H   0  0  0  0  0  0  0  0  0  0  0  0
  150.2928  131.6150  154.5612 H   0  0  0  0  0  0  0  0  0  0  0  0
  149.6632  129.2563  154.1325 H   0  0  0  0  0  0  0  0  0  0  0  0
  147.5591  128.7833  152.8548 H   0  0  0  0  0  0  0  0  0  0  0  0
  145.0016  131.5462  151.9249 H   0  0  0  0  0  0  0  0  0  0  0  0
  144.4576  132.8947  152.9279 H   0  0  0  0  0  0  0  0  0  0  0  0
  144.7846  132.7858  149.9447 H   0  0  0  0  0  0  0  0  0  0  0  0
  143.5818  133.6849  150.8698 H   0  0  0  0  0  0  0  0  0  0  0  0
  145.6905  135.0211  149.7975 H   0  0  0  0  0  0  0  0  0  0  0  0
  145.2114  135.3809  151.4600 H   0  0  0  0  0  0  0  0  0  0  0  0
  147.5178  134.7762  151.7717 H   0  0  0  0  0  0  0  0  0  0  0  0
  147.4173  133.5179  150.5341 H   0  0  0  0  0  0  0  0  0  0  0  0
  149.6606  139.9086  153.0225 H   0  0  0  0  0  0  0  0  0  0  0  0
  1  2  2  0  0  0  0
  2  3  1  0  0  0  0
  2 14  1  0  0  0  0
  3  4  1  0  0  0  0
  3 26  1  0  0  0  0
  4  5  1  0  0  0  0
  4 27  1  0  0  0  0
  4 28  1  0  0  0  0
  5 13  1  0  0  0  0
  5  6  1  0  0  0  0
  5 29  1  0  0  0  0
  6  7  1  0  0  0  0
  6 30  1  0  0  0  0
  6 31  1  0  0  0  0
  7 11  1  0  0  0  0
  7  8  1  0  0  0  0
  7 53  1  0  0  0  0
  8  9  1  0  0  0  0
  8 32  1  0  0  0  0
  8 33  1  0  0  0  0
  9 10  1  0  0  0  0
  9 34  1  0  0  0  0
  9 35  1  0  0  0  0
 10 11  1  0  0  0  0
 10 36  1  0  0  0  0
 10 37  1  0  0  0  0
 11 12  1  0  0  0  0
 11 38  1  0  0  0  0
 12 13  1  0  0  0  0
 12 39  1  0  0  0  0
 12 40  1  0  0  0  0
 14 15  1  0  0  0  0
 14 41  1  0  0  0  0
 15 20  1  0  0  0  0
 15 16  2  0  0  0  0
 16 17  1  0  0  0  0
 16 42  1  0  0  0  0
 17 18  2  0  0  0  0
 17 43  1  0  0  0  0
 18 19  1  0  0  0  0
 18 44  1  0  0  0  0
 19 20  2  0  0  0  0
 20 21  1  0  0  0  0
 21 25  1  0  0  0  0
 21 22  1  0  0  0  0
 22 23  1  0  0  0  0
 22 45  1  0  0  0  0
 22 46  1  0  0  0  0
 23 24  1  0  0  0  0
 23 47  1  0  0  0  0
 23 48  1  0  0  0  0
 24 25  1  0  0  0  0
 24 49  1  0  0  0  0
 24 50  1  0  0  0  0
 25 51  1  0  0  0  0
 25 52  1  0  0  0  0
M  CHG  1   7   1
M  END
> <s_m_source_file>
AV-unprocessed.smi

> <i_m_source_file_index>
1830

> <i_lp_mmshare_version>
43012

> <i_f3d_flags>
0

> <s_epik_input>
W0NIMl0xW0NIMl1bQ0gyXVtDQEhdKE4xMilbQ0gyXU9bQ0BASF0oW0NIMl0yKVtDSDJdW05IXUMoPU8pW05IXWMzW2NIXVtjSF1bY0hdbmMzTjRbQ0gyXVtDSDJdW0NIMl1bQ0gyXTQ=

> <s_epik_cmdline>
J2VwaWtfcHl0aG9uJywgJy1waCcsICc3LjAnLCAnLXRuJywgJzgnLCAnLW1hJywgJzIwMCcsICctbWV0YWxfYmluZGluZycsICctaW1hZScsICc8aW5maWxlLm1hZT4nLCAnLW9tYWUnLCAnPG91dGZpbGUubWFlPic=

> <r_lp_tautomer_probability>
1

> <r_epik_Ionization_Penalty>
0.193547

> <r_epik_Ionization_Penalty_Charging>
0.10673

> <r_epik_Ionization_Penalty_Neutral>
0.0868166

> <r_epik_State_Penalty>
0.173595

> <r_epik_Charging_Adjusted_Penalty>
0.280326

> <i_epik_Tot_Q>
1

> <i_epik_Tot_abs_Q>
1

> <r_epik_Metal_State_Penalty>
0.164683

> <b_epik_Metal_Only>
0

> <s_lp_Force_Field>
OPLS_2005

> <r_lp_Energy>
64.3317

> <b_lp_Chiralities_Consistent>
1

> <s_lp_Variant>
AV-unprocessed.smi:1830-4

> <Gold.Version>
5.8.1

> <Gold.Id.Protein>
6NUR|6NUR_protein|mol2

> <Gold.PLP.Fitness>
46.8175

> <Gold.PLP.PLP>
-39.9083

> <Gold.PLP.part.hbond>
-2.9980

> <Gold.PLP.part.metal>
0.0000

> <Gold.PLP.part.buried>
-2.8528

> <Gold.PLP.part.nonpolar>
-34.0202

> <Gold.PLP.part.repulsive>
0.5987

> <Gold.PLP.ligand.clash>
0.0000

> <Gold.PLP.ligand.torsion>
0.5520

> <Gold.PLP.Chemscore.Hbond>
2.5635

> <Gold.PLP.Chemscore.CHOScore>
0.0000

> <Gold.PLP.Chemscore.Metal>
0.0000

> <Gold.Chemscore.Hbonds>
donor molecule, donor type, donor heavy atom, donor atom, acceptor molecule, acceptor atom, score
      L1  H     3    26       P1  7948  0.96
      L1  H     7    53       P1  7957  1.00
      L1  H    14    41       P1  7948  0.66

> <Gold.PLP.Chemscore.Internal.Correction>
0.3227

> <Gold.Rescore>
     Score         DG    S(hbond)    S(metal)    S(lipo)     H(rot)  DE(clash)    DE(int)     intcor
     16.65     -19.22       1.99        0.00      91.45       1.41       0.87       1.70       ----

> <Gold.Chemscore.Fitness>
16.6511

> <Gold.Chemscore.DG>
-19.2229

> <Gold.Chemscore.ZeroCoef>
-5.4800

> <Gold.Chemscore.Hbond>
1.9892

> <Gold.Chemscore.Metal>
0.0000

> <Gold.Chemscore.Lipo>
91.4537

> <Gold.Chemscore.Internal_Hbond>
0.0000

> <Gold.Chemscore.DEClash>
0.8739

> <Gold.Chemscore.DEInternal>
1.6979

> <Gold.Chemscore.Rot>
1.4067

> <Gold.Chemscore.Internal.Correction>
   9.000000E+99

> <Gold.Chemscore.Hbonds>
donor molecule, donor type, donor heavy atom, donor atom, acceptor molecule, acceptor atom, score
      L1  H     3    26       P1  7948  0.79
      L1  H     7    53       P1  7957  0.95
      L1  H    14    41       P1  7948  0.11

> <Gold.Chemscore.Hbond.Weighted>
-6.6439

> <Gold.Chemscore.Metal.Weighted>
-0.0000

> <Gold.Chemscore.Lipo.Weighted>
-10.7001

> <Gold.Chemscore.Internal_Hbond.Weighted>
0.0000

> <Gold.Chemscore.DEClash.Weighted>
0.8739

> <Gold.Chemscore.DEInternal.Weighted>
1.6979

> <Gold.Chemscore.Rot.Weighted>
3.6011

> <Gold.Chemscore.Internal.Correction.Weighted>
   9.000000E+99

> <Gold.Protein.RotatedTorsions>
[ 6907 6896 6895 6894 ] final  -18.04 input  -60.11 | X-H torsion
[ 7974 7965 7964 7962 ] final  135.30 input  175.53 | X-H torsion
[ 8008 7997 7996 7995 ] final  140.69 input   59.86 | X-H torsion
[ 10167 10162 10161 10158 ] final -136.35 input  -65.29 | X-H torsion
[ 10718 10713 10712 10709 ] final  -84.29 input   66.30 | X-H torsion
[ 10763 10752 10751 10750 ] final   70.60 input  -60.55 | X-H torsion
[ 11005 11000 10999 10996 ] final    9.59 input  -57.11 | X-H torsion

> <Gold.Protein.ActiveResidues>
 VAL166  LYS551  ARG553  GLY616  TRP617  ASP618  TYR619  PRO620  LYS621  CYS622 
 ASP623  PHE694  ASN695  SER759  ASP760  ASP761  ALA762  ILE779  LEU786  VAL792 
 PHE793  MET794  SER795  GLU796  ALA797  LYS798  CYS799  TRP800  GLU811  SER814 

> <Gold.Protein.RotatedAtoms>
  151.2841  135.0723  159.9180 H   0  0  0  0  0  0  0  0  0  0  0  0  # atno 6907 bound_to 6896
  152.5328  133.9999  159.7900 H   0  0  0  0  0  0  0  0  0  0  0  0  # atno 6908 bound_to 6896
  151.0258  133.5784  159.2697 H   0  0  0  0  0  0  0  0  0  0  0  0  # atno 6909 bound_to 6896
  144.9677  139.4640  143.5448 H   0  0  0  0  0  0  0  0  0  0  0  0  # atno 7974 bound_to 7965
  156.2976  140.2335  156.4442 H   0  0  0  0  0  0  0  0  0  0  0  0  # atno 8008 bound_to 7997
  154.8159  140.0440  157.1396 H   0  0  0  0  0  0  0  0  0  0  0  0  # atno 8009 bound_to 7997
  154.9370  140.3024  155.5143 H   0  0  0  0  0  0  0  0  0  0  0  0  # atno 8010 bound_to 7997
  139.8687  143.6985  152.2642 H   0  0  0  0  0  0  0  0  0  0  0  0  # atno 10167 bound_to 10162
  156.0008  130.4693  150.4388 H   0  0  0  0  0  0  0  0  0  0  0  0  # atno 10718 bound_to 10713
  153.0351  135.5168  154.7466 H   0  0  0  0  0  0  0  0  0  0  0  0  # atno 10763 bound_to 10752
  154.6449  135.2917  155.0061 H   0  0  0  0  0  0  0  0  0  0  0  0  # atno 10764 bound_to 10752
  154.0965  135.6642  153.4913 H   0  0  0  0  0  0  0  0  0  0  0  0  # atno 10765 bound_to 10752
  140.5240  134.0531  155.7853 H   0  0  0  0  0  0  0  0  0  0  0  0  # atno 11005 bound_to 11000
  146.3373  139.8868  142.8815 LP  0  0  0  0  0  0  0  0  0  0  0  0  # atno 17320 bound_to 7965
  145.2605  141.0075  143.3829 LP  0  0  0  0  0  0  0  0  0  0  0  0  # atno 17321 bound_to 7965
  139.7304  144.7583  151.0810 LP  0  0  0  0  0  0  0  0  0  0  0  0  # atno 17342 bound_to 10162
  140.7764  143.5095  150.9670 LP  0  0  0  0  0  0  0  0  0  0  0  0  # atno 17343 bound_to 10162
  157.2431  131.0530  151.2425 LP  0  0  0  0  0  0  0  0  0  0  0  0  # atno 17370 bound_to 10713
  157.3601  130.7127  149.6496 LP  0  0  0  0  0  0  0  0  0  0  0  0  # atno 17371 bound_to 10713
  141.1318  133.9289  157.2519 LP  0  0  0  0  0  0  0  0  0  0  0  0  # atno 17394 bound_to 11000
  139.9590  135.0159  156.9208 LP  0  0  0  0  0  0  0  0  0  0  0  0  # atno 17395 bound_to 11000

$$$$
