AV-unprocessed.smi:1913|AV-procd|sdf|7753|dock2
  -GOLD-   22720 9493D 1   1.00000     0.00000
 Structure written by MMmdl.
 40 42  0  0  0  0  0  0  0  0  1 V2000
  154.6503  139.3007  161.3462 C   0  0  0  0  0  0  0  0  0  0  0  0
  153.5866  139.4173  160.4122 O   0  0  0  0  0  0  0  0  0  0  0  0
  153.1420  140.6818  160.0899 C   0  0  0  0  0  0  0  0  0  0  0  0
  153.6872  141.8759  160.6172 C   0  0  0  0  0  0  0  0  0  0  0  0
  153.1653  143.1266  160.2388 C   0  0  0  0  0  0  0  0  0  0  0  0
  152.0890  143.2173  159.3216 C   0  0  0  0  0  0  0  0  0  0  0  0
  151.5260  144.4147  158.9279 O   0  0  0  0  0  0  0  0  0  0  0  0
  152.0421  145.6188  159.4750 C   0  0  0  0  0  0  0  0  0  0  0  0
  151.5509  142.0246  158.7802 C   0  0  0  0  0  0  0  0  0  0  0  0
  150.3889  142.0906  157.7929 C   0  0  1  0  0  0  0  0  0  0  0  0
  149.5418  143.2050  158.0061 O   0  0  0  0  0  0  0  0  0  0  0  0
  150.8954  142.0982  156.3382 C   0  0  0  0  0  0  0  0  0  0  0  0
  150.3530  140.9996  155.5608 N   0  0  0  0  0  0  0  0  0  0  0  0
  150.8801  139.7704  155.4008 C   0  0  0  0  0  0  0  0  0  0  0  0
  150.2079  138.9149  154.6350 N   0  0  0  0  0  0  0  0  0  0  0  0
  149.1176  139.6784  154.2537 C   0  0  0  0  0  0  0  0  0  0  0  0
  148.0149  139.3578  153.4298 C   0  0  0  0  0  0  0  0  0  0  0  0
  147.0086  140.3141  153.1791 C   0  0  0  0  0  0  0  0  0  0  0  0
  147.0891  141.6032  153.7451 C   0  0  0  0  0  0  0  0  0  0  0  0
  148.1783  141.9460  154.5689 C   0  0  0  0  0  0  0  0  0  0  0  0
  149.1790  140.9883  154.8174 C   0  0  0  0  0  0  0  0  0  0  0  0
  152.0746  140.7733  159.1764 C   0  0  0  0  0  0  0  0  0  0  0  0
  154.8832  138.2466  161.4967 H   0  0  0  0  0  0  0  0  0  0  0  0
  154.3779  139.7192  162.3158 H   0  0  0  0  0  0  0  0  0  0  0  0
  155.5553  139.7894  160.9826 H   0  0  0  0  0  0  0  0  0  0  0  0
  154.5061  141.8604  161.3201 H   0  0  0  0  0  0  0  0  0  0  0  0
  153.6121  144.0075  160.6736 H   0  0  0  0  0  0  0  0  0  0  0  0
  151.4810  146.4629  159.0744 H   0  0  0  0  0  0  0  0  0  0  0  0
  153.0896  145.7620  159.2068 H   0  0  0  0  0  0  0  0  0  0  0  0
  151.9389  145.6401  160.5609 H   0  0  0  0  0  0  0  0  0  0  0  0
  149.7589  141.2135  157.9436 H   0  0  0  0  0  0  0  0  0  0  0  0
  149.5596  143.7459  157.2314 H   0  0  0  0  0  0  0  0  0  0  0  0
  150.6469  143.0403  155.8472 H   0  0  0  0  0  0  0  0  0  0  0  0
  151.9826  142.0135  156.3188 H   0  0  0  0  0  0  0  0  0  0  0  0
  151.8116  139.4894  155.8701 H   0  0  0  0  0  0  0  0  0  0  0  0
  147.9431  138.3740  152.9902 H   0  0  0  0  0  0  0  0  0  0  0  0
  146.1702  140.0573  152.5484 H   0  0  0  0  0  0  0  0  0  0  0  0
  146.3145  142.3292  153.5464 H   0  0  0  0  0  0  0  0  0  0  0  0
  148.2453  142.9321  155.0045 H   0  0  0  0  0  0  0  0  0  0  0  0
  151.6526  139.8614  158.7797 H   0  0  0  0  0  0  0  0  0  0  0  0
  1  2  1  0  0  0  0
  1 23  1  0  0  0  0
  1 24  1  0  0  0  0
  1 25  1  0  0  0  0
  2  3  1  0  0  0  0
  3 22  1  0  0  0  0
  3  4  2  0  0  0  0
  4  5  1  0  0  0  0
  4 26  1  0  0  0  0
  5  6  2  0  0  0  0
  5 27  1  0  0  0  0
  6  7  1  0  0  0  0
  6  9  1  0  0  0  0
  7  8  1  0  0  0  0
  8 28  1  0  0  0  0
  8 29  1  0  0  0  0
  8 30  1  0  0  0  0
  9 10  1  0  0  0  0
  9 22  2  0  0  0  0
 10 11  1  0  0  0  0
 10 12  1  0  0  0  0
 10 31  1  0  0  0  0
 11 32  1  0  0  0  0
 12 13  1  0  0  0  0
 12 33  1  0  0  0  0
 12 34  1  0  0  0  0
 13 21  1  0  0  0  0
 13 14  1  0  0  0  0
 14 15  2  0  0  0  0
 14 35  1  0  0  0  0
 15 16  1  0  0  0  0
 16 21  2  0  0  0  0
 16 17  1  0  0  0  0
 17 18  2  0  0  0  0
 17 36  1  0  0  0  0
 18 19  1  0  0  0  0
 18 37  1  0  0  0  0
 19 20  2  0  0  0  0
 19 38  1  0  0  0  0
 20 21  1  0  0  0  0
 20 39  1  0  0  0  0
 22 40  1  0  0  0  0
M  END
> <s_m_source_file>
AV-unprocessed.smi

> <i_m_source_file_index>
1913

> <i_lp_mmshare_version>
43012

> <i_f3d_flags>
0

> <s_epik_input>
W0NIM11PYzFbY0hdW2NIXWMoT1tDSDNdKWMoW2NIXTEpW0NASF0oW09IXSlbQ0gyXW4oW2NIXW4yKWMoYzIzKVtjSF1bY0hdW2NIXVtjSF0z

> <s_epik_cmdline>
J2VwaWtfcHl0aG9uJywgJy1waCcsICc3LjAnLCAnLXRuJywgJzgnLCAnLW1hJywgJzIwMCcsICctbWV0YWxfYmluZGluZycsICctaW1hZScsICc8aW5maWxlLm1hZT4nLCAnLW9tYWUnLCAnPG91dGZpbGUubWFlPic=

> <r_lp_tautomer_probability>
1

> <r_epik_Ionization_Penalty>
0.0696512

> <r_epik_Ionization_Penalty_Charging>
0

> <r_epik_Ionization_Penalty_Neutral>
0.0696512

> <r_epik_State_Penalty>
0.0610247

> <r_epik_Charging_Adjusted_Penalty>
0.0610247

> <i_epik_Tot_Q>
0

> <i_epik_Tot_abs_Q>
0

> <r_epik_Metal_State_Penalty>
6.42746e-05

> <b_epik_Metal_Only>
0

> <s_lp_Force_Field>
OPLS_2005

> <r_lp_Energy>
19.1382

> <b_lp_Chiralities_Consistent>
1

> <s_lp_Variant>
AV-unprocessed.smi:1913-2

> <Gold.Version>
5.8.1

> <Gold.Id.Protein>
6NUR|6NUR_protein|mol2

> <Gold.PLP.Fitness>
48.9987

> <Gold.PLP.PLP>
-49.6573

> <Gold.PLP.part.hbond>
-1.0000

> <Gold.PLP.part.metal>
0.0000

> <Gold.PLP.part.buried>
-2.5286

> <Gold.PLP.part.nonpolar>
-45.6908

> <Gold.PLP.part.repulsive>
0.2329

> <Gold.PLP.ligand.clash>
0.0000

> <Gold.PLP.ligand.torsion>
1.8481

> <Gold.PLP.Chemscore.Hbond>
1.0000

> <Gold.PLP.Chemscore.CHOScore>
0.0000

> <Gold.PLP.Chemscore.Metal>
0.0000

> <Gold.Chemscore.Hbonds>
donor molecule, donor type, donor heavy atom, donor atom, acceptor molecule, acceptor atom, score
      L1  H    11    32       P1  8028  1.00

> <Gold.PLP.Chemscore.Internal.Correction>
0.0376

> <Gold.Rescore>
     Score         DG    S(hbond)    S(metal)    S(lipo)     H(rot)  DE(clash)    DE(int)     intcor
     16.05     -18.16       0.85        0.00     135.04       2.33       0.32       1.79       ----

> <Gold.Chemscore.Fitness>
16.0501

> <Gold.Chemscore.DG>
-18.1627

> <Gold.Chemscore.ZeroCoef>
-5.4800

> <Gold.Chemscore.Hbond>
0.8546

> <Gold.Chemscore.Metal>
0.0000

> <Gold.Chemscore.Lipo>
135.0368

> <Gold.Chemscore.Internal_Hbond>
0.0000

> <Gold.Chemscore.DEClash>
0.3199

> <Gold.Chemscore.DEInternal>
1.7927

> <Gold.Chemscore.Rot>
2.3323

> <Gold.Chemscore.Internal.Correction>
   9.000000E+99

> <Gold.Chemscore.Hbonds>
donor molecule, donor type, donor heavy atom, donor atom, acceptor molecule, acceptor atom, score
      L1  H    11    32       P1  8028  0.73

> <Gold.Chemscore.Hbond.Weighted>
-2.8542

> <Gold.Chemscore.Metal.Weighted>
-0.0000

> <Gold.Chemscore.Lipo.Weighted>
-15.7993

> <Gold.Chemscore.Internal_Hbond.Weighted>
0.0000

> <Gold.Chemscore.DEClash.Weighted>
0.3199

> <Gold.Chemscore.DEInternal.Weighted>
1.7927

> <Gold.Chemscore.Rot.Weighted>
5.9708

> <Gold.Chemscore.Internal.Correction.Weighted>
   9.000000E+99

> <Gold.Protein.RotatedTorsions>
[ 6907 6896 6895 6894 ] final  -50.67 input  -60.11 | X-H torsion
[ 7974 7965 7964 7962 ] final   32.08 input  175.53 | X-H torsion
[ 8008 7997 7996 7995 ] final   12.36 input   59.86 | X-H torsion
[ 10167 10162 10161 10158 ] final  163.43 input  -65.29 | X-H torsion
[ 10718 10713 10712 10709 ] final  170.26 input   66.30 | X-H torsion
[ 10763 10752 10751 10750 ] final  -69.72 input  -60.55 | X-H torsion
[ 11005 11000 10999 10996 ] final  -26.46 input  -57.11 | X-H torsion

> <Gold.Protein.ActiveResidues>
 VAL166  LYS551  ARG553  GLY616  TRP617  ASP618  TYR619  PRO620  LYS621  CYS622 
 ASP623  PHE694  ASN695  SER759  ASP760  ASP761  ALA762  ILE779  LEU786  VAL792 
 PHE793  MET794  SER795  GLU796  ALA797  LYS798  CYS799  TRP800  GLU811  SER814 

> <Gold.Protein.RotatedAtoms>
  150.8685  134.8054  159.7136 H   0  0  0  0  0  0  0  0  0  0  0  0  # atno 6907 bound_to 6896
  152.4698  134.4985  159.9727 H   0  0  0  0  0  0  0  0  0  0  0  0  # atno 6908 bound_to 6896
  151.5077  133.3453  159.2915 H   0  0  0  0  0  0  0  0  0  0  0  0  # atno 6909 bound_to 6896
  146.1509  139.6572  142.9099 H   0  0  0  0  0  0  0  0  0  0  0  0  # atno 7974 bound_to 7965
  154.8195  140.2881  155.5797 H   0  0  0  0  0  0  0  0  0  0  0  0  # atno 8008 bound_to 7997
  156.2996  140.2553  156.3030 H   0  0  0  0  0  0  0  0  0  0  0  0  # atno 8009 bound_to 7997
  154.9355  140.0382  157.2059 H   0  0  0  0  0  0  0  0  0  0  0  0  # atno 8010 bound_to 7997
  139.4874  144.4338  151.9037 H   0  0  0  0  0  0  0  0  0  0  0  0  # atno 10167 bound_to 10162
  157.0107  131.0203  151.2804 H   0  0  0  0  0  0  0  0  0  0  0  0  # atno 10718 bound_to 10713
  154.4075  135.6017  153.5933 H   0  0  0  0  0  0  0  0  0  0  0  0  # atno 10763 bound_to 10752
  152.9789  135.5921  154.4110 H   0  0  0  0  0  0  0  0  0  0  0  0  # atno 10764 bound_to 10752
  154.3918  135.2842  155.2128 H   0  0  0  0  0  0  0  0  0  0  0  0  # atno 10765 bound_to 10752
  140.9031  133.7510  156.0570 H   0  0  0  0  0  0  0  0  0  0  0  0  # atno 11005 bound_to 11000
  145.4825  141.0438  143.2638 LP  0  0  0  0  0  0  0  0  0  0  0  0  # atno 17320 bound_to 7965
  144.7903  139.6342  143.7116 LP  0  0  0  0  0  0  0  0  0  0  0  0  # atno 17321 bound_to 7965
  140.3787  144.2764  150.5911 LP  0  0  0  0  0  0  0  0  0  0  0  0  # atno 17342 bound_to 10162
  140.5253  143.2256  151.8324 LP  0  0  0  0  0  0  0  0  0  0  0  0  # atno 17343 bound_to 10162
  157.5322  130.8066  149.7930 LP  0  0  0  0  0  0  0  0  0  0  0  0  # atno 17370 bound_to 10713
  156.0137  130.3822  150.2180 LP  0  0  0  0  0  0  0  0  0  0  0  0  # atno 17371 bound_to 10713
  140.8205  134.3295  157.5383 LP  0  0  0  0  0  0  0  0  0  0  0  0  # atno 17394 bound_to 11000
  139.8745  134.9306  156.3507 LP  0  0  0  0  0  0  0  0  0  0  0  0  # atno 17395 bound_to 11000

$$$$
