AV-unprocessed.smi:1216|AV-procd|sdf|5098|dock3
  -GOLD-   22720 4153D 1   1.00000     0.00000
 Structure written by MMmdl.
 43 44  0  0  0  0  0  0  0  0  2 V2000
  151.0793  138.6712  154.4421 C   0  0  0  0  0  0  0  0  0  0  0  0
  150.1628  138.5680  155.6683 C   0  0  2  0  0  0  0  0  0  0  0  0
  148.7097  138.2464  155.2573 C   0  0  0  0  0  0  0  0  0  0  0  0
  148.1299  139.2595  154.3682 N   0  0  0  0  0  0  0  0  0  0  0  0
  147.7156  140.5224  154.7052 C   0  0  0  0  0  0  0  0  0  0  0  0
  147.2685  141.1088  153.5492 C   0  0  0  0  0  0  0  0  0  0  0  0
  147.4228  140.1777  152.5575 N   0  3  0  0  0  0  0  0  0  0  0  0
  147.9405  139.0519  153.0587 C   0  0  0  0  0  0  0  0  0  0  0  0
  150.2267  139.8231  156.4165 N   0  0  0  0  0  0  0  0  0  0  0  0
  151.2972  140.2827  157.0832 C   0  0  0  0  0  0  0  0  0  0  0  0
  152.3822  139.6996  157.1049 O   0  0  0  0  0  0  0  0  0  0  0  0
  151.1020  141.5994  157.8455 C   0  0  0  0  0  0  0  0  0  0  0  0
  152.1800  141.8651  158.8106 N   0  0  0  0  0  0  0  0  0  0  0  0
  152.7312  143.2294  158.8283 C   0  0  0  0  0  0  0  0  0  0  0  0
  152.3804  144.0265  160.1059 C   0  0  0  0  0  0  0  0  0  0  0  0
  152.2040  143.2009  161.3957 C   0  0  0  0  0  0  0  0  0  0  0  0
  153.3692  142.2439  161.7231 C   0  0  0  0  0  0  0  0  0  0  0  0
  153.7793  141.2476  160.6123 C   0  0  0  0  0  0  0  0  0  0  0  0
  152.6527  140.8908  159.6288 C   0  0  0  0  0  0  0  0  0  0  0  0
  152.2234  139.7363  159.6147 O   0  0  0  0  0  0  0  0  0  0  0  0
  151.0765  137.7424  153.8708 H   0  0  0  0  0  0  0  0  0  0  0  0
  152.1100  138.8703  154.7379 H   0  0  0  0  0  0  0  0  0  0  0  0
  150.7630  139.4733  153.7742 H   0  0  0  0  0  0  0  0  0  0  0  0
  150.5416  137.7503  156.2844 H   0  0  0  0  0  0  0  0  0  0  0  0
  148.6512  137.2746  154.7642 H   0  0  0  0  0  0  0  0  0  0  0  0
  148.0705  138.1912  156.1395 H   0  0  0  0  0  0  0  0  0  0  0  0
  147.7775  140.9034  155.7142 H   0  0  0  0  0  0  0  0  0  0  0  0
  146.8647  142.0933  153.3629 H   0  0  0  0  0  0  0  0  0  0  0  0
  148.1762  138.1586  152.5080 H   0  0  0  0  0  0  0  0  0  0  0  0
  149.3822  140.3762  156.4460 H   0  0  0  0  0  0  0  0  0  0  0  0
  151.0286  142.4102  157.1199 H   0  0  0  0  0  0  0  0  0  0  0  0
  150.1402  141.5863  158.3618 H   0  0  0  0  0  0  0  0  0  0  0  0
  153.8134  143.1806  158.7085 H   0  0  0  0  0  0  0  0  0  0  0  0
  152.3985  143.7922  157.9554 H   0  0  0  0  0  0  0  0  0  0  0  0
  153.1411  144.7918  160.2628 H   0  0  0  0  0  0  0  0  0  0  0  0
  151.4507  144.5691  159.9308 H   0  0  0  0  0  0  0  0  0  0  0  0
  152.0644  143.8851  162.2334 H   0  0  0  0  0  0  0  0  0  0  0  0
  151.2737  142.6341  161.3379 H   0  0  0  0  0  0  0  0  0  0  0  0
  154.2437  142.8343  161.9983 H   0  0  0  0  0  0  0  0  0  0  0  0
  153.1046  141.6804  162.6186 H   0  0  0  0  0  0  0  0  0  0  0  0
  154.6269  141.6402  160.0509 H   0  0  0  0  0  0  0  0  0  0  0  0
  154.1536  140.3331  161.0739 H   0  0  0  0  0  0  0  0  0  0  0  0
  147.1855  140.3189  151.5837 H   0  0  0  0  0  0  0  0  0  0  0  0
  1  2  1  0  0  0  0
  1 21  1  0  0  0  0
  1 22  1  0  0  0  0
  1 23  1  0  0  0  0
  2  3  1  0  0  0  0
  2  9  1  0  0  0  0
  2 24  1  0  0  0  0
  3  4  1  0  0  0  0
  3 25  1  0  0  0  0
  3 26  1  0  0  0  0
  4  8  1  0  0  0  0
  4  5  1  0  0  0  0
  5  6  2  0  0  0  0
  5 27  1  0  0  0  0
  6  7  1  0  0  0  0
  6 28  1  0  0  0  0
  7  8  2  0  0  0  0
  7 43  1  0  0  0  0
  8 29  1  0  0  0  0
  9 10  1  0  0  0  0
  9 30  1  0  0  0  0
 10 11  2  0  0  0  0
 10 12  1  0  0  0  0
 12 13  1  0  0  0  0
 12 31  1  0  0  0  0
 12 32  1  0  0  0  0
 13 19  1  0  0  0  0
 13 14  1  0  0  0  0
 14 15  1  0  0  0  0
 14 33  1  0  0  0  0
 14 34  1  0  0  0  0
 15 16  1  0  0  0  0
 15 35  1  0  0  0  0
 15 36  1  0  0  0  0
 16 17  1  0  0  0  0
 16 37  1  0  0  0  0
 16 38  1  0  0  0  0
 17 18  1  0  0  0  0
 17 39  1  0  0  0  0
 17 40  1  0  0  0  0
 18 19  1  0  0  0  0
 18 41  1  0  0  0  0
 18 42  1  0  0  0  0
 19 20  2  0  0  0  0
M  CHG  1   7   1
M  END
> <s_m_source_file>
AV-unprocessed.smi

> <i_m_source_file_index>
1216

> <i_lp_mmshare_version>
43012

> <i_f3d_flags>
0

> <s_epik_input>
W2NIXTFuW2NIXVtjSF1uMVtDSDJdW0NAQEhdKFtDSDNdKVtOSF1DKD1PKVtDSDJdTjJbQ0gyXVtDSDJdW0NIMl1bQ0gyXVtDSDJdQzI9Tw==

> <s_epik_cmdline>
J2VwaWtfcHl0aG9uJywgJy1waCcsICc3LjAnLCAnLXRuJywgJzgnLCAnLW1hJywgJzIwMCcsICctbWV0YWxfYmluZGluZycsICctaW1hZScsICc8aW5maWxlLm1hZT4nLCAnLW9tYWUnLCAnPG91dGZpbGUubWFlPic=

> <r_lp_tautomer_probability>
1

> <r_epik_Ionization_Penalty>
0.254232

> <r_epik_Ionization_Penalty_Charging>
0

> <r_epik_Ionization_Penalty_Neutral>
0.254232

> <r_epik_State_Penalty>
0.245698

> <r_epik_Charging_Adjusted_Penalty>
0.245698

> <i_epik_Tot_Q>
1

> <i_epik_Tot_abs_Q>
1

> <r_epik_Metal_State_Penalty>
0.535799

> <b_epik_Metal_Only>
0

> <s_lp_Force_Field>
OPLS_2005

> <r_lp_Energy>
19.3608

> <b_lp_Chiralities_Consistent>
1

> <s_lp_Variant>
AV-unprocessed.smi:1216-1

> <Gold.Version>
5.8.1

> <Gold.Id.Protein>
6NUR|6NUR_protein|mol2

> <Gold.PLP.Fitness>
44.1784

> <Gold.PLP.PLP>
-38.8258

> <Gold.PLP.part.hbond>
-2.0000

> <Gold.PLP.part.metal>
0.0000

> <Gold.PLP.part.buried>
-1.8806

> <Gold.PLP.part.nonpolar>
-33.3994

> <Gold.PLP.part.repulsive>
0.1112

> <Gold.PLP.ligand.clash>
0.0000

> <Gold.PLP.ligand.torsion>
0.6076

> <Gold.PLP.Chemscore.Hbond>
1.0000

> <Gold.PLP.Chemscore.CHOScore>
1.1586

> <Gold.PLP.Chemscore.Metal>
0.0000

> <Gold.Chemscore.Hbonds>
donor molecule, donor type, donor heavy atom, donor atom, acceptor molecule, acceptor atom, score
      P1  H  7997  8008       L1    11  0.80
      L1  C     8    29       P1  7948  1.00

> <Gold.PLP.Chemscore.Internal.Correction>
0.0918

> <Gold.Rescore>
     Score         DG    S(hbond)    S(metal)    S(lipo)     H(rot)  DE(clash)    DE(int)     intcor
      9.52     -14.06       0.91        0.00      95.73       2.22       0.19       4.35       ----

> <Gold.Chemscore.Fitness>
9.5204

> <Gold.Chemscore.DG>
-14.0579

> <Gold.Chemscore.ZeroCoef>
-5.4800

> <Gold.Chemscore.Hbond>
0.9134

> <Gold.Chemscore.Metal>
0.0000

> <Gold.Chemscore.Lipo>
95.7297

> <Gold.Chemscore.Internal_Hbond>
0.0000

> <Gold.Chemscore.DEClash>
0.1898

> <Gold.Chemscore.DEInternal>
4.3476

> <Gold.Chemscore.Rot>
2.2161

> <Gold.Chemscore.Internal.Correction>
   9.000000E+99

> <Gold.Chemscore.Hbonds>
donor molecule, donor type, donor heavy atom, donor atom, acceptor molecule, acceptor atom, score
      P1  H  7997  8008       L1    11  0.78

> <Gold.Chemscore.Hbond.Weighted>
-3.0507

> <Gold.Chemscore.Metal.Weighted>
-0.0000

> <Gold.Chemscore.Lipo.Weighted>
-11.2004

> <Gold.Chemscore.Internal_Hbond.Weighted>
0.0000

> <Gold.Chemscore.DEClash.Weighted>
0.1898

> <Gold.Chemscore.DEInternal.Weighted>
4.3476

> <Gold.Chemscore.Rot.Weighted>
5.6733

> <Gold.Chemscore.Internal.Correction.Weighted>
   9.000000E+99

> <Gold.Protein.RotatedTorsions>
[ 6907 6896 6895 6894 ] final  -94.52 input  -60.11 | X-H torsion
[ 7974 7965 7964 7962 ] final -157.89 input  175.53 | X-H torsion
[ 8008 7997 7996 7995 ] final  -46.90 input   59.86 | X-H torsion
[ 10167 10162 10161 10158 ] final  163.96 input  -65.29 | X-H torsion
[ 10718 10713 10712 10709 ] final   -0.19 input   66.30 | X-H torsion
[ 10763 10752 10751 10750 ] final  -63.98 input  -60.55 | X-H torsion
[ 11005 11000 10999 10996 ] final -127.07 input  -57.11 | X-H torsion

> <Gold.Protein.ActiveResidues>
 VAL166  LYS551  ARG553  GLY616  TRP617  ASP618  TYR619  PRO620  LYS621  CYS622 
 ASP623  PHE694  ASN695  SER759  ASP760  ASP761  ALA762  ILE779  LEU786  VAL792 
 PHE793  MET794  SER795  GLU796  ALA797  LYS798  CYS799  TRP800  GLU811  SER814 

> <Gold.Protein.RotatedAtoms>
  150.6943  134.1800  159.4244 H   0  0  0  0  0  0  0  0  0  0  0  0  # atno 6907 bound_to 6896
  151.9774  135.0043  160.0565 H   0  0  0  0  0  0  0  0  0  0  0  0  # atno 6908 bound_to 6896
  152.1786  133.4657  159.4983 H   0  0  0  0  0  0  0  0  0  0  0  0  # atno 6909 bound_to 6896
  144.7529  140.3905  143.6034 H   0  0  0  0  0  0  0  0  0  0  0  0  # atno 7974 bound_to 7965
  154.4011  140.1360  156.4086 H   0  0  0  0  0  0  0  0  0  0  0  0  # atno 8008 bound_to 7997
  155.7755  140.3483  155.5249 H   0  0  0  0  0  0  0  0  0  0  0  0  # atno 8009 bound_to 7997
  155.8725  140.0974  157.1531 H   0  0  0  0  0  0  0  0  0  0  0  0  # atno 8010 bound_to 7997
  139.4881  144.4283  151.9102 H   0  0  0  0  0  0  0  0  0  0  0  0  # atno 10167 bound_to 10162
  156.8240  130.5466  149.5694 H   0  0  0  0  0  0  0  0  0  0  0  0  # atno 10718 bound_to 10713
  154.3232  135.6192  153.5517 H   0  0  0  0  0  0  0  0  0  0  0  0  # atno 10763 bound_to 10752
  152.9818  135.5729  154.5046 H   0  0  0  0  0  0  0  0  0  0  0  0  # atno 10764 bound_to 10752
  154.4718  135.2859  155.1613 H   0  0  0  0  0  0  0  0  0  0  0  0  # atno 10765 bound_to 10752
  140.9630  134.0910  157.3949 H   0  0  0  0  0  0  0  0  0  0  0  0  # atno 11005 bound_to 11000
  145.6882  139.1633  143.2662 LP  0  0  0  0  0  0  0  0  0  0  0  0  # atno 17320 bound_to 7965
  146.1502  140.6936  142.9326 LP  0  0  0  0  0  0  0  0  0  0  0  0  # atno 17321 bound_to 7965
  140.3730  144.2831  150.5917 LP  0  0  0  0  0  0  0  0  0  0  0  0  # atno 17342 bound_to 10162
  140.5302  143.2245  151.8251 LP  0  0  0  0  0  0  0  0  0  0  0  0  # atno 17343 bound_to 10162
  156.0972  130.5941  150.9833 LP  0  0  0  0  0  0  0  0  0  0  0  0  # atno 17370 bound_to 10713
  157.6442  131.0906  150.8189 LP  0  0  0  0  0  0  0  0  0  0  0  0  # atno 17371 bound_to 10713
  139.8884  135.0098  156.6621 LP  0  0  0  0  0  0  0  0  0  0  0  0  # atno 17394 bound_to 11000
  140.7440  133.8953  155.8298 LP  0  0  0  0  0  0  0  0  0  0  0  0  # atno 17395 bound_to 11000

$$$$
