AV-unprocessed.smi:1879|AV-procd|sdf|7634|dock4
  -GOLD-   22720 9363D 1   1.00000     0.00000
 Structure written by MMmdl.
 47 49  0  0  0  0  0  0  0  0  2 V2000
  150.6171  140.9775  156.7050 O   0  0  0  0  0  0  0  0  0  0  0  0
  149.9926  142.0260  156.5439 C   0  0  0  0  0  0  0  0  0  0  0  0
  148.9417  142.1830  155.7216 N   0  0  0  0  0  0  0  0  0  0  0  0
  148.3292  141.2149  154.8755 C   0  0  0  0  0  0  0  0  0  0  0  0
  148.8923  139.9244  154.6989 C   0  0  0  0  0  0  0  0  0  0  0  0
  148.2721  138.9980  153.8397 C   0  0  0  0  0  0  0  0  0  0  0  0
  147.0944  139.3728  153.1714 C   0  0  0  0  0  0  0  0  0  0  0  0
  146.5722  140.5995  153.3759 N   0  3  0  0  0  0  0  0  0  0  0  0
  147.1134  141.5300  154.2012 C   0  0  0  0  0  0  0  0  0  0  0  0
  146.4432  142.7683  154.3284 N   0  0  0  0  0  0  0  0  0  0  0  0
  146.1882  143.5937  153.1534 C   0  0  0  0  0  0  0  0  0  0  0  0
  145.1579  144.6234  153.6085 C   0  0  0  0  0  0  0  0  0  0  0  0
  144.3081  143.8234  154.5907 C   0  0  0  0  0  0  0  0  0  0  0  0
  145.3117  142.8678  155.2450 C   0  0  0  0  0  0  0  0  0  0  0  0
  150.2979  143.1753  157.1625 N   0  0  0  0  0  0  0  0  0  0  0  0
  151.3906  143.3589  158.1129 C   0  0  2  0  0  0  0  0  0  0  0  0
  151.4617  142.1400  159.0508 C   0  0  0  0  0  0  0  0  0  0  0  0
  152.5587  142.3060  160.1168 C   0  0  0  0  0  0  0  0  0  0  0  0
  152.4007  143.6125  160.9166 C   0  0  2  0  0  0  0  0  0  0  0  0
  151.2605  143.5345  161.7491 O   0  0  0  0  0  0  0  0  0  0  0  0
  152.2921  144.8344  159.9855 C   0  0  0  0  0  0  0  0  0  0  0  0
  151.1967  144.6597  158.9188 C   0  0  0  0  0  0  0  0  0  0  0  0
  148.5984  143.1268  155.6215 H   0  0  0  0  0  0  0  0  0  0  0  0
  149.7911  139.6246  155.2156 H   0  0  0  0  0  0  0  0  0  0  0  0
  148.6961  138.0150  153.6955 H   0  0  0  0  0  0  0  0  0  0  0  0
  146.5523  138.7312  152.4919 H   0  0  0  0  0  0  0  0  0  0  0  0
  147.1016  144.0676  152.7925 H   0  0  0  0  0  0  0  0  0  0  0  0
  145.7697  142.9915  152.3457 H   0  0  0  0  0  0  0  0  0  0  0  0
  145.6531  145.4451  154.1282 H   0  0  0  0  0  0  0  0  0  0  0  0
  144.5802  145.0410  152.7835 H   0  0  0  0  0  0  0  0  0  0  0  0
  143.7870  144.4518  155.3135 H   0  0  0  0  0  0  0  0  0  0  0  0
  143.5592  143.2504  154.0426 H   0  0  0  0  0  0  0  0  0  0  0  0
  144.8587  141.8963  155.4480 H   0  0  0  0  0  0  0  0  0  0  0  0
  145.6616  143.2854  156.1895 H   0  0  0  0  0  0  0  0  0  0  0  0
  149.7335  143.9884  156.9639 H   0  0  0  0  0  0  0  0  0  0  0  0
  152.3329  143.4200  157.5645 H   0  0  0  0  0  0  0  0  0  0  0  0
  150.4985  141.9941  159.5422 H   0  0  0  0  0  0  0  0  0  0  0  0
  151.6500  141.2347  158.4724 H   0  0  0  0  0  0  0  0  0  0  0  0
  152.5600  141.4479  160.7900 H   0  0  0  0  0  0  0  0  0  0  0  0
  153.5321  142.3066  159.6246 H   0  0  0  0  0  0  0  0  0  0  0  0
  153.2645  143.7370  161.5707 H   0  0  0  0  0  0  0  0  0  0  0  0
  151.4446  143.9933  162.5545 H   0  0  0  0  0  0  0  0  0  0  0  0
  152.1084  145.7388  160.5670 H   0  0  0  0  0  0  0  0  0  0  0  0
  153.2496  144.9851  159.4852 H   0  0  0  0  0  0  0  0  0  0  0  0
  151.2035  145.5217  158.2507 H   0  0  0  0  0  0  0  0  0  0  0  0
  150.2179  144.6537  159.4005 H   0  0  0  0  0  0  0  0  0  0  0  0
  145.7104  140.8379  152.8850 H   0  0  0  0  0  0  0  0  0  0  0  0
  1  2  2  0  0  0  0
  2  3  1  0  0  0  0
  2 15  1  0  0  0  0
  3  4  1  0  0  0  0
  3 23  1  0  0  0  0
  4  9  1  0  0  0  0
  4  5  2  0  0  0  0
  5  6  1  0  0  0  0
  5 24  1  0  0  0  0
  6  7  2  0  0  0  0
  6 25  1  0  0  0  0
  7  8  1  0  0  0  0
  7 26  1  0  0  0  0
  8  9  2  0  0  0  0
  8 47  1  0  0  0  0
  9 10  1  0  0  0  0
 10 14  1  0  0  0  0
 10 11  1  0  0  0  0
 11 12  1  0  0  0  0
 11 27  1  0  0  0  0
 11 28  1  0  0  0  0
 12 13  1  0  0  0  0
 12 29  1  0  0  0  0
 12 30  1  0  0  0  0
 13 14  1  0  0  0  0
 13 31  1  0  0  0  0
 13 32  1  0  0  0  0
 14 33  1  0  0  0  0
 14 34  1  0  0  0  0
 15 16  1  0  0  0  0
 15 35  1  0  0  0  0
 16 22  1  0  0  0  0
 16 17  1  0  0  0  0
 16 36  1  0  0  0  0
 17 18  1  0  0  0  0
 17 37  1  0  0  0  0
 17 38  1  0  0  0  0
 18 19  1  0  0  0  0
 18 39  1  0  0  0  0
 18 40  1  0  0  0  0
 19 20  1  0  0  0  0
 19 21  1  0  0  0  0
 19 41  1  0  0  0  0
 20 42  1  0  0  0  0
 21 22  1  0  0  0  0
 21 43  1  0  0  0  0
 21 44  1  0  0  0  0
 22 45  1  0  0  0  0
 22 46  1  0  0  0  0
M  CHG  1   8   1
M  END
> <s_m_source_file>
AV-unprocessed.smi

> <i_m_source_file_index>
1879

> <i_lp_mmshare_version>
43012

> <i_f3d_flags>
0

> <s_epik_input>
W0NIMl0xW0NIMl1bQ0BIXShbT0hdKVtDSDJdW0NIMl1bQ0BIXTFbTkhdQyg9TylbTkhdYzJbY0hdW2NIXVtjSF1uYzJOM1tDSDJdW0NIMl1bQ0gyXVtDSDJdMw==

> <s_epik_cmdline>
J2VwaWtfcHl0aG9uJywgJy1waCcsICc3LjAnLCAnLXRuJywgJzgnLCAnLW1hJywgJzIwMCcsICctbWV0YWxfYmluZGluZycsICctaW1hZScsICc8aW5maWxlLm1hZT4nLCAnLW9tYWUnLCAnPG91dGZpbGUubWFlPic=

> <r_lp_tautomer_probability>
0.999994

> <r_epik_Ionization_Penalty>
1.08454

> <r_epik_Ionization_Penalty_Charging>
1.08452

> <r_epik_Ionization_Penalty_Neutral>
2.17987e-05

> <r_epik_State_Penalty>
1.14025

> <r_epik_Charging_Adjusted_Penalty>
2.22477

> <i_epik_Tot_Q>
1

> <i_epik_Tot_abs_Q>
1

> <r_epik_Metal_State_Penalty>
1.22973

> <b_epik_Metal_Only>
0

> <s_lp_Force_Field>
OPLS_2005

> <r_lp_Energy>
43.5089

> <b_lp_Chiralities_Consistent>
1

> <s_lp_Variant>
AV-unprocessed.smi:1879-4

> <Gold.Version>
5.8.1

> <Gold.Id.Protein>
6NUR|6NUR_protein|mol2

> <Gold.PLP.Fitness>
58.1314

> <Gold.PLP.PLP>
-46.6365

> <Gold.PLP.part.hbond>
-5.0000

> <Gold.PLP.part.metal>
0.0000

> <Gold.PLP.part.buried>
-6.6547

> <Gold.PLP.part.nonpolar>
-35.5689

> <Gold.PLP.part.repulsive>
0.3507

> <Gold.PLP.ligand.clash>
0.0000

> <Gold.PLP.ligand.torsion>
0.5620

> <Gold.PLP.Chemscore.Hbond>
4.0812

> <Gold.PLP.Chemscore.CHOScore>
0.0000

> <Gold.PLP.Chemscore.Metal>
0.0000

> <Gold.Chemscore.Hbonds>
donor molecule, donor type, donor heavy atom, donor atom, acceptor molecule, acceptor atom, score
      L1  H     3    23       P1  8028  1.00
      L1  H     8    47       P1 10175  1.72
      L1  H    15    35       P1  8028  0.83
      P1  H  6933  6945       L1    20  0.28

> <Gold.PLP.Chemscore.Internal.Correction>
0.3753

> <Gold.Rescore>
     Score         DG    S(hbond)    S(metal)    S(lipo)     H(rot)  DE(clash)    DE(int)     intcor
     19.03     -22.46       2.46        0.00     112.08       1.69       0.51       2.93       ----

> <Gold.Chemscore.Fitness>
19.0256

> <Gold.Chemscore.DG>
-22.4635

> <Gold.Chemscore.ZeroCoef>
-5.4800

> <Gold.Chemscore.Hbond>
2.4564

> <Gold.Chemscore.Metal>
0.0000

> <Gold.Chemscore.Lipo>
112.0765

> <Gold.Chemscore.Internal_Hbond>
0.0000

> <Gold.Chemscore.DEClash>
0.5117

> <Gold.Chemscore.DEInternal>
2.9262

> <Gold.Chemscore.Rot>
1.6929

> <Gold.Chemscore.Internal.Correction>
   9.000000E+99

> <Gold.Chemscore.Hbonds>
donor molecule, donor type, donor heavy atom, donor atom, acceptor molecule, acceptor atom, score
      L1  H     3    23       P1  8028  0.93
      L1  H     8    47       P1 10175  0.32
      L1  H    15    35       P1  8028  0.73
      P1  H  6933  6945       L1    20  0.18

> <Gold.Chemscore.Hbond.Weighted>
-8.2043

> <Gold.Chemscore.Metal.Weighted>
-0.0000

> <Gold.Chemscore.Lipo.Weighted>
-13.1129

> <Gold.Chemscore.Internal_Hbond.Weighted>
0.0000

> <Gold.Chemscore.DEClash.Weighted>
0.5117

> <Gold.Chemscore.DEInternal.Weighted>
2.9262

> <Gold.Chemscore.Rot.Weighted>
4.3338

> <Gold.Chemscore.Internal.Correction.Weighted>
   9.000000E+99

> <Gold.Protein.RotatedTorsions>
[ 6907 6896 6895 6894 ] final   72.54 input  -60.11 | X-H torsion
[ 7974 7965 7964 7962 ] final   62.37 input  175.53 | X-H torsion
[ 8008 7997 7996 7995 ] final   30.11 input   59.86 | X-H torsion
[ 10167 10162 10161 10158 ] final -114.82 input  -65.29 | X-H torsion
[ 10718 10713 10712 10709 ] final  -61.90 input   66.30 | X-H torsion
[ 10763 10752 10751 10750 ] final   35.55 input  -60.55 | X-H torsion
[ 11005 11000 10999 10996 ] final -104.52 input  -57.11 | X-H torsion

> <Gold.Protein.ActiveResidues>
 VAL166  LYS551  ARG553  GLY616  TRP617  ASP618  TYR619  PRO620  LYS621  CYS622 
 ASP623  PHE694  ASN695  SER759  ASP760  ASP761  ALA762  ILE779  LEU786  VAL792 
 PHE793  MET794  SER795  GLU796  ALA797  LYS798  CYS799  TRP800  GLU811  SER814 

> <Gold.Protein.RotatedAtoms>
  152.4873  134.4556  159.9588 H   0  0  0  0  0  0  0  0  0  0  0  0  # atno 6907 bound_to 6896
  151.4550  133.3601  159.2808 H   0  0  0  0  0  0  0  0  0  0  0  0  # atno 6908 bound_to 6896
  150.8995  134.8431  159.7411 H   0  0  0  0  0  0  0  0  0  0  0  0  # atno 6909 bound_to 6896
  145.8742  139.3398  143.0745 H   0  0  0  0  0  0  0  0  0  0  0  0  # atno 7974 bound_to 7965
  155.0852  140.3214  155.4590 H   0  0  0  0  0  0  0  0  0  0  0  0  # atno 8008 bound_to 7997
  156.2757  140.2088  156.5925 H   0  0  0  0  0  0  0  0  0  0  0  0  # atno 8009 bound_to 7997
  154.6947  140.0513  157.0386 H   0  0  0  0  0  0  0  0  0  0  0  0  # atno 8010 bound_to 7997
  140.0968  143.4649  152.1837 H   0  0  0  0  0  0  0  0  0  0  0  0  # atno 10167 bound_to 10162
  156.0891  130.4203  150.1059 H   0  0  0  0  0  0  0  0  0  0  0  0  # atno 10718 bound_to 10713
  153.0114  135.6330  154.1844 H   0  0  0  0  0  0  0  0  0  0  0  0  # atno 10763 bound_to 10752
  154.1586  135.2825  155.3117 H   0  0  0  0  0  0  0  0  0  0  0  0  # atno 10764 bound_to 10752
  154.5999  135.5591  153.7424 H   0  0  0  0  0  0  0  0  0  0  0  0  # atno 10765 bound_to 10752
  141.1096  133.8731  157.1622 H   0  0  0  0  0  0  0  0  0  0  0  0  # atno 11005 bound_to 11000
  145.9101  140.9186  143.0458 LP  0  0  0  0  0  0  0  0  0  0  0  0  # atno 17320 bound_to 7965
  144.6726  140.1149  143.7453 LP  0  0  0  0  0  0  0  0  0  0  0  0  # atno 17321 bound_to 7965
  139.5694  144.7454  151.3933 LP  0  0  0  0  0  0  0  0  0  0  0  0  # atno 17342 bound_to 10162
  140.6999  143.7657  150.7386 LP  0  0  0  0  0  0  0  0  0  0  0  0  # atno 17343 bound_to 10162
  156.9073  130.9640  151.3568 LP  0  0  0  0  0  0  0  0  0  0  0  0  # atno 17370 bound_to 10713
  157.6034  130.8529  149.8838 LP  0  0  0  0  0  0  0  0  0  0  0  0  # atno 17371 bound_to 10713
  139.9983  135.0038  157.0133 LP  0  0  0  0  0  0  0  0  0  0  0  0  # atno 17394 bound_to 11000
  140.4810  134.1289  155.7217 LP  0  0  0  0  0  0  0  0  0  0  0  0  # atno 17395 bound_to 11000

$$$$
