AV-unprocessed.smi:3251|AV-procd|sdf|12437|dock6
  -GOLD-   2272018323D 1   1.00000     0.00000
 Structure written by MMmdl.
 40 41  0  0  0  0  0  0  0  0  1 V2000
  144.7939  133.4370  150.1259 C   0  0  0  0  0  0  0  0  0  0  0  0
  144.8053  134.5642  151.1172 C   0  0  0  0  0  0  0  0  0  0  0  0
  143.7404  135.0033  151.9542 C   0  0  0  0  0  0  0  0  0  0  0  0
  144.0784  136.0246  152.7244 N   0  0  0  0  0  0  0  0  0  0  0  0
  145.3672  136.2720  152.4087 N   0  0  0  0  0  0  0  0  0  0  0  0
  146.0853  137.3328  153.0921 C   0  0  0  0  0  0  0  0  0  0  0  0
  146.5851  138.4046  152.1108 C   0  0  0  0  0  0  0  0  0  0  0  0
  147.8970  138.8893  152.5298 N   0  0  0  0  0  0  0  0  0  0  0  0
  147.8467  139.7752  153.7050 C   0  0  2  0  0  0  0  0  0  0  0  0
  146.9626  140.9923  153.3928 C   0  0  0  0  0  0  0  0  0  0  0  0
  149.2482  140.2491  154.1530 C   0  0  0  0  0  0  0  0  0  0  0  0
  149.5117  141.4523  154.1040 O   0  0  0  0  0  0  0  0  0  0  0  0
  150.1516  139.3420  154.5835 N   0  0  0  0  0  0  0  0  0  0  0  0
  149.9404  137.9007  154.7156 C   0  0  0  0  0  0  0  0  0  0  0  0
  151.1578  137.3686  155.4722 C   0  0  0  0  0  0  0  0  0  0  0  0
  152.2549  138.3782  155.1678 C   0  0  0  0  0  0  0  0  0  0  0  0
  151.5065  139.7004  155.0000 C   0  0  0  0  0  0  0  0  0  0  0  0
  145.8312  135.4060  151.4413 C   0  0  0  0  0  0  0  0  0  0  0  0
  143.7829  133.2001  149.7942 H   0  0  0  0  0  0  0  0  0  0  0  0
  145.2150  132.5259  150.5513 H   0  0  0  0  0  0  0  0  0  0  0  0
  145.3760  133.6762  149.2358 H   0  0  0  0  0  0  0  0  0  0  0  0
  142.7370  134.6102  152.0255 H   0  0  0  0  0  0  0  0  0  0  0  0
  145.4364  137.7695  153.8525 H   0  0  0  0  0  0  0  0  0  0  0  0
  146.9308  136.8903  153.6206 H   0  0  0  0  0  0  0  0  0  0  0  0
  146.6734  137.9827  151.1092 H   0  0  0  0  0  0  0  0  0  0  0  0
  145.8504  139.2083  152.0513 H   0  0  0  0  0  0  0  0  0  0  0  0
  148.3614  139.3264  151.7469 H   0  0  0  0  0  0  0  0  0  0  0  0
  147.3616  139.2156  154.5042 H   0  0  0  0  0  0  0  0  0  0  0  0
  146.8879  141.6603  154.2519 H   0  0  0  0  0  0  0  0  0  0  0  0
  145.9498  140.6833  153.1331 H   0  0  0  0  0  0  0  0  0  0  0  0
  147.3569  141.5703  152.5557 H   0  0  0  0  0  0  0  0  0  0  0  0
  149.0175  137.6644  155.2466 H   0  0  0  0  0  0  0  0  0  0  0  0
  149.8890  137.4562  153.7205 H   0  0  0  0  0  0  0  0  0  0  0  0
  150.9512  137.3679  156.5433 H   0  0  0  0  0  0  0  0  0  0  0  0
  151.4248  136.3520  155.1824 H   0  0  0  0  0  0  0  0  0  0  0  0
  153.0199  138.4202  155.9437 H   0  0  0  0  0  0  0  0  0  0  0  0
  152.7442  138.1133  154.2295 H   0  0  0  0  0  0  0  0  0  0  0  0
  152.0026  140.3461  154.2735 H   0  0  0  0  0  0  0  0  0  0  0  0
  151.4557  140.2349  155.9496 H   0  0  0  0  0  0  0  0  0  0  0  0
  146.8457  135.4550  151.0738 H   0  0  0  0  0  0  0  0  0  0  0  0
  1  2  1  0  0  0  0
  1 19  1  0  0  0  0
  1 20  1  0  0  0  0
  1 21  1  0  0  0  0
  2 18  2  0  0  0  0
  2  3  1  0  0  0  0
  3  4  2  0  0  0  0
  3 22  1  0  0  0  0
  4  5  1  0  0  0  0
  5  6  1  0  0  0  0
  5 18  1  0  0  0  0
  6  7  1  0  0  0  0
  6 23  1  0  0  0  0
  6 24  1  0  0  0  0
  7  8  1  0  0  0  0
  7 25  1  0  0  0  0
  7 26  1  0  0  0  0
  8  9  1  0  0  0  0
  8 27  1  0  0  0  0
  9 10  1  0  0  0  0
  9 11  1  0  0  0  0
  9 28  1  0  0  0  0
 10 29  1  0  0  0  0
 10 30  1  0  0  0  0
 10 31  1  0  0  0  0
 11 12  2  0  0  0  0
 11 13  1  0  0  0  0
 13 17  1  0  0  0  0
 13 14  1  0  0  0  0
 14 15  1  0  0  0  0
 14 32  1  0  0  0  0
 14 33  1  0  0  0  0
 15 16  1  0  0  0  0
 15 34  1  0  0  0  0
 15 35  1  0  0  0  0
 16 17  1  0  0  0  0
 16 36  1  0  0  0  0
 16 37  1  0  0  0  0
 17 38  1  0  0  0  0
 17 39  1  0  0  0  0
 18 40  1  0  0  0  0
M  END
> <s_m_source_file>
AV-unprocessed.smi

> <i_m_source_file_index>
3251

> <i_lp_mmshare_version>
43012

> <i_f3d_flags>
0

> <s_epik_input>
W0NIM11jMVtjSF1ubihbY0hdMSlbQ0gyXVtDSDJdW05IXVtDQEhdKFtDSDNdKUMoPU8pTjJbQ0gyXVtDSDJdW0NIMl1bQ0gyXTI=

> <s_epik_cmdline>
J2VwaWtfcHl0aG9uJywgJy1waCcsICc3LjAnLCAnLXRuJywgJzgnLCAnLW1hJywgJzIwMCcsICctbWV0YWxfYmluZGluZycsICctaW1hZScsICc8aW5maWxlLm1hZT4nLCAnLW9tYWUnLCAnPG91dGZpbGUubWFlPic=

> <r_lp_tautomer_probability>
1

> <r_epik_Ionization_Penalty>
0.734676

> <r_epik_Ionization_Penalty_Charging>
0

> <r_epik_Ionization_Penalty_Neutral>
0.734676

> <r_epik_State_Penalty>
0.75825

> <r_epik_Charging_Adjusted_Penalty>
0.75825

> <i_epik_Tot_Q>
0

> <i_epik_Tot_abs_Q>
0

> <r_epik_Metal_State_Penalty>
0.756914

> <b_epik_Metal_Only>
0

> <s_lp_Force_Field>
OPLS_2005

> <r_lp_Energy>
32.0163

> <b_lp_Chiralities_Consistent>
1

> <s_lp_Variant>
AV-unprocessed.smi:3251-3

> <Gold.Version>
5.8.1

> <Gold.Id.Protein>
6NUR|6NUR_protein|mol2

> <Gold.PLP.Fitness>
44.2304

> <Gold.PLP.PLP>
-36.4831

> <Gold.PLP.part.hbond>
-3.8586

> <Gold.PLP.part.metal>
0.0000

> <Gold.PLP.part.buried>
-0.6768

> <Gold.PLP.part.nonpolar>
-32.3180

> <Gold.PLP.part.repulsive>
0.3184

> <Gold.PLP.ligand.clash>
0.0000

> <Gold.PLP.ligand.torsion>
0.3506

> <Gold.PLP.Chemscore.Hbond>
1.7934

> <Gold.PLP.Chemscore.CHOScore>
1.0000

> <Gold.PLP.Chemscore.Metal>
0.0000

> <Gold.Chemscore.Hbonds>
donor molecule, donor type, donor heavy atom, donor atom, acceptor molecule, acceptor atom, score
      L1  H     8    27       P1  7957  0.98
      P1  H  7989  7998       L1    12  0.06
      P1  H  8011  8017       L1    12  0.67
      L1  C    18    40       P1  7948  1.00

> <Gold.PLP.Chemscore.Internal.Correction>
0.0684

> <Gold.Rescore>
     Score         DG    S(hbond)    S(metal)    S(lipo)     H(rot)  DE(clash)    DE(int)     intcor
     14.06     -15.20       1.52        0.00      76.71       1.70       0.80       0.34       ----

> <Gold.Chemscore.Fitness>
14.0633

> <Gold.Chemscore.DG>
-15.2005

> <Gold.Chemscore.ZeroCoef>
-5.4800

> <Gold.Chemscore.Hbond>
1.5226

> <Gold.Chemscore.Metal>
0.0000

> <Gold.Chemscore.Lipo>
76.7059

> <Gold.Chemscore.Internal_Hbond>
0.0000

> <Gold.Chemscore.DEClash>
0.7992

> <Gold.Chemscore.DEInternal>
0.3380

> <Gold.Chemscore.Rot>
1.6951

> <Gold.Chemscore.Internal.Correction>
   9.000000E+99

> <Gold.Chemscore.Hbonds>
donor molecule, donor type, donor heavy atom, donor atom, acceptor molecule, acceptor atom, score
      L1  H     8    27       P1  7957  0.87
      P1  H  8011  8017       L1    12  0.60

> <Gold.Chemscore.Hbond.Weighted>
-5.0854

> <Gold.Chemscore.Metal.Weighted>
-0.0000

> <Gold.Chemscore.Lipo.Weighted>
-8.9746

> <Gold.Chemscore.Internal_Hbond.Weighted>
0.0000

> <Gold.Chemscore.DEClash.Weighted>
0.7992

> <Gold.Chemscore.DEInternal.Weighted>
0.3380

> <Gold.Chemscore.Rot.Weighted>
4.3395

> <Gold.Chemscore.Internal.Correction.Weighted>
   9.000000E+99

> <Gold.Protein.RotatedTorsions>
[ 6907 6896 6895 6894 ] final -173.78 input  -60.11 | X-H torsion
[ 7974 7965 7964 7962 ] final   71.21 input  175.53 | X-H torsion
[ 8008 7997 7996 7995 ] final -166.01 input   59.86 | X-H torsion
[ 10167 10162 10161 10158 ] final  -17.41 input  -65.29 | X-H torsion
[ 10718 10713 10712 10709 ] final   -1.32 input   66.30 | X-H torsion
[ 10763 10752 10751 10750 ] final   53.78 input  -60.55 | X-H torsion
[ 11005 11000 10999 10996 ] final   92.09 input  -57.11 | X-H torsion

> <Gold.Protein.ActiveResidues>
 VAL166  LYS551  ARG553  GLY616  TRP617  ASP618  TYR619  PRO620  LYS621  CYS622 
 ASP623  PHE694  ASN695  SER759  ASP760  ASP761  ALA762  ILE779  LEU786  VAL792 
 PHE793  MET794  SER795  GLU796  ALA797  LYS798  CYS799  TRP800  GLU811  SER814 

> <Gold.Protein.RotatedAtoms>
  151.5617  133.3402  159.2972 H   0  0  0  0  0  0  0  0  0  0  0  0  # atno 6907 bound_to 6896
  150.8419  134.7717  159.6950 H   0  0  0  0  0  0  0  0  0  0  0  0  # atno 6908 bound_to 6896
  152.4485  134.5452  159.9902 H   0  0  0  0  0  0  0  0  0  0  0  0  # atno 6909 bound_to 6896
  145.7686  139.2833  143.1334 H   0  0  0  0  0  0  0  0  0  0  0  0  # atno 7974 bound_to 7965
  155.8578  140.0973  157.1633 H   0  0  0  0  0  0  0  0  0  0  0  0  # atno 8008 bound_to 7997
  154.3989  140.1371  156.3985 H   0  0  0  0  0  0  0  0  0  0  0  0  # atno 8009 bound_to 7997
  155.7890  140.3456  155.5341 H   0  0  0  0  0  0  0  0  0  0  0  0  # atno 8010 bound_to 7997
  140.7247  143.5018  150.9859 H   0  0  0  0  0  0  0  0  0  0  0  0  # atno 10167 bound_to 10162
  156.8073  130.5413  149.5713 H   0  0  0  0  0  0  0  0  0  0  0  0  # atno 10718 bound_to 10713
  152.9798  135.5767  154.4798 H   0  0  0  0  0  0  0  0  0  0  0  0  # atno 10763 bound_to 10752
  154.4348  135.2774  155.1890 H   0  0  0  0  0  0  0  0  0  0  0  0  # atno 10764 bound_to 10752
  154.3583  135.6194  153.5731 H   0  0  0  0  0  0  0  0  0  0  0  0  # atno 10765 bound_to 10752
  139.8828  134.8713  156.3523 H   0  0  0  0  0  0  0  0  0  0  0  0  # atno 11005 bound_to 11000
  146.0193  140.8363  142.9931 LP  0  0  0  0  0  0  0  0  0  0  0  0  # atno 17320 bound_to 7965
  144.6817  140.2604  143.7319 LP  0  0  0  0  0  0  0  0  0  0  0  0  # atno 17321 bound_to 7965
  139.8728  143.7170  152.3165 LP  0  0  0  0  0  0  0  0  0  0  0  0  # atno 17342 bound_to 10162
  139.7425  144.7556  151.0630 LP  0  0  0  0  0  0  0  0  0  0  0  0  # atno 17343 bound_to 10162
  156.1065  130.6008  150.9979 LP  0  0  0  0  0  0  0  0  0  0  0  0  # atno 17370 bound_to 10713
  157.6523  131.0895  150.8023 LP  0  0  0  0  0  0  0  0  0  0  0  0  # atno 17371 bound_to 10713
  140.9586  133.7403  156.0370 LP  0  0  0  0  0  0  0  0  0  0  0  0  # atno 17394 bound_to 11000
  140.8018  134.3500  157.5437 LP  0  0  0  0  0  0  0  0  0  0  0  0  # atno 17395 bound_to 11000

$$$$
