AV-unprocessed.smi:1066|AV-procd|sdf|4668|dock1
  -GOLD-   22720 3183D 1   1.00000     0.00000
 Structure written by MMmdl.
 38 40  0  0  0  0  0  0  0  0  2 V2000
  149.5467  133.0334  153.6382 C   0  0  0  0  0  0  0  0  0  0  0  0
  149.6785  133.4668  155.0700 C   0  0  0  0  0  0  0  0  0  0  0  0
  150.2992  132.6776  155.9370 N   0  0  0  0  0  0  0  0  0  0  0  0
  150.2621  133.3392  157.1697 O   0  0  0  0  0  0  0  0  0  0  0  0
  149.6129  134.5092  156.9715 C   0  0  0  0  0  0  0  0  0  0  0  0
  149.3325  135.6325  158.2429 Cl  0  0  0  0  0  0  0  0  0  0  0  0
  149.2105  134.6691  155.6765 C   0  0  0  0  0  0  0  0  0  0  0  0
  148.4614  135.8099  155.0359 C   0  0  0  0  0  0  0  0  0  0  0  0
  147.1243  135.3067  154.4925 C   0  0  0  0  0  0  0  0  0  0  0  0
  146.2197  134.9975  155.2673 O   0  0  0  0  0  0  0  0  0  0  0  0
  147.0101  135.2347  153.1577 N   0  0  0  0  0  0  0  0  0  0  0  0
  145.8103  134.8143  152.4454 C   0  0  2  0  0  0  0  0  0  0  0  0
  144.5397  135.5525  152.8533 C   0  0  0  0  0  0  0  0  0  0  0  0
  143.4334  134.5930  152.3974 C   0  0  0  0  0  0  0  0  0  0  0  0
  144.0179  133.2279  152.4047 N   0  3  1  0  0  0  0  0  0  0  0  0
  143.7821  132.4784  151.1513 C   0  0  0  0  0  0  0  0  0  0  0  0
  144.7734  131.3636  150.9176 C   0  0  0  0  0  0  0  0  0  0  0  0
  144.8800  132.6511  150.1291 C   0  0  0  0  0  0  0  0  0  0  0  0
  145.4501  133.3616  152.7496 C   0  0  0  0  0  0  0  0  0  0  0  0
  148.5831  133.3320  153.2250 H   0  0  0  0  0  0  0  0  0  0  0  0
  149.6259  131.9506  153.5362 H   0  0  0  0  0  0  0  0  0  0  0  0
  150.3254  133.4837  153.0227 H   0  0  0  0  0  0  0  0  0  0  0  0
  148.2781  136.6186  155.7442 H   0  0  0  0  0  0  0  0  0  0  0  0
  149.0353  136.2498  154.2194 H   0  0  0  0  0  0  0  0  0  0  0  0
  147.8062  135.5081  152.5993 H   0  0  0  0  0  0  0  0  0  0  0  0
  145.9626  134.9198  151.3689 H   0  0  0  0  0  0  0  0  0  0  0  0
  144.5033  135.6750  153.9371 H   0  0  0  0  0  0  0  0  0  0  0  0
  144.4561  136.5404  152.3990 H   0  0  0  0  0  0  0  0  0  0  0  0
  142.5571  134.6454  153.0440 H   0  0  0  0  0  0  0  0  0  0  0  0
  143.1119  134.8609  151.3896 H   0  0  0  0  0  0  0  0  0  0  0  0
  142.7454  132.3747  150.8352 H   0  0  0  0  0  0  0  0  0  0  0  0
  145.5292  131.1766  151.6782 H   0  0  0  0  0  0  0  0  0  0  0  0
  144.4204  130.4818  150.3868 H   0  0  0  0  0  0  0  0  0  0  0  0
  144.5993  132.6155  149.0784 H   0  0  0  0  0  0  0  0  0  0  0  0
  145.7042  133.3210  150.3677 H   0  0  0  0  0  0  0  0  0  0  0  0
  146.0847  132.6534  152.2143 H   0  0  0  0  0  0  0  0  0  0  0  0
  145.5582  133.1582  153.8161 H   0  0  0  0  0  0  0  0  0  0  0  0
  143.5798  132.7057  153.1501 H   0  0  0  0  0  0  0  0  0  0  0  0
  1  2  1  0  0  0  0
  1 20  1  0  0  0  0
  1 21  1  0  0  0  0
  1 22  1  0  0  0  0
  2  7  1  0  0  0  0
  2  3  2  0  0  0  0
  3  4  1  0  0  0  0
  4  5  1  0  0  0  0
  5  6  1  0  0  0  0
  5  7  2  0  0  0  0
  7  8  1  0  0  0  0
  8  9  1  0  0  0  0
  8 23  1  0  0  0  0
  8 24  1  0  0  0  0
  9 10  2  0  0  0  0
  9 11  1  0  0  0  0
 11 12  1  0  0  0  0
 11 25  1  0  0  0  0
 12 19  1  0  0  0  0
 12 13  1  0  0  0  0
 12 26  1  0  0  0  0
 13 14  1  0  0  0  0
 13 27  1  0  0  0  0
 13 28  1  0  0  0  0
 14 15  1  0  0  0  0
 14 29  1  0  0  0  0
 14 30  1  0  0  0  0
 15 16  1  0  0  0  0
 15 19  1  0  0  0  0
 15 38  1  0  0  0  0
 16 18  1  0  0  0  0
 16 17  1  0  0  0  0
 16 31  1  0  0  0  0
 17 18  1  0  0  0  0
 17 32  1  0  0  0  0
 17 33  1  0  0  0  0
 18 34  1  0  0  0  0
 18 35  1  0  0  0  0
 19 36  1  0  0  0  0
 19 37  1  0  0  0  0
M  CHG  1  15   1
M  END
> <s_m_source_file>
AV-unprocessed.smi

> <i_m_source_file_index>
1066

> <i_lp_mmshare_version>
43012

> <i_f3d_flags>
0

> <s_epik_input>
W0NIM11jMW5vYyhDbCljMVtDSDJdQyg9TylbTkhdW0NAQEhdMltDSDJdW0NIMl1OKFtDSDJdMilbQ0hdM1tDSDJdW0NIMl0z

> <s_epik_cmdline>
J2VwaWtfcHl0aG9uJywgJy1waCcsICc3LjAnLCAnLXRuJywgJzgnLCAnLW1hJywgJzIwMCcsICctbWV0YWxfYmluZGluZycsICctaW1hZScsICc8aW5maWxlLm1hZT4nLCAnLW9tYWUnLCAnPG91dGZpbGUubWFlPic=

> <r_epik_Ionization_Penalty>
0.00108138

> <r_epik_Ionization_Penalty_Charging>
0.00108128

> <r_epik_Ionization_Penalty_Neutral>
9.66632e-08

> <r_epik_State_Penalty>
0.000708577

> <r_epik_Charging_Adjusted_Penalty>
0.00178986

> <i_epik_Tot_Q>
1

> <i_epik_Tot_abs_Q>
1

> <r_epik_Metal_State_Penalty>
-0

> <b_epik_Metal_Only>
0

> <s_lp_Force_Field>
OPLS_2005

> <r_lp_Energy>
31.6954

> <b_lp_Chiralities_Consistent>
1

> <s_lp_Variant>
AV-unprocessed.smi:1066-1

> <Gold.Version>
5.8.1

> <Gold.Id.Protein>
6NUR|6NUR_protein|mol2

> <Gold.PLP.Fitness>
38.2220

> <Gold.PLP.PLP>
-26.5045

> <Gold.PLP.part.hbond>
-2.9709

> <Gold.PLP.part.metal>
0.0000

> <Gold.PLP.part.buried>
-5.0789

> <Gold.PLP.part.nonpolar>
-18.9070

> <Gold.PLP.part.repulsive>
0.0251

> <Gold.PLP.ligand.clash>
0.0000

> <Gold.PLP.ligand.torsion>
0.7851

> <Gold.PLP.Chemscore.Hbond>
4.0000

> <Gold.PLP.Chemscore.CHOScore>
0.0000

> <Gold.PLP.Chemscore.Metal>
0.0000

> <Gold.Chemscore.Hbonds>
donor molecule, donor type, donor heavy atom, donor atom, acceptor molecule, acceptor atom, score
      L1  H    11    25       P1  7948  0.99
      L1  H    15    38       P1 10957  1.76
      P1  H  6896  6908       L1     4  0.39

> <Gold.PLP.Chemscore.Internal.Correction>
1.2878

> <Gold.Rescore>
     Score         DG    S(hbond)    S(metal)    S(lipo)     H(rot)  DE(clash)    DE(int)     intcor
     16.26     -18.08       2.93        0.00      58.51       1.57       0.00       1.82       ----

> <Gold.Chemscore.Fitness>
16.2621

> <Gold.Chemscore.DG>
-18.0829

> <Gold.Chemscore.ZeroCoef>
-5.4800

> <Gold.Chemscore.Hbond>
2.9278

> <Gold.Chemscore.Metal>
0.0000

> <Gold.Chemscore.Lipo>
58.5133

> <Gold.Chemscore.Internal_Hbond>
0.0000

> <Gold.Chemscore.DEClash>
0.0015

> <Gold.Chemscore.DEInternal>
1.8194

> <Gold.Chemscore.Rot>
1.5711

> <Gold.Chemscore.Internal.Correction>
   9.000000E+99

> <Gold.Chemscore.Hbonds>
donor molecule, donor type, donor heavy atom, donor atom, acceptor molecule, acceptor atom, score
      L1  H    11    25       P1  7948  0.92
      L1  H    15    38       P1 10957  0.26
      P1  H  6896  6908       L1     4  0.04

> <Gold.Chemscore.Hbond.Weighted>
-9.7789

> <Gold.Chemscore.Metal.Weighted>
-0.0000

> <Gold.Chemscore.Lipo.Weighted>
-6.8461

> <Gold.Chemscore.Internal_Hbond.Weighted>
0.0000

> <Gold.Chemscore.DEClash.Weighted>
0.0015

> <Gold.Chemscore.DEInternal.Weighted>
1.8194

> <Gold.Chemscore.Rot.Weighted>
4.0221

> <Gold.Chemscore.Internal.Correction.Weighted>
   9.000000E+99

> <Gold.Protein.RotatedTorsions>
[ 6907 6896 6895 6894 ] final  121.08 input  -60.11 | X-H torsion
[ 7974 7965 7964 7962 ] final  153.52 input  175.53 | X-H torsion
[ 8008 7997 7996 7995 ] final   19.03 input   59.86 | X-H torsion
[ 10167 10162 10161 10158 ] final   -5.59 input  -65.29 | X-H torsion
[ 10718 10713 10712 10709 ] final -122.11 input   66.30 | X-H torsion
[ 10763 10752 10751 10750 ] final   58.86 input  -60.55 | X-H torsion
[ 11005 11000 10999 10996 ] final   68.48 input  -57.11 | X-H torsion

> <Gold.Protein.ActiveResidues>
 VAL166  LYS551  ARG553  GLY616  TRP617  ASP618  TYR619  PRO620  LYS621  CYS622 
 ASP623  PHE694  ASN695  SER759  ASP760  ASP761  ALA762  ILE779  LEU786  VAL792 
 PHE793  MET794  SER795  GLU796  ALA797  LYS798  CYS799  TRP800  GLU811  SER814 

> <Gold.Protein.RotatedAtoms>
  152.4349  133.7344  159.6605 H   0  0  0  0  0  0  0  0  0  0  0  0  # atno 6907 bound_to 6896
  150.8232  133.8206  159.3136 H   0  0  0  0  0  0  0  0  0  0  0  0  # atno 6908 bound_to 6896
  151.5882  135.1057  160.0084 H   0  0  0  0  0  0  0  0  0  0  0  0  # atno 6909 bound_to 6896
  144.8149  139.6812  143.6125 H   0  0  0  0  0  0  0  0  0  0  0  0  # atno 7974 bound_to 7965
  154.9147  140.3019  155.5247 H   0  0  0  0  0  0  0  0  0  0  0  0  # atno 8008 bound_to 7997
  156.3013  140.2382  156.4126 H   0  0  0  0  0  0  0  0  0  0  0  0  # atno 8009 bound_to 7997
  154.8390  140.0414  157.1517 H   0  0  0  0  0  0  0  0  0  0  0  0  # atno 8010 bound_to 7997
  140.6968  143.6291  150.8540 H   0  0  0  0  0  0  0  0  0  0  0  0  # atno 10167 bound_to 10162
  156.1392  130.6453  150.9744 H   0  0  0  0  0  0  0  0  0  0  0  0  # atno 10718 bound_to 10713
  152.9880  135.5592  154.5620 H   0  0  0  0  0  0  0  0  0  0  0  0  # atno 10763 bound_to 10752
  154.5037  135.2798  155.1401 H   0  0  0  0  0  0  0  0  0  0  0  0  # atno 10764 bound_to 10752
  154.2821  135.6342  153.5404 H   0  0  0  0  0  0  0  0  0  0  0  0  # atno 10765 bound_to 10752
  139.9709  134.6902  156.0449 H   0  0  0  0  0  0  0  0  0  0  0  0  # atno 11005 bound_to 11000
  146.2451  139.6081  142.9465 LP  0  0  0  0  0  0  0  0  0  0  0  0  # atno 17320 bound_to 7965
  145.5238  141.0430  143.2421 LP  0  0  0  0  0  0  0  0  0  0  0  0  # atno 17321 bound_to 7965
  140.0010  143.5744  152.2875 LP  0  0  0  0  0  0  0  0  0  0  0  0  # atno 17342 bound_to 10162
  139.6434  144.7656  151.2293 LP  0  0  0  0  0  0  0  0  0  0  0  0  # atno 17343 bound_to 10162
  157.6560  131.0889  150.7946 LP  0  0  0  0  0  0  0  0  0  0  0  0  # atno 17370 bound_to 10713
  156.8023  130.4925  149.5368 LP  0  0  0  0  0  0  0  0  0  0  0  0  # atno 17371 bound_to 10713
  141.1388  133.6569  156.3671 LP  0  0  0  0  0  0  0  0  0  0  0  0  # atno 17394 bound_to 11000
  140.5296  134.6225  157.5345 LP  0  0  0  0  0  0  0  0  0  0  0  0  # atno 17395 bound_to 11000

$$$$
