AV-unprocessed.smi:1033|AV-procd|sdf|4505|dock1
  -GOLD-   22720 2503D 1   1.00000     0.00000
 Structure written by MMmdl.
 57 59  0  0  0  0  0  0  0  0  3 V2000
  151.3091  145.3245  160.0461 C   0  0  0  0  0  0  0  0  0  0  0  0
  152.0633  144.0336  160.3157 C   0  0  0  0  0  0  0  0  0  0  0  0
  152.5071  143.7742  161.6324 C   0  0  0  0  0  0  0  0  0  0  0  0
  153.1920  142.5843  161.8481 C   0  0  0  0  0  0  0  0  0  0  0  0
  153.7479  142.0452  163.0104 N   0  3  0  0  0  0  0  0  0  0  0  0
  154.3216  140.8434  162.7250 C   0  0  0  0  0  0  0  0  0  0  0  0
  154.1444  140.6102  161.3960 N   0  0  0  0  0  0  0  0  0  0  0  0
  154.5622  139.4680  160.5728 C   0  0  0  0  0  0  0  0  0  0  0  0
  153.6084  138.2608  160.6966 C   0  0  1  0  0  0  0  0  0  0  0  0
  152.7360  138.1746  159.5874 O   0  0  0  0  0  0  0  0  0  0  0  0
  154.3169  136.9089  160.9323 C   0  0  0  0  0  0  0  0  0  0  0  0
  155.2879  136.8513  162.0344 N   0  0  0  0  0  0  0  0  0  0  0  0
  154.7322  137.3365  163.2975 C   0  0  0  0  0  0  0  0  0  0  0  0
  153.6975  136.3742  163.9180 C   0  0  0  0  0  0  0  0  0  0  0  0
  154.2925  135.0276  164.1196 N   0  3  0  0  0  0  0  0  0  0  0  0
  153.3475  134.0846  164.7697 C   0  0  0  0  0  0  0  0  0  0  0  0
  154.0481  132.8499  165.3719 C   0  0  1  0  0  0  0  0  0  0  0  0
  154.5995  131.8891  164.3079 C   0  0  0  0  0  0  0  0  0  0  0  0
  155.1284  133.2953  166.1643 O   0  0  0  0  0  0  0  0  0  0  0  0
  154.8705  134.5125  162.8494 C   0  0  0  0  0  0  0  0  0  0  0  0
  155.8735  135.5293  162.2699 C   0  0  0  0  0  0  0  0  0  0  0  0
  153.4410  141.6671  160.8089 C   0  0  0  0  0  0  0  0  0  0  0  0
  153.0104  141.9059  159.5063 C   0  0  0  0  0  0  0  0  0  0  0  0
  152.3117  143.1108  159.2664 C   0  0  0  0  0  0  0  0  0  0  0  0
  151.8286  143.3993  157.8552 C   0  0  0  0  0  0  0  0  0  0  0  0
  151.2259  145.9335  160.9468 H   0  0  0  0  0  0  0  0  0  0  0  0
  150.2997  145.1107  159.6942 H   0  0  0  0  0  0  0  0  0  0  0  0
  151.8218  145.9190  159.2895 H   0  0  0  0  0  0  0  0  0  0  0  0
  152.3208  144.4712  162.4365 H   0  0  0  0  0  0  0  0  0  0  0  0
  154.8271  140.1944  163.4258 H   0  0  0  0  0  0  0  0  0  0  0  0
  154.6109  139.8175  159.5410 H   0  0  0  0  0  0  0  0  0  0  0  0
  155.5794  139.1928  160.8541 H   0  0  0  0  0  0  0  0  0  0  0  0
  152.9585  138.4272  161.5559 H   0  0  0  0  0  0  0  0  0  0  0  0
  151.9420  138.6433  159.7942 H   0  0  0  0  0  0  0  0  0  0  0  0
  153.5297  136.1864  161.1521 H   0  0  0  0  0  0  0  0  0  0  0  0
  154.7632  136.5657  159.9993 H   0  0  0  0  0  0  0  0  0  0  0  0
  155.5460  137.4859  164.0086 H   0  0  0  0  0  0  0  0  0  0  0  0
  154.2834  138.3199  163.1526 H   0  0  0  0  0  0  0  0  0  0  0  0
  153.3693  136.7741  164.8781 H   0  0  0  0  0  0  0  0  0  0  0  0
  152.8083  136.2984  163.2910 H   0  0  0  0  0  0  0  0  0  0  0  0
  152.8131  134.6020  165.5684 H   0  0  0  0  0  0  0  0  0  0  0  0
  152.5909  133.7810  164.0439 H   0  0  0  0  0  0  0  0  0  0  0  0
  153.3731  132.3095  166.0347 H   0  0  0  0  0  0  0  0  0  0  0  0
  153.7990  131.4807  163.6908 H   0  0  0  0  0  0  0  0  0  0  0  0
  155.1154  131.0469  164.7705 H   0  0  0  0  0  0  0  0  0  0  0  0
  155.3073  132.3898  163.6461 H   0  0  0  0  0  0  0  0  0  0  0  0
  155.0207  134.2187  166.3356 H   0  0  0  0  0  0  0  0  0  0  0  0
  155.3910  133.5724  163.0267 H   0  0  0  0  0  0  0  0  0  0  0  0
  154.0758  134.2986  162.1336 H   0  0  0  0  0  0  0  0  0  0  0  0
  156.3179  135.1384  161.3560 H   0  0  0  0  0  0  0  0  0  0  0  0
  156.7055  135.6332  162.9679 H   0  0  0  0  0  0  0  0  0  0  0  0
  153.1997  141.2034  158.7081 H   0  0  0  0  0  0  0  0  0  0  0  0
  152.0898  142.5914  157.1709 H   0  0  0  0  0  0  0  0  0  0  0  0
  152.2795  144.3163  157.4753 H   0  0  0  0  0  0  0  0  0  0  0  0
  150.7445  143.5125  157.8376 H   0  0  0  0  0  0  0  0  0  0  0  0
  155.0618  135.1554  164.7613 H   0  0  0  0  0  0  0  0  0  0  0  0
  153.7358  142.4630  163.9321 H   0  0  0  0  0  0  0  0  0  0  0  0
  1  2  1  0  0  0  0
  1 26  1  0  0  0  0
  1 27  1  0  0  0  0
  1 28  1  0  0  0  0
  2 24  1  0  0  0  0
  2  3  2  0  0  0  0
  3  4  1  0  0  0  0
  3 29  1  0  0  0  0
  4 22  2  0  0  0  0
  4  5  1  0  0  0  0
  5  6  2  0  0  0  0
  5 57  1  0  0  0  0
  6  7  1  0  0  0  0
  6 30  1  0  0  0  0
  7  8  1  0  0  0  0
  7 22  1  0  0  0  0
  8  9  1  0  0  0  0
  8 31  1  0  0  0  0
  8 32  1  0  0  0  0
  9 10  1  0  0  0  0
  9 11  1  0  0  0  0
  9 33  1  0  0  0  0
 10 34  1  0  0  0  0
 11 12  1  0  0  0  0
 11 35  1  0  0  0  0
 11 36  1  0  0  0  0
 12 21  1  0  0  0  0
 12 13  1  0  0  0  0
 13 14  1  0  0  0  0
 13 37  1  0  0  0  0
 13 38  1  0  0  0  0
 14 15  1  0  0  0  0
 14 39  1  0  0  0  0
 14 40  1  0  0  0  0
 15 16  1  0  0  0  0
 15 20  1  0  0  0  0
 15 56  1  0  0  0  0
 16 17  1  0  0  0  0
 16 41  1  0  0  0  0
 16 42  1  0  0  0  0
 17 18  1  0  0  0  0
 17 19  1  0  0  0  0
 17 43  1  0  0  0  0
 18 44  1  0  0  0  0
 18 45  1  0  0  0  0
 18 46  1  0  0  0  0
 19 47  1  0  0  0  0
 20 21  1  0  0  0  0
 20 48  1  0  0  0  0
 20 49  1  0  0  0  0
 21 50  1  0  0  0  0
 21 51  1  0  0  0  0
 22 23  1  0  0  0  0
 23 24  2  0  0  0  0
 23 52  1  0  0  0  0
 24 25  1  0  0  0  0
 25 53  1  0  0  0  0
 25 54  1  0  0  0  0
 25 55  1  0  0  0  0
M  CHG  1   5   1
M  CHG  1  15   1
M  END
> <s_m_source_file>
AV-unprocessed.smi

> <i_m_source_file_index>
1033

> <i_lp_mmshare_version>
43012

> <i_f3d_flags>
0

> <s_epik_input>
W0NIM11jKFtjSF0xKWMoW0NIM10pW2NIXWMoYzEyKW4oW2NIXW4yKVtDSDJdW0NASF0oW09IXSlbQ0gyXU4zW0NIMl1bQ0gyXU4oW0NIMl1bQ0gyXTMpW0NIMl1bQ0BIXShbQ0gzXSlbT0hd

> <s_epik_cmdline>
J2VwaWtfcHl0aG9uJywgJy1waCcsICc3LjAnLCAnLXRuJywgJzgnLCAnLW1hJywgJzIwMCcsICctbWV0YWxfYmluZGluZycsICctaW1hZScsICc8aW5maWxlLm1hZT4nLCAnLW9tYWUnLCAnPG91dGZpbGUubWFlPic=

> <r_epik_Ionization_Penalty>
1.28617

> <r_epik_Ionization_Penalty_Charging>
1.23646

> <r_epik_Ionization_Penalty_Neutral>
0.0497112

> <r_epik_State_Penalty>
1.79157

> <r_epik_Charging_Adjusted_Penalty>
3.02803

> <i_epik_Tot_Q>
2

> <i_epik_Tot_abs_Q>
2

> <r_epik_Metal_State_Penalty>
5.81739

> <b_epik_Metal_Only>
0

> <s_lp_Force_Field>
OPLS_2005

> <r_lp_Energy>
43.5011

> <b_lp_Chiralities_Consistent>
1

> <s_lp_Variant>
AV-unprocessed.smi:1033-16

> <Gold.Version>
5.8.1

> <Gold.Id.Protein>
6NUR|6NUR_protein|mol2

> <Gold.PLP.Fitness>
51.4872

> <Gold.PLP.PLP>
-53.4289

> <Gold.PLP.part.hbond>
-1.8744

> <Gold.PLP.part.metal>
0.0000

> <Gold.PLP.part.buried>
-5.8245

> <Gold.PLP.part.nonpolar>
-45.7924

> <Gold.PLP.part.repulsive>
0.0464

> <Gold.PLP.ligand.clash>
0.0000

> <Gold.PLP.ligand.torsion>
1.1198

> <Gold.PLP.Chemscore.Hbond>
0.0000

> <Gold.PLP.Chemscore.CHOScore>
0.0000

> <Gold.PLP.Chemscore.Metal>
0.0000

> <Gold.PLP.Chemscore.Internal.Correction>
0.2978

> <Gold.Rescore>
     Score         DG    S(hbond)    S(metal)    S(lipo)     H(rot)  DE(clash)    DE(int)     intcor
     14.46     -15.74       0.00        0.00     156.59       3.15       0.07       1.21       ----

> <Gold.Chemscore.Fitness>
14.4647

> <Gold.Chemscore.DG>
-15.7418

> <Gold.Chemscore.ZeroCoef>
-5.4800

> <Gold.Chemscore.Hbond>
0.0000

> <Gold.Chemscore.Metal>
0.0000

> <Gold.Chemscore.Lipo>
156.5937

> <Gold.Chemscore.Internal_Hbond>
0.0000

> <Gold.Chemscore.DEClash>
0.0669

> <Gold.Chemscore.DEInternal>
1.2101

> <Gold.Chemscore.Rot>
3.1483

> <Gold.Chemscore.Internal.Correction>
   9.000000E+99

> <Gold.Chemscore.Hbond.Weighted>
-0.0000

> <Gold.Chemscore.Metal.Weighted>
-0.0000

> <Gold.Chemscore.Lipo.Weighted>
-18.3215

> <Gold.Chemscore.Internal_Hbond.Weighted>
0.0000

> <Gold.Chemscore.DEClash.Weighted>
0.0669

> <Gold.Chemscore.DEInternal.Weighted>
1.2101

> <Gold.Chemscore.Rot.Weighted>
8.0597

> <Gold.Chemscore.Internal.Correction.Weighted>
   9.000000E+99

> <Gold.Protein.RotatedTorsions>
[ 6907 6896 6895 6894 ] final  111.00 input  -60.11 | X-H torsion
[ 7974 7965 7964 7962 ] final -129.29 input  175.53 | X-H torsion
[ 8008 7997 7996 7995 ] final  154.55 input   59.86 | X-H torsion
[ 10167 10162 10161 10158 ] final -142.84 input  -65.29 | X-H torsion
[ 10718 10713 10712 10709 ] final -136.27 input   66.30 | X-H torsion
[ 10763 10752 10751 10750 ] final -147.86 input  -60.55 | X-H torsion
[ 11005 11000 10999 10996 ] final  -75.12 input  -57.11 | X-H torsion

> <Gold.Protein.ActiveResidues>
 VAL166  LYS551  ARG553  GLY616  TRP617  ASP618  TYR619  PRO620  LYS621  CYS622 
 ASP623  PHE694  ASN695  SER759  ASP760  ASP761  ALA762  ILE779  LEU786  VAL792 
 PHE793  MET794  SER795  GLU796  ALA797  LYS798  CYS799  TRP800  GLU811  SER814 

> <Gold.Protein.RotatedAtoms>
  152.4992  133.8720  159.7303 H   0  0  0  0  0  0  0  0  0  0  0  0  # atno 6907 bound_to 6896
  150.9204  133.6878  159.2840 H   0  0  0  0  0  0  0  0  0  0  0  0  # atno 6908 bound_to 6896
  151.4257  135.1008  159.9679 H   0  0  0  0  0  0  0  0  0  0  0  0  # atno 6909 bound_to 6896
  144.9586  140.7422  143.4743 H   0  0  0  0  0  0  0  0  0  0  0  0  # atno 7974 bound_to 7965
  156.2525  140.1963  156.6664 H   0  0  0  0  0  0  0  0  0  0  0  0  # atno 8008 bound_to 7997
  154.6426  140.0582  156.9888 H   0  0  0  0  0  0  0  0  0  0  0  0  # atno 8009 bound_to 7997
  155.1540  140.3254  155.4428 H   0  0  0  0  0  0  0  0  0  0  0  0  # atno 8010 bound_to 7997
  139.8050  143.7781  152.2660 H   0  0  0  0  0  0  0  0  0  0  0  0  # atno 10167 bound_to 10162
  156.2752  130.7289  151.1268 H   0  0  0  0  0  0  0  0  0  0  0  0  # atno 10718 bound_to 10713
  154.8264  135.3349  154.6883 H   0  0  0  0  0  0  0  0  0  0  0  0  # atno 10763 bound_to 10752
  153.7509  135.6939  153.4950 H   0  0  0  0  0  0  0  0  0  0  0  0  # atno 10764 bound_to 10752
  153.2177  135.4460  155.0404 H   0  0  0  0  0  0  0  0  0  0  0  0  # atno 10765 bound_to 10752
  141.1642  133.6935  156.7468 H   0  0  0  0  0  0  0  0  0  0  0  0  # atno 11005 bound_to 11000
  145.2734  139.1946  143.4829 LP  0  0  0  0  0  0  0  0  0  0  0  0  # atno 17320 bound_to 7965
  146.3345  140.2684  142.8605 LP  0  0  0  0  0  0  0  0  0  0  0  0  # atno 17321 bound_to 7965
  139.7913  144.7409  150.9951 LP  0  0  0  0  0  0  0  0  0  0  0  0  # atno 17342 bound_to 10162
  140.7819  143.4439  151.0510 LP  0  0  0  0  0  0  0  0  0  0  0  0  # atno 17343 bound_to 10162
  157.7297  131.0622  150.5762 LP  0  0  0  0  0  0  0  0  0  0  0  0  # atno 17370 bound_to 10713
  156.5862  130.4317  149.5956 LP  0  0  0  0  0  0  0  0  0  0  0  0  # atno 17371 bound_to 10713
  140.2633  134.8449  157.3779 LP  0  0  0  0  0  0  0  0  0  0  0  0  # atno 17394 bound_to 11000
  140.1590  134.4753  155.7908 LP  0  0  0  0  0  0  0  0  0  0  0  0  # atno 17395 bound_to 11000

$$$$
