AV-unprocessed.smi:1600|AV-procd|sdf|6430|dock9
  -GOLD-   22720 7 73D 1   1.00000     0.00000
 Structure written by MMmdl.
 46 47  0  0  0  0  0  0  0  0  2 V2000
  150.6707  130.0586  154.7277 C   0  0  0  0  0  0  0  0  0  0  0  0
  149.7352  131.1641  154.3365 C   0  0  0  0  0  0  0  0  0  0  0  0
  149.8985  132.5651  154.5419 C   0  0  0  0  0  0  0  0  0  0  0  0
  148.7578  133.0847  153.9936 C   0  0  0  0  0  0  0  0  0  0  0  0
  148.3700  134.3843  153.8980 N   0  0  0  0  0  0  0  0  0  0  0  0
  147.4149  135.0290  154.5907 C   0  0  0  0  0  0  0  0  0  0  0  0
  146.7031  134.5282  155.4613 O   0  0  0  0  0  0  0  0  0  0  0  0
  147.3283  136.3136  154.2153 N   0  0  0  0  0  0  0  0  0  0  0  0
  146.3877  137.2937  154.7510 C   0  0  0  0  0  0  0  0  0  0  0  0
  146.8814  138.7393  154.5499 C   0  0  1  0  0  0  0  0  0  0  0  0
  147.1151  139.1148  153.0904 C   0  0  0  0  0  0  0  0  0  0  0  0
  147.0939  140.6385  153.1362 C   0  0  0  0  0  0  0  0  0  0  0  0
  146.0372  140.9829  154.1137 N   0  3  2  0  0  0  0  0  0  0  0  0
  146.1617  142.3223  154.7553 C   0  0  0  0  0  0  0  0  0  0  0  0
  145.1835  142.4638  155.9372 C   0  0  0  0  0  0  0  0  0  0  0  0
  145.9145  143.4630  153.7489 C   0  0  0  0  0  0  0  0  0  0  0  0
  145.9258  139.8363  155.0515 C   0  0  0  0  0  0  0  0  0  0  0  0
  147.9885  132.0519  153.5050 N   0  0  0  0  0  0  0  0  0  0  0  0
  146.7027  132.0969  152.8361 C   0  0  0  0  0  0  0  0  0  0  0  0
  148.5971  130.8657  153.7196 N   0  0  0  0  0  0  0  0  0  0  0  0
  151.6458  130.4521  155.0162 H   0  0  0  0  0  0  0  0  0  0  0  0
  150.8262  129.3618  153.9034 H   0  0  0  0  0  0  0  0  0  0  0  0
  150.2769  129.4943  155.5733 H   0  0  0  0  0  0  0  0  0  0  0  0
  150.7225  133.0789  155.0134 H   0  0  0  0  0  0  0  0  0  0  0  0
  148.8648  134.9297  153.2077 H   0  0  0  0  0  0  0  0  0  0  0  0
  147.9524  136.6366  153.4901 H   0  0  0  0  0  0  0  0  0  0  0  0
  145.4414  137.1581  154.2269 H   0  0  0  0  0  0  0  0  0  0  0  0
  146.1805  137.1004  155.8048 H   0  0  0  0  0  0  0  0  0  0  0  0
  147.8327  138.8583  155.0716 H   0  0  0  0  0  0  0  0  0  0  0  0
  148.0502  138.7177  152.6940 H   0  0  0  0  0  0  0  0  0  0  0  0
  146.2987  138.7493  152.4653 H   0  0  0  0  0  0  0  0  0  0  0  0
  148.0594  141.0043  153.4903 H   0  0  0  0  0  0  0  0  0  0  0  0
  146.9003  141.0779  152.1571 H   0  0  0  0  0  0  0  0  0  0  0  0
  147.1795  142.4221  155.1358 H   0  0  0  0  0  0  0  0  0  0  0  0
  145.2630  143.4518  156.3922 H   0  0  0  0  0  0  0  0  0  0  0  0
  145.3776  141.7373  156.7259 H   0  0  0  0  0  0  0  0  0  0  0  0
  144.1505  142.3334  155.6128 H   0  0  0  0  0  0  0  0  0  0  0  0
  145.9568  144.4344  154.2427 H   0  0  0  0  0  0  0  0  0  0  0  0
  144.9331  143.3740  153.2816 H   0  0  0  0  0  0  0  0  0  0  0  0
  146.6632  143.4816  152.9569 H   0  0  0  0  0  0  0  0  0  0  0  0
  144.8887  139.5010  155.0391 H   0  0  0  0  0  0  0  0  0  0  0  0
  146.1752  140.1050  156.0787 H   0  0  0  0  0  0  0  0  0  0  0  0
  146.8196  132.5475  151.8503 H   0  0  0  0  0  0  0  0  0  0  0  0
  146.0042  132.6953  153.4215 H   0  0  0  0  0  0  0  0  0  0  0  0
  146.2940  131.0922  152.7212 H   0  0  0  0  0  0  0  0  0  0  0  0
  145.1738  140.9912  153.5894 H   0  0  0  0  0  0  0  0  0  0  0  0
  1  2  1  0  0  0  0
  1 21  1  0  0  0  0
  1 22  1  0  0  0  0
  1 23  1  0  0  0  0
  2 20  2  0  0  0  0
  2  3  1  0  0  0  0
  3  4  2  0  0  0  0
  3 24  1  0  0  0  0
  4  5  1  0  0  0  0
  4 18  1  0  0  0  0
  5  6  1  0  0  0  0
  5 25  1  0  0  0  0
  6  7  2  0  0  0  0
  6  8  1  0  0  0  0
  8  9  1  0  0  0  0
  8 26  1  0  0  0  0
  9 10  1  0  0  0  0
  9 27  1  0  0  0  0
  9 28  1  0  0  0  0
 10 17  1  0  0  0  0
 10 11  1  0  0  0  0
 10 29  1  0  0  0  0
 11 12  1  0  0  0  0
 11 30  1  0  0  0  0
 11 31  1  0  0  0  0
 12 13  1  0  0  0  0
 12 32  1  0  0  0  0
 12 33  1  0  0  0  0
 13 14  1  0  0  0  0
 13 17  1  0  0  0  0
 13 46  1  0  0  0  0
 14 15  1  0  0  0  0
 14 16  1  0  0  0  0
 14 34  1  0  0  0  0
 15 35  1  0  0  0  0
 15 36  1  0  0  0  0
 15 37  1  0  0  0  0
 16 38  1  0  0  0  0
 16 39  1  0  0  0  0
 16 40  1  0  0  0  0
 17 41  1  0  0  0  0
 17 42  1  0  0  0  0
 18 19  1  0  0  0  0
 18 20  1  0  0  0  0
 19 43  1  0  0  0  0
 19 44  1  0  0  0  0
 19 45  1  0  0  0  0
M  CHG  1  13   1
M  END
> <s_m_source_file>
AV-unprocessed.smi

> <i_m_source_file_index>
1600

> <i_lp_mmshare_version>
43012

> <i_f3d_flags>
0

> <s_epik_input>
W0NIM11jMVtjSF1jKG4objEpW0NIM10pW05IXUMoPU8pW05IXVtDSDJdW0NAQEhdMltDSDJdW0NIMl1OKFtDSDJdMilbQ0hdKFtDSDNdKVtDSDNd

> <s_epik_cmdline>
J2VwaWtfcHl0aG9uJywgJy1waCcsICc3LjAnLCAnLXRuJywgJzgnLCAnLW1hJywgJzIwMCcsICctbWV0YWxfYmluZGluZycsICctaW1hZScsICc8aW5maWxlLm1hZT4nLCAnLW9tYWUnLCAnPG91dGZpbGUubWFlPic=

> <r_lp_tautomer_probability>
1

> <r_epik_Ionization_Penalty>
0.000297652

> <r_epik_Ionization_Penalty_Charging>
0.000213653

> <r_epik_Ionization_Penalty_Neutral>
8.3999e-05

> <r_epik_State_Penalty>
-0

> <r_epik_Charging_Adjusted_Penalty>
0.000213653

> <i_epik_Tot_Q>
1

> <i_epik_Tot_abs_Q>
1

> <r_epik_Metal_State_Penalty>
-0

> <b_epik_Metal_Only>
0

> <s_lp_Force_Field>
OPLS_2005

> <r_lp_Energy>
32.7515

> <b_lp_Chiralities_Consistent>
1

> <s_lp_Variant>
AV-unprocessed.smi:1600-4

> <Gold.Version>
5.8.1

> <Gold.Id.Protein>
6NUR|6NUR_protein|mol2

> <Gold.PLP.Fitness>
42.4533

> <Gold.PLP.PLP>
-32.4757

> <Gold.PLP.part.hbond>
-3.0000

> <Gold.PLP.part.metal>
0.0000

> <Gold.PLP.part.buried>
-4.6609

> <Gold.PLP.part.nonpolar>
-25.3357

> <Gold.PLP.part.repulsive>
0.1281

> <Gold.PLP.ligand.clash>
0.0000

> <Gold.PLP.ligand.torsion>
1.0171

> <Gold.PLP.Chemscore.Hbond>
3.9920

> <Gold.PLP.Chemscore.CHOScore>
0.0000

> <Gold.PLP.Chemscore.Metal>
0.0000

> <Gold.Chemscore.Hbonds>
donor molecule, donor type, donor heavy atom, donor atom, acceptor molecule, acceptor atom, score
      L1  H     5    25       P1  7948  1.00
      L1  H     8    26       P1  7948  0.96
      L1  H    13    46       P1 10175  2.00

> <Gold.PLP.Chemscore.Internal.Correction>
0.0359

> <Gold.Rescore>
     Score         DG    S(hbond)    S(metal)    S(lipo)     H(rot)  DE(clash)    DE(int)     intcor
     14.96     -15.90       2.22        0.00      57.08       1.44       0.07       0.88       ----

> <Gold.Chemscore.Fitness>
14.9558

> <Gold.Chemscore.DG>
-15.9015

> <Gold.Chemscore.ZeroCoef>
-5.4800

> <Gold.Chemscore.Hbond>
2.2222

> <Gold.Chemscore.Metal>
0.0000

> <Gold.Chemscore.Lipo>
57.0754

> <Gold.Chemscore.Internal_Hbond>
0.0000

> <Gold.Chemscore.DEClash>
0.0705

> <Gold.Chemscore.DEInternal>
0.8753

> <Gold.Chemscore.Rot>
1.4369

> <Gold.Chemscore.Internal.Correction>
   9.000000E+99

> <Gold.Chemscore.Hbonds>
donor molecule, donor type, donor heavy atom, donor atom, acceptor molecule, acceptor atom, score
      L1  H     5    25       P1  7948  0.29
      L1  H     8    26       P1  7948  0.91
      L1  H    13    46       P1 10175  0.70

> <Gold.Chemscore.Hbond.Weighted>
-7.4222

> <Gold.Chemscore.Metal.Weighted>
-0.0000

> <Gold.Chemscore.Lipo.Weighted>
-6.6778

> <Gold.Chemscore.Internal_Hbond.Weighted>
0.0000

> <Gold.Chemscore.DEClash.Weighted>
0.0705

> <Gold.Chemscore.DEInternal.Weighted>
0.8753

> <Gold.Chemscore.Rot.Weighted>
3.6785

> <Gold.Chemscore.Internal.Correction.Weighted>
   9.000000E+99

> <Gold.Protein.RotatedTorsions>
[ 6907 6896 6895 6894 ] final   53.24 input  -60.11 | X-H torsion
[ 7974 7965 7964 7962 ] final   80.77 input  175.53 | X-H torsion
[ 8008 7997 7996 7995 ] final   94.49 input   59.86 | X-H torsion
[ 10167 10162 10161 10158 ] final  -70.62 input  -65.29 | X-H torsion
[ 10718 10713 10712 10709 ] final  -79.89 input   66.30 | X-H torsion
[ 10763 10752 10751 10750 ] final   94.22 input  -60.55 | X-H torsion
[ 11005 11000 10999 10996 ] final   66.58 input  -57.11 | X-H torsion

> <Gold.Protein.ActiveResidues>
 VAL166  LYS551  ARG553  GLY616  TRP617  ASP618  TYR619  PRO620  LYS621  CYS622 
 ASP623  PHE694  ASN695  SER759  ASP760  ASP761  ALA762  ILE779  LEU786  VAL792 
 PHE793  MET794  SER795  GLU796  ALA797  LYS798  CYS799  TRP800  GLU811  SER814 

> <Gold.Protein.RotatedAtoms>
  152.3317  134.7251  160.0287 H   0  0  0  0  0  0  0  0  0  0  0  0  # atno 6907 bound_to 6896
  151.7665  133.3332  159.3440 H   0  0  0  0  0  0  0  0  0  0  0  0  # atno 6908 bound_to 6896
  150.7427  134.5989  159.6071 H   0  0  0  0  0  0  0  0  0  0  0  0  # atno 6909 bound_to 6896
  145.6468  139.2438  143.1999 H   0  0  0  0  0  0  0  0  0  0  0  0  # atno 7974 bound_to 7965
  156.0584  140.3299  155.7433 H   0  0  0  0  0  0  0  0  0  0  0  0  # atno 8008 bound_to 7997
  155.5492  140.0609  157.2871 H   0  0  0  0  0  0  0  0  0  0  0  0  # atno 8009 bound_to 7997
  154.4469  140.1897  156.0658 H   0  0  0  0  0  0  0  0  0  0  0  0  # atno 8010 bound_to 7997
  140.5338  143.2319  151.7215 H   0  0  0  0  0  0  0  0  0  0  0  0  # atno 10167 bound_to 10162
  156.0082  130.4558  150.3716 H   0  0  0  0  0  0  0  0  0  0  0  0  # atno 10718 bound_to 10713
  153.2391  135.4297  155.0679 H   0  0  0  0  0  0  0  0  0  0  0  0  # atno 10763 bound_to 10752
  154.8332  135.3398  154.6675 H   0  0  0  0  0  0  0  0  0  0  0  0  # atno 10764 bound_to 10752
  153.7099  135.7023  153.5096 H   0  0  0  0  0  0  0  0  0  0  0  0  # atno 10765 bound_to 10752
  139.9823  134.6724  156.0240 H   0  0  0  0  0  0  0  0  0  0  0  0  # atno 11005 bound_to 11000
  146.1236  140.7277  142.9446 LP  0  0  0  0  0  0  0  0  0  0  0  0  # atno 17320 bound_to 7965
  144.7137  140.4132  143.7061 LP  0  0  0  0  0  0  0  0  0  0  0  0  # atno 17321 bound_to 7965
  139.4963  144.4074  152.0117 LP  0  0  0  0  0  0  0  0  0  0  0  0  # atno 17342 bound_to 10162
  140.3178  144.3463  150.6017 LP  0  0  0  0  0  0  0  0  0  0  0  0  # atno 17343 bound_to 10162
  157.1801  131.0390  151.2753 LP  0  0  0  0  0  0  0  0  0  0  0  0  # atno 17370 bound_to 10713
  157.4153  130.7408  149.6871 LP  0  0  0  0  0  0  0  0  0  0  0  0  # atno 17371 bound_to 10713
  141.1493  133.6551  156.3964 LP  0  0  0  0  0  0  0  0  0  0  0  0  # atno 17394 bound_to 11000
  140.5072  134.6430  157.5271 LP  0  0  0  0  0  0  0  0  0  0  0  0  # atno 17395 bound_to 11000

$$$$
