AV-unprocessed.smi:3162|AV-procd|sdf|12064|dock5
  -GOLD-   2272017493D 1   1.00000     0.00000
 Structure written by MMmdl.
 37 37  0  0  0  0  0  0  0  0  2 V2000
  153.4585  139.1118  154.0673 C   0  0  0  0  0  0  0  0  0  0  0  0
  152.4108  139.9372  154.8308 C   0  0  0  0  0  0  0  0  0  0  0  0
  151.2128  139.1214  155.3641 C   0  0  1  0  0  0  0  0  0  0  0  0
  150.0974  140.0464  155.6797 N   0  3  0  0  0  0  0  0  0  0  0  0
  150.2439  140.8552  156.9132 C   0  0  2  0  0  0  0  0  0  0  0  0
  148.8621  141.0464  157.5599 C   0  0  0  0  0  0  0  0  0  0  0  0
  150.9416  142.2010  156.6093 C   0  0  0  0  0  0  0  0  0  0  0  0
  151.3469  142.9101  157.8091 N   0  0  0  0  0  0  0  0  0  0  0  0
  151.0695  144.2102  158.1755 C   0  0  0  0  0  0  0  0  0  0  0  0
  151.6684  144.4328  159.3830 C   0  0  0  0  0  0  0  0  0  0  0  0
  151.6665  145.6821  160.2157 C   0  0  0  0  0  0  0  0  0  0  0  0
  152.3021  143.1910  159.6723 C   0  0  0  0  0  0  0  0  0  0  0  0
  152.1114  142.2840  158.7281 N   0  0  0  0  0  0  0  0  0  0  0  0
  150.7657  138.0560  154.3497 C   0  0  0  0  0  0  0  0  0  0  0  0
  149.5387  138.1756  153.8359 N   0  0  0  0  0  0  0  0  0  0  0  0
  151.5176  137.1337  154.0393 O   0  0  0  0  0  0  0  0  0  0  0  0
  154.3090  139.7341  153.7876 H   0  0  0  0  0  0  0  0  0  0  0  0
  153.0502  138.6885  153.1493 H   0  0  0  0  0  0  0  0  0  0  0  0
  153.8359  138.2914  154.6785 H   0  0  0  0  0  0  0  0  0  0  0  0
  152.9122  140.4173  155.6723 H   0  0  0  0  0  0  0  0  0  0  0  0
  152.0571  140.7492  154.1932 H   0  0  0  0  0  0  0  0  0  0  0  0
  151.5273  138.6269  156.2838 H   0  0  0  0  0  0  0  0  0  0  0  0
  149.9715  140.6818  154.9052 H   0  0  0  0  0  0  0  0  0  0  0  0
  150.8530  140.2945  157.6235 H   0  0  0  0  0  0  0  0  0  0  0  0
  148.9354  141.5583  158.5196 H   0  0  0  0  0  0  0  0  0  0  0  0
  148.3810  140.0856  157.7450 H   0  0  0  0  0  0  0  0  0  0  0  0
  148.2011  141.6318  156.9198 H   0  0  0  0  0  0  0  0  0  0  0  0
  151.8307  142.0544  155.9959 H   0  0  0  0  0  0  0  0  0  0  0  0
  150.2754  142.8482  156.0370 H   0  0  0  0  0  0  0  0  0  0  0  0
  150.4730  144.8628  157.5549 H   0  0  0  0  0  0  0  0  0  0  0  0
  152.5435  145.7398  160.8607 H   0  0  0  0  0  0  0  0  0  0  0  0
  150.7892  145.7328  160.8607 H   0  0  0  0  0  0  0  0  0  0  0  0
  151.6643  146.5801  159.5975 H   0  0  0  0  0  0  0  0  0  0  0  0
  152.8934  142.9242  160.5360 H   0  0  0  0  0  0  0  0  0  0  0  0
  149.2006  137.5026  153.1629 H   0  0  0  0  0  0  0  0  0  0  0  0
  148.9501  138.9456  154.1209 H   0  0  0  0  0  0  0  0  0  0  0  0
  149.2642  139.4820  155.7678 H   0  0  0  0  0  0  0  0  0  0  0  0
  1  2  1  0  0  0  0
  1 17  1  0  0  0  0
  1 18  1  0  0  0  0
  1 19  1  0  0  0  0
  2  3  1  0  0  0  0
  2 20  1  0  0  0  0
  2 21  1  0  0  0  0
  3  4  1  0  0  0  0
  3 14  1  0  0  0  0
  3 22  1  0  0  0  0
  4  5  1  0  0  0  0
  4 23  1  0  0  0  0
  4 37  1  0  0  0  0
  5  6  1  0  0  0  0
  5  7  1  0  0  0  0
  5 24  1  0  0  0  0
  6 25  1  0  0  0  0
  6 26  1  0  0  0  0
  6 27  1  0  0  0  0
  7  8  1  0  0  0  0
  7 28  1  0  0  0  0
  7 29  1  0  0  0  0
  8 13  1  0  0  0  0
  8  9  1  0  0  0  0
  9 10  2  0  0  0  0
  9 30  1  0  0  0  0
 10 11  1  0  0  0  0
 10 12  1  0  0  0  0
 11 31  1  0  0  0  0
 11 32  1  0  0  0  0
 11 33  1  0  0  0  0
 12 13  2  0  0  0  0
 12 34  1  0  0  0  0
 14 15  1  0  0  0  0
 14 16  2  0  0  0  0
 15 35  1  0  0  0  0
 15 36  1  0  0  0  0
M  CHG  1   4   1
M  END
> <s_m_source_file>
AV-unprocessed.smi

> <i_m_source_file_index>
3162

> <i_lp_mmshare_version>
43012

> <i_f3d_flags>
0

> <s_epik_input>
W0NIM11bQ0gyXVtDQEBIXShDKD1PKVtOSDJdKVtOSF1bQ0BIXShbQ0gzXSlbQ0gyXW4xW2NIXWMoW0NIM10pW2NIXW4x

> <s_epik_cmdline>
J2VwaWtfcHl0aG9uJywgJy1waCcsICc3LjAnLCAnLXRuJywgJzgnLCAnLW1hJywgJzIwMCcsICctbWV0YWxfYmluZGluZycsICctaW1hZScsICc8aW5maWxlLm1hZT4nLCAnLW9tYWUnLCAnPG91dGZpbGUubWFlPic=

> <r_lp_tautomer_probability>
1

> <r_epik_Ionization_Penalty>
0.112112

> <r_epik_Ionization_Penalty_Charging>
0.112102

> <r_epik_Ionization_Penalty_Neutral>
9.73799e-06

> <r_epik_State_Penalty>
0.101811

> <r_epik_Charging_Adjusted_Penalty>
0.213914

> <i_epik_Tot_Q>
1

> <i_epik_Tot_abs_Q>
1

> <r_epik_Metal_State_Penalty>
0.101821

> <b_epik_Metal_Only>
0

> <s_lp_Force_Field>
OPLS_2005

> <r_lp_Energy>
4.43066

> <b_lp_Chiralities_Consistent>
1

> <s_lp_Variant>
AV-unprocessed.smi:3162-2

> <Gold.Version>
5.8.1

> <Gold.Id.Protein>
6NUR|6NUR_protein|mol2

> <Gold.PLP.Fitness>
43.1358

> <Gold.PLP.PLP>
-35.6571

> <Gold.PLP.part.hbond>
-2.0000

> <Gold.PLP.part.metal>
0.0000

> <Gold.PLP.part.buried>
-2.8035

> <Gold.PLP.part.nonpolar>
-30.5321

> <Gold.PLP.part.repulsive>
0.8690

> <Gold.PLP.ligand.clash>
0.0000

> <Gold.PLP.ligand.torsion>
0.8703

> <Gold.PLP.Chemscore.Hbond>
2.0000

> <Gold.PLP.Chemscore.CHOScore>
1.0000

> <Gold.PLP.Chemscore.Metal>
0.0000

> <Gold.Chemscore.Hbonds>
donor molecule, donor type, donor heavy atom, donor atom, acceptor molecule, acceptor atom, score
      L1  H    15    35       P1  7948  1.00
      P1  H 10752 10765       L1    16  0.91
      L1  C     9    30       P1  8028  0.94
      L1  C     9    30       P1  8029  0.05

> <Gold.PLP.Chemscore.Internal.Correction>
0.2193

> <Gold.Rescore>
     Score         DG    S(hbond)    S(metal)    S(lipo)     H(rot)  DE(clash)    DE(int)     intcor
     13.16     -15.22       1.90        0.00      83.67       2.51       0.21       1.84       ----

> <Gold.Chemscore.Fitness>
13.1634

> <Gold.Chemscore.DG>
-15.2155

> <Gold.Chemscore.ZeroCoef>
-5.4800

> <Gold.Chemscore.Hbond>
1.9048

> <Gold.Chemscore.Metal>
0.0000

> <Gold.Chemscore.Lipo>
83.6687

> <Gold.Chemscore.Internal_Hbond>
0.0000

> <Gold.Chemscore.DEClash>
0.2125

> <Gold.Chemscore.DEInternal>
1.8397

> <Gold.Chemscore.Rot>
2.5062

> <Gold.Chemscore.Internal.Correction>
   9.000000E+99

> <Gold.Chemscore.Hbonds>
donor molecule, donor type, donor heavy atom, donor atom, acceptor molecule, acceptor atom, score
      L1  H    15    35       P1  7948  0.99
      P1  H 10752 10765       L1    16  0.87

> <Gold.Chemscore.Hbond.Weighted>
-6.3621

> <Gold.Chemscore.Metal.Weighted>
-0.0000

> <Gold.Chemscore.Lipo.Weighted>
-9.7892

> <Gold.Chemscore.Internal_Hbond.Weighted>
0.0000

> <Gold.Chemscore.DEClash.Weighted>
0.2125

> <Gold.Chemscore.DEInternal.Weighted>
1.8397

> <Gold.Chemscore.Rot.Weighted>
6.4159

> <Gold.Chemscore.Internal.Correction.Weighted>
   9.000000E+99

> <Gold.Protein.RotatedTorsions>
[ 6907 6896 6895 6894 ] final  158.02 input  -60.11 | X-H torsion
[ 7974 7965 7964 7962 ] final   98.60 input  175.53 | X-H torsion
[ 8008 7997 7996 7995 ] final   48.08 input   59.86 | X-H torsion
[ 10167 10162 10161 10158 ] final -141.90 input  -65.29 | X-H torsion
[ 10718 10713 10712 10709 ] final  176.08 input   66.30 | X-H torsion
[ 10763 10752 10751 10750 ] final  164.77 input  -60.55 | X-H torsion
[ 11005 11000 10999 10996 ] final  145.59 input  -57.11 | X-H torsion

> <Gold.Protein.ActiveResidues>
 VAL166  LYS551  ARG553  GLY616  TRP617  ASP618  TYR619  PRO620  LYS621  CYS622 
 ASP623  PHE694  ASN695  SER759  ASP760  ASP761  ALA762  ILE779  LEU786  VAL792 
 PHE793  MET794  SER795  GLU796  ALA797  LYS798  CYS799  TRP800  GLU811  SER814 

> <Gold.Protein.RotatedAtoms>
  152.0065  133.3845  159.4202 H   0  0  0  0  0  0  0  0  0  0  0  0  # atno 6907 bound_to 6896
  150.6904  134.3777  159.5029 H   0  0  0  0  0  0  0  0  0  0  0  0  # atno 6908 bound_to 6896
  152.1532  134.8971  160.0597 H   0  0  0  0  0  0  0  0  0  0  0  0  # atno 6909 bound_to 6896
  145.4100  139.2335  143.3253 H   0  0  0  0  0  0  0  0  0  0  0  0  # atno 7974 bound_to 7965
  155.3797  140.3428  155.4246 H   0  0  0  0  0  0  0  0  0  0  0  0  # atno 8008 bound_to 7997
  156.1617  140.1603  156.8634 H   0  0  0  0  0  0  0  0  0  0  0  0  # atno 8009 bound_to 7997
  154.5146  140.0781  156.8038 H   0  0  0  0  0  0  0  0  0  0  0  0  # atno 8010 bound_to 7997
  139.8140  143.7664  152.2664 H   0  0  0  0  0  0  0  0  0  0  0  0  # atno 10167 bound_to 10162
  156.9254  130.9954  151.2997 H   0  0  0  0  0  0  0  0  0  0  0  0  # atno 10718 bound_to 10713
  154.3139  135.2757  155.2553 H   0  0  0  0  0  0  0  0  0  0  0  0  # atno 10763 bound_to 10752
  154.4936  135.5827  153.6481 H   0  0  0  0  0  0  0  0  0  0  0  0  # atno 10764 bound_to 10752
  152.9884  135.6140  154.3318 H   0  0  0  0  0  0  0  0  0  0  0  0  # atno 10765 bound_to 10752
  140.0724  134.9144  157.1367 H   0  0  0  0  0  0  0  0  0  0  0  0  # atno 11005 bound_to 11000
  146.2709  140.4810  142.8814 LP  0  0  0  0  0  0  0  0  0  0  0  0  # atno 17320 bound_to 7965
  144.8315  140.6715  143.6287 LP  0  0  0  0  0  0  0  0  0  0  0  0  # atno 17321 bound_to 7965
  139.7821  144.7440  151.0073 LP  0  0  0  0  0  0  0  0  0  0  0  0  # atno 17342 bound_to 10162
  140.7816  143.4530  151.0385 LP  0  0  0  0  0  0  0  0  0  0  0  0  # atno 17343 bound_to 10162
  157.5881  130.8424  149.8619 LP  0  0  0  0  0  0  0  0  0  0  0  0  # atno 17370 bound_to 10713
  156.0471  130.3725  150.1290 LP  0  0  0  0  0  0  0  0  0  0  0  0  # atno 17371 bound_to 10713
  140.3607  134.2497  155.7187 LP  0  0  0  0  0  0  0  0  0  0  0  0  # atno 17394 bound_to 11000
  141.2017  133.7956  157.0428 LP  0  0  0  0  0  0  0  0  0  0  0  0  # atno 17395 bound_to 11000

$$$$
