AV-unprocessed.smi:1809|AV-procd|sdf|7310|dock10
  -GOLD-   22720 8563D 1   1.00000     0.00000
 Structure written by MMmdl.
 40 42  0  0  0  0  0  0  0  0  2 V2000
  153.9140  141.5532  160.0857 C   0  0  0  0  0  0  0  0  0  0  0  0
  153.0448  140.9642  159.0278 C   0  0  0  0  0  0  0  0  0  0  0  0
  153.4099  139.9060  158.2936 N   0  0  0  0  0  0  0  0  0  0  0  0
  152.4351  139.5408  157.3758 N   0  0  0  0  0  0  0  0  0  0  0  0
  151.3603  140.3385  157.4442 C   0  0  0  0  0  0  0  0  0  0  0  0
  150.2135  140.1895  156.6201 N   0  0  0  0  0  0  0  0  0  0  0  0
  150.1555  139.7773  155.3418 C   0  0  0  0  0  0  0  0  0  0  0  0
  151.1245  139.4646  154.6500 O   0  0  0  0  0  0  0  0  0  0  0  0
  148.8906  139.7432  154.8990 N   0  0  0  0  0  0  0  0  0  0  0  0
  148.4748  139.3186  153.5663 C   0  0  0  0  0  0  0  0  0  0  0  0
  146.9542  139.4956  153.3628 C   0  0  1  0  0  0  0  0  0  0  0  0
  146.4915  139.1384  151.9285 C   0  0  0  0  0  0  0  0  0  0  0  0
  146.4536  137.6717  151.7807 N   0  3  2  0  0  0  0  0  0  0  0  0
  146.0412  137.1156  150.4802 C   0  0  0  0  0  0  0  0  0  0  0  0
  145.5145  135.7030  150.8018 C   0  0  0  0  0  0  0  0  0  0  0  0
  145.5073  135.6002  152.3374 C   0  0  0  0  0  0  0  0  0  0  0  0
  145.5812  137.0574  152.7827 C   0  0  1  0  0  0  0  0  0  0  0  0
  146.1440  137.3530  154.1760 C   0  0  0  0  0  0  0  0  0  0  0  0
  146.1900  138.7736  154.3420 O   0  0  0  0  0  0  0  0  0  0  0  0
  151.4545  141.6133  158.6473 S   0  0  0  0  0  0  0  0  0  0  0  0
  154.7841  140.9209  160.2658 H   0  0  0  0  0  0  0  0  0  0  0  0
  153.3551  141.6494  161.0168 H   0  0  0  0  0  0  0  0  0  0  0  0
  154.2564  142.5413  159.7782 H   0  0  0  0  0  0  0  0  0  0  0  0
  149.3336  140.4162  157.0593 H   0  0  0  0  0  0  0  0  0  0  0  0
  148.1578  140.0205  155.5359 H   0  0  0  0  0  0  0  0  0  0  0  0
  149.0094  139.9446  152.8514 H   0  0  0  0  0  0  0  0  0  0  0  0
  148.7933  138.2960  153.3607 H   0  0  0  0  0  0  0  0  0  0  0  0
  146.7325  140.5520  153.5198 H   0  0  0  0  0  0  0  0  0  0  0  0
  145.4962  139.5461  151.7450 H   0  0  0  0  0  0  0  0  0  0  0  0
  147.1571  139.5741  151.1825 H   0  0  0  0  0  0  0  0  0  0  0  0
  145.2436  137.7236  150.0501 H   0  0  0  0  0  0  0  0  0  0  0  0
  146.8753  137.1022  149.7782 H   0  0  0  0  0  0  0  0  0  0  0  0
  144.5084  135.5773  150.4000 H   0  0  0  0  0  0  0  0  0  0  0  0
  146.1428  134.9278  150.3622 H   0  0  0  0  0  0  0  0  0  0  0  0
  144.6274  135.0847  152.7238 H   0  0  0  0  0  0  0  0  0  0  0  0
  146.3914  135.0582  152.6766 H   0  0  0  0  0  0  0  0  0  0  0  0
  144.5837  137.4946  152.6978 H   0  0  0  0  0  0  0  0  0  0  0  0
  145.5007  136.9267  154.9458 H   0  0  0  0  0  0  0  0  0  0  0  0
  147.1307  136.9087  154.3028 H   0  0  0  0  0  0  0  0  0  0  0  0
  147.3846  137.3234  151.9607 H   0  0  0  0  0  0  0  0  0  0  0  0
  1  2  1  0  0  0  0
  1 21  1  0  0  0  0
  1 22  1  0  0  0  0
  1 23  1  0  0  0  0
  2 20  1  0  0  0  0
  2  3  2  0  0  0  0
  3  4  1  0  0  0  0
  4  5  2  0  0  0  0
  5  6  1  0  0  0  0
  5 20  1  0  0  0  0
  6  7  1  0  0  0  0
  6 24  1  0  0  0  0
  7  8  2  0  0  0  0
  7  9  1  0  0  0  0
  9 10  1  0  0  0  0
  9 25  1  0  0  0  0
 10 11  1  0  0  0  0
 10 26  1  0  0  0  0
 10 27  1  0  0  0  0
 11 19  1  0  0  0  0
 11 12  1  0  0  0  0
 11 28  1  0  0  0  0
 12 13  1  0  0  0  0
 12 29  1  0  0  0  0
 12 30  1  0  0  0  0
 13 17  1  0  0  0  0
 13 14  1  0  0  0  0
 13 40  1  0  0  0  0
 14 15  1  0  0  0  0
 14 31  1  0  0  0  0
 14 32  1  0  0  0  0
 15 16  1  0  0  0  0
 15 33  1  0  0  0  0
 15 34  1  0  0  0  0
 16 17  1  0  0  0  0
 16 35  1  0  0  0  0
 16 36  1  0  0  0  0
 17 18  1  0  0  0  0
 17 37  1  0  0  0  0
 18 19  1  0  0  0  0
 18 38  1  0  0  0  0
 18 39  1  0  0  0  0
M  CHG  1  13   1
M  END
> <s_m_source_file>
AV-unprocessed.smi

> <i_m_source_file_index>
1809

> <i_lp_mmshare_version>
43012

> <i_f3d_flags>
0

> <s_epik_input>
W0NIM11jMW5uYyhzMSlbTkhdQyg9TylbTkhdW0NIMl1bQ0BIXShbQ0gyXTIpT1tDSDJdW0NAQEhdKE4yMylbQ0gyXVtDSDJdW0NIMl0z

> <s_epik_cmdline>
J2VwaWtfcHl0aG9uJywgJy1waCcsICc3LjAnLCAnLXRuJywgJzgnLCAnLW1hJywgJzIwMCcsICctbWV0YWxfYmluZGluZycsICctaW1hZScsICc8aW5maWxlLm1hZT4nLCAnLW9tYWUnLCAnPG91dGZpbGUubWFlPic=

> <r_lp_tautomer_probability>
1

> <r_epik_Ionization_Penalty>
0.112474

> <r_epik_Ionization_Penalty_Charging>
0.108916

> <r_epik_Ionization_Penalty_Neutral>
0.00355844

> <r_epik_State_Penalty>
0.0565397

> <r_epik_Charging_Adjusted_Penalty>
0.165456

> <i_epik_Tot_Q>
1

> <i_epik_Tot_abs_Q>
1

> <r_epik_Metal_State_Penalty>
0.422831

> <b_epik_Metal_Only>
0

> <s_lp_Force_Field>
OPLS_2005

> <r_lp_Energy>
36.2916

> <b_lp_Chiralities_Consistent>
1

> <s_lp_Variant>
AV-unprocessed.smi:1809-2

> <Gold.Version>
5.8.1

> <Gold.Id.Protein>
6NUR|6NUR_protein|mol2

> <Gold.PLP.Fitness>
39.1421

> <Gold.PLP.PLP>
-27.6536

> <Gold.PLP.part.hbond>
-3.6245

> <Gold.PLP.part.metal>
0.0000

> <Gold.PLP.part.buried>
3.1951

> <Gold.PLP.part.nonpolar>
-28.3425

> <Gold.PLP.part.repulsive>
0.3548

> <Gold.PLP.ligand.clash>
0.0000

> <Gold.PLP.ligand.torsion>
0.2487

> <Gold.PLP.Chemscore.Hbond>
3.9920

> <Gold.PLP.Chemscore.CHOScore>
0.0000

> <Gold.PLP.Chemscore.Metal>
0.0000

> <Gold.Chemscore.Hbonds>
donor molecule, donor type, donor heavy atom, donor atom, acceptor molecule, acceptor atom, score
      L1  H    13    40       P1  7948  2.00
      P1  H  7989  7998       L1     8  1.00
      P1  H  7997  8010       L1     3  0.98

> <Gold.PLP.Chemscore.Internal.Correction>
0.0101

> <Gold.Rescore>
     Score         DG    S(hbond)    S(metal)    S(lipo)     H(rot)  DE(clash)    DE(int)     intcor
     15.53     -19.30       2.40        0.00      79.00       1.34       2.86       0.91       ----

> <Gold.Chemscore.Fitness>
15.5267

> <Gold.Chemscore.DG>
-19.2983

> <Gold.Chemscore.ZeroCoef>
-5.4800

> <Gold.Chemscore.Hbond>
2.3962

> <Gold.Chemscore.Metal>
0.0000

> <Gold.Chemscore.Lipo>
79.0012

> <Gold.Chemscore.Internal_Hbond>
0.0000

> <Gold.Chemscore.DEClash>
2.8597

> <Gold.Chemscore.DEInternal>
0.9119

> <Gold.Chemscore.Rot>
1.3391

> <Gold.Chemscore.Internal.Correction>
   9.000000E+99

> <Gold.Chemscore.Hbonds>
donor molecule, donor type, donor heavy atom, donor atom, acceptor molecule, acceptor atom, score
      L1  H    13    40       P1  7948  0.99
      P1  H  7989  7998       L1     8  0.82
      P1  H  7997  8010       L1     3  0.23

> <Gold.Chemscore.Hbond.Weighted>
-8.0032

> <Gold.Chemscore.Metal.Weighted>
-0.0000

> <Gold.Chemscore.Lipo.Weighted>
-9.2431

> <Gold.Chemscore.Internal_Hbond.Weighted>
0.0000

> <Gold.Chemscore.DEClash.Weighted>
2.8597

> <Gold.Chemscore.DEInternal.Weighted>
0.9119

> <Gold.Chemscore.Rot.Weighted>
3.4281

> <Gold.Chemscore.Internal.Correction.Weighted>
   9.000000E+99

> <Gold.Protein.RotatedTorsions>
[ 6907 6896 6895 6894 ] final   19.62 input  -60.11 | X-H torsion
[ 7974 7965 7964 7962 ] final  -67.70 input  175.53 | X-H torsion
[ 8008 7997 7996 7995 ] final   17.44 input   59.86 | X-H torsion
[ 10167 10162 10161 10158 ] final  -13.30 input  -65.29 | X-H torsion
[ 10718 10713 10712 10709 ] final -149.66 input   66.30 | X-H torsion
[ 10763 10752 10751 10750 ] final  150.61 input  -60.55 | X-H torsion
[ 11005 11000 10999 10996 ] final  169.94 input  -57.11 | X-H torsion

> <Gold.Protein.ActiveResidues>
 VAL166  LYS551  ARG553  GLY616  TRP617  ASP618  TYR619  PRO620  LYS621  CYS622 
 ASP623  PHE694  ASN695  SER759  ASP760  ASP761  ALA762  ILE779  LEU786  VAL792 
 PHE793  MET794  SER795  GLU796  ALA797  LYS798  CYS799  TRP800  GLU811  SER814 

> <Gold.Protein.RotatedAtoms>
  151.8837  135.0443  160.0490 H   0  0  0  0  0  0  0  0  0  0  0  0  # atno 6907 bound_to 6896
  152.2492  133.5196  159.5323 H   0  0  0  0  0  0  0  0  0  0  0  0  # atno 6908 bound_to 6896
  150.7078  134.0900  159.3971 H   0  0  0  0  0  0  0  0  0  0  0  0  # atno 6909 bound_to 6896
  145.7258  140.9019  143.0606 H   0  0  0  0  0  0  0  0  0  0  0  0  # atno 7974 bound_to 7965
  154.8915  140.2987  155.5368 H   0  0  0  0  0  0  0  0  0  0  0  0  # atno 8008 bound_to 7997
  156.3021  140.2424  156.3865 H   0  0  0  0  0  0  0  0  0  0  0  0  # atno 8009 bound_to 7997
  154.8614  140.0405  157.1656 H   0  0  0  0  0  0  0  0  0  0  0  0  # atno 8010 bound_to 7997
  140.7179  143.5441  150.9376 H   0  0  0  0  0  0  0  0  0  0  0  0  # atno 10167 bound_to 10162
  156.4360  130.8099  151.2327 H   0  0  0  0  0  0  0  0  0  0  0  0  # atno 10718 bound_to 10713
  154.0904  135.2853  155.3273 H   0  0  0  0  0  0  0  0  0  0  0  0  # atno 10763 bound_to 10752
  154.6624  135.5329  153.8038 H   0  0  0  0  0  0  0  0  0  0  0  0  # atno 10764 bound_to 10752
  153.0416  135.6537  154.1073 H   0  0  0  0  0  0  0  0  0  0  0  0  # atno 10765 bound_to 10752
  140.3031  134.7579  157.3932 H   0  0  0  0  0  0  0  0  0  0  0  0  # atno 11005 bound_to 11000
  144.6905  139.9264  143.7470 LP  0  0  0  0  0  0  0  0  0  0  0  0  # atno 17320 bound_to 7965
  146.0583  139.3579  143.0597 LP  0  0  0  0  0  0  0  0  0  0  0  0  # atno 17321 bound_to 7965
  139.9164  143.6658  152.3105 LP  0  0  0  0  0  0  0  0  0  0  0  0  # atno 17342 bound_to 10162
  139.7060  144.7628  151.1193 LP  0  0  0  0  0  0  0  0  0  0  0  0  # atno 17343 bound_to 10162
  157.7507  131.0183  150.3621 LP  0  0  0  0  0  0  0  0  0  0  0  0  # atno 17370 bound_to 10713
  156.3968  130.3908  149.6988 LP  0  0  0  0  0  0  0  0  0  0  0  0  # atno 17371 bound_to 10713
  140.1091  134.5369  155.8282 LP  0  0  0  0  0  0  0  0  0  0  0  0  # atno 17394 bound_to 11000
  141.2124  133.6719  156.6656 LP  0  0  0  0  0  0  0  0  0  0  0  0  # atno 17395 bound_to 11000

$$$$
