AV-unprocessed.smi:1019|AV-procd|sdf|4448|dock4
  -GOLD-   22720 2413D 1   1.00000     0.00000
 Structure written by MMmdl.
 45 47  0  0  0  0  0  0  0  0  3 V2000
  147.4774  138.0071  154.4363 C   0  0  0  0  0  0  0  0  0  0  0  0
  147.7725  138.6504  153.1352 N   0  3  2  0  0  0  0  0  0  0  0  0
  148.4309  139.9692  153.3097 C   0  0  0  0  0  0  0  0  0  0  0  0
  149.6472  139.8849  154.2168 C   0  0  0  0  0  0  0  0  0  0  0  0
  150.5591  138.8170  154.0776 C   0  0  0  0  0  0  0  0  0  0  0  0
  151.6948  138.7435  154.9074 C   0  0  0  0  0  0  0  0  0  0  0  0
  151.9210  139.7345  155.8818 C   0  0  0  0  0  0  0  0  0  0  0  0
  151.0105  140.7985  156.0278 C   0  0  0  0  0  0  0  0  0  0  0  0
  149.8752  140.8735  155.1981 C   0  0  0  0  0  0  0  0  0  0  0  0
  146.5917  138.6857  152.2308 C   0  0  0  0  0  0  0  0  0  0  0  0
  146.4237  137.3679  151.4509 C   0  0  2  0  0  0  0  0  0  0  0  0
  146.1425  137.6751  150.0985 O   0  0  0  0  0  0  0  0  0  0  0  0
  145.2901  136.4986  152.0301 C   0  0  0  0  0  0  0  0  0  0  0  0
  144.9006  135.3994  151.1350 N   0  0  0  0  0  0  0  0  0  0  0  0
  144.1189  135.4258  150.0210 C   0  0  0  0  0  0  0  0  0  0  0  0
  144.0513  134.1561  149.5341 N   0  3  0  0  0  0  0  0  0  0  0  0
  144.8011  133.3041  150.3469 C   0  0  0  0  0  0  0  0  0  0  0  0
  145.0332  131.9349  150.2596 C   0  0  0  0  0  0  0  0  0  0  0  0
  145.8503  131.3666  151.2584 C   0  0  0  0  0  0  0  0  0  0  0  0
  146.4016  132.1527  152.2911 C   0  0  0  0  0  0  0  0  0  0  0  0
  146.1602  133.5403  152.3695 C   0  0  0  0  0  0  0  0  0  0  0  0
  145.3513  134.0956  151.3781 C   0  0  0  0  0  0  0  0  0  0  0  0
  146.7650  138.5998  155.0116 H   0  0  0  0  0  0  0  0  0  0  0  0
  148.3871  137.9013  155.0280 H   0  0  0  0  0  0  0  0  0  0  0  0
  147.0601  137.0097  154.3017 H   0  0  0  0  0  0  0  0  0  0  0  0
  148.7028  140.3814  152.3364 H   0  0  0  0  0  0  0  0  0  0  0  0
  147.7321  140.6738  153.7632 H   0  0  0  0  0  0  0  0  0  0  0  0
  150.3934  138.0546  153.3305 H   0  0  0  0  0  0  0  0  0  0  0  0
  152.3931  137.9268  154.7968 H   0  0  0  0  0  0  0  0  0  0  0  0
  152.7919  139.6772  156.5184 H   0  0  0  0  0  0  0  0  0  0  0  0
  151.1831  141.5574  156.7767 H   0  0  0  0  0  0  0  0  0  0  0  0
  149.1831  141.6946  155.3156 H   0  0  0  0  0  0  0  0  0  0  0  0
  145.6967  138.9035  152.8156 H   0  0  0  0  0  0  0  0  0  0  0  0
  146.6757  139.4985  151.5096 H   0  0  0  0  0  0  0  0  0  0  0  0
  147.3505  136.7950  151.4808 H   0  0  0  0  0  0  0  0  0  0  0  0
  145.4181  138.2815  150.0685 H   0  0  0  0  0  0  0  0  0  0  0  0
  145.6156  136.0438  152.9664 H   0  0  0  0  0  0  0  0  0  0  0  0
  144.4113  137.0969  152.2726 H   0  0  0  0  0  0  0  0  0  0  0  0
  143.6387  136.2966  149.5986 H   0  0  0  0  0  0  0  0  0  0  0  0
  144.6118  131.3302  149.4699 H   0  0  0  0  0  0  0  0  0  0  0  0
  146.0580  130.3066  151.2320 H   0  0  0  0  0  0  0  0  0  0  0  0
  147.0222  131.6813  153.0391 H   0  0  0  0  0  0  0  0  0  0  0  0
  146.5870  134.1291  153.1673 H   0  0  0  0  0  0  0  0  0  0  0  0
  148.4578  138.0667  152.6763 H   0  0  0  0  0  0  0  0  0  0  0  0
  143.5311  133.8931  148.7068 H   0  0  0  0  0  0  0  0  0  0  0  0
  1  2  1  0  0  0  0
  1 23  1  0  0  0  0
  1 24  1  0  0  0  0
  1 25  1  0  0  0  0
  2  3  1  0  0  0  0
  2 10  1  0  0  0  0
  2 44  1  0  0  0  0
  3  4  1  0  0  0  0
  3 26  1  0  0  0  0
  3 27  1  0  0  0  0
  4  9  1  0  0  0  0
  4  5  2  0  0  0  0
  5  6  1  0  0  0  0
  5 28  1  0  0  0  0
  6  7  2  0  0  0  0
  6 29  1  0  0  0  0
  7  8  1  0  0  0  0
  7 30  1  0  0  0  0
  8  9  2  0  0  0  0
  8 31  1  0  0  0  0
  9 32  1  0  0  0  0
 10 11  1  0  0  0  0
 10 33  1  0  0  0  0
 10 34  1  0  0  0  0
 11 12  1  0  0  0  0
 11 13  1  0  0  0  0
 11 35  1  0  0  0  0
 12 36  1  0  0  0  0
 13 14  1  0  0  0  0
 13 37  1  0  0  0  0
 13 38  1  0  0  0  0
 14 22  1  0  0  0  0
 14 15  1  0  0  0  0
 15 16  2  0  0  0  0
 15 39  1  0  0  0  0
 16 17  1  0  0  0  0
 16 45  1  0  0  0  0
 17 22  2  0  0  0  0
 17 18  1  0  0  0  0
 18 19  2  0  0  0  0
 18 40  1  0  0  0  0
 19 20  1  0  0  0  0
 19 41  1  0  0  0  0
 20 21  2  0  0  0  0
 20 42  1  0  0  0  0
 21 22  1  0  0  0  0
 21 43  1  0  0  0  0
M  CHG  1   2   1
M  CHG  1  16   1
M  END
> <s_m_source_file>
AV-unprocessed.smi

> <i_m_source_file_index>
1019

> <i_lp_mmshare_version>
43012

> <i_f3d_flags>
0

> <s_epik_input>
W2NIXTFbY0hdW2NIXVtjSF1bY0hdYzFbQ0gyXU4oW0NIM10pW0NIMl1bQ0BIXShbT0hdKVtDSDJdbihbY0hdbjIpYyhjMjMpW2NIXVtjSF1bY0hdW2NIXTM=

> <s_epik_cmdline>
J2VwaWtfcHl0aG9uJywgJy1waCcsICc3LjAnLCAnLXRuJywgJzgnLCAnLW1hJywgJzIwMCcsICctbWV0YWxfYmluZGluZycsICctaW1hZScsICc8aW5maWxlLm1hZT4nLCAnLW9tYWUnLCAnPG91dGZpbGUubWFlPic=

> <r_epik_Ionization_Penalty>
1.5198

> <r_epik_Ionization_Penalty_Charging>
1.5198

> <r_epik_Ionization_Penalty_Neutral>
3.13312e-06

> <r_epik_State_Penalty>
1.624

> <r_epik_Charging_Adjusted_Penalty>
3.1438

> <i_epik_Tot_Q>
2

> <i_epik_Tot_abs_Q>
2

> <r_epik_Metal_State_Penalty>
5.67392

> <b_epik_Metal_Only>
0

> <s_lp_Force_Field>
OPLS_2005

> <r_lp_Energy>
24.0682

> <b_lp_Chiralities_Consistent>
1

> <s_lp_Variant>
AV-unprocessed.smi:1019-6

> <Gold.Version>
5.8.1

> <Gold.Id.Protein>
6NUR|6NUR_protein|mol2

> <Gold.PLP.Fitness>
55.9188

> <Gold.PLP.PLP>
-46.0678

> <Gold.PLP.part.hbond>
-5.6857

> <Gold.PLP.part.metal>
0.0000

> <Gold.PLP.part.buried>
3.6920

> <Gold.PLP.part.nonpolar>
-45.7635

> <Gold.PLP.part.repulsive>
0.1272

> <Gold.PLP.ligand.clash>
0.0000

> <Gold.PLP.ligand.torsion>
1.5571

> <Gold.PLP.Chemscore.Hbond>
3.2528

> <Gold.PLP.Chemscore.CHOScore>
1.0000

> <Gold.PLP.Chemscore.Metal>
0.0000

> <Gold.Chemscore.Hbonds>
donor molecule, donor type, donor heavy atom, donor atom, acceptor molecule, acceptor atom, score
      L1  H     2    44       P1  7948  1.90
      L1  H    12    36       P1 10171  1.00
      P1  H  7954  7966       L1    12  0.24
      L1  C    15    39       P1 10171  1.00

> <Gold.PLP.Chemscore.Internal.Correction>
0.2067

> <Gold.Rescore>
     Score         DG    S(hbond)    S(metal)    S(lipo)     H(rot)  DE(clash)    DE(int)     intcor
     15.07     -19.67       1.96        0.00     119.11       2.46       3.21       1.39       ----

> <Gold.Chemscore.Fitness>
15.0687

> <Gold.Chemscore.DG>
-19.6703

> <Gold.Chemscore.ZeroCoef>
-5.4800

> <Gold.Chemscore.Hbond>
1.9582

> <Gold.Chemscore.Metal>
0.0000

> <Gold.Chemscore.Lipo>
119.1054

> <Gold.Chemscore.Internal_Hbond>
0.0000

> <Gold.Chemscore.DEClash>
3.2137

> <Gold.Chemscore.DEInternal>
1.3880

> <Gold.Chemscore.Rot>
2.4552

> <Gold.Chemscore.Internal.Correction>
   9.000000E+99

> <Gold.Chemscore.Hbonds>
donor molecule, donor type, donor heavy atom, donor atom, acceptor molecule, acceptor atom, score
      L1  H     2    44       P1  7948  0.86
      L1  H    12    36       P1 10171  0.93

> <Gold.Chemscore.Hbond.Weighted>
-6.5404

> <Gold.Chemscore.Metal.Weighted>
-0.0000

> <Gold.Chemscore.Lipo.Weighted>
-13.9353

> <Gold.Chemscore.Internal_Hbond.Weighted>
0.0000

> <Gold.Chemscore.DEClash.Weighted>
3.2137

> <Gold.Chemscore.DEInternal.Weighted>
1.3880

> <Gold.Chemscore.Rot.Weighted>
6.2854

> <Gold.Chemscore.Internal.Correction.Weighted>
   9.000000E+99

> <Gold.Protein.RotatedTorsions>
[ 6907 6896 6895 6894 ] final   12.11 input  -60.11 | X-H torsion
[ 7974 7965 7964 7962 ] final   76.36 input  175.53 | X-H torsion
[ 8008 7997 7996 7995 ] final   96.32 input   59.86 | X-H torsion
[ 10167 10162 10161 10158 ] final   56.40 input  -65.29 | X-H torsion
[ 10718 10713 10712 10709 ] final    9.10 input   66.30 | X-H torsion
[ 10763 10752 10751 10750 ] final  -66.76 input  -60.55 | X-H torsion
[ 11005 11000 10999 10996 ] final  154.48 input  -57.11 | X-H torsion

> <Gold.Protein.ActiveResidues>
 VAL166  LYS551  ARG553  GLY616  TRP617  ASP618  TYR619  PRO620  LYS621  CYS622 
 ASP623  PHE694  ASN695  SER759  ASP760  ASP761  ALA762  ILE779  LEU786  VAL792 
 PHE793  MET794  SER795  GLU796  ALA797  LYS798  CYS799  TRP800  GLU811  SER814 

> <Gold.Protein.RotatedAtoms>
  151.7652  135.0800  160.0351 H   0  0  0  0  0  0  0  0  0  0  0  0  # atno 6907 bound_to 6896
  152.3326  133.5971  159.5829 H   0  0  0  0  0  0  0  0  0  0  0  0  # atno 6908 bound_to 6896
  150.7431  133.9760  159.3603 H   0  0  0  0  0  0  0  0  0  0  0  0  # atno 6909 bound_to 6896
  145.7038  139.2591  143.1690 H   0  0  0  0  0  0  0  0  0  0  0  0  # atno 7974 bound_to 7965
  156.0784  140.3274  155.7663 H   0  0  0  0  0  0  0  0  0  0  0  0  # atno 8008 bound_to 7997
  155.5193  140.0583  157.2927 H   0  0  0  0  0  0  0  0  0  0  0  0  # atno 8009 bound_to 7997
  154.4568  140.1947  156.0373 H   0  0  0  0  0  0  0  0  0  0  0  0  # atno 8010 bound_to 7997
  140.2091  144.3908  150.6496 H   0  0  0  0  0  0  0  0  0  0  0  0  # atno 10167 bound_to 10162
  156.9613  130.5934  149.5662 H   0  0  0  0  0  0  0  0  0  0  0  0  # atno 10718 bound_to 10713
  154.3645  135.6108  153.5708 H   0  0  0  0  0  0  0  0  0  0  0  0  # atno 10763 bound_to 10752
  152.9792  135.5823  154.4594 H   0  0  0  0  0  0  0  0  0  0  0  0  # atno 10764 bound_to 10752
  154.4337  135.2848  155.1872 H   0  0  0  0  0  0  0  0  0  0  0  0  # atno 10765 bound_to 10752
  140.1493  134.8686  157.2433 H   0  0  0  0  0  0  0  0  0  0  0  0  # atno 11005 bound_to 11000
  146.0774  140.7802  142.9658 LP  0  0  0  0  0  0  0  0  0  0  0  0  # atno 17320 bound_to 7965
  144.6961  140.3436  143.7194 LP  0  0  0  0  0  0  0  0  0  0  0  0  # atno 17321 bound_to 7965
  140.6336  143.2191  151.6442 LP  0  0  0  0  0  0  0  0  0  0  0  0  # atno 17342 bound_to 10162
  139.5187  144.3276  152.0855 LP  0  0  0  0  0  0  0  0  0  0  0  0  # atno 17343 bound_to 10162
  156.0321  130.5411  150.8560 LP  0  0  0  0  0  0  0  0  0  0  0  0  # atno 17370 bound_to 10713
  157.5656  131.0946  150.9495 LP  0  0  0  0  0  0  0  0  0  0  0  0  # atno 17371 bound_to 10713
  140.2625  134.3555  155.7401 LP  0  0  0  0  0  0  0  0  0  0  0  0  # atno 17394 bound_to 11000
  141.2197  133.7377  156.9101 LP  0  0  0  0  0  0  0  0  0  0  0  0  # atno 17395 bound_to 11000

$$$$
