AV-unprocessed.smi:91|AV-procd|sdf|840|dock1
  -GOLD-   2262017273D 1   1.00000     0.00000
 Structure written by MMmdl.
 60 63  0  0  0  0  0  0  0  0  1 V2000
  154.7473  131.7344  158.5937 C   0  0  0  0  0  0  0  0  0  0  0  0
  153.8343  132.5955  157.9367 O   0  0  0  0  0  0  0  0  0  0  0  0
  152.8340  131.8864  157.2240 C   0  0  0  0  0  0  0  0  0  0  0  0
  151.8018  132.8800  156.6767 C   0  0  1  0  0  0  0  0  0  0  0  0
  152.3933  134.2871  156.4873 C   0  0  0  0  0  0  0  0  0  0  0  0
  151.4058  135.1527  155.8602 N   0  0  0  0  0  0  0  0  0  0  0  0
  151.7329  136.4607  155.8171 C   0  0  0  0  0  0  0  0  0  0  0  0
  152.2457  136.9266  154.6522 N   0  0  0  0  0  0  0  0  0  0  0  0
  152.6035  138.2100  154.5463 C   0  0  0  0  0  0  0  0  0  0  0  0
  152.5377  139.1748  155.4668 N   0  0  0  0  0  0  0  0  0  0  0  0
  152.0260  138.7053  156.6411 C   0  0  0  0  0  0  0  0  0  0  0  0
  151.6032  137.3719  156.9035 C   0  0  0  0  0  0  0  0  0  0  0  0
  151.1548  137.2670  158.2152 N   0  0  0  0  0  0  0  0  0  0  0  0
  151.2968  138.4716  158.6976 C   0  0  0  0  0  0  0  0  0  0  0  0
  151.8076  139.3990  157.8178 N   0  0  0  0  0  0  0  0  0  0  0  0
  152.0779  140.8000  158.0864 C   0  0  0  0  0  0  0  0  0  0  0  0
  152.2823  141.1102  159.5950 C   0  0  1  0  0  0  0  0  0  0  0  0
  153.4666  140.3319  160.2138 C   0  0  0  0  0  0  0  0  0  0  0  0
  154.5817  140.2882  159.3482 O   0  0  0  0  0  0  0  0  0  0  0  0
  152.4191  142.6271  159.8905 C   0  0  1  0  0  0  0  0  0  0  0  0
  151.3452  143.5264  159.2802 C   0  0  0  0  0  0  0  0  0  0  0  0
  151.1909  144.6267  160.3216 C   0  0  0  0  0  0  0  0  0  0  0  0
  151.3352  143.9187  161.5406 O   0  0  0  0  0  0  0  0  0  0  0  0
  152.4155  143.0086  161.3819 C   0  0  0  0  0  0  0  0  0  0  0  0
  150.9383  134.6349  154.5825 C   0  0  0  0  0  0  0  0  0  0  0  0
  150.3784  133.2028  154.7394 C   0  0  0  0  0  0  0  0  0  0  0  0
  149.0251  133.1921  155.4815 C   0  0  0  0  0  0  0  0  0  0  0  0
  150.2006  132.5618  153.3545 C   0  0  0  0  0  0  0  0  0  0  0  0
  151.3424  132.3868  155.4165 O   0  0  0  0  0  0  0  0  0  0  0  0
  155.4940  132.3274  159.1217 H   0  0  0  0  0  0  0  0  0  0  0  0
  155.2684  131.0941  157.8807 H   0  0  0  0  0  0  0  0  0  0  0  0
  154.2390  131.1046  159.3247 H   0  0  0  0  0  0  0  0  0  0  0  0
  153.2748  131.3068  156.4111 H   0  0  0  0  0  0  0  0  0  0  0  0
  152.3426  131.1827  157.8980 H   0  0  0  0  0  0  0  0  0  0  0  0
  150.9668  132.9190  157.3766 H   0  0  0  0  0  0  0  0  0  0  0  0
  152.6946  134.7042  157.4493 H   0  0  0  0  0  0  0  0  0  0  0  0
  153.2862  134.2273  155.8647 H   0  0  0  0  0  0  0  0  0  0  0  0
  153.0006  138.5063  153.5868 H   0  0  0  0  0  0  0  0  0  0  0  0
  151.0277  138.7189  159.7141 H   0  0  0  0  0  0  0  0  0  0  0  0
  152.9555  141.0924  157.5098 H   0  0  0  0  0  0  0  0  0  0  0  0
  151.2443  141.3692  157.6768 H   0  0  0  0  0  0  0  0  0  0  0  0
  151.3820  140.7963  160.1256 H   0  0  0  0  0  0  0  0  0  0  0  0
  153.7629  140.7682  161.1682 H   0  0  0  0  0  0  0  0  0  0  0  0
  153.1804  139.2991  160.4141 H   0  0  0  0  0  0  0  0  0  0  0  0
  155.2363  139.7231  159.7292 H   0  0  0  0  0  0  0  0  0  0  0  0
  153.3829  142.9560  159.4978 H   0  0  0  0  0  0  0  0  0  0  0  0
  151.6243  143.9131  158.2998 H   0  0  0  0  0  0  0  0  0  0  0  0
  150.3944  143.0073  159.1721 H   0  0  0  0  0  0  0  0  0  0  0  0
  151.9841  145.3704  160.2289 H   0  0  0  0  0  0  0  0  0  0  0  0
  150.2287  145.1353  160.2603 H   0  0  0  0  0  0  0  0  0  0  0  0
  152.3094  142.1576  162.0548 H   0  0  0  0  0  0  0  0  0  0  0  0
  153.3457  143.5147  161.6449 H   0  0  0  0  0  0  0  0  0  0  0  0
  150.1757  135.2950  154.1658 H   0  0  0  0  0  0  0  0  0  0  0  0
  151.7736  134.6330  153.8804 H   0  0  0  0  0  0  0  0  0  0  0  0
  148.2605  133.7126  154.9041 H   0  0  0  0  0  0  0  0  0  0  0  0
  149.0770  133.6857  156.4515 H   0  0  0  0  0  0  0  0  0  0  0  0
  148.6758  132.1726  155.6470 H   0  0  0  0  0  0  0  0  0  0  0  0
  149.4986  133.1286  152.7420 H   0  0  0  0  0  0  0  0  0  0  0  0
  149.8222  131.5424  153.4364 H   0  0  0  0  0  0  0  0  0  0  0  0
  151.1478  132.5171  152.8159 H   0  0  0  0  0  0  0  0  0  0  0  0
  1  2  1  0  0  0  0
  1 30  1  0  0  0  0
  1 31  1  0  0  0  0
  1 32  1  0  0  0  0
  2  3  1  0  0  0  0
  3  4  1  0  0  0  0
  3 33  1  0  0  0  0
  3 34  1  0  0  0  0
  4 29  1  0  0  0  0
  4  5  1  0  0  0  0
  4 35  1  0  0  0  0
  5  6  1  0  0  0  0
  5 36  1  0  0  0  0
  5 37  1  0  0  0  0
  6  7  1  0  0  0  0
  6 25  1  0  0  0  0
  7 12  1  0  0  0  0
  7  8  2  0  0  0  0
  8  9  1  0  0  0  0
  9 10  2  0  0  0  0
  9 38  1  0  0  0  0
 10 11  1  0  0  0  0
 11 15  1  0  0  0  0
 11 12  2  0  0  0  0
 12 13  1  0  0  0  0
 13 14  2  0  0  0  0
 14 15  1  0  0  0  0
 14 39  1  0  0  0  0
 15 16  1  0  0  0  0
 16 17  1  0  0  0  0
 16 40  1  0  0  0  0
 16 41  1  0  0  0  0
 17 18  1  0  0  0  0
 17 20  1  0  0  0  0
 17 42  1  0  0  0  0
 18 19  1  0  0  0  0
 18 43  1  0  0  0  0
 18 44  1  0  0  0  0
 19 45  1  0  0  0  0
 20 24  1  0  0  0  0
 20 21  1  0  0  0  0
 20 46  1  0  0  0  0
 21 22  1  0  0  0  0
 21 47  1  0  0  0  0
 21 48  1  0  0  0  0
 22 23  1  0  0  0  0
 22 49  1  0  0  0  0
 22 50  1  0  0  0  0
 23 24  1  0  0  0  0
 24 51  1  0  0  0  0
 24 52  1  0  0  0  0
 25 26  1  0  0  0  0
 25 53  1  0  0  0  0
 25 54  1  0  0  0  0
 26 27  1  0  0  0  0
 26 28  1  0  0  0  0
 26 29  1  0  0  0  0
 27 55  1  0  0  0  0
 27 56  1  0  0  0  0
 27 57  1  0  0  0  0
 28 58  1  0  0  0  0
 28 59  1  0  0  0  0
 28 60  1  0  0  0  0
M  END
> <s_m_source_file>
AV-unprocessed.smi

> <i_m_source_file_index>
91

> <i_lp_mmshare_version>
43012

> <i_f3d_flags>
0

> <s_epik_input>
W0NIM11PW0NIMl1bQ0BASF0oTzEpW0NIMl1OKFtDSDJdQzEoW0NIM10pW0NIM10pYyhuW2NIXW4yKWMoYzIzKW5bY0hdbjNbQ0gyXVtDQEhdKFtDSDJdW09IXSlbQ0BASF00W0NIMl1bQ0gyXU9bQ0gyXTQ=

> <s_epik_cmdline>
J2VwaWtfcHl0aG9uJywgJy1waCcsICc3LjAnLCAnLXRuJywgJzgnLCAnLW1hJywgJzIwMCcsICctbWV0YWxfYmluZGluZycsICctaW1hZScsICc8aW5maWxlLm1hZT4nLCAnLW9tYWUnLCAnPG91dGZpbGUubWFlPic=

> <r_lp_tautomer_probability>
1

> <r_epik_Ionization_Penalty>
8.63591e-05

> <r_epik_Ionization_Penalty_Charging>
0

> <r_epik_Ionization_Penalty_Neutral>
8.63591e-05

> <r_epik_State_Penalty>
-0

> <r_epik_Charging_Adjusted_Penalty>
0

> <i_epik_Tot_Q>
0

> <i_epik_Tot_abs_Q>
0

> <r_epik_Metal_State_Penalty>
-0

> <b_epik_Metal_Only>
0

> <s_lp_Force_Field>
OPLS_2005

> <r_lp_Energy>
49.4407

> <b_lp_Chiralities_Consistent>
1

> <s_lp_Variant>
AV-unprocessed.smi:91-8

> <Gold.Version>
5.8.1

> <Gold.Id.Protein>
6NUR|6NUR_protein|mol2

> <Gold.PLP.Fitness>
54.4193

> <Gold.PLP.PLP>
-48.5673

> <Gold.PLP.part.hbond>
-3.0000

> <Gold.PLP.part.metal>
0.0000

> <Gold.PLP.part.buried>
-8.1494

> <Gold.PLP.part.nonpolar>
-38.2413

> <Gold.PLP.part.repulsive>
0.3784

> <Gold.PLP.ligand.clash>
0.0000

> <Gold.PLP.ligand.torsion>
1.7619

> <Gold.PLP.Chemscore.Hbond>
3.0000

> <Gold.PLP.Chemscore.CHOScore>
0.0000

> <Gold.PLP.Chemscore.Metal>
0.0000

> <Gold.Chemscore.Hbonds>
donor molecule, donor type, donor heavy atom, donor atom, acceptor molecule, acceptor atom, score
      P1  H  7997  8008       L1    19  0.73
      P1  H  7997  8009       L1    10  0.20
      P1  H 10752 10765       L1     8  0.52

> <Gold.PLP.Chemscore.Internal.Correction>
0.3758

> <Gold.Rescore>
     Score         DG    S(hbond)    S(metal)    S(lipo)     H(rot)  DE(clash)    DE(int)     intcor
     15.33     -17.09       1.87        0.00     112.02       3.03       0.06       1.70       ----

> <Gold.Chemscore.Fitness>
15.3334

> <Gold.Chemscore.DG>
-17.0883

> <Gold.Chemscore.ZeroCoef>
-5.4800

> <Gold.Chemscore.Hbond>
1.8727

> <Gold.Chemscore.Metal>
0.0000

> <Gold.Chemscore.Lipo>
112.0187

> <Gold.Chemscore.Internal_Hbond>
0.0000

> <Gold.Chemscore.DEClash>
0.0599

> <Gold.Chemscore.DEInternal>
1.6950

> <Gold.Chemscore.Rot>
3.0284

> <Gold.Chemscore.Internal.Correction>
   9.000000E+99

> <Gold.Chemscore.Hbonds>
donor molecule, donor type, donor heavy atom, donor atom, acceptor molecule, acceptor atom, score
      P1  H  7997  8008       L1    19  0.16
      P1  H  7997  8009       L1    10  0.13
      P1  H 10752 10765       L1     8  0.05

> <Gold.Chemscore.Hbond.Weighted>
-6.2549

> <Gold.Chemscore.Metal.Weighted>
-0.0000

> <Gold.Chemscore.Lipo.Weighted>
-13.1062

> <Gold.Chemscore.Internal_Hbond.Weighted>
0.0000

> <Gold.Chemscore.DEClash.Weighted>
0.0599

> <Gold.Chemscore.DEInternal.Weighted>
1.6950

> <Gold.Chemscore.Rot.Weighted>
7.7528

> <Gold.Chemscore.Internal.Correction.Weighted>
   9.000000E+99

> <Gold.Protein.RotatedTorsions>
[ 6907 6896 6895 6894 ] final  174.05 input  -60.11 | X-H torsion
[ 7974 7965 7964 7962 ] final  -15.19 input  175.53 | X-H torsion
[ 8008 7997 7996 7995 ] final -119.11 input   59.86 | X-H torsion
[ 10167 10162 10161 10158 ] final -155.48 input  -65.29 | X-H torsion
[ 10718 10713 10712 10709 ] final -107.99 input   66.30 | X-H torsion
[ 10763 10752 10751 10750 ] final  165.47 input  -60.55 | X-H torsion
[ 11005 11000 10999 10996 ] final  115.72 input  -57.11 | X-H torsion

> <Gold.Protein.ActiveResidues>
 VAL166  LYS551  ARG553  GLY616  TRP617  ASP618  TYR619  PRO620  LYS621  CYS622 
 ASP623  PHE694  ASN695  SER759  ASP760  ASP761  ALA762  ILE779  LEU786  VAL792 
 PHE793  MET794  SER795  GLU796  ALA797  LYS798  CYS799  TRP800  GLU811  SER814 

> <Gold.Protein.RotatedAtoms>
  151.7585  133.3332  159.3410 H   0  0  0  0  0  0  0  0  0  0  0  0  # atno 6907 bound_to 6896
  150.7507  134.6127  159.6104 H   0  0  0  0  0  0  0  0  0  0  0  0  # atno 6908 bound_to 6896
  152.3421  134.7122  160.0312 H   0  0  0  0  0  0  0  0  0  0  0  0  # atno 6909 bound_to 6896
  146.2043  140.3456  142.8412 H   0  0  0  0  0  0  0  0  0  0  0  0  # atno 7974 bound_to 7965
  155.1105  140.0397  157.2722 H   0  0  0  0  0  0  0  0  0  0  0  0  # atno 8008 bound_to 7997
  154.6689  140.2608  155.7003 H   0  0  0  0  0  0  0  0  0  0  0  0  # atno 8009 bound_to 7997
  156.2650  140.2802  156.1190 H   0  0  0  0  0  0  0  0  0  0  0  0  # atno 8010 bound_to 7997
  139.6928  143.9392  152.2393 H   0  0  0  0  0  0  0  0  0  0  0  0  # atno 10167 bound_to 10162
  156.0463  130.5690  150.7899 H   0  0  0  0  0  0  0  0  0  0  0  0  # atno 10718 bound_to 10713
  154.3245  135.2755  155.2503 H   0  0  0  0  0  0  0  0  0  0  0  0  # atno 10763 bound_to 10752
  154.4842  135.5850  153.6415 H   0  0  0  0  0  0  0  0  0  0  0  0  # atno 10764 bound_to 10752
  152.9873  135.6119  154.3432 H   0  0  0  0  0  0  0  0  0  0  0  0  # atno 10765 bound_to 10752
  139.9019  134.9588  156.7088 H   0  0  0  0  0  0  0  0  0  0  0  0  # atno 11005 bound_to 11000
  144.8755  140.7330  143.6020 LP  0  0  0  0  0  0  0  0  0  0  0  0  # atno 17320 bound_to 7965
  145.3376  139.1741  143.4503 LP  0  0  0  0  0  0  0  0  0  0  0  0  # atno 17321 bound_to 7965
  139.9213  144.6798  150.8459 LP  0  0  0  0  0  0  0  0  0  0  0  0  # atno 17342 bound_to 10162
  140.7687  143.3373  151.2282 LP  0  0  0  0  0  0  0  0  0  0  0  0  # atno 17343 bound_to 10162
  157.5343  131.0938  150.9914 LP  0  0  0  0  0  0  0  0  0  0  0  0  # atno 17370 bound_to 10713
  157.0212  130.5675  149.5331 LP  0  0  0  0  0  0  0  0  0  0  0  0  # atno 17371 bound_to 10713
  140.7092  133.9238  155.8073 LP  0  0  0  0  0  0  0  0  0  0  0  0  # atno 17394 bound_to 11000
  141.0313  134.0752  157.4010 LP  0  0  0  0  0  0  0  0  0  0  0  0  # atno 17395 bound_to 11000

$$$$
