AV-unprocessed.smi:210|AV-procd|sdf|1611|dock6
  -GOLD-   2262019533D 1   1.00000     0.00000
 Structure written by MMmdl.
 57 61  0  0  0  0  0  0  0  0  1 V2000
  153.2733  129.9467  155.0463 C   0  0  0  0  0  0  0  0  0  0  0  0
  152.3531  129.2318  155.8538 O   0  0  0  0  0  0  0  0  0  0  0  0
  151.5079  128.3767  155.0960 C   0  0  2  0  0  0  0  0  0  0  0  0
  150.3634  129.1808  154.4666 C   0  0  0  0  0  0  0  0  0  0  0  0
  149.5470  128.9024  155.7395 C   0  0  1  0  0  0  0  0  0  0  0  0
  148.1293  128.6235  155.5059 N   0  0  0  0  0  0  0  0  0  0  0  0
  147.3739  128.1354  156.6538 C   0  0  0  0  0  0  0  0  0  0  0  0
  147.4776  129.6294  154.8815 C   0  0  0  0  0  0  0  0  0  0  0  0
  147.2556  130.8020  155.5319 N   0  0  0  0  0  0  0  0  0  0  0  0
  146.6154  131.7963  154.9091 C   0  0  0  0  0  0  0  0  0  0  0  0
  146.1276  131.8269  153.6663 N   0  0  0  0  0  0  0  0  0  0  0  0
  146.3533  130.6500  153.0132 C   0  0  0  0  0  0  0  0  0  0  0  0
  147.0147  129.5085  153.5459 C   0  0  0  0  0  0  0  0  0  0  0  0
  147.0613  128.4950  152.5984 N   0  0  0  0  0  0  0  0  0  0  0  0
  146.4575  129.0078  151.5611 C   0  0  0  0  0  0  0  0  0  0  0  0
  146.0048  130.2997  151.7194 N   0  0  0  0  0  0  0  0  0  0  0  0
  145.3028  131.0892  150.7473 C   0  0  0  0  0  0  0  0  0  0  0  0
  145.8942  132.4022  150.2339 C   0  0  0  0  0  0  0  0  0  0  0  0
  144.4685  132.9799  150.0881 C   0  0  0  0  0  0  0  0  0  0  0  0
  144.3062  134.4393  150.5447 C   0  0  0  0  0  0  0  0  0  0  0  0
  144.6859  135.3410  149.5250 O   0  0  0  0  0  0  0  0  0  0  0  0
  143.8347  132.8124  148.6923 C   0  0  0  0  0  0  0  0  0  0  0  0
  142.6209  132.0911  148.7580 O   0  0  0  0  0  0  0  0  0  0  0  0
  144.0671  131.9075  151.1280 C   0  0  0  0  0  0  0  0  0  0  0  0
  150.4334  127.6545  155.9389 C   0  0  0  0  0  0  0  0  0  0  0  0
  150.7413  127.0800  157.3299 C   0  0  0  0  0  0  0  0  0  0  0  0
  150.8483  125.6977  156.6787 C   0  0  0  0  0  0  0  0  0  0  0  0
  150.0069  126.2351  155.5164 C   0  0  0  0  0  0  0  0  0  0  0  0
  153.9330  130.5401  155.6793 H   0  0  0  0  0  0  0  0  0  0  0  0
  152.7518  130.6283  154.3731 H   0  0  0  0  0  0  0  0  0  0  0  0
  153.8912  129.2769  154.4478 H   0  0  0  0  0  0  0  0  0  0  0  0
  152.0305  127.7504  154.3705 H   0  0  0  0  0  0  0  0  0  0  0  0
  150.5823  130.2340  154.2878 H   0  0  0  0  0  0  0  0  0  0  0  0
  149.9607  128.6977  153.5743 H   0  0  0  0  0  0  0  0  0  0  0  0
  149.7303  129.6536  156.5102 H   0  0  0  0  0  0  0  0  0  0  0  0
  146.3215  127.9989  156.4008 H   0  0  0  0  0  0  0  0  0  0  0  0
  147.4386  128.8357  157.4874 H   0  0  0  0  0  0  0  0  0  0  0  0
  147.7572  127.1738  156.9919 H   0  0  0  0  0  0  0  0  0  0  0  0
  146.4745  132.6963  155.4893 H   0  0  0  0  0  0  0  0  0  0  0  0
  146.3238  128.4506  150.6452 H   0  0  0  0  0  0  0  0  0  0  0  0
  145.0681  130.4289  149.9110 H   0  0  0  0  0  0  0  0  0  0  0  0
  146.4871  132.9201  150.9901 H   0  0  0  0  0  0  0  0  0  0  0  0
  146.4492  132.3116  149.2996 H   0  0  0  0  0  0  0  0  0  0  0  0
  143.2811  134.6559  150.8461 H   0  0  0  0  0  0  0  0  0  0  0  0
  144.9291  134.6432  151.4160 H   0  0  0  0  0  0  0  0  0  0  0  0
  145.2988  134.9051  148.9525 H   0  0  0  0  0  0  0  0  0  0  0  0
  143.6437  133.7774  148.2226 H   0  0  0  0  0  0  0  0  0  0  0  0
  144.5032  132.2768  148.0181 H   0  0  0  0  0  0  0  0  0  0  0  0
  141.9064  132.7087  148.7935 H   0  0  0  0  0  0  0  0  0  0  0  0
  143.1197  131.4044  150.9316 H   0  0  0  0  0  0  0  0  0  0  0  0
  144.1015  132.2767  152.1542 H   0  0  0  0  0  0  0  0  0  0  0  0
  151.6564  127.4406  157.7976 H   0  0  0  0  0  0  0  0  0  0  0  0
  149.8946  127.1551  158.0132 H   0  0  0  0  0  0  0  0  0  0  0  0
  151.8688  125.4510  156.3812 H   0  0  0  0  0  0  0  0  0  0  0  0
  150.3839  124.8896  157.2442 H   0  0  0  0  0  0  0  0  0  0  0  0
  148.9445  126.0298  155.6469 H   0  0  0  0  0  0  0  0  0  0  0  0
  150.3511  125.9265  154.5288 H   0  0  0  0  0  0  0  0  0  0  0  0
  1  2  1  0  0  0  0
  1 29  1  0  0  0  0
  1 30  1  0  0  0  0
  1 31  1  0  0  0  0
  2  3  1  0  0  0  0
  3 25  1  0  0  0  0
  3  4  1  0  0  0  0
  3 32  1  0  0  0  0
  4  5  1  0  0  0  0
  4 33  1  0  0  0  0
  4 34  1  0  0  0  0
  5  6  1  0  0  0  0
  5 25  1  0  0  0  0
  5 35  1  0  0  0  0
  6  7  1  0  0  0  0
  6  8  1  0  0  0  0
  7 36  1  0  0  0  0
  7 37  1  0  0  0  0
  7 38  1  0  0  0  0
  8 13  1  0  0  0  0
  8  9  2  0  0  0  0
  9 10  1  0  0  0  0
 10 11  2  0  0  0  0
 10 39  1  0  0  0  0
 11 12  1  0  0  0  0
 12 16  1  0  0  0  0
 12 13  2  0  0  0  0
 13 14  1  0  0  0  0
 14 15  2  0  0  0  0
 15 16  1  0  0  0  0
 15 40  1  0  0  0  0
 16 17  1  0  0  0  0
 17 24  1  0  0  0  0
 17 18  1  0  0  0  0
 17 41  1  0  0  0  0
 18 19  1  0  0  0  0
 18 42  1  0  0  0  0
 18 43  1  0  0  0  0
 19 20  1  0  0  0  0
 19 22  1  0  0  0  0
 19 24  1  0  0  0  0
 20 21  1  0  0  0  0
 20 44  1  0  0  0  0
 20 45  1  0  0  0  0
 21 46  1  0  0  0  0
 22 23  1  0  0  0  0
 22 47  1  0  0  0  0
 22 48  1  0  0  0  0
 23 49  1  0  0  0  0
 24 50  1  0  0  0  0
 24 51  1  0  0  0  0
 25 28  1  0  0  0  0
 25 26  1  0  0  0  0
 26 27  1  0  0  0  0
 26 52  1  0  0  0  0
 26 53  1  0  0  0  0
 27 28  1  0  0  0  0
 27 54  1  0  0  0  0
 27 55  1  0  0  0  0
 28 56  1  0  0  0  0
 28 57  1  0  0  0  0
M  END
> <s_m_source_file>
AV-unprocessed.smi

> <i_m_source_file_index>
210

> <i_lp_mmshare_version>
43012

> <i_f3d_flags>
0

> <s_epik_input>
W0NIMl0xW0NIMl1bQ0gyXUMxMltDQEhdKE9bQ0gzXSlbQ0gyXVtDQEhdMk4oW0NIM10pYyhuW2NIXW4zKWMoYzM0KW5bY0hdbjRbQ0hdKFtDSDJdNSlbQ0gyXUM1KFtDSDJdW09IXSlbQ0gyXVtPSF0=

> <s_epik_cmdline>
J2VwaWtfcHl0aG9uJywgJy1waCcsICc3LjAnLCAnLXRuJywgJzgnLCAnLW1hJywgJzIwMCcsICctbWV0YWxfYmluZGluZycsICctaW1hZScsICc8aW5maWxlLm1hZT4nLCAnLW9tYWUnLCAnPG91dGZpbGUubWFlPic=

> <r_lp_tautomer_probability>
1

> <r_epik_Ionization_Penalty>
0.00313676

> <r_epik_Ionization_Penalty_Charging>
0

> <r_epik_Ionization_Penalty_Neutral>
0.00313676

> <r_epik_State_Penalty>
0.00199132

> <r_epik_Charging_Adjusted_Penalty>
0.00199132

> <i_epik_Tot_Q>
0

> <i_epik_Tot_abs_Q>
0

> <r_epik_Metal_State_Penalty>
-0

> <b_epik_Metal_Only>
0

> <s_lp_Force_Field>
OPLS_2005

> <r_lp_Energy>
59.5036

> <b_lp_Chiralities_Consistent>
1

> <s_lp_Variant>
AV-unprocessed.smi:210-1

> <Gold.Version>
5.8.1

> <Gold.Id.Protein>
6NUR|6NUR_protein|mol2

> <Gold.PLP.Fitness>
47.2275

> <Gold.PLP.PLP>
-40.4919

> <Gold.PLP.part.hbond>
-3.5693

> <Gold.PLP.part.metal>
0.0000

> <Gold.PLP.part.buried>
-8.4272

> <Gold.PLP.part.nonpolar>
-29.9238

> <Gold.PLP.part.repulsive>
0.3271

> <Gold.PLP.ligand.clash>
0.0000

> <Gold.PLP.ligand.torsion>
1.6781

> <Gold.PLP.Chemscore.Hbond>
2.9825

> <Gold.PLP.Chemscore.CHOScore>
0.0000

> <Gold.PLP.Chemscore.Metal>
0.0000

> <Gold.Chemscore.Hbonds>
donor molecule, donor type, donor heavy atom, donor atom, acceptor molecule, acceptor atom, score
      L1  H    21    46       P1  7921  1.00
      L1  H    23    49       P1 10186  0.94
      P1  H 10785 10796       L1    23  1.00

> <Gold.PLP.Chemscore.Internal.Correction>
1.1443

> <Gold.Rescore>
     Score         DG    S(hbond)    S(metal)    S(lipo)     H(rot)  DE(clash)    DE(int)     intcor
     12.35     -14.11       2.64        0.00      76.57       3.57       0.00       1.75       ----

> <Gold.Chemscore.Fitness>
12.3534

> <Gold.Chemscore.DG>
-14.1063

> <Gold.Chemscore.ZeroCoef>
-5.4800

> <Gold.Chemscore.Hbond>
2.6378

> <Gold.Chemscore.Metal>
0.0000

> <Gold.Chemscore.Lipo>
76.5666

> <Gold.Chemscore.Internal_Hbond>
0.0000

> <Gold.Chemscore.DEClash>
0.0009

> <Gold.Chemscore.DEInternal>
1.7520

> <Gold.Chemscore.Rot>
3.5712

> <Gold.Chemscore.Internal.Correction>
   9.000000E+99

> <Gold.Chemscore.Hbonds>
donor molecule, donor type, donor heavy atom, donor atom, acceptor molecule, acceptor atom, score
      L1  H    21    46       P1  7921  0.92
      L1  H    23    49       P1 10186  0.87
      P1  H 10785 10796       L1    23  0.46

> <Gold.Chemscore.Hbond.Weighted>
-8.8104

> <Gold.Chemscore.Metal.Weighted>
-0.0000

> <Gold.Chemscore.Lipo.Weighted>
-8.9583

> <Gold.Chemscore.Internal_Hbond.Weighted>
0.0000

> <Gold.Chemscore.DEClash.Weighted>
0.0009

> <Gold.Chemscore.DEInternal.Weighted>
1.7520

> <Gold.Chemscore.Rot.Weighted>
9.1423

> <Gold.Chemscore.Internal.Correction.Weighted>
   9.000000E+99

> <Gold.Protein.RotatedTorsions>
[ 6907 6896 6895 6894 ] final   91.60 input  -60.11 | X-H torsion
[ 7974 7965 7964 7962 ] final   94.77 input  175.53 | X-H torsion
[ 8008 7997 7996 7995 ] final    6.81 input   59.86 | X-H torsion
[ 10167 10162 10161 10158 ] final  109.06 input  -65.29 | X-H torsion
[ 10718 10713 10712 10709 ] final   67.13 input   66.30 | X-H torsion
[ 10763 10752 10751 10750 ] final  -22.42 input  -60.55 | X-H torsion
[ 11005 11000 10999 10996 ] final   14.99 input  -57.11 | X-H torsion

> <Gold.Protein.ActiveResidues>
 VAL166  LYS551  ARG553  GLY616  TRP617  ASP618  TYR619  PRO620  LYS621  CYS622 
 ASP623  PHE694  ASN695  SER759  ASP760  ASP761  ALA762  ILE779  LEU786  VAL792 
 PHE793  MET794  SER795  GLU796  ALA797  LYS798  CYS799  TRP800  GLU811  SER814 

> <Gold.Protein.RotatedAtoms>
  152.5450  134.1632  159.8565 H   0  0  0  0  0  0  0  0  0  0  0  0  # atno 6907 bound_to 6896
  151.1648  133.4815  159.2601 H   0  0  0  0  0  0  0  0  0  0  0  0  # atno 6908 bound_to 6896
  151.1335  135.0154  159.8648 H   0  0  0  0  0  0  0  0  0  0  0  0  # atno 6909 bound_to 6896
  145.4612  139.2287  143.2986 H   0  0  0  0  0  0  0  0  0  0  0  0  # atno 7974 bound_to 7965
  154.7458  140.2757  155.6334 H   0  0  0  0  0  0  0  0  0  0  0  0  # atno 8008 bound_to 7997
  156.2884  140.2688  156.2124 H   0  0  0  0  0  0  0  0  0  0  0  0  # atno 8009 bound_to 7997
  155.0200  140.0371  157.2423 H   0  0  0  0  0  0  0  0  0  0  0  0  # atno 8010 bound_to 7997
  139.6796  144.7119  151.1539 H   0  0  0  0  0  0  0  0  0  0  0  0  # atno 10167 bound_to 10162
  157.6212  130.9305  150.0202 H   0  0  0  0  0  0  0  0  0  0  0  0  # atno 10718 bound_to 10713
  153.6516  135.6980  153.5207 H   0  0  0  0  0  0  0  0  0  0  0  0  # atno 10763 bound_to 10752
  153.2702  135.4217  155.0979 H   0  0  0  0  0  0  0  0  0  0  0  0  # atno 10764 bound_to 10752
  154.8475  135.3576  154.6061 H   0  0  0  0  0  0  0  0  0  0  0  0  # atno 10765 bound_to 10752
  140.4633  134.1105  155.7720 H   0  0  0  0  0  0  0  0  0  0  0  0  # atno 11005 bound_to 11000
  146.2450  140.5381  142.8918 LP  0  0  0  0  0  0  0  0  0  0  0  0  # atno 17320 bound_to 7965
  144.8002  140.6198  143.6483 LP  0  0  0  0  0  0  0  0  0  0  0  0  # atno 17321 bound_to 7965
  140.7648  143.5719  150.8987 LP  0  0  0  0  0  0  0  0  0  0  0  0  # atno 17342 bound_to 10162
  139.9390  143.6404  152.3058 LP  0  0  0  0  0  0  0  0  0  0  0  0  # atno 17343 bound_to 10162
  156.1358  130.3642  149.9659 LP  0  0  0  0  0  0  0  0  0  0  0  0  # atno 17370 bound_to 10713
  156.7710  130.9186  151.3644 LP  0  0  0  0  0  0  0  0  0  0  0  0  # atno 17371 bound_to 10713
  141.1611  133.8791  157.1845 LP  0  0  0  0  0  0  0  0  0  0  0  0  # atno 17394 bound_to 11000
  139.9931  135.0057  157.0021 LP  0  0  0  0  0  0  0  0  0  0  0  0  # atno 17395 bound_to 11000

$$$$
