AV-unprocessed.smi:1071|AV-procd|sdf|4682|dock1
  -GOLD-   22720 3203D 1   1.00000     0.00000
 Structure written by MMmdl.
 46 47  0  0  0  0  0  0  0  0  1 V2000
  151.5915  144.3594  157.8944 C   0  0  0  0  0  0  0  0  0  0  0  0
  151.3066  142.9812  157.7286 O   0  0  0  0  0  0  0  0  0  0  0  0
  152.2806  142.1487  158.3356 C   0  0  0  0  0  0  0  0  0  0  0  0
  151.9020  140.6838  158.1010 C   0  0  0  0  0  0  0  0  0  0  0  0
  151.5111  140.5251  156.7404 O   0  0  0  0  0  0  0  0  0  0  0  0
  151.3153  139.2480  156.2560 C   0  0  0  0  0  0  0  0  0  0  0  0
  151.2102  138.1872  157.1771 C   0  0  0  0  0  0  0  0  0  0  0  0
  151.0075  136.8807  156.6925 C   0  0  0  0  0  0  0  0  0  0  0  0
  150.9079  136.6778  155.2956 C   0  0  0  0  0  0  0  0  0  0  0  0
  150.7232  135.4101  154.6807 N   0  0  0  0  0  0  0  0  0  0  0  0
  150.5328  134.2100  155.2635 C   0  0  0  0  0  0  0  0  0  0  0  0
  150.6321  134.0143  156.4741 O   0  0  0  0  0  0  0  0  0  0  0  0
  150.3442  133.2163  154.3601 N   0  0  0  0  0  0  0  0  0  0  0  0
  149.3908  133.3760  153.2503 C   0  0  0  0  0  0  0  0  0  0  0  0
  148.0270  132.7930  153.6774 C   0  0  0  0  0  0  0  0  0  0  0  0
  148.1697  131.3765  154.0229 N   0  0  0  0  0  0  0  0  0  0  0  0
  146.8857  130.8445  154.4546 C   0  0  0  0  0  0  0  0  0  0  0  0
  149.1633  131.1922  155.0841 C   0  0  0  0  0  0  0  0  0  0  0  0
  150.5196  131.7747  154.6316 C   0  0  2  0  0  0  0  0  0  0  0  0
  151.6664  131.4185  155.6005 C   0  0  0  0  0  0  0  0  0  0  0  0
  151.0434  137.8039  154.4578 C   0  0  0  0  0  0  0  0  0  0  0  0
  151.2360  139.0586  154.9158 N   0  0  0  0  0  0  0  0  0  0  0  0
  150.8138  144.9541  157.4152 H   0  0  0  0  0  0  0  0  0  0  0  0
  152.5458  144.6222  157.4361 H   0  0  0  0  0  0  0  0  0  0  0  0
  151.6223  144.6327  158.9500 H   0  0  0  0  0  0  0  0  0  0  0  0
  153.2659  142.3516  157.9127 H   0  0  0  0  0  0  0  0  0  0  0  0
  152.3314  142.3533  159.4061 H   0  0  0  0  0  0  0  0  0  0  0  0
  152.7570  140.0435  158.3253 H   0  0  0  0  0  0  0  0  0  0  0  0
  151.0843  140.4048  158.7677 H   0  0  0  0  0  0  0  0  0  0  0  0
  151.2875  138.3712  158.2385 H   0  0  0  0  0  0  0  0  0  0  0  0
  150.9485  136.0666  157.3979 H   0  0  0  0  0  0  0  0  0  0  0  0
  150.6102  135.4293  153.6777 H   0  0  0  0  0  0  0  0  0  0  0  0
  149.2568  134.4153  152.9478 H   0  0  0  0  0  0  0  0  0  0  0  0
  149.7642  132.8613  152.3636 H   0  0  0  0  0  0  0  0  0  0  0  0
  147.6305  133.3495  154.5284 H   0  0  0  0  0  0  0  0  0  0  0  0
  147.3095  132.8971  152.8624 H   0  0  0  0  0  0  0  0  0  0  0  0
  146.9704  129.7828  154.6884 H   0  0  0  0  0  0  0  0  0  0  0  0
  146.1421  130.9523  153.6642 H   0  0  0  0  0  0  0  0  0  0  0  0
  146.5195  131.3623  155.3424 H   0  0  0  0  0  0  0  0  0  0  0  0
  148.8300  131.6721  156.0060 H   0  0  0  0  0  0  0  0  0  0  0  0
  149.2678  130.1271  155.2947 H   0  0  0  0  0  0  0  0  0  0  0  0
  150.7909  131.3027  153.6853 H   0  0  0  0  0  0  0  0  0  0  0  0
  151.8601  130.3458  155.5809 H   0  0  0  0  0  0  0  0  0  0  0  0
  151.4364  131.6756  156.6339 H   0  0  0  0  0  0  0  0  0  0  0  0
  152.5928  131.9210  155.3206 H   0  0  0  0  0  0  0  0  0  0  0  0
  150.9894  137.6979  153.3841 H   0  0  0  0  0  0  0  0  0  0  0  0
  1  2  1  0  0  0  0
  1 23  1  0  0  0  0
  1 24  1  0  0  0  0
  1 25  1  0  0  0  0
  2  3  1  0  0  0  0
  3  4  1  0  0  0  0
  3 26  1  0  0  0  0
  3 27  1  0  0  0  0
  4  5  1  0  0  0  0
  4 28  1  0  0  0  0
  4 29  1  0  0  0  0
  5  6  1  0  0  0  0
  6 22  1  0  0  0  0
  6  7  2  0  0  0  0
  7  8  1  0  0  0  0
  7 30  1  0  0  0  0
  8  9  2  0  0  0  0
  8 31  1  0  0  0  0
  9 10  1  0  0  0  0
  9 21  1  0  0  0  0
 10 11  1  0  0  0  0
 10 32  1  0  0  0  0
 11 12  2  0  0  0  0
 11 13  1  0  0  0  0
 13 19  1  0  0  0  0
 13 14  1  0  0  0  0
 14 15  1  0  0  0  0
 14 33  1  0  0  0  0
 14 34  1  0  0  0  0
 15 16  1  0  0  0  0
 15 35  1  0  0  0  0
 15 36  1  0  0  0  0
 16 17  1  0  0  0  0
 16 18  1  0  0  0  0
 17 37  1  0  0  0  0
 17 38  1  0  0  0  0
 17 39  1  0  0  0  0
 18 19  1  0  0  0  0
 18 40  1  0  0  0  0
 18 41  1  0  0  0  0
 19 20  1  0  0  0  0
 19 42  1  0  0  0  0
 20 43  1  0  0  0  0
 20 44  1  0  0  0  0
 20 45  1  0  0  0  0
 21 22  2  0  0  0  0
 21 46  1  0  0  0  0
M  END
> <s_m_source_file>
AV-unprocessed.smi

> <i_m_source_file_index>
1071

> <i_lp_mmshare_version>
43012

> <i_f3d_flags>
0

> <s_epik_input>
W0NIM11PW0NIMl1bQ0gyXU9jMVtjSF1bY0hdYyhbY0hdbjEpW05IXUMoPU8pTjJbQ0gyXVtDSDJdTihbQ0gzXSlbQ0gyXVtDQEhdMltDSDNd

> <s_epik_cmdline>
J2VwaWtfcHl0aG9uJywgJy1waCcsICc3LjAnLCAnLXRuJywgJzgnLCAnLW1hJywgJzIwMCcsICctbWV0YWxfYmluZGluZycsICctaW1hZScsICc8aW5maWxlLm1hZT4nLCAnLW9tYWUnLCAnPG91dGZpbGUubWFlPic=

> <r_lp_tautomer_probability>
1

> <r_epik_Ionization_Penalty>
0.623446

> <r_epik_Ionization_Penalty_Charging>
0

> <r_epik_Ionization_Penalty_Neutral>
0.623446

> <r_epik_State_Penalty>
0.639577

> <r_epik_Charging_Adjusted_Penalty>
0.639577

> <i_epik_Tot_Q>
0

> <i_epik_Tot_abs_Q>
0

> <r_epik_Metal_State_Penalty>
0.639567

> <b_epik_Metal_Only>
0

> <s_lp_Force_Field>
OPLS_2005

> <r_lp_Energy>
48.0993

> <b_lp_Chiralities_Consistent>
1

> <s_lp_Variant>
AV-unprocessed.smi:1071-6

> <Gold.Version>
5.8.1

> <Gold.Id.Protein>
6NUR|6NUR_protein|mol2

> <Gold.PLP.Fitness>
33.5097

> <Gold.PLP.PLP>
-30.1816

> <Gold.PLP.part.hbond>
-0.0796

> <Gold.PLP.part.metal>
0.0000

> <Gold.PLP.part.buried>
-5.7538

> <Gold.PLP.part.nonpolar>
-22.6761

> <Gold.PLP.part.repulsive>
0.3319

> <Gold.PLP.ligand.clash>
0.0000

> <Gold.PLP.ligand.torsion>
0.7010

> <Gold.PLP.Chemscore.Hbond>
0.2860

> <Gold.PLP.Chemscore.CHOScore>
1.0549

> <Gold.PLP.Chemscore.Metal>
0.0000

> <Gold.Chemscore.Hbonds>
donor molecule, donor type, donor heavy atom, donor atom, acceptor molecule, acceptor atom, score
      L1  H    10    32       P1  7949  0.11
      P1  H  7989  7998       L1    22  0.26
      L1  C    21    46       P1  7948  0.04
      L1  C    21    46       P1  7949  0.94

> <Gold.PLP.Chemscore.Internal.Correction>
0.7072

> <Gold.Rescore>
     Score         DG    S(hbond)    S(metal)    S(lipo)     H(rot)  DE(clash)    DE(int)     intcor
      8.98     -12.40       0.69        0.00      73.81       1.57       0.21       3.21       ----

> <Gold.Chemscore.Fitness>
8.9833

> <Gold.Chemscore.DG>
-12.4041

> <Gold.Chemscore.ZeroCoef>
-5.4800

> <Gold.Chemscore.Hbond>
0.6942

> <Gold.Chemscore.Metal>
0.0000

> <Gold.Chemscore.Lipo>
73.8078

> <Gold.Chemscore.Internal_Hbond>
0.0000

> <Gold.Chemscore.DEClash>
0.2085

> <Gold.Chemscore.DEInternal>
3.2123

> <Gold.Chemscore.Rot>
1.5743

> <Gold.Chemscore.Internal.Correction>
   9.000000E+99

> <Gold.Chemscore.Hbonds>
donor molecule, donor type, donor heavy atom, donor atom, acceptor molecule, acceptor atom, score
      P1  H  7989  7998       L1    22  0.26

> <Gold.Chemscore.Hbond.Weighted>
-2.3187

> <Gold.Chemscore.Metal.Weighted>
-0.0000

> <Gold.Chemscore.Lipo.Weighted>
-8.6355

> <Gold.Chemscore.Internal_Hbond.Weighted>
0.0000

> <Gold.Chemscore.DEClash.Weighted>
0.2085

> <Gold.Chemscore.DEInternal.Weighted>
3.2123

> <Gold.Chemscore.Rot.Weighted>
4.0301

> <Gold.Chemscore.Internal.Correction.Weighted>
   9.000000E+99

> <Gold.Protein.RotatedTorsions>
[ 6907 6896 6895 6894 ] final -171.91 input  -60.11 | X-H torsion
[ 7974 7965 7964 7962 ] final  168.33 input  175.53 | X-H torsion
[ 8008 7997 7996 7995 ] final   52.81 input   59.86 | X-H torsion
[ 10167 10162 10161 10158 ] final  -71.85 input  -65.29 | X-H torsion
[ 10718 10713 10712 10709 ] final -144.09 input   66.30 | X-H torsion
[ 10763 10752 10751 10750 ] final  -52.30 input  -60.55 | X-H torsion
[ 11005 11000 10999 10996 ] final  -10.52 input  -57.11 | X-H torsion

> <Gold.Protein.ActiveResidues>
 VAL166  LYS551  ARG553  GLY616  TRP617  ASP618  TYR619  PRO620  LYS621  CYS622 
 ASP623  PHE694  ASN695  SER759  ASP760  ASP761  ALA762  ILE779  LEU786  VAL792 
 PHE793  MET794  SER795  GLU796  ALA797  LYS798  CYS799  TRP800  GLU811  SER814 

> <Gold.Protein.RotatedAtoms>
  151.5314  133.3448  159.2918 H   0  0  0  0  0  0  0  0  0  0  0  0  # atno 6907 bound_to 6896
  150.8591  134.7940  159.7080 H   0  0  0  0  0  0  0  0  0  0  0  0  # atno 6908 bound_to 6896
  152.4616  134.5180  159.9826 H   0  0  0  0  0  0  0  0  0  0  0  0  # atno 6909 bound_to 6896
  144.7392  139.8892  143.6402 H   0  0  0  0  0  0  0  0  0  0  0  0  # atno 7974 bound_to 7965
  155.4579  140.3460  155.4309 H   0  0  0  0  0  0  0  0  0  0  0  0  # atno 8008 bound_to 7997
  156.1179  140.1479  156.9275 H   0  0  0  0  0  0  0  0  0  0  0  0  # atno 8009 bound_to 7997
  154.4802  140.0872  156.7339 H   0  0  0  0  0  0  0  0  0  0  0  0  # atno 8010 bound_to 7997
  140.5240  143.2328  151.7380 H   0  0  0  0  0  0  0  0  0  0  0  0  # atno 10167 bound_to 10162
  156.3659  130.7763  151.1937 H   0  0  0  0  0  0  0  0  0  0  0  0  # atno 10718 bound_to 10713
  154.1405  135.6506  153.4941 H   0  0  0  0  0  0  0  0  0  0  0  0  # atno 10763 bound_to 10752
  153.0167  135.5314  154.6910 H   0  0  0  0  0  0  0  0  0  0  0  0  # atno 10764 bound_to 10752
  154.6170  135.2960  155.0340 H   0  0  0  0  0  0  0  0  0  0  0  0  # atno 10765 bound_to 10752
  140.7456  133.8634  155.9003 H   0  0  0  0  0  0  0  0  0  0  0  0  # atno 11005 bound_to 11000
  146.1154  139.4165  143.0261 LP  0  0  0  0  0  0  0  0  0  0  0  0  # atno 17320 bound_to 7965
  145.7382  141.0018  143.1315 LP  0  0  0  0  0  0  0  0  0  0  0  0  # atno 17321 bound_to 7965
  139.4932  144.4213  151.9974 LP  0  0  0  0  0  0  0  0  0  0  0  0  # atno 17342 bound_to 10162
  140.3311  144.3315  150.5987 LP  0  0  0  0  0  0  0  0  0  0  0  0  # atno 17343 bound_to 10162
  157.7479  131.0386  150.4512 LP  0  0  0  0  0  0  0  0  0  0  0  0  # atno 17370 bound_to 10713
  156.4731  130.4057  149.6506 LP  0  0  0  0  0  0  0  0  0  0  0  0  # atno 17371 bound_to 10713
  140.9797  134.1421  157.4505 LP  0  0  0  0  0  0  0  0  0  0  0  0  # atno 17394 bound_to 11000
  139.8797  135.0006  156.6022 LP  0  0  0  0  0  0  0  0  0  0  0  0  # atno 17395 bound_to 11000

$$$$
