AV-unprocessed.smi:1464|AV-procd|sdf|5941|dock5
  -GOLD-   22720 6 23D 1   1.00000     0.00000
 Structure written by MMmdl.
 40 41  0  0  0  0  0  0  0  0  2 V2000
  150.1773  145.1100  160.0251 C   0  0  0  0  0  0  0  0  0  0  0  0
  150.9420  143.7758  160.0055 C   0  0  2  0  0  0  0  0  0  0  0  0
  152.3642  143.9229  160.5837 C   0  0  0  0  0  0  0  0  0  0  0  0
  153.0865  142.5683  160.6544 C   0  0  0  0  0  0  0  0  0  0  0  0
  153.1027  141.8650  159.2888 C   0  0  0  0  0  0  0  0  0  0  0  0
  151.6786  141.7168  158.7193 C   0  0  2  0  0  0  0  0  0  0  0  0
  151.7284  141.0117  157.4403 N   0  0  0  0  0  0  0  0  0  0  0  0
  152.3811  139.8620  157.2098 C   0  0  0  0  0  0  0  0  0  0  0  0
  153.0204  139.2667  158.0791 O   0  0  0  0  0  0  0  0  0  0  0  0
  152.2763  139.3157  155.7769 C   0  0  0  0  0  0  0  0  0  0  0  0
  150.8977  139.1701  155.2864 N   0  0  0  0  0  0  0  0  0  0  0  0
  150.2821  140.4290  154.8752 N   0  5  0  0  0  0  0  0  0  0  0  0
  148.9959  140.4248  154.4353 C   0  0  0  0  0  0  0  0  0  0  0  0
  148.4061  141.4462  154.0906 O   0  0  0  0  0  0  0  0  0  0  0  0
  148.2997  139.1505  154.3684 C   0  0  0  0  0  0  0  0  0  0  0  0
  148.9026  137.9999  154.7270 C   0  0  0  0  0  0  0  0  0  0  0  0
  150.2779  137.9578  155.2093 C   0  0  0  0  0  0  0  0  0  0  0  0
  150.8382  136.9089  155.5292 O   0  0  0  0  0  0  0  0  0  0  0  0
  150.9580  143.0896  158.6133 C   0  0  2  0  0  0  0  0  0  0  0  0
  151.5207  143.9882  157.4873 C   0  0  0  0  0  0  0  0  0  0  0  0
  150.6998  145.8861  159.4659 H   0  0  0  0  0  0  0  0  0  0  0  0
  150.0565  145.4726  161.0462 H   0  0  0  0  0  0  0  0  0  0  0  0
  149.1809  144.9992  159.5965 H   0  0  0  0  0  0  0  0  0  0  0  0
  150.3967  143.1087  160.6751 H   0  0  0  0  0  0  0  0  0  0  0  0
  152.9463  144.6193  159.9796 H   0  0  0  0  0  0  0  0  0  0  0  0
  152.3153  144.3562  161.5833 H   0  0  0  0  0  0  0  0  0  0  0  0
  154.1068  142.7088  161.0123 H   0  0  0  0  0  0  0  0  0  0  0  0
  152.5891  141.9292  161.3852 H   0  0  0  0  0  0  0  0  0  0  0  0
  153.7310  142.4253  158.5956 H   0  0  0  0  0  0  0  0  0  0  0  0
  153.5653  140.8829  159.3940 H   0  0  0  0  0  0  0  0  0  0  0  0
  151.1180  141.0926  159.4185 H   0  0  0  0  0  0  0  0  0  0  0  0
  151.2259  141.4295  156.6708 H   0  0  0  0  0  0  0  0  0  0  0  0
  152.8433  139.9776  155.1195 H   0  0  0  0  0  0  0  0  0  0  0  0
  152.7860  138.3518  155.7286 H   0  0  0  0  0  0  0  0  0  0  0  0
  147.2773  139.1258  154.0209 H   0  0  0  0  0  0  0  0  0  0  0  0
  148.3479  137.0761  154.6592 H   0  0  0  0  0  0  0  0  0  0  0  0
  149.9190  142.8878  158.3489 H   0  0  0  0  0  0  0  0  0  0  0  0
  152.5575  144.2704  157.6660 H   0  0  0  0  0  0  0  0  0  0  0  0
  150.9425  144.9054  157.3818 H   0  0  0  0  0  0  0  0  0  0  0  0
  151.4793  143.4895  156.5191 H   0  0  0  0  0  0  0  0  0  0  0  0
  1  2  1  0  0  0  0
  1 21  1  0  0  0  0
  1 22  1  0  0  0  0
  1 23  1  0  0  0  0
  2 19  1  0  0  0  0
  2  3  1  0  0  0  0
  2 24  1  0  0  0  0
  3  4  1  0  0  0  0
  3 25  1  0  0  0  0
  3 26  1  0  0  0  0
  4  5  1  0  0  0  0
  4 27  1  0  0  0  0
  4 28  1  0  0  0  0
  5  6  1  0  0  0  0
  5 29  1  0  0  0  0
  5 30  1  0  0  0  0
  6  7  1  0  0  0  0
  6 19  1  0  0  0  0
  6 31  1  0  0  0  0
  7  8  1  0  0  0  0
  7 32  1  0  0  0  0
  8  9  2  0  0  0  0
  8 10  1  0  0  0  0
 10 33  1  0  0  0  0
 10 34  1  0  0  0  0
 10 11  1  0  0  0  0
 11 12  1  0  0  0  0
 11 17  1  0  0  0  0
 12 13  1  0  0  0  0
 13 14  2  0  0  0  0
 13 15  1  0  0  0  0
 15 35  1  0  0  0  0
 15 16  2  0  0  0  0
 16 36  1  0  0  0  0
 16 17  1  0  0  0  0
 17 18  2  0  0  0  0
 19 20  1  0  0  0  0
 19 37  1  0  0  0  0
 20 38  1  0  0  0  0
 20 39  1  0  0  0  0
 20 40  1  0  0  0  0
M  CHG  1  12  -1
M  END
> <s_m_source_file>
AV-unprocessed.smi

> <i_m_source_file_index>
1464

> <i_lp_mmshare_version>
43012

> <i_f3d_flags>
0

> <s_epik_input>
W0NIM11bQ0BASF0xW0NIMl1bQ0gyXVtDSDJdW0NASF0oW0NASF0xW0NIM10pW05IXUMoPU8pW0NIMl1uMltuSF1jKD1PKVtjSF1bY0hdYzI9Tw==

> <s_epik_cmdline>
J2VwaWtfcHl0aG9uJywgJy1waCcsICc3LjAnLCAnLXRuJywgJzgnLCAnLW1hJywgJzIwMCcsICctbWV0YWxfYmluZGluZycsICctaW1hZScsICc8aW5maWxlLm1hZT4nLCAnLW9tYWUnLCAnPG91dGZpbGUubWFlPic=

> <r_lp_tautomer_probability>
1

> <r_epik_Ionization_Penalty>
0.101366

> <r_epik_Ionization_Penalty_Charging>
0.101366

> <r_epik_Ionization_Penalty_Neutral>
1.90469e-08

> <r_epik_State_Penalty>
0.035861

> <r_epik_Charging_Adjusted_Penalty>
0.137227

> <i_epik_Tot_Q>
-1

> <i_epik_Tot_abs_Q>
1

> <r_epik_Metal_State_Penalty>
0.035861

> <b_epik_Metal_Only>
0

> <s_lp_Force_Field>
OPLS_2005

> <r_lp_Energy>
29.9934

> <b_lp_Chiralities_Consistent>
1

> <s_lp_Variant>
AV-unprocessed.smi:1464-7

> <Gold.Version>
5.8.1

> <Gold.Id.Protein>
6NUR|6NUR_protein|mol2

> <Gold.PLP.Fitness>
43.3143

> <Gold.PLP.PLP>
-39.6966

> <Gold.PLP.part.hbond>
-2.0000

> <Gold.PLP.part.metal>
0.0000

> <Gold.PLP.part.buried>
-3.8865

> <Gold.PLP.part.nonpolar>
-34.0318

> <Gold.PLP.part.repulsive>
0.4854

> <Gold.PLP.ligand.clash>
0.0000

> <Gold.PLP.ligand.torsion>
0.3341

> <Gold.PLP.Chemscore.Hbond>
1.4240

> <Gold.PLP.Chemscore.CHOScore>
0.0000

> <Gold.PLP.Chemscore.Metal>
0.0000

> <Gold.Chemscore.Hbonds>
donor molecule, donor type, donor heavy atom, donor atom, acceptor molecule, acceptor atom, score
      P1  H  7989  7998       L1    12  0.80

> <Gold.PLP.Chemscore.Internal.Correction>
0.0139

> <Gold.Rescore>
     Score         DG    S(hbond)    S(metal)    S(lipo)     H(rot)  DE(clash)    DE(int)     intcor
     15.39     -16.76       1.30        0.00      95.43       1.64       0.13       1.24       ----

> <Gold.Chemscore.Fitness>
15.3880

> <Gold.Chemscore.DG>
-16.7629

> <Gold.Chemscore.ZeroCoef>
-5.4800

> <Gold.Chemscore.Hbond>
1.2953

> <Gold.Chemscore.Metal>
0.0000

> <Gold.Chemscore.Lipo>
95.4252

> <Gold.Chemscore.Internal_Hbond>
0.0000

> <Gold.Chemscore.DEClash>
0.1311

> <Gold.Chemscore.DEInternal>
1.2439

> <Gold.Chemscore.Rot>
1.6438

> <Gold.Chemscore.Internal.Correction>
   9.000000E+99

> <Gold.Chemscore.Hbonds>
donor molecule, donor type, donor heavy atom, donor atom, acceptor molecule, acceptor atom, score
      P1  H  7989  7998       L1    12  0.10
      P1  H  8011  8017       L1    14  0.02

> <Gold.Chemscore.Hbond.Weighted>
-4.3261

> <Gold.Chemscore.Metal.Weighted>
-0.0000

> <Gold.Chemscore.Lipo.Weighted>
-11.1648

> <Gold.Chemscore.Internal_Hbond.Weighted>
0.0000

> <Gold.Chemscore.DEClash.Weighted>
0.1311

> <Gold.Chemscore.DEInternal.Weighted>
1.2439

> <Gold.Chemscore.Rot.Weighted>
4.2080

> <Gold.Chemscore.Internal.Correction.Weighted>
   9.000000E+99

> <Gold.Protein.RotatedTorsions>
[ 6907 6896 6895 6894 ] final  -59.11 input  -60.11 | X-H torsion
[ 7974 7965 7964 7962 ] final   82.30 input  175.53 | X-H torsion
[ 8008 7997 7996 7995 ] final -142.89 input   59.86 | X-H torsion
[ 10167 10162 10161 10158 ] final   39.15 input  -65.29 | X-H torsion
[ 10718 10713 10712 10709 ] final  -93.27 input   66.30 | X-H torsion
[ 10763 10752 10751 10750 ] final  136.53 input  -60.55 | X-H torsion
[ 11005 11000 10999 10996 ] final -141.74 input  -57.11 | X-H torsion

> <Gold.Protein.ActiveResidues>
 VAL166  LYS551  ARG553  GLY616  TRP617  ASP618  TYR619  PRO620  LYS621  CYS622 
 ASP623  PHE694  ASN695  SER759  ASP760  ASP761  ALA762  ILE779  LEU786  VAL792 
 PHE793  MET794  SER795  GLU796  ALA797  LYS798  CYS799  TRP800  GLU811  SER814 

> <Gold.Protein.RotatedAtoms>
  150.7955  134.7012  159.6550 H   0  0  0  0  0  0  0  0  0  0  0  0  # atno 6907 bound_to 6896
  152.4067  134.6191  160.0056 H   0  0  0  0  0  0  0  0  0  0  0  0  # atno 6908 bound_to 6896
  151.6446  133.3287  159.3174 H   0  0  0  0  0  0  0  0  0  0  0  0  # atno 6909 bound_to 6896
  145.6268  139.2397  143.2107 H   0  0  0  0  0  0  0  0  0  0  0  0  # atno 7974 bound_to 7965
  155.5017  140.0576  157.2938 H   0  0  0  0  0  0  0  0  0  0  0  0  # atno 8008 bound_to 7997
  154.4585  140.1984  156.0262 H   0  0  0  0  0  0  0  0  0  0  0  0  # atno 8009 bound_to 7997
  156.0844  140.3242  155.7739 H   0  0  0  0  0  0  0  0  0  0  0  0  # atno 8010 bound_to 7997
  140.3868  144.1907  150.6130 H   0  0  0  0  0  0  0  0  0  0  0  0  # atno 10167 bound_to 10162
  156.0011  130.5020  150.5751 H   0  0  0  0  0  0  0  0  0  0  0  0  # atno 10718 bound_to 10713
  153.8581  135.3071  155.3436 H   0  0  0  0  0  0  0  0  0  0  0  0  # atno 10763 bound_to 10752
  154.7861  135.4809  153.9952 H   0  0  0  0  0  0  0  0  0  0  0  0  # atno 10764 bound_to 10752
  153.1478  135.6837  153.9022 H   0  0  0  0  0  0  0  0  0  0  0  0  # atno 10765 bound_to 10752
  140.8294  134.2535  157.4864 H   0  0  0  0  0  0  0  0  0  0  0  0  # atno 11005 bound_to 11000
  146.1388  140.7086  142.9377 LP  0  0  0  0  0  0  0  0  0  0  0  0  # atno 17320 bound_to 7965
  144.7209  140.4370  143.7009 LP  0  0  0  0  0  0  0  0  0  0  0  0  # atno 17321 bound_to 7965
  140.4881  143.2356  151.8858 LP  0  0  0  0  0  0  0  0  0  0  0  0  # atno 17342 bound_to 10162
  139.4791  144.5196  151.8820 LP  0  0  0  0  0  0  0  0  0  0  0  0  # atno 17343 bound_to 10162
  157.3640  131.0754  151.1613 LP  0  0  0  0  0  0  0  0  0  0  0  0  # atno 17370 bound_to 10713
  157.2389  130.6560  149.5881 LP  0  0  0  0  0  0  0  0  0  0  0  0  # atno 17371 bound_to 10713
  139.8705  134.9578  156.4280 LP  0  0  0  0  0  0  0  0  0  0  0  0  # atno 17394 bound_to 11000
  140.9014  133.7776  155.9685 LP  0  0  0  0  0  0  0  0  0  0  0  0  # atno 17395 bound_to 11000

$$$$
