AV-unprocessed.smi:2159|AV-procd|sdf|8792|dock4
  -GOLD-   2272011573D 1   1.00000     0.00000
 Structure written by MMmdl.
 47 49  0  0  0  0  0  0  0  0  1 V2000
  151.3420  136.5969  154.7030 O   0  0  0  0  0  0  0  0  0  0  0  0
  151.2594  137.0716  155.8361 C   0  0  0  0  0  0  0  0  0  0  0  0
  151.8290  138.4594  156.1449 C   0  0  0  0  0  0  0  0  0  0  0  0
  152.4991  138.5457  157.5308 C   0  0  0  0  0  0  0  0  0  0  0  0
  152.2127  139.8300  158.1793 N   0  0  0  0  0  0  0  0  0  0  0  0
  153.0915  140.4972  158.9404 C   0  0  0  0  0  0  0  0  0  0  0  0
  154.2451  140.1490  159.1923 O   0  0  0  0  0  0  0  0  0  0  0  0
  152.4789  141.7819  159.4925 C   0  0  1  0  0  0  0  0  0  0  0  0
  153.2905  143.0319  159.0916 C   0  0  0  0  0  0  0  0  0  0  0  0
  152.4974  144.3238  159.3552 C   0  0  0  0  0  0  0  0  0  0  0  0
  151.0680  144.3027  158.7684 C   0  0  0  0  0  0  0  0  0  0  0  0
  150.7212  142.9929  158.0389 C   0  0  0  0  0  0  0  0  0  0  0  0
  151.0507  141.7603  158.9070 C   0  0  1  0  0  0  0  0  0  0  0  0
  151.0360  140.4667  158.0965 C   0  0  0  0  0  0  0  0  0  0  0  0
  150.0478  140.0868  157.4683 O   0  0  0  0  0  0  0  0  0  0  0  0
  150.6872  136.4263  156.8639 N   0  0  0  0  0  0  0  0  0  0  0  0
  150.1008  135.0923  156.7998 C   0  0  0  0  0  0  0  0  0  0  0  0
  150.9566  134.1307  155.9587 C   0  0  0  0  0  0  0  0  0  0  0  0
  150.1176  133.3095  154.9973 C   0  0  0  0  0  0  0  0  0  0  0  0
  150.1245  131.8996  155.0614 C   0  0  0  0  0  0  0  0  0  0  0  0
  149.3376  131.1819  154.1401 C   0  0  0  0  0  0  0  0  0  0  0  0
  148.5783  131.8976  153.1944 C   0  0  0  0  0  0  0  0  0  0  0  0
  148.6398  133.3054  153.2125 C   0  0  0  0  0  0  0  0  0  0  0  0
  149.3915  134.0030  154.0916 N   0  0  0  0  0  0  0  0  0  0  0  0
  152.5527  138.7256  155.3729 H   0  0  0  0  0  0  0  0  0  0  0  0
  151.0176  139.1847  156.0760 H   0  0  0  0  0  0  0  0  0  0  0  0
  152.1581  137.7275  158.1679 H   0  0  0  0  0  0  0  0  0  0  0  0
  153.5781  138.4095  157.4348 H   0  0  0  0  0  0  0  0  0  0  0  0
  152.4309  141.7090  160.5800 H   0  0  0  0  0  0  0  0  0  0  0  0
  154.2318  143.0601  159.6421 H   0  0  0  0  0  0  0  0  0  0  0  0
  153.5594  142.9849  158.0348 H   0  0  0  0  0  0  0  0  0  0  0  0
  152.4335  144.4864  160.4319 H   0  0  0  0  0  0  0  0  0  0  0  0
  153.0489  145.1766  158.9581 H   0  0  0  0  0  0  0  0  0  0  0  0
  150.3529  144.4573  159.5772 H   0  0  0  0  0  0  0  0  0  0  0  0
  150.9337  145.1442  158.0879 H   0  0  0  0  0  0  0  0  0  0  0  0
  149.6637  142.9909  157.7713 H   0  0  0  0  0  0  0  0  0  0  0  0
  151.2717  142.9498  157.0973 H   0  0  0  0  0  0  0  0  0  0  0  0
  150.3240  141.6769  159.7164 H   0  0  0  0  0  0  0  0  0  0  0  0
  150.6654  136.8902  157.7606 H   0  0  0  0  0  0  0  0  0  0  0  0
  149.9558  134.6979  157.8072 H   0  0  0  0  0  0  0  0  0  0  0  0
  149.1088  135.1851  156.3569 H   0  0  0  0  0  0  0  0  0  0  0  0
  151.7007  134.6928  155.3926 H   0  0  0  0  0  0  0  0  0  0  0  0
  151.5135  133.4531  156.6077 H   0  0  0  0  0  0  0  0  0  0  0  0
  150.7194  131.3793  155.7978 H   0  0  0  0  0  0  0  0  0  0  0  0
  149.3182  130.1022  154.1580 H   0  0  0  0  0  0  0  0  0  0  0  0
  147.9636  131.3804  152.4728 H   0  0  0  0  0  0  0  0  0  0  0  0
  148.0709  133.8865  152.5018 H   0  0  0  0  0  0  0  0  0  0  0  0
  1  2  2  0  0  0  0
  2  3  1  0  0  0  0
  2 16  1  0  0  0  0
  3  4  1  0  0  0  0
  3 25  1  0  0  0  0
  3 26  1  0  0  0  0
  4  5  1  0  0  0  0
  4 27  1  0  0  0  0
  4 28  1  0  0  0  0
  5 14  1  0  0  0  0
  5  6  1  0  0  0  0
  6  7  2  0  0  0  0
  6  8  1  0  0  0  0
  8 13  1  0  0  0  0
  8  9  1  0  0  0  0
  8 29  1  0  0  0  0
  9 10  1  0  0  0  0
  9 30  1  0  0  0  0
  9 31  1  0  0  0  0
 10 11  1  0  0  0  0
 10 32  1  0  0  0  0
 10 33  1  0  0  0  0
 11 12  1  0  0  0  0
 11 34  1  0  0  0  0
 11 35  1  0  0  0  0
 12 13  1  0  0  0  0
 12 36  1  0  0  0  0
 12 37  1  0  0  0  0
 13 14  1  0  0  0  0
 13 38  1  0  0  0  0
 14 15  2  0  0  0  0
 16 17  1  0  0  0  0
 16 39  1  0  0  0  0
 17 18  1  0  0  0  0
 17 40  1  0  0  0  0
 17 41  1  0  0  0  0
 18 19  1  0  0  0  0
 18 42  1  0  0  0  0
 18 43  1  0  0  0  0
 19 24  1  0  0  0  0
 19 20  2  0  0  0  0
 20 21  1  0  0  0  0
 20 44  1  0  0  0  0
 21 22  2  0  0  0  0
 21 45  1  0  0  0  0
 22 23  1  0  0  0  0
 22 46  1  0  0  0  0
 23 24  2  0  0  0  0
 23 47  1  0  0  0  0
M  END
> <s_m_source_file>
AV-unprocessed.smi

> <i_m_source_file_index>
2159

> <i_lp_mmshare_version>
43012

> <i_f3d_flags>
0

> <s_epik_input>
bjFbY0hdW2NIXVtjSF1bY0hdYzFbQ0gyXVtDSDJdW05IXUMoPU8pW0NIMl1bQ0gyXU4oQzI9TylDKD1PKVtDQEhdKFtDQEBIXTIzKVtDSDJdW0NIMl1bQ0gyXVtDSDJdMw==

> <s_epik_cmdline>
J2VwaWtfcHl0aG9uJywgJy1waCcsICc3LjAnLCAnLXRuJywgJzgnLCAnLW1hJywgJzIwMCcsICctbWV0YWxfYmluZGluZycsICctaW1hZScsICc8aW5maWxlLm1hZT4nLCAnLW9tYWUnLCAnPG91dGZpbGUubWFlPic=

> <r_lp_tautomer_probability>
1

> <r_epik_Ionization_Penalty>
0.026624

> <r_epik_Ionization_Penalty_Charging>
0

> <r_epik_Ionization_Penalty_Neutral>
0.026624

> <r_epik_State_Penalty>
0.0217444

> <r_epik_Charging_Adjusted_Penalty>
0.0217444

> <i_epik_Tot_Q>
0

> <i_epik_Tot_abs_Q>
0

> <r_epik_Metal_State_Penalty>
0.0208054

> <b_epik_Metal_Only>
0

> <s_lp_Force_Field>
OPLS_2005

> <r_lp_Energy>
25.0147

> <b_lp_Chiralities_Consistent>
1

> <s_lp_Variant>
AV-unprocessed.smi:2159-2

> <Gold.Version>
5.8.1

> <Gold.Id.Protein>
6NUR|6NUR_protein|mol2

> <Gold.PLP.Fitness>
46.6663

> <Gold.PLP.PLP>
-41.7072

> <Gold.PLP.part.hbond>
-2.0000

> <Gold.PLP.part.metal>
0.0000

> <Gold.PLP.part.buried>
-3.8299

> <Gold.PLP.part.nonpolar>
-35.4554

> <Gold.PLP.part.repulsive>
0.4513

> <Gold.PLP.ligand.clash>
0.0000

> <Gold.PLP.ligand.torsion>
1.3605

> <Gold.PLP.Chemscore.Hbond>
1.9516

> <Gold.PLP.Chemscore.CHOScore>
0.5879

> <Gold.PLP.Chemscore.Metal>
0.0000

> <Gold.Chemscore.Hbonds>
donor molecule, donor type, donor heavy atom, donor atom, acceptor molecule, acceptor atom, score
      P1  H  7997  8008       L1     7  0.94
      P1  H 10752 10764       L1     1  1.00
      L1  C    23    47       P1  7948  0.57

> <Gold.PLP.Chemscore.Internal.Correction>
0.0616

> <Gold.Rescore>
     Score         DG    S(hbond)    S(metal)    S(lipo)     H(rot)  DE(clash)    DE(int)     intcor
     14.08     -18.07       1.50        0.00     107.80       1.97       0.01       3.97       ----

> <Gold.Chemscore.Fitness>
14.0817

> <Gold.Chemscore.DG>
-18.0685

> <Gold.Chemscore.ZeroCoef>
-5.4800

> <Gold.Chemscore.Hbond>
1.5030

> <Gold.Chemscore.Metal>
0.0000

> <Gold.Chemscore.Lipo>
107.8019

> <Gold.Chemscore.Internal_Hbond>
0.0000

> <Gold.Chemscore.DEClash>
0.0141

> <Gold.Chemscore.DEInternal>
3.9728

> <Gold.Chemscore.Rot>
1.9704

> <Gold.Chemscore.Internal.Correction>
   9.000000E+99

> <Gold.Chemscore.Hbonds>
donor molecule, donor type, donor heavy atom, donor atom, acceptor molecule, acceptor atom, score
      P1  H  7997  8008       L1     7  0.26
      P1  H 10752 10764       L1     1  0.82

> <Gold.Chemscore.Hbond.Weighted>
-5.0199

> <Gold.Chemscore.Metal.Weighted>
-0.0000

> <Gold.Chemscore.Lipo.Weighted>
-12.6128

> <Gold.Chemscore.Internal_Hbond.Weighted>
0.0000

> <Gold.Chemscore.DEClash.Weighted>
0.0141

> <Gold.Chemscore.DEInternal.Weighted>
3.9728

> <Gold.Chemscore.Rot.Weighted>
5.0443

> <Gold.Chemscore.Internal.Correction.Weighted>
   9.000000E+99

> <Gold.Protein.RotatedTorsions>
[ 6907 6896 6895 6894 ] final  168.84 input  -60.11 | X-H torsion
[ 7974 7965 7964 7962 ] final  -39.27 input  175.53 | X-H torsion
[ 8008 7997 7996 7995 ] final -116.92 input   59.86 | X-H torsion
[ 10167 10162 10161 10158 ] final  -41.27 input  -65.29 | X-H torsion
[ 10718 10713 10712 10709 ] final  -82.82 input   66.30 | X-H torsion
[ 10763 10752 10751 10750 ] final  -67.80 input  -60.55 | X-H torsion
[ 11005 11000 10999 10996 ] final   94.72 input  -57.11 | X-H torsion

> <Gold.Protein.ActiveResidues>
 VAL166  LYS551  ARG553  GLY616  TRP617  ASP618  TYR619  PRO620  LYS621  CYS622 
 ASP623  PHE694  ASN695  SER759  ASP760  ASP761  ALA762  ILE779  LEU786  VAL792 
 PHE793  MET794  SER795  GLU796  ALA797  LYS798  CYS799  TRP800  GLU811  SER814 

> <Gold.Protein.RotatedAtoms>
  151.8413  133.3424  159.3643 H   0  0  0  0  0  0  0  0  0  0  0  0  # atno 6907 bound_to 6896
  150.7234  134.5389  159.5746 H   0  0  0  0  0  0  0  0  0  0  0  0  # atno 6908 bound_to 6896
  152.2863  134.7773  160.0438 H   0  0  0  0  0  0  0  0  0  0  0  0  # atno 6909 bound_to 6896
  146.0411  140.6607  142.9086 H   0  0  0  0  0  0  0  0  0  0  0  0  # atno 7974 bound_to 7965
  155.0755  140.0394  157.2622 H   0  0  0  0  0  0  0  0  0  0  0  0  # atno 8008 bound_to 7997
  154.6949  140.2661  155.6752 H   0  0  0  0  0  0  0  0  0  0  0  0  # atno 8009 bound_to 7997
  156.2741  140.2752  156.1539 H   0  0  0  0  0  0  0  0  0  0  0  0  # atno 8010 bound_to 7997
  140.7008  143.3104  151.3042 H   0  0  0  0  0  0  0  0  0  0  0  0  # atno 10167 bound_to 10162
  156.0027  130.4646  150.4163 H   0  0  0  0  0  0  0  0  0  0  0  0  # atno 10718 bound_to 10713
  154.3797  135.6077  153.5784 H   0  0  0  0  0  0  0  0  0  0  0  0  # atno 10763 bound_to 10752
  152.9788  135.5858  154.4424 H   0  0  0  0  0  0  0  0  0  0  0  0  # atno 10764 bound_to 10752
  154.4191  135.2845  155.1965 H   0  0  0  0  0  0  0  0  0  0  0  0  # atno 10765 bound_to 10752
  139.8796  134.8861  156.3906 H   0  0  0  0  0  0  0  0  0  0  0  0  # atno 11005 bound_to 11000
  144.7075  140.3910  143.7106 LP  0  0  0  0  0  0  0  0  0  0  0  0  # atno 17320 bound_to 7965
  145.6882  139.1633  143.2662 LP  0  0  0  0  0  0  0  0  0  0  0  0  # atno 17321 bound_to 7965
  139.6525  144.0336  152.2636 LP  0  0  0  0  0  0  0  0  0  0  0  0  # atno 17342 bound_to 10162
  139.9877  144.6384  150.7843 LP  0  0  0  0  0  0  0  0  0  0  0  0  # atno 17343 bound_to 10162
  157.2222  131.0485  151.2540 LP  0  0  0  0  0  0  0  0  0  0  0  0  # atno 17370 bound_to 10713
  157.3789  130.7221  149.6616 LP  0  0  0  0  0  0  0  0  0  0  0  0  # atno 17371 bound_to 10713
  140.9335  133.7563  156.0055 LP  0  0  0  0  0  0  0  0  0  0  0  0  # atno 17394 bound_to 11000
  140.8302  134.3187  157.5351 LP  0  0  0  0  0  0  0  0  0  0  0  0  # atno 17395 bound_to 11000

$$$$
