AV-unprocessed.smi:1916|AV-procd|sdf|7767|dock10
  -GOLD-   22720 9513D 1   1.00000     0.00000
 Structure written by MMmdl.
 46 48  0  0  0  0  0  0  0  0  2 V2000
  149.2518  139.0843  154.2440 O   0  0  0  0  0  0  0  0  0  0  0  0
  148.4299  139.9967  154.3318 C   0  0  0  0  0  0  0  0  0  0  0  0
  148.6863  141.1585  154.9516 N   0  0  0  0  0  0  0  0  0  0  0  0
  149.9487  141.5070  155.5977 C   0  0  0  0  0  0  0  0  0  0  0  0
  149.8315  141.6927  157.1255 C   0  0  0  0  0  0  0  0  0  0  0  0
  150.7923  142.7211  157.6976 C   0  0  0  0  0  0  0  0  0  0  0  0
  151.7862  142.3754  158.6386 C   0  0  0  0  0  0  0  0  0  0  0  0
  152.6574  143.3755  159.1192 C   0  0  0  0  0  0  0  0  0  0  0  0
  152.5183  144.6976  158.6482 C   0  0  0  0  0  0  0  0  0  0  0  0
  151.5088  144.9875  157.7076 C   0  0  0  0  0  0  0  0  0  0  0  0
  150.6932  144.0025  157.2729 N   0  3  0  0  0  0  0  0  0  0  0  0
  147.0212  139.8315  153.7410 C   0  0  1  0  0  0  0  0  0  0  0  0
  147.0626  139.6669  152.2106 C   0  0  0  0  0  0  0  0  0  0  0  0
  146.6305  138.2283  151.9824 C   0  0  0  0  0  0  0  0  0  0  0  0
  146.6278  137.7115  150.8666 O   0  0  0  0  0  0  0  0  0  0  0  0
  146.2746  137.6390  153.1342 N   0  0  0  0  0  0  0  0  0  0  0  0
  145.7898  136.2673  153.3445 C   0  0  0  0  0  0  0  0  0  0  0  0
  146.0159  135.3446  152.1260 C   0  0  0  0  0  0  0  0  0  0  0  0
  144.6248  134.9621  151.6149 C   0  0  0  0  0  0  0  0  0  0  0  0
  143.7349  135.0255  152.8527 C   0  0  0  0  0  0  0  0  0  0  0  0
  144.2786  136.2102  153.6528 C   0  0  0  0  0  0  0  0  0  0  0  0
  146.3159  138.5605  154.2593 C   0  0  0  0  0  0  0  0  0  0  0  0
  147.9547  141.8546  154.9742 H   0  0  0  0  0  0  0  0  0  0  0  0
  150.7060  140.7571  155.3644 H   0  0  0  0  0  0  0  0  0  0  0  0
  150.2926  142.4391  155.1486 H   0  0  0  0  0  0  0  0  0  0  0  0
  148.8131  141.9856  157.3847 H   0  0  0  0  0  0  0  0  0  0  0  0
  149.9993  140.7365  157.6223 H   0  0  0  0  0  0  0  0  0  0  0  0
  151.8827  141.3572  158.9868 H   0  0  0  0  0  0  0  0  0  0  0  0
  153.4244  143.1305  159.8394 H   0  0  0  0  0  0  0  0  0  0  0  0
  153.1762  145.4773  159.0035 H   0  0  0  0  0  0  0  0  0  0  0  0
  151.3306  145.9689  157.2928 H   0  0  0  0  0  0  0  0  0  0  0  0
  146.4231  140.7073  153.9991 H   0  0  0  0  0  0  0  0  0  0  0  0
  146.3551  140.3393  151.7247 H   0  0  0  0  0  0  0  0  0  0  0  0
  148.0478  139.8432  151.7755 H   0  0  0  0  0  0  0  0  0  0  0  0
  146.3293  135.8368  154.1899 H   0  0  0  0  0  0  0  0  0  0  0  0
  146.6294  135.7924  151.3432 H   0  0  0  0  0  0  0  0  0  0  0  0
  146.5363  134.4435  152.4531 H   0  0  0  0  0  0  0  0  0  0  0  0
  144.2844  135.6943  150.8819 H   0  0  0  0  0  0  0  0  0  0  0  0
  144.6090  133.9829  151.1359 H   0  0  0  0  0  0  0  0  0  0  0  0
  142.6786  135.1355  152.6062 H   0  0  0  0  0  0  0  0  0  0  0  0
  143.8479  134.1082  153.4320 H   0  0  0  0  0  0  0  0  0  0  0  0
  144.0808  136.1071  154.7200 H   0  0  0  0  0  0  0  0  0  0  0  0
  143.7739  137.1186  153.3220 H   0  0  0  0  0  0  0  0  0  0  0  0
  146.8284  138.1068  155.1097 H   0  0  0  0  0  0  0  0  0  0  0  0
  145.2965  138.7869  154.5745 H   0  0  0  0  0  0  0  0  0  0  0  0
  149.9697  144.2332  156.5911 H   0  0  0  0  0  0  0  0  0  0  0  0
  1  2  2  0  0  0  0
  2  3  1  0  0  0  0
  2 12  1  0  0  0  0
  3  4  1  0  0  0  0
  3 23  1  0  0  0  0
  4  5  1  0  0  0  0
  4 24  1  0  0  0  0
  4 25  1  0  0  0  0
  5  6  1  0  0  0  0
  5 26  1  0  0  0  0
  5 27  1  0  0  0  0
  6 11  1  0  0  0  0
  6  7  2  0  0  0  0
  7  8  1  0  0  0  0
  7 28  1  0  0  0  0
  8  9  2  0  0  0  0
  8 29  1  0  0  0  0
  9 10  1  0  0  0  0
  9 30  1  0  0  0  0
 10 11  2  0  0  0  0
 10 31  1  0  0  0  0
 11 46  1  0  0  0  0
 12 22  1  0  0  0  0
 12 13  1  0  0  0  0
 12 32  1  0  0  0  0
 13 14  1  0  0  0  0
 13 33  1  0  0  0  0
 13 34  1  0  0  0  0
 14 15  2  0  0  0  0
 14 16  1  0  0  0  0
 16 17  1  0  0  0  0
 16 22  1  0  0  0  0
 17 21  1  0  0  0  0
 17 18  1  0  0  0  0
 17 35  1  0  0  0  0
 18 19  1  0  0  0  0
 18 36  1  0  0  0  0
 18 37  1  0  0  0  0
 19 20  1  0  0  0  0
 19 38  1  0  0  0  0
 19 39  1  0  0  0  0
 20 21  1  0  0  0  0
 20 40  1  0  0  0  0
 20 41  1  0  0  0  0
 21 42  1  0  0  0  0
 21 43  1  0  0  0  0
 22 44  1  0  0  0  0
 22 45  1  0  0  0  0
M  CHG  1  11   1
M  END
> <s_m_source_file>
AV-unprocessed.smi

> <i_m_source_file_index>
1916

> <i_lp_mmshare_version>
43012

> <i_f3d_flags>
0

> <s_epik_input>
W0NIMl0xW0NIMl1bQ0gyXVtDSDJdW0NIXTFOKFtDSDJdMilDKD1PKVtDSDJdW0NASF0yQyg9TylbTkhdW0NIMl1bQ0gyXWMzW2NIXVtjSF1bY0hdW2NIXW4z

> <s_epik_cmdline>
J2VwaWtfcHl0aG9uJywgJy1waCcsICc3LjAnLCAnLXRuJywgJzgnLCAnLW1hJywgJzIwMCcsICctbWV0YWxfYmluZGluZycsICctaW1hZScsICc8aW5maWxlLm1hZT4nLCAnLW9tYWUnLCAnPG91dGZpbGUubWFlPic=

> <r_epik_Ionization_Penalty>
1.88249

> <r_epik_Ionization_Penalty_Charging>
1.88249

> <r_epik_Ionization_Penalty_Neutral>
3.64574e-08

> <r_epik_State_Penalty>
2.00238

> <r_epik_Charging_Adjusted_Penalty>
3.88487

> <i_epik_Tot_Q>
1

> <i_epik_Tot_abs_Q>
1

> <r_epik_Metal_State_Penalty>
2.02676

> <b_epik_Metal_Only>
0

> <s_lp_Force_Field>
OPLS_2005

> <r_lp_Energy>
36.1777

> <b_lp_Chiralities_Consistent>
1

> <s_lp_Variant>
AV-unprocessed.smi:1916-4

> <Gold.Version>
5.8.1

> <Gold.Id.Protein>
6NUR|6NUR_protein|mol2

> <Gold.PLP.Fitness>
50.8256

> <Gold.PLP.PLP>
-42.8228

> <Gold.PLP.part.hbond>
-2.0000

> <Gold.PLP.part.metal>
0.0000

> <Gold.PLP.part.buried>
-2.5814

> <Gold.PLP.part.nonpolar>
-41.8940

> <Gold.PLP.part.repulsive>
2.0447

> <Gold.PLP.ligand.clash>
0.0000

> <Gold.PLP.ligand.torsion>
0.4971

> <Gold.PLP.Chemscore.Hbond>
2.9760

> <Gold.PLP.Chemscore.CHOScore>
0.0000

> <Gold.PLP.Chemscore.Metal>
0.0000

> <Gold.Chemscore.Hbonds>
donor molecule, donor type, donor heavy atom, donor atom, acceptor molecule, acceptor atom, score
      L1  H    11    46       P1  8028  1.79
      P1  H  7954  7966       L1    15  1.00

> <Gold.PLP.Chemscore.Internal.Correction>
0.0690

> <Gold.Rescore>
     Score         DG    S(hbond)    S(metal)    S(lipo)     H(rot)  DE(clash)    DE(int)     intcor
     16.23     -20.72       1.96        0.00     111.96       1.72       2.42       2.07       ----

> <Gold.Chemscore.Fitness>
16.2350

> <Gold.Chemscore.DG>
-20.7225

> <Gold.Chemscore.ZeroCoef>
-5.4800

> <Gold.Chemscore.Hbond>
1.9567

> <Gold.Chemscore.Metal>
0.0000

> <Gold.Chemscore.Lipo>
111.9605

> <Gold.Chemscore.Internal_Hbond>
0.0000

> <Gold.Chemscore.DEClash>
2.4164

> <Gold.Chemscore.DEInternal>
2.0711

> <Gold.Chemscore.Rot>
1.7158

> <Gold.Chemscore.Internal.Correction>
   9.000000E+99

> <Gold.Chemscore.Hbonds>
donor molecule, donor type, donor heavy atom, donor atom, acceptor molecule, acceptor atom, score
      L1  H    11    46       P1  8028  0.86
      P1  H  7954  7966       L1    15  0.94

> <Gold.Chemscore.Hbond.Weighted>
-6.5355

> <Gold.Chemscore.Metal.Weighted>
-0.0000

> <Gold.Chemscore.Lipo.Weighted>
-13.0994

> <Gold.Chemscore.Internal_Hbond.Weighted>
0.0000

> <Gold.Chemscore.DEClash.Weighted>
2.4164

> <Gold.Chemscore.DEInternal.Weighted>
2.0711

> <Gold.Chemscore.Rot.Weighted>
4.3924

> <Gold.Chemscore.Internal.Correction.Weighted>
   9.000000E+99

> <Gold.Protein.RotatedTorsions>
[ 6907 6896 6895 6894 ] final   46.68 input  -60.11 | X-H torsion
[ 7974 7965 7964 7962 ] final   56.09 input  175.53 | X-H torsion
[ 8008 7997 7996 7995 ] final -164.43 input   59.86 | X-H torsion
[ 10167 10162 10161 10158 ] final   41.97 input  -65.29 | X-H torsion
[ 10718 10713 10712 10709 ] final  115.16 input   66.30 | X-H torsion
[ 10763 10752 10751 10750 ] final   -1.83 input  -60.55 | X-H torsion
[ 11005 11000 10999 10996 ] final   56.39 input  -57.11 | X-H torsion

> <Gold.Protein.ActiveResidues>
 VAL166  LYS551  ARG553  GLY616  TRP617  ASP618  TYR619  PRO620  LYS621  CYS622 
 ASP623  PHE694  ASN695  SER759  ASP760  ASP761  ALA762  ILE779  LEU786  VAL792 
 PHE793  MET794  SER795  GLU796  ALA797  LYS798  CYS799  TRP800  GLU811  SER814 

> <Gold.Protein.RotatedAtoms>
  152.2592  134.8051  160.0433 H   0  0  0  0  0  0  0  0  0  0  0  0  # atno 6907 bound_to 6896
  151.8704  133.3469  159.3741 H   0  0  0  0  0  0  0  0  0  0  0  0  # atno 6908 bound_to 6896
  150.7111  134.5046  159.5622 H   0  0  0  0  0  0  0  0  0  0  0  0  # atno 6909 bound_to 6896
  145.9435  139.3909  143.0349 H   0  0  0  0  0  0  0  0  0  0  0  0  # atno 7974 bound_to 7965
  155.8355  140.0940  157.1767 H   0  0  0  0  0  0  0  0  0  0  0  0  # atno 8008 bound_to 7997
  154.3980  140.1411  156.3726 H   0  0  0  0  0  0  0  0  0  0  0  0  # atno 8009 bound_to 7997
  155.8121  140.3449  155.5466 H   0  0  0  0  0  0  0  0  0  0  0  0  # atno 8010 bound_to 7997
  140.3591  144.2252  150.6139 H   0  0  0  0  0  0  0  0  0  0  0  0  # atno 10167 bound_to 10162
  157.6238  131.1009  150.7290 H   0  0  0  0  0  0  0  0  0  0  0  0  # atno 10718 bound_to 10713
  153.3500  135.6985  153.6796 H   0  0  0  0  0  0  0  0  0  0  0  0  # atno 10763 bound_to 10752
  153.5527  135.3550  155.2766 H   0  0  0  0  0  0  0  0  0  0  0  0  # atno 10764 bound_to 10752
  154.8651  135.4230  154.2733 H   0  0  0  0  0  0  0  0  0  0  0  0  # atno 10765 bound_to 10752
  140.0533  134.5706  155.9237 H   0  0  0  0  0  0  0  0  0  0  0  0  # atno 11005 bound_to 11000
  145.8267  140.9651  143.0870 LP  0  0  0  0  0  0  0  0  0  0  0  0  # atno 17320 bound_to 7965
  144.6783  140.0110  143.7484 LP  0  0  0  0  0  0  0  0  0  0  0  0  # atno 17321 bound_to 7965
  140.5145  143.2282  151.8485 LP  0  0  0  0  0  0  0  0  0  0  0  0  # atno 17342 bound_to 10162
  139.4816  144.4911  151.9184 LP  0  0  0  0  0  0  0  0  0  0  0  0  # atno 17343 bound_to 10162
  156.7642  130.4808  149.5431 LP  0  0  0  0  0  0  0  0  0  0  0  0  # atno 17370 bound_to 10713
  156.1399  130.6237  151.0452 LP  0  0  0  0  0  0  0  0  0  0  0  0  # atno 17371 bound_to 10713
  141.1940  133.6581  156.5576 LP  0  0  0  0  0  0  0  0  0  0  0  0  # atno 17394 bound_to 11000
  140.3883  134.7462  157.4705 LP  0  0  0  0  0  0  0  0  0  0  0  0  # atno 17395 bound_to 11000

$$$$
