AV-unprocessed.smi:2647|AV-procd|sdf|10283|dock5
  -GOLD-   2272014293D 1   1.00000     0.00000
 Structure written by MMmdl.
 32 33  0  0  0  0  0  0  0  0  1 V2000
  150.8958  137.1907  159.9150 O   0  0  0  0  0  0  0  0  0  0  0  0
  150.0326  137.5248  159.1030 C   0  0  0  0  0  0  0  0  0  0  0  0
  150.2847  138.2834  158.0268 N   0  0  0  0  0  0  0  0  0  0  0  0
  151.5959  138.8096  157.6614 C   0  0  0  0  0  0  0  0  0  0  0  0
  152.2853  139.5302  158.8333 C   0  0  0  0  0  0  0  0  0  0  0  0
  152.5581  141.0224  158.5647 C   0  0  0  0  0  0  0  0  0  0  0  0
  152.5555  141.7965  159.8098 N   0  0  0  0  0  0  0  0  0  0  0  0
  153.2704  141.4736  160.8968 C   0  0  0  0  0  0  0  0  0  0  0  0
  154.0087  140.4967  161.0195 O   0  0  0  0  0  0  0  0  0  0  0  0
  153.0678  142.4953  162.0075 C   0  0  0  0  0  0  0  0  0  0  0  0
  152.0983  143.5018  161.3794 C   0  0  0  0  0  0  0  0  0  0  0  0
  151.8658  142.9325  159.9862 C   0  0  0  0  0  0  0  0  0  0  0  0
  151.1364  143.4786  159.1589 O   0  0  0  0  0  0  0  0  0  0  0  0
  148.7327  137.1864  159.1651 N   0  0  0  0  0  0  0  0  0  0  0  0
  148.0709  136.4118  160.1540 C   0  0  0  0  0  0  0  0  0  0  0  0
  147.4624  136.9378  161.2287 N   0  0  0  0  0  0  0  0  0  0  0  0
  146.8903  135.9601  162.0324 N   0  0  0  0  0  0  0  0  0  0  0  0
  147.0900  134.7369  161.5335 C   0  0  0  0  0  0  0  0  0  0  0  0
  147.9960  134.6598  160.0322 S   0  0  0  0  0  0  0  0  0  0  0  0
  149.5166  138.5106  157.4124 H   0  0  0  0  0  0  0  0  0  0  0  0
  152.2147  137.9782  157.3229 H   0  0  0  0  0  0  0  0  0  0  0  0
  151.4992  139.4860  156.8105 H   0  0  0  0  0  0  0  0  0  0  0  0
  151.6553  139.4342  159.7181 H   0  0  0  0  0  0  0  0  0  0  0  0
  153.2206  139.0231  159.0748 H   0  0  0  0  0  0  0  0  0  0  0  0
  153.5157  141.1474  158.0565 H   0  0  0  0  0  0  0  0  0  0  0  0
  151.8086  141.4188  157.8774 H   0  0  0  0  0  0  0  0  0  0  0  0
  152.6439  142.0195  162.8925 H   0  0  0  0  0  0  0  0  0  0  0  0
  154.0170  142.9595  162.2775 H   0  0  0  0  0  0  0  0  0  0  0  0
  151.1592  143.5602  161.9306 H   0  0  0  0  0  0  0  0  0  0  0  0
  152.5332  144.4999  161.3166 H   0  0  0  0  0  0  0  0  0  0  0  0
  148.1451  137.5286  158.4193 H   0  0  0  0  0  0  0  0  0  0  0  0
  146.7009  133.8737  162.0528 H   0  0  0  0  0  0  0  0  0  0  0  0
  1  2  2  0  0  0  0
  2  3  1  0  0  0  0
  2 14  1  0  0  0  0
  3  4  1  0  0  0  0
  3 20  1  0  0  0  0
  4  5  1  0  0  0  0
  4 21  1  0  0  0  0
  4 22  1  0  0  0  0
  5  6  1  0  0  0  0
  5 23  1  0  0  0  0
  5 24  1  0  0  0  0
  6  7  1  0  0  0  0
  6 25  1  0  0  0  0
  6 26  1  0  0  0  0
  7 12  1  0  0  0  0
  7  8  1  0  0  0  0
  8  9  2  0  0  0  0
  8 10  1  0  0  0  0
 10 11  1  0  0  0  0
 10 27  1  0  0  0  0
 10 28  1  0  0  0  0
 11 12  1  0  0  0  0
 11 29  1  0  0  0  0
 11 30  1  0  0  0  0
 12 13  2  0  0  0  0
 14 15  1  0  0  0  0
 14 31  1  0  0  0  0
 15 19  1  0  0  0  0
 15 16  2  0  0  0  0
 16 17  1  0  0  0  0
 17 18  2  0  0  0  0
 18 19  1  0  0  0  0
 18 32  1  0  0  0  0
M  END
> <s_m_source_file>
AV-unprocessed.smi

> <i_m_source_file_index>
2647

> <i_lp_mmshare_version>
43012

> <i_f3d_flags>
0

> <s_epik_input>
czFbY0hdbm5jMVtOSF1DKD1PKVtOSF1bQ0gyXVtDSDJdW0NIMl1OMkMoPU8pW0NIMl1bQ0gyXUMyPU8=

> <s_epik_cmdline>
J2VwaWtfcHl0aG9uJywgJy1waCcsICc3LjAnLCAnLXRuJywgJzgnLCAnLW1hJywgJzIwMCcsICctbWV0YWxfYmluZGluZycsICctaW1hZScsICc8aW5maWxlLm1hZT4nLCAnLW9tYWUnLCAnPG91dGZpbGUubWFlPic=

> <r_lp_tautomer_probability>
1

> <r_epik_Ionization_Penalty>
0.00175263

> <r_epik_Ionization_Penalty_Charging>
0

> <r_epik_Ionization_Penalty_Neutral>
0.00175263

> <r_epik_State_Penalty>
-0

> <r_epik_Charging_Adjusted_Penalty>
0

> <i_epik_Tot_Q>
0

> <i_epik_Tot_abs_Q>
0

> <r_epik_Metal_State_Penalty>
0.330668

> <b_epik_Metal_Only>
0

> <s_lp_Force_Field>
OPLS_2005

> <r_lp_Energy>
10.1998

> <b_lp_Chiralities_Consistent>
1

> <s_lp_Variant>
AV-unprocessed.smi:2647-1

> <Gold.Version>
5.8.1

> <Gold.Id.Protein>
6NUR|6NUR_protein|mol2

> <Gold.PLP.Fitness>
41.0810

> <Gold.PLP.PLP>
-35.7327

> <Gold.PLP.part.hbond>
-3.0131

> <Gold.PLP.part.metal>
0.0000

> <Gold.PLP.part.buried>
-6.6944

> <Gold.PLP.part.nonpolar>
-26.4969

> <Gold.PLP.part.repulsive>
0.3262

> <Gold.PLP.ligand.clash>
0.0000

> <Gold.PLP.ligand.torsion>
1.4316

> <Gold.PLP.Chemscore.Hbond>
2.7244

> <Gold.PLP.Chemscore.CHOScore>
0.0000

> <Gold.PLP.Chemscore.Metal>
0.0000

> <Gold.Chemscore.Hbonds>
donor molecule, donor type, donor heavy atom, donor atom, acceptor molecule, acceptor atom, score
      P1  H  6896  6907       L1     1  0.88
      P1  H  6931  6943       L1    16  0.65
      P1  H  6934  6947       L1    16  0.76

> <Gold.PLP.Chemscore.Internal.Correction>
0.0384

> <Gold.Rescore>
     Score         DG    S(hbond)    S(metal)    S(lipo)     H(rot)  DE(clash)    DE(int)     intcor
     10.69     -13.26       2.34        0.00      51.56       2.36       0.12       2.46       ----

> <Gold.Chemscore.Fitness>
10.6862

> <Gold.Chemscore.DG>
-13.2634

> <Gold.Chemscore.ZeroCoef>
-5.4800

> <Gold.Chemscore.Hbond>
2.3353

> <Gold.Chemscore.Metal>
0.0000

> <Gold.Chemscore.Lipo>
51.5601

> <Gold.Chemscore.Internal_Hbond>
0.0000

> <Gold.Chemscore.DEClash>
0.1160

> <Gold.Chemscore.DEInternal>
2.4613

> <Gold.Chemscore.Rot>
2.3629

> <Gold.Chemscore.Internal.Correction>
   9.000000E+99

> <Gold.Chemscore.Hbonds>
donor molecule, donor type, donor heavy atom, donor atom, acceptor molecule, acceptor atom, score
      P1  H  6896  6907       L1     1  0.75
      P1  H  6931  6943       L1    16  0.14
      P1  H  6934  6947       L1    16  0.53

> <Gold.Chemscore.Hbond.Weighted>
-7.7999

> <Gold.Chemscore.Metal.Weighted>
-0.0000

> <Gold.Chemscore.Lipo.Weighted>
-6.0325

> <Gold.Chemscore.Internal_Hbond.Weighted>
0.0000

> <Gold.Chemscore.DEClash.Weighted>
0.1160

> <Gold.Chemscore.DEInternal.Weighted>
2.4613

> <Gold.Chemscore.Rot.Weighted>
6.0490

> <Gold.Chemscore.Internal.Correction.Weighted>
   9.000000E+99

> <Gold.Protein.RotatedTorsions>
[ 6907 6896 6895 6894 ] final  -15.07 input  -60.11 | X-H torsion
[ 7974 7965 7964 7962 ] final  -37.12 input  175.53 | X-H torsion
[ 8008 7997 7996 7995 ] final  -27.20 input   59.86 | X-H torsion
[ 10167 10162 10161 10158 ] final -169.50 input  -65.29 | X-H torsion
[ 10718 10713 10712 10709 ] final  161.25 input   66.30 | X-H torsion
[ 10763 10752 10751 10750 ] final -106.95 input  -60.55 | X-H torsion
[ 11005 11000 10999 10996 ] final -160.27 input  -57.11 | X-H torsion

> <Gold.Protein.ActiveResidues>
 VAL166  LYS551  ARG553  GLY616  TRP617  ASP618  TYR619  PRO620  LYS621  CYS622 
 ASP623  PHE694  ASN695  SER759  ASP760  ASP761  ALA762  ILE779  LEU786  VAL792 
 PHE793  MET794  SER795  GLU796  ALA797  LYS798  CYS799  TRP800  GLU811  SER814 

> <Gold.Protein.RotatedAtoms>
  151.3295  135.0838  159.9333 H   0  0  0  0  0  0  0  0  0  0  0  0  # atno 6907 bound_to 6896
  152.5238  133.9557  159.7703 H   0  0  0  0  0  0  0  0  0  0  0  0  # atno 6908 bound_to 6896
  150.9893  133.6113  159.2740 H   0  0  0  0  0  0  0  0  0  0  0  0  # atno 6909 bound_to 6896
  146.0602  140.6359  142.9000 H   0  0  0  0  0  0  0  0  0  0  0  0  # atno 7974 bound_to 7965
  154.4388  140.1878  156.0895 H   0  0  0  0  0  0  0  0  0  0  0  0  # atno 8008 bound_to 7997
  156.0376  140.3323  155.7182 H   0  0  0  0  0  0  0  0  0  0  0  0  # atno 8009 bound_to 7997
  155.5747  140.0616  157.2789 H   0  0  0  0  0  0  0  0  0  0  0  0  # atno 8010 bound_to 7997
  139.5919  144.1195  152.1644 H   0  0  0  0  0  0  0  0  0  0  0  0  # atno 10167 bound_to 10162
  157.1391  131.0536  151.2335 H   0  0  0  0  0  0  0  0  0  0  0  0  # atno 10718 bound_to 10713
  154.8045  135.4693  154.0357 H   0  0  0  0  0  0  0  0  0  0  0  0  # atno 10763 bound_to 10752
  153.1837  135.6844  153.8451 H   0  0  0  0  0  0  0  0  0  0  0  0  # atno 10764 bound_to 10752
  153.7992  135.3232  155.3365 H   0  0  0  0  0  0  0  0  0  0  0  0  # atno 10765 bound_to 10752
  140.6333  134.4628  157.5230 H   0  0  0  0  0  0  0  0  0  0  0  0  # atno 11005 bound_to 11000
  144.7171  140.4246  143.7036 LP  0  0  0  0  0  0  0  0  0  0  0  0  # atno 17320 bound_to 7965
  145.6573  139.1575  143.2828 LP  0  0  0  0  0  0  0  0  0  0  0  0  # atno 17321 bound_to 7965
  140.0772  144.5731  150.7149 LP  0  0  0  0  0  0  0  0  0  0  0  0  # atno 17342 bound_to 10162
  140.7180  143.2562  151.4372 LP  0  0  0  0  0  0  0  0  0  0  0  0  # atno 17343 bound_to 10162
  157.4323  130.7497  149.7000 LP  0  0  0  0  0  0  0  0  0  0  0  0  # atno 17370 bound_to 10713
  155.9792  130.4042  150.3601 LP  0  0  0  0  0  0  0  0  0  0  0  0  # atno 17371 bound_to 10713
  139.9107  134.8350  156.1538 LP  0  0  0  0  0  0  0  0  0  0  0  0  # atno 17394 bound_to 11000
  141.0659  133.6819  156.2044 LP  0  0  0  0  0  0  0  0  0  0  0  0  # atno 17395 bound_to 11000

$$$$
