AV-unprocessed.smi:1211|AV-procd|sdf|5079|dock3
  -GOLD-   22720 4133D 1   1.00000     0.00000
 Structure written by MMmdl.
 47 49  0  0  0  0  0  0  0  0  1 V2000
  147.7181  133.1247  152.9312 C   0  0  0  0  0  0  0  0  0  0  0  0
  146.4292  133.2166  152.1307 C   0  0  0  0  0  0  0  0  0  0  0  0
  145.8060  132.0310  151.6868 C   0  0  0  0  0  0  0  0  0  0  0  0
  144.6154  132.1178  150.9454 C   0  0  0  0  0  0  0  0  0  0  0  0
  144.0946  133.3954  150.6785 C   0  0  0  0  0  0  0  0  0  0  0  0
  144.6831  134.5336  151.0993 N   0  0  0  0  0  0  0  0  0  0  0  0
  145.8337  134.4675  151.8150 C   0  0  0  0  0  0  0  0  0  0  0  0
  146.5087  135.6261  152.2925 N   0  0  0  0  0  0  0  0  0  0  0  0
  146.0136  136.6439  153.0185 C   0  0  0  0  0  0  0  0  0  0  0  0
  144.8478  136.7458  153.4017 O   0  0  0  0  0  0  0  0  0  0  0  0
  146.9624  137.5536  153.2819 N   0  0  0  0  0  0  0  0  0  0  0  0
  146.7772  138.7861  154.0474 C   0  0  0  0  0  0  0  0  0  0  0  0
  148.1224  139.5347  154.3304 C   0  0  2  0  0  0  0  0  0  0  0  0
  149.2532  138.5590  154.4146 N   0  0  0  0  0  0  0  0  0  0  0  0
  149.0967  137.4705  155.3905 C   0  0  0  0  0  0  0  0  0  0  0  0
  150.2680  136.4737  155.3514 C   0  0  0  0  0  0  0  0  0  0  0  0
  151.4936  137.1603  155.5646 O   0  0  0  0  0  0  0  0  0  0  0  0
  151.7184  138.1692  154.5898 C   0  0  0  0  0  0  0  0  0  0  0  0
  150.5655  139.1862  154.6232 C   0  0  0  0  0  0  0  0  0  0  0  0
  147.9402  140.3823  155.6231 C   0  0  0  0  0  0  0  0  0  0  0  0
  146.9925  141.5508  155.3320 C   0  0  0  0  0  0  0  0  0  0  0  0
  147.2555  142.0389  153.6107 S   0  0  0  0  0  0  0  0  0  0  0  0
  148.3134  140.6136  153.2336 C   0  0  0  0  0  0  0  0  0  0  0  0
  148.0291  132.0884  153.0655 H   0  0  0  0  0  0  0  0  0  0  0  0
  147.5858  133.5665  153.9194 H   0  0  0  0  0  0  0  0  0  0  0  0
  148.5234  133.6526  152.4198 H   0  0  0  0  0  0  0  0  0  0  0  0
  146.2329  131.0642  151.9099 H   0  0  0  0  0  0  0  0  0  0  0  0
  144.1149  131.2290  150.5907 H   0  0  0  0  0  0  0  0  0  0  0  0
  143.1818  133.5077  150.1125 H   0  0  0  0  0  0  0  0  0  0  0  0
  147.4853  135.6878  152.0461 H   0  0  0  0  0  0  0  0  0  0  0  0
  147.8940  137.3785  152.9351 H   0  0  0  0  0  0  0  0  0  0  0  0
  146.0906  139.4180  153.4860 H   0  0  0  0  0  0  0  0  0  0  0  0
  146.2280  138.5781  154.9652 H   0  0  0  0  0  0  0  0  0  0  0  0
  149.0112  137.8688  156.4009 H   0  0  0  0  0  0  0  0  0  0  0  0
  148.1960  136.8941  155.1940 H   0  0  0  0  0  0  0  0  0  0  0  0
  150.1458  135.7168  156.1262 H   0  0  0  0  0  0  0  0  0  0  0  0
  150.2968  135.9498  154.3948 H   0  0  0  0  0  0  0  0  0  0  0  0
  152.6657  138.6644  154.8031 H   0  0  0  0  0  0  0  0  0  0  0  0
  151.8080  137.7183  153.6002 H   0  0  0  0  0  0  0  0  0  0  0  0
  150.7715  139.9304  153.8572 H   0  0  0  0  0  0  0  0  0  0  0  0
  150.5809  139.7074  155.5809 H   0  0  0  0  0  0  0  0  0  0  0  0
  147.6049  139.7925  156.4760 H   0  0  0  0  0  0  0  0  0  0  0  0
  148.8761  140.8472  155.9242 H   0  0  0  0  0  0  0  0  0  0  0  0
  145.9528  141.2495  155.4588 H   0  0  0  0  0  0  0  0  0  0  0  0
  147.1690  142.3920  156.0026 H   0  0  0  0  0  0  0  0  0  0  0  0
  149.3348  140.9895  153.2161 H   0  0  0  0  0  0  0  0  0  0  0  0
  148.0979  140.2378  152.2329 H   0  0  0  0  0  0  0  0  0  0  0  0
  1  2  1  0  0  0  0
  1 24  1  0  0  0  0
  1 25  1  0  0  0  0
  1 26  1  0  0  0  0
  2  7  1  0  0  0  0
  2  3  2  0  0  0  0
  3  4  1  0  0  0  0
  3 27  1  0  0  0  0
  4  5  2  0  0  0  0
  4 28  1  0  0  0  0
  5  6  1  0  0  0  0
  5 29  1  0  0  0  0
  6  7  2  0  0  0  0
  7  8  1  0  0  0  0
  8  9  1  0  0  0  0
  8 30  1  0  0  0  0
  9 10  2  0  0  0  0
  9 11  1  0  0  0  0
 11 12  1  0  0  0  0
 11 31  1  0  0  0  0
 12 13  1  0  0  0  0
 12 32  1  0  0  0  0
 12 33  1  0  0  0  0
 13 23  1  0  0  0  0
 13 14  1  0  0  0  0
 13 20  1  0  0  0  0
 14 19  1  0  0  0  0
 14 15  1  0  0  0  0
 15 16  1  0  0  0  0
 15 34  1  0  0  0  0
 15 35  1  0  0  0  0
 16 17  1  0  0  0  0
 16 36  1  0  0  0  0
 16 37  1  0  0  0  0
 17 18  1  0  0  0  0
 18 19  1  0  0  0  0
 18 38  1  0  0  0  0
 18 39  1  0  0  0  0
 19 40  1  0  0  0  0
 19 41  1  0  0  0  0
 20 21  1  0  0  0  0
 20 42  1  0  0  0  0
 20 43  1  0  0  0  0
 21 22  1  0  0  0  0
 21 44  1  0  0  0  0
 21 45  1  0  0  0  0
 22 23  1  0  0  0  0
 23 46  1  0  0  0  0
 23 47  1  0  0  0  0
M  END
> <s_m_source_file>
AV-unprocessed.smi

> <i_m_source_file_index>
1211

> <i_lp_mmshare_version>
43012

> <i_f3d_flags>
0

> <s_epik_input>
W0NIM11jMVtjSF1bY0hdW2NIXW5jMVtOSF1DKD1PKVtOSF1bQ0gyXVtDQF0yKFtDSDJdW0NIMl1TW0NIMl0yKU4zW0NIMl1bQ0gyXU9bQ0gyXVtDSDJdMw==

> <s_epik_cmdline>
J2VwaWtfcHl0aG9uJywgJy1waCcsICc3LjAnLCAnLXRuJywgJzgnLCAnLW1hJywgJzIwMCcsICctbWV0YWxfYmluZGluZycsICctaW1hZScsICc8aW5maWxlLm1hZT4nLCAnLW9tYWUnLCAnPG91dGZpbGUubWFlPic=

> <r_epik_Ionization_Penalty>
0.0195636

> <r_epik_Ionization_Penalty_Charging>
0

> <r_epik_Ionization_Penalty_Neutral>
0.0195636

> <r_epik_State_Penalty>
0.0155843

> <r_epik_Charging_Adjusted_Penalty>
0.0155843

> <i_epik_Tot_Q>
0

> <i_epik_Tot_abs_Q>
0

> <r_epik_Metal_State_Penalty>
0.0155842

> <b_epik_Metal_Only>
0

> <s_lp_Force_Field>
OPLS_2005

> <r_lp_Energy>
55.6776

> <b_lp_Chiralities_Consistent>
1

> <s_lp_Variant>
AV-unprocessed.smi:1211-2

> <Gold.Version>
5.8.1

> <Gold.Id.Protein>
6NUR|6NUR_protein|mol2

> <Gold.PLP.Fitness>
44.0399

> <Gold.PLP.PLP>
-34.4757

> <Gold.PLP.part.hbond>
-2.9555

> <Gold.PLP.part.metal>
0.0000

> <Gold.PLP.part.buried>
-4.2274

> <Gold.PLP.part.nonpolar>
-29.1353

> <Gold.PLP.part.repulsive>
0.5951

> <Gold.PLP.ligand.clash>
0.0000

> <Gold.PLP.ligand.torsion>
1.1019

> <Gold.PLP.Chemscore.Hbond>
2.8960

> <Gold.PLP.Chemscore.CHOScore>
1.0000

> <Gold.PLP.Chemscore.Metal>
0.0000

> <Gold.Chemscore.Hbonds>
donor molecule, donor type, donor heavy atom, donor atom, acceptor molecule, acceptor atom, score
      L1  H     8    30       P1  7948  1.00
      L1  H    11    31       P1  7948  0.90
      P1  H 10752 10765       L1    17  0.25
      L1  C     5    29       P1 10186  1.00

> <Gold.PLP.Chemscore.Internal.Correction>
0.0800

> <Gold.Rescore>
     Score         DG    S(hbond)    S(metal)    S(lipo)     H(rot)  DE(clash)    DE(int)     intcor
     17.71     -20.36       2.46        0.00      88.60       1.44       1.55       1.11       ----

> <Gold.Chemscore.Fitness>
17.7084

> <Gold.Chemscore.DG>
-20.3614

> <Gold.Chemscore.ZeroCoef>
-5.4800

> <Gold.Chemscore.Hbond>
2.4559

> <Gold.Chemscore.Metal>
0.0000

> <Gold.Chemscore.Lipo>
88.6008

> <Gold.Chemscore.Internal_Hbond>
0.0000

> <Gold.Chemscore.DEClash>
1.5453

> <Gold.Chemscore.DEInternal>
1.1077

> <Gold.Chemscore.Rot>
1.4405

> <Gold.Chemscore.Internal.Correction>
   9.000000E+99

> <Gold.Chemscore.Hbonds>
donor molecule, donor type, donor heavy atom, donor atom, acceptor molecule, acceptor atom, score
      L1  H     8    30       P1  7948  0.95
      L1  H    11    31       P1  7948  0.88
      P1  H 10752 10765       L1    17  0.01

> <Gold.Chemscore.Hbond.Weighted>
-8.2027

> <Gold.Chemscore.Metal.Weighted>
-0.0000

> <Gold.Chemscore.Lipo.Weighted>
-10.3663

> <Gold.Chemscore.Internal_Hbond.Weighted>
0.0000

> <Gold.Chemscore.DEClash.Weighted>
1.5453

> <Gold.Chemscore.DEInternal.Weighted>
1.1077

> <Gold.Chemscore.Rot.Weighted>
3.6876

> <Gold.Chemscore.Internal.Correction.Weighted>
   9.000000E+99

> <Gold.Protein.RotatedTorsions>
[ 6907 6896 6895 6894 ] final  164.23 input  -60.11 | X-H torsion
[ 7974 7965 7964 7962 ] final  140.23 input  175.53 | X-H torsion
[ 8008 7997 7996 7995 ] final   27.74 input   59.86 | X-H torsion
[ 10167 10162 10161 10158 ] final  -72.39 input  -65.29 | X-H torsion
[ 10718 10713 10712 10709 ] final  -35.84 input   66.30 | X-H torsion
[ 10763 10752 10751 10750 ] final -169.36 input  -60.55 | X-H torsion
[ 11005 11000 10999 10996 ] final   14.07 input  -57.11 | X-H torsion

> <Gold.Protein.ActiveResidues>
 VAL166  LYS551  ARG553  GLY616  TRP617  ASP618  TYR619  PRO620  LYS621  CYS622 
 ASP623  PHE694  ASN695  SER759  ASP760  ASP761  ALA762  ILE779  LEU786  VAL792 
 PHE793  MET794  SER795  GLU796  ALA797  LYS798  CYS799  TRP800  GLU811  SER814 

> <Gold.Protein.RotatedAtoms>
  151.9130  133.3566  159.3869 H   0  0  0  0  0  0  0  0  0  0  0  0  # atno 6907 bound_to 6896
  150.7054  134.4713  159.5436 H   0  0  0  0  0  0  0  0  0  0  0  0  # atno 6908 bound_to 6896
  152.2322  134.8310  160.0523 H   0  0  0  0  0  0  0  0  0  0  0  0  # atno 6909 bound_to 6896
  144.9206  139.5173  143.5665 H   0  0  0  0  0  0  0  0  0  0  0  0  # atno 7974 bound_to 7965
  155.0476  140.3176  155.4703 H   0  0  0  0  0  0  0  0  0  0  0  0  # atno 8008 bound_to 7997
  156.2841  140.2152  156.5545 H   0  0  0  0  0  0  0  0  0  0  0  0  # atno 8009 bound_to 7997
  154.7237  140.0487  157.0651 H   0  0  0  0  0  0  0  0  0  0  0  0  # atno 8010 bound_to 7997
  140.5196  143.2333  151.7453 H   0  0  0  0  0  0  0  0  0  0  0  0  # atno 10167 bound_to 10162
  156.3339  130.4283  149.7848 H   0  0  0  0  0  0  0  0  0  0  0  0  # atno 10718 bound_to 10713
  154.6531  135.2914  154.9962 H   0  0  0  0  0  0  0  0  0  0  0  0  # atno 10763 bound_to 10752
  154.1048  135.6571  153.4878 H   0  0  0  0  0  0  0  0  0  0  0  0  # atno 10764 bound_to 10752
  153.0387  135.5251  154.7448 H   0  0  0  0  0  0  0  0  0  0  0  0  # atno 10765 bound_to 10752
  140.4737  134.1005  155.7737 H   0  0  0  0  0  0  0  0  0  0  0  0  # atno 11005 bound_to 11000
  146.3203  139.8082  142.8951 LP  0  0  0  0  0  0  0  0  0  0  0  0  # atno 17320 bound_to 7965
  145.3303  141.0265  143.3450 LP  0  0  0  0  0  0  0  0  0  0  0  0  # atno 17321 bound_to 7965
  139.4919  144.4274  151.9910 LP  0  0  0  0  0  0  0  0  0  0  0  0  # atno 17342 bound_to 10162
  140.3370  144.3249  150.5975 LP  0  0  0  0  0  0  0  0  0  0  0  0  # atno 17343 bound_to 10162
  156.5109  130.8172  151.3168 LP  0  0  0  0  0  0  0  0  0  0  0  0  # atno 17370 bound_to 10713
  157.7435  130.9914  150.2599 LP  0  0  0  0  0  0  0  0  0  0  0  0  # atno 17371 bound_to 10713
  141.1565  133.8873  157.1964 LP  0  0  0  0  0  0  0  0  0  0  0  0  # atno 17394 bound_to 11000
  139.9869  135.0078  156.9884 LP  0  0  0  0  0  0  0  0  0  0  0  0  # atno 17395 bound_to 11000

$$$$
