AV-unprocessed.smi:2083|AV-procd|sdf|8500|dock1
  -GOLD-   2272011213D 1   1.00000     0.00000
 Structure written by MMmdl.
 44 45  0  0  0  0  0  0  0  0  3 V2000
  146.1689  134.4194  162.4610 C   0  0  0  0  0  0  0  0  0  0  0  0
  146.9362  135.2669  161.5047 C   0  0  0  0  0  0  0  0  0  0  0  0
  147.6294  134.9816  160.3628 C   0  0  0  0  0  0  0  0  0  0  0  0
  148.1079  136.2544  159.9474 C   0  0  0  0  0  0  0  0  0  0  0  0
  148.8594  136.5003  158.8632 N   0  5  0  0  0  0  0  0  0  0  0  0
  149.9460  137.2995  158.9575 C   0  0  0  0  0  0  0  0  0  0  0  0
  150.8812  137.1738  159.7517 O   0  0  0  0  0  0  0  0  0  0  0  0
  149.9483  138.3126  158.0796 N   0  0  0  0  0  0  0  0  0  0  0  0
  150.9830  139.3361  157.9628 C   0  0  0  0  0  0  0  0  0  0  0  0
  150.4300  140.7774  158.1456 C   0  0  2  0  0  0  0  0  0  0  0  0
  149.8219  141.2888  156.8201 C   0  0  0  0  0  0  0  0  0  0  0  0
  151.4367  141.7659  158.6548 N   0  3  2  0  0  0  0  0  0  0  0  0
  152.2631  141.3235  159.8159 C   0  0  0  0  0  0  0  0  0  0  0  0
  153.3552  142.3507  160.1591 C   0  0  0  0  0  0  0  0  0  0  0  0
  152.7622  143.7420  160.4079 C   0  0  0  0  0  0  0  0  0  0  0  0
  151.8762  144.1797  159.2305 C   0  0  1  0  0  0  0  0  0  0  0  0
  152.6851  144.5735  157.9818 C   0  0  0  0  0  0  0  0  0  0  0  0
  150.8213  143.0980  158.9259 C   0  0  0  0  0  0  0  0  0  0  0  0
  147.7521  137.2232  160.7742 N   0  0  0  0  0  0  0  0  0  0  0  0
  146.9955  136.5991  161.7731 O   0  0  0  0  0  0  0  0  0  0  0  0
  146.8388  133.7605  163.0135 H   0  0  0  0  0  0  0  0  0  0  0  0
  145.4447  133.8004  161.9315 H   0  0  0  0  0  0  0  0  0  0  0  0
  145.6263  135.0316  163.1817 H   0  0  0  0  0  0  0  0  0  0  0  0
  147.7691  134.0180  159.8962 H   0  0  0  0  0  0  0  0  0  0  0  0
  149.1664  138.3757  157.4436 H   0  0  0  0  0  0  0  0  0  0  0  0
  151.7531  139.1052  158.7003 H   0  0  0  0  0  0  0  0  0  0  0  0
  151.4439  139.2308  156.9801 H   0  0  0  0  0  0  0  0  0  0  0  0
  149.6316  140.7201  158.8869 H   0  0  0  0  0  0  0  0  0  0  0  0
  149.0328  140.6304  156.4566 H   0  0  0  0  0  0  0  0  0  0  0  0
  150.5816  141.3524  156.0405 H   0  0  0  0  0  0  0  0  0  0  0  0
  149.3701  142.2743  156.9176 H   0  0  0  0  0  0  0  0  0  0  0  0
  151.6193  141.1488  160.6794 H   0  0  0  0  0  0  0  0  0  0  0  0
  152.7757  140.3879  159.5960 H   0  0  0  0  0  0  0  0  0  0  0  0
  153.9066  142.0227  161.0409 H   0  0  0  0  0  0  0  0  0  0  0  0
  154.0824  142.3968  159.3480 H   0  0  0  0  0  0  0  0  0  0  0  0
  152.1632  143.7167  161.3195 H   0  0  0  0  0  0  0  0  0  0  0  0
  153.5559  144.4690  160.5834 H   0  0  0  0  0  0  0  0  0  0  0  0
  151.3421  145.0771  159.5455 H   0  0  0  0  0  0  0  0  0  0  0  0
  153.2360  143.7286  157.5687 H   0  0  0  0  0  0  0  0  0  0  0  0
  153.4057  145.3583  158.2131 H   0  0  0  0  0  0  0  0  0  0  0  0
  152.0300  144.9523  157.1968 H   0  0  0  0  0  0  0  0  0  0  0  0
  150.2118  143.4296  158.0869 H   0  0  0  0  0  0  0  0  0  0  0  0
  150.1406  143.0039  159.7738 H   0  0  0  0  0  0  0  0  0  0  0  0
  152.0913  141.8981  157.8974 H   0  0  0  0  0  0  0  0  0  0  0  0
  1  2  1  0  0  0  0
  1 21  1  0  0  0  0
  1 22  1  0  0  0  0
  1 23  1  0  0  0  0
  2 20  1  0  0  0  0
  2  3  2  0  0  0  0
  3  4  1  0  0  0  0
  3 24  1  0  0  0  0
  4  5  1  0  0  0  0
  4 19  2  0  0  0  0
  5  6  1  0  0  0  0
  6  7  2  0  0  0  0
  6  8  1  0  0  0  0
  8  9  1  0  0  0  0
  8 25  1  0  0  0  0
  9 10  1  0  0  0  0
  9 26  1  0  0  0  0
  9 27  1  0  0  0  0
 10 11  1  0  0  0  0
 10 12  1  0  0  0  0
 10 28  1  0  0  0  0
 11 29  1  0  0  0  0
 11 30  1  0  0  0  0
 11 31  1  0  0  0  0
 12 18  1  0  0  0  0
 12 13  1  0  0  0  0
 12 44  1  0  0  0  0
 13 14  1  0  0  0  0
 13 32  1  0  0  0  0
 13 33  1  0  0  0  0
 14 15  1  0  0  0  0
 14 34  1  0  0  0  0
 14 35  1  0  0  0  0
 15 16  1  0  0  0  0
 15 36  1  0  0  0  0
 15 37  1  0  0  0  0
 16 17  1  0  0  0  0
 16 18  1  0  0  0  0
 16 38  1  0  0  0  0
 17 39  1  0  0  0  0
 17 40  1  0  0  0  0
 17 41  1  0  0  0  0
 18 42  1  0  0  0  0
 18 43  1  0  0  0  0
 19 20  1  0  0  0  0
M  CHG  1   5  -1
M  CHG  1  12   1
M  END
> <s_m_source_file>
AV-unprocessed.smi

> <i_m_source_file_index>
2083

> <i_lp_mmshare_version>
43012

> <i_f3d_flags>
0

> <s_epik_input>
W0NIM11jMVtjSF1jKG5vMSlbTkhdQyg9TylbTkhdW0NIMl1bQ0BIXShbQ0gzXSlOMltDSDJdW0NIMl1bQ0gyXVtDQEBIXShbQ0gzXSlbQ0gyXTI=

> <s_epik_cmdline>
J2VwaWtfcHl0aG9uJywgJy1waCcsICc3LjAnLCAnLXRuJywgJzgnLCAnLW1hJywgJzIwMCcsICctbWV0YWxfYmluZGluZycsICctaW1hZScsICc8aW5maWxlLm1hZT4nLCAnLW9tYWUnLCAnPG91dGZpbGUubWFlPic=

> <r_epik_Ionization_Penalty>
6.22434

> <r_epik_Ionization_Penalty_Charging>
6.22425

> <r_epik_Ionization_Penalty_Neutral>
9.62407e-05

> <r_epik_State_Penalty>
6.22423

> <r_epik_Charging_Adjusted_Penalty>
12.4485

> <i_epik_Tot_Q>
0

> <i_epik_Tot_abs_Q>
2

> <r_epik_Metal_State_Penalty>
2.16764

> <b_epik_Metal_Only>
1

> <s_lp_Force_Field>
OPLS_2005

> <r_lp_Energy>
12.2094

> <b_lp_Chiralities_Consistent>
1

> <s_lp_Variant>
AV-unprocessed.smi:2083-11

> <Gold.Version>
5.8.1

> <Gold.Id.Protein>
6NUR|6NUR_protein|mol2

> <Gold.PLP.Fitness>
46.9629

> <Gold.PLP.PLP>
-41.2716

> <Gold.PLP.part.hbond>
-2.9296

> <Gold.PLP.part.metal>
0.0000

> <Gold.PLP.part.buried>
-6.6837

> <Gold.PLP.part.nonpolar>
-31.7489

> <Gold.PLP.part.repulsive>
0.1998

> <Gold.PLP.ligand.clash>
0.0000

> <Gold.PLP.ligand.torsion>
1.2155

> <Gold.PLP.Chemscore.Hbond>
2.6640

> <Gold.PLP.Chemscore.CHOScore>
0.0000

> <Gold.PLP.Chemscore.Metal>
0.0000

> <Gold.Chemscore.Hbonds>
donor molecule, donor type, donor heavy atom, donor atom, acceptor molecule, acceptor atom, score
      P1  H  6896  6909       L1     7  0.88
      P1  H  6931  6943       L1    19  0.82
      P1  H  6934  6947       L1    19  0.88

> <Gold.PLP.Chemscore.Internal.Correction>
0.1302

> <Gold.Rescore>
     Score         DG    S(hbond)    S(metal)    S(lipo)     H(rot)  DE(clash)    DE(int)     intcor
     20.51     -21.59       2.47        0.00     100.40       1.52       0.00       1.08       ----

> <Gold.Chemscore.Fitness>
20.5086

> <Gold.Chemscore.DG>
-21.5899

> <Gold.Chemscore.ZeroCoef>
-5.4800

> <Gold.Chemscore.Hbond>
2.4707

> <Gold.Chemscore.Metal>
0.0000

> <Gold.Chemscore.Lipo>
100.3973

> <Gold.Chemscore.Internal_Hbond>
0.0000

> <Gold.Chemscore.DEClash>
0.0000

> <Gold.Chemscore.DEInternal>
1.0813

> <Gold.Chemscore.Rot>
1.5190

> <Gold.Chemscore.Internal.Correction>
   9.000000E+99

> <Gold.Chemscore.Hbonds>
donor molecule, donor type, donor heavy atom, donor atom, acceptor molecule, acceptor atom, score
      P1  H  6896  6909       L1     7  0.64
      P1  H  6931  6943       L1    19  0.20
      P1  H  6934  6947       L1    19  0.30

> <Gold.Chemscore.Hbond.Weighted>
-8.2520

> <Gold.Chemscore.Metal.Weighted>
-0.0000

> <Gold.Chemscore.Lipo.Weighted>
-11.7465

> <Gold.Chemscore.Internal_Hbond.Weighted>
0.0000

> <Gold.Chemscore.DEClash.Weighted>
0.0000

> <Gold.Chemscore.DEInternal.Weighted>
1.0813

> <Gold.Chemscore.Rot.Weighted>
3.8886

> <Gold.Chemscore.Internal.Correction.Weighted>
   9.000000E+99

> <Gold.Protein.RotatedTorsions>
[ 6907 6896 6895 6894 ] final  108.86 input  -60.11 | X-H torsion
[ 7974 7965 7964 7962 ] final  -28.99 input  175.53 | X-H torsion
[ 8008 7997 7996 7995 ] final -136.82 input   59.86 | X-H torsion
[ 10167 10162 10161 10158 ] final   28.69 input  -65.29 | X-H torsion
[ 10718 10713 10712 10709 ] final -170.59 input   66.30 | X-H torsion
[ 10763 10752 10751 10750 ] final   50.05 input  -60.55 | X-H torsion
[ 11005 11000 10999 10996 ] final -111.47 input  -57.11 | X-H torsion

> <Gold.Protein.ActiveResidues>
 VAL166  LYS551  ARG553  GLY616  TRP617  ASP618  TYR619  PRO620  LYS621  CYS622 
 ASP623  PHE694  ASN695  SER759  ASP760  ASP761  ALA762  ILE779  LEU786  VAL792 
 PHE793  MET794  SER795  GLU796  ALA797  LYS798  CYS799  TRP800  GLU811  SER814 

> <Gold.Protein.RotatedAtoms>
  152.5093  133.9028  159.7449 H   0  0  0  0  0  0  0  0  0  0  0  0  # atno 6907 bound_to 6896
  150.9440  133.6616  159.2792 H   0  0  0  0  0  0  0  0  0  0  0  0  # atno 6908 bound_to 6896
  151.3917  135.0962  159.9581 H   0  0  0  0  0  0  0  0  0  0  0  0  # atno 6909 bound_to 6896
  146.1249  140.5354  142.8719 H   0  0  0  0  0  0  0  0  0  0  0  0  # atno 7974 bound_to 7965
  155.4015  140.0506  157.3036 H   0  0  0  0  0  0  0  0  0  0  0  0  # atno 8008 bound_to 7997
  154.4988  140.2149  155.9350 H   0  0  0  0  0  0  0  0  0  0  0  0  # atno 8009 bound_to 7997
  156.1441  140.3148  155.8547 H   0  0  0  0  0  0  0  0  0  0  0  0  # atno 8010 bound_to 7997
  140.4831  144.0585  150.6271 H   0  0  0  0  0  0  0  0  0  0  0  0  # atno 10167 bound_to 10162
  156.7284  130.9297  151.3102 H   0  0  0  0  0  0  0  0  0  0  0  0  # atno 10718 bound_to 10713
  152.9785  135.5891  154.4189 H   0  0  0  0  0  0  0  0  0  0  0  0  # atno 10763 bound_to 10752
  154.3816  135.2767  155.2210 H   0  0  0  0  0  0  0  0  0  0  0  0  # atno 10764 bound_to 10752
  154.4121  135.6079  153.6013 H   0  0  0  0  0  0  0  0  0  0  0  0  # atno 10765 bound_to 10752
  141.0732  133.9345  157.2443 H   0  0  0  0  0  0  0  0  0  0  0  0  # atno 11005 bound_to 11000
  144.7632  140.5471  143.6721 LP  0  0  0  0  0  0  0  0  0  0  0  0  # atno 17320 bound_to 7965
  145.5387  139.1475  143.3459 LP  0  0  0  0  0  0  0  0  0  0  0  0  # atno 17321 bound_to 7965
  140.3833  143.2791  152.0145 LP  0  0  0  0  0  0  0  0  0  0  0  0  # atno 17342 bound_to 10162
  139.4837  144.6137  151.7386 LP  0  0  0  0  0  0  0  0  0  0  0  0  # atno 17343 bound_to 10162
  157.6869  130.9194  150.0410 LP  0  0  0  0  0  0  0  0  0  0  0  0  # atno 17370 bound_to 10713
  156.1546  130.3643  149.9388 LP  0  0  0  0  0  0  0  0  0  0  0  0  # atno 17371 bound_to 10713
  139.9545  135.0168  156.9088 LP  0  0  0  0  0  0  0  0  0  0  0  0  # atno 17394 bound_to 11000
  140.5629  134.0518  155.7404 LP  0  0  0  0  0  0  0  0  0  0  0  0  # atno 17395 bound_to 11000

$$$$
