AV-unprocessed.smi:1929|AV-procd|sdf|7807|dock5
  -GOLD-   22720 9553D 1   1.00000     0.00000
 Structure written by MMmdl.
 43 44  0  0  0  0  0  0  0  0  4 V2000
  149.8921  126.1239  149.1913 C   0  0  0  0  0  0  0  0  0  0  0  0
  150.7443  127.2482  148.8236 N   0  5  0  0  0  0  0  0  0  0  0  0
  150.3377  128.2673  148.0199 C   0  0  0  0  0  0  0  0  0  0  0  0
  149.3146  128.3988  147.3398 O   0  0  0  0  0  0  0  0  0  0  0  0
  151.3823  129.3890  147.9791 C   0  0  0  0  0  0  0  0  0  0  0  0
  150.7654  130.6804  148.3729 N   0  3  2  0  0  0  0  0  0  0  0  0
  149.7114  131.1414  147.4287 C   0  0  0  0  0  0  0  0  0  0  0  0
  149.0150  132.4085  147.9509 C   0  0  0  0  0  0  0  0  0  0  0  0
  150.0291  133.5327  148.2149 C   0  0  1  0  0  0  0  0  0  0  0  0
  149.3471  134.6886  148.7902 N   0  0  0  0  0  0  0  0  0  0  0  0
  148.3786  135.3939  148.1879 C   0  0  0  0  0  0  0  0  0  0  0  0
  147.9625  135.1470  147.0563 O   0  0  0  0  0  0  0  0  0  0  0  0
  147.9513  136.4015  148.9687 N   0  0  0  0  0  0  0  0  0  0  0  0
  146.9247  137.3485  148.7038 C   0  0  0  0  0  0  0  0  0  0  0  0
  146.5760  138.2447  149.7387 C   0  0  0  0  0  0  0  0  0  0  0  0
  145.5516  139.1895  149.5248 C   0  0  0  0  0  0  0  0  0  0  0  0
  144.9052  139.2239  148.3398 N   0  3  0  0  0  0  0  0  0  0  0  0
  145.1923  138.3784  147.3268 C   0  0  0  0  0  0  0  0  0  0  0  0
  146.2076  137.4125  147.4819 C   0  0  0  0  0  0  0  0  0  0  0  0
  151.1309  133.0205  149.1601 C   0  0  0  0  0  0  0  0  0  0  0  0
  151.7803  131.7374  148.6142 C   0  0  0  0  0  0  0  0  0  0  0  0
  150.4140  125.4119  149.8305 H   0  0  0  0  0  0  0  0  0  0  0  0
  149.5473  125.5625  148.3225 H   0  0  0  0  0  0  0  0  0  0  0  0
  149.0023  126.4369  149.7386 H   0  0  0  0  0  0  0  0  0  0  0  0
  152.1635  129.1184  148.6907 H   0  0  0  0  0  0  0  0  0  0  0  0
  151.8711  129.4800  147.0063 H   0  0  0  0  0  0  0  0  0  0  0  0
  150.1553  131.3319  146.4504 H   0  0  0  0  0  0  0  0  0  0  0  0
  148.9612  130.3632  147.2864 H   0  0  0  0  0  0  0  0  0  0  0  0
  148.2670  132.7396  147.2294 H   0  0  0  0  0  0  0  0  0  0  0  0
  148.4755  132.1699  148.8688 H   0  0  0  0  0  0  0  0  0  0  0  0
  150.4808  133.8155  147.2618 H   0  0  0  0  0  0  0  0  0  0  0  0
  149.6318  134.9670  149.7182 H   0  0  0  0  0  0  0  0  0  0  0  0
  148.4544  136.5380  149.8332 H   0  0  0  0  0  0  0  0  0  0  0  0
  147.0914  138.2161  150.6880 H   0  0  0  0  0  0  0  0  0  0  0  0
  145.2309  139.9119  150.2613 H   0  0  0  0  0  0  0  0  0  0  0  0
  144.6016  138.4942  146.4300 H   0  0  0  0  0  0  0  0  0  0  0  0
  146.4069  136.7330  146.6673 H   0  0  0  0  0  0  0  0  0  0  0  0
  151.8954  133.7860  149.2989 H   0  0  0  0  0  0  0  0  0  0  0  0
  150.7105  132.8208  150.1468 H   0  0  0  0  0  0  0  0  0  0  0  0
  152.5210  131.3804  149.3307 H   0  0  0  0  0  0  0  0  0  0  0  0
  152.3130  131.9496  147.6859 H   0  0  0  0  0  0  0  0  0  0  0  0
  150.3130  130.5086  149.2596 H   0  0  0  0  0  0  0  0  0  0  0  0
  144.1655  139.9141  148.2058 H   0  0  0  0  0  0  0  0  0  0  0  0
  1  2  1  0  0  0  0
  1 22  1  0  0  0  0
  1 23  1  0  0  0  0
  1 24  1  0  0  0  0
  2  3  1  0  0  0  0
  3  4  2  0  0  0  0
  3  5  1  0  0  0  0
  5  6  1  0  0  0  0
  5 25  1  0  0  0  0
  5 26  1  0  0  0  0
  6 21  1  0  0  0  0
  6  7  1  0  0  0  0
  6 42  1  0  0  0  0
  7  8  1  0  0  0  0
  7 27  1  0  0  0  0
  7 28  1  0  0  0  0
  8  9  1  0  0  0  0
  8 29  1  0  0  0  0
  8 30  1  0  0  0  0
  9 10  1  0  0  0  0
  9 20  1  0  0  0  0
  9 31  1  0  0  0  0
 10 11  1  0  0  0  0
 10 32  1  0  0  0  0
 11 12  2  0  0  0  0
 11 13  1  0  0  0  0
 13 14  1  0  0  0  0
 13 33  1  0  0  0  0
 14 19  1  0  0  0  0
 14 15  2  0  0  0  0
 15 16  1  0  0  0  0
 15 34  1  0  0  0  0
 16 17  2  0  0  0  0
 16 35  1  0  0  0  0
 17 18  1  0  0  0  0
 17 43  1  0  0  0  0
 18 19  2  0  0  0  0
 18 36  1  0  0  0  0
 19 37  1  0  0  0  0
 20 21  1  0  0  0  0
 20 38  1  0  0  0  0
 20 39  1  0  0  0  0
 21 40  1  0  0  0  0
 21 41  1  0  0  0  0
M  CHG  1   2  -1
M  CHG  1   6   1
M  CHG  1  17   1
M  END
> <s_m_source_file>
AV-unprocessed.smi

> <i_m_source_file_index>
1929

> <i_lp_mmshare_version>
43012

> <i_f3d_flags>
0

> <s_epik_input>
W0NIM11bTkhdQyg9TylbQ0gyXU4xW0NIMl1bQ0gyXVtDSF0oW0NIMl1bQ0gyXTEpW05IXUMoPU8pW05IXWMyW2NIXVtjSF1uW2NIXVtjSF0y

> <s_epik_cmdline>
J2VwaWtfcHl0aG9uJywgJy1waCcsICc3LjAnLCAnLXRuJywgJzgnLCAnLW1hJywgJzIwMCcsICctbWV0YWxfYmluZGluZycsICctaW1hZScsICc8aW5maWxlLm1hZT4nLCAnLW9tYWUnLCAnPG91dGZpbGUubWFlPic=

> <r_epik_Ionization_Penalty>
7.25133

> <r_epik_Ionization_Penalty_Charging>
7.25131

> <r_epik_Ionization_Penalty_Neutral>
1.84563e-05

> <r_epik_State_Penalty>
8.093

> <r_epik_Charging_Adjusted_Penalty>
15.3443

> <i_epik_Tot_Q>
1

> <i_epik_Tot_abs_Q>
3

> <r_epik_Metal_State_Penalty>
4.12368

> <b_epik_Metal_Only>
1

> <s_lp_Force_Field>
OPLS_2005

> <r_lp_Energy>
21.0398

> <b_lp_Chiralities_Consistent>
1

> <s_lp_Variant>
AV-unprocessed.smi:1929-9

> <Gold.Version>
5.8.1

> <Gold.Id.Protein>
6NUR|6NUR_protein|mol2

> <Gold.PLP.Fitness>
46.1257

> <Gold.PLP.PLP>
-37.2249

> <Gold.PLP.part.hbond>
-3.7148

> <Gold.PLP.part.metal>
0.0000

> <Gold.PLP.part.buried>
-4.6438

> <Gold.PLP.part.nonpolar>
-29.0640

> <Gold.PLP.part.repulsive>
0.7592

> <Gold.PLP.ligand.clash>
0.0000

> <Gold.PLP.ligand.torsion>
0.0803

> <Gold.PLP.Chemscore.Hbond>
3.0000

> <Gold.PLP.Chemscore.CHOScore>
0.0000

> <Gold.PLP.Chemscore.Metal>
0.0000

> <Gold.PLP.Chemscore.Internal.Correction>
0.0615

> <Gold.Rescore>
     Score         DG    S(hbond)    S(metal)    S(lipo)     H(rot)  DE(clash)    DE(int)     intcor
     15.06     -18.47       2.62        0.00      72.49       1.66       0.03       3.38       ----

> <Gold.Chemscore.Fitness>
15.0607

> <Gold.Chemscore.DG>
-18.4673

> <Gold.Chemscore.ZeroCoef>
-5.4800

> <Gold.Chemscore.Hbond>
2.6195

> <Gold.Chemscore.Metal>
0.0000

> <Gold.Chemscore.Lipo>
72.4895

> <Gold.Chemscore.Internal_Hbond>
0.0000

> <Gold.Chemscore.DEClash>
0.0293

> <Gold.Chemscore.DEInternal>
3.3774

> <Gold.Chemscore.Rot>
1.6574

> <Gold.Chemscore.Internal.Correction>
   9.000000E+99

> <Gold.Chemscore.Hbond.Weighted>
-8.7491

> <Gold.Chemscore.Metal.Weighted>
-0.0000

> <Gold.Chemscore.Lipo.Weighted>
-8.4813

> <Gold.Chemscore.Internal_Hbond.Weighted>
0.0000

> <Gold.Chemscore.DEClash.Weighted>
0.0293

> <Gold.Chemscore.DEInternal.Weighted>
3.3774

> <Gold.Chemscore.Rot.Weighted>
4.2430

> <Gold.Chemscore.Internal.Correction.Weighted>
   9.000000E+99

> <Gold.Protein.RotatedTorsions>
[ 6907 6896 6895 6894 ] final   74.74 input  -60.11 | X-H torsion
[ 7974 7965 7964 7962 ] final   95.60 input  175.53 | X-H torsion
[ 8008 7997 7996 7995 ] final  -53.82 input   59.86 | X-H torsion
[ 10167 10162 10161 10158 ] final  -98.08 input  -65.29 | X-H torsion
[ 10718 10713 10712 10709 ] final   35.81 input   66.30 | X-H torsion
[ 10763 10752 10751 10750 ] final  139.94 input  -60.55 | X-H torsion
[ 11005 11000 10999 10996 ] final  -13.89 input  -57.11 | X-H torsion

> <Gold.Protein.ActiveResidues>
 VAL166  LYS551  ARG553  GLY616  TRP617  ASP618  TYR619  PRO620  LYS621  CYS622 
 ASP623  PHE694  ASN695  SER759  ASP760  ASP761  ALA762  ILE779  LEU786  VAL792 
 PHE793  MET794  SER795  GLU796  ALA797  LYS798  CYS799  TRP800  GLU811  SER814 

> <Gold.Protein.RotatedAtoms>
  152.4991  134.4226  159.9485 H   0  0  0  0  0  0  0  0  0  0  0  0  # atno 6907 bound_to 6896
  151.4200  133.3695  159.2762 H   0  0  0  0  0  0  0  0  0  0  0  0  # atno 6908 bound_to 6896
  150.9230  134.8669  159.7561 H   0  0  0  0  0  0  0  0  0  0  0  0  # atno 6909 bound_to 6896
  145.4500  139.2294  143.3045 H   0  0  0  0  0  0  0  0  0  0  0  0  # atno 7974 bound_to 7965
  154.4144  140.1191  156.5215 H   0  0  0  0  0  0  0  0  0  0  0  0  # atno 8008 bound_to 7997
  155.6697  140.3496  155.4794 H   0  0  0  0  0  0  0  0  0  0  0  0  # atno 8009 bound_to 7997
  155.9643  140.1129  157.0858 H   0  0  0  0  0  0  0  0  0  0  0  0  # atno 8010 bound_to 7997
  140.2767  143.3308  152.0481 H   0  0  0  0  0  0  0  0  0  0  0  0  # atno 10167 bound_to 10162
  157.3272  130.7479  149.6824 H   0  0  0  0  0  0  0  0  0  0  0  0  # atno 10718 bound_to 10713
  153.9144  135.3007  155.3448 H   0  0  0  0  0  0  0  0  0  0  0  0  # atno 10763 bound_to 10752
  154.7607  135.4935  153.9462 H   0  0  0  0  0  0  0  0  0  0  0  0  # atno 10764 bound_to 10752
  153.1175  135.6774  153.9495 H   0  0  0  0  0  0  0  0  0  0  0  0  # atno 10765 bound_to 10752
  140.7808  133.8364  155.9290 H   0  0  0  0  0  0  0  0  0  0  0  0  # atno 11005 bound_to 11000
  146.2510  140.5258  142.8893 LP  0  0  0  0  0  0  0  0  0  0  0  0  # atno 17320 bound_to 7965
  144.8068  140.6313  143.6442 LP  0  0  0  0  0  0  0  0  0  0  0  0  # atno 17321 bound_to 7965
  139.4974  144.6620  151.6444 LP  0  0  0  0  0  0  0  0  0  0  0  0  # atno 17342 bound_to 10162
  140.5845  143.9888  150.6287 LP  0  0  0  0  0  0  0  0  0  0  0  0  # atno 17343 bound_to 10162
  155.9692  130.4205  150.4428 LP  0  0  0  0  0  0  0  0  0  0  0  0  # atno 17370 bound_to 10713
  157.2454  131.0534  151.2411 LP  0  0  0  0  0  0  0  0  0  0  0  0  # atno 17371 bound_to 10713
  140.9484  134.1810  157.4746 LP  0  0  0  0  0  0  0  0  0  0  0  0  # atno 17394 bound_to 11000
  139.8743  134.9899  156.5480 LP  0  0  0  0  0  0  0  0  0  0  0  0  # atno 17395 bound_to 11000

$$$$
