AV-unprocessed.smi:2439|AV-procd|sdf|9612|dock7
  -GOLD-   2272013243D 1   1.00000     0.00000
 Structure written by MMmdl.
 40 42  0  0  0  0  0  0  0  0  1 V2000
  146.2228  141.8682  159.2524 N   0  0  0  0  0  0  0  0  0  0  0  0
  146.7634  141.7261  158.2393 C   0  0  0  0  0  0  0  0  0  0  0  0
  147.4448  141.5467  156.9629 C   0  0  0  0  0  0  0  0  0  0  0  0
  146.7618  141.8737  155.7728 C   0  0  0  0  0  0  0  0  0  0  0  0
  147.4136  141.7016  154.5380 C   0  0  0  0  0  0  0  0  0  0  0  0
  148.7302  141.2061  154.5435 C   0  0  0  0  0  0  0  0  0  0  0  0
  149.3953  140.8895  155.6739 N   0  0  0  0  0  0  0  0  0  0  0  0
  148.7745  141.0547  156.8679 C   0  0  0  0  0  0  0  0  0  0  0  0
  149.4946  140.7170  158.0275 N   0  0  0  0  0  0  0  0  0  0  0  0
  150.6941  139.8945  157.9559 C   0  0  0  0  0  0  0  0  0  0  0  0
  151.9392  140.7411  157.6306 C   0  0  1  0  0  0  0  0  0  0  0  0
  151.7453  142.2376  157.9416 C   0  0  0  0  0  0  0  0  0  0  0  0
  151.7208  142.5184  159.3724 N   0  0  0  0  0  0  0  0  0  0  0  0
  151.5587  143.9497  159.6245 C   0  0  0  0  0  0  0  0  0  0  0  0
  151.4909  144.2784  161.1240 C   0  0  0  0  0  0  0  0  0  0  0  0
  152.7426  143.7528  161.8408 C   0  0  0  0  0  0  0  0  0  0  0  0
  152.9409  142.2614  161.5293 C   0  0  0  0  0  0  0  0  0  0  0  0
  152.9386  142.0065  160.0071 C   0  0  1  0  0  0  0  0  0  0  0  0
  153.1258  140.5048  159.7139 C   0  0  0  0  0  0  0  0  0  0  0  0
  153.1035  140.2648  158.3087 O   0  0  0  0  0  0  0  0  0  0  0  0
  145.7499  142.2522  155.8001 H   0  0  0  0  0  0  0  0  0  0  0  0
  146.9164  141.9427  153.6102 H   0  0  0  0  0  0  0  0  0  0  0  0
  149.2637  141.0594  153.6161 H   0  0  0  0  0  0  0  0  0  0  0  0
  149.2760  141.1737  158.9016 H   0  0  0  0  0  0  0  0  0  0  0  0
  150.8316  139.4062  158.9212 H   0  0  0  0  0  0  0  0  0  0  0  0
  150.5587  139.1010  157.2210 H   0  0  0  0  0  0  0  0  0  0  0  0
  152.1337  140.6480  156.5614 H   0  0  0  0  0  0  0  0  0  0  0  0
  152.5572  142.7994  157.4771 H   0  0  0  0  0  0  0  0  0  0  0  0
  150.8238  142.5913  157.4773 H   0  0  0  0  0  0  0  0  0  0  0  0
  152.3839  144.5011  159.1710 H   0  0  0  0  0  0  0  0  0  0  0  0
  150.6481  144.3055  159.1414 H   0  0  0  0  0  0  0  0  0  0  0  0
  151.3983  145.3549  161.2695 H   0  0  0  0  0  0  0  0  0  0  0  0
  150.5986  143.8260  161.5584 H   0  0  0  0  0  0  0  0  0  0  0  0
  153.6168  144.3150  161.5104 H   0  0  0  0  0  0  0  0  0  0  0  0
  152.6572  143.9080  162.9164 H   0  0  0  0  0  0  0  0  0  0  0  0
  153.8770  141.9154  161.9686 H   0  0  0  0  0  0  0  0  0  0  0  0
  152.1446  141.6836  162.0010 H   0  0  0  0  0  0  0  0  0  0  0  0
  153.7954  142.5319  159.5814 H   0  0  0  0  0  0  0  0  0  0  0  0
  154.0834  140.1608  160.1053 H   0  0  0  0  0  0  0  0  0  0  0  0
  152.3578  139.9101  160.2094 H   0  0  0  0  0  0  0  0  0  0  0  0
  1  2  3  0  0  0  0
  2  3  1  0  0  0  0
  3  8  1  0  0  0  0
  3  4  2  0  0  0  0
  4  5  1  0  0  0  0
  4 21  1  0  0  0  0
  5  6  2  0  0  0  0
  5 22  1  0  0  0  0
  6  7  1  0  0  0  0
  6 23  1  0  0  0  0
  7  8  2  0  0  0  0
  8  9  1  0  0  0  0
  9 10  1  0  0  0  0
  9 24  1  0  0  0  0
 10 11  1  0  0  0  0
 10 25  1  0  0  0  0
 10 26  1  0  0  0  0
 11 20  1  0  0  0  0
 11 12  1  0  0  0  0
 11 27  1  0  0  0  0
 12 13  1  0  0  0  0
 12 28  1  0  0  0  0
 12 29  1  0  0  0  0
 13 18  1  0  0  0  0
 13 14  1  0  0  0  0
 14 15  1  0  0  0  0
 14 30  1  0  0  0  0
 14 31  1  0  0  0  0
 15 16  1  0  0  0  0
 15 32  1  0  0  0  0
 15 33  1  0  0  0  0
 16 17  1  0  0  0  0
 16 34  1  0  0  0  0
 16 35  1  0  0  0  0
 17 18  1  0  0  0  0
 17 36  1  0  0  0  0
 17 37  1  0  0  0  0
 18 19  1  0  0  0  0
 18 38  1  0  0  0  0
 19 20  1  0  0  0  0
 19 39  1  0  0  0  0
 19 40  1  0  0  0  0
M  END
> <s_m_source_file>
AV-unprocessed.smi

> <i_m_source_file_index>
2439

> <i_lp_mmshare_version>
43012

> <i_f3d_flags>
0

> <s_epik_input>
TiNDYzFbY0hdW2NIXVtjSF1uYzFbTkhdW0NIMl1bQ0BIXShbQ0gyXTIpT1tDSDJdW0NAQEhdKE4yMylbQ0gyXVtDSDJdW0NIMl1bQ0gyXTM=

> <s_epik_cmdline>
J2VwaWtfcHl0aG9uJywgJy1waCcsICc3LjAnLCAnLXRuJywgJzgnLCAnLW1hJywgJzIwMCcsICctbWV0YWxfYmluZGluZycsICctaW1hZScsICc8aW5maWxlLm1hZT4nLCAnLW9tYWUnLCAnPG91dGZpbGUubWFlPic=

> <r_epik_Ionization_Penalty>
1.22355

> <r_epik_Ionization_Penalty_Charging>
0

> <r_epik_Ionization_Penalty_Neutral>
1.22355

> <r_epik_State_Penalty>
1.29103

> <r_epik_Charging_Adjusted_Penalty>
1.29103

> <i_epik_Tot_Q>
0

> <i_epik_Tot_abs_Q>
0

> <r_epik_Metal_State_Penalty>
1.29103

> <b_epik_Metal_Only>
0

> <s_lp_Force_Field>
OPLS_2005

> <r_lp_Energy>
40.6054

> <b_lp_Chiralities_Consistent>
1

> <s_lp_Variant>
AV-unprocessed.smi:2439-10

> <Gold.Version>
5.8.1

> <Gold.Id.Protein>
6NUR|6NUR_protein|mol2

> <Gold.PLP.Fitness>
42.7191

> <Gold.PLP.PLP>
-37.5198

> <Gold.PLP.part.hbond>
-2.0000

> <Gold.PLP.part.metal>
0.0000

> <Gold.PLP.part.buried>
-5.8878

> <Gold.PLP.part.nonpolar>
-30.0602

> <Gold.PLP.part.repulsive>
0.2555

> <Gold.PLP.ligand.clash>
1.1724

> <Gold.PLP.ligand.torsion>
0.7534

> <Gold.PLP.Chemscore.Hbond>
1.6269

> <Gold.PLP.Chemscore.CHOScore>
0.9971

> <Gold.PLP.Chemscore.Metal>
0.0000

> <Gold.Chemscore.Hbonds>
donor molecule, donor type, donor heavy atom, donor atom, acceptor molecule, acceptor atom, score
      P1  H  6934  6946       L1     1  0.99
      P1  H  7997  8009       L1    20  0.93
      L1  C     6    23       P1  7957  0.64

> <Gold.PLP.Chemscore.Internal.Correction>
0.0065

> <Gold.Rescore>
     Score         DG    S(hbond)    S(metal)    S(lipo)     H(rot)  DE(clash)    DE(int)     intcor
     19.05     -19.89       1.73        0.00     101.16       1.25       0.02       0.82       ----

> <Gold.Chemscore.Fitness>
19.0452

> <Gold.Chemscore.DG>
-19.8904

> <Gold.Chemscore.ZeroCoef>
-5.4800

> <Gold.Chemscore.Hbond>
1.7277

> <Gold.Chemscore.Metal>
0.0000

> <Gold.Chemscore.Lipo>
101.1624

> <Gold.Chemscore.Internal_Hbond>
0.0000

> <Gold.Chemscore.DEClash>
0.0247

> <Gold.Chemscore.DEInternal>
0.8205

> <Gold.Chemscore.Rot>
1.2485

> <Gold.Chemscore.Internal.Correction>
   9.000000E+99

> <Gold.Chemscore.Hbonds>
donor molecule, donor type, donor heavy atom, donor atom, acceptor molecule, acceptor atom, score
      P1  H  6934  6946       L1     1  0.84
      P1  H  7997  8009       L1    20  0.66

> <Gold.Chemscore.Hbond.Weighted>
-5.7706

> <Gold.Chemscore.Metal.Weighted>
-0.0000

> <Gold.Chemscore.Lipo.Weighted>
-11.8360

> <Gold.Chemscore.Internal_Hbond.Weighted>
0.0000

> <Gold.Chemscore.DEClash.Weighted>
0.0247

> <Gold.Chemscore.DEInternal.Weighted>
0.8205

> <Gold.Chemscore.Rot.Weighted>
3.1961

> <Gold.Chemscore.Internal.Correction.Weighted>
   9.000000E+99

> <Gold.Protein.RotatedTorsions>
[ 6907 6896 6895 6894 ] final   89.28 input  -60.11 | X-H torsion
[ 7974 7965 7964 7962 ] final   52.01 input  175.53 | X-H torsion
[ 8008 7997 7996 7995 ] final  154.51 input   59.86 | X-H torsion
[ 10167 10162 10161 10158 ] final  -47.50 input  -65.29 | X-H torsion
[ 10718 10713 10712 10709 ] final  -28.61 input   66.30 | X-H torsion
[ 10763 10752 10751 10750 ] final  -32.21 input  -60.55 | X-H torsion
[ 11005 11000 10999 10996 ] final  -79.81 input  -57.11 | X-H torsion

> <Gold.Protein.ActiveResidues>
 VAL166  LYS551  ARG553  GLY616  TRP617  ASP618  TYR619  PRO620  LYS621  CYS622 
 ASP623  PHE694  ASN695  SER759  ASP760  ASP761  ALA762  ILE779  LEU786  VAL792 
 PHE793  MET794  SER795  GLU796  ALA797  LYS798  CYS799  TRP800  GLU811  SER814 

> <Gold.Protein.RotatedAtoms>
  152.5434  134.1990  159.8704 H   0  0  0  0  0  0  0  0  0  0  0  0  # atno 6907 bound_to 6896
  151.1980  133.4621  159.2603 H   0  0  0  0  0  0  0  0  0  0  0  0  # atno 6908 bound_to 6896
  151.1017  134.9988  159.8507 H   0  0  0  0  0  0  0  0  0  0  0  0  # atno 6909 bound_to 6896
  145.9856  139.4287  143.0105 H   0  0  0  0  0  0  0  0  0  0  0  0  # atno 7974 bound_to 7965
  156.2527  140.1965  156.6657 H   0  0  0  0  0  0  0  0  0  0  0  0  # atno 8008 bound_to 7997
  154.6431  140.0581  156.9894 H   0  0  0  0  0  0  0  0  0  0  0  0  # atno 8009 bound_to 7997
  155.1533  140.3253  155.4429 H   0  0  0  0  0  0  0  0  0  0  0  0  # atno 8010 bound_to 7997
  140.6772  143.2781  151.3936 H   0  0  0  0  0  0  0  0  0  0  0  0  # atno 10167 bound_to 10162
  156.4231  130.4430  149.7170 H   0  0  0  0  0  0  0  0  0  0  0  0  # atno 10718 bound_to 10713
  153.8100  135.6883  153.4842 H   0  0  0  0  0  0  0  0  0  0  0  0  # atno 10763 bound_to 10752
  153.1634  135.4571  154.9802 H   0  0  0  0  0  0  0  0  0  0  0  0  # atno 10764 bound_to 10752
  154.7971  135.3323  154.7582 H   0  0  0  0  0  0  0  0  0  0  0  0  # atno 10765 bound_to 10752
  141.1667  133.7122  156.8178 H   0  0  0  0  0  0  0  0  0  0  0  0  # atno 11005 bound_to 11000
  145.7705  140.9898  143.1152 LP  0  0  0  0  0  0  0  0  0  0  0  0  # atno 17320 bound_to 7965
  144.6874  139.9441  143.7476 LP  0  0  0  0  0  0  0  0  0  0  0  0  # atno 17321 bound_to 7965
  139.6071  144.1174  152.2261 LP  0  0  0  0  0  0  0  0  0  0  0  0  # atno 17342 bound_to 10162
  140.0576  144.5882  150.7287 LP  0  0  0  0  0  0  0  0  0  0  0  0  # atno 17343 bound_to 10162
  156.4103  130.7718  151.2731 LP  0  0  0  0  0  0  0  0  0  0  0  0  # atno 17370 bound_to 10713
  157.7508  131.0213  150.3746 LP  0  0  0  0  0  0  0  0  0  0  0  0  # atno 17371 bound_to 10713
  140.2141  134.8806  157.3306 LP  0  0  0  0  0  0  0  0  0  0  0  0  # atno 17394 bound_to 11000
  140.2056  134.4201  155.7639 LP  0  0  0  0  0  0  0  0  0  0  0  0  # atno 17395 bound_to 11000

$$$$
