AV-unprocessed.smi:3157|AV-procd|sdf|12040|dock9
  -GOLD-   2272017463D 1   1.00000     0.00000
 Structure written by MMmdl.
 40 41  0  0  0  0  0  0  0  0  2 V2000
  153.9063  138.5018  158.6614 C   0  0  0  0  0  0  0  0  0  0  0  0
  152.6390  139.1690  158.1025 C   0  0  1  0  0  0  0  0  0  0  0  0
  152.2006  140.2167  159.0543 N   0  3  0  0  0  0  0  0  0  0  0  0
  152.9848  141.4682  159.0102 C   0  0  0  0  0  0  0  0  0  0  0  0
  152.2856  142.5911  159.7918 C   0  0  0  0  0  0  0  0  0  0  0  0
  152.4661  143.9746  159.1615 C   0  0  0  0  0  0  0  0  0  0  0  0
  152.1908  144.9745  160.2916 C   0  0  0  0  0  0  0  0  0  0  0  0
  152.3675  144.2000  161.6064 C   0  0  0  0  0  0  0  0  0  0  0  0
  152.8222  142.7922  161.2120 C   0  0  0  0  0  0  0  0  0  0  0  0
  152.8535  139.7742  156.6891 C   0  0  1  0  0  0  0  0  0  0  0  0
  153.6341  138.8480  155.7374 C   0  0  0  0  0  0  0  0  0  0  0  0
  151.5831  140.1516  156.0790 N   0  0  0  0  0  0  0  0  0  0  0  0
  150.5729  140.9399  156.5948 C   0  0  0  0  0  0  0  0  0  0  0  0
  149.6022  141.0371  155.6396 C   0  0  0  0  0  0  0  0  0  0  0  0
  150.1157  140.2716  154.5565 C   0  0  0  0  0  0  0  0  0  0  0  0
  151.3045  139.7528  154.8181 N   0  0  0  0  0  0  0  0  0  0  0  0
  154.2051  137.6395  158.0655 H   0  0  0  0  0  0  0  0  0  0  0  0
  153.7420  138.1422  159.6778 H   0  0  0  0  0  0  0  0  0  0  0  0
  154.7447  139.1988  158.6873 H   0  0  0  0  0  0  0  0  0  0  0  0
  151.8672  138.3995  158.0404 H   0  0  0  0  0  0  0  0  0  0  0  0
  151.2362  140.4438  158.8589 H   0  0  0  0  0  0  0  0  0  0  0  0
  153.9837  141.2983  159.4131 H   0  0  0  0  0  0  0  0  0  0  0  0
  153.1080  141.7633  157.9674 H   0  0  0  0  0  0  0  0  0  0  0  0
  151.2156  142.3821  159.8475 H   0  0  0  0  0  0  0  0  0  0  0  0
  153.4949  144.0945  158.8178 H   0  0  0  0  0  0  0  0  0  0  0  0
  151.8135  144.1298  158.3015 H   0  0  0  0  0  0  0  0  0  0  0  0
  152.8649  145.8297  160.2320 H   0  0  0  0  0  0  0  0  0  0  0  0
  151.1722  145.3579  160.2212 H   0  0  0  0  0  0  0  0  0  0  0  0
  153.0831  144.6811  162.2743 H   0  0  0  0  0  0  0  0  0  0  0  0
  151.4134  144.1490  162.1327 H   0  0  0  0  0  0  0  0  0  0  0  0
  152.4702  142.0305  161.9086 H   0  0  0  0  0  0  0  0  0  0  0  0
  153.9123  142.7559  161.2064 H   0  0  0  0  0  0  0  0  0  0  0  0
  153.4446  140.6856  156.7992 H   0  0  0  0  0  0  0  0  0  0  0  0
  154.6593  138.6965  156.0741 H   0  0  0  0  0  0  0  0  0  0  0  0
  153.6907  139.2770  154.7362 H   0  0  0  0  0  0  0  0  0  0  0  0
  153.1628  137.8683  155.6526 H   0  0  0  0  0  0  0  0  0  0  0  0
  150.6279  141.3641  157.5864 H   0  0  0  0  0  0  0  0  0  0  0  0
  148.6679  141.5751  155.7038 H   0  0  0  0  0  0  0  0  0  0  0  0
  149.6668  140.0857  153.5920 H   0  0  0  0  0  0  0  0  0  0  0  0
  152.2566  139.8346  159.9881 H   0  0  0  0  0  0  0  0  0  0  0  0
  1  2  1  0  0  0  0
  1 17  1  0  0  0  0
  1 18  1  0  0  0  0
  1 19  1  0  0  0  0
  2  3  1  0  0  0  0
  2 10  1  0  0  0  0
  2 20  1  0  0  0  0
  3  4  1  0  0  0  0
  3 21  1  0  0  0  0
  3 40  1  0  0  0  0
  4  5  1  0  0  0  0
  4 22  1  0  0  0  0
  4 23  1  0  0  0  0
  5  9  1  0  0  0  0
  5  6  1  0  0  0  0
  5 24  1  0  0  0  0
  6  7  1  0  0  0  0
  6 25  1  0  0  0  0
  6 26  1  0  0  0  0
  7  8  1  0  0  0  0
  7 27  1  0  0  0  0
  7 28  1  0  0  0  0
  8  9  1  0  0  0  0
  8 29  1  0  0  0  0
  8 30  1  0  0  0  0
  9 31  1  0  0  0  0
  9 32  1  0  0  0  0
 10 11  1  0  0  0  0
 10 12  1  0  0  0  0
 10 33  1  0  0  0  0
 11 34  1  0  0  0  0
 11 35  1  0  0  0  0
 11 36  1  0  0  0  0
 12 16  1  0  0  0  0
 12 13  1  0  0  0  0
 13 14  2  0  0  0  0
 13 37  1  0  0  0  0
 14 15  1  0  0  0  0
 14 38  1  0  0  0  0
 15 16  2  0  0  0  0
 15 39  1  0  0  0  0
M  CHG  1   3   1
M  END
> <s_m_source_file>
AV-unprocessed.smi

> <i_m_source_file_index>
3157

> <i_lp_mmshare_version>
43012

> <i_f3d_flags>
0

> <s_epik_input>
bjFbY0hdW2NIXVtjSF1uMVtDQEBIXShbQ0gzXSlbQ0BIXShbQ0gzXSlbTkhdW0NIMl1bQ0hdMltDSDJdW0NIMl1bQ0gyXVtDSDJdMg==

> <s_epik_cmdline>
J2VwaWtfcHl0aG9uJywgJy1waCcsICc3LjAnLCAnLXRuJywgJzgnLCAnLW1hJywgJzIwMCcsICctbWV0YWxfYmluZGluZycsICctaW1hZScsICc8aW5maWxlLm1hZT4nLCAnLW9tYWUnLCAnPG91dGZpbGUubWFlPic=

> <r_lp_tautomer_probability>
1

> <r_epik_Ionization_Penalty>
0.00132192

> <r_epik_Ionization_Penalty_Charging>
0.0013111

> <r_epik_Ionization_Penalty_Neutral>
1.08112e-05

> <r_epik_State_Penalty>
-0

> <r_epik_Charging_Adjusted_Penalty>
0.0013111

> <i_epik_Tot_Q>
1

> <i_epik_Tot_abs_Q>
1

> <r_epik_Metal_State_Penalty>
-0

> <b_epik_Metal_Only>
0

> <s_lp_Force_Field>
OPLS_2005

> <r_lp_Energy>
31.1459

> <b_lp_Chiralities_Consistent>
1

> <s_lp_Variant>
AV-unprocessed.smi:3157-4

> <Gold.Version>
5.8.1

> <Gold.Id.Protein>
6NUR|6NUR_protein|mol2

> <Gold.PLP.Fitness>
43.3010

> <Gold.PLP.PLP>
-39.2691

> <Gold.PLP.part.hbond>
-1.0000

> <Gold.PLP.part.metal>
0.0000

> <Gold.PLP.part.buried>
-2.9360

> <Gold.PLP.part.nonpolar>
-35.5072

> <Gold.PLP.part.repulsive>
0.2468

> <Gold.PLP.ligand.clash>
0.0000

> <Gold.PLP.ligand.torsion>
0.9204

> <Gold.PLP.Chemscore.Hbond>
1.0000

> <Gold.PLP.Chemscore.CHOScore>
0.9302

> <Gold.PLP.Chemscore.Metal>
0.0000

> <Gold.Chemscore.Hbonds>
donor molecule, donor type, donor heavy atom, donor atom, acceptor molecule, acceptor atom, score
      L1  C    15    39       P1  7957  1.00

> <Gold.PLP.Chemscore.Internal.Correction>
0.0822

> <Gold.Rescore>
     Score         DG    S(hbond)    S(metal)    S(lipo)     H(rot)  DE(clash)    DE(int)     intcor
     15.65     -16.92       0.72        0.00     110.05       1.50       0.09       1.19       ----

> <Gold.Chemscore.Fitness>
15.6484

> <Gold.Chemscore.DG>
-16.9206

> <Gold.Chemscore.ZeroCoef>
-5.4800

> <Gold.Chemscore.Hbond>
0.7236

> <Gold.Chemscore.Metal>
0.0000

> <Gold.Chemscore.Lipo>
110.0497

> <Gold.Chemscore.Internal_Hbond>
0.0000

> <Gold.Chemscore.DEClash>
0.0852

> <Gold.Chemscore.DEInternal>
1.1870

> <Gold.Chemscore.Rot>
1.5047

> <Gold.Chemscore.Internal.Correction>
   9.000000E+99

> <Gold.Chemscore.Hbond.Weighted>
-2.4168

> <Gold.Chemscore.Metal.Weighted>
-0.0000

> <Gold.Chemscore.Lipo.Weighted>
-12.8758

> <Gold.Chemscore.Internal_Hbond.Weighted>
0.0000

> <Gold.Chemscore.DEClash.Weighted>
0.0852

> <Gold.Chemscore.DEInternal.Weighted>
1.1870

> <Gold.Chemscore.Rot.Weighted>
3.8520

> <Gold.Chemscore.Internal.Correction.Weighted>
   9.000000E+99

> <Gold.Protein.RotatedTorsions>
[ 6907 6896 6895 6894 ] final   67.77 input  -60.11 | X-H torsion
[ 7974 7965 7964 7962 ] final -116.36 input  175.53 | X-H torsion
[ 8008 7997 7996 7995 ] final  144.80 input   59.86 | X-H torsion
[ 10167 10162 10161 10158 ] final  -43.51 input  -65.29 | X-H torsion
[ 10718 10713 10712 10709 ] final -138.78 input   66.30 | X-H torsion
[ 10763 10752 10751 10750 ] final   51.01 input  -60.55 | X-H torsion
[ 11005 11000 10999 10996 ] final  -24.11 input  -57.11 | X-H torsion

> <Gold.Protein.ActiveResidues>
 VAL166  LYS551  ARG553  GLY616  TRP617  ASP618  TYR619  PRO620  LYS621  CYS622 
 ASP623  PHE694  ASN695  SER759  ASP760  ASP761  ALA762  ILE779  LEU786  VAL792 
 PHE793  MET794  SER795  GLU796  ALA797  LYS798  CYS799  TRP800  GLU811  SER814 

> <Gold.Protein.RotatedAtoms>
  152.4574  134.5260  159.9796 H   0  0  0  0  0  0  0  0  0  0  0  0  # atno 6907 bound_to 6896
  151.5317  133.3442  159.2927 H   0  0  0  0  0  0  0  0  0  0  0  0  # atno 6908 bound_to 6896
  150.8524  134.7883  159.7082 H   0  0  0  0  0  0  0  0  0  0  0  0  # atno 6909 bound_to 6896
  145.0977  140.8531  143.3945 H   0  0  0  0  0  0  0  0  0  0  0  0  # atno 7974 bound_to 7965
  156.2899  140.2226  156.5112 H   0  0  0  0  0  0  0  0  0  0  0  0  # atno 8008 bound_to 7997
  154.7607  140.0473  157.0993 H   0  0  0  0  0  0  0  0  0  0  0  0  # atno 8009 bound_to 7997
  154.9994  140.3100  155.4876 H   0  0  0  0  0  0  0  0  0  0  0  0  # atno 8010 bound_to 7997
  140.6931  143.2979  151.3363 H   0  0  0  0  0  0  0  0  0  0  0  0  # atno 10167 bound_to 10162
  156.3033  130.7441  151.1498 H   0  0  0  0  0  0  0  0  0  0  0  0  # atno 10718 bound_to 10713
  152.9785  135.5860  154.4345 H   0  0  0  0  0  0  0  0  0  0  0  0  # atno 10763 bound_to 10752
  154.3954  135.2768  155.2131 H   0  0  0  0  0  0  0  0  0  0  0  0  # atno 10764 bound_to 10752
  154.3985  135.6109  153.5938 H   0  0  0  0  0  0  0  0  0  0  0  0  # atno 10765 bound_to 10752
  140.8815  133.7651  156.0308 H   0  0  0  0  0  0  0  0  0  0  0  0  # atno 11005 bound_to 11000
  145.0992  139.2835  143.5695 LP  0  0  0  0  0  0  0  0  0  0  0  0  # atno 17320 bound_to 7965
  146.3530  140.0553  142.8633 LP  0  0  0  0  0  0  0  0  0  0  0  0  # atno 17321 bound_to 7965
  139.6355  144.0638  152.2512 LP  0  0  0  0  0  0  0  0  0  0  0  0  # atno 17342 bound_to 10162
  140.0127  144.6212  150.7633 LP  0  0  0  0  0  0  0  0  0  0  0  0  # atno 17343 bound_to 10162
  157.7373  131.0553  150.5362 LP  0  0  0  0  0  0  0  0  0  0  0  0  # atno 17370 bound_to 10713
  156.5492  130.4227  149.6116 LP  0  0  0  0  0  0  0  0  0  0  0  0  # atno 17371 bound_to 10713
  140.8455  134.3015  157.5296 LP  0  0  0  0  0  0  0  0  0  0  0  0  # atno 17394 bound_to 11000
  139.8720  134.9440  156.3868 LP  0  0  0  0  0  0  0  0  0  0  0  0  # atno 17395 bound_to 11000

$$$$
