AV-unprocessed.smi:2694|AV-procd|sdf|10406|dock6
  -GOLD-   2272014443D 1   1.00000     0.00000
 Structure written by MMmdl.
 42 44  0  0  0  0  0  0  0  0  1 V2000
  152.4829  139.5741  156.5386 O   0  0  0  0  0  0  0  0  0  0  0  0
  151.9276  140.5626  157.0189 C   0  0  0  0  0  0  0  0  0  0  0  0
  152.5373  141.3755  158.0713 C   0  0  0  0  0  0  0  0  0  0  0  0
  151.8923  142.4541  158.5768 C   0  0  0  0  0  0  0  0  0  0  0  0
  152.4926  143.3033  159.6887 C   0  0  0  0  0  0  0  0  0  0  0  0
  152.6376  142.6172  161.0570 C   0  0  0  0  0  0  0  0  0  0  0  0
  152.2290  143.9489  161.6965 C   0  0  0  0  0  0  0  0  0  0  0  0
  151.5380  144.2964  160.3734 C   0  0  0  0  0  0  0  0  0  0  0  0
  150.6210  142.8066  158.1091 N   0  0  0  0  0  0  0  0  0  0  0  0
  150.0593  142.1032  157.1784 C   0  0  0  0  0  0  0  0  0  0  0  0
  150.6928  140.9798  156.6138 N   0  0  0  0  0  0  0  0  0  0  0  0
  149.9461  140.2654  155.5659 C   0  0  0  0  0  0  0  0  0  0  0  0
  148.9637  141.1908  154.8130 C   0  0  1  0  0  0  0  0  0  0  0  0
  149.4354  141.4558  153.5069 O   0  0  0  0  0  0  0  0  0  0  0  0
  147.5506  140.5952  154.6891 C   0  0  0  0  0  0  0  0  0  0  0  0
  146.6521  141.3089  155.5294 O   0  0  0  0  0  0  0  0  0  0  0  0
  145.9946  142.4056  155.0134 C   0  0  0  0  0  0  0  0  0  0  0  0
  146.2020  142.9085  153.7034 C   0  0  0  0  0  0  0  0  0  0  0  0
  145.4873  144.0336  153.2485 C   0  0  0  0  0  0  0  0  0  0  0  0
  144.5596  144.6704  154.0927 C   0  0  0  0  0  0  0  0  0  0  0  0
  144.3478  144.1809  155.3942 C   0  0  0  0  0  0  0  0  0  0  0  0
  145.0610  143.0554  155.8517 C   0  0  0  0  0  0  0  0  0  0  0  0
  144.7834  142.4755  157.4552 Cl  0  0  0  0  0  0  0  0  0  0  0  0
  153.5145  141.1047  158.4437 H   0  0  0  0  0  0  0  0  0  0  0  0
  153.4213  143.7833  159.3746 H   0  0  0  0  0  0  0  0  0  0  0  0
  151.9018  141.8297  161.2304 H   0  0  0  0  0  0  0  0  0  0  0  0
  153.6483  142.2863  161.2976 H   0  0  0  0  0  0  0  0  0  0  0  0
  151.5599  143.8596  162.5528 H   0  0  0  0  0  0  0  0  0  0  0  0
  153.0817  144.5949  161.9123 H   0  0  0  0  0  0  0  0  0  0  0  0
  151.6528  145.3333  160.0562 H   0  0  0  0  0  0  0  0  0  0  0  0
  150.4926  143.9821  160.3574 H   0  0  0  0  0  0  0  0  0  0  0  0
  149.0689  142.3324  156.7812 H   0  0  0  0  0  0  0  0  0  0  0  0
  150.6113  139.7613  154.8614 H   0  0  0  0  0  0  0  0  0  0  0  0
  149.3862  139.4539  156.0344 H   0  0  0  0  0  0  0  0  0  0  0  0
  148.8760  142.1487  155.3269 H   0  0  0  0  0  0  0  0  0  0  0  0
  149.2927  140.6889  152.9736 H   0  0  0  0  0  0  0  0  0  0  0  0
  147.2187  140.6933  153.6542 H   0  0  0  0  0  0  0  0  0  0  0  0
  147.5630  139.5316  154.9340 H   0  0  0  0  0  0  0  0  0  0  0  0
  146.9046  142.4482  153.0257 H   0  0  0  0  0  0  0  0  0  0  0  0
  145.6519  144.4083  152.2489 H   0  0  0  0  0  0  0  0  0  0  0  0
  144.0117  145.5330  153.7427 H   0  0  0  0  0  0  0  0  0  0  0  0
  143.6359  144.6703  156.0428 H   0  0  0  0  0  0  0  0  0  0  0  0
  1  2  2  0  0  0  0
  2 11  1  0  0  0  0
  2  3  1  0  0  0  0
  3  4  2  0  0  0  0
  3 24  1  0  0  0  0
  4  5  1  0  0  0  0
  4  9  1  0  0  0  0
  5  8  1  0  0  0  0
  5  6  1  0  0  0  0
  5 25  1  0  0  0  0
  6  7  1  0  0  0  0
  6 26  1  0  0  0  0
  6 27  1  0  0  0  0
  7  8  1  0  0  0  0
  7 28  1  0  0  0  0
  7 29  1  0  0  0  0
  8 30  1  0  0  0  0
  8 31  1  0  0  0  0
  9 10  2  0  0  0  0
 10 11  1  0  0  0  0
 10 32  1  0  0  0  0
 11 12  1  0  0  0  0
 12 13  1  0  0  0  0
 12 33  1  0  0  0  0
 12 34  1  0  0  0  0
 13 14  1  0  0  0  0
 13 15  1  0  0  0  0
 13 35  1  0  0  0  0
 14 36  1  0  0  0  0
 15 16  1  0  0  0  0
 15 37  1  0  0  0  0
 15 38  1  0  0  0  0
 16 17  1  0  0  0  0
 17 22  1  0  0  0  0
 17 18  2  0  0  0  0
 18 19  1  0  0  0  0
 18 39  1  0  0  0  0
 19 20  2  0  0  0  0
 19 40  1  0  0  0  0
 20 21  1  0  0  0  0
 20 41  1  0  0  0  0
 21 22  2  0  0  0  0
 21 42  1  0  0  0  0
 22 23  1  0  0  0  0
M  END
> <s_m_source_file>
AV-unprocessed.smi

> <i_m_source_file_index>
2694

> <i_lp_mmshare_version>
43012

> <i_f3d_flags>
0

> <s_epik_input>
W0NIMl0xW0NIMl1bQ0gyXVtDSF0xYyhbY0hdYzI9TyluW2NIXW4yW0NIMl1bQ0BIXShbT0hdKVtDSDJdT2MzW2NIXVtjSF1bY0hdW2NIXWMzQ2w=

> <s_epik_cmdline>
J2VwaWtfcHl0aG9uJywgJy1waCcsICc3LjAnLCAnLXRuJywgJzgnLCAnLW1hJywgJzIwMCcsICctbWV0YWxfYmluZGluZycsICctaW1hZScsICc8aW5maWxlLm1hZT4nLCAnLW9tYWUnLCAnPG91dGZpbGUubWFlPic=

> <r_lp_tautomer_probability>
1

> <r_epik_Ionization_Penalty>
1.78212e-05

> <r_epik_Ionization_Penalty_Charging>
5.61663e-08

> <r_epik_Ionization_Penalty_Neutral>
1.7765e-05

> <r_epik_State_Penalty>
-0

> <r_epik_Charging_Adjusted_Penalty>
5.61663e-08

> <i_epik_Tot_Q>
0

> <i_epik_Tot_abs_Q>
0

> <r_epik_Metal_State_Penalty>
-0

> <b_epik_Metal_Only>
0

> <s_lp_Force_Field>
OPLS_2005

> <r_lp_Energy>
33.164

> <b_lp_Chiralities_Consistent>
1

> <s_lp_Variant>
AV-unprocessed.smi:2694-2

> <Gold.Version>
5.8.1

> <Gold.Id.Protein>
6NUR|6NUR_protein|mol2

> <Gold.PLP.Fitness>
53.0946

> <Gold.PLP.PLP>
-46.8151

> <Gold.PLP.part.hbond>
-3.7433

> <Gold.PLP.part.metal>
0.0000

> <Gold.PLP.part.buried>
-5.1466

> <Gold.PLP.part.nonpolar>
-34.7327

> <Gold.PLP.part.repulsive>
0.2153

> <Gold.PLP.ligand.clash>
0.0000

> <Gold.PLP.ligand.torsion>
2.1294

> <Gold.PLP.Chemscore.Hbond>
2.6663

> <Gold.PLP.Chemscore.CHOScore>
0.6829

> <Gold.PLP.Chemscore.Metal>
0.0000

> <Gold.Chemscore.Hbonds>
donor molecule, donor type, donor heavy atom, donor atom, acceptor molecule, acceptor atom, score
      L1  H    14    36       P1  7957  0.80
      P1  H  7989  7998       L1    14  0.01
      P1  H  7997  8009       L1     1  1.00
      P1  H  8011  8017       L1    14  0.70
      L1  C    10    32       P1  8028  0.50

> <Gold.PLP.Chemscore.Internal.Correction>
0.4906

> <Gold.Rescore>
     Score         DG    S(hbond)    S(metal)    S(lipo)     H(rot)  DE(clash)    DE(int)     intcor
     17.53     -20.50       2.19        0.00     118.78       2.42       0.89       2.08       ----

> <Gold.Chemscore.Fitness>
17.5263

> <Gold.Chemscore.DG>
-20.4989

> <Gold.Chemscore.ZeroCoef>
-5.4800

> <Gold.Chemscore.Hbond>
2.1942

> <Gold.Chemscore.Metal>
0.0000

> <Gold.Chemscore.Lipo>
118.7776

> <Gold.Chemscore.Internal_Hbond>
0.0000

> <Gold.Chemscore.DEClash>
0.8891

> <Gold.Chemscore.DEInternal>
2.0835

> <Gold.Chemscore.Rot>
2.4245

> <Gold.Chemscore.Internal.Correction>
   9.000000E+99

> <Gold.Chemscore.Hbonds>
donor molecule, donor type, donor heavy atom, donor atom, acceptor molecule, acceptor atom, score
      L1  H    14    36       P1  7957  0.79
      P1  H  7997  8009       L1     1  0.39
      P1  H  8011  8017       L1    14  0.10

> <Gold.Chemscore.Hbond.Weighted>
-7.3286

> <Gold.Chemscore.Metal.Weighted>
-0.0000

> <Gold.Chemscore.Lipo.Weighted>
-13.8970

> <Gold.Chemscore.Internal_Hbond.Weighted>
0.0000

> <Gold.Chemscore.DEClash.Weighted>
0.8891

> <Gold.Chemscore.DEInternal.Weighted>
2.0835

> <Gold.Chemscore.Rot.Weighted>
6.2066

> <Gold.Chemscore.Internal.Correction.Weighted>
   9.000000E+99

> <Gold.Protein.RotatedTorsions>
[ 6907 6896 6895 6894 ] final  129.45 input  -60.11 | X-H torsion
[ 7974 7965 7964 7962 ] final  -74.09 input  175.53 | X-H torsion
[ 8008 7997 7996 7995 ] final -169.48 input   59.86 | X-H torsion
[ 10167 10162 10161 10158 ] final  -81.11 input  -65.29 | X-H torsion
[ 10718 10713 10712 10709 ] final -103.88 input   66.30 | X-H torsion
[ 10763 10752 10751 10750 ] final -139.72 input  -60.55 | X-H torsion
[ 11005 11000 10999 10996 ] final  161.07 input  -57.11 | X-H torsion

> <Gold.Protein.ActiveResidues>
 VAL166  LYS551  ARG553  GLY616  TRP617  ASP618  TYR619  PRO620  LYS621  CYS622 
 ASP623  PHE694  ASN695  SER759  ASP760  ASP761  ALA762  ILE779  LEU786  VAL792 
 PHE793  MET794  SER795  GLU796  ALA797  LYS798  CYS799  TRP800  GLU811  SER814 

> <Gold.Protein.RotatedAtoms>
  152.3623  133.6312  159.6023 H   0  0  0  0  0  0  0  0  0  0  0  0  # atno 6907 bound_to 6896
  150.7609  133.9404  159.3463 H   0  0  0  0  0  0  0  0  0  0  0  0  # atno 6908 bound_to 6896
  151.7240  135.0889  160.0340 H   0  0  0  0  0  0  0  0  0  0  0  0  # atno 6909 bound_to 6896
  145.6437  140.9303  143.1022 H   0  0  0  0  0  0  0  0  0  0  0  0  # atno 7974 bound_to 7965
  155.9056  140.1048  157.1318 H   0  0  0  0  0  0  0  0  0  0  0  0  # atno 8008 bound_to 7997
  154.4032  140.1284  156.4555 H   0  0  0  0  0  0  0  0  0  0  0  0  # atno 8009 bound_to 7997
  155.7372  140.3467  155.5089 H   0  0  0  0  0  0  0  0  0  0  0  0  # atno 8010 bound_to 7997
  140.4442  143.2504  151.8582 H   0  0  0  0  0  0  0  0  0  0  0  0  # atno 10167 bound_to 10162
  156.0282  130.5488  150.7316 H   0  0  0  0  0  0  0  0  0  0  0  0  # atno 10718 bound_to 10713
  154.8601  135.3574  154.5592 H   0  0  0  0  0  0  0  0  0  0  0  0  # atno 10763 bound_to 10752
  153.6208  135.7006  153.5316 H   0  0  0  0  0  0  0  0  0  0  0  0  # atno 10764 bound_to 10752
  153.3131  135.4173  155.1313 H   0  0  0  0  0  0  0  0  0  0  0  0  # atno 10765 bound_to 10752
  140.2122  134.8259  157.3133 H   0  0  0  0  0  0  0  0  0  0  0  0  # atno 11005 bound_to 11000
  144.7148  139.8238  143.7402 LP  0  0  0  0  0  0  0  0  0  0  0  0  # atno 17320 bound_to 7965
  146.1260  139.4286  143.0198 LP  0  0  0  0  0  0  0  0  0  0  0  0  # atno 17321 bound_to 7965
  139.4791  144.5194  151.8822 LP  0  0  0  0  0  0  0  0  0  0  0  0  # atno 17342 bound_to 10162
  140.4283  144.2150  150.5887 LP  0  0  0  0  0  0  0  0  0  0  0  0  # atno 17343 bound_to 10162
  157.4907  131.0910  151.0430 LP  0  0  0  0  0  0  0  0  0  0  0  0  # atno 17370 bound_to 10713
  157.0838  130.5914  149.5425 LP  0  0  0  0  0  0  0  0  0  0  0  0  # atno 17371 bound_to 10713
  140.1939  134.4338  155.7700 LP  0  0  0  0  0  0  0  0  0  0  0  0  # atno 17394 bound_to 11000
  141.2226  133.7040  156.8072 LP  0  0  0  0  0  0  0  0  0  0  0  0  # atno 17395 bound_to 11000

$$$$
