AV-unprocessed.smi:893|AV-procd|sdf|4070|dock6
  -GOLD-   22720 1553D 1   1.00000     0.00000
 Structure written by MMmdl.
 26 27  0  0  0  0  0  0  0  0  2 V2000
  153.2360  138.2229  160.0355 C   0  0  0  0  0  0  0  0  0  0  0  0
  153.4707  138.6634  158.5776 C   0  0  0  0  0  0  0  0  0  0  0  0
  152.4767  139.7097  158.0021 C   0  0  1  0  0  0  0  0  0  0  0  0
  152.5523  141.0058  158.7942 C   0  0  0  0  0  0  0  0  0  0  0  0
  153.3649  141.2873  159.9333 C   0  0  0  0  0  0  0  0  0  0  0  0
  153.2049  142.5148  160.4002 N   0  0  0  0  0  0  0  0  0  0  0  0
  152.2897  143.0660  159.5787 N   0  0  0  0  0  0  0  0  0  0  0  0
  151.8652  144.4321  159.7961 C   0  0  0  0  0  0  0  0  0  0  0  0
  151.8812  142.1840  158.6026 C   0  0  0  0  0  0  0  0  0  0  0  0
  152.7260  139.9235  156.5819 N   0  5  0  0  0  0  0  0  0  0  0  0
  151.5935  139.6446  155.8935 C   0  0  0  0  0  0  0  0  0  0  0  0
  151.4122  139.7231  154.6807 O   0  0  0  0  0  0  0  0  0  0  0  0
  150.6240  139.2432  156.7216 N   0  0  0  0  0  0  0  0  0  0  0  0
  151.0331  139.2216  157.9866 C   0  0  0  0  0  0  0  0  0  0  0  0
  150.3844  138.8706  158.9720 O   0  0  0  0  0  0  0  0  0  0  0  0
  153.9693  137.4724  160.3307 H   0  0  0  0  0  0  0  0  0  0  0  0
  152.2477  137.7821  160.1663 H   0  0  0  0  0  0  0  0  0  0  0  0
  153.3277  139.0570  160.7309 H   0  0  0  0  0  0  0  0  0  0  0  0
  154.4856  139.0570  158.5096 H   0  0  0  0  0  0  0  0  0  0  0  0
  153.4589  137.7769  157.9420 H   0  0  0  0  0  0  0  0  0  0  0  0
  154.0630  140.6324  160.4336 H   0  0  0  0  0  0  0  0  0  0  0  0
  151.1180  144.7139  159.0534 H   0  0  0  0  0  0  0  0  0  0  0  0
  152.7208  145.1026  159.7102 H   0  0  0  0  0  0  0  0  0  0  0  0
  151.4300  144.5300  160.7910 H   0  0  0  0  0  0  0  0  0  0  0  0
  151.1510  142.4620  157.8567 H   0  0  0  0  0  0  0  0  0  0  0  0
  149.6992  138.9744  156.4205 H   0  0  0  0  0  0  0  0  0  0  0  0
  1  2  1  0  0  0  0
  1 16  1  0  0  0  0
  1 17  1  0  0  0  0
  1 18  1  0  0  0  0
  2  3  1  0  0  0  0
  2 19  1  0  0  0  0
  2 20  1  0  0  0  0
  3 14  1  0  0  0  0
  3  4  1  0  0  0  0
  3 10  1  0  0  0  0
  4  9  2  0  0  0  0
  4  5  1  0  0  0  0
  5  6  2  0  0  0  0
  5 21  1  0  0  0  0
  6  7  1  0  0  0  0
  7  8  1  0  0  0  0
  7  9  1  0  0  0  0
  8 22  1  0  0  0  0
  8 23  1  0  0  0  0
  8 24  1  0  0  0  0
  9 25  1  0  0  0  0
 10 11  1  0  0  0  0
 11 12  2  0  0  0  0
 11 13  1  0  0  0  0
 13 14  1  0  0  0  0
 13 26  1  0  0  0  0
 14 15  2  0  0  0  0
M  CHG  1  10  -1
M  END
> <s_m_source_file>
AV-unprocessed.smi

> <i_m_source_file_index>
893

> <i_lp_mmshare_version>
43012

> <i_f3d_flags>
0

> <s_epik_input>
Tz1DMVtOSF1DKD1PKVtOSF1bQ0BAXTEoW0NIMl1bQ0gzXSljMltjSF1ubihbQ0gzXSlbY0hdMg==

> <s_epik_cmdline>
J2VwaWtfcHl0aG9uJywgJy1waCcsICc3LjAnLCAnLXRuJywgJzgnLCAnLW1hJywgJzIwMCcsICctbWV0YWxfYmluZGluZycsICctaW1hZScsICc8aW5maWxlLm1hZT4nLCAnLW9tYWUnLCAnPG91dGZpbGUubWFlPic=

> <r_lp_tautomer_probability>
1

> <r_epik_Ionization_Penalty>
4.97057

> <r_epik_Ionization_Penalty_Charging>
4.97009

> <r_epik_Ionization_Penalty_Neutral>
0.000472554

> <r_epik_State_Penalty>
4.98892

> <r_epik_Charging_Adjusted_Penalty>
9.95901

> <i_epik_Tot_Q>
-1

> <i_epik_Tot_abs_Q>
1

> <r_epik_Metal_State_Penalty>
1.41037

> <b_epik_Metal_Only>
1

> <s_lp_Force_Field>
OPLS_2005

> <r_lp_Energy>
9.72866

> <b_lp_Chiralities_Consistent>
1

> <s_lp_Variant>
AV-unprocessed.smi:893-5

> <Gold.Version>
5.8.1

> <Gold.Id.Protein>
6NUR|6NUR_protein|mol2

> <Gold.PLP.Fitness>
36.0836

> <Gold.PLP.PLP>
-27.1028

> <Gold.PLP.part.hbond>
-2.7446

> <Gold.PLP.part.metal>
0.0000

> <Gold.PLP.part.buried>
-3.3477

> <Gold.PLP.part.nonpolar>
-21.0413

> <Gold.PLP.part.repulsive>
0.0851

> <Gold.PLP.ligand.clash>
0.0000

> <Gold.PLP.ligand.torsion>
0.0535

> <Gold.PLP.Chemscore.Hbond>
3.0000

> <Gold.PLP.Chemscore.CHOScore>
0.0000

> <Gold.PLP.Chemscore.Metal>
0.0000

> <Gold.Chemscore.Hbonds>
donor molecule, donor type, donor heavy atom, donor atom, acceptor molecule, acceptor atom, score
      P1  H  7989  7998       L1    12  1.00
      P1  H  7997  8009       L1    10  2.00

> <Gold.PLP.Chemscore.Internal.Correction>
0.0877

> <Gold.Rescore>
     Score         DG    S(hbond)    S(metal)    S(lipo)     H(rot)  DE(clash)    DE(int)     intcor
     15.16     -15.29       1.94        0.00      56.44       1.28       0.07       0.06       ----

> <Gold.Chemscore.Fitness>
15.1601

> <Gold.Chemscore.DG>
-15.2909

> <Gold.Chemscore.ZeroCoef>
-5.4800

> <Gold.Chemscore.Hbond>
1.9419

> <Gold.Chemscore.Metal>
0.0000

> <Gold.Chemscore.Lipo>
56.4363

> <Gold.Chemscore.Internal_Hbond>
0.0000

> <Gold.Chemscore.DEClash>
0.0685

> <Gold.Chemscore.DEInternal>
0.0623

> <Gold.Chemscore.Rot>
1.2805

> <Gold.Chemscore.Internal.Correction>
   9.000000E+99

> <Gold.Chemscore.Hbonds>
donor molecule, donor type, donor heavy atom, donor atom, acceptor molecule, acceptor atom, score
      P1  H  7989  7998       L1    12  1.00
      P1  H  7997  8009       L1    10  0.83

> <Gold.Chemscore.Hbond.Weighted>
-6.4860

> <Gold.Chemscore.Metal.Weighted>
-0.0000

> <Gold.Chemscore.Lipo.Weighted>
-6.6030

> <Gold.Chemscore.Internal_Hbond.Weighted>
0.0000

> <Gold.Chemscore.DEClash.Weighted>
0.0685

> <Gold.Chemscore.DEInternal.Weighted>
0.0623

> <Gold.Chemscore.Rot.Weighted>
3.2782

> <Gold.Chemscore.Internal.Correction.Weighted>
   9.000000E+99

> <Gold.Protein.RotatedTorsions>
[ 6907 6896 6895 6894 ] final -153.43 input  -60.11 | X-H torsion
[ 7974 7965 7964 7962 ] final   90.91 input  175.53 | X-H torsion
[ 8008 7997 7996 7995 ] final -154.88 input   59.86 | X-H torsion
[ 10167 10162 10161 10158 ] final  -89.65 input  -65.29 | X-H torsion
[ 10718 10713 10712 10709 ] final  -85.86 input   66.30 | X-H torsion
[ 10763 10752 10751 10750 ] final   13.21 input  -60.55 | X-H torsion
[ 11005 11000 10999 10996 ] final   72.28 input  -57.11 | X-H torsion

> <Gold.Protein.ActiveResidues>
 VAL166  LYS551  ARG553  GLY616  TRP617  ASP618  TYR619  PRO620  LYS621  CYS622 
 ASP623  PHE694  ASN695  SER759  ASP760  ASP761  ALA762  ILE779  LEU786  VAL792 
 PHE793  MET794  SER795  GLU796  ALA797  LYS798  CYS799  TRP800  GLU811  SER814 

> <Gold.Protein.RotatedAtoms>
  151.2424  133.4392  159.2607 H   0  0  0  0  0  0  0  0  0  0  0  0  # atno 6907 bound_to 6896
  151.0692  134.9788  159.8310 H   0  0  0  0  0  0  0  0  0  0  0  0  # atno 6908 bound_to 6896
  152.5410  134.2371  159.8900 H   0  0  0  0  0  0  0  0  0  0  0  0  # atno 6909 bound_to 6896
  145.5127  139.2277  143.2716 H   0  0  0  0  0  0  0  0  0  0  0  0  # atno 7974 bound_to 7965
  155.6932  140.0758  157.2440 H   0  0  0  0  0  0  0  0  0  0  0  0  # atno 8008 bound_to 7997
  154.4085  140.1661  156.2162 H   0  0  0  0  0  0  0  0  0  0  0  0  # atno 8009 bound_to 7997
  155.9433  140.3383  155.6349 H   0  0  0  0  0  0  0  0  0  0  0  0  # atno 8010 bound_to 7997
  140.3627  143.2834  151.9595 H   0  0  0  0  0  0  0  0  0  0  0  0  # atno 10167 bound_to 10162
  155.9993  130.4745  150.4627 H   0  0  0  0  0  0  0  0  0  0  0  0  # atno 10718 bound_to 10713
  153.1744  135.6817  153.8564 H   0  0  0  0  0  0  0  0  0  0  0  0  # atno 10763 bound_to 10752
  153.7917  135.3168  155.3380 H   0  0  0  0  0  0  0  0  0  0  0  0  # atno 10764 bound_to 10752
  154.8019  135.4772  154.0389 H   0  0  0  0  0  0  0  0  0  0  0  0  # atno 10765 bound_to 10752
  139.9499  134.7246  156.0888 H   0  0  0  0  0  0  0  0  0  0  0  0  # atno 11005 bound_to 11000
  146.2156  140.5934  142.9040 LP  0  0  0  0  0  0  0  0  0  0  0  0  # atno 17320 bound_to 7965
  144.7719  140.5655  143.6664 LP  0  0  0  0  0  0  0  0  0  0  0  0  # atno 17321 bound_to 7965
  139.4812  144.5978  151.7659 LP  0  0  0  0  0  0  0  0  0  0  0  0  # atno 17342 bound_to 10162
  140.5111  144.1023  150.5995 LP  0  0  0  0  0  0  0  0  0  0  0  0  # atno 17343 bound_to 10162
  157.2649  131.0575  151.2297 LP  0  0  0  0  0  0  0  0  0  0  0  0  # atno 17370 bound_to 10713
  157.3398  130.7027  149.6374 LP  0  0  0  0  0  0  0  0  0  0  0  0  # atno 17371 bound_to 10713
  141.1159  133.6628  156.3093 LP  0  0  0  0  0  0  0  0  0  0  0  0  # atno 17394 bound_to 11000
  140.5744  134.5808  157.5465 LP  0  0  0  0  0  0  0  0  0  0  0  0  # atno 17395 bound_to 11000

$$$$
