AV-unprocessed.smi:1005|AV-procd|sdf|4386|dock7
  -GOLD-   22720 2313D 1   1.00000     0.00000
 Structure written by MMmdl.
 55 57  0  0  0  0  0  0  0  0  1 V2000
  152.7978  143.4342  161.6592 C   0  0  0  0  0  0  0  0  0  0  0  0
  152.2862  142.9620  160.3095 C   0  0  0  0  0  0  0  0  0  0  0  0
  152.6979  141.7015  159.8212 C   0  0  0  0  0  0  0  0  0  0  0  0
  152.2461  141.2264  158.5706 C   0  0  0  0  0  0  0  0  0  0  0  0
  152.5159  140.0405  157.9091 N   0  0  0  0  0  0  0  0  0  0  0  0
  151.8024  140.1864  156.7966 C   0  0  0  0  0  0  0  0  0  0  0  0
  151.1074  141.3318  156.6546 N   0  0  0  0  0  0  0  0  0  0  0  0
  150.2645  141.7139  155.5353 C   0  0  0  0  0  0  0  0  0  0  0  0
  149.4435  140.5341  154.9760 C   0  0  2  0  0  0  0  0  0  0  0  0
  150.2291  139.9194  153.9748 O   0  0  0  0  0  0  0  0  0  0  0  0
  148.0851  140.9526  154.3662 C   0  0  0  0  0  0  0  0  0  0  0  0
  147.4464  142.1015  155.0067 N   0  0  0  0  0  0  0  0  0  0  0  0
  146.2781  142.5397  154.2516 C   0  0  0  0  0  0  0  0  0  0  0  0
  145.5968  143.7555  154.9013 C   0  0  0  0  0  0  0  0  0  0  0  0
  145.2320  143.4409  156.2412 O   0  0  0  0  0  0  0  0  0  0  0  0
  146.3386  143.0270  157.0393 C   0  0  1  0  0  0  0  0  0  0  0  0
  145.8938  142.7592  158.4931 C   0  0  0  0  0  0  0  0  0  0  0  0
  145.8091  143.9185  159.3872 N   0  0  0  0  0  0  0  0  0  0  0  0
  147.0898  144.5911  159.5686 C   0  0  0  0  0  0  0  0  0  0  0  0
  145.2632  143.5270  160.6792 C   0  0  0  0  0  0  0  0  0  0  0  0
  147.0445  141.8215  156.3830 C   0  0  0  0  0  0  0  0  0  0  0  0
  151.3649  142.0538  157.8150 C   0  0  0  0  0  0  0  0  0  0  0  0
  150.9459  143.3086  158.2915 C   0  0  0  0  0  0  0  0  0  0  0  0
  151.4071  143.7684  159.5427 C   0  0  0  0  0  0  0  0  0  0  0  0
  150.9518  145.1265  160.0468 C   0  0  0  0  0  0  0  0  0  0  0  0
  153.4495  142.6914  162.1202 H   0  0  0  0  0  0  0  0  0  0  0  0
  151.9666  143.6178  162.3403 H   0  0  0  0  0  0  0  0  0  0  0  0
  153.3673  144.3575  161.5498 H   0  0  0  0  0  0  0  0  0  0  0  0
  153.3667  141.0865  160.4053 H   0  0  0  0  0  0  0  0  0  0  0  0
  151.7891  139.4184  156.0370 H   0  0  0  0  0  0  0  0  0  0  0  0
  149.6030  142.5208  155.8547 H   0  0  0  0  0  0  0  0  0  0  0  0
  150.9089  142.1267  154.7577 H   0  0  0  0  0  0  0  0  0  0  0  0
  149.2840  139.8100  155.7759 H   0  0  0  0  0  0  0  0  0  0  0  0
  149.7394  139.9179  153.1667 H   0  0  0  0  0  0  0  0  0  0  0  0
  148.2479  141.2159  153.3218 H   0  0  0  0  0  0  0  0  0  0  0  0
  147.4013  140.1025  154.3383 H   0  0  0  0  0  0  0  0  0  0  0  0
  146.5703  142.7957  153.2325 H   0  0  0  0  0  0  0  0  0  0  0  0
  145.5594  141.7224  154.1739 H   0  0  0  0  0  0  0  0  0  0  0  0
  146.2607  144.6212  154.8911 H   0  0  0  0  0  0  0  0  0  0  0  0
  144.7019  144.0320  154.3438 H   0  0  0  0  0  0  0  0  0  0  0  0
  147.0417  143.8616  157.0693 H   0  0  0  0  0  0  0  0  0  0  0  0
  144.9059  142.2997  158.4378 H   0  0  0  0  0  0  0  0  0  0  0  0
  146.5435  142.0014  158.9332 H   0  0  0  0  0  0  0  0  0  0  0  0
  146.9997  145.4041  160.2896 H   0  0  0  0  0  0  0  0  0  0  0  0
  147.4397  145.0347  158.6377 H   0  0  0  0  0  0  0  0  0  0  0  0
  147.8514  143.9000  159.9315 H   0  0  0  0  0  0  0  0  0  0  0  0
  145.1509  144.3933  161.3317 H   0  0  0  0  0  0  0  0  0  0  0  0
  145.9123  142.8068  161.1789 H   0  0  0  0  0  0  0  0  0  0  0  0
  144.2782  143.0739  160.5632 H   0  0  0  0  0  0  0  0  0  0  0  0
  146.3831  140.9541  156.3990 H   0  0  0  0  0  0  0  0  0  0  0  0
  147.9166  141.5596  156.9818 H   0  0  0  0  0  0  0  0  0  0  0  0
  150.2762  143.9127  157.6972 H   0  0  0  0  0  0  0  0  0  0  0  0
  150.2650  145.6014  159.3454 H   0  0  0  0  0  0  0  0  0  0  0  0
  151.8064  145.7901  160.1800 H   0  0  0  0  0  0  0  0  0  0  0  0
  150.4369  145.0272  161.0027 H   0  0  0  0  0  0  0  0  0  0  0  0
  1  2  1  0  0  0  0
  1 26  1  0  0  0  0
  1 27  1  0  0  0  0
  1 28  1  0  0  0  0
  2 24  1  0  0  0  0
  2  3  2  0  0  0  0
  3  4  1  0  0  0  0
  3 29  1  0  0  0  0
  4 22  2  0  0  0  0
  4  5  1  0  0  0  0
  5  6  2  0  0  0  0
  6  7  1  0  0  0  0
  6 30  1  0  0  0  0
  7  8  1  0  0  0  0
  7 22  1  0  0  0  0
  8  9  1  0  0  0  0
  8 31  1  0  0  0  0
  8 32  1  0  0  0  0
  9 10  1  0  0  0  0
  9 11  1  0  0  0  0
  9 33  1  0  0  0  0
 10 34  1  0  0  0  0
 11 12  1  0  0  0  0
 11 35  1  0  0  0  0
 11 36  1  0  0  0  0
 12 21  1  0  0  0  0
 12 13  1  0  0  0  0
 13 14  1  0  0  0  0
 13 37  1  0  0  0  0
 13 38  1  0  0  0  0
 14 15  1  0  0  0  0
 14 39  1  0  0  0  0
 14 40  1  0  0  0  0
 15 16  1  0  0  0  0
 16 17  1  0  0  0  0
 16 21  1  0  0  0  0
 16 41  1  0  0  0  0
 17 18  1  0  0  0  0
 17 42  1  0  0  0  0
 17 43  1  0  0  0  0
 18 19  1  0  0  0  0
 18 20  1  0  0  0  0
 19 44  1  0  0  0  0
 19 45  1  0  0  0  0
 19 46  1  0  0  0  0
 20 47  1  0  0  0  0
 20 48  1  0  0  0  0
 20 49  1  0  0  0  0
 21 50  1  0  0  0  0
 21 51  1  0  0  0  0
 22 23  1  0  0  0  0
 23 24  2  0  0  0  0
 23 52  1  0  0  0  0
 24 25  1  0  0  0  0
 25 53  1  0  0  0  0
 25 54  1  0  0  0  0
 25 55  1  0  0  0  0
M  END
> <s_m_source_file>
AV-unprocessed.smi

> <i_m_source_file_index>
1005

> <i_lp_mmshare_version>
43012

> <i_f3d_flags>
0

> <s_epik_input>
W0NIM11jKFtjSF0xKWMoW0NIM10pW2NIXWMoYzEyKW4oW2NIXW4yKVtDSDJdW0NASF0oW09IXSlbQ0gyXU4zW0NIMl1bQ0gyXU9bQ0BIXShbQ0gyXTMpW0NIMl1OKFtDSDNdKVtDSDNd

> <s_epik_cmdline>
J2VwaWtfcHl0aG9uJywgJy1waCcsICc3LjAnLCAnLXRuJywgJzgnLCAnLW1hJywgJzIwMCcsICctbWV0YWxfYmluZGluZycsICctaW1hZScsICc8aW5maWxlLm1hZT4nLCAnLW9tYWUnLCAnPG91dGZpbGUubWFlPic=

> <r_epik_Ionization_Penalty>
2.78613

> <r_epik_Ionization_Penalty_Charging>
0

> <r_epik_Ionization_Penalty_Neutral>
2.78613

> <r_epik_State_Penalty>
2.57336

> <r_epik_Charging_Adjusted_Penalty>
2.57336

> <i_epik_Tot_Q>
0

> <i_epik_Tot_abs_Q>
0

> <r_epik_Metal_State_Penalty>
2.49087

> <b_epik_Metal_Only>
0

> <s_lp_Force_Field>
OPLS_2005

> <r_lp_Energy>
41.5619

> <b_lp_Chiralities_Consistent>
1

> <s_lp_Variant>
AV-unprocessed.smi:1005-25

> <Gold.Version>
5.8.1

> <Gold.Id.Protein>
6NUR|6NUR_protein|mol2

> <Gold.PLP.Fitness>
54.7780

> <Gold.PLP.PLP>
-48.4934

> <Gold.PLP.part.hbond>
-3.0000

> <Gold.PLP.part.metal>
0.0000

> <Gold.PLP.part.buried>
-7.7321

> <Gold.PLP.part.nonpolar>
-37.6070

> <Gold.PLP.part.repulsive>
0.2792

> <Gold.PLP.ligand.clash>
0.0000

> <Gold.PLP.ligand.torsion>
1.3222

> <Gold.PLP.Chemscore.Hbond>
2.9513

> <Gold.PLP.Chemscore.CHOScore>
0.0000

> <Gold.PLP.Chemscore.Metal>
0.0000

> <Gold.Chemscore.Hbonds>
donor molecule, donor type, donor heavy atom, donor atom, acceptor molecule, acceptor atom, score
      L1  H    10    34       P1  7957  1.00
      P1  H  7989  7998       L1    10  0.94
      P1  H  7997  8008       L1     5  0.43

> <Gold.PLP.Chemscore.Internal.Correction>
0.0752

> <Gold.Rescore>
     Score         DG    S(hbond)    S(metal)    S(lipo)     H(rot)  DE(clash)    DE(int)     intcor
     19.78     -21.10       2.16        0.00     122.03       2.29       0.05       1.28       ----

> <Gold.Chemscore.Fitness>
19.7757

> <Gold.Chemscore.DG>
-21.1006

> <Gold.Chemscore.ZeroCoef>
-5.4800

> <Gold.Chemscore.Hbond>
2.1569

> <Gold.Chemscore.Metal>
0.0000

> <Gold.Chemscore.Lipo>
122.0315

> <Gold.Chemscore.Internal_Hbond>
0.0000

> <Gold.Chemscore.DEClash>
0.0471

> <Gold.Chemscore.DEInternal>
1.2777

> <Gold.Chemscore.Rot>
2.2895

> <Gold.Chemscore.Internal.Correction>
   9.000000E+99

> <Gold.Chemscore.Hbonds>
donor molecule, donor type, donor heavy atom, donor atom, acceptor molecule, acceptor atom, score
      L1  H    10    34       P1  7957  0.92
      P1  H  7989  7998       L1    10  0.18
      P1  H  7997  8008       L1     5  0.06

> <Gold.Chemscore.Hbond.Weighted>
-7.2041

> <Gold.Chemscore.Metal.Weighted>
-0.0000

> <Gold.Chemscore.Lipo.Weighted>
-14.2777

> <Gold.Chemscore.Internal_Hbond.Weighted>
0.0000

> <Gold.Chemscore.DEClash.Weighted>
0.0471

> <Gold.Chemscore.DEInternal.Weighted>
1.2777

> <Gold.Chemscore.Rot.Weighted>
5.8612

> <Gold.Chemscore.Internal.Correction.Weighted>
   9.000000E+99

> <Gold.Protein.RotatedTorsions>
[ 6907 6896 6895 6894 ] final   14.78 input  -60.11 | X-H torsion
[ 7974 7965 7964 7962 ] final   92.41 input  175.53 | X-H torsion
[ 8008 7997 7996 7995 ] final  -80.62 input   59.86 | X-H torsion
[ 10167 10162 10161 10158 ] final   54.73 input  -65.29 | X-H torsion
[ 10718 10713 10712 10709 ] final  -64.04 input   66.30 | X-H torsion
[ 10763 10752 10751 10750 ] final   82.85 input  -60.55 | X-H torsion
[ 11005 11000 10999 10996 ] final  -38.26 input  -57.11 | X-H torsion

> <Gold.Protein.ActiveResidues>
 VAL166  LYS551  ARG553  GLY616  TRP617  ASP618  TYR619  PRO620  LYS621  CYS622 
 ASP623  PHE694  ASN695  SER759  ASP760  ASP761  ALA762  ILE779  LEU786  VAL792 
 PHE793  MET794  SER795  GLU796  ALA797  LYS798  CYS799  TRP800  GLU811  SER814 

> <Gold.Protein.RotatedAtoms>
  151.8077  135.0690  160.0408 H   0  0  0  0  0  0  0  0  0  0  0  0  # atno 6907 bound_to 6896
  152.3043  133.5683  159.5647 H   0  0  0  0  0  0  0  0  0  0  0  0  # atno 6908 bound_to 6896
  150.7288  134.0161  159.3728 H   0  0  0  0  0  0  0  0  0  0  0  0  # atno 6909 bound_to 6896
  145.4927  139.2276  143.2821 H   0  0  0  0  0  0  0  0  0  0  0  0  # atno 7974 bound_to 7965
  154.5901  140.0660  156.9227 H   0  0  0  0  0  0  0  0  0  0  0  0  # atno 8008 bound_to 7997
  155.2310  140.3337  155.4285 H   0  0  0  0  0  0  0  0  0  0  0  0  # atno 8009 bound_to 7997
  156.2250  140.1815  156.7369 H   0  0  0  0  0  0  0  0  0  0  0  0  # atno 8010 bound_to 7997
  140.2270  144.3727  150.6428 H   0  0  0  0  0  0  0  0  0  0  0  0  # atno 10167 bound_to 10162
  156.0753  130.4228  150.1364 H   0  0  0  0  0  0  0  0  0  0  0  0  # atno 10718 bound_to 10713
  153.1239  135.4713  154.9240 H   0  0  0  0  0  0  0  0  0  0  0  0  # atno 10763 bound_to 10752
  154.7602  135.3129  154.8396 H   0  0  0  0  0  0  0  0  0  0  0  0  # atno 10764 bound_to 10752
  153.8954  135.6880  153.4812 H   0  0  0  0  0  0  0  0  0  0  0  0  # atno 10765 bound_to 10752
  141.0014  133.6953  156.2030 H   0  0  0  0  0  0  0  0  0  0  0  0  # atno 11005 bound_to 11000
  146.2274  140.5722  142.8990 LP  0  0  0  0  0  0  0  0  0  0  0  0  # atno 17320 bound_to 7965
  144.7824  140.5868  143.6596 LP  0  0  0  0  0  0  0  0  0  0  0  0  # atno 17321 bound_to 7965
  140.6213  143.2176  151.6688 LP  0  0  0  0  0  0  0  0  0  0  0  0  # atno 17342 bound_to 10162
  139.5123  144.3479  152.0679 LP  0  0  0  0  0  0  0  0  0  0  0  0  # atno 17343 bound_to 10162
  156.9406  130.9743  151.3517 LP  0  0  0  0  0  0  0  0  0  0  0  0  # atno 17370 bound_to 10713
  157.5845  130.8400  149.8570 LP  0  0  0  0  0  0  0  0  0  0  0  0  # atno 17371 bound_to 10713
  140.6882  134.4694  157.5589 LP  0  0  0  0  0  0  0  0  0  0  0  0  # atno 17394 bound_to 11000
  139.9041  134.8489  156.1777 LP  0  0  0  0  0  0  0  0  0  0  0  0  # atno 17395 bound_to 11000

$$$$
