AV-unprocessed.smi:1019|AV-procd|sdf|4448|dock8
  -GOLD-   22720 2413D 1   1.00000     0.00000
 Structure written by MMmdl.
 45 47  0  0  0  0  0  0  0  0  3 V2000
  148.4981  136.2003  155.0117 C   0  0  0  0  0  0  0  0  0  0  0  0
  149.7604  135.9121  154.2922 N   0  3  2  0  0  0  0  0  0  0  0  0
  150.2301  134.5257  154.5380 C   0  0  0  0  0  0  0  0  0  0  0  0
  149.3297  133.4926  153.8814 C   0  0  0  0  0  0  0  0  0  0  0  0
  148.2368  133.9086  153.0917 C   0  0  0  0  0  0  0  0  0  0  0  0
  147.4086  132.9538  152.4702 C   0  0  0  0  0  0  0  0  0  0  0  0
  147.6672  131.5800  152.6391 C   0  0  0  0  0  0  0  0  0  0  0  0
  148.7533  131.1606  153.4310 C   0  0  0  0  0  0  0  0  0  0  0  0
  149.5825  132.1145  154.0520 C   0  0  0  0  0  0  0  0  0  0  0  0
  150.8031  136.9476  154.5242 C   0  0  0  0  0  0  0  0  0  0  0  0
  150.2436  138.3743  154.3664 C   0  0  2  0  0  0  0  0  0  0  0  0
  149.6672  138.4946  153.0797 O   0  0  0  0  0  0  0  0  0  0  0  0
  151.3396  139.4435  154.5441 C   0  0  0  0  0  0  0  0  0  0  0  0
  150.8217  140.7048  155.0939 N   0  0  0  0  0  0  0  0  0  0  0  0
  149.8456  141.5225  154.6130 C   0  0  0  0  0  0  0  0  0  0  0  0
  149.7232  142.5699  155.4742 N   0  3  0  0  0  0  0  0  0  0  0  0
  150.6331  142.4208  156.5224 C   0  0  0  0  0  0  0  0  0  0  0  0
  150.8823  143.2234  157.6314 C   0  0  0  0  0  0  0  0  0  0  0  0
  151.8869  142.7837  158.5179 C   0  0  0  0  0  0  0  0  0  0  0  0
  152.5992  141.5891  158.2858 C   0  0  0  0  0  0  0  0  0  0  0  0
  152.3377  140.7827  157.1584 C   0  0  0  0  0  0  0  0  0  0  0  0
  151.3426  141.2237  156.2860 C   0  0  0  0  0  0  0  0  0  0  0  0
  148.6428  136.1429  156.0912 H   0  0  0  0  0  0  0  0  0  0  0  0
  147.7250  135.4832  154.7340 H   0  0  0  0  0  0  0  0  0  0  0  0
  148.1207  137.1936  154.7711 H   0  0  0  0  0  0  0  0  0  0  0  0
  151.2600  134.4151  154.1940 H   0  0  0  0  0  0  0  0  0  0  0  0
  150.2352  134.3221  155.6099 H   0  0  0  0  0  0  0  0  0  0  0  0
  148.0338  134.9609  152.9555 H   0  0  0  0  0  0  0  0  0  0  0  0
  146.5745  133.2748  151.8636 H   0  0  0  0  0  0  0  0  0  0  0  0
  147.0313  130.8481  152.1628 H   0  0  0  0  0  0  0  0  0  0  0  0
  148.9503  130.1068  153.5622 H   0  0  0  0  0  0  0  0  0  0  0  0
  150.4149  131.7837  154.6560 H   0  0  0  0  0  0  0  0  0  0  0  0
  151.2320  136.8103  155.5180 H   0  0  0  0  0  0  0  0  0  0  0  0
  151.6331  136.8297  153.8277 H   0  0  0  0  0  0  0  0  0  0  0  0
  149.4614  138.5528  155.1043 H   0  0  0  0  0  0  0  0  0  0  0  0
  149.7563  137.6691  152.6280 H   0  0  0  0  0  0  0  0  0  0  0  0
  152.0976  139.0827  155.2404 H   0  0  0  0  0  0  0  0  0  0  0  0
  151.8591  139.6434  153.6066 H   0  0  0  0  0  0  0  0  0  0  0  0
  149.2708  141.3687  153.7110 H   0  0  0  0  0  0  0  0  0  0  0  0
  150.3385  144.1393  157.8114 H   0  0  0  0  0  0  0  0  0  0  0  0
  152.1159  143.3748  159.3929 H   0  0  0  0  0  0  0  0  0  0  0  0
  153.3626  141.2852  158.9872 H   0  0  0  0  0  0  0  0  0  0  0  0
  152.8927  139.8718  156.9925 H   0  0  0  0  0  0  0  0  0  0  0  0
  149.5431  135.9512  153.3062 H   0  0  0  0  0  0  0  0  0  0  0  0
  149.0655  143.3295  155.3532 H   0  0  0  0  0  0  0  0  0  0  0  0
  1  2  1  0  0  0  0
  1 23  1  0  0  0  0
  1 24  1  0  0  0  0
  1 25  1  0  0  0  0
  2  3  1  0  0  0  0
  2 10  1  0  0  0  0
  2 44  1  0  0  0  0
  3  4  1  0  0  0  0
  3 26  1  0  0  0  0
  3 27  1  0  0  0  0
  4  9  1  0  0  0  0
  4  5  2  0  0  0  0
  5  6  1  0  0  0  0
  5 28  1  0  0  0  0
  6  7  2  0  0  0  0
  6 29  1  0  0  0  0
  7  8  1  0  0  0  0
  7 30  1  0  0  0  0
  8  9  2  0  0  0  0
  8 31  1  0  0  0  0
  9 32  1  0  0  0  0
 10 11  1  0  0  0  0
 10 33  1  0  0  0  0
 10 34  1  0  0  0  0
 11 12  1  0  0  0  0
 11 13  1  0  0  0  0
 11 35  1  0  0  0  0
 12 36  1  0  0  0  0
 13 14  1  0  0  0  0
 13 37  1  0  0  0  0
 13 38  1  0  0  0  0
 14 22  1  0  0  0  0
 14 15  1  0  0  0  0
 15 16  2  0  0  0  0
 15 39  1  0  0  0  0
 16 17  1  0  0  0  0
 16 45  1  0  0  0  0
 17 22  2  0  0  0  0
 17 18  1  0  0  0  0
 18 19  2  0  0  0  0
 18 40  1  0  0  0  0
 19 20  1  0  0  0  0
 19 41  1  0  0  0  0
 20 21  2  0  0  0  0
 20 42  1  0  0  0  0
 21 22  1  0  0  0  0
 21 43  1  0  0  0  0
M  CHG  1   2   1
M  CHG  1  16   1
M  END
> <s_m_source_file>
AV-unprocessed.smi

> <i_m_source_file_index>
1019

> <i_lp_mmshare_version>
43012

> <i_f3d_flags>
0

> <s_epik_input>
W2NIXTFbY0hdW2NIXVtjSF1bY0hdYzFbQ0gyXU4oW0NIM10pW0NIMl1bQ0BIXShbT0hdKVtDSDJdbihbY0hdbjIpYyhjMjMpW2NIXVtjSF1bY0hdW2NIXTM=

> <s_epik_cmdline>
J2VwaWtfcHl0aG9uJywgJy1waCcsICc3LjAnLCAnLXRuJywgJzgnLCAnLW1hJywgJzIwMCcsICctbWV0YWxfYmluZGluZycsICctaW1hZScsICc8aW5maWxlLm1hZT4nLCAnLW9tYWUnLCAnPG91dGZpbGUubWFlPic=

> <r_epik_Ionization_Penalty>
1.5198

> <r_epik_Ionization_Penalty_Charging>
1.5198

> <r_epik_Ionization_Penalty_Neutral>
3.13312e-06

> <r_epik_State_Penalty>
1.624

> <r_epik_Charging_Adjusted_Penalty>
3.1438

> <i_epik_Tot_Q>
2

> <i_epik_Tot_abs_Q>
2

> <r_epik_Metal_State_Penalty>
5.67392

> <b_epik_Metal_Only>
0

> <s_lp_Force_Field>
OPLS_2005

> <r_lp_Energy>
24.0682

> <b_lp_Chiralities_Consistent>
1

> <s_lp_Variant>
AV-unprocessed.smi:1019-6

> <Gold.Version>
5.8.1

> <Gold.Id.Protein>
6NUR|6NUR_protein|mol2

> <Gold.PLP.Fitness>
57.0637

> <Gold.PLP.PLP>
-43.0818

> <Gold.PLP.part.hbond>
-4.0000

> <Gold.PLP.part.metal>
0.0000

> <Gold.PLP.part.buried>
-1.8161

> <Gold.PLP.part.nonpolar>
-37.2976

> <Gold.PLP.part.repulsive>
0.1617

> <Gold.PLP.ligand.clash>
0.0000

> <Gold.PLP.ligand.torsion>
0.5404

> <Gold.PLP.Chemscore.Hbond>
4.9520

> <Gold.PLP.Chemscore.CHOScore>
0.0000

> <Gold.PLP.Chemscore.Metal>
0.0000

> <Gold.Chemscore.Hbonds>
donor molecule, donor type, donor heavy atom, donor atom, acceptor molecule, acceptor atom, score
      L1  H     2    44       P1  7948  1.90
      L1  H    12    36       P1  7948  1.00
      L1  H    16    45       P1  8028  1.27
      L1  C    15    39       P1  7957  0.11

> <Gold.PLP.Chemscore.Internal.Correction>
0.2067

> <Gold.Rescore>
     Score         DG    S(hbond)    S(metal)    S(lipo)     H(rot)  DE(clash)    DE(int)     intcor
     19.93     -20.60       2.73        0.00     105.05       2.46       0.06       0.62       ----

> <Gold.Chemscore.Fitness>
19.9255

> <Gold.Chemscore.DG>
-20.5985

> <Gold.Chemscore.ZeroCoef>
-5.4800

> <Gold.Chemscore.Hbond>
2.7285

> <Gold.Chemscore.Metal>
0.0000

> <Gold.Chemscore.Lipo>
105.0494

> <Gold.Chemscore.Internal_Hbond>
0.0000

> <Gold.Chemscore.DEClash>
0.0565

> <Gold.Chemscore.DEInternal>
0.6164

> <Gold.Chemscore.Rot>
2.4552

> <Gold.Chemscore.Internal.Correction>
   9.000000E+99

> <Gold.Chemscore.Hbonds>
donor molecule, donor type, donor heavy atom, donor atom, acceptor molecule, acceptor atom, score
      L1  H     2    44       P1  7948  0.20
      L1  H    12    36       P1  7948  0.28
      L1  H    16    45       P1  8028  0.62

> <Gold.Chemscore.Hbond.Weighted>
-9.1131

> <Gold.Chemscore.Metal.Weighted>
-0.0000

> <Gold.Chemscore.Lipo.Weighted>
-12.2908

> <Gold.Chemscore.Internal_Hbond.Weighted>
0.0000

> <Gold.Chemscore.DEClash.Weighted>
0.0565

> <Gold.Chemscore.DEInternal.Weighted>
0.6164

> <Gold.Chemscore.Rot.Weighted>
6.2854

> <Gold.Chemscore.Internal.Correction.Weighted>
   9.000000E+99

> <Gold.Protein.RotatedTorsions>
[ 6907 6896 6895 6894 ] final -127.26 input  -60.11 | X-H torsion
[ 7974 7965 7964 7962 ] final  116.91 input  175.53 | X-H torsion
[ 8008 7997 7996 7995 ] final  -75.97 input   59.86 | X-H torsion
[ 10167 10162 10161 10158 ] final  100.77 input  -65.29 | X-H torsion
[ 10718 10713 10712 10709 ] final  158.61 input   66.30 | X-H torsion
[ 10763 10752 10751 10750 ] final -159.25 input  -60.55 | X-H torsion
[ 11005 11000 10999 10996 ] final  142.35 input  -57.11 | X-H torsion

> <Gold.Protein.ActiveResidues>
 VAL166  LYS551  ARG553  GLY616  TRP617  ASP618  TYR619  PRO620  LYS621  CYS622 
 ASP623  PHE694  ASN695  SER759  ASP760  ASP761  ALA762  ILE779  LEU786  VAL792 
 PHE793  MET794  SER795  GLU796  ALA797  LYS798  CYS799  TRP800  GLU811  SER814 

> <Gold.Protein.RotatedAtoms>
  150.9054  133.7064  159.2867 H   0  0  0  0  0  0  0  0  0  0  0  0  # atno 6907 bound_to 6896
  151.4569  135.1033  159.9723 H   0  0  0  0  0  0  0  0  0  0  0  0  # atno 6908 bound_to 6896
  152.4900  133.8427  159.7216 H   0  0  0  0  0  0  0  0  0  0  0  0  # atno 6909 bound_to 6896
  145.1739  139.3086  143.4453 H   0  0  0  0  0  0  0  0  0  0  0  0  # atno 7974 bound_to 7965
  154.5463  140.0735  156.8595 H   0  0  0  0  0  0  0  0  0  0  0  0  # atno 8008 bound_to 7997
  155.3080  140.3388  155.4227 H   0  0  0  0  0  0  0  0  0  0  0  0  # atno 8009 bound_to 7997
  156.1921  140.1690  156.8057 H   0  0  0  0  0  0  0  0  0  0  0  0  # atno 8010 bound_to 7997
  139.7498  144.6987  151.0450 H   0  0  0  0  0  0  0  0  0  0  0  0  # atno 10167 bound_to 10162
  157.1756  131.0620  151.2160 H   0  0  0  0  0  0  0  0  0  0  0  0  # atno 10718 bound_to 10713
  154.7490  135.3087  154.8591 H   0  0  0  0  0  0  0  0  0  0  0  0  # atno 10763 bound_to 10752
  153.9384  135.6777  153.4749 H   0  0  0  0  0  0  0  0  0  0  0  0  # atno 10764 bound_to 10752
  153.1086  135.4877  154.8923 H   0  0  0  0  0  0  0  0  0  0  0  0  # atno 10765 bound_to 10752
  140.0470  134.9275  157.0948 H   0  0  0  0  0  0  0  0  0  0  0  0  # atno 11005 bound_to 11000
  146.3464  140.1894  142.8589 LP  0  0  0  0  0  0  0  0  0  0  0  0  # atno 17320 bound_to 7965
  145.0205  140.8789  143.5170 LP  0  0  0  0  0  0  0  0  0  0  0  0  # atno 17321 bound_to 7965
  140.7796  143.4823  151.0002 LP  0  0  0  0  0  0  0  0  0  0  0  0  # atno 17342 bound_to 10162
  139.8511  143.7437  152.3178 LP  0  0  0  0  0  0  0  0  0  0  0  0  # atno 17343 bound_to 10162
  157.4002  130.7329  149.6761 LP  0  0  0  0  0  0  0  0  0  0  0  0  # atno 17370 bound_to 10713
  155.9732  130.4123  150.4024 LP  0  0  0  0  0  0  0  0  0  0  0  0  # atno 17371 bound_to 10713
  140.3978  134.2115  155.7164 LP  0  0  0  0  0  0  0  0  0  0  0  0  # atno 17394 bound_to 11000
  141.1912  133.8201  157.0889 LP  0  0  0  0  0  0  0  0  0  0  0  0  # atno 17395 bound_to 11000

$$$$
