AV-unprocessed.smi:3056|AV-procd|sdf|11648|dock8
  -GOLD-   2272017 43D 1   1.00000     0.00000
 Structure written by MMmdl.
 48 49  0  0  0  0  0  0  0  0  2 V2000
  151.9703  142.4340  159.0698 C   0  0  0  0  0  0  0  0  0  0  0  0
  151.4425  141.5235  157.9988 C   0  0  0  0  0  0  0  0  0  0  0  0
  151.9782  140.2776  157.5685 C   0  0  0  0  0  0  0  0  0  0  0  0
  151.2663  139.7218  156.6026 N   0  0  0  0  0  0  0  0  0  0  0  0
  150.2565  140.5913  156.3709 N   0  0  0  0  0  0  0  0  0  0  0  0
  149.2286  140.3097  155.3715 C   0  0  1  0  0  0  0  0  0  0  0  0
  148.8871  141.5397  154.5000 C   0  0  0  0  0  0  0  0  0  0  0  0
  149.5484  139.0264  154.5547 C   0  0  1  0  0  0  0  0  0  0  0  0
  149.4138  137.7523  155.4041 C   0  0  0  0  0  0  0  0  0  0  0  0
  148.7133  138.8933  153.3369 N   0  3  0  0  0  0  0  0  0  0  0  0
  147.2519  138.9694  153.5490 C   0  0  0  0  0  0  0  0  0  0  0  0
  146.4813  138.3251  152.3919 C   0  0  0  0  0  0  0  0  0  0  0  0
  146.6660  138.7769  151.2622 O   0  0  0  0  0  0  0  0  0  0  0  0
  145.6272  137.3015  152.6343 N   0  0  0  0  0  0  0  0  0  0  0  0
  145.4866  136.6692  153.9479 C   0  0  0  0  0  0  0  0  0  0  0  0
  145.9876  135.2177  153.8333 C   0  0  0  0  0  0  0  0  0  0  0  0
  145.2529  134.5310  152.8213 O   0  0  0  0  0  0  0  0  0  0  0  0
  145.3365  135.1456  151.5360 C   0  0  1  0  0  0  0  0  0  0  0  0
  144.5175  134.3064  150.5493 C   0  0  0  0  0  0  0  0  0  0  0  0
  144.8159  136.5919  151.6422 C   0  0  0  0  0  0  0  0  0  0  0  0
  150.3404  141.6852  157.2081 C   0  0  0  0  0  0  0  0  0  0  0  0
  152.9645  142.1351  159.4031 H   0  0  0  0  0  0  0  0  0  0  0  0
  151.3246  142.4375  159.9479 H   0  0  0  0  0  0  0  0  0  0  0  0
  152.0464  143.4640  158.7210 H   0  0  0  0  0  0  0  0  0  0  0  0
  152.8552  139.7613  157.9303 H   0  0  0  0  0  0  0  0  0  0  0  0
  148.3288  140.0947  155.9500 H   0  0  0  0  0  0  0  0  0  0  0  0
  148.0204  141.3543  153.8665 H   0  0  0  0  0  0  0  0  0  0  0  0
  149.7152  141.8254  153.8507 H   0  0  0  0  0  0  0  0  0  0  0  0
  148.6437  142.4013  155.1227 H   0  0  0  0  0  0  0  0  0  0  0  0
  150.5951  139.0669  154.2488 H   0  0  0  0  0  0  0  0  0  0  0  0
  150.0323  137.8086  156.3005 H   0  0  0  0  0  0  0  0  0  0  0  0
  149.7360  136.8747  154.8425 H   0  0  0  0  0  0  0  0  0  0  0  0
  148.3849  137.5768  155.7184 H   0  0  0  0  0  0  0  0  0  0  0  0
  148.9537  139.6598  152.7246 H   0  0  0  0  0  0  0  0  0  0  0  0
  146.9549  138.5139  154.4916 H   0  0  0  0  0  0  0  0  0  0  0  0
  146.9595  140.0185  153.6139 H   0  0  0  0  0  0  0  0  0  0  0  0
  146.0383  137.1880  154.7328 H   0  0  0  0  0  0  0  0  0  0  0  0
  144.4390  136.6849  154.2517 H   0  0  0  0  0  0  0  0  0  0  0  0
  147.0532  135.1923  153.5997 H   0  0  0  0  0  0  0  0  0  0  0  0
  145.8557  134.6957  154.7812 H   0  0  0  0  0  0  0  0  0  0  0  0
  146.3781  135.1522  151.2095 H   0  0  0  0  0  0  0  0  0  0  0  0
  144.5512  134.7320  149.5467 H   0  0  0  0  0  0  0  0  0  0  0  0
  143.4719  134.2496  150.8529 H   0  0  0  0  0  0  0  0  0  0  0  0
  144.9029  133.2882  150.4907 H   0  0  0  0  0  0  0  0  0  0  0  0
  143.7739  136.5930  151.9662 H   0  0  0  0  0  0  0  0  0  0  0  0
  144.8153  137.0642  150.6636 H   0  0  0  0  0  0  0  0  0  0  0  0
  149.6130  142.4831  157.1740 H   0  0  0  0  0  0  0  0  0  0  0  0
  148.9443  138.0286  152.8687 H   0  0  0  0  0  0  0  0  0  0  0  0
  1  2  1  0  0  0  0
  1 22  1  0  0  0  0
  1 23  1  0  0  0  0
  1 24  1  0  0  0  0
  2 21  2  0  0  0  0
  2  3  1  0  0  0  0
  3  4  2  0  0  0  0
  3 25  1  0  0  0  0
  4  5  1  0  0  0  0
  5  6  1  0  0  0  0
  5 21  1  0  0  0  0
  6  7  1  0  0  0  0
  6  8  1  0  0  0  0
  6 26  1  0  0  0  0
  7 27  1  0  0  0  0
  7 28  1  0  0  0  0
  7 29  1  0  0  0  0
  8  9  1  0  0  0  0
  8 10  1  0  0  0  0
  8 30  1  0  0  0  0
  9 31  1  0  0  0  0
  9 32  1  0  0  0  0
  9 33  1  0  0  0  0
 10 11  1  0  0  0  0
 10 34  1  0  0  0  0
 10 48  1  0  0  0  0
 11 12  1  0  0  0  0
 11 35  1  0  0  0  0
 11 36  1  0  0  0  0
 12 13  2  0  0  0  0
 12 14  1  0  0  0  0
 14 20  1  0  0  0  0
 14 15  1  0  0  0  0
 15 16  1  0  0  0  0
 15 37  1  0  0  0  0
 15 38  1  0  0  0  0
 16 17  1  0  0  0  0
 16 39  1  0  0  0  0
 16 40  1  0  0  0  0
 17 18  1  0  0  0  0
 18 19  1  0  0  0  0
 18 20  1  0  0  0  0
 18 41  1  0  0  0  0
 19 42  1  0  0  0  0
 19 43  1  0  0  0  0
 19 44  1  0  0  0  0
 20 45  1  0  0  0  0
 20 46  1  0  0  0  0
 21 47  1  0  0  0  0
M  CHG  1  10   1
M  END
> <s_m_source_file>
AV-unprocessed.smi

> <i_m_source_file_index>
3056

> <i_lp_mmshare_version>
43012

> <i_f3d_flags>
0

> <s_epik_input>
W0NIM11jMVtjSF1ubihbY0hdMSlbQ0BIXShbQ0gzXSlbQ0BIXShbQ0gzXSlbTkhdW0NIMl1DKD1PKU4yW0NIMl1bQ0gyXU9bQ0BASF0oW0NIM10pW0NIMl0y

> <s_epik_cmdline>
J2VwaWtfcHl0aG9uJywgJy1waCcsICc3LjAnLCAnLXRuJywgJzgnLCAnLW1hJywgJzIwMCcsICctbWV0YWxfYmluZGluZycsICctaW1hZScsICc8aW5maWxlLm1hZT4nLCAnLW9tYWUnLCAnPG91dGZpbGUubWFlPic=

> <r_lp_tautomer_probability>
1

> <r_epik_Ionization_Penalty>
0.233715

> <r_epik_Ionization_Penalty_Charging>
0.233698

> <r_epik_Ionization_Penalty_Neutral>
1.68157e-05

> <r_epik_State_Penalty>
0.225221

> <r_epik_Charging_Adjusted_Penalty>
0.458919

> <i_epik_Tot_Q>
1

> <i_epik_Tot_abs_Q>
1

> <r_epik_Metal_State_Penalty>
0.225535

> <b_epik_Metal_Only>
0

> <s_lp_Force_Field>
OPLS_2005

> <r_lp_Energy>
30.0079

> <b_lp_Chiralities_Consistent>
1

> <s_lp_Variant>
AV-unprocessed.smi:3056-4

> <Gold.Version>
5.8.1

> <Gold.Id.Protein>
6NUR|6NUR_protein|mol2

> <Gold.PLP.Fitness>
48.0090

> <Gold.PLP.PLP>
-34.4463

> <Gold.PLP.part.hbond>
-2.6184

> <Gold.PLP.part.metal>
0.0000

> <Gold.PLP.part.buried>
-2.3218

> <Gold.PLP.part.nonpolar>
-30.7139

> <Gold.PLP.part.repulsive>
0.9647

> <Gold.PLP.ligand.clash>
0.0000

> <Gold.PLP.ligand.torsion>
0.6705

> <Gold.PLP.Chemscore.Hbond>
3.8812

> <Gold.PLP.Chemscore.CHOScore>
1.0000

> <Gold.PLP.Chemscore.Metal>
0.0000

> <Gold.Chemscore.Hbonds>
donor molecule, donor type, donor heavy atom, donor atom, acceptor molecule, acceptor atom, score
      L1  H    10    34       P1  7957  0.86
      L1  H    10    48       P1  7948  1.98
      P1  H  7954  7966       L1    13  0.53
      L1  C    21    47       P1  8028  0.34

> <Gold.PLP.Chemscore.Internal.Correction>
0.2600

> <Gold.Rescore>
     Score         DG    S(hbond)    S(metal)    S(lipo)     H(rot)  DE(clash)    DE(int)     intcor
     16.26     -18.78       2.67        0.00      75.41       1.74       0.53       1.99       ----

> <Gold.Chemscore.Fitness>
16.2563

> <Gold.Chemscore.DG>
-18.7846

> <Gold.Chemscore.ZeroCoef>
-5.4800

> <Gold.Chemscore.Hbond>
2.6718

> <Gold.Chemscore.Metal>
0.0000

> <Gold.Chemscore.Lipo>
75.4130

> <Gold.Chemscore.Internal_Hbond>
0.0000

> <Gold.Chemscore.DEClash>
0.5335

> <Gold.Chemscore.DEInternal>
1.9948

> <Gold.Chemscore.Rot>
1.7354

> <Gold.Chemscore.Internal.Correction>
   9.000000E+99

> <Gold.Chemscore.Hbonds>
donor molecule, donor type, donor heavy atom, donor atom, acceptor molecule, acceptor atom, score
      L1  H    10    34       P1  7957  0.85
      L1  H    10    48       P1  7948  0.93
      P1  H  7954  7966       L1    13  0.50

> <Gold.Chemscore.Hbond.Weighted>
-8.9239

> <Gold.Chemscore.Metal.Weighted>
-0.0000

> <Gold.Chemscore.Lipo.Weighted>
-8.8233

> <Gold.Chemscore.Internal_Hbond.Weighted>
0.0000

> <Gold.Chemscore.DEClash.Weighted>
0.5335

> <Gold.Chemscore.DEInternal.Weighted>
1.9948

> <Gold.Chemscore.Rot.Weighted>
4.4426

> <Gold.Chemscore.Internal.Correction.Weighted>
   9.000000E+99

> <Gold.Protein.RotatedTorsions>
[ 6907 6896 6895 6894 ] final   56.74 input  -60.11 | X-H torsion
[ 7974 7965 7964 7962 ] final   21.52 input  175.53 | X-H torsion
[ 8008 7997 7996 7995 ] final   71.76 input   59.86 | X-H torsion
[ 10167 10162 10161 10158 ] final  -20.26 input  -65.29 | X-H torsion
[ 10718 10713 10712 10709 ] final -129.15 input   66.30 | X-H torsion
[ 10763 10752 10751 10750 ] final -114.95 input  -60.55 | X-H torsion
[ 11005 11000 10999 10996 ] final -164.12 input  -57.11 | X-H torsion

> <Gold.Protein.ActiveResidues>
 VAL166  LYS551  ARG553  GLY616  TRP617  ASP618  TYR619  PRO620  LYS621  CYS622 
 ASP623  PHE694  ASN695  SER759  ASP760  ASP761  ALA762  ILE779  LEU786  VAL792 
 PHE793  MET794  SER795  GLU796  ALA797  LYS798  CYS799  TRP800  GLU811  SER814 

> <Gold.Protein.RotatedAtoms>
  152.3665  134.6797  160.0190 H   0  0  0  0  0  0  0  0  0  0  0  0  # atno 6907 bound_to 6896
  151.7104  133.3307  159.3297 H   0  0  0  0  0  0  0  0  0  0  0  0  # atno 6908 bound_to 6896
  150.7642  134.6472  159.6313 H   0  0  0  0  0  0  0  0  0  0  0  0  # atno 6909 bound_to 6896
  146.2068  139.8015  142.8720 H   0  0  0  0  0  0  0  0  0  0  0  0  # atno 7974 bound_to 7965
  155.7588  140.3487  155.5187 H   0  0  0  0  0  0  0  0  0  0  0  0  # atno 8008 bound_to 7997
  155.8934  140.1022  157.1423 H   0  0  0  0  0  0  0  0  0  0  0  0  # atno 8009 bound_to 7997
  154.4036  140.1300  156.4331 H   0  0  0  0  0  0  0  0  0  0  0  0  # atno 8010 bound_to 7997
  140.7275  143.4740  151.0208 H   0  0  0  0  0  0  0  0  0  0  0  0  # atno 10167 bound_to 10162
  156.2018  130.6862  151.0548 H   0  0  0  0  0  0  0  0  0  0  0  0  # atno 10718 bound_to 10713
  154.8461  135.4399  154.1586 H   0  0  0  0  0  0  0  0  0  0  0  0  # atno 10763 bound_to 10752
  153.2728  135.6946  153.7469 H   0  0  0  0  0  0  0  0  0  0  0  0  # atno 10764 bound_to 10752
  153.6703  135.3420  155.3126 H   0  0  0  0  0  0  0  0  0  0  0  0  # atno 10765 bound_to 10752
  140.5904  134.5050  157.5192 H   0  0  0  0  0  0  0  0  0  0  0  0  # atno 11005 bound_to 11000
  145.3291  141.0262  143.3457 LP  0  0  0  0  0  0  0  0  0  0  0  0  # atno 17320 bound_to 7965
  144.8812  139.4902  143.6722 LP  0  0  0  0  0  0  0  0  0  0  0  0  # atno 17321 bound_to 7965
  139.8434  143.7534  152.3180 LP  0  0  0  0  0  0  0  0  0  0  0  0  # atno 17342 bound_to 10162
  139.7691  144.7482  151.0251 LP  0  0  0  0  0  0  0  0  0  0  0  0  # atno 17343 bound_to 10162
  157.6990  131.0783  150.6879 LP  0  0  0  0  0  0  0  0  0  0  0  0  # atno 17370 bound_to 10713
  156.6937  130.4602  149.5592 LP  0  0  0  0  0  0  0  0  0  0  0  0  # atno 17371 bound_to 10713
  139.9277  134.8025  156.1022 LP  0  0  0  0  0  0  0  0  0  0  0  0  # atno 17394 bound_to 11000
  141.0938  133.6703  156.2600 LP  0  0  0  0  0  0  0  0  0  0  0  0  # atno 17395 bound_to 11000

$$$$
