AV-unprocessed.smi:1389|AV-procd|sdf|5652|dock4
  -GOLD-   22720 5273D 1   1.00000     0.00000
 Structure written by MMmdl.
 53 55  0  0  0  0  0  0  0  0  3 V2000
  145.8151  136.3343  150.8605 C   0  0  0  0  0  0  0  0  0  0  0  0
  144.9258  135.6176  151.9071 C   0  0  2  0  0  0  0  0  0  0  0  0
  145.3372  136.0278  153.3490 C   0  0  0  0  0  0  0  0  0  0  0  0
  145.8322  137.4001  153.4446 N   0  0  0  0  0  0  0  0  0  0  0  0
  146.9647  137.7752  154.0575 C   0  0  0  0  0  0  0  0  0  0  0  0
  147.7437  136.9850  154.5900 O   0  0  0  0  0  0  0  0  0  0  0  0
  147.1219  139.1091  154.0240 N   0  0  0  0  0  0  0  0  0  0  0  0
  148.1800  139.8780  154.5876 C   0  0  0  0  0  0  0  0  0  0  0  0
  149.4972  139.3714  154.7290 C   0  0  0  0  0  0  0  0  0  0  0  0
  150.5053  140.1889  155.2769 C   0  0  0  0  0  0  0  0  0  0  0  0
  150.1855  141.5026  155.6657 C   0  0  0  0  0  0  0  0  0  0  0  0
  148.9265  141.9605  155.5033 N   0  3  0  0  0  0  0  0  0  0  0  0
  147.9202  141.2150  154.9836 C   0  0  0  0  0  0  0  0  0  0  0  0
  146.6447  141.7910  154.8518 N   0  0  0  0  0  0  0  0  0  0  0  0
  146.0396  142.2849  156.0783 C   0  0  0  0  0  0  0  0  0  0  0  0
  144.8867  143.1856  155.6290 C   0  0  0  0  0  0  0  0  0  0  0  0
  145.2430  143.5945  154.1944 C   0  0  0  0  0  0  0  0  0  0  0  0
  146.5666  142.8840  153.8975 C   0  0  0  0  0  0  0  0  0  0  0  0
  144.9377  134.1241  151.7405 N   0  3  0  0  0  0  0  0  0  0  0  0
  144.2551  133.6628  150.4985 C   0  0  0  0  0  0  0  0  0  0  0  0
  144.2660  132.1295  150.3845 C   0  0  0  0  0  0  0  0  0  0  0  0
  145.6040  131.6600  150.4126 O   0  0  0  0  0  0  0  0  0  0  0  0
  146.2326  131.9792  151.6433 C   0  0  0  0  0  0  0  0  0  0  0  0
  146.2924  133.5064  151.8207 C   0  0  0  0  0  0  0  0  0  0  0  0
  145.8278  137.4138  151.0040 H   0  0  0  0  0  0  0  0  0  0  0  0
  145.4531  136.1936  149.8427 H   0  0  0  0  0  0  0  0  0  0  0  0
  146.8467  135.9846  150.9097 H   0  0  0  0  0  0  0  0  0  0  0  0
  143.9017  135.9555  151.7404 H   0  0  0  0  0  0  0  0  0  0  0  0
  144.4844  135.9981  154.0240 H   0  0  0  0  0  0  0  0  0  0  0  0
  146.0642  135.3178  153.7472 H   0  0  0  0  0  0  0  0  0  0  0  0
  145.2547  138.1190  153.0329 H   0  0  0  0  0  0  0  0  0  0  0  0
  146.3553  139.6401  153.6373 H   0  0  0  0  0  0  0  0  0  0  0  0
  149.7557  138.3722  154.4133 H   0  0  0  0  0  0  0  0  0  0  0  0
  151.5119  139.8139  155.3924 H   0  0  0  0  0  0  0  0  0  0  0  0
  150.8939  142.1980  156.0922 H   0  0  0  0  0  0  0  0  0  0  0  0
  145.6866  141.4623  156.7010 H   0  0  0  0  0  0  0  0  0  0  0  0
  146.7585  142.8633  156.6601 H   0  0  0  0  0  0  0  0  0  0  0  0
  143.9479  142.6303  155.6339 H   0  0  0  0  0  0  0  0  0  0  0  0
  144.7671  144.0454  156.2888 H   0  0  0  0  0  0  0  0  0  0  0  0
  144.4662  143.2555  153.5078 H   0  0  0  0  0  0  0  0  0  0  0  0
  145.3356  144.6751  154.0827 H   0  0  0  0  0  0  0  0  0  0  0  0
  147.4020  143.5715  154.0377 H   0  0  0  0  0  0  0  0  0  0  0  0
  146.6027  142.5141  152.8724 H   0  0  0  0  0  0  0  0  0  0  0  0
  143.2144  133.9781  150.4758 H   0  0  0  0  0  0  0  0  0  0  0  0
  144.7446  134.1028  149.6283 H   0  0  0  0  0  0  0  0  0  0  0  0
  143.6857  131.6731  151.1885 H   0  0  0  0  0  0  0  0  0  0  0  0
  143.8047  131.8206  149.4464 H   0  0  0  0  0  0  0  0  0  0  0  0
  145.6999  131.5102  152.4723 H   0  0  0  0  0  0  0  0  0  0  0  0
  147.2405  131.5637  151.6398 H   0  0  0  0  0  0  0  0  0  0  0  0
  146.9400  133.9458  151.0605 H   0  0  0  0  0  0  0  0  0  0  0  0
  146.7509  133.6939  152.7904 H   0  0  0  0  0  0  0  0  0  0  0  0
  144.4124  133.7459  152.5161 H   0  0  0  0  0  0  0  0  0  0  0  0
  148.7220  142.9189  155.7872 H   0  0  0  0  0  0  0  0  0  0  0  0
  1  2  1  0  0  0  0
  1 25  1  0  0  0  0
  1 26  1  0  0  0  0
  1 27  1  0  0  0  0
  2  3  1  0  0  0  0
  2 19  1  0  0  0  0
  2 28  1  0  0  0  0
  3  4  1  0  0  0  0
  3 29  1  0  0  0  0
  3 30  1  0  0  0  0
  4  5  1  0  0  0  0
  4 31  1  0  0  0  0
  5  6  2  0  0  0  0
  5  7  1  0  0  0  0
  7  8  1  0  0  0  0
  7 32  1  0  0  0  0
  8 13  1  0  0  0  0
  8  9  2  0  0  0  0
  9 10  1  0  0  0  0
  9 33  1  0  0  0  0
 10 11  2  0  0  0  0
 10 34  1  0  0  0  0
 11 12  1  0  0  0  0
 11 35  1  0  0  0  0
 12 13  2  0  0  0  0
 12 53  1  0  0  0  0
 13 14  1  0  0  0  0
 14 18  1  0  0  0  0
 14 15  1  0  0  0  0
 15 16  1  0  0  0  0
 15 36  1  0  0  0  0
 15 37  1  0  0  0  0
 16 17  1  0  0  0  0
 16 38  1  0  0  0  0
 16 39  1  0  0  0  0
 17 18  1  0  0  0  0
 17 40  1  0  0  0  0
 17 41  1  0  0  0  0
 18 42  1  0  0  0  0
 18 43  1  0  0  0  0
 19 24  1  0  0  0  0
 19 20  1  0  0  0  0
 19 52  1  0  0  0  0
 20 21  1  0  0  0  0
 20 44  1  0  0  0  0
 20 45  1  0  0  0  0
 21 22  1  0  0  0  0
 21 46  1  0  0  0  0
 21 47  1  0  0  0  0
 22 23  1  0  0  0  0
 23 24  1  0  0  0  0
 23 48  1  0  0  0  0
 23 49  1  0  0  0  0
 24 50  1  0  0  0  0
 24 51  1  0  0  0  0
M  CHG  1  12   1
M  CHG  1  19   1
M  END
> <s_m_source_file>
AV-unprocessed.smi

> <i_m_source_file_index>
1389

> <i_lp_mmshare_version>
43012

> <i_f3d_flags>
0

> <s_epik_input>
W0NIMl0xW0NIMl1PW0NIMl1bQ0gyXU4xW0NASF0oW0NIM10pW0NIMl1bTkhdQyg9TylbTkhdYzJbY0hdW2NIXVtjSF1uYzJOM1tDSDJdW0NIMl1bQ0gyXVtDSDJdMw==

> <s_epik_cmdline>
J2VwaWtfcHl0aG9uJywgJy1waCcsICc3LjAnLCAnLXRuJywgJzgnLCAnLW1hJywgJzIwMCcsICctbWV0YWxfYmluZGluZycsICctaW1hZScsICc8aW5maWxlLm1hZT4nLCAnLW9tYWUnLCAnPG91dGZpbGUubWFlPic=

> <r_lp_tautomer_probability>
0.999994

> <r_epik_Ionization_Penalty>
1.80872

> <r_epik_Ionization_Penalty_Charging>
1.8087

> <r_epik_Ionization_Penalty_Neutral>
2.02981e-05

> <r_epik_State_Penalty>
1.84892

> <r_epik_Charging_Adjusted_Penalty>
3.65762

> <i_epik_Tot_Q>
2

> <i_epik_Tot_abs_Q>
2

> <r_epik_Metal_State_Penalty>
1.9311

> <b_epik_Metal_Only>
0

> <s_lp_Force_Field>
OPLS_2005

> <r_lp_Energy>
59.2072

> <b_lp_Chiralities_Consistent>
1

> <s_lp_Variant>
AV-unprocessed.smi:1389-7

> <Gold.Version>
5.8.1

> <Gold.Id.Protein>
6NUR|6NUR_protein|mol2

> <Gold.PLP.Fitness>
41.9211

> <Gold.PLP.PLP>
-37.0797

> <Gold.PLP.part.hbond>
-1.0000

> <Gold.PLP.part.metal>
0.0000

> <Gold.PLP.part.buried>
-7.0111

> <Gold.PLP.part.nonpolar>
-30.2969

> <Gold.PLP.part.repulsive>
0.5664

> <Gold.PLP.ligand.clash>
0.0000

> <Gold.PLP.ligand.torsion>
0.6183

> <Gold.PLP.Chemscore.Hbond>
2.0000

> <Gold.PLP.Chemscore.CHOScore>
0.0000

> <Gold.PLP.Chemscore.Metal>
0.0000

> <Gold.Chemscore.Hbonds>
donor molecule, donor type, donor heavy atom, donor atom, acceptor molecule, acceptor atom, score
      L1  H    12    53       P1  8028  2.00

> <Gold.PLP.Chemscore.Internal.Correction>
0.0780

> <Gold.Rescore>
     Score         DG    S(hbond)    S(metal)    S(lipo)     H(rot)  DE(clash)    DE(int)     intcor
     12.99     -14.88       0.99        0.00      88.37       1.66       0.09       1.80       ----

> <Gold.Chemscore.Fitness>
12.9853

> <Gold.Chemscore.DG>
-14.8753

> <Gold.Chemscore.ZeroCoef>
-5.4800

> <Gold.Chemscore.Hbond>
0.9914

> <Gold.Chemscore.Metal>
0.0000

> <Gold.Chemscore.Lipo>
88.3653

> <Gold.Chemscore.Internal_Hbond>
0.0000

> <Gold.Chemscore.DEClash>
0.0931

> <Gold.Chemscore.DEInternal>
1.7969

> <Gold.Chemscore.Rot>
1.6620

> <Gold.Chemscore.Internal.Correction>
   9.000000E+99

> <Gold.Chemscore.Hbonds>
donor molecule, donor type, donor heavy atom, donor atom, acceptor molecule, acceptor atom, score
      L1  H    12    53       P1  8028  0.98

> <Gold.Chemscore.Hbond.Weighted>
-3.3112

> <Gold.Chemscore.Metal.Weighted>
-0.0000

> <Gold.Chemscore.Lipo.Weighted>
-10.3387

> <Gold.Chemscore.Internal_Hbond.Weighted>
0.0000

> <Gold.Chemscore.DEClash.Weighted>
0.0931

> <Gold.Chemscore.DEInternal.Weighted>
1.7969

> <Gold.Chemscore.Rot.Weighted>
4.2547

> <Gold.Chemscore.Internal.Correction.Weighted>
   9.000000E+99

> <Gold.Protein.RotatedTorsions>
[ 6907 6896 6895 6894 ] final  145.57 input  -60.11 | X-H torsion
[ 7974 7965 7964 7962 ] final   87.80 input  175.53 | X-H torsion
[ 8008 7997 7996 7995 ] final -108.37 input   59.86 | X-H torsion
[ 10167 10162 10161 10158 ] final  -80.89 input  -65.29 | X-H torsion
[ 10718 10713 10712 10709 ] final   -8.96 input   66.30 | X-H torsion
[ 10763 10752 10751 10750 ] final -128.79 input  -60.55 | X-H torsion
[ 11005 11000 10999 10996 ] final  148.17 input  -57.11 | X-H torsion

> <Gold.Protein.ActiveResidues>
 VAL166  LYS551  ARG553  GLY616  TRP617  ASP618  TYR619  PRO620  LYS621  CYS622 
 ASP623  PHE694  ASN695  SER759  ASP760  ASP761  ALA762  ILE779  LEU786  VAL792 
 PHE793  MET794  SER795  GLU796  ALA797  LYS798  CYS799  TRP800  GLU811  SER814 

> <Gold.Protein.RotatedAtoms>
  152.1792  133.4696  159.4949 H   0  0  0  0  0  0  0  0  0  0  0  0  # atno 6907 bound_to 6896
  150.6932  134.1855  159.4274 H   0  0  0  0  0  0  0  0  0  0  0  0  # atno 6908 bound_to 6896
  151.9765  135.0050  160.0606 H   0  0  0  0  0  0  0  0  0  0  0  0  # atno 6909 bound_to 6896
  145.5541  139.2298  143.2496 H   0  0  0  0  0  0  0  0  0  0  0  0  # atno 7974 bound_to 7965
  154.9432  140.0402  157.2107 H   0  0  0  0  0  0  0  0  0  0  0  0  # atno 8008 bound_to 7997
  154.8049  140.2858  155.5873 H   0  0  0  0  0  0  0  0  0  0  0  0  # atno 8009 bound_to 7997
  156.2965  140.2548  156.2925 H   0  0  0  0  0  0  0  0  0  0  0  0  # atno 8010 bound_to 7997
  140.4462  143.2498  151.8555 H   0  0  0  0  0  0  0  0  0  0  0  0  # atno 10167 bound_to 10162
  156.6949  130.5076  149.5933 H   0  0  0  0  0  0  0  0  0  0  0  0  # atno 10718 bound_to 10713
  154.8757  135.3917  154.3814 H   0  0  0  0  0  0  0  0  0  0  0  0  # atno 10763 bound_to 10752
  153.4561  135.7028  153.6084 H   0  0  0  0  0  0  0  0  0  0  0  0  # atno 10764 bound_to 10752
  153.4603  135.3813  155.2303 H   0  0  0  0  0  0  0  0  0  0  0  0  # atno 10765 bound_to 10752
  140.0937  134.9025  157.1691 H   0  0  0  0  0  0  0  0  0  0  0  0  # atno 11005 bound_to 11000
  146.1896  140.6365  142.9151 LP  0  0  0  0  0  0  0  0  0  0  0  0  # atno 17320 bound_to 7965
  144.7515  140.5202  143.6799 LP  0  0  0  0  0  0  0  0  0  0  0  0  # atno 17321 bound_to 7965
  139.4793  144.5172  151.8851 LP  0  0  0  0  0  0  0  0  0  0  0  0  # atno 17342 bound_to 10162
  140.4261  144.2179  150.5887 LP  0  0  0  0  0  0  0  0  0  0  0  0  # atno 17343 bound_to 10162
  156.1770  130.6474  151.0906 LP  0  0  0  0  0  0  0  0  0  0  0  0  # atno 17370 bound_to 10713
  157.6995  131.0781  150.6865 LP  0  0  0  0  0  0  0  0  0  0  0  0  # atno 17371 bound_to 10713
  140.3316  134.2804  155.7227 LP  0  0  0  0  0  0  0  0  0  0  0  0  # atno 17394 bound_to 11000
  141.2086  133.7774  157.0051 LP  0  0  0  0  0  0  0  0  0  0  0  0  # atno 17395 bound_to 11000

$$$$
