AV-unprocessed.smi:891|AV-procd|sdf|4063|dock9
  -GOLD-   22720 1553D 1   1.00000     0.00000
 Structure written by MMmdl.
 38 38  0  0  0  0  0  0  0  0  1 V2000
  154.5603  140.7753  160.5852 C   0  0  0  0  0  0  0  0  0  0  0  0
  153.5102  141.7918  160.2440 C   0  0  0  0  0  0  0  0  0  0  0  0
  153.0817  141.9164  158.9972 N   0  0  0  0  0  0  0  0  0  0  0  0
  152.1644  142.9175  159.0262 N   0  0  0  0  0  0  0  0  0  0  0  0
  151.5508  143.3394  157.7740 C   0  0  0  0  0  0  0  0  0  0  0  0
  150.9142  142.1402  157.0706 C   0  0  0  0  0  0  0  0  0  0  0  0
  151.2436  140.9956  157.3797 O   0  0  0  0  0  0  0  0  0  0  0  0
  150.0489  142.4279  156.0866 N   0  0  0  0  0  0  0  0  0  0  0  0
  149.5643  141.4922  155.0780 C   0  0  0  0  0  0  0  0  0  0  0  0
  148.0520  141.6852  154.8254 C   0  0  2  0  0  0  0  0  0  0  0  0
  147.2456  141.1325  156.0129 C   0  0  0  0  0  0  0  0  0  0  0  0
  147.5904  141.0667  153.4826 C   0  0  0  0  0  0  0  0  0  0  0  0
  147.4842  139.5340  153.5019 C   0  0  0  0  0  0  0  0  0  0  0  0
  148.7488  138.9682  153.2314 O   0  0  0  0  0  0  0  0  0  0  0  0
  151.9899  143.4266  160.3058 C   0  0  0  0  0  0  0  0  0  0  0  0
  151.0484  144.5384  160.6396 C   0  0  0  0  0  0  0  0  0  0  0  0
  152.8500  142.7179  161.0909 C   0  0  0  0  0  0  0  0  0  0  0  0
  153.1035  142.9205  162.7861 Cl  0  0  0  0  0  0  0  0  0  0  0  0
  154.1084  139.8716  160.9939 H   0  0  0  0  0  0  0  0  0  0  0  0
  155.2549  141.1660  161.3288 H   0  0  0  0  0  0  0  0  0  0  0  0
  155.1428  140.4904  159.7085 H   0  0  0  0  0  0  0  0  0  0  0  0
  150.7944  144.0983  157.9805 H   0  0  0  0  0  0  0  0  0  0  0  0
  152.3009  143.8027  157.1328 H   0  0  0  0  0  0  0  0  0  0  0  0
  149.8261  143.4008  155.9351 H   0  0  0  0  0  0  0  0  0  0  0  0
  150.1161  141.5873  154.1413 H   0  0  0  0  0  0  0  0  0  0  0  0
  149.7556  140.4837  155.4460 H   0  0  0  0  0  0  0  0  0  0  0  0
  147.8692  142.7597  154.7776 H   0  0  0  0  0  0  0  0  0  0  0  0
  147.3576  140.0512  156.0978 H   0  0  0  0  0  0  0  0  0  0  0  0
  146.1826  141.3517  155.9164 H   0  0  0  0  0  0  0  0  0  0  0  0
  147.5789  141.5741  156.9525 H   0  0  0  0  0  0  0  0  0  0  0  0
  146.6067  141.4502  153.2159 H   0  0  0  0  0  0  0  0  0  0  0  0
  148.2589  141.3847  152.6813 H   0  0  0  0  0  0  0  0  0  0  0  0
  147.1385  139.1720  154.4697 H   0  0  0  0  0  0  0  0  0  0  0  0
  146.7773  139.1881  152.7471 H   0  0  0  0  0  0  0  0  0  0  0  0
  149.0621  139.3104  152.4080 H   0  0  0  0  0  0  0  0  0  0  0  0
  150.8957  144.6096  161.7163 H   0  0  0  0  0  0  0  0  0  0  0  0
  150.0734  144.3833  160.1788 H   0  0  0  0  0  0  0  0  0  0  0  0
  151.4417  145.4952  160.2973 H   0  0  0  0  0  0  0  0  0  0  0  0
  1  2  1  0  0  0  0
  1 19  1  0  0  0  0
  1 20  1  0  0  0  0
  1 21  1  0  0  0  0
  2 17  1  0  0  0  0
  2  3  2  0  0  0  0
  3  4  1  0  0  0  0
  4  5  1  0  0  0  0
  4 15  1  0  0  0  0
  5  6  1  0  0  0  0
  5 22  1  0  0  0  0
  5 23  1  0  0  0  0
  6  7  2  0  0  0  0
  6  8  1  0  0  0  0
  8  9  1  0  0  0  0
  8 24  1  0  0  0  0
  9 10  1  0  0  0  0
  9 25  1  0  0  0  0
  9 26  1  0  0  0  0
 10 11  1  0  0  0  0
 10 12  1  0  0  0  0
 10 27  1  0  0  0  0
 11 28  1  0  0  0  0
 11 29  1  0  0  0  0
 11 30  1  0  0  0  0
 12 13  1  0  0  0  0
 12 31  1  0  0  0  0
 12 32  1  0  0  0  0
 13 14  1  0  0  0  0
 13 33  1  0  0  0  0
 13 34  1  0  0  0  0
 14 35  1  0  0  0  0
 15 16  1  0  0  0  0
 15 17  2  0  0  0  0
 16 36  1  0  0  0  0
 16 37  1  0  0  0  0
 16 38  1  0  0  0  0
 17 18  1  0  0  0  0
M  END
> <s_m_source_file>
AV-unprocessed.smi

> <i_m_source_file_index>
891

> <i_lp_mmshare_version>
43012

> <i_f3d_flags>
0

> <s_epik_input>
W0NIM11jMW5uKGMoW0NIM10pYzFDbClbQ0gyXUMoPU8pW05IXVtDSDJdW0NASF0oW0NIM10pW0NIMl1bQ0gyXVtPSF0=

> <s_epik_cmdline>
J2VwaWtfcHl0aG9uJywgJy1waCcsICc3LjAnLCAnLXRuJywgJzgnLCAnLW1hJywgJzIwMCcsICctbWV0YWxfYmluZGluZycsICctaW1hZScsICc8aW5maWxlLm1hZT4nLCAnLW9tYWUnLCAnPG91dGZpbGUubWFlPic=

> <r_lp_tautomer_probability>
1

> <r_epik_Ionization_Penalty>
4.9564e-06

> <r_epik_Ionization_Penalty_Charging>
0

> <r_epik_Ionization_Penalty_Neutral>
4.9564e-06

> <r_epik_State_Penalty>
-0

> <r_epik_Charging_Adjusted_Penalty>
0

> <i_epik_Tot_Q>
0

> <i_epik_Tot_abs_Q>
0

> <r_epik_Metal_State_Penalty>
-0

> <b_epik_Metal_Only>
0

> <s_lp_Force_Field>
OPLS_2005

> <r_lp_Energy>
6.31297

> <b_lp_Chiralities_Consistent>
1

> <s_lp_Variant>
AV-unprocessed.smi:891-1

> <Gold.Version>
5.8.1

> <Gold.Id.Protein>
6NUR|6NUR_protein|mol2

> <Gold.PLP.Fitness>
49.8901

> <Gold.PLP.PLP>
-45.2685

> <Gold.PLP.part.hbond>
-2.7816

> <Gold.PLP.part.metal>
0.0000

> <Gold.PLP.part.buried>
-4.8884

> <Gold.PLP.part.nonpolar>
-38.0599

> <Gold.PLP.part.repulsive>
0.1320

> <Gold.PLP.ligand.clash>
0.0000

> <Gold.PLP.ligand.torsion>
0.7400

> <Gold.PLP.Chemscore.Hbond>
2.0000

> <Gold.PLP.Chemscore.CHOScore>
0.0000

> <Gold.PLP.Chemscore.Metal>
0.0000

> <Gold.Chemscore.Hbonds>
donor molecule, donor type, donor heavy atom, donor atom, acceptor molecule, acceptor atom, score
      L1  H     8    24       P1  8028  1.00
      L1  H    14    35       P1  7957  1.00

> <Gold.PLP.Chemscore.Internal.Correction>
0.1016

> <Gold.Rescore>
     Score         DG    S(hbond)    S(metal)    S(lipo)     H(rot)  DE(clash)    DE(int)     intcor
     15.89     -18.28       1.98        0.00     110.21       2.62       0.08       2.30       ----

> <Gold.Chemscore.Fitness>
15.8940

> <Gold.Chemscore.DG>
-18.2774

> <Gold.Chemscore.ZeroCoef>
-5.4800

> <Gold.Chemscore.Hbond>
1.9825

> <Gold.Chemscore.Metal>
0.0000

> <Gold.Chemscore.Lipo>
110.2144

> <Gold.Chemscore.Internal_Hbond>
0.0000

> <Gold.Chemscore.DEClash>
0.0817

> <Gold.Chemscore.DEInternal>
2.3017

> <Gold.Chemscore.Rot>
2.6247

> <Gold.Chemscore.Internal.Correction>
   9.000000E+99

> <Gold.Chemscore.Hbonds>
donor molecule, donor type, donor heavy atom, donor atom, acceptor molecule, acceptor atom, score
      L1  H     8    24       P1  8028  0.99
      L1  H    14    35       P1  7957  0.93

> <Gold.Chemscore.Hbond.Weighted>
-6.6215

> <Gold.Chemscore.Metal.Weighted>
-0.0000

> <Gold.Chemscore.Lipo.Weighted>
-12.8951

> <Gold.Chemscore.Internal_Hbond.Weighted>
0.0000

> <Gold.Chemscore.DEClash.Weighted>
0.0817

> <Gold.Chemscore.DEInternal.Weighted>
2.3017

> <Gold.Chemscore.Rot.Weighted>
6.7192

> <Gold.Chemscore.Internal.Correction.Weighted>
   9.000000E+99

> <Gold.Protein.RotatedTorsions>
[ 6907 6896 6895 6894 ] final -151.80 input  -60.11 | X-H torsion
[ 7974 7965 7964 7962 ] final  -87.72 input  175.53 | X-H torsion
[ 8008 7997 7996 7995 ] final  167.60 input   59.86 | X-H torsion
[ 10167 10162 10161 10158 ] final  105.80 input  -65.29 | X-H torsion
[ 10718 10713 10712 10709 ] final  -49.73 input   66.30 | X-H torsion
[ 10763 10752 10751 10750 ] final -137.31 input  -60.55 | X-H torsion
[ 11005 11000 10999 10996 ] final   74.14 input  -57.11 | X-H torsion

> <Gold.Protein.ActiveResidues>
 VAL166  LYS551  ARG553  GLY616  TRP617  ASP618  TYR619  PRO620  LYS621  CYS622 
 ASP623  PHE694  ASN695  SER759  ASP760  ASP761  ALA762  ILE779  LEU786  VAL792 
 PHE793  MET794  SER795  GLU796  ALA797  LYS798  CYS799  TRP800  GLU811  SER814 

> <Gold.Protein.RotatedAtoms>
  151.2183  133.4516  159.2599 H   0  0  0  0  0  0  0  0  0  0  0  0  # atno 6907 bound_to 6896
  151.0909  134.9915  159.8412 H   0  0  0  0  0  0  0  0  0  0  0  0  # atno 6908 bound_to 6896
  152.5434  134.2117  159.8805 H   0  0  0  0  0  0  0  0  0  0  0  0  # atno 6909 bound_to 6896
  145.4627  140.9561  143.1960 H   0  0  0  0  0  0  0  0  0  0  0  0  # atno 7974 bound_to 7965
  156.1619  140.1612  156.8597 H   0  0  0  0  0  0  0  0  0  0  0  0  # atno 8008 bound_to 7997
  154.5169  140.0787  156.8134 H   0  0  0  0  0  0  0  0  0  0  0  0  # atno 8009 bound_to 7997
  155.3689  140.3399  155.4245 H   0  0  0  0  0  0  0  0  0  0  0  0  # atno 8010 bound_to 7997
  139.7063  144.7086  151.1102 H   0  0  0  0  0  0  0  0  0  0  0  0  # atno 10167 bound_to 10162
  156.1866  130.4151  149.9430 H   0  0  0  0  0  0  0  0  0  0  0  0  # atno 10718 bound_to 10713
  154.8664  135.3646  154.5202 H   0  0  0  0  0  0  0  0  0  0  0  0  # atno 10763 bound_to 10752
  153.5833  135.7017  153.5459 H   0  0  0  0  0  0  0  0  0  0  0  0  # atno 10764 bound_to 10752
  153.3438  135.4091  155.1555 H   0  0  0  0  0  0  0  0  0  0  0  0  # atno 10765 bound_to 10752
  139.9405  134.7407  156.1112 H   0  0  0  0  0  0  0  0  0  0  0  0  # atno 11005 bound_to 11000
  144.7993  139.6173  143.7079 LP  0  0  0  0  0  0  0  0  0  0  0  0  # atno 17320 bound_to 7965
  146.2442  139.6063  142.9471 LP  0  0  0  0  0  0  0  0  0  0  0  0  # atno 17321 bound_to 7965
  140.7722  143.5355  150.9374 LP  0  0  0  0  0  0  0  0  0  0  0  0  # atno 17342 bound_to 10162
  139.9038  143.6803  152.3127 LP  0  0  0  0  0  0  0  0  0  0  0  0  # atno 17343 bound_to 10162
  156.7184  130.8997  151.3616 LP  0  0  0  0  0  0  0  0  0  0  0  0  # atno 17370 bound_to 10713
  157.6903  130.9226  150.0495 LP  0  0  0  0  0  0  0  0  0  0  0  0  # atno 17371 bound_to 10713
  141.1038  133.6667  156.2815 LP  0  0  0  0  0  0  0  0  0  0  0  0  # atno 17394 bound_to 11000
  140.5964  134.5599  157.5509 LP  0  0  0  0  0  0  0  0  0  0  0  0  # atno 17395 bound_to 11000

$$$$
