AV-unprocessed.smi:2221|AV-procd|sdf|8984|dock2
  -GOLD-   2272012193D 1   1.00000     0.00000
 Structure written by MMmdl.
 53 54  0  0  0  0  0  0  0  0  2 V2000
  151.6954  145.0259  161.0324 C   0  0  0  0  0  0  0  0  0  0  0  0
  151.6842  143.7441  160.2263 C   0  0  0  0  0  0  0  0  0  0  0  0
  152.3976  142.6122  160.6641 C   0  0  0  0  0  0  0  0  0  0  0  0
  152.3462  141.4472  159.8739 C   0  0  0  0  0  0  0  0  0  0  0  0
  153.0901  140.1948  160.2868 C   0  0  0  0  0  0  0  0  0  0  0  0
  151.6421  141.3673  158.7245 N   0  0  0  0  0  0  0  0  0  0  0  0
  150.9513  142.4514  158.2931 C   0  0  0  0  0  0  0  0  0  0  0  0
  150.1819  142.4700  157.0994 N   0  0  0  0  0  0  0  0  0  0  0  0
  149.7844  141.4244  156.3535 C   0  0  0  0  0  0  0  0  0  0  0  0
  150.0482  140.2437  156.5805 O   0  0  0  0  0  0  0  0  0  0  0  0
  149.0328  141.8236  155.3170 N   0  0  0  0  0  0  0  0  0  0  0  0
  148.4252  140.9355  154.3279 C   0  0  0  0  0  0  0  0  0  0  0  0
  146.9864  141.3440  153.9395 C   0  0  0  0  0  0  0  0  0  0  0  0
  146.0740  140.1846  153.7664 N   0  3  2  0  0  0  0  0  0  0  0  0
  145.6121  139.6261  155.0615 C   0  0  0  0  0  0  0  0  0  0  0  0
  144.5657  138.5177  154.8469 C   0  0  0  0  0  0  0  0  0  0  0  0
  145.1026  137.3753  153.9502 C   0  0  2  0  0  0  0  0  0  0  0  0
  146.1265  136.5507  154.6227 N   0  0  0  0  0  0  0  0  0  0  0  0
  145.7195  136.1762  155.9758 C   0  0  0  0  0  0  0  0  0  0  0  0
  146.3906  135.3024  153.9105 C   0  0  0  0  0  0  0  0  0  0  0  0
  145.5952  138.0176  152.6301 C   0  0  0  0  0  0  0  0  0  0  0  0
  146.6270  139.1317  152.8772 C   0  0  0  0  0  0  0  0  0  0  0  0
  150.9524  143.6603  159.0245 C   0  0  0  0  0  0  0  0  0  0  0  0
  152.5554  145.0606  161.7017 H   0  0  0  0  0  0  0  0  0  0  0  0
  150.7888  145.0992  161.6335 H   0  0  0  0  0  0  0  0  0  0  0  0
  151.7436  145.8937  160.3740 H   0  0  0  0  0  0  0  0  0  0  0  0
  152.9686  142.6358  161.5809 H   0  0  0  0  0  0  0  0  0  0  0  0
  153.8528  140.4193  161.0330 H   0  0  0  0  0  0  0  0  0  0  0  0
  153.5824  139.7379  159.4276 H   0  0  0  0  0  0  0  0  0  0  0  0
  152.3973  139.4687  160.7126 H   0  0  0  0  0  0  0  0  0  0  0  0
  149.8871  143.3840  156.7889 H   0  0  0  0  0  0  0  0  0  0  0  0
  148.8749  142.8140  155.1980 H   0  0  0  0  0  0  0  0  0  0  0  0
  149.0638  140.9424  153.4447 H   0  0  0  0  0  0  0  0  0  0  0  0
  148.4369  139.9090  154.6976 H   0  0  0  0  0  0  0  0  0  0  0  0
  146.5752  142.0410  154.6709 H   0  0  0  0  0  0  0  0  0  0  0  0
  147.0360  141.8926  152.9982 H   0  0  0  0  0  0  0  0  0  0  0  0
  146.4652  139.2410  155.6223 H   0  0  0  0  0  0  0  0  0  0  0  0
  145.1689  140.4202  155.6638 H   0  0  0  0  0  0  0  0  0  0  0  0
  144.1870  138.1599  155.8024 H   0  0  0  0  0  0  0  0  0  0  0  0
  143.6965  138.9592  154.3572 H   0  0  0  0  0  0  0  0  0  0  0  0
  144.2690  136.7142  153.7077 H   0  0  0  0  0  0  0  0  0  0  0  0
  146.4446  135.4961  156.4247 H   0  0  0  0  0  0  0  0  0  0  0  0
  144.7482  135.6794  155.9750 H   0  0  0  0  0  0  0  0  0  0  0  0
  145.6679  137.0386  156.6380 H   0  0  0  0  0  0  0  0  0  0  0  0
  147.0706  134.6670  154.4797 H   0  0  0  0  0  0  0  0  0  0  0  0
  146.8785  135.4818  152.9538 H   0  0  0  0  0  0  0  0  0  0  0  0
  145.4713  134.7417  153.7356 H   0  0  0  0  0  0  0  0  0  0  0  0
  145.9818  137.2839  151.9248 H   0  0  0  0  0  0  0  0  0  0  0  0
  144.7361  138.4565  152.1209 H   0  0  0  0  0  0  0  0  0  0  0  0
  146.9114  139.5655  151.9188 H   0  0  0  0  0  0  0  0  0  0  0  0
  147.5349  138.7166  153.3177 H   0  0  0  0  0  0  0  0  0  0  0  0
  150.3967  144.5171  158.6711 H   0  0  0  0  0  0  0  0  0  0  0  0
  145.2479  140.5468  153.3120 H   0  0  0  0  0  0  0  0  0  0  0  0
  1  2  1  0  0  0  0
  1 24  1  0  0  0  0
  1 25  1  0  0  0  0
  1 26  1  0  0  0  0
  2 23  1  0  0  0  0
  2  3  2  0  0  0  0
  3  4  1  0  0  0  0
  3 27  1  0  0  0  0
  4  5  1  0  0  0  0
  4  6  2  0  0  0  0
  5 28  1  0  0  0  0
  5 29  1  0  0  0  0
  5 30  1  0  0  0  0
  6  7  1  0  0  0  0
  7  8  1  0  0  0  0
  7 23  2  0  0  0  0
  8  9  1  0  0  0  0
  8 31  1  0  0  0  0
  9 10  2  0  0  0  0
  9 11  1  0  0  0  0
 11 12  1  0  0  0  0
 11 32  1  0  0  0  0
 12 13  1  0  0  0  0
 12 33  1  0  0  0  0
 12 34  1  0  0  0  0
 13 14  1  0  0  0  0
 13 35  1  0  0  0  0
 13 36  1  0  0  0  0
 14 22  1  0  0  0  0
 14 15  1  0  0  0  0
 14 53  1  0  0  0  0
 15 16  1  0  0  0  0
 15 37  1  0  0  0  0
 15 38  1  0  0  0  0
 16 17  1  0  0  0  0
 16 39  1  0  0  0  0
 16 40  1  0  0  0  0
 17 18  1  0  0  0  0
 17 21  1  0  0  0  0
 17 41  1  0  0  0  0
 18 19  1  0  0  0  0
 18 20  1  0  0  0  0
 19 42  1  0  0  0  0
 19 43  1  0  0  0  0
 19 44  1  0  0  0  0
 20 45  1  0  0  0  0
 20 46  1  0  0  0  0
 20 47  1  0  0  0  0
 21 22  1  0  0  0  0
 21 48  1  0  0  0  0
 21 49  1  0  0  0  0
 22 50  1  0  0  0  0
 22 51  1  0  0  0  0
 23 52  1  0  0  0  0
M  CHG  1  14   1
M  END
> <s_m_source_file>
AV-unprocessed.smi

> <i_m_source_file_index>
2221

> <i_lp_mmshare_version>
43012

> <i_f3d_flags>
0

> <s_epik_input>
W0NIM11jMVtjSF1jKFtDSDNdKW5jKFtjSF0xKVtOSF1DKD1PKVtOSF1bQ0gyXVtDSDJdTjJbQ0gyXVtDSDJdW0NIXShOKFtDSDNdKVtDSDNdKVtDSDJdW0NIMl0y

> <s_epik_cmdline>
J2VwaWtfcHl0aG9uJywgJy1waCcsICc3LjAnLCAnLXRuJywgJzgnLCAnLW1hJywgJzIwMCcsICctbWV0YWxfYmluZGluZycsICctaW1hZScsICc8aW5maWxlLm1hZT4nLCAnLW9tYWUnLCAnPG91dGZpbGUubWFlPic=

> <r_epik_Ionization_Penalty>
1.32168

> <r_epik_Ionization_Penalty_Charging>
0.00219175

> <r_epik_Ionization_Penalty_Neutral>
1.31949

> <r_epik_State_Penalty>
1.51166

> <r_epik_Charging_Adjusted_Penalty>
1.51385

> <i_epik_Tot_Q>
1

> <i_epik_Tot_abs_Q>
1

> <r_epik_Metal_State_Penalty>
1.51167

> <b_epik_Metal_Only>
0

> <s_lp_Force_Field>
OPLS_2005

> <r_lp_Energy>
32.286

> <b_lp_Chiralities_Consistent>
1

> <s_lp_Variant>
AV-unprocessed.smi:2221-5

> <Gold.Version>
5.8.1

> <Gold.Id.Protein>
6NUR|6NUR_protein|mol2

> <Gold.PLP.Fitness>
53.5135

> <Gold.PLP.PLP>
-43.3546

> <Gold.PLP.part.hbond>
-3.0000

> <Gold.PLP.part.metal>
0.0000

> <Gold.PLP.part.buried>
-5.3769

> <Gold.PLP.part.nonpolar>
-36.3111

> <Gold.PLP.part.repulsive>
0.3701

> <Gold.PLP.ligand.clash>
0.0000

> <Gold.PLP.ligand.torsion>
0.7078

> <Gold.PLP.Chemscore.Hbond>
3.8480

> <Gold.PLP.Chemscore.CHOScore>
0.0000

> <Gold.PLP.Chemscore.Metal>
0.0000

> <Gold.Chemscore.Hbonds>
donor molecule, donor type, donor heavy atom, donor atom, acceptor molecule, acceptor atom, score
      L1  H     8    31       P1  8028  1.00
      L1  H    11    32       P1  8028  1.00
      L1  H    14    53       P1 10175  2.00

> <Gold.PLP.Chemscore.Internal.Correction>
0.0306

> <Gold.Rescore>
     Score         DG    S(hbond)    S(metal)    S(lipo)     H(rot)  DE(clash)    DE(int)     intcor
     20.49     -22.46       2.92        0.00      97.13       1.61       0.04       1.92       ----

> <Gold.Chemscore.Fitness>
20.4939

> <Gold.Chemscore.DG>
-22.4586

> <Gold.Chemscore.ZeroCoef>
-5.4800

> <Gold.Chemscore.Hbond>
2.9166

> <Gold.Chemscore.Metal>
0.0000

> <Gold.Chemscore.Lipo>
97.1251

> <Gold.Chemscore.Internal_Hbond>
0.0000

> <Gold.Chemscore.DEClash>
0.0402

> <Gold.Chemscore.DEInternal>
1.9244

> <Gold.Chemscore.Rot>
1.6119

> <Gold.Chemscore.Internal.Correction>
   9.000000E+99

> <Gold.Chemscore.Hbonds>
donor molecule, donor type, donor heavy atom, donor atom, acceptor molecule, acceptor atom, score
      L1  H     8    31       P1  8028  0.94
      L1  H    11    32       P1  8028  0.98
      L1  H    14    53       P1 10175  0.95

> <Gold.Chemscore.Hbond.Weighted>
-9.7413

> <Gold.Chemscore.Metal.Weighted>
-0.0000

> <Gold.Chemscore.Lipo.Weighted>
-11.3636

> <Gold.Chemscore.Internal_Hbond.Weighted>
0.0000

> <Gold.Chemscore.DEClash.Weighted>
0.0402

> <Gold.Chemscore.DEInternal.Weighted>
1.9244

> <Gold.Chemscore.Rot.Weighted>
4.1264

> <Gold.Chemscore.Internal.Correction.Weighted>
   9.000000E+99

> <Gold.Protein.RotatedTorsions>
[ 6907 6896 6895 6894 ] final -158.25 input  -60.11 | X-H torsion
[ 7974 7965 7964 7962 ] final -138.95 input  175.53 | X-H torsion
[ 8008 7997 7996 7995 ] final  -89.99 input   59.86 | X-H torsion
[ 10167 10162 10161 10158 ] final   25.52 input  -65.29 | X-H torsion
[ 10718 10713 10712 10709 ] final -136.63 input   66.30 | X-H torsion
[ 10763 10752 10751 10750 ] final  -25.45 input  -60.55 | X-H torsion
[ 11005 11000 10999 10996 ] final   -3.02 input  -57.11 | X-H torsion

> <Gold.Protein.ActiveResidues>
 VAL166  LYS551  ARG553  GLY616  TRP617  ASP618  TYR619  PRO620  LYS621  CYS622 
 ASP623  PHE694  ASN695  SER759  ASP760  ASP761  ALA762  ILE779  LEU786  VAL792 
 PHE793  MET794  SER795  GLU796  ALA797  LYS798  CYS799  TRP800  GLU811  SER814 

> <Gold.Protein.RotatedAtoms>
  151.3153  133.4063  159.2649 H   0  0  0  0  0  0  0  0  0  0  0  0  # atno 6907 bound_to 6896
  151.0079  134.9375  159.8001 H   0  0  0  0  0  0  0  0  0  0  0  0  # atno 6908 bound_to 6896
  152.5293  134.3118  159.9169 H   0  0  0  0  0  0  0  0  0  0  0  0  # atno 6909 bound_to 6896
  144.8716  140.6375  143.5263 H   0  0  0  0  0  0  0  0  0  0  0  0  # atno 7974 bound_to 7965
  154.6931  140.0535  157.0384 H   0  0  0  0  0  0  0  0  0  0  0  0  # atno 8008 bound_to 7997
  155.0788  140.3207  155.4589 H   0  0  0  0  0  0  0  0  0  0  0  0  # atno 8009 bound_to 7997
  156.2735  140.2068  156.5916 H   0  0  0  0  0  0  0  0  0  0  0  0  # atno 8010 bound_to 7997
  140.5100  144.0176  150.6368 H   0  0  0  0  0  0  0  0  0  0  0  0  # atno 10167 bound_to 10162
  156.2792  130.7310  151.1302 H   0  0  0  0  0  0  0  0  0  0  0  0  # atno 10718 bound_to 10713
  153.7000  135.6957  153.5066 H   0  0  0  0  0  0  0  0  0  0  0  0  # atno 10763 bound_to 10752
  153.2350  135.4325  155.0635 H   0  0  0  0  0  0  0  0  0  0  0  0  # atno 10764 bound_to 10752
  154.8347  135.3493  154.6539 H   0  0  0  0  0  0  0  0  0  0  0  0  # atno 10765 bound_to 10752
  140.6648  133.9288  155.8458 H   0  0  0  0  0  0  0  0  0  0  0  0  # atno 11005 bound_to 11000
  145.4120  139.1578  143.4121 LP  0  0  0  0  0  0  0  0  0  0  0  0  # atno 17320 bound_to 7965
  146.2934  140.4224  142.8731 LP  0  0  0  0  0  0  0  0  0  0  0  0  # atno 17321 bound_to 7965
  140.3496  143.2971  152.0501 LP  0  0  0  0  0  0  0  0  0  0  0  0  # atno 17342 bound_to 10162
  139.4893  144.6383  151.6929 LP  0  0  0  0  0  0  0  0  0  0  0  0  # atno 17343 bound_to 10162
  157.7309  131.0613  150.5705 LP  0  0  0  0  0  0  0  0  0  0  0  0  # atno 17370 bound_to 10713
  156.5809  130.4304  149.5978 LP  0  0  0  0  0  0  0  0  0  0  0  0  # atno 17371 bound_to 10713
  141.0437  134.0584  157.3870 LP  0  0  0  0  0  0  0  0  0  0  0  0  # atno 17394 bound_to 11000
  139.9001  135.0161  156.7225 LP  0  0  0  0  0  0  0  0  0  0  0  0  # atno 17395 bound_to 11000

$$$$
