AV-unprocessed.smi:2501|AV-procd|sdf|9843|dock10
  -GOLD-   2272013473D 1   1.00000     0.00000
 Structure written by MMmdl.
 43 44  0  0  0  0  0  0  0  0  1 V2000
  151.9046  144.3960  160.9874 C   0  0  0  0  0  0  0  0  0  0  0  0
  152.4021  143.0099  160.6172 C   0  0  0  0  0  0  0  0  0  0  0  0
  153.3835  142.3819  161.4151 C   0  0  0  0  0  0  0  0  0  0  0  0
  153.8798  141.1528  161.1608 N   0  0  0  0  0  0  0  0  0  0  0  0
  153.4082  140.4941  160.0823 C   0  0  0  0  0  0  0  0  0  0  0  0
  152.4305  141.0250  159.2188 C   0  0  0  0  0  0  0  0  0  0  0  0
  151.9115  142.3090  159.4873 C   0  0  0  0  0  0  0  0  0  0  0  0
  150.8560  142.8953  158.5628 C   0  0  0  0  0  0  0  0  0  0  0  0
  151.3618  143.0446  157.1212 C   0  0  0  0  0  0  0  0  0  0  0  0
  150.3991  142.4840  156.1826 N   0  0  0  0  0  0  0  0  0  0  0  0
  150.3365  141.1912  155.8246 C   0  0  0  0  0  0  0  0  0  0  0  0
  151.1082  140.3483  156.2842 O   0  0  0  0  0  0  0  0  0  0  0  0
  149.3620  140.8957  154.9270 N   0  0  0  0  0  0  0  0  0  0  0  0
  149.1988  139.6288  154.1957 C   0  0  0  0  0  0  0  0  0  0  0  0
  148.0008  138.8629  154.7892 C   0  0  0  0  0  0  0  0  0  0  0  0
  146.6987  139.7062  154.7816 C   0  0  0  0  0  0  0  0  0  0  0  0
  146.2757  139.8336  153.4350 O   0  0  0  0  0  0  0  0  0  0  0  0
  145.5572  138.9991  155.5511 C   0  0  0  0  0  0  0  0  0  0  0  0
  144.4775  139.7807  155.5922 F   0  0  0  0  0  0  0  0  0  0  0  0
  145.2203  137.8564  154.9514 F   0  0  0  0  0  0  0  0  0  0  0  0
  145.9294  138.7395  156.8056 F   0  0  0  0  0  0  0  0  0  0  0  0
  146.9605  141.1332  155.3292 C   0  0  0  0  0  0  0  0  0  0  0  0
  148.2127  141.7803  154.7059 C   0  0  0  0  0  0  0  0  0  0  0  0
  152.4706  144.8073  161.8238 H   0  0  0  0  0  0  0  0  0  0  0  0
  150.8550  144.3582  161.2795 H   0  0  0  0  0  0  0  0  0  0  0  0
  152.0075  145.0836  160.1482 H   0  0  0  0  0  0  0  0  0  0  0  0
  153.7840  142.8790  162.2864 H   0  0  0  0  0  0  0  0  0  0  0  0
  153.8229  139.5135  159.9009 H   0  0  0  0  0  0  0  0  0  0  0  0
  152.0887  140.4549  158.3674 H   0  0  0  0  0  0  0  0  0  0  0  0
  149.9791  142.2463  158.5780 H   0  0  0  0  0  0  0  0  0  0  0  0
  150.5175  143.8574  158.9478 H   0  0  0  0  0  0  0  0  0  0  0  0
  151.5359  144.0975  156.8948 H   0  0  0  0  0  0  0  0  0  0  0  0
  152.3153  142.5290  156.9996 H   0  0  0  0  0  0  0  0  0  0  0  0
  149.7342  143.1226  155.7711 H   0  0  0  0  0  0  0  0  0  0  0  0
  149.0203  139.8454  153.1415 H   0  0  0  0  0  0  0  0  0  0  0  0
  150.0848  138.9939  154.2070 H   0  0  0  0  0  0  0  0  0  0  0  0
  147.8526  137.9287  154.2463 H   0  0  0  0  0  0  0  0  0  0  0  0
  148.2459  138.5807  155.8138 H   0  0  0  0  0  0  0  0  0  0  0  0
  145.3524  140.0354  153.4297 H   0  0  0  0  0  0  0  0  0  0  0  0
  146.0915  141.7705  155.1608 H   0  0  0  0  0  0  0  0  0  0  0  0
  147.0966  141.0883  156.4104 H   0  0  0  0  0  0  0  0  0  0  0  0
  148.3608  142.7773  155.1231 H   0  0  0  0  0  0  0  0  0  0  0  0
  148.0694  141.9311  153.6350 H   0  0  0  0  0  0  0  0  0  0  0  0
  1  2  1  0  0  0  0
  1 24  1  0  0  0  0
  1 25  1  0  0  0  0
  1 26  1  0  0  0  0
  2  7  1  0  0  0  0
  2  3  2  0  0  0  0
  3  4  1  0  0  0  0
  3 27  1  0  0  0  0
  4  5  2  0  0  0  0
  5  6  1  0  0  0  0
  5 28  1  0  0  0  0
  6  7  2  0  0  0  0
  6 29  1  0  0  0  0
  7  8  1  0  0  0  0
  8  9  1  0  0  0  0
  8 30  1  0  0  0  0
  8 31  1  0  0  0  0
  9 10  1  0  0  0  0
  9 32  1  0  0  0  0
  9 33  1  0  0  0  0
 10 11  1  0  0  0  0
 10 34  1  0  0  0  0
 11 12  2  0  0  0  0
 11 13  1  0  0  0  0
 13 23  1  0  0  0  0
 13 14  1  0  0  0  0
 14 15  1  0  0  0  0
 14 35  1  0  0  0  0
 14 36  1  0  0  0  0
 15 16  1  0  0  0  0
 15 37  1  0  0  0  0
 15 38  1  0  0  0  0
 16 17  1  0  0  0  0
 16 18  1  0  0  0  0
 16 22  1  0  0  0  0
 17 39  1  0  0  0  0
 18 19  1  0  0  0  0
 18 20  1  0  0  0  0
 18 21  1  0  0  0  0
 22 23  1  0  0  0  0
 22 40  1  0  0  0  0
 22 41  1  0  0  0  0
 23 42  1  0  0  0  0
 23 43  1  0  0  0  0
M  END
> <s_m_source_file>
AV-unprocessed.smi

> <i_m_source_file_index>
2501

> <i_lp_mmshare_version>
43012

> <i_f3d_flags>
0

> <s_epik_input>
W0NIM11jMVtjSF1uW2NIXVtjSF1jMVtDSDJdW0NIMl1bTkhdQyg9TylOKFtDSDJdW0NIMl0yKVtDSDJdW0NIMl1DMihbT0hdKUMoRikoRilG

> <s_epik_cmdline>
J2VwaWtfcHl0aG9uJywgJy1waCcsICc3LjAnLCAnLXRuJywgJzgnLCAnLW1hJywgJzIwMCcsICctbWV0YWxfYmluZGluZycsICctaW1hZScsICc8aW5maWxlLm1hZT4nLCAnLW9tYWUnLCAnPG91dGZpbGUubWFlPic=

> <r_epik_Ionization_Penalty>
0.105852

> <r_epik_Ionization_Penalty_Charging>
0

> <r_epik_Ionization_Penalty_Neutral>
0.105852

> <r_epik_State_Penalty>
0.0956543

> <r_epik_Charging_Adjusted_Penalty>
0.0956543

> <i_epik_Tot_Q>
0

> <i_epik_Tot_abs_Q>
0

> <r_epik_Metal_State_Penalty>
0.0810448

> <b_epik_Metal_Only>
0

> <s_lp_Force_Field>
OPLS_2005

> <r_lp_Energy>
37.1862

> <b_lp_Chiralities_Consistent>
1

> <s_lp_Variant>
AV-unprocessed.smi:2501-1

> <Gold.Version>
5.8.1

> <Gold.Id.Protein>
6NUR|6NUR_protein|mol2

> <Gold.PLP.Fitness>
42.6460

> <Gold.PLP.PLP>
-38.7265

> <Gold.PLP.part.hbond>
-2.0000

> <Gold.PLP.part.metal>
0.0000

> <Gold.PLP.part.buried>
-5.1769

> <Gold.PLP.part.nonpolar>
-32.0118

> <Gold.PLP.part.repulsive>
0.1097

> <Gold.PLP.ligand.clash>
0.7015

> <Gold.PLP.ligand.torsion>
0.7187

> <Gold.PLP.Chemscore.Hbond>
2.0000

> <Gold.PLP.Chemscore.CHOScore>
0.0000

> <Gold.PLP.Chemscore.Metal>
0.0000

> <Gold.Chemscore.Hbonds>
donor molecule, donor type, donor heavy atom, donor atom, acceptor molecule, acceptor atom, score
      L1  H    10    34       P1  8028  1.00
      L1  H    17    39       P1 10175  1.00

> <Gold.PLP.Chemscore.Internal.Correction>
0.0584

> <Gold.Rescore>
     Score         DG    S(hbond)    S(metal)    S(lipo)     H(rot)  DE(clash)    DE(int)     intcor
     18.22     -19.18       1.94        0.00     104.48       1.95       0.36       0.60       ----

> <Gold.Chemscore.Fitness>
18.2192

> <Gold.Chemscore.DG>
-19.1817

> <Gold.Chemscore.ZeroCoef>
-5.4800

> <Gold.Chemscore.Hbond>
1.9364

> <Gold.Chemscore.Metal>
0.0000

> <Gold.Chemscore.Lipo>
104.4848

> <Gold.Chemscore.Internal_Hbond>
0.0000

> <Gold.Chemscore.DEClash>
0.3610

> <Gold.Chemscore.DEInternal>
0.6015

> <Gold.Chemscore.Rot>
1.9495

> <Gold.Chemscore.Internal.Correction>
   9.000000E+99

> <Gold.Chemscore.Hbonds>
donor molecule, donor type, donor heavy atom, donor atom, acceptor molecule, acceptor atom, score
      L1  H    10    34       P1  8028  0.97
      L1  H    17    39       P1 10175  0.93

> <Gold.Chemscore.Hbond.Weighted>
-6.4676

> <Gold.Chemscore.Metal.Weighted>
-0.0000

> <Gold.Chemscore.Lipo.Weighted>
-12.2247

> <Gold.Chemscore.Internal_Hbond.Weighted>
0.0000

> <Gold.Chemscore.DEClash.Weighted>
0.3610

> <Gold.Chemscore.DEInternal.Weighted>
0.6015

> <Gold.Chemscore.Rot.Weighted>
4.9907

> <Gold.Chemscore.Internal.Correction.Weighted>
   9.000000E+99

> <Gold.Protein.RotatedTorsions>
[ 6907 6896 6895 6894 ] final   65.69 input  -60.11 | X-H torsion
[ 7974 7965 7964 7962 ] final  128.63 input  175.53 | X-H torsion
[ 8008 7997 7996 7995 ] final  175.91 input   59.86 | X-H torsion
[ 10167 10162 10161 10158 ] final   28.08 input  -65.29 | X-H torsion
[ 10718 10713 10712 10709 ] final -128.88 input   66.30 | X-H torsion
[ 10763 10752 10751 10750 ] final  -36.59 input  -60.55 | X-H torsion
[ 11005 11000 10999 10996 ] final  176.17 input  -57.11 | X-H torsion

> <Gold.Protein.ActiveResidues>
 VAL166  LYS551  ARG553  GLY616  TRP617  ASP618  TYR619  PRO620  LYS621  CYS622 
 ASP623  PHE694  ASN695  SER759  ASP760  ASP761  ALA762  ILE779  LEU786  VAL792 
 PHE793  MET794  SER795  GLU796  ALA797  LYS798  CYS799  TRP800  GLU811  SER814 

> <Gold.Protein.RotatedAtoms>
  152.4426  134.5560  159.9880 H   0  0  0  0  0  0  0  0  0  0  0  0  # atno 6907 bound_to 6896
  151.5654  133.3391  159.2987 H   0  0  0  0  0  0  0  0  0  0  0  0  # atno 6908 bound_to 6896
  150.8335  134.7631  159.6937 H   0  0  0  0  0  0  0  0  0  0  0  0  # atno 6909 bound_to 6896
  145.0374  139.3993  143.5119 H   0  0  0  0  0  0  0  0  0  0  0  0  # atno 7974 bound_to 7965
  156.0821  140.1397  156.9699 H   0  0  0  0  0  0  0  0  0  0  0  0  # atno 8008 bound_to 7997
  154.4591  140.0950  156.6891 H   0  0  0  0  0  0  0  0  0  0  0  0  # atno 8009 bound_to 7997
  155.5059  140.3452  155.4381 H   0  0  0  0  0  0  0  0  0  0  0  0  # atno 8010 bound_to 7997
  140.4883  144.0507  150.6288 H   0  0  0  0  0  0  0  0  0  0  0  0  # atno 10167 bound_to 10162
  156.1993  130.6846  151.0519 H   0  0  0  0  0  0  0  0  0  0  0  0  # atno 10718 bound_to 10713
  153.8823  135.6820  153.4766 H   0  0  0  0  0  0  0  0  0  0  0  0  # atno 10763 bound_to 10752
  153.1227  135.4733  154.9219 H   0  0  0  0  0  0  0  0  0  0  0  0  # atno 10764 bound_to 10752
  154.7663  135.3225  154.8232 H   0  0  0  0  0  0  0  0  0  0  0  0  # atno 10765 bound_to 10752
  140.3702  134.7037  157.4387 H   0  0  0  0  0  0  0  0  0  0  0  0  # atno 11005 bound_to 11000
  146.3505  139.9957  142.8681 LP  0  0  0  0  0  0  0  0  0  0  0  0  # atno 17320 bound_to 7965
  145.1692  140.9712  143.4332 LP  0  0  0  0  0  0  0  0  0  0  0  0  # atno 17321 bound_to 7965
  140.3768  143.2824  152.0215 LP  0  0  0  0  0  0  0  0  0  0  0  0  # atno 17342 bound_to 10162
  139.4846  144.6186  151.7298 LP  0  0  0  0  0  0  0  0  0  0  0  0  # atno 17343 bound_to 10162
  157.6976  131.0788  150.6921 LP  0  0  0  0  0  0  0  0  0  0  0  0  # atno 17370 bound_to 10713
  156.6978  130.4614  149.5581 LP  0  0  0  0  0  0  0  0  0  0  0  0  # atno 17371 bound_to 10713
  140.0558  134.6066  155.8807 LP  0  0  0  0  0  0  0  0  0  0  0  0  # atno 17394 bound_to 11000
  141.1957  133.6588  156.5655 LP  0  0  0  0  0  0  0  0  0  0  0  0  # atno 17395 bound_to 11000

$$$$
