AV-unprocessed.smi:51|AV-procd|sdf|503|dock9
  -GOLD-   2262016373D 1   1.00000     0.00000
 Structure written by MMmdl.
 26 27  0  0  0  0  0  0  0  0  3 V2000
  153.5991  139.0801  157.8030 O   0  0  0  0  0  0  0  0  0  0  0  0
  153.3972  139.2516  159.0245 C   0  0  0  0  0  0  0  0  0  0  0  0
  152.7253  138.4962  159.7615 O   0  5  0  0  0  0  0  0  0  0  0  0
  154.0161  140.5085  159.6555 C   0  0  2  0  0  0  0  0  0  0  0  0
  154.8766  140.1837  160.8904 C   0  0  0  0  0  0  0  0  0  0  0  0
  153.9344  140.4313  162.0711 C   0  0  1  0  0  0  0  0  0  0  0  0
  154.6278  140.7317  163.2636 O   0  0  0  0  0  0  0  0  0  0  0  0
  153.0723  141.5985  161.5884 C   0  0  0  0  0  0  0  0  0  0  0  0
  152.9805  141.4155  160.1463 N   0  0  0  0  0  0  0  0  0  0  0  0
  152.2884  142.3235  159.3193 C   0  0  0  0  0  0  0  0  0  0  0  0
  152.1548  143.6903  159.6459 C   0  0  0  0  0  0  0  0  0  0  0  0
  151.4516  144.5057  158.7411 C   0  0  0  0  0  0  0  0  0  0  0  0
  150.9276  143.9793  157.6085 N   0  3  0  0  0  0  0  0  0  0  0  0
  151.0851  142.6725  157.3555 C   0  0  0  0  0  0  0  0  0  0  0  0
  151.7442  141.8467  158.1759 N   0  0  0  0  0  0  0  0  0  0  0  0
  154.6378  141.0099  158.9125 H   0  0  0  0  0  0  0  0  0  0  0  0
  155.2888  139.1734  160.8872 H   0  0  0  0  0  0  0  0  0  0  0  0
  155.7171  140.8782  160.9300 H   0  0  0  0  0  0  0  0  0  0  0  0
  153.3080  139.5525  162.2311 H   0  0  0  0  0  0  0  0  0  0  0  0
  154.7130  139.9362  163.7667 H   0  0  0  0  0  0  0  0  0  0  0  0
  152.0920  141.5940  162.0666 H   0  0  0  0  0  0  0  0  0  0  0  0
  153.5538  142.5559  161.7942 H   0  0  0  0  0  0  0  0  0  0  0  0
  152.5747  144.1160  160.5448 H   0  0  0  0  0  0  0  0  0  0  0  0
  151.2926  145.5640  158.8866 H   0  0  0  0  0  0  0  0  0  0  0  0
  150.6510  142.2983  156.4401 H   0  0  0  0  0  0  0  0  0  0  0  0
  150.4208  144.5803  156.9587 H   0  0  0  0  0  0  0  0  0  0  0  0
  1  2  2  0  0  0  0
  2  3  1  0  0  0  0
  2  4  1  0  0  0  0
  4  9  1  0  0  0  0
  4  5  1  0  0  0  0
  4 16  1  0  0  0  0
  5  6  1  0  0  0  0
  5 17  1  0  0  0  0
  5 18  1  0  0  0  0
  6  7  1  0  0  0  0
  6  8  1  0  0  0  0
  6 19  1  0  0  0  0
  7 20  1  0  0  0  0
  8  9  1  0  0  0  0
  8 21  1  0  0  0  0
  8 22  1  0  0  0  0
  9 10  1  0  0  0  0
 10 15  1  0  0  0  0
 10 11  2  0  0  0  0
 11 12  1  0  0  0  0
 11 23  1  0  0  0  0
 12 13  2  0  0  0  0
 12 24  1  0  0  0  0
 13 14  1  0  0  0  0
 13 26  1  0  0  0  0
 14 15  2  0  0  0  0
 14 25  1  0  0  0  0
M  CHG  1   3  -1
M  CHG  1  13   1
M  END
> <s_m_source_file>
AV-unprocessed.smi

> <i_m_source_file_index>
51

> <i_lp_mmshare_version>
43012

> <i_f3d_flags>
0

> <s_epik_input>
Tz1DKFtPSF0pW0NAQEhdMVtDSDJdW0NAQEhdKFtPSF0pW0NIMl1OMWMyW2NIXVtjSF1uW2NIXW4y

> <s_epik_cmdline>
J2VwaWtfcHl0aG9uJywgJy1waCcsICc3LjAnLCAnLXRuJywgJzgnLCAnLW1hJywgJzIwMCcsICctbWV0YWxfYmluZGluZycsICctaW1hZScsICc8aW5maWxlLm1hZT4nLCAnLW9tYWUnLCAnPG91dGZpbGUubWFlPic=

> <r_lp_tautomer_probability>
0.999336

> <r_epik_Ionization_Penalty>
0.688427

> <r_epik_Ionization_Penalty_Charging>
0.688427

> <r_epik_Ionization_Penalty_Neutral>
1.98379e-07

> <r_epik_State_Penalty>
0.709817

> <r_epik_Charging_Adjusted_Penalty>
1.39824

> <i_epik_Tot_Q>
0

> <i_epik_Tot_abs_Q>
2

> <r_epik_Metal_State_Penalty>
0.873261

> <b_epik_Metal_Only>
0

> <s_lp_Force_Field>
OPLS_2005

> <r_lp_Energy>
13.2296

> <b_lp_Chiralities_Consistent>
1

> <s_lp_Variant>
AV-unprocessed.smi:51-5

> <Gold.Version>
5.8.1

> <Gold.Id.Protein>
6NUR|6NUR_protein|mol2

> <Gold.PLP.Fitness>
45.4420

> <Gold.PLP.PLP>
-34.6584

> <Gold.PLP.part.hbond>
-3.0000

> <Gold.PLP.part.metal>
0.0000

> <Gold.PLP.part.buried>
-4.0037

> <Gold.PLP.part.nonpolar>
-27.9670

> <Gold.PLP.part.repulsive>
0.0298

> <Gold.PLP.ligand.clash>
0.0000

> <Gold.PLP.ligand.torsion>
0.6650

> <Gold.PLP.Chemscore.Hbond>
4.0000

> <Gold.PLP.Chemscore.CHOScore>
0.0000

> <Gold.PLP.Chemscore.Metal>
0.0000

> <Gold.Chemscore.Hbonds>
donor molecule, donor type, donor heavy atom, donor atom, acceptor molecule, acceptor atom, score
      L1  H    13    26       P1  8028  1.92
      P1  H  7997  8010       L1     1  2.00

> <Gold.PLP.Chemscore.Internal.Correction>
0.1136

> <Gold.Rescore>
     Score         DG    S(hbond)    S(metal)    S(lipo)     H(rot)  DE(clash)    DE(int)     intcor
     13.67     -14.34       1.97        0.00      56.80       1.70       0.37       0.30       ----

> <Gold.Chemscore.Fitness>
13.6703

> <Gold.Chemscore.DG>
-14.3399

> <Gold.Chemscore.ZeroCoef>
-5.4800

> <Gold.Chemscore.Hbond>
1.9674

> <Gold.Chemscore.Metal>
0.0000

> <Gold.Chemscore.Lipo>
56.8031

> <Gold.Chemscore.Internal_Hbond>
0.0000

> <Gold.Chemscore.DEClash>
0.3734

> <Gold.Chemscore.DEInternal>
0.2962

> <Gold.Chemscore.Rot>
1.7020

> <Gold.Chemscore.Internal.Correction>
   9.000000E+99

> <Gold.Chemscore.Hbonds>
donor molecule, donor type, donor heavy atom, donor atom, acceptor molecule, acceptor atom, score
      L1  H    13    26       P1  8028  0.71
      P1  H  7997  8010       L1     1  0.94

> <Gold.Chemscore.Hbond.Weighted>
-6.5711

> <Gold.Chemscore.Metal.Weighted>
-0.0000

> <Gold.Chemscore.Lipo.Weighted>
-6.6460

> <Gold.Chemscore.Internal_Hbond.Weighted>
0.0000

> <Gold.Chemscore.DEClash.Weighted>
0.3734

> <Gold.Chemscore.DEInternal.Weighted>
0.2962

> <Gold.Chemscore.Rot.Weighted>
4.3571

> <Gold.Chemscore.Internal.Correction.Weighted>
   9.000000E+99

> <Gold.Protein.RotatedTorsions>
[ 6907 6896 6895 6894 ] final  -10.13 input  -60.11 | X-H torsion
[ 7974 7965 7964 7962 ] final  -25.26 input  175.53 | X-H torsion
[ 8008 7997 7996 7995 ] final   29.30 input   59.86 | X-H torsion
[ 10167 10162 10161 10158 ] final   -1.38 input  -65.29 | X-H torsion
[ 10718 10713 10712 10709 ] final  167.75 input   66.30 | X-H torsion
[ 10763 10752 10751 10750 ] final -124.62 input  -60.55 | X-H torsion
[ 11005 11000 10999 10996 ] final  -51.84 input  -57.11 | X-H torsion

> <Gold.Protein.ActiveResidues>
 VAL166  LYS551  ARG553  GLY616  TRP617  ASP618  TYR619  PRO620  LYS621  CYS622 
 ASP623  PHE694  ASN695  SER759  ASP760  ASP761  ALA762  ILE779  LEU786  VAL792 
 PHE793  MET794  SER795  GLU796  ALA797  LYS798  CYS799  TRP800  GLU811  SER814 

> <Gold.Protein.RotatedAtoms>
  151.4068  135.0979  159.9572 H   0  0  0  0  0  0  0  0  0  0  0  0  # atno 6907 bound_to 6896
  152.5033  133.8835  159.7369 H   0  0  0  0  0  0  0  0  0  0  0  0  # atno 6908 bound_to 6896
  150.9321  133.6697  159.2837 H   0  0  0  0  0  0  0  0  0  0  0  0  # atno 6909 bound_to 6896
  146.1502  140.4863  142.8614 H   0  0  0  0  0  0  0  0  0  0  0  0  # atno 7974 bound_to 7965
  155.0724  140.3201  155.4626 H   0  0  0  0  0  0  0  0  0  0  0  0  # atno 8008 bound_to 7997
  156.2787  140.2109  156.5796 H   0  0  0  0  0  0  0  0  0  0  0  0  # atno 8009 bound_to 7997
  154.7044  140.0504  157.0477 H   0  0  0  0  0  0  0  0  0  0  0  0  # atno 8010 bound_to 7997
  140.6808  143.6782  150.8128 H   0  0  0  0  0  0  0  0  0  0  0  0  # atno 10167 bound_to 10162
  157.0470  131.0302  151.2694 H   0  0  0  0  0  0  0  0  0  0  0  0  # atno 10718 bound_to 10713
  154.8725  135.4057  154.3135 H   0  0  0  0  0  0  0  0  0  0  0  0  # atno 10763 bound_to 10752
  153.3975  135.7017  153.6455 H   0  0  0  0  0  0  0  0  0  0  0  0  # atno 10764 bound_to 10752
  153.5212  135.3687  155.2604 H   0  0  0  0  0  0  0  0  0  0  0  0  # atno 10765 bound_to 10752
  141.0893  133.6636  156.3937 H   0  0  0  0  0  0  0  0  0  0  0  0  # atno 11005 bound_to 11000
  144.7895  140.6003  143.6551 LP  0  0  0  0  0  0  0  0  0  0  0  0  # atno 17320 bound_to 7965
  145.4841  139.1493  143.3745 LP  0  0  0  0  0  0  0  0  0  0  0  0  # atno 17321 bound_to 7965
  140.0482  143.5277  152.2686 LP  0  0  0  0  0  0  0  0  0  0  0  0  # atno 17342 bound_to 10162
  139.6129  144.7613  151.2912 LP  0  0  0  0  0  0  0  0  0  0  0  0  # atno 17343 bound_to 10162
  157.5060  130.7909  149.7654 LP  0  0  0  0  0  0  0  0  0  0  0  0  # atno 17370 bound_to 10713
  156.0020  130.3875  150.2571 LP  0  0  0  0  0  0  0  0  0  0  0  0  # atno 17371 bound_to 10713
  140.5290  134.6231  157.5344 LP  0  0  0  0  0  0  0  0  0  0  0  0  # atno 17394 bound_to 11000
  139.9716  134.7284  156.0031 LP  0  0  0  0  0  0  0  0  0  0  0  0  # atno 17395 bound_to 11000

$$$$
