AV-unprocessed.smi:1809|AV-procd|sdf|7311|dock4
  -GOLD-   22720 8573D 1   1.00000     0.00000
 Structure written by MMmdl.
 40 42  0  0  0  0  0  0  0  0  2 V2000
  150.9788  142.2329  156.6536 C   0  0  0  0  0  0  0  0  0  0  0  0
  150.5975  141.0981  155.7657 C   0  0  0  0  0  0  0  0  0  0  0  0
  151.5011  140.2892  155.1993 N   0  0  0  0  0  0  0  0  0  0  0  0
  150.9104  139.3049  154.4191 N   0  0  0  0  0  0  0  0  0  0  0  0
  149.5739  139.4016  154.4197 C   0  0  0  0  0  0  0  0  0  0  0  0
  148.7194  138.5173  153.7090 N   0  0  0  0  0  0  0  0  0  0  0  0
  147.3753  138.4812  153.7080 C   0  0  0  0  0  0  0  0  0  0  0  0
  146.6418  139.2260  154.3586 O   0  0  0  0  0  0  0  0  0  0  0  0
  146.9143  137.5165  152.8987 N   0  0  0  0  0  0  0  0  0  0  0  0
  145.5070  137.1729  152.7130 C   0  0  0  0  0  0  0  0  0  0  0  0
  145.3067  135.7266  152.2216 C   0  0  2  0  0  0  0  0  0  0  0  0
  145.8686  135.4689  150.8063 C   0  0  0  0  0  0  0  0  0  0  0  0
  145.5071  134.1255  150.2975 N   0  3  1  0  0  0  0  0  0  0  0  0
  146.3355  132.9957  150.7729 C   0  0  0  0  0  0  0  0  0  0  0  0
  145.4174  131.7629  150.7841 C   0  0  0  0  0  0  0  0  0  0  0  0
  144.0694  132.2511  150.2422 C   0  0  0  0  0  0  0  0  0  0  0  0
  144.0889  133.7603  150.4887 C   0  0  1  0  0  0  0  0  0  0  0  0
  143.6017  134.1262  151.9080 C   0  0  0  0  0  0  0  0  0  0  0  0
  143.9051  135.4831  152.1974 O   0  0  0  0  0  0  0  0  0  0  0  0
  148.9226  140.7125  155.3887 S   0  0  0  0  0  0  0  0  0  0  0  0
  151.9365  142.6528  156.3444 H   0  0  0  0  0  0  0  0  0  0  0  0
  151.0633  141.8866  157.6838 H   0  0  0  0  0  0  0  0  0  0  0  0
  150.2242  143.0183  156.6079 H   0  0  0  0  0  0  0  0  0  0  0  0
  149.1884  137.8259  153.1426 H   0  0  0  0  0  0  0  0  0  0  0  0
  147.5878  136.9535  152.3998 H   0  0  0  0  0  0  0  0  0  0  0  0
  145.0175  137.2932  153.6798 H   0  0  0  0  0  0  0  0  0  0  0  0
  145.0181  137.8784  152.0388 H   0  0  0  0  0  0  0  0  0  0  0  0
  145.7733  135.0507  152.9402 H   0  0  0  0  0  0  0  0  0  0  0  0
  145.4574  136.2073  150.1168 H   0  0  0  0  0  0  0  0  0  0  0  0
  146.9523  135.5844  150.7792 H   0  0  0  0  0  0  0  0  0  0  0  0
  147.1912  132.8605  150.1110 H   0  0  0  0  0  0  0  0  0  0  0  0
  146.7192  133.1841  151.7765 H   0  0  0  0  0  0  0  0  0  0  0  0
  145.8199  130.9440  150.1870 H   0  0  0  0  0  0  0  0  0  0  0  0
  145.3020  131.3969  151.8050 H   0  0  0  0  0  0  0  0  0  0  0  0
  144.0202  132.0597  149.1695 H   0  0  0  0  0  0  0  0  0  0  0  0
  143.2184  131.7500  150.7051 H   0  0  0  0  0  0  0  0  0  0  0  0
  143.4778  134.2861  149.7539 H   0  0  0  0  0  0  0  0  0  0  0  0
  142.5230  133.9845  151.9787 H   0  0  0  0  0  0  0  0  0  0  0  0
  144.0509  133.4817  152.6655 H   0  0  0  0  0  0  0  0  0  0  0  0
  145.6521  134.1480  149.2979 H   0  0  0  0  0  0  0  0  0  0  0  0
  1  2  1  0  0  0  0
  1 21  1  0  0  0  0
  1 22  1  0  0  0  0
  1 23  1  0  0  0  0
  2 20  1  0  0  0  0
  2  3  2  0  0  0  0
  3  4  1  0  0  0  0
  4  5  2  0  0  0  0
  5  6  1  0  0  0  0
  5 20  1  0  0  0  0
  6  7  1  0  0  0  0
  6 24  1  0  0  0  0
  7  8  2  0  0  0  0
  7  9  1  0  0  0  0
  9 10  1  0  0  0  0
  9 25  1  0  0  0  0
 10 11  1  0  0  0  0
 10 26  1  0  0  0  0
 10 27  1  0  0  0  0
 11 19  1  0  0  0  0
 11 12  1  0  0  0  0
 11 28  1  0  0  0  0
 12 13  1  0  0  0  0
 12 29  1  0  0  0  0
 12 30  1  0  0  0  0
 13 17  1  0  0  0  0
 13 14  1  0  0  0  0
 13 40  1  0  0  0  0
 14 15  1  0  0  0  0
 14 31  1  0  0  0  0
 14 32  1  0  0  0  0
 15 16  1  0  0  0  0
 15 33  1  0  0  0  0
 15 34  1  0  0  0  0
 16 17  1  0  0  0  0
 16 35  1  0  0  0  0
 16 36  1  0  0  0  0
 17 18  1  0  0  0  0
 17 37  1  0  0  0  0
 18 19  1  0  0  0  0
 18 38  1  0  0  0  0
 18 39  1  0  0  0  0
M  CHG  1  13   1
M  END
> <s_m_source_file>
AV-unprocessed.smi

> <i_m_source_file_index>
1809

> <i_lp_mmshare_version>
43012

> <i_f3d_flags>
0

> <s_epik_input>
W0NIM11jMW5uYyhzMSlbTkhdQyg9TylbTkhdW0NIMl1bQ0BIXShbQ0gyXTIpT1tDSDJdW0NAQEhdKE4yMylbQ0gyXVtDSDJdW0NIMl0z

> <s_epik_cmdline>
J2VwaWtfcHl0aG9uJywgJy1waCcsICc3LjAnLCAnLXRuJywgJzgnLCAnLW1hJywgJzIwMCcsICctbWV0YWxfYmluZGluZycsICctaW1hZScsICc8aW5maWxlLm1hZT4nLCAnLW9tYWUnLCAnPG91dGZpbGUubWFlPic=

> <r_lp_tautomer_probability>
1

> <r_epik_Ionization_Penalty>
0.112474

> <r_epik_Ionization_Penalty_Charging>
0.108916

> <r_epik_Ionization_Penalty_Neutral>
0.00355844

> <r_epik_State_Penalty>
0.0565397

> <r_epik_Charging_Adjusted_Penalty>
0.165456

> <i_epik_Tot_Q>
1

> <i_epik_Tot_abs_Q>
1

> <r_epik_Metal_State_Penalty>
0.422831

> <b_epik_Metal_Only>
0

> <s_lp_Force_Field>
OPLS_2005

> <r_lp_Energy>
35.5904

> <b_lp_Chiralities_Consistent>
1

> <s_lp_Variant>
AV-unprocessed.smi:1809-3

> <Gold.Version>
5.8.1

> <Gold.Id.Protein>
6NUR|6NUR_protein|mol2

> <Gold.PLP.Fitness>
44.6292

> <Gold.PLP.PLP>
-36.1666

> <Gold.PLP.part.hbond>
-5.8693

> <Gold.PLP.part.metal>
0.0000

> <Gold.PLP.part.buried>
-5.9070

> <Gold.PLP.part.nonpolar>
-24.6254

> <Gold.PLP.part.repulsive>
0.5745

> <Gold.PLP.ligand.clash>
0.0000

> <Gold.PLP.ligand.torsion>
0.1856

> <Gold.PLP.Chemscore.Hbond>
2.9440

> <Gold.PLP.Chemscore.CHOScore>
0.0000

> <Gold.PLP.Chemscore.Metal>
0.0000

> <Gold.Chemscore.Hbonds>
donor molecule, donor type, donor heavy atom, donor atom, acceptor molecule, acceptor atom, score
      L1  H     6    24       P1  7948  0.94
      L1  H     9    25       P1  7948  1.00
      L1  H    13    40       P1  7921  1.00

> <Gold.PLP.Chemscore.Internal.Correction>
0.0017

> <Gold.Rescore>
     Score         DG    S(hbond)    S(metal)    S(lipo)     H(rot)  DE(clash)    DE(int)     intcor
     19.42     -21.07       2.90        0.00      79.85       1.34       0.24       1.41       ----

> <Gold.Chemscore.Fitness>
19.4178

> <Gold.Chemscore.DG>
-21.0707

> <Gold.Chemscore.ZeroCoef>
-5.4800

> <Gold.Chemscore.Hbond>
2.8972

> <Gold.Chemscore.Metal>
0.0000

> <Gold.Chemscore.Lipo>
79.8457

> <Gold.Chemscore.Internal_Hbond>
0.0000

> <Gold.Chemscore.DEClash>
0.2437

> <Gold.Chemscore.DEInternal>
1.4091

> <Gold.Chemscore.Rot>
1.3391

> <Gold.Chemscore.Internal.Correction>
   9.000000E+99

> <Gold.Chemscore.Hbonds>
donor molecule, donor type, donor heavy atom, donor atom, acceptor molecule, acceptor atom, score
      L1  H     6    24       P1  7948  0.84
      L1  H     9    25       P1  7948  0.99
      L1  H    13    40       P1  7921  0.70

> <Gold.Chemscore.Hbond.Weighted>
-9.6768

> <Gold.Chemscore.Metal.Weighted>
-0.0000

> <Gold.Chemscore.Lipo.Weighted>
-9.3419

> <Gold.Chemscore.Internal_Hbond.Weighted>
0.0000

> <Gold.Chemscore.DEClash.Weighted>
0.2437

> <Gold.Chemscore.DEInternal.Weighted>
1.4091

> <Gold.Chemscore.Rot.Weighted>
3.4281

> <Gold.Chemscore.Internal.Correction.Weighted>
   9.000000E+99

> <Gold.Protein.RotatedTorsions>
[ 6907 6896 6895 6894 ] final   56.84 input  -60.11 | X-H torsion
[ 7974 7965 7964 7962 ] final   82.32 input  175.53 | X-H torsion
[ 8008 7997 7996 7995 ] final  -65.15 input   59.86 | X-H torsion
[ 10167 10162 10161 10158 ] final  -21.88 input  -65.29 | X-H torsion
[ 10718 10713 10712 10709 ] final -109.81 input   66.30 | X-H torsion
[ 10763 10752 10751 10750 ] final -169.18 input  -60.55 | X-H torsion
[ 11005 11000 10999 10996 ] final  -69.84 input  -57.11 | X-H torsion

> <Gold.Protein.ActiveResidues>
 VAL166  LYS551  ARG553  GLY616  TRP617  ASP618  TYR619  PRO620  LYS621  CYS622 
 ASP623  PHE694  ASN695  SER759  ASP760  ASP761  ALA762  ILE779  LEU786  VAL792 
 PHE793  MET794  SER795  GLU796  ALA797  LYS798  CYS799  TRP800  GLU811  SER814 

> <Gold.Protein.RotatedAtoms>
  152.3674  134.6784  160.0187 H   0  0  0  0  0  0  0  0  0  0  0  0  # atno 6907 bound_to 6896
  151.7088  133.3306  159.3293 H   0  0  0  0  0  0  0  0  0  0  0  0  # atno 6908 bound_to 6896
  150.7648  134.6486  159.6320 H   0  0  0  0  0  0  0  0  0  0  0  0  # atno 6909 bound_to 6896
  145.6266  139.2396  143.2108 H   0  0  0  0  0  0  0  0  0  0  0  0  # atno 7974 bound_to 7965
  154.4654  140.0939  156.7006 H   0  0  0  0  0  0  0  0  0  0  0  0  # atno 8008 bound_to 7997
  155.4873  140.3469  155.4331 H   0  0  0  0  0  0  0  0  0  0  0  0  # atno 8009 bound_to 7997
  156.0947  140.1406  156.9535 H   0  0  0  0  0  0  0  0  0  0  0  0  # atno 8010 bound_to 7997
  140.7284  143.4587  151.0411 H   0  0  0  0  0  0  0  0  0  0  0  0  # atno 10167 bound_to 10162
  156.0557  130.5783  150.8151 H   0  0  0  0  0  0  0  0  0  0  0  0  # atno 10718 bound_to 10713
  154.6550  135.2917  154.9939 H   0  0  0  0  0  0  0  0  0  0  0  0  # atno 10763 bound_to 10752
  154.1018  135.6575  153.4873 H   0  0  0  0  0  0  0  0  0  0  0  0  # atno 10764 bound_to 10752
  153.0397  135.5244  154.7475 H   0  0  0  0  0  0  0  0  0  0  0  0  # atno 10765 bound_to 10752
  141.1562  133.6774  156.6660 H   0  0  0  0  0  0  0  0  0  0  0  0  # atno 11005 bound_to 11000
  146.1390  140.7084  142.9376 LP  0  0  0  0  0  0  0  0  0  0  0  0  # atno 17320 bound_to 7965
  144.7210  140.4372  143.7008 LP  0  0  0  0  0  0  0  0  0  0  0  0  # atno 17321 bound_to 7965
  139.8269  143.7743  152.3179 LP  0  0  0  0  0  0  0  0  0  0  0  0  # atno 17342 bound_to 10162
  139.7845  144.7432  151.0041 LP  0  0  0  0  0  0  0  0  0  0  0  0  # atno 17343 bound_to 10162
  157.5524  131.0944  150.9677 LP  0  0  0  0  0  0  0  0  0  0  0  0  # atno 17370 bound_to 10713
  156.9933  130.5572  149.5305 LP  0  0  0  0  0  0  0  0  0  0  0  0  # atno 17371 bound_to 10713
  140.3211  134.8007  157.4253 LP  0  0  0  0  0  0  0  0  0  0  0  0  # atno 17394 bound_to 11000
  140.1096  134.5363  155.8278 LP  0  0  0  0  0  0  0  0  0  0  0  0  # atno 17395 bound_to 11000

$$$$
