AV-unprocessed.smi:2528|AV-procd|sdf|9950|dock1
  -GOLD-   2272013593D 1   1.00000     0.00000
 Structure written by MMmdl.
 44 46  0  0  0  0  0  0  0  0  2 V2000
  146.5744  139.1554  154.4585 O   0  0  0  0  0  0  0  0  0  0  0  0
  147.2927  138.4759  153.7246 C   0  0  0  0  0  0  0  0  0  0  0  0
  146.8165  137.5447  152.8856 N   0  0  0  0  0  0  0  0  0  0  0  0
  145.4048  137.2156  152.7109 C   0  0  0  0  0  0  0  0  0  0  0  0
  145.1787  135.7654  152.2397 C   0  0  2  0  0  0  0  0  0  0  0  0
  145.9036  135.4375  150.9125 C   0  0  0  0  0  0  0  0  0  0  0  0
  145.5682  134.0751  150.4325 N   0  3  1  0  0  0  0  0  0  0  0  0
  146.2861  132.9970  151.1664 C   0  0  0  0  0  0  0  0  0  0  0  0
  145.9548  131.6117  150.5917 C   0  0  0  0  0  0  0  0  0  0  0  0
  144.4425  131.3638  150.6107 C   0  0  0  0  0  0  0  0  0  0  0  0
  143.7224  132.4814  149.8446 C   0  0  0  0  0  0  0  0  0  0  0  0
  144.0927  133.8866  150.3647 C   0  0  1  0  0  0  0  0  0  0  0  0
  143.4342  134.2479  151.7130 C   0  0  0  0  0  0  0  0  0  0  0  0
  143.7777  135.5845  152.0603 O   0  0  0  0  0  0  0  0  0  0  0  0
  148.6327  138.5576  153.6533 N   0  0  0  0  0  0  0  0  0  0  0  0
  149.5002  139.4031  154.3949 C   0  0  0  0  0  0  0  0  0  0  0  0
  150.7644  138.8479  154.6960 C   0  0  0  0  0  0  0  0  0  0  0  0
  151.6984  139.6074  155.4269 C   0  0  0  0  0  0  0  0  0  0  0  0
  151.3426  140.9033  155.8406 C   0  0  0  0  0  0  0  0  0  0  0  0
  150.0625  141.3795  155.5025 C   0  0  0  0  0  0  0  0  0  0  0  0
  149.1659  140.6532  154.8020 N   0  0  0  0  0  0  0  0  0  0  0  0
  147.4759  137.0361  152.3148 H   0  0  0  0  0  0  0  0  0  0  0  0
  144.8734  137.3934  153.6473 H   0  0  0  0  0  0  0  0  0  0  0  0
  144.9856  137.9108  151.9830 H   0  0  0  0  0  0  0  0  0  0  0  0
  145.5140  135.0888  153.0265 H   0  0  0  0  0  0  0  0  0  0  0  0
  145.6029  136.1540  150.1469 H   0  0  0  0  0  0  0  0  0  0  0  0
  146.9848  135.5348  151.0178 H   0  0  0  0  0  0  0  0  0  0  0  0
  147.3607  133.1696  151.0980 H   0  0  0  0  0  0  0  0  0  0  0  0
  146.0345  133.0194  152.2265 H   0  0  0  0  0  0  0  0  0  0  0  0
  146.3285  131.5371  149.5697 H   0  0  0  0  0  0  0  0  0  0  0  0
  146.4658  130.8385  151.1663 H   0  0  0  0  0  0  0  0  0  0  0  0
  144.2154  130.3960  150.1625 H   0  0  0  0  0  0  0  0  0  0  0  0
  144.0842  131.3205  151.6397 H   0  0  0  0  0  0  0  0  0  0  0  0
  143.9909  132.4121  148.7896 H   0  0  0  0  0  0  0  0  0  0  0  0
  142.6429  132.3333  149.8902 H   0  0  0  0  0  0  0  0  0  0  0  0
  143.7182  134.6024  149.6308 H   0  0  0  0  0  0  0  0  0  0  0  0
  142.3492  134.1818  151.6303 H   0  0  0  0  0  0  0  0  0  0  0  0
  143.7307  133.5645  152.5094 H   0  0  0  0  0  0  0  0  0  0  0  0
  149.0863  137.9461  152.9909 H   0  0  0  0  0  0  0  0  0  0  0  0
  151.0220  137.8505  154.3703 H   0  0  0  0  0  0  0  0  0  0  0  0
  152.6704  139.2016  155.6652 H   0  0  0  0  0  0  0  0  0  0  0  0
  152.0320  141.5164  156.4021 H   0  0  0  0  0  0  0  0  0  0  0  0
  149.7495  142.3684  155.8027 H   0  0  0  0  0  0  0  0  0  0  0  0
  145.9042  134.0181  149.4815 H   0  0  0  0  0  0  0  0  0  0  0  0
  1  2  2  0  0  0  0
  2  3  1  0  0  0  0
  2 15  1  0  0  0  0
  3  4  1  0  0  0  0
  3 22  1  0  0  0  0
  4  5  1  0  0  0  0
  4 23  1  0  0  0  0
  4 24  1  0  0  0  0
  5 14  1  0  0  0  0
  5  6  1  0  0  0  0
  5 25  1  0  0  0  0
  6  7  1  0  0  0  0
  6 26  1  0  0  0  0
  6 27  1  0  0  0  0
  7 12  1  0  0  0  0
  7  8  1  0  0  0  0
  7 44  1  0  0  0  0
  8  9  1  0  0  0  0
  8 28  1  0  0  0  0
  8 29  1  0  0  0  0
  9 10  1  0  0  0  0
  9 30  1  0  0  0  0
  9 31  1  0  0  0  0
 10 11  1  0  0  0  0
 10 32  1  0  0  0  0
 10 33  1  0  0  0  0
 11 12  1  0  0  0  0
 11 34  1  0  0  0  0
 11 35  1  0  0  0  0
 12 13  1  0  0  0  0
 12 36  1  0  0  0  0
 13 14  1  0  0  0  0
 13 37  1  0  0  0  0
 13 38  1  0  0  0  0
 15 16  1  0  0  0  0
 15 39  1  0  0  0  0
 16 21  1  0  0  0  0
 16 17  2  0  0  0  0
 17 18  1  0  0  0  0
 17 40  1  0  0  0  0
 18 19  2  0  0  0  0
 18 41  1  0  0  0  0
 19 20  1  0  0  0  0
 19 42  1  0  0  0  0
 20 21  2  0  0  0  0
 20 43  1  0  0  0  0
M  CHG  1   7   1
M  END
> <s_m_source_file>
AV-unprocessed.smi

> <i_m_source_file_index>
2528

> <i_lp_mmshare_version>
43012

> <i_f3d_flags>
0

> <s_epik_input>
bjFbY0hdW2NIXVtjSF1bY0hdYzFbTkhdQyg9TylbTkhdW0NIMl1bQ0BIXShbQ0gyXTIpT1tDSDJdW0NAQEhdKE4yMylbQ0gyXVtDSDJdW0NIMl1bQ0gyXTM=

> <s_epik_cmdline>
J2VwaWtfcHl0aG9uJywgJy1waCcsICc3LjAnLCAnLXRuJywgJzgnLCAnLW1hJywgJzIwMCcsICctbWV0YWxfYmluZGluZycsICctaW1hZScsICc8aW5maWxlLm1hZT4nLCAnLW9tYWUnLCAnPG91dGZpbGUubWFlPic=

> <r_epik_Ionization_Penalty>
0.0932337

> <r_epik_Ionization_Penalty_Charging>
0.0931942

> <r_epik_Ionization_Penalty_Neutral>
3.9565e-05

> <r_epik_State_Penalty>
0.0834605

> <r_epik_Charging_Adjusted_Penalty>
0.176655

> <i_epik_Tot_Q>
1

> <i_epik_Tot_abs_Q>
1

> <r_epik_Metal_State_Penalty>
0.0834607

> <b_epik_Metal_Only>
0

> <s_lp_Force_Field>
OPLS_2005

> <r_lp_Energy>
27.0469

> <b_lp_Chiralities_Consistent>
1

> <s_lp_Variant>
AV-unprocessed.smi:2528-3

> <Gold.Version>
5.8.1

> <Gold.Id.Protein>
6NUR|6NUR_protein|mol2

> <Gold.PLP.Fitness>
49.0546

> <Gold.PLP.PLP>
-37.9705

> <Gold.PLP.part.hbond>
-3.8336

> <Gold.PLP.part.metal>
0.0000

> <Gold.PLP.part.buried>
-3.5746

> <Gold.PLP.part.nonpolar>
-32.1089

> <Gold.PLP.part.repulsive>
0.4999

> <Gold.PLP.ligand.clash>
0.0000

> <Gold.PLP.ligand.torsion>
0.4120

> <Gold.PLP.Chemscore.Hbond>
2.9675

> <Gold.PLP.Chemscore.CHOScore>
1.0000

> <Gold.PLP.Chemscore.Metal>
0.0000

> <Gold.Chemscore.Hbonds>
donor molecule, donor type, donor heavy atom, donor atom, acceptor molecule, acceptor atom, score
      L1  H     3    22       P1  7948  1.00
      L1  H     7    44       P1  7921  1.00
      L1  H    15    39       P1  7948  0.96
      L1  C    20    43       P1  8028  1.00

> <Gold.PLP.Chemscore.Internal.Correction>
0.0057

> <Gold.Rescore>
     Score         DG    S(hbond)    S(metal)    S(lipo)     H(rot)  DE(clash)    DE(int)     intcor
     20.37     -22.02       2.51        0.00      98.01       1.29       0.16       1.49       ----

> <Gold.Chemscore.Fitness>
20.3715

> <Gold.Chemscore.DG>
-22.0230

> <Gold.Chemscore.ZeroCoef>
-5.4800

> <Gold.Chemscore.Hbond>
2.5062

> <Gold.Chemscore.Metal>
0.0000

> <Gold.Chemscore.Lipo>
98.0082

> <Gold.Chemscore.Internal_Hbond>
0.0000

> <Gold.Chemscore.DEClash>
0.1636

> <Gold.Chemscore.DEInternal>
1.4879

> <Gold.Chemscore.Rot>
1.2870

> <Gold.Chemscore.Internal.Correction>
   9.000000E+99

> <Gold.Chemscore.Hbonds>
donor molecule, donor type, donor heavy atom, donor atom, acceptor molecule, acceptor atom, score
      L1  H     3    22       P1  7948  1.00
      L1  H     7    44       P1  7921  0.27
      L1  H    15    39       P1  7948  0.86

> <Gold.Chemscore.Hbond.Weighted>
-8.3709

> <Gold.Chemscore.Metal.Weighted>
-0.0000

> <Gold.Chemscore.Lipo.Weighted>
-11.4670

> <Gold.Chemscore.Internal_Hbond.Weighted>
0.0000

> <Gold.Chemscore.DEClash.Weighted>
0.1636

> <Gold.Chemscore.DEInternal.Weighted>
1.4879

> <Gold.Chemscore.Rot.Weighted>
3.2948

> <Gold.Chemscore.Internal.Correction.Weighted>
   9.000000E+99

> <Gold.Protein.RotatedTorsions>
[ 6907 6896 6895 6894 ] final -178.25 input  -60.11 | X-H torsion
[ 7974 7965 7964 7962 ] final  -46.70 input  175.53 | X-H torsion
[ 8008 7997 7996 7995 ] final  126.35 input   59.86 | X-H torsion
[ 10167 10162 10161 10158 ] final  -17.97 input  -65.29 | X-H torsion
[ 10718 10713 10712 10709 ] final  -12.02 input   66.30 | X-H torsion
[ 10763 10752 10751 10750 ] final   64.20 input  -60.55 | X-H torsion
[ 11005 11000 10999 10996 ] final  -83.18 input  -57.11 | X-H torsion

> <Gold.Protein.ActiveResidues>
 VAL166  LYS551  ARG553  GLY616  TRP617  ASP618  TYR619  PRO620  LYS621  CYS622 
 ASP623  PHE694  ASN695  SER759  ASP760  ASP761  ALA762  ILE779  LEU786  VAL792 
 PHE793  MET794  SER795  GLU796  ALA797  LYS798  CYS799  TRP800  GLU811  SER814 

> <Gold.Protein.RotatedAtoms>
  151.6342  133.3330  159.3115 H   0  0  0  0  0  0  0  0  0  0  0  0  # atno 6907 bound_to 6896
  150.8040  134.7157  159.6639 H   0  0  0  0  0  0  0  0  0  0  0  0  # atno 6908 bound_to 6896
  152.4135  134.6087  160.0071 H   0  0  0  0  0  0  0  0  0  0  0  0  # atno 6909 bound_to 6896
  145.9692  140.7400  142.9419 H   0  0  0  0  0  0  0  0  0  0  0  0  # atno 7974 bound_to 7965
  156.2861  140.2695  156.2096 H   0  0  0  0  0  0  0  0  0  0  0  0  # atno 8008 bound_to 7997
  155.0277  140.0386  157.2480 H   0  0  0  0  0  0  0  0  0  0  0  0  # atno 8009 bound_to 7997
  154.7381  140.2719  155.6402 H   0  0  0  0  0  0  0  0  0  0  0  0  # atno 8010 bound_to 7997
  140.7253  143.4962  150.9927 H   0  0  0  0  0  0  0  0  0  0  0  0  # atno 10167 bound_to 10162
  156.6506  130.4954  149.6063 H   0  0  0  0  0  0  0  0  0  0  0  0  # atno 10718 bound_to 10713
  153.0046  135.5401  154.6473 H   0  0  0  0  0  0  0  0  0  0  0  0  # atno 10763 bound_to 10752
  154.5713  135.2842  155.0826 H   0  0  0  0  0  0  0  0  0  0  0  0  # atno 10764 bound_to 10752
  154.1991  135.6487  153.5134 H   0  0  0  0  0  0  0  0  0  0  0  0  # atno 10765 bound_to 10752
  141.1659  133.7281  156.8681 H   0  0  0  0  0  0  0  0  0  0  0  0  # atno 11005 bound_to 11000
  144.6833  140.2721  143.7304 LP  0  0  0  0  0  0  0  0  0  0  0  0  # atno 17320 bound_to 7965
  145.7930  139.1934  143.2092 LP  0  0  0  0  0  0  0  0  0  0  0  0  # atno 17321 bound_to 7965
  139.8669  143.7242  152.3169 LP  0  0  0  0  0  0  0  0  0  0  0  0  # atno 17342 bound_to 10162
  139.7477  144.7542  151.0554 LP  0  0  0  0  0  0  0  0  0  0  0  0  # atno 17343 bound_to 10162
  156.2087  130.6665  151.1246 LP  0  0  0  0  0  0  0  0  0  0  0  0  # atno 17370 bound_to 10713
  157.7142  131.0718  150.6389 LP  0  0  0  0  0  0  0  0  0  0  0  0  # atno 17371 bound_to 10713
  140.1801  134.9039  157.2938 LP  0  0  0  0  0  0  0  0  0  0  0  0  # atno 17394 bound_to 11000
  140.2405  134.3801  155.7483 LP  0  0  0  0  0  0  0  0  0  0  0  0  # atno 17395 bound_to 11000

$$$$
