AV-unprocessed.smi:1796|AV-procd|sdf|7251|dock8
  -GOLD-   22720 8503D 1   1.00000     0.00000
 Structure written by MMmdl.
 42 43  0  0  0  0  0  0  0  0  1 V2000
  146.5793  142.3680  157.4876 C   0  0  0  0  0  0  0  0  0  0  0  0
  146.2814  142.1347  156.0042 C   0  0  0  0  0  0  0  0  0  0  0  0
  145.1090  142.1947  155.6336 O   0  0  0  0  0  0  0  0  0  0  0  0
  147.3043  141.8691  155.1568 N   0  0  0  0  0  0  0  0  0  0  0  0
  147.1024  141.5584  153.7357 C   0  0  0  0  0  0  0  0  0  0  0  0
  147.4448  140.0764  153.4937 C   0  0  0  0  0  0  0  0  0  0  0  0
  148.8737  139.7511  153.9700 C   0  0  0  0  0  0  0  0  0  0  0  0
  149.1092  140.2328  155.4192 C   0  0  1  0  0  0  0  0  0  0  0  0
  150.5631  140.0222  155.8558 C   0  0  0  0  0  0  0  0  0  0  0  0
  151.4065  139.6492  155.0401 O   0  0  0  0  0  0  0  0  0  0  0  0
  150.8453  140.3082  157.1369 N   0  0  0  0  0  0  0  0  0  0  0  0
  152.1836  140.3622  157.7238 C   0  0  2  0  0  0  0  0  0  0  0  0
  152.7361  138.9371  157.8600 C   0  0  0  0  0  0  0  0  0  0  0  0
  152.1348  141.0861  159.0859 C   0  0  0  0  0  0  0  0  0  0  0  0
  151.9343  142.5190  158.9499 N   0  0  0  0  0  0  0  0  0  0  0  0
  152.2425  143.5151  159.8532 C   0  0  0  0  0  0  0  0  0  0  0  0
  151.8450  144.6996  159.3031 C   0  0  0  0  0  0  0  0  0  0  0  0
  151.3045  144.3212  158.0423 C   0  0  0  0  0  0  0  0  0  0  0  0
  151.3614  143.0156  157.8328 N   0  0  0  0  0  0  0  0  0  0  0  0
  148.7113  141.7204  155.5493 C   0  0  0  0  0  0  0  0  0  0  0  0
  147.0822  141.5042  157.9232 H   0  0  0  0  0  0  0  0  0  0  0  0
  145.6553  142.5302  158.0438 H   0  0  0  0  0  0  0  0  0  0  0  0
  147.2072  143.2493  157.6219 H   0  0  0  0  0  0  0  0  0  0  0  0
  146.0856  141.7631  153.3981 H   0  0  0  0  0  0  0  0  0  0  0  0
  147.7495  142.1962  153.1319 H   0  0  0  0  0  0  0  0  0  0  0  0
  146.7309  139.4478  154.0275 H   0  0  0  0  0  0  0  0  0  0  0  0
  147.3396  139.8340  152.4358 H   0  0  0  0  0  0  0  0  0  0  0  0
  149.0535  138.6781  153.8925 H   0  0  0  0  0  0  0  0  0  0  0  0
  149.5865  140.2320  153.2982 H   0  0  0  0  0  0  0  0  0  0  0  0
  148.4645  139.6511  156.0814 H   0  0  0  0  0  0  0  0  0  0  0  0
  150.0808  140.5922  157.7321 H   0  0  0  0  0  0  0  0  0  0  0  0
  152.8622  140.9109  157.0683 H   0  0  0  0  0  0  0  0  0  0  0  0
  153.7431  138.9466  158.2782 H   0  0  0  0  0  0  0  0  0  0  0  0
  152.7881  138.4414  156.8901 H   0  0  0  0  0  0  0  0  0  0  0  0
  152.1104  138.3281  158.5134 H   0  0  0  0  0  0  0  0  0  0  0  0
  151.3315  140.6821  159.7037 H   0  0  0  0  0  0  0  0  0  0  0  0
  153.0630  140.9206  159.6350 H   0  0  0  0  0  0  0  0  0  0  0  0
  152.7031  143.2990  160.8059 H   0  0  0  0  0  0  0  0  0  0  0  0
  151.9260  145.6855  159.7362 H   0  0  0  0  0  0  0  0  0  0  0  0
  150.8748  144.9524  157.2785 H   0  0  0  0  0  0  0  0  0  0  0  0
  149.3243  142.3382  154.8907 H   0  0  0  0  0  0  0  0  0  0  0  0
  148.9212  142.0826  156.5551 H   0  0  0  0  0  0  0  0  0  0  0  0
  1  2  1  0  0  0  0
  1 21  1  0  0  0  0
  1 22  1  0  0  0  0
  1 23  1  0  0  0  0
  2  3  2  0  0  0  0
  2  4  1  0  0  0  0
  4 20  1  0  0  0  0
  4  5  1  0  0  0  0
  5  6  1  0  0  0  0
  5 24  1  0  0  0  0
  5 25  1  0  0  0  0
  6  7  1  0  0  0  0
  6 26  1  0  0  0  0
  6 27  1  0  0  0  0
  7  8  1  0  0  0  0
  7 28  1  0  0  0  0
  7 29  1  0  0  0  0
  8  9  1  0  0  0  0
  8 20  1  0  0  0  0
  8 30  1  0  0  0  0
  9 10  2  0  0  0  0
  9 11  1  0  0  0  0
 11 12  1  0  0  0  0
 11 31  1  0  0  0  0
 12 13  1  0  0  0  0
 12 14  1  0  0  0  0
 12 32  1  0  0  0  0
 13 33  1  0  0  0  0
 13 34  1  0  0  0  0
 13 35  1  0  0  0  0
 14 15  1  0  0  0  0
 14 36  1  0  0  0  0
 14 37  1  0  0  0  0
 15 19  1  0  0  0  0
 15 16  1  0  0  0  0
 16 17  2  0  0  0  0
 16 38  1  0  0  0  0
 17 18  1  0  0  0  0
 17 39  1  0  0  0  0
 18 19  2  0  0  0  0
 18 40  1  0  0  0  0
 20 41  1  0  0  0  0
 20 42  1  0  0  0  0
M  END
> <s_m_source_file>
AV-unprocessed.smi

> <i_m_source_file_index>
1796

> <i_lp_mmshare_version>
43012

> <i_f3d_flags>
0

> <s_epik_input>
W0NIM11DKD1PKU4xW0NIMl1bQ0gyXVtDSDJdW0NASF0oW0NIMl0xKUMoPU8pW05IXVtDQEhdKFtDSDNdKVtDSDJdbjJbY0hdW2NIXVtjSF1uMg==

> <s_epik_cmdline>
J2VwaWtfcHl0aG9uJywgJy1waCcsICc3LjAnLCAnLXRuJywgJzgnLCAnLW1hJywgJzIwMCcsICctbWV0YWxfYmluZGluZycsICctaW1hZScsICc8aW5maWxlLm1hZT4nLCAnLW9tYWUnLCAnPG91dGZpbGUubWFlPic=

> <r_lp_tautomer_probability>
1

> <r_epik_Ionization_Penalty>
0.000315051

> <r_epik_Ionization_Penalty_Charging>
0

> <r_epik_Ionization_Penalty_Neutral>
0.000315051

> <r_epik_State_Penalty>
-0

> <r_epik_Charging_Adjusted_Penalty>
0

> <i_epik_Tot_Q>
0

> <i_epik_Tot_abs_Q>
0

> <r_epik_Metal_State_Penalty>
-0

> <b_epik_Metal_Only>
0

> <s_lp_Force_Field>
OPLS_2005

> <r_lp_Energy>
23.171

> <b_lp_Chiralities_Consistent>
1

> <s_lp_Variant>
AV-unprocessed.smi:1796-1

> <Gold.Version>
5.8.1

> <Gold.Id.Protein>
6NUR|6NUR_protein|mol2

> <Gold.PLP.Fitness>
40.7333

> <Gold.PLP.PLP>
-35.9736

> <Gold.PLP.part.hbond>
-1.0000

> <Gold.PLP.part.metal>
0.0000

> <Gold.PLP.part.buried>
-0.5892

> <Gold.PLP.part.nonpolar>
-34.6951

> <Gold.PLP.part.repulsive>
0.3165

> <Gold.PLP.ligand.clash>
0.0000

> <Gold.PLP.ligand.torsion>
0.6369

> <Gold.PLP.Chemscore.Hbond>
1.0000

> <Gold.PLP.Chemscore.CHOScore>
1.0000

> <Gold.PLP.Chemscore.Metal>
0.0000

> <Gold.Chemscore.Hbonds>
donor molecule, donor type, donor heavy atom, donor atom, acceptor molecule, acceptor atom, score
      P1  H  7989  7998       L1    10  1.00
      L1  C    18    40       P1  8028  1.00

> <Gold.PLP.Chemscore.Internal.Correction>
0.0334

> <Gold.Rescore>
     Score         DG    S(hbond)    S(metal)    S(lipo)     H(rot)  DE(clash)    DE(int)     intcor
     11.74     -14.75       0.95        0.00      87.79       1.63       1.12       1.89       ----

> <Gold.Chemscore.Fitness>
11.7367

> <Gold.Chemscore.DG>
-14.7485

> <Gold.Chemscore.ZeroCoef>
-5.4800

> <Gold.Chemscore.Hbond>
0.9518

> <Gold.Chemscore.Metal>
0.0000

> <Gold.Chemscore.Lipo>
87.7917

> <Gold.Chemscore.Internal_Hbond>
0.0000

> <Gold.Chemscore.DEClash>
1.1169

> <Gold.Chemscore.DEInternal>
1.8948

> <Gold.Chemscore.Rot>
1.6336

> <Gold.Chemscore.Internal.Correction>
   9.000000E+99

> <Gold.Chemscore.Hbonds>
donor molecule, donor type, donor heavy atom, donor atom, acceptor molecule, acceptor atom, score
      P1  H  7989  7998       L1    10  0.88

> <Gold.Chemscore.Hbond.Weighted>
-3.1790

> <Gold.Chemscore.Metal.Weighted>
-0.0000

> <Gold.Chemscore.Lipo.Weighted>
-10.2716

> <Gold.Chemscore.Internal_Hbond.Weighted>
0.0000

> <Gold.Chemscore.DEClash.Weighted>
1.1169

> <Gold.Chemscore.DEInternal.Weighted>
1.8948

> <Gold.Chemscore.Rot.Weighted>
4.1821

> <Gold.Chemscore.Internal.Correction.Weighted>
   9.000000E+99

> <Gold.Protein.RotatedTorsions>
[ 6907 6896 6895 6894 ] final  115.21 input  -60.11 | X-H torsion
[ 7974 7965 7964 7962 ] final   36.71 input  175.53 | X-H torsion
[ 8008 7997 7996 7995 ] final  130.75 input   59.86 | X-H torsion
[ 10167 10162 10161 10158 ] final  130.60 input  -65.29 | X-H torsion
[ 10718 10713 10712 10709 ] final   80.65 input   66.30 | X-H torsion
[ 10763 10752 10751 10750 ] final  -76.23 input  -60.55 | X-H torsion
[ 11005 11000 10999 10996 ] final -157.07 input  -57.11 | X-H torsion

> <Gold.Protein.ActiveResidues>
 VAL166  LYS551  ARG553  GLY616  TRP617  ASP618  TYR619  PRO620  LYS621  CYS622 
 ASP623  PHE694  ASN695  SER759  ASP760  ASP761  ALA762  ILE779  LEU786  VAL792 
 PHE793  MET794  SER795  GLU796  ALA797  LYS798  CYS799  TRP800  GLU811  SER814 

> <Gold.Protein.RotatedAtoms>
  152.4755  133.8129  159.7012 H   0  0  0  0  0  0  0  0  0  0  0  0  # atno 6907 bound_to 6896
  150.8770  133.7415  159.2950 H   0  0  0  0  0  0  0  0  0  0  0  0  # atno 6908 bound_to 6896
  151.4932  135.1062  159.9861 H   0  0  0  0  0  0  0  0  0  0  0  0  # atno 6909 bound_to 6896
  146.1191  139.5983  142.9301 H   0  0  0  0  0  0  0  0  0  0  0  0  # atno 7974 bound_to 7965
  156.2959  140.2588  156.2814 H   0  0  0  0  0  0  0  0  0  0  0  0  # atno 8008 bound_to 7997
  154.9599  140.0393  157.2203 H   0  0  0  0  0  0  0  0  0  0  0  0  # atno 8009 bound_to 7997
  154.7957  140.2819  155.5963 H   0  0  0  0  0  0  0  0  0  0  0  0  # atno 8010 bound_to 7997
  139.5422  144.6741  151.4587 H   0  0  0  0  0  0  0  0  0  0  0  0  # atno 10167 bound_to 10162
  157.6812  130.9969  150.2111 H   0  0  0  0  0  0  0  0  0  0  0  0  # atno 10718 bound_to 10713
  154.4971  135.5804  153.6503 H   0  0  0  0  0  0  0  0  0  0  0  0  # atno 10763 bound_to 10752
  152.9872  135.6126  154.3050 H   0  0  0  0  0  0  0  0  0  0  0  0  # atno 10764 bound_to 10752
  154.2955  135.2848  155.2614 H   0  0  0  0  0  0  0  0  0  0  0  0  # atno 10765 bound_to 10752
  140.6686  134.4271  157.5232 H   0  0  0  0  0  0  0  0  0  0  0  0  # atno 11005 bound_to 11000
  145.5504  141.0414  143.2281 LP  0  0  0  0  0  0  0  0  0  0  0  0  # atno 17320 bound_to 7965
  144.7580  139.7026  143.7246 LP  0  0  0  0  0  0  0  0  0  0  0  0  # atno 17321 bound_to 7965
  140.6657  143.8403  150.6939 LP  0  0  0  0  0  0  0  0  0  0  0  0  # atno 17342 bound_to 10162
  140.1812  143.4113  152.1932 LP  0  0  0  0  0  0  0  0  0  0  0  0  # atno 17343 bound_to 10162
  156.2782  130.3730  149.7962 LP  0  0  0  0  0  0  0  0  0  0  0  0  # atno 17370 bound_to 10713
  156.5659  130.8403  151.3342 LP  0  0  0  0  0  0  0  0  0  0  0  0  # atno 17371 bound_to 10713
  139.8989  134.8603  156.1983 LP  0  0  0  0  0  0  0  0  0  0  0  0  # atno 17394 bound_to 11000
  141.0409  133.6938  156.1597 LP  0  0  0  0  0  0  0  0  0  0  0  0  # atno 17395 bound_to 11000

$$$$
