AV-unprocessed.smi:2148|AV-procd|sdf|8749|dock10
  -GOLD-   2272011523D 1   1.00000     0.00000
 Structure written by MMmdl.
 44 45  0  0  0  0  0  0  0  0  1 V2000
  149.0070  132.3293  154.0727 C   0  0  0  0  0  0  0  0  0  0  0  0
  149.1236  134.1351  154.1839 S   0  0  0  0  0  0  0  0  0  0  0  0
  150.0204  134.3204  155.7546 C   0  0  1  0  0  0  0  0  0  0  0  0
  150.9964  133.1503  155.9787 C   0  0  0  0  0  0  0  0  0  0  0  0
  150.7124  135.6889  155.8364 C   0  0  0  0  0  0  0  0  0  0  0  0
  151.5113  136.0345  154.9657 O   0  0  0  0  0  0  0  0  0  0  0  0
  150.3940  136.4297  156.9148 N   0  0  0  0  0  0  0  0  0  0  0  0
  150.8564  137.7233  157.2793 C   0  0  0  0  0  0  0  0  0  0  0  0
  151.7811  138.4859  156.5266 C   0  0  0  0  0  0  0  0  0  0  0  0
  152.1479  139.7633  156.9913 C   0  0  0  0  0  0  0  0  0  0  0  0
  151.5741  140.2427  158.1910 C   0  0  0  0  0  0  0  0  0  0  0  0
  151.8994  141.5031  158.7089 N   0  0  0  0  0  0  0  0  0  0  0  0
  152.2893  141.4681  160.1106 C   0  0  0  0  0  0  0  0  0  0  0  0
  152.8058  142.8511  160.5476 C   0  0  2  0  0  0  0  0  0  0  0  0
  153.1178  142.8975  162.0471 C   0  0  0  0  0  0  0  0  0  0  0  0
  151.8130  143.8404  160.2708 O   0  0  0  0  0  0  0  0  0  0  0  0
  151.3967  143.9097  158.9038 C   0  0  1  0  0  0  0  0  0  0  0  0
  152.4821  144.5159  157.9961 C   0  0  0  0  0  0  0  0  0  0  0  0
  150.9017  142.5282  158.4321 C   0  0  0  0  0  0  0  0  0  0  0  0
  150.6783  139.5271  158.9037 N   0  0  0  0  0  0  0  0  0  0  0  0
  150.3307  138.3036  158.4521 C   0  0  0  0  0  0  0  0  0  0  0  0
  148.4544  132.0463  153.1770 H   0  0  0  0  0  0  0  0  0  0  0  0
  148.4846  131.9263  154.9405 H   0  0  0  0  0  0  0  0  0  0  0  0
  149.9976  131.8787  154.0207 H   0  0  0  0  0  0  0  0  0  0  0  0
  149.2802  134.2979  156.5557 H   0  0  0  0  0  0  0  0  0  0  0  0
  151.5679  133.2789  156.8988 H   0  0  0  0  0  0  0  0  0  0  0  0
  151.7050  133.0584  155.1546 H   0  0  0  0  0  0  0  0  0  0  0  0
  150.4647  132.2029  156.0625 H   0  0  0  0  0  0  0  0  0  0  0  0
  149.7784  135.9885  157.5825 H   0  0  0  0  0  0  0  0  0  0  0  0
  152.2049  138.1285  155.6014 H   0  0  0  0  0  0  0  0  0  0  0  0
  152.8521  140.3602  156.4307 H   0  0  0  0  0  0  0  0  0  0  0  0
  151.4338  141.1771  160.7219 H   0  0  0  0  0  0  0  0  0  0  0  0
  153.0636  140.7141  160.2591 H   0  0  0  0  0  0  0  0  0  0  0  0
  153.7210  143.0884  160.0048 H   0  0  0  0  0  0  0  0  0  0  0  0
  153.8843  142.1682  162.3104 H   0  0  0  0  0  0  0  0  0  0  0  0
  152.2303  142.6806  162.6422 H   0  0  0  0  0  0  0  0  0  0  0  0
  153.4824  143.8826  162.3389 H   0  0  0  0  0  0  0  0  0  0  0  0
  150.5470  144.5928  158.8785 H   0  0  0  0  0  0  0  0  0  0  0  0
  152.0989  144.6691  156.9870 H   0  0  0  0  0  0  0  0  0  0  0  0
  153.3592  143.8746  157.9136 H   0  0  0  0  0  0  0  0  0  0  0  0
  152.8094  145.4843  158.3748 H   0  0  0  0  0  0  0  0  0  0  0  0
  150.6710  142.5493  157.3661 H   0  0  0  0  0  0  0  0  0  0  0  0
  149.9761  142.2807  158.9534 H   0  0  0  0  0  0  0  0  0  0  0  0
  149.6103  137.7675  159.0529 H   0  0  0  0  0  0  0  0  0  0  0  0
  1  2  1  0  0  0  0
  1 22  1  0  0  0  0
  1 23  1  0  0  0  0
  1 24  1  0  0  0  0
  2  3  1  0  0  0  0
  3  4  1  0  0  0  0
  3  5  1  0  0  0  0
  3 25  1  0  0  0  0
  4 26  1  0  0  0  0
  4 27  1  0  0  0  0
  4 28  1  0  0  0  0
  5  6  2  0  0  0  0
  5  7  1  0  0  0  0
  7  8  1  0  0  0  0
  7 29  1  0  0  0  0
  8 21  1  0  0  0  0
  8  9  2  0  0  0  0
  9 10  1  0  0  0  0
  9 30  1  0  0  0  0
 10 11  2  0  0  0  0
 10 31  1  0  0  0  0
 11 12  1  0  0  0  0
 11 20  1  0  0  0  0
 12 19  1  0  0  0  0
 12 13  1  0  0  0  0
 13 14  1  0  0  0  0
 13 32  1  0  0  0  0
 13 33  1  0  0  0  0
 14 15  1  0  0  0  0
 14 16  1  0  0  0  0
 14 34  1  0  0  0  0
 15 35  1  0  0  0  0
 15 36  1  0  0  0  0
 15 37  1  0  0  0  0
 16 17  1  0  0  0  0
 17 18  1  0  0  0  0
 17 19  1  0  0  0  0
 17 38  1  0  0  0  0
 18 39  1  0  0  0  0
 18 40  1  0  0  0  0
 18 41  1  0  0  0  0
 19 42  1  0  0  0  0
 19 43  1  0  0  0  0
 20 21  2  0  0  0  0
 21 44  1  0  0  0  0
M  END
> <s_m_source_file>
AV-unprocessed.smi

> <i_m_source_file_index>
2148

> <i_lp_mmshare_version>
43012

> <i_f3d_flags>
0

> <s_epik_input>
W0NIM11TW0NASF0oW0NIM10pQyg9TylbTkhdYzFbY0hdW2NIXWMobltjSF0xKU4yW0NIMl1bQ0BASF0oW0NIM10pT1tDQEBIXShbQ0gzXSlbQ0gyXTI=

> <s_epik_cmdline>
J2VwaWtfcHl0aG9uJywgJy1waCcsICc3LjAnLCAnLXRuJywgJzgnLCAnLW1hJywgJzIwMCcsICctbWV0YWxfYmluZGluZycsICctaW1hZScsICc8aW5maWxlLm1hZT4nLCAnLW9tYWUnLCAnPG91dGZpbGUubWFlPic=

> <r_lp_tautomer_probability>
1

> <r_epik_Ionization_Penalty>
0.000646494

> <r_epik_Ionization_Penalty_Charging>
0

> <r_epik_Ionization_Penalty_Neutral>
0.000646494

> <r_epik_State_Penalty>
0.000408447

> <r_epik_Charging_Adjusted_Penalty>
0.000408447

> <i_epik_Tot_Q>
0

> <i_epik_Tot_abs_Q>
0

> <r_epik_Metal_State_Penalty>
-0

> <b_epik_Metal_Only>
0

> <s_lp_Force_Field>
OPLS_2005

> <r_lp_Energy>
27.0114

> <b_lp_Chiralities_Consistent>
1

> <s_lp_Variant>
AV-unprocessed.smi:2148-4

> <Gold.Version>
5.8.1

> <Gold.Id.Protein>
6NUR|6NUR_protein|mol2

> <Gold.PLP.Fitness>
39.2256

> <Gold.PLP.PLP>
-37.5069

> <Gold.PLP.part.hbond>
-1.1082

> <Gold.PLP.part.metal>
0.0000

> <Gold.PLP.part.buried>
-4.3113

> <Gold.PLP.part.nonpolar>
-31.5703

> <Gold.PLP.part.repulsive>
0.2796

> <Gold.PLP.ligand.clash>
0.0000

> <Gold.PLP.ligand.torsion>
0.7161

> <Gold.PLP.Chemscore.Hbond>
1.0000

> <Gold.PLP.Chemscore.CHOScore>
0.0000

> <Gold.PLP.Chemscore.Metal>
0.0000

> <Gold.Chemscore.Hbonds>
donor molecule, donor type, donor heavy atom, donor atom, acceptor molecule, acceptor atom, score
      P1  H 10752 10765       L1     6  1.00

> <Gold.PLP.Chemscore.Internal.Correction>
0.1508

> <Gold.Rescore>
     Score         DG    S(hbond)    S(metal)    S(lipo)     H(rot)  DE(clash)    DE(int)     intcor
     15.70     -17.61       1.00        0.00     102.86       1.27       0.01       1.89       ----

> <Gold.Chemscore.Fitness>
15.7014

> <Gold.Chemscore.DG>
-17.6104

> <Gold.Chemscore.ZeroCoef>
-5.4800

> <Gold.Chemscore.Hbond>
0.9989

> <Gold.Chemscore.Metal>
0.0000

> <Gold.Chemscore.Lipo>
102.8594

> <Gold.Chemscore.Internal_Hbond>
0.0000

> <Gold.Chemscore.DEClash>
0.0147

> <Gold.Chemscore.DEInternal>
1.8943

> <Gold.Chemscore.Rot>
1.2659

> <Gold.Chemscore.Internal.Correction>
   9.000000E+99

> <Gold.Chemscore.Hbonds>
donor molecule, donor type, donor heavy atom, donor atom, acceptor molecule, acceptor atom, score
      P1  H 10752 10765       L1     6  0.94

> <Gold.Chemscore.Hbond.Weighted>
-3.3365

> <Gold.Chemscore.Metal.Weighted>
-0.0000

> <Gold.Chemscore.Lipo.Weighted>
-12.0346

> <Gold.Chemscore.Internal_Hbond.Weighted>
0.0000

> <Gold.Chemscore.DEClash.Weighted>
0.0147

> <Gold.Chemscore.DEInternal.Weighted>
1.8943

> <Gold.Chemscore.Rot.Weighted>
3.2406

> <Gold.Chemscore.Internal.Correction.Weighted>
   9.000000E+99

> <Gold.Protein.RotatedTorsions>
[ 6907 6896 6895 6894 ] final   21.89 input  -60.11 | X-H torsion
[ 7974 7965 7964 7962 ] final   42.94 input  175.53 | X-H torsion
[ 8008 7997 7996 7995 ] final    1.09 input   59.86 | X-H torsion
[ 10167 10162 10161 10158 ] final  171.44 input  -65.29 | X-H torsion
[ 10718 10713 10712 10709 ] final -179.94 input   66.30 | X-H torsion
[ 10763 10752 10751 10750 ] final  174.53 input  -60.55 | X-H torsion
[ 11005 11000 10999 10996 ] final  154.34 input  -57.11 | X-H torsion

> <Gold.Protein.ActiveResidues>
 VAL166  LYS551  ARG553  GLY616  TRP617  ASP618  TYR619  PRO620  LYS621  CYS622 
 ASP623  PHE694  ASN695  SER759  ASP760  ASP761  ALA762  ILE779  LEU786  VAL792 
 PHE793  MET794  SER795  GLU796  ALA797  LYS798  CYS799  TRP800  GLU811  SER814 

> <Gold.Protein.RotatedAtoms>
  151.9188  135.0307  160.0520 H   0  0  0  0  0  0  0  0  0  0  0  0  # atno 6907 bound_to 6896
  152.2217  133.4984  159.5174 H   0  0  0  0  0  0  0  0  0  0  0  0  # atno 6908 bound_to 6896
  150.7001  134.1250  159.4091 H   0  0  0  0  0  0  0  0  0  0  0  0  # atno 6909 bound_to 6896
  146.0698  139.5243  142.9605 H   0  0  0  0  0  0  0  0  0  0  0  0  # atno 7974 bound_to 7965
  154.6757  140.2621  155.6961 H   0  0  0  0  0  0  0  0  0  0  0  0  # atno 8008 bound_to 7997
  156.2677  140.2820  156.1204 H   0  0  0  0  0  0  0  0  0  0  0  0  # atno 8009 bound_to 7997
  155.1104  140.0375  157.2712 H   0  0  0  0  0  0  0  0  0  0  0  0  # atno 8010 bound_to 7997
  139.5046  144.3486  151.9946 H   0  0  0  0  0  0  0  0  0  0  0  0  # atno 10167 bound_to 10162
  156.8666  130.9769  151.3078 H   0  0  0  0  0  0  0  0  0  0  0  0  # atno 10718 bound_to 10713
  154.4552  135.2766  155.1752 H   0  0  0  0  0  0  0  0  0  0  0  0  # atno 10763 bound_to 10752
  154.3563  135.6139  153.5671 H   0  0  0  0  0  0  0  0  0  0  0  0  # atno 10764 bound_to 10752
  152.9850  135.5823  154.4904 H   0  0  0  0  0  0  0  0  0  0  0  0  # atno 10765 bound_to 10752
  140.1480  134.8694  157.2417 H   0  0  0  0  0  0  0  0  0  0  0  0  # atno 11005 bound_to 11000
  145.6412  141.0284  143.1811 LP  0  0  0  0  0  0  0  0  0  0  0  0  # atno 17320 bound_to 7965
  144.7225  139.7984  143.7377 LP  0  0  0  0  0  0  0  0  0  0  0  0  # atno 17321 bound_to 7965
  140.2923  144.3740  150.6085 LP  0  0  0  0  0  0  0  0  0  0  0  0  # atno 17342 bound_to 10162
  140.5937  143.2167  151.7204 LP  0  0  0  0  0  0  0  0  0  0  0  0  # atno 17343 bound_to 10162
  157.6220  130.8662  149.9125 LP  0  0  0  0  0  0  0  0  0  0  0  0  # atno 17370 bound_to 10713
  156.0749  130.3680  150.0699 LP  0  0  0  0  0  0  0  0  0  0  0  0  # atno 17371 bound_to 10713
  140.2640  134.3538  155.7396 LP  0  0  0  0  0  0  0  0  0  0  0  0  # atno 17394 bound_to 11000
  141.2195  133.7385  156.9122 LP  0  0  0  0  0  0  0  0  0  0  0  0  # atno 17395 bound_to 11000

$$$$
