AV-unprocessed.smi:1071|AV-procd|sdf|4680|dock10
  -GOLD-   22720 3193D 1   1.00000     0.00000
 Structure written by MMmdl.
 47 48  0  0  0  0  0  0  0  0  2 V2000
  154.2777  129.6999  154.2221 C   0  0  0  0  0  0  0  0  0  0  0  0
  153.6514  129.4745  155.4727 O   0  0  0  0  0  0  0  0  0  0  0  0
  152.4008  128.8192  155.3434 C   0  0  0  0  0  0  0  0  0  0  0  0
  151.3970  129.7808  154.7011 C   0  0  0  0  0  0  0  0  0  0  0  0
  150.0803  129.3831  155.0718 O   0  0  0  0  0  0  0  0  0  0  0  0
  149.0101  130.0768  154.5448 C   0  0  0  0  0  0  0  0  0  0  0  0
  149.2544  131.3084  153.9053 C   0  0  0  0  0  0  0  0  0  0  0  0
  148.1665  132.0205  153.3665 C   0  0  0  0  0  0  0  0  0  0  0  0
  146.8702  131.4774  153.4711 C   0  0  0  0  0  0  0  0  0  0  0  0
  145.7848  132.2230  152.9385 N   0  0  0  0  0  0  0  0  0  0  0  0
  145.8283  133.2703  152.0925 C   0  0  0  0  0  0  0  0  0  0  0  0
  146.8610  133.8775  151.8114 O   0  0  0  0  0  0  0  0  0  0  0  0
  144.5948  133.6873  151.7167 N   0  0  0  0  0  0  0  0  0  0  0  0
  143.5511  132.6990  151.4064 C   0  0  0  0  0  0  0  0  0  0  0  0
  143.5928  132.3757  149.8986 C   0  0  0  0  0  0  0  0  0  0  0  0
  143.4677  133.6057  149.0732 N   0  3  2  0  0  0  0  0  0  0  0  0
  143.5280  133.3226  147.6237 C   0  0  0  0  0  0  0  0  0  0  0  0
  144.4013  134.6886  149.4802 C   0  0  0  0  0  0  0  0  0  0  0  0
  144.3204  134.9483  150.9990 C   0  0  2  0  0  0  0  0  0  0  0  0
  145.1746  136.1546  151.4432 C   0  0  0  0  0  0  0  0  0  0  0  0
  146.7264  130.2388  154.1422 C   0  0  0  0  0  0  0  0  0  0  0  0
  147.7651  129.5534  154.6647 N   0  0  0  0  0  0  0  0  0  0  0  0
  155.2273  130.2126  154.3754 H   0  0  0  0  0  0  0  0  0  0  0  0
  153.6583  130.3245  153.5771 H   0  0  0  0  0  0  0  0  0  0  0  0
  154.4816  128.7594  153.7086 H   0  0  0  0  0  0  0  0  0  0  0  0
  152.5096  127.9268  154.7251 H   0  0  0  0  0  0  0  0  0  0  0  0
  152.0391  128.5015  156.3226 H   0  0  0  0  0  0  0  0  0  0  0  0
  151.5978  130.7993  155.0375 H   0  0  0  0  0  0  0  0  0  0  0  0
  151.5073  129.7545  153.6157 H   0  0  0  0  0  0  0  0  0  0  0  0
  150.2579  131.7005  153.8311 H   0  0  0  0  0  0  0  0  0  0  0  0
  148.3299  132.9693  152.8763 H   0  0  0  0  0  0  0  0  0  0  0  0
  144.8664  131.9272  153.2355 H   0  0  0  0  0  0  0  0  0  0  0  0
  143.6560  131.7762  151.9788 H   0  0  0  0  0  0  0  0  0  0  0  0
  142.5742  133.1013  151.6787 H   0  0  0  0  0  0  0  0  0  0  0  0
  144.5299  131.8721  149.6547 H   0  0  0  0  0  0  0  0  0  0  0  0
  142.7876  131.6849  149.6460 H   0  0  0  0  0  0  0  0  0  0  0  0
  144.5045  132.9256  147.3427 H   0  0  0  0  0  0  0  0  0  0  0  0
  143.3484  134.2301  147.0463 H   0  0  0  0  0  0  0  0  0  0  0  0
  142.7677  132.5934  147.3422 H   0  0  0  0  0  0  0  0  0  0  0  0
  145.4201  134.4178  149.1981 H   0  0  0  0  0  0  0  0  0  0  0  0
  144.1521  135.5988  148.9333 H   0  0  0  0  0  0  0  0  0  0  0  0
  143.2912  135.2256  151.2341 H   0  0  0  0  0  0  0  0  0  0  0  0
  144.7768  137.0782  151.0220 H   0  0  0  0  0  0  0  0  0  0  0  0
  146.2104  136.0807  151.1130 H   0  0  0  0  0  0  0  0  0  0  0  0
  145.1701  136.2645  152.5281 H   0  0  0  0  0  0  0  0  0  0  0  0
  145.7609  129.7816  154.2939 H   0  0  0  0  0  0  0  0  0  0  0  0
  142.5404  133.9631  149.2539 H   0  0  0  0  0  0  0  0  0  0  0  0
  1  2  1  0  0  0  0
  1 23  1  0  0  0  0
  1 24  1  0  0  0  0
  1 25  1  0  0  0  0
  2  3  1  0  0  0  0
  3  4  1  0  0  0  0
  3 26  1  0  0  0  0
  3 27  1  0  0  0  0
  4  5  1  0  0  0  0
  4 28  1  0  0  0  0
  4 29  1  0  0  0  0
  5  6  1  0  0  0  0
  6 22  1  0  0  0  0
  6  7  2  0  0  0  0
  7  8  1  0  0  0  0
  7 30  1  0  0  0  0
  8  9  2  0  0  0  0
  8 31  1  0  0  0  0
  9 10  1  0  0  0  0
  9 21  1  0  0  0  0
 10 11  1  0  0  0  0
 10 32  1  0  0  0  0
 11 12  2  0  0  0  0
 11 13  1  0  0  0  0
 13 19  1  0  0  0  0
 13 14  1  0  0  0  0
 14 15  1  0  0  0  0
 14 33  1  0  0  0  0
 14 34  1  0  0  0  0
 15 16  1  0  0  0  0
 15 35  1  0  0  0  0
 15 36  1  0  0  0  0
 16 17  1  0  0  0  0
 16 18  1  0  0  0  0
 16 47  1  0  0  0  0
 17 37  1  0  0  0  0
 17 38  1  0  0  0  0
 17 39  1  0  0  0  0
 18 19  1  0  0  0  0
 18 40  1  0  0  0  0
 18 41  1  0  0  0  0
 19 20  1  0  0  0  0
 19 42  1  0  0  0  0
 20 43  1  0  0  0  0
 20 44  1  0  0  0  0
 20 45  1  0  0  0  0
 21 22  2  0  0  0  0
 21 46  1  0  0  0  0
M  CHG  1  16   1
M  END
> <s_m_source_file>
AV-unprocessed.smi

> <i_m_source_file_index>
1071

> <i_lp_mmshare_version>
43012

> <i_f3d_flags>
0

> <s_epik_input>
W0NIM11PW0NIMl1bQ0gyXU9jMVtjSF1bY0hdYyhbY0hdbjEpW05IXUMoPU8pTjJbQ0gyXVtDSDJdTihbQ0gzXSlbQ0gyXVtDQEhdMltDSDNd

> <s_epik_cmdline>
J2VwaWtfcHl0aG9uJywgJy1waCcsICc3LjAnLCAnLXRuJywgJzgnLCAnLW1hJywgJzIwMCcsICctbWV0YWxfYmluZGluZycsICctaW1hZScsICc8aW5maWxlLm1hZT4nLCAnLW9tYWUnLCAnPG91dGZpbGUubWFlPic=

> <r_lp_tautomer_probability>
1

> <r_epik_Ionization_Penalty>
0.25455

> <r_epik_Ionization_Penalty_Charging>
0.254506

> <r_epik_Ionization_Penalty_Neutral>
4.43365e-05

> <r_epik_State_Penalty>
0.245983

> <r_epik_Charging_Adjusted_Penalty>
0.500488

> <i_epik_Tot_Q>
1

> <i_epik_Tot_abs_Q>
1

> <r_epik_Metal_State_Penalty>
0.245987

> <b_epik_Metal_Only>
0

> <s_lp_Force_Field>
OPLS_2005

> <r_lp_Energy>
54.7367

> <b_lp_Chiralities_Consistent>
1

> <s_lp_Variant>
AV-unprocessed.smi:1071-4

> <Gold.Version>
5.8.1

> <Gold.Id.Protein>
6NUR|6NUR_protein|mol2

> <Gold.PLP.Fitness>
39.0803

> <Gold.PLP.PLP>
-30.8116

> <Gold.PLP.part.hbond>
-1.2550

> <Gold.PLP.part.metal>
0.0000

> <Gold.PLP.part.buried>
4.3416

> <Gold.PLP.part.nonpolar>
-35.3456

> <Gold.PLP.part.repulsive>
0.6405

> <Gold.PLP.ligand.clash>
0.0323

> <Gold.PLP.ligand.torsion>
0.6491

> <Gold.PLP.Chemscore.Hbond>
2.0000

> <Gold.PLP.Chemscore.CHOScore>
0.9863

> <Gold.PLP.Chemscore.Metal>
0.0000

> <Gold.Chemscore.Hbonds>
donor molecule, donor type, donor heavy atom, donor atom, acceptor molecule, acceptor atom, score
      L1  H    16    47       P1 10186  2.00
      L1  C    21    46       P1 10956  0.98

> <Gold.PLP.Chemscore.Internal.Correction>
0.6401

> <Gold.Rescore>
     Score         DG    S(hbond)    S(metal)    S(lipo)     H(rot)  DE(clash)    DE(int)     intcor
     10.70     -14.55       0.96        0.00      85.19       1.60       0.61       3.24       ----

> <Gold.Chemscore.Fitness>
10.7021

> <Gold.Chemscore.DG>
-14.5535

> <Gold.Chemscore.ZeroCoef>
-5.4800

> <Gold.Chemscore.Hbond>
0.9621

> <Gold.Chemscore.Metal>
0.0000

> <Gold.Chemscore.Lipo>
85.1944

> <Gold.Chemscore.Internal_Hbond>
0.0000

> <Gold.Chemscore.DEClash>
0.6084

> <Gold.Chemscore.DEInternal>
3.2430

> <Gold.Chemscore.Rot>
1.6045

> <Gold.Chemscore.Internal.Correction>
   9.000000E+99

> <Gold.Chemscore.Hbonds>
donor molecule, donor type, donor heavy atom, donor atom, acceptor molecule, acceptor atom, score
      L1  H    16    47       P1 10186  0.99

> <Gold.Chemscore.Hbond.Weighted>
-3.2133

> <Gold.Chemscore.Metal.Weighted>
-0.0000

> <Gold.Chemscore.Lipo.Weighted>
-9.9677

> <Gold.Chemscore.Internal_Hbond.Weighted>
0.0000

> <Gold.Chemscore.DEClash.Weighted>
0.6084

> <Gold.Chemscore.DEInternal.Weighted>
3.2430

> <Gold.Chemscore.Rot.Weighted>
4.1075

> <Gold.Chemscore.Internal.Correction.Weighted>
   9.000000E+99

> <Gold.Protein.RotatedTorsions>
[ 6907 6896 6895 6894 ] final -178.88 input  -60.11 | X-H torsion
[ 7974 7965 7964 7962 ] final   17.84 input  175.53 | X-H torsion
[ 8008 7997 7996 7995 ] final   96.52 input   59.86 | X-H torsion
[ 10167 10162 10161 10158 ] final  -98.02 input  -65.29 | X-H torsion
[ 10718 10713 10712 10709 ] final  -32.11 input   66.30 | X-H torsion
[ 10763 10752 10751 10750 ] final -117.58 input  -60.55 | X-H torsion
[ 11005 11000 10999 10996 ] final -105.83 input  -57.11 | X-H torsion

> <Gold.Protein.ActiveResidues>
 VAL166  LYS551  ARG553  GLY616  TRP617  ASP618  TYR619  PRO620  LYS621  CYS622 
 ASP623  PHE694  ASN695  SER759  ASP760  ASP761  ALA762  ILE779  LEU786  VAL792 
 PHE793  MET794  SER795  GLU796  ALA797  LYS798  CYS799  TRP800  GLU811  SER814 

> <Gold.Protein.RotatedAtoms>
  151.6444  133.3324  159.3137 H   0  0  0  0  0  0  0  0  0  0  0  0  # atno 6907 bound_to 6896
  150.7992  134.7077  159.6595 H   0  0  0  0  0  0  0  0  0  0  0  0  # atno 6908 bound_to 6896
  152.4082  134.6174  160.0093 H   0  0  0  0  0  0  0  0  0  0  0  0  # atno 6909 bound_to 6896
  146.2205  139.8543  142.8616 H   0  0  0  0  0  0  0  0  0  0  0  0  # atno 7974 bound_to 7965
  156.0805  140.3271  155.7687 H   0  0  0  0  0  0  0  0  0  0  0  0  # atno 8008 bound_to 7997
  155.5161  140.0581  157.2932 H   0  0  0  0  0  0  0  0  0  0  0  0  # atno 8009 bound_to 7997
  154.4579  140.1952  156.0343 H   0  0  0  0  0  0  0  0  0  0  0  0  # atno 8010 bound_to 7997
  140.2774  143.3304  152.0475 H   0  0  0  0  0  0  0  0  0  0  0  0  # atno 10167 bound_to 10162
  156.3790  130.4352  149.7484 H   0  0  0  0  0  0  0  0  0  0  0  0  # atno 10718 bound_to 10713
  154.8559  135.4305  154.2002 H   0  0  0  0  0  0  0  0  0  0  0  0  # atno 10763 bound_to 10752
  153.3050  135.6971  153.7174 H   0  0  0  0  0  0  0  0  0  0  0  0  # atno 10764 bound_to 10752
  153.6289  135.3488  155.3009 H   0  0  0  0  0  0  0  0  0  0  0  0  # atno 10765 bound_to 10752
  141.1034  133.8841  157.1782 H   0  0  0  0  0  0  0  0  0  0  0  0  # atno 11005 bound_to 11000
  145.2769  141.0126  143.3740 LP  0  0  0  0  0  0  0  0  0  0  0  0  # atno 17320 bound_to 7965
  144.9180  139.4446  143.6555 LP  0  0  0  0  0  0  0  0  0  0  0  0  # atno 17321 bound_to 7965
  139.4972  144.6615  151.6453 LP  0  0  0  0  0  0  0  0  0  0  0  0  # atno 17342 bound_to 10162
  140.5840  143.9896  150.6285 LP  0  0  0  0  0  0  0  0  0  0  0  0  # atno 17343 bound_to 10162
  156.4582  130.7939  151.2960 LP  0  0  0  0  0  0  0  0  0  0  0  0  # atno 17370 bound_to 10713
  157.7491  131.0074  150.3188 LP  0  0  0  0  0  0  0  0  0  0  0  0  # atno 17371 bound_to 10713
  139.9895  135.0070  156.9941 LP  0  0  0  0  0  0  0  0  0  0  0  0  # atno 17394 bound_to 11000
  140.4963  134.1142  155.7242 LP  0  0  0  0  0  0  0  0  0  0  0  0  # atno 17395 bound_to 11000

$$$$
