AV-unprocessed.smi:160|AV-procd|sdf|1355|dock1
  -GOLD-   2262019 63D 1   1.00000     0.00000
 Structure written by MMmdl.
 29 30  0  0  0  0  0  0  0  0  1 V2000
  147.3335  136.5037  158.7023 N   0  0  0  0  0  0  0  0  0  0  0  0
  148.2620  136.9762  159.5408 C   0  0  0  0  0  0  0  0  0  0  0  0
  148.0523  137.1166  160.7447 O   0  0  0  0  0  0  0  0  0  0  0  0
  149.5887  137.3325  158.9295 C   0  0  0  0  0  0  0  0  0  0  0  0
  150.7614  137.0508  159.5710 N   0  0  0  0  0  0  0  0  0  0  0  0
  151.6108  137.5351  158.6739 C   0  0  0  0  0  0  0  0  0  0  0  0
  151.0253  138.0529  157.5894 N   0  0  0  0  0  0  0  0  0  0  0  0
  151.6332  138.6933  156.3814 C   0  0  2  0  0  0  0  0  0  0  0  0
  150.9154  139.8622  156.1210 O   0  0  0  0  0  0  0  0  0  0  0  0
  150.5594  139.9302  154.7422 C   0  0  2  0  0  0  0  0  0  0  0  0
  149.2993  140.7895  154.5373 C   0  0  0  0  0  0  0  0  0  0  0  0
  149.1874  141.1727  153.1831 O   0  0  0  0  0  0  0  0  0  0  0  0
  150.4365  138.4610  154.3146 C   0  0  2  0  0  0  0  0  0  0  0  0
  149.1554  137.9395  154.6253 O   0  0  0  0  0  0  0  0  0  0  0  0
  151.5512  137.8063  155.1220 C   0  0  2  0  0  0  0  0  0  0  0  0
  151.3485  136.4209  155.3479 O   0  0  0  0  0  0  0  0  0  0  0  0
  149.6833  137.9356  157.7437 N   0  0  0  0  0  0  0  0  0  0  0  0
  152.6579  138.9196  156.6788 H   0  0  0  0  0  0  0  0  0  0  0  0
  151.4005  140.3654  154.1988 H   0  0  0  0  0  0  0  0  0  0  0  0
  150.5961  138.3394  153.2427 H   0  0  0  0  0  0  0  0  0  0  0  0
  152.4916  137.9324  154.5839 H   0  0  0  0  0  0  0  0  0  0  0  0
  146.4216  136.2483  159.0517 H   0  0  0  0  0  0  0  0  0  0  0  0
  147.5525  136.4074  157.7211 H   0  0  0  0  0  0  0  0  0  0  0  0
  152.6820  137.5095  158.8089 H   0  0  0  0  0  0  0  0  0  0  0  0
  148.4071  140.2141  154.7862 H   0  0  0  0  0  0  0  0  0  0  0  0
  149.3094  141.6700  155.1804 H   0  0  0  0  0  0  0  0  0  0  0  0
  149.3779  140.4212  152.6426 H   0  0  0  0  0  0  0  0  0  0  0  0
  148.8661  137.4130  153.8954 H   0  0  0  0  0  0  0  0  0  0  0  0
  150.4271  136.2320  155.2572 H   0  0  0  0  0  0  0  0  0  0  0  0
  1  2  1  0  0  0  0
  1 22  1  0  0  0  0
  1 23  1  0  0  0  0
  2  3  2  0  0  0  0
  2  4  1  0  0  0  0
  4 17  2  0  0  0  0
  4  5  1  0  0  0  0
  5  6  2  0  0  0  0
  6  7  1  0  0  0  0
  6 24  1  0  0  0  0
  7  8  1  0  0  0  0
  7 17  1  0  0  0  0
  8 18  1  0  0  0  0
  8 15  1  0  0  0  0
  8  9  1  0  0  0  0
  9 10  1  0  0  0  0
 10 19  1  0  0  0  0
 10 11  1  0  0  0  0
 10 13  1  0  0  0  0
 11 12  1  0  0  0  0
 11 25  1  0  0  0  0
 11 26  1  0  0  0  0
 12 27  1  0  0  0  0
 13 20  1  0  0  0  0
 13 14  1  0  0  0  0
 13 15  1  0  0  0  0
 14 28  1  0  0  0  0
 15 21  1  0  0  0  0
 15 16  1  0  0  0  0
 16 29  1  0  0  0  0
M  END
> <s_m_source_file>
AV-unprocessed.smi

> <i_m_source_file_index>
160

> <i_lp_mmshare_version>
43012

> <i_f3d_flags>
0

> <s_epik_input>
W05IMl1DKD1PKWMxbltjSF1uKG4xKVtDQEBIXTJPW0NASF0oW0NIMl1bT0hdKVtDQEBIXShbT0hdKVtDQEhdMltPSF0=

> <s_epik_cmdline>
J2VwaWtfcHl0aG9uJywgJy1waCcsICc3LjAnLCAnLXRuJywgJzgnLCAnLW1hJywgJzIwMCcsICctbWV0YWxfYmluZGluZycsICctaW1hZScsICc8aW5maWxlLm1hZT4nLCAnLW9tYWUnLCAnPG91dGZpbGUubWFlPic=

> <r_lp_tautomer_probability>
1

> <r_epik_Ionization_Penalty>
1.06932e-05

> <r_epik_Ionization_Penalty_Charging>
0

> <r_epik_Ionization_Penalty_Neutral>
1.06932e-05

> <r_epik_State_Penalty>
-0

> <r_epik_Charging_Adjusted_Penalty>
0

> <i_epik_Tot_Q>
0

> <i_epik_Tot_abs_Q>
0

> <r_epik_Metal_State_Penalty>
0.0142097

> <b_epik_Metal_Only>
0

> <s_epik_Chemistry_Notes>
This compound contains an acetal/aminal-like group ( X-CH(R)-Y where X, Y are N, S, or O) that may be acid/base labile, releasing an aldehyde.

> <s_lp_Force_Field>
OPLS_2005

> <r_lp_Energy>
47.6598

> <b_lp_Chiralities_Consistent>
1

> <s_lp_Variant>
AV-unprocessed.smi:160-13

> <Gold.Version>
5.8.1

> <Gold.Id.Protein>
6NUR|6NUR_protein|mol2

> <Gold.PLP.Fitness>
39.8684

> <Gold.PLP.PLP>
-25.1392

> <Gold.PLP.part.hbond>
-6.8220

> <Gold.PLP.part.metal>
0.0000

> <Gold.PLP.part.buried>
-2.7262

> <Gold.PLP.part.nonpolar>
-16.1195

> <Gold.PLP.part.repulsive>
0.0422

> <Gold.PLP.ligand.clash>
0.0000

> <Gold.PLP.ligand.torsion>
1.1092

> <Gold.PLP.Chemscore.Hbond>
5.6440

> <Gold.PLP.Chemscore.CHOScore>
0.0000

> <Gold.PLP.Chemscore.Metal>
0.0000

> <Gold.Chemscore.Hbonds>
donor molecule, donor type, donor heavy atom, donor atom, acceptor molecule, acceptor atom, score
      L1  H    12    27       P1  7957  0.80
      L1  H    14    28       P1  7948  0.23
      P1  H  6896  6907       L1     5  1.00
      P1  H  6931  6943       L1     3  0.88
      P1  H  6934  6947       L1     3  0.62
      P1  H  8011  8017       L1    12  1.00
      P1  H 10752 10764       L1    16  1.00

> <Gold.PLP.Chemscore.Internal.Correction>
0.0158

> <Gold.Rescore>
     Score         DG    S(hbond)    S(metal)    S(lipo)     H(rot)  DE(clash)    DE(int)     intcor
     13.57     -16.40       5.28        0.00      31.38       4.06       1.29       1.53       ----

> <Gold.Chemscore.Fitness>
13.5727

> <Gold.Chemscore.DG>
-16.3961

> <Gold.Chemscore.ZeroCoef>
-5.4800

> <Gold.Chemscore.Hbond>
5.2808

> <Gold.Chemscore.Metal>
0.0000

> <Gold.Chemscore.Lipo>
31.3827

> <Gold.Chemscore.Internal_Hbond>
0.0000

> <Gold.Chemscore.DEClash>
1.2915

> <Gold.Chemscore.DEInternal>
1.5319

> <Gold.Chemscore.Rot>
4.0600

> <Gold.Chemscore.Internal.Correction>
   9.000000E+99

> <Gold.Chemscore.Hbonds>
donor molecule, donor type, donor heavy atom, donor atom, acceptor molecule, acceptor atom, score
      L1  H    12    27       P1  7957  0.75
      L1  H    14    28       P1  7948  0.23
      P1  H  6896  6907       L1     5  0.62
      P1  H  6931  6943       L1     3  0.86
      P1  H  6934  6947       L1     3  0.30
      P1  H  8011  8017       L1    12  0.39
      P1  H 10752 10764       L1    16  0.44

> <Gold.Chemscore.Hbond.Weighted>
-17.6379

> <Gold.Chemscore.Metal.Weighted>
-0.0000

> <Gold.Chemscore.Lipo.Weighted>
-3.6718

> <Gold.Chemscore.Internal_Hbond.Weighted>
0.0000

> <Gold.Chemscore.DEClash.Weighted>
1.2915

> <Gold.Chemscore.DEInternal.Weighted>
1.5319

> <Gold.Chemscore.Rot.Weighted>
10.3936

> <Gold.Chemscore.Internal.Correction.Weighted>
   9.000000E+99

> <Gold.Protein.RotatedTorsions>
[ 6907 6896 6895 6894 ] final  -25.30 input  -60.11 | X-H torsion
[ 7974 7965 7964 7962 ] final -164.55 input  175.53 | X-H torsion
[ 8008 7997 7996 7995 ] final   72.87 input   59.86 | X-H torsion
[ 10167 10162 10161 10158 ] final  179.79 input  -65.29 | X-H torsion
[ 10718 10713 10712 10709 ] final  -10.15 input   66.30 | X-H torsion
[ 10763 10752 10751 10750 ] final  -58.97 input  -60.55 | X-H torsion
[ 11005 11000 10999 10996 ] final   26.84 input  -57.11 | X-H torsion

> <Gold.Protein.ActiveResidues>
 VAL166  LYS551  ARG553  GLY616  TRP617  ASP618  TYR619  PRO620  LYS621  CYS622 
 ASP623  PHE694  ASN695  SER759  ASP760  ASP761  ALA762  ILE779  LEU786  VAL792 
 PHE793  MET794  SER795  GLU796  ALA797  LYS798  CYS799  TRP800  GLU811  SER814 

> <Gold.Protein.RotatedAtoms>
  151.1772  135.0344  159.8776 H   0  0  0  0  0  0  0  0  0  0  0  0  # atno 6907 bound_to 6896
  152.5446  134.1104  159.8366 H   0  0  0  0  0  0  0  0  0  0  0  0  # atno 6908 bound_to 6896
  151.1217  133.5053  159.2634 H   0  0  0  0  0  0  0  0  0  0  0  0  # atno 6909 bound_to 6896
  144.7294  140.2944  143.6215 H   0  0  0  0  0  0  0  0  0  0  0  0  # atno 7974 bound_to 7965
  155.7753  140.3483  155.5268 H   0  0  0  0  0  0  0  0  0  0  0  0  # atno 8008 bound_to 7997
  155.8782  140.0997  157.1524 H   0  0  0  0  0  0  0  0  0  0  0  0  # atno 8009 bound_to 7997
  154.4022  140.1327  156.4150 H   0  0  0  0  0  0  0  0  0  0  0  0  # atno 8010 bound_to 7997
  139.5352  144.2518  152.0778 H   0  0  0  0  0  0  0  0  0  0  0  0  # atno 10167 bound_to 10162
  156.6776  130.5027  149.5981 H   0  0  0  0  0  0  0  0  0  0  0  0  # atno 10718 bound_to 10713
  154.2464  135.6334  153.5225 H   0  0  0  0  0  0  0  0  0  0  0  0  # atno 10763 bound_to 10752
  152.9920  135.5554  154.5855 H   0  0  0  0  0  0  0  0  0  0  0  0  # atno 10764 bound_to 10752
  154.5373  135.2892  155.1102 H   0  0  0  0  0  0  0  0  0  0  0  0  # atno 10765 bound_to 10752
  140.3327  134.2420  155.7700 H   0  0  0  0  0  0  0  0  0  0  0  0  # atno 11005 bound_to 11000
  145.7823  139.1896  143.2151 LP  0  0  0  0  0  0  0  0  0  0  0  0  # atno 17320 bound_to 7965
  146.0824  140.7749  142.9635 LP  0  0  0  0  0  0  0  0  0  0  0  0  # atno 17321 bound_to 7965
  140.1988  144.4679  150.6442 LP  0  0  0  0  0  0  0  0  0  0  0  0  # atno 17342 bound_to 10162
  140.6554  143.2236  151.5980 LP  0  0  0  0  0  0  0  0  0  0  0  0  # atno 17343 bound_to 10162
  156.1891  130.6548  151.1041 LP  0  0  0  0  0  0  0  0  0  0  0  0  # atno 17370 bound_to 10713
  157.7055  131.0758  150.6681 LP  0  0  0  0  0  0  0  0  0  0  0  0  # atno 17371 bound_to 10713
  141.2059  133.7847  157.0207 LP  0  0  0  0  0  0  0  0  0  0  0  0  # atno 17394 bound_to 11000
  140.0847  134.9628  157.1680 LP  0  0  0  0  0  0  0  0  0  0  0  0  # atno 17395 bound_to 11000

$$$$
