AV-unprocessed.smi:3214|AV-procd|sdf|12284|dock1
  -GOLD-   2272018123D 1   1.00000     0.00000
 Structure written by MMmdl.
 37 37  0  0  0  0  0  0  0  0  2 V2000
  151.2160  137.7272  154.6252 C   0  0  0  0  0  0  0  0  0  0  0  0
  150.2510  138.8988  154.8318 C   0  0  0  0  0  0  0  0  0  0  0  0
  149.2709  138.9521  153.7558 N   0  0  0  0  0  0  0  0  0  0  0  0
  147.9435  138.9048  153.9381 C   0  0  0  0  0  0  0  0  0  0  0  0
  147.4194  138.8067  155.0478 O   0  0  0  0  0  0  0  0  0  0  0  0
  147.0803  138.9716  152.6744 C   0  0  0  0  0  0  0  0  0  0  0  0
  145.8924  137.9957  152.7124 C   0  0  0  0  0  0  0  0  0  0  0  0
  146.3610  136.5954  152.7858 N   0  3  0  0  0  0  0  0  0  0  0  0
  145.4204  135.5784  152.2598 C   0  0  1  0  0  0  0  0  0  0  0  0
  145.1128  135.8940  150.7897 C   0  0  0  0  0  0  0  0  0  0  0  0
  145.9911  134.1475  152.3931 C   0  0  0  0  0  0  0  0  0  0  0  0
  145.4524  133.2115  151.4229 N   0  0  0  0  0  0  0  0  0  0  0  0
  146.1265  132.4945  150.4563 C   0  0  0  0  0  0  0  0  0  0  0  0
  145.1997  131.7548  149.7792 C   0  0  0  0  0  0  0  0  0  0  0  0
  143.9686  132.1008  150.4033 C   0  0  0  0  0  0  0  0  0  0  0  0
  144.1229  132.9767  151.3833 N   0  0  0  0  0  0  0  0  0  0  0  0
  151.9495  137.6838  155.4305 H   0  0  0  0  0  0  0  0  0  0  0  0
  151.7609  137.8248  153.6856 H   0  0  0  0  0  0  0  0  0  0  0  0
  150.6845  136.7753  154.6088 H   0  0  0  0  0  0  0  0  0  0  0  0
  149.7369  138.7926  155.7883 H   0  0  0  0  0  0  0  0  0  0  0  0
  150.8080  139.8363  154.8663 H   0  0  0  0  0  0  0  0  0  0  0  0
  149.6267  139.0291  152.8139 H   0  0  0  0  0  0  0  0  0  0  0  0
  146.7144  139.9908  152.5390 H   0  0  0  0  0  0  0  0  0  0  0  0
  147.7171  138.7493  151.8171 H   0  0  0  0  0  0  0  0  0  0  0  0
  145.2588  138.2165  153.5699 H   0  0  0  0  0  0  0  0  0  0  0  0
  145.2783  138.1197  151.8188 H   0  0  0  0  0  0  0  0  0  0  0  0
  147.2043  136.5406  152.2329 H   0  0  0  0  0  0  0  0  0  0  0  0
  144.4766  135.6498  152.8028 H   0  0  0  0  0  0  0  0  0  0  0  0
  144.3886  135.1889  150.3804 H   0  0  0  0  0  0  0  0  0  0  0  0
  146.0113  135.8421  150.1736 H   0  0  0  0  0  0  0  0  0  0  0  0
  144.6913  136.8940  150.6809 H   0  0  0  0  0  0  0  0  0  0  0  0
  147.0740  134.1650  152.2616 H   0  0  0  0  0  0  0  0  0  0  0  0
  145.8103  133.7567  153.3955 H   0  0  0  0  0  0  0  0  0  0  0  0
  147.1973  132.5652  150.3336 H   0  0  0  0  0  0  0  0  0  0  0  0
  145.3732  131.0737  148.9593 H   0  0  0  0  0  0  0  0  0  0  0  0
  142.9748  131.7456  150.1742 H   0  0  0  0  0  0  0  0  0  0  0  0
  146.5914  136.3646  153.7417 H   0  0  0  0  0  0  0  0  0  0  0  0
  1  2  1  0  0  0  0
  1 17  1  0  0  0  0
  1 18  1  0  0  0  0
  1 19  1  0  0  0  0
  2  3  1  0  0  0  0
  2 20  1  0  0  0  0
  2 21  1  0  0  0  0
  3  4  1  0  0  0  0
  3 22  1  0  0  0  0
  4  5  2  0  0  0  0
  4  6  1  0  0  0  0
  6  7  1  0  0  0  0
  6 23  1  0  0  0  0
  6 24  1  0  0  0  0
  7  8  1  0  0  0  0
  7 25  1  0  0  0  0
  7 26  1  0  0  0  0
  8  9  1  0  0  0  0
  8 27  1  0  0  0  0
  8 37  1  0  0  0  0
  9 10  1  0  0  0  0
  9 11  1  0  0  0  0
  9 28  1  0  0  0  0
 10 29  1  0  0  0  0
 10 30  1  0  0  0  0
 10 31  1  0  0  0  0
 11 12  1  0  0  0  0
 11 32  1  0  0  0  0
 11 33  1  0  0  0  0
 12 16  1  0  0  0  0
 12 13  1  0  0  0  0
 13 14  2  0  0  0  0
 13 34  1  0  0  0  0
 14 15  1  0  0  0  0
 14 35  1  0  0  0  0
 15 16  2  0  0  0  0
 15 36  1  0  0  0  0
M  CHG  1   8   1
M  END
> <s_m_source_file>
AV-unprocessed.smi

> <i_m_source_file_index>
3214

> <i_lp_mmshare_version>
43012

> <i_f3d_flags>
0

> <s_epik_input>
W0NIM11bQ0gyXVtOSF1DKD1PKVtDSDJdW0NIMl1bTkhdW0NASF0oW0NIM10pW0NIMl1uMVtjSF1bY0hdW2NIXW4x

> <s_epik_cmdline>
J2VwaWtfcHl0aG9uJywgJy1waCcsICc3LjAnLCAnLXRuJywgJzgnLCAnLW1hJywgJzIwMCcsICctbWV0YWxfYmluZGluZycsICctaW1hZScsICc8aW5maWxlLm1hZT4nLCAnLW9tYWUnLCAnPG91dGZpbGUubWFlPic=

> <r_lp_tautomer_probability>
1

> <r_epik_Ionization_Penalty>
0.00598156

> <r_epik_Ionization_Penalty_Charging>
0.00597743

> <r_epik_Ionization_Penalty_Neutral>
4.12922e-06

> <r_epik_State_Penalty>
0.00439883

> <r_epik_Charging_Adjusted_Penalty>
0.0103763

> <i_epik_Tot_Q>
1

> <i_epik_Tot_abs_Q>
1

> <r_epik_Metal_State_Penalty>
-0

> <b_epik_Metal_Only>
0

> <s_lp_Force_Field>
OPLS_2005

> <r_lp_Energy>
6.42892

> <b_lp_Chiralities_Consistent>
1

> <s_lp_Variant>
AV-unprocessed.smi:3214-2

> <Gold.Version>
5.8.1

> <Gold.Id.Protein>
6NUR|6NUR_protein|mol2

> <Gold.PLP.Fitness>
43.9622

> <Gold.PLP.PLP>
-31.1500

> <Gold.PLP.part.hbond>
-2.3435

> <Gold.PLP.part.metal>
0.0000

> <Gold.PLP.part.buried>
-2.8990

> <Gold.PLP.part.nonpolar>
-27.8306

> <Gold.PLP.part.repulsive>
0.3431

> <Gold.PLP.ligand.clash>
0.0000

> <Gold.PLP.ligand.torsion>
0.7086

> <Gold.PLP.Chemscore.Hbond>
3.0000

> <Gold.PLP.Chemscore.CHOScore>
1.6783

> <Gold.PLP.Chemscore.Metal>
0.0000

> <Gold.Chemscore.Hbonds>
donor molecule, donor type, donor heavy atom, donor atom, acceptor molecule, acceptor atom, score
      L1  H     3    22       P1  7957  0.94
      L1  H     8    27       P1  7948  2.00
      L1  C    13    34       P1 10747  1.00
      L1  C    15    36       P1 10952  0.73

> <Gold.PLP.Chemscore.Internal.Correction>
0.1945

> <Gold.Rescore>
     Score         DG    S(hbond)    S(metal)    S(lipo)     H(rot)  DE(clash)    DE(int)     intcor
     14.08     -14.96       1.94        0.00      78.02       2.39       0.10       0.78       ----

> <Gold.Chemscore.Fitness>
14.0849

> <Gold.Chemscore.DG>
-14.9637

> <Gold.Chemscore.ZeroCoef>
-5.4800

> <Gold.Chemscore.Hbond>
1.9418

> <Gold.Chemscore.Metal>
0.0000

> <Gold.Chemscore.Lipo>
78.0226

> <Gold.Chemscore.Internal_Hbond>
0.0000

> <Gold.Chemscore.DEClash>
0.0962

> <Gold.Chemscore.DEInternal>
0.7826

> <Gold.Chemscore.Rot>
2.3948

> <Gold.Chemscore.Internal.Correction>
   9.000000E+99

> <Gold.Chemscore.Hbonds>
donor molecule, donor type, donor heavy atom, donor atom, acceptor molecule, acceptor atom, score
      L1  H     3    22       P1  7957  0.87
      L1  H     8    27       P1  7948  0.99

> <Gold.Chemscore.Hbond.Weighted>
-6.4856

> <Gold.Chemscore.Metal.Weighted>
-0.0000

> <Gold.Chemscore.Lipo.Weighted>
-9.1286

> <Gold.Chemscore.Internal_Hbond.Weighted>
0.0000

> <Gold.Chemscore.DEClash.Weighted>
0.0962

> <Gold.Chemscore.DEInternal.Weighted>
0.7826

> <Gold.Chemscore.Rot.Weighted>
6.1306

> <Gold.Chemscore.Internal.Correction.Weighted>
   9.000000E+99

> <Gold.Protein.RotatedTorsions>
[ 6907 6896 6895 6894 ] final   41.75 input  -60.11 | X-H torsion
[ 7974 7965 7964 7962 ] final -108.21 input  175.53 | X-H torsion
[ 8008 7997 7996 7995 ] final  -56.44 input   59.86 | X-H torsion
[ 10167 10162 10161 10158 ] final  -99.59 input  -65.29 | X-H torsion
[ 10718 10713 10712 10709 ] final   54.96 input   66.30 | X-H torsion
[ 10763 10752 10751 10750 ] final   74.06 input  -60.55 | X-H torsion
[ 11005 11000 10999 10996 ] final   18.90 input  -57.11 | X-H torsion

> <Gold.Protein.ActiveResidues>
 VAL166  LYS551  ARG553  GLY616  TRP617  ASP618  TYR619  PRO620  LYS621  CYS622 
 ASP623  PHE694  ASN695  SER759  ASP760  ASP761  ALA762  ILE779  LEU786  VAL792 
 PHE793  MET794  SER795  GLU796  ALA797  LYS798  CYS799  TRP800  GLU811  SER814 

> <Gold.Protein.RotatedAtoms>
  152.1992  134.8603  160.0509 H   0  0  0  0  0  0  0  0  0  0  0  0  # atno 6907 bound_to 6896
  151.9463  133.3647  159.3992 H   0  0  0  0  0  0  0  0  0  0  0  0  # atno 6908 bound_to 6896
  150.6951  134.4311  159.5292 H   0  0  0  0  0  0  0  0  0  0  0  0  # atno 6909 bound_to 6896
  145.1956  140.9034  143.3399 H   0  0  0  0  0  0  0  0  0  0  0  0  # atno 7974 bound_to 7965
  154.4230  140.1129  156.5638 H   0  0  0  0  0  0  0  0  0  0  0  0  # atno 8008 bound_to 7997
  155.6284  140.3495  155.4655 H   0  0  0  0  0  0  0  0  0  0  0  0  # atno 8009 bound_to 7997
  155.9968  140.1191  157.0575 H   0  0  0  0  0  0  0  0  0  0  0  0  # atno 8010 bound_to 7997
  140.2609  143.3408  152.0627 H   0  0  0  0  0  0  0  0  0  0  0  0  # atno 10167 bound_to 10162
  157.5303  130.8626  149.8678 H   0  0  0  0  0  0  0  0  0  0  0  0  # atno 10718 bound_to 10713
  153.0562  135.5040  154.7986 H   0  0  0  0  0  0  0  0  0  0  0  0  # atno 10763 bound_to 10752
  154.6810  135.2968  154.9615 H   0  0  0  0  0  0  0  0  0  0  0  0  # atno 10764 bound_to 10752
  154.0401  135.6718  153.4842 H   0  0  0  0  0  0  0  0  0  0  0  0  # atno 10765 bound_to 10752
  140.4196  134.1532  155.7672 H   0  0  0  0  0  0  0  0  0  0  0  0  # atno 11005 bound_to 11000
  144.9998  139.3609  143.6173 LP  0  0  0  0  0  0  0  0  0  0  0  0  # atno 17320 bound_to 7965
  146.3428  139.9216  142.8766 LP  0  0  0  0  0  0  0  0  0  0  0  0  # atno 17321 bound_to 7965
  139.5017  144.6719  151.6221 LP  0  0  0  0  0  0  0  0  0  0  0  0  # atno 17342 bound_to 10162
  140.5967  143.9684  150.6359 LP  0  0  0  0  0  0  0  0  0  0  0  0  # atno 17343 bound_to 10162
  156.0418  130.3737  150.1417 LP  0  0  0  0  0  0  0  0  0  0  0  0  # atno 17370 bound_to 10713
  156.9602  130.9802  151.3480 LP  0  0  0  0  0  0  0  0  0  0  0  0  # atno 17371 bound_to 10713
  141.1789  133.8456  157.1326 LP  0  0  0  0  0  0  0  0  0  0  0  0  # atno 17394 bound_to 11000
  140.0209  134.9946  157.0590 LP  0  0  0  0  0  0  0  0  0  0  0  0  # atno 17395 bound_to 11000

$$$$
