AV-unprocessed.smi:2568|AV-procd|sdf|10099|dock3
  -GOLD-   2272014113D 1   1.00000     0.00000
 Structure written by MMmdl.
 24 25  0  0  0  0  0  0  0  0  3 V2000
  152.0496  141.4322  158.9448 C   0  0  0  0  0  0  0  0  0  0  0  0
  151.7243  140.7999  157.6114 C   0  0  0  0  0  0  0  0  0  0  0  0
  152.4690  139.8826  156.9695 N   0  5  0  0  0  0  0  0  0  0  0  0
  151.8889  139.5520  155.8340 N   0  0  0  0  0  0  0  0  0  0  0  0
  150.7708  140.2915  155.7767 C   0  0  0  0  0  0  0  0  0  0  0  0
  149.7553  140.2216  154.6555 C   0  0  1  0  0  0  0  0  0  0  0  0
  149.5283  138.7658  154.2029 C   0  0  0  0  0  0  0  0  0  0  0  0
  148.5274  138.7183  153.1195 N   0  3  0  0  0  0  0  0  0  0  0  0
  147.2694  139.3810  153.5139 C   0  0  0  0  0  0  0  0  0  0  0  0
  147.5561  140.8147  153.9910 C   0  0  0  0  0  0  0  0  0  0  0  0
  148.5052  140.7841  155.0508 O   0  0  0  0  0  0  0  0  0  0  0  0
  150.6500  141.0556  156.8719 N   0  0  0  0  0  0  0  0  0  0  0  0
  152.9821  141.0325  159.3439 H   0  0  0  0  0  0  0  0  0  0  0  0
  151.2535  141.2328  159.6622 H   0  0  0  0  0  0  0  0  0  0  0  0
  152.1558  142.5114  158.8346 H   0  0  0  0  0  0  0  0  0  0  0  0
  150.1521  140.8061  153.8233 H   0  0  0  0  0  0  0  0  0  0  0  0
  150.4596  138.3225  153.8489 H   0  0  0  0  0  0  0  0  0  0  0  0
  149.1806  138.1574  155.0392 H   0  0  0  0  0  0  0  0  0  0  0  0
  148.9054  139.1943  152.3129 H   0  0  0  0  0  0  0  0  0  0  0  0
  146.5819  139.3870  152.6680 H   0  0  0  0  0  0  0  0  0  0  0  0
  146.7962  138.8062  154.3110 H   0  0  0  0  0  0  0  0  0  0  0  0
  147.9275  141.4327  153.1718 H   0  0  0  0  0  0  0  0  0  0  0  0
  146.6391  141.2812  154.3511 H   0  0  0  0  0  0  0  0  0  0  0  0
  148.3407  137.7556  152.8781 H   0  0  0  0  0  0  0  0  0  0  0  0
  1 13  1  0  0  0  0
  1 14  1  0  0  0  0
  1 15  1  0  0  0  0
  1  2  1  0  0  0  0
  2 12  2  0  0  0  0
  2  3  1  0  0  0  0
  3  4  1  0  0  0  0
  4  5  2  0  0  0  0
  5 12  1  0  0  0  0
  5  6  1  0  0  0  0
  6 11  1  0  0  0  0
  6  7  1  0  0  0  0
  6 16  1  0  0  0  0
  7  8  1  0  0  0  0
  7 17  1  0  0  0  0
  7 18  1  0  0  0  0
  8  9  1  0  0  0  0
  8 19  1  0  0  0  0
  8 24  1  0  0  0  0
  9 10  1  0  0  0  0
  9 20  1  0  0  0  0
  9 21  1  0  0  0  0
 10 11  1  0  0  0  0
 10 22  1  0  0  0  0
 10 23  1  0  0  0  0
M  CHG  1   3  -1
M  CHG  1   8   1
M  END
> <s_m_source_file>
AV-unprocessed.smi

> <i_m_source_file_index>
2568

> <i_lp_mmshare_version>
43012

> <i_f3d_flags>
0

> <s_epik_input>
W0NIM11jMW5bbkhdYyhuMSlbQ0BASF0yW0NIMl1bTkhdW0NIMl1bQ0gyXU8y

> <s_epik_cmdline>
J2VwaWtfcHl0aG9uJywgJy1waCcsICc3LjAnLCAnLXRuJywgJzgnLCAnLW1hJywgJzIwMCcsICctbWV0YWxfYmluZGluZycsICctaW1hZScsICc8aW5maWxlLm1hZT4nLCAnLW9tYWUnLCAnPG91dGZpbGUubWFlPic=

> <r_lp_tautomer_probability>
0.948284

> <r_epik_Ionization_Penalty>
5.18319

> <r_epik_Ionization_Penalty_Charging>
5.18319

> <r_epik_Ionization_Penalty_Neutral>
2.73247e-13

> <r_epik_State_Penalty>
2.89074

> <r_epik_Charging_Adjusted_Penalty>
8.07392

> <i_epik_Tot_Q>
0

> <i_epik_Tot_abs_Q>
2

> <r_epik_Metal_State_Penalty>
0.548499

> <b_epik_Metal_Only>
1

> <s_lp_Force_Field>
OPLS_2005

> <r_lp_Energy>
8.28058

> <b_lp_Chiralities_Consistent>
1

> <s_lp_Variant>
AV-unprocessed.smi:2568-12

> <Gold.Version>
5.8.1

> <Gold.Id.Protein>
6NUR|6NUR_protein|mol2

> <Gold.PLP.Fitness>
34.1145

> <Gold.PLP.PLP>
-20.1168

> <Gold.PLP.part.hbond>
-2.9967

> <Gold.PLP.part.metal>
0.0000

> <Gold.PLP.part.buried>
-3.2057

> <Gold.PLP.part.nonpolar>
-14.5803

> <Gold.PLP.part.repulsive>
0.2074

> <Gold.PLP.ligand.clash>
0.0000

> <Gold.PLP.ligand.torsion>
0.4699

> <Gold.PLP.Chemscore.Hbond>
4.9753

> <Gold.PLP.Chemscore.CHOScore>
0.0000

> <Gold.PLP.Chemscore.Metal>
0.0000

> <Gold.Chemscore.Hbonds>
donor molecule, donor type, donor heavy atom, donor atom, acceptor molecule, acceptor atom, score
      L1  H     8    19       P1  7957  1.00
      L1  H     8    24       P1  7948  1.76
      P1  H  7997  8009       L1     3  2.00

> <Gold.PLP.Chemscore.Internal.Correction>
0.0117

> <Gold.Rescore>
     Score         DG    S(hbond)    S(metal)    S(lipo)     H(rot)  DE(clash)    DE(int)     intcor
     16.02     -16.60       2.93        0.00      33.21       1.00       0.03       0.55       ----

> <Gold.Chemscore.Fitness>
16.0200

> <Gold.Chemscore.DG>
-16.5976

> <Gold.Chemscore.ZeroCoef>
-5.4800

> <Gold.Chemscore.Hbond>
2.9316

> <Gold.Chemscore.Metal>
0.0000

> <Gold.Chemscore.Lipo>
33.2138

> <Gold.Chemscore.Internal_Hbond>
0.0000

> <Gold.Chemscore.DEClash>
0.0254

> <Gold.Chemscore.DEInternal>
0.5522

> <Gold.Chemscore.Rot>
1.0000

> <Gold.Chemscore.Internal.Correction>
   9.000000E+99

> <Gold.Chemscore.Hbonds>
donor molecule, donor type, donor heavy atom, donor atom, acceptor molecule, acceptor atom, score
      L1  H     8    19       P1  7957  0.97
      L1  H     8    24       P1  7948  0.86
      P1  H  7997  8009       L1     3  0.29

> <Gold.Chemscore.Hbond.Weighted>
-9.7916

> <Gold.Chemscore.Metal.Weighted>
-0.0000

> <Gold.Chemscore.Lipo.Weighted>
-3.8860

> <Gold.Chemscore.Internal_Hbond.Weighted>
0.0000

> <Gold.Chemscore.DEClash.Weighted>
0.0254

> <Gold.Chemscore.DEInternal.Weighted>
0.5522

> <Gold.Chemscore.Rot.Weighted>
2.5600

> <Gold.Chemscore.Internal.Correction.Weighted>
   9.000000E+99

> <Gold.Protein.RotatedTorsions>
[ 6907 6896 6895 6894 ] final   64.60 input  -60.11 | X-H torsion
[ 7974 7965 7964 7962 ] final   92.56 input  175.53 | X-H torsion
[ 8008 7997 7996 7995 ] final -163.41 input   59.86 | X-H torsion
[ 10167 10162 10161 10158 ] final -130.03 input  -65.29 | X-H torsion
[ 10718 10713 10712 10709 ] final  143.07 input   66.30 | X-H torsion
[ 10763 10752 10751 10750 ] final  -66.45 input  -60.55 | X-H torsion
[ 11005 11000 10999 10996 ] final -111.85 input  -57.11 | X-H torsion

> <Gold.Protein.ActiveResidues>
 VAL166  LYS551  ARG553  GLY616  TRP617  ASP618  TYR619  PRO620  LYS621  CYS622 
 ASP623  PHE694  ASN695  SER759  ASP760  ASP761  ALA762  ILE779  LEU786  VAL792 
 PHE793  MET794  SER795  GLU796  ALA797  LYS798  CYS799  TRP800  GLU811  SER814 

> <Gold.Protein.RotatedAtoms>
  152.4344  134.5716  159.9922 H   0  0  0  0  0  0  0  0  0  0  0  0  # atno 6907 bound_to 6896
  151.5830  133.3370  159.3020 H   0  0  0  0  0  0  0  0  0  0  0  0  # atno 6908 bound_to 6896
  150.8240  134.7497  159.6861 H   0  0  0  0  0  0  0  0  0  0  0  0  # atno 6909 bound_to 6896
  145.4907  139.2276  143.2831 H   0  0  0  0  0  0  0  0  0  0  0  0  # atno 7974 bound_to 7965
  155.8209  140.0919  157.1850 H   0  0  0  0  0  0  0  0  0  0  0  0  # atno 8008 bound_to 7997
  154.3979  140.1437  156.3558 H   0  0  0  0  0  0  0  0  0  0  0  0  # atno 8009 bound_to 7997
  155.8267  140.3444  155.5550 H   0  0  0  0  0  0  0  0  0  0  0  0  # atno 8010 bound_to 7997
  139.9336  143.6244  152.2523 H   0  0  0  0  0  0  0  0  0  0  0  0  # atno 10167 bound_to 10162
  157.3732  131.0982  151.0808 H   0  0  0  0  0  0  0  0  0  0  0  0  # atno 10718 bound_to 10713
  154.3601  135.6118  153.5686 H   0  0  0  0  0  0  0  0  0  0  0  0  # atno 10763 bound_to 10752
  152.9794  135.5813  154.4643 H   0  0  0  0  0  0  0  0  0  0  0  0  # atno 10764 bound_to 10752
  154.4379  135.2849  155.1845 H   0  0  0  0  0  0  0  0  0  0  0  0  # atno 10765 bound_to 10752
  141.0710  133.9380  157.2485 H   0  0  0  0  0  0  0  0  0  0  0  0  # atno 11005 bound_to 11000
  146.2286  140.5700  142.8985 LP  0  0  0  0  0  0  0  0  0  0  0  0  # atno 17320 bound_to 7965
  144.7836  140.5890  143.6589 LP  0  0  0  0  0  0  0  0  0  0  0  0  # atno 17321 bound_to 7965
  139.6762  144.7658  151.1692 LP  0  0  0  0  0  0  0  0  0  0  0  0  # atno 17342 bound_to 10162
  140.7631  143.5792  150.8913 LP  0  0  0  0  0  0  0  0  0  0  0  0  # atno 17343 bound_to 10162
  157.1905  130.6349  149.5703 LP  0  0  0  0  0  0  0  0  0  0  0  0  # atno 17370 bound_to 10713
  155.9760  130.4724  150.6497 LP  0  0  0  0  0  0  0  0  0  0  0  0  # atno 17371 bound_to 10713
  139.9523  135.0173  156.9029 LP  0  0  0  0  0  0  0  0  0  0  0  0  # atno 17394 bound_to 11000
  140.5674  134.0476  155.7419 LP  0  0  0  0  0  0  0  0  0  0  0  0  # atno 17395 bound_to 11000

$$$$
