AV-unprocessed.smi:1934|AV-procd|sdf|7824|dock2
  -GOLD-   22720 9573D 1   1.00000     0.00000
 Structure written by MMmdl.
 46 47  0  0  0  0  0  0  0  0  2 V2000
  150.3061  142.0667  155.9608 C   0  0  0  0  0  0  0  0  0  0  0  0
  149.9832  140.7768  155.2658 C   0  0  0  0  0  0  0  0  0  0  0  0
  148.7280  140.3513  154.7407 C   0  0  0  0  0  0  0  0  0  0  0  0
  149.0196  139.1169  154.2278 C   0  0  0  0  0  0  0  0  0  0  0  0
  148.1995  138.2398  153.5901 N   0  0  0  0  0  0  0  0  0  0  0  0
  146.8617  138.2800  153.4627 C   0  0  0  0  0  0  0  0  0  0  0  0
  146.1236  139.1490  153.9276 O   0  0  0  0  0  0  0  0  0  0  0  0
  146.4102  137.2321  152.7585 N   0  0  0  0  0  0  0  0  0  0  0  0
  145.0094  136.9786  152.4421 C   0  0  0  0  0  0  0  0  0  0  0  0
  144.5065  135.6802  153.1026 C   0  0  0  0  0  0  0  0  0  0  0  0
  144.8181  134.4764  152.2913 N   0  3  2  0  0  0  0  0  0  0  0  0
  146.2545  134.1033  152.3673 C   0  0  0  0  0  0  0  0  0  0  0  0
  146.5200  132.7701  151.6503 C   0  0  0  0  0  0  0  0  0  0  0  0
  146.0415  132.8234  150.1928 C   0  0  0  0  0  0  0  0  0  0  0  0
  144.5700  133.2686  150.1041 C   0  0  1  0  0  0  0  0  0  0  0  0
  143.5855  132.1692  150.5403 C   0  0  0  0  0  0  0  0  0  0  0  0
  144.3550  134.5842  150.8808 C   0  0  0  0  0  0  0  0  0  0  0  0
  150.3532  138.8490  154.4431 N   0  0  0  0  0  0  0  0  0  0  0  0
  151.1288  137.6789  154.0809 C   0  0  0  0  0  0  0  0  0  0  0  0
  150.9452  139.8790  155.0852 N   0  0  0  0  0  0  0  0  0  0  0  0
  149.4259  142.7055  156.0355 H   0  0  0  0  0  0  0  0  0  0  0  0
  151.0737  142.6219  155.4214 H   0  0  0  0  0  0  0  0  0  0  0  0
  150.6722  141.8869  156.9720 H   0  0  0  0  0  0  0  0  0  0  0  0
  147.7871  140.8803  154.7475 H   0  0  0  0  0  0  0  0  0  0  0  0
  148.6641  137.4519  153.1631 H   0  0  0  0  0  0  0  0  0  0  0  0
  147.0846  136.5655  152.4111 H   0  0  0  0  0  0  0  0  0  0  0  0
  144.3974  137.8274  152.7525 H   0  0  0  0  0  0  0  0  0  0  0  0
  144.9304  136.9204  151.3574 H   0  0  0  0  0  0  0  0  0  0  0  0
  144.9196  135.5688  154.1063 H   0  0  0  0  0  0  0  0  0  0  0  0
  143.4249  135.7553  153.2235 H   0  0  0  0  0  0  0  0  0  0  0  0
  146.8617  134.8965  151.9282 H   0  0  0  0  0  0  0  0  0  0  0  0
  146.5590  134.0105  153.4105 H   0  0  0  0  0  0  0  0  0  0  0  0
  147.5852  132.5387  151.6818 H   0  0  0  0  0  0  0  0  0  0  0  0
  146.0170  131.9601  152.1793 H   0  0  0  0  0  0  0  0  0  0  0  0
  146.6634  133.5294  149.6408 H   0  0  0  0  0  0  0  0  0  0  0  0
  146.1798  131.8544  149.7117 H   0  0  0  0  0  0  0  0  0  0  0  0
  144.3564  133.4712  149.0537 H   0  0  0  0  0  0  0  0  0  0  0  0
  143.6979  131.9150  151.5943 H   0  0  0  0  0  0  0  0  0  0  0  0
  143.7355  131.2575  149.9615 H   0  0  0  0  0  0  0  0  0  0  0  0
  142.5537  132.4867  150.3875 H   0  0  0  0  0  0  0  0  0  0  0  0
  143.3005  134.8544  150.8409 H   0  0  0  0  0  0  0  0  0  0  0  0
  144.8987  135.3935  150.3903 H   0  0  0  0  0  0  0  0  0  0  0  0
  150.5990  136.7763  154.3865 H   0  0  0  0  0  0  0  0  0  0  0  0
  152.1027  137.6973  154.5723 H   0  0  0  0  0  0  0  0  0  0  0  0
  151.2756  137.6588  153.0010 H   0  0  0  0  0  0  0  0  0  0  0  0
  144.3094  133.7117  152.7116 H   0  0  0  0  0  0  0  0  0  0  0  0
  1  2  1  0  0  0  0
  1 21  1  0  0  0  0
  1 22  1  0  0  0  0
  1 23  1  0  0  0  0
  2 20  2  0  0  0  0
  2  3  1  0  0  0  0
  3  4  2  0  0  0  0
  3 24  1  0  0  0  0
  4  5  1  0  0  0  0
  4 18  1  0  0  0  0
  5  6  1  0  0  0  0
  5 25  1  0  0  0  0
  6  7  2  0  0  0  0
  6  8  1  0  0  0  0
  8  9  1  0  0  0  0
  8 26  1  0  0  0  0
  9 10  1  0  0  0  0
  9 27  1  0  0  0  0
  9 28  1  0  0  0  0
 10 11  1  0  0  0  0
 10 29  1  0  0  0  0
 10 30  1  0  0  0  0
 11 17  1  0  0  0  0
 11 12  1  0  0  0  0
 11 46  1  0  0  0  0
 12 13  1  0  0  0  0
 12 31  1  0  0  0  0
 12 32  1  0  0  0  0
 13 14  1  0  0  0  0
 13 33  1  0  0  0  0
 13 34  1  0  0  0  0
 14 15  1  0  0  0  0
 14 35  1  0  0  0  0
 14 36  1  0  0  0  0
 15 16  1  0  0  0  0
 15 17  1  0  0  0  0
 15 37  1  0  0  0  0
 16 38  1  0  0  0  0
 16 39  1  0  0  0  0
 16 40  1  0  0  0  0
 17 41  1  0  0  0  0
 17 42  1  0  0  0  0
 18 19  1  0  0  0  0
 18 20  1  0  0  0  0
 19 43  1  0  0  0  0
 19 44  1  0  0  0  0
 19 45  1  0  0  0  0
M  CHG  1  11   1
M  END
> <s_m_source_file>
AV-unprocessed.smi

> <i_m_source_file_index>
1934

> <i_lp_mmshare_version>
43012

> <i_f3d_flags>
0

> <s_epik_input>
W0NIM11jMVtjSF1jKG4objEpW0NIM10pW05IXUMoPU8pW05IXVtDSDJdW0NIMl1OMltDSDJdW0NIMl1bQ0gyXVtDQEBIXShbQ0gzXSlbQ0gyXTI=

> <s_epik_cmdline>
J2VwaWtfcHl0aG9uJywgJy1waCcsICc3LjAnLCAnLXRuJywgJzgnLCAnLW1hJywgJzIwMCcsICctbWV0YWxfYmluZGluZycsICctaW1hZScsICc8aW5maWxlLm1hZT4nLCAnLW9tYWUnLCAnPG91dGZpbGUubWFlPic=

> <r_lp_tautomer_probability>
1

> <r_epik_Ionization_Penalty>
0.00202955

> <r_epik_Ionization_Penalty_Charging>
0.00195276

> <r_epik_Ionization_Penalty_Neutral>
7.67968e-05

> <r_epik_State_Penalty>
0.00133177

> <r_epik_Charging_Adjusted_Penalty>
0.00328452

> <i_epik_Tot_Q>
1

> <i_epik_Tot_abs_Q>
1

> <r_epik_Metal_State_Penalty>
-0

> <b_epik_Metal_Only>
0

> <s_lp_Force_Field>
OPLS_2005

> <r_lp_Energy>
20.6023

> <b_lp_Chiralities_Consistent>
1

> <s_lp_Variant>
AV-unprocessed.smi:1934-2

> <Gold.Version>
5.8.1

> <Gold.Id.Protein>
6NUR|6NUR_protein|mol2

> <Gold.PLP.Fitness>
42.1271

> <Gold.PLP.PLP>
-34.8644

> <Gold.PLP.part.hbond>
-3.1810

> <Gold.PLP.part.metal>
0.0000

> <Gold.PLP.part.buried>
-2.4876

> <Gold.PLP.part.nonpolar>
-30.4410

> <Gold.PLP.part.repulsive>
0.2567

> <Gold.PLP.ligand.clash>
0.0000

> <Gold.PLP.ligand.torsion>
0.2313

> <Gold.PLP.Chemscore.Hbond>
2.5610

> <Gold.PLP.Chemscore.CHOScore>
0.0000

> <Gold.PLP.Chemscore.Metal>
0.0000

> <Gold.Chemscore.Hbonds>
donor molecule, donor type, donor heavy atom, donor atom, acceptor molecule, acceptor atom, score
      L1  H     5    25       P1  7948  1.00
      L1  H     8    26       P1  7948  0.94
      P1  H  7989  7998       L1    20  0.52

> <Gold.PLP.Chemscore.Internal.Correction>
0.0423

> <Gold.Rescore>
     Score         DG    S(hbond)    S(metal)    S(lipo)     H(rot)  DE(clash)    DE(int)     intcor
     16.42     -17.84       1.93        0.00      82.96       1.48       0.21       1.22       ----

> <Gold.Chemscore.Fitness>
16.4198

> <Gold.Chemscore.DG>
-17.8428

> <Gold.Chemscore.ZeroCoef>
-5.4800

> <Gold.Chemscore.Hbond>
1.9326

> <Gold.Chemscore.Metal>
0.0000

> <Gold.Chemscore.Lipo>
82.9602

> <Gold.Chemscore.Internal_Hbond>
0.0000

> <Gold.Chemscore.DEClash>
0.2059

> <Gold.Chemscore.DEInternal>
1.2171

> <Gold.Chemscore.Rot>
1.4838

> <Gold.Chemscore.Internal.Correction>
   9.000000E+99

> <Gold.Chemscore.Hbonds>
donor molecule, donor type, donor heavy atom, donor atom, acceptor molecule, acceptor atom, score
      L1  H     5    25       P1  7948  0.98
      L1  H     8    26       P1  7948  0.89
      P1  H  7989  7998       L1    20  0.01

> <Gold.Chemscore.Hbond.Weighted>
-6.4549

> <Gold.Chemscore.Metal.Weighted>
-0.0000

> <Gold.Chemscore.Lipo.Weighted>
-9.7063

> <Gold.Chemscore.Internal_Hbond.Weighted>
0.0000

> <Gold.Chemscore.DEClash.Weighted>
0.2059

> <Gold.Chemscore.DEInternal.Weighted>
1.2171

> <Gold.Chemscore.Rot.Weighted>
3.7985

> <Gold.Chemscore.Internal.Correction.Weighted>
   9.000000E+99

> <Gold.Protein.RotatedTorsions>
[ 6907 6896 6895 6894 ] final  126.48 input  -60.11 | X-H torsion
[ 7974 7965 7964 7962 ] final   95.40 input  175.53 | X-H torsion
[ 8008 7997 7996 7995 ] final -147.44 input   59.86 | X-H torsion
[ 10167 10162 10161 10158 ] final    7.87 input  -65.29 | X-H torsion
[ 10718 10713 10712 10709 ] final  -58.80 input   66.30 | X-H torsion
[ 10763 10752 10751 10750 ] final -148.66 input  -60.55 | X-H torsion
[ 11005 11000 10999 10996 ] final -139.23 input  -57.11 | X-H torsion

> <Gold.Protein.ActiveResidues>
 VAL166  LYS551  ARG553  GLY616  TRP617  ASP618  TYR619  PRO620  LYS621  CYS622 
 ASP623  PHE694  ASN695  SER759  ASP760  ASP761  ALA762  ILE779  LEU786  VAL792 
 PHE793  MET794  SER795  GLU796  ALA797  LYS798  CYS799  TRP800  GLU811  SER814 

> <Gold.Protein.RotatedAtoms>
  152.3899  133.6664  159.6228 H   0  0  0  0  0  0  0  0  0  0  0  0  # atno 6907 bound_to 6896
  150.7810  133.8972  159.3339 H   0  0  0  0  0  0  0  0  0  0  0  0  # atno 6908 bound_to 6896
  151.6761  135.0970  160.0258 H   0  0  0  0  0  0  0  0  0  0  0  0  # atno 6909 bound_to 6896
  145.4528  139.2292  143.3030 H   0  0  0  0  0  0  0  0  0  0  0  0  # atno 7974 bound_to 7965
  155.5756  140.0638  157.2796 H   0  0  0  0  0  0  0  0  0  0  0  0  # atno 8008 bound_to 7997
  154.4348  140.1861  156.0970 H   0  0  0  0  0  0  0  0  0  0  0  0  # atno 8009 bound_to 7997
  156.0343  140.3303  155.7178 H   0  0  0  0  0  0  0  0  0  0  0  0  # atno 8010 bound_to 7997
  140.6347  143.7913  150.7343 H   0  0  0  0  0  0  0  0  0  0  0  0  # atno 10167 bound_to 10162
  156.1108  130.4175  150.0627 H   0  0  0  0  0  0  0  0  0  0  0  0  # atno 10718 bound_to 10713
  154.8220  135.3329  154.7009 H   0  0  0  0  0  0  0  0  0  0  0  0  # atno 10763 bound_to 10752
  153.7640  135.6930  153.4924 H   0  0  0  0  0  0  0  0  0  0  0  0  # atno 10764 bound_to 10752
  153.2090  135.4489  155.0306 H   0  0  0  0  0  0  0  0  0  0  0  0  # atno 10765 bound_to 10752
  140.8540  134.2251  157.4745 H   0  0  0  0  0  0  0  0  0  0  0  0  # atno 11005 bound_to 11000
  146.2495  140.5288  142.8899 LP  0  0  0  0  0  0  0  0  0  0  0  0  # atno 17320 bound_to 7965
  144.8051  140.6285  143.6452 LP  0  0  0  0  0  0  0  0  0  0  0  0  # atno 17321 bound_to 7965
  140.1532  143.4339  152.2117 LP  0  0  0  0  0  0  0  0  0  0  0  0  # atno 17342 bound_to 10162
  139.5558  144.7372  151.4298 LP  0  0  0  0  0  0  0  0  0  0  0  0  # atno 17343 bound_to 10162
  156.8590  130.9485  151.3619 LP  0  0  0  0  0  0  0  0  0  0  0  0  # atno 17370 bound_to 10713
  157.6289  130.8714  149.9239 LP  0  0  0  0  0  0  0  0  0  0  0  0  # atno 17371 bound_to 10713
  139.8705  134.9697  156.4676 LP  0  0  0  0  0  0  0  0  0  0  0  0  # atno 17394 bound_to 11000
  140.8758  133.7954  155.9413 LP  0  0  0  0  0  0  0  0  0  0  0  0  # atno 17395 bound_to 11000

$$$$
