AV-unprocessed.smi:1803|AV-procd|sdf|7289|dock5
  -GOLD-   22720 8543D 1   1.00000     0.00000
 Structure written by MMmdl.
 35 37  0  0  0  0  0  0  0  0  3 V2000
  154.3017  138.4819  157.9180 O   0  0  0  0  0  0  0  0  0  0  0  0
  153.0850  138.6627  157.9051 C   0  0  0  0  0  0  0  0  0  0  0  0
  152.2136  137.8435  157.2609 N   0  5  0  0  0  0  0  0  0  0  0  0
  151.6282  138.1792  156.0960 C   0  0  0  0  0  0  0  0  0  0  0  0
  151.5730  139.4464  155.6549 N   0  0  0  0  0  0  0  0  0  0  0  0
  150.9328  139.5700  154.4293 N   0  0  0  0  0  0  0  0  0  0  0  0
  150.5103  138.3884  153.9801 C   0  0  0  0  0  0  0  0  0  0  0  0
  150.8612  137.0170  155.0108 S   0  0  0  0  0  0  0  0  0  0  0  0
  152.5791  139.7232  158.5618 N   0  0  0  0  0  0  0  0  0  0  0  0
  153.3471  140.7145  159.3046 C   0  0  2  0  0  0  0  0  0  0  0  0
  154.0275  140.1617  160.5718 C   0  0  0  0  0  0  0  0  0  0  0  0
  153.8957  141.2790  161.6255 C   0  0  0  0  0  0  0  0  0  0  0  0
  153.2676  142.4108  160.9169 N   0  3  2  0  0  0  0  0  0  0  0  0
  152.5250  143.3934  161.7357 C   0  0  0  0  0  0  0  0  0  0  0  0
  152.0130  144.5298  160.8269 C   0  0  0  0  0  0  0  0  0  0  0  0
  151.2043  143.9871  159.6302 C   0  0  0  0  0  0  0  0  0  0  0  0
  151.9937  142.9030  158.8715 C   0  0  0  0  0  0  0  0  0  0  0  0
  152.4426  141.8126  159.8574 C   0  0  1  0  0  0  0  0  0  0  0  0
  149.9883  138.3240  153.0371 H   0  0  0  0  0  0  0  0  0  0  0  0
  151.5770  139.8446  158.5399 H   0  0  0  0  0  0  0  0  0  0  0  0
  154.1007  141.1644  158.6547 H   0  0  0  0  0  0  0  0  0  0  0  0
  153.5304  139.2580  160.9278 H   0  0  0  0  0  0  0  0  0  0  0  0
  155.0697  139.9061  160.3768 H   0  0  0  0  0  0  0  0  0  0  0  0
  153.2563  140.9460  162.4446 H   0  0  0  0  0  0  0  0  0  0  0  0
  154.8586  141.5716  162.0446 H   0  0  0  0  0  0  0  0  0  0  0  0
  151.6912  142.9025  162.2402 H   0  0  0  0  0  0  0  0  0  0  0  0
  153.1801  143.7952  162.5093 H   0  0  0  0  0  0  0  0  0  0  0  0
  151.4041  145.2252  161.4053 H   0  0  0  0  0  0  0  0  0  0  0  0
  152.8630  145.1027  160.4540 H   0  0  0  0  0  0  0  0  0  0  0  0
  150.2643  143.5661  159.9896 H   0  0  0  0  0  0  0  0  0  0  0  0
  150.9400  144.8013  158.9549 H   0  0  0  0  0  0  0  0  0  0  0  0
  151.3767  142.4697  158.0836 H   0  0  0  0  0  0  0  0  0  0  0  0
  152.8608  143.3490  158.3822 H   0  0  0  0  0  0  0  0  0  0  0  0
  151.5637  141.3552  160.3185 H   0  0  0  0  0  0  0  0  0  0  0  0
  154.0135  142.9064  160.4501 H   0  0  0  0  0  0  0  0  0  0  0  0
  1  2  2  0  0  0  0
  2  3  1  0  0  0  0
  2  9  1  0  0  0  0
  3  4  1  0  0  0  0
  4  8  1  0  0  0  0
  4  5  2  0  0  0  0
  5  6  1  0  0  0  0
  6  7  2  0  0  0  0
  7  8  1  0  0  0  0
  7 19  1  0  0  0  0
  9 10  1  0  0  0  0
  9 20  1  0  0  0  0
 10 18  1  0  0  0  0
 10 11  1  0  0  0  0
 10 21  1  0  0  0  0
 11 12  1  0  0  0  0
 11 22  1  0  0  0  0
 11 23  1  0  0  0  0
 12 13  1  0  0  0  0
 12 24  1  0  0  0  0
 12 25  1  0  0  0  0
 13 18  1  0  0  0  0
 13 14  1  0  0  0  0
 13 35  1  0  0  0  0
 14 15  1  0  0  0  0
 14 26  1  0  0  0  0
 14 27  1  0  0  0  0
 15 16  1  0  0  0  0
 15 28  1  0  0  0  0
 15 29  1  0  0  0  0
 16 17  1  0  0  0  0
 16 30  1  0  0  0  0
 16 31  1  0  0  0  0
 17 18  1  0  0  0  0
 17 32  1  0  0  0  0
 17 33  1  0  0  0  0
 18 34  1  0  0  0  0
M  CHG  1   3  -1
M  CHG  1  13   1
M  END
> <s_m_source_file>
AV-unprocessed.smi

> <i_m_source_file_index>
1803

> <i_lp_mmshare_version>
43012

> <i_f3d_flags>
0

> <s_epik_input>
czFbY0hdbm5jMVtOSF1DKD1PKVtOSF1bQ0BIXShbQ0gyXVtDSDJdMilbQ0BASF0oTjIzKVtDSDJdW0NIMl1bQ0gyXVtDSDJdMw==

> <s_epik_cmdline>
J2VwaWtfcHl0aG9uJywgJy1waCcsICc3LjAnLCAnLXRuJywgJzgnLCAnLW1hJywgJzIwMCcsICctbWV0YWxfYmluZGluZycsICctaW1hZScsICc8aW5maWxlLm1hZT4nLCAnLW9tYWUnLCAnPG91dGZpbGUubWFlPic=

> <r_lp_tautomer_probability>
1

> <r_epik_Ionization_Penalty>
3.78828

> <r_epik_Ionization_Penalty_Charging>
3.7591

> <r_epik_Ionization_Penalty_Neutral>
0.0291838

> <r_epik_State_Penalty>
3.757

> <r_epik_Charging_Adjusted_Penalty>
7.51609

> <i_epik_Tot_Q>
0

> <i_epik_Tot_abs_Q>
2

> <r_epik_Metal_State_Penalty>
0.558016

> <b_epik_Metal_Only>
1

> <s_lp_Force_Field>
OPLS_2005

> <r_lp_Energy>
28.5802

> <b_lp_Chiralities_Consistent>
1

> <s_lp_Variant>
AV-unprocessed.smi:1803-11

> <Gold.Version>
5.8.1

> <Gold.Id.Protein>
6NUR|6NUR_protein|mol2

> <Gold.PLP.Fitness>
44.1985

> <Gold.PLP.PLP>
-34.3768

> <Gold.PLP.part.hbond>
-2.0000

> <Gold.PLP.part.metal>
0.0000

> <Gold.PLP.part.buried>
-5.5152

> <Gold.PLP.part.nonpolar>
-27.3423

> <Gold.PLP.part.repulsive>
0.2574

> <Gold.PLP.ligand.clash>
0.0000

> <Gold.PLP.ligand.torsion>
0.7994

> <Gold.PLP.Chemscore.Hbond>
1.9760

> <Gold.PLP.Chemscore.CHOScore>
1.8275

> <Gold.PLP.Chemscore.Metal>
0.0000

> <Gold.Chemscore.Hbonds>
donor molecule, donor type, donor heavy atom, donor atom, acceptor molecule, acceptor atom, score
      P1  H  7989  7998       L1     6  1.00
      P1  H  7997  8010       L1     1  0.98
      L1  C     7    19       P1  7948  0.91
      L1  C     7    19       P1  7957  0.95

> <Gold.PLP.Chemscore.Internal.Correction>
0.0099

> <Gold.Rescore>
     Score         DG    S(hbond)    S(metal)    S(lipo)     H(rot)  DE(clash)    DE(int)     intcor
     18.93     -19.75       1.62        0.00      97.57       1.00       0.00       0.83       ----

> <Gold.Chemscore.Fitness>
18.9260

> <Gold.Chemscore.DG>
-19.7545

> <Gold.Chemscore.ZeroCoef>
-5.4800

> <Gold.Chemscore.Hbond>
1.6223

> <Gold.Chemscore.Metal>
0.0000

> <Gold.Chemscore.Lipo>
97.5723

> <Gold.Chemscore.Internal_Hbond>
0.0000

> <Gold.Chemscore.DEClash>
0.0029

> <Gold.Chemscore.DEInternal>
0.8255

> <Gold.Chemscore.Rot>
1.0000

> <Gold.Chemscore.Internal.Correction>
   9.000000E+99

> <Gold.Chemscore.Hbonds>
donor molecule, donor type, donor heavy atom, donor atom, acceptor molecule, acceptor atom, score
      P1  H  7989  7998       L1     6  0.78
      P1  H  7997  8010       L1     1  0.32

> <Gold.Chemscore.Hbond.Weighted>
-5.4185

> <Gold.Chemscore.Metal.Weighted>
-0.0000

> <Gold.Chemscore.Lipo.Weighted>
-11.4160

> <Gold.Chemscore.Internal_Hbond.Weighted>
0.0000

> <Gold.Chemscore.DEClash.Weighted>
0.0029

> <Gold.Chemscore.DEInternal.Weighted>
0.8255

> <Gold.Chemscore.Rot.Weighted>
2.5600

> <Gold.Chemscore.Internal.Correction.Weighted>
   9.000000E+99

> <Gold.Protein.RotatedTorsions>
[ 6907 6896 6895 6894 ] final  120.00 input  -60.11 | X-H torsion
[ 7974 7965 7964 7962 ] final -116.01 input  175.53 | X-H torsion
[ 8008 7997 7996 7995 ] final   12.15 input   59.86 | X-H torsion
[ 10167 10162 10161 10158 ] final  -94.83 input  -65.29 | X-H torsion
[ 10718 10713 10712 10709 ] final   -0.87 input   66.30 | X-H torsion
[ 10763 10752 10751 10750 ] final  -15.62 input  -60.55 | X-H torsion
[ 11005 11000 10999 10996 ] final   53.66 input  -57.11 | X-H torsion

> <Gold.Protein.ActiveResidues>
 VAL166  LYS551  ARG553  GLY616  TRP617  ASP618  TYR619  PRO620  LYS621  CYS622 
 ASP623  PHE694  ASN695  SER759  ASP760  ASP761  ALA762  ILE779  LEU786  VAL792 
 PHE793  MET794  SER795  GLU796  ALA797  LYS798  CYS799  TRP800  GLU811  SER814 

> <Gold.Protein.RotatedAtoms>
  152.4430  133.7484  159.6679 H   0  0  0  0  0  0  0  0  0  0  0  0  # atno 6907 bound_to 6896
  150.8324  133.8058  159.3099 H   0  0  0  0  0  0  0  0  0  0  0  0  # atno 6908 bound_to 6896
  151.5708  135.1065  160.0046 H   0  0  0  0  0  0  0  0  0  0  0  0  # atno 6909 bound_to 6896
  145.1017  140.8556  143.3922 H   0  0  0  0  0  0  0  0  0  0  0  0  # atno 7974 bound_to 7965
  154.8167  140.2877  155.5815 H   0  0  0  0  0  0  0  0  0  0  0  0  # atno 8008 bound_to 7997
  156.2993  140.2558  156.2996 H   0  0  0  0  0  0  0  0  0  0  0  0  # atno 8009 bound_to 7997
  154.9385  140.0382  157.2074 H   0  0  0  0  0  0  0  0  0  0  0  0  # atno 8010 bound_to 7997
  140.3104  143.3108  152.0154 H   0  0  0  0  0  0  0  0  0  0  0  0  # atno 10167 bound_to 10162
  156.8141  130.5434  149.5705 H   0  0  0  0  0  0  0  0  0  0  0  0  # atno 10718 bound_to 10713
  153.5462  135.7012  153.5613 H   0  0  0  0  0  0  0  0  0  0  0  0  # atno 10763 bound_to 10752
  153.3557  135.3983  155.1680 H   0  0  0  0  0  0  0  0  0  0  0  0  # atno 10764 bound_to 10752
  154.8667  135.3776  154.4970 H   0  0  0  0  0  0  0  0  0  0  0  0  # atno 10765 bound_to 10752
  140.0749  134.5418  155.9007 H   0  0  0  0  0  0  0  0  0  0  0  0  # atno 11005 bound_to 11000
  145.0948  139.2864  143.5716 LP  0  0  0  0  0  0  0  0  0  0  0  0  # atno 17320 bound_to 7965
  146.3529  140.0496  142.8637 LP  0  0  0  0  0  0  0  0  0  0  0  0  # atno 17321 bound_to 7965
  139.4895  144.6388  151.6919 LP  0  0  0  0  0  0  0  0  0  0  0  0  # atno 17342 bound_to 10162
  140.5573  144.0327  150.6153 LP  0  0  0  0  0  0  0  0  0  0  0  0  # atno 17343 bound_to 10162
  156.1027  130.5981  150.9921 LP  0  0  0  0  0  0  0  0  0  0  0  0  # atno 17370 bound_to 10713
  157.6491  131.0899  150.8090 LP  0  0  0  0  0  0  0  0  0  0  0  0  # atno 17371 bound_to 10713
  141.2026  133.6626  156.6014 LP  0  0  0  0  0  0  0  0  0  0  0  0  # atno 17394 bound_to 11000
  140.3572  134.7718  157.4508 LP  0  0  0  0  0  0  0  0  0  0  0  0  # atno 17395 bound_to 11000

$$$$
