AV-unprocessed.smi:2790|AV-procd|sdf|10768|dock4
  -GOLD-   2272015203D 1   1.00000     0.00000
 Structure written by MMmdl.
 45 46  0  0  0  0  0  0  0  0  1 V2000
  147.4330  133.7329  160.2139 C   0  0  0  0  0  0  0  0  0  0  0  0
  147.1232  134.6823  161.2822 N   0  0  0  0  0  0  0  0  0  0  0  0
  147.1333  133.9925  162.5673 C   0  0  0  0  0  0  0  0  0  0  0  0
  148.0634  135.8264  161.3239 C   0  0  0  0  0  0  0  0  0  0  0  0
  147.7964  136.9144  160.2771 C   0  0  0  0  0  0  0  0  0  0  0  0
  146.7328  137.5335  160.2847 O   0  0  0  0  0  0  0  0  0  0  0  0
  148.7691  137.1292  159.3809 N   0  0  0  0  0  0  0  0  0  0  0  0
  148.7280  138.1344  158.3244 C   0  0  0  0  0  0  0  0  0  0  0  0
  150.1137  138.3446  157.6624 C   0  0  0  0  0  0  0  0  0  0  0  0
  149.9394  139.2548  156.4228 C   0  0  0  0  0  0  0  0  0  0  0  0
  149.6220  140.6326  156.5249 C   0  0  0  0  0  0  0  0  0  0  0  0
  149.5078  141.4032  155.3511 C   0  0  0  0  0  0  0  0  0  0  0  0
  149.6983  140.9047  154.1131 N   0  0  0  0  0  0  0  0  0  0  0  0
  150.0219  139.6004  154.0096 C   0  0  0  0  0  0  0  0  0  0  0  0
  150.1593  138.7448  155.1202 C   0  0  0  0  0  0  0  0  0  0  0  0
  151.0630  138.9867  158.7154 C   0  0  0  0  0  0  0  0  0  0  0  0
  152.5139  139.1142  158.2180 C   0  0  0  0  0  0  0  0  0  0  0  0
  153.0864  137.7383  157.8510 C   0  0  0  0  0  0  0  0  0  0  0  0
  152.1892  137.0210  156.8335 C   0  0  0  0  0  0  0  0  0  0  0  0
  150.7279  136.9504  157.3238 C   0  0  0  0  0  0  0  0  0  0  0  0
  147.3378  134.1882  159.2279 H   0  0  0  0  0  0  0  0  0  0  0  0
  146.7419  132.8896  160.2367 H   0  0  0  0  0  0  0  0  0  0  0  0
  148.4468  133.3415  160.3117 H   0  0  0  0  0  0  0  0  0  0  0  0
  146.8591  134.6738  163.3737 H   0  0  0  0  0  0  0  0  0  0  0  0
  148.1169  133.5767  162.7927 H   0  0  0  0  0  0  0  0  0  0  0  0
  146.4099  133.1763  162.5741 H   0  0  0  0  0  0  0  0  0  0  0  0
  148.0139  136.2998  162.3056 H   0  0  0  0  0  0  0  0  0  0  0  0
  149.0868  135.4654  161.2044 H   0  0  0  0  0  0  0  0  0  0  0  0
  149.6072  136.5692  159.4484 H   0  0  0  0  0  0  0  0  0  0  0  0
  147.9990  137.8135  157.5787 H   0  0  0  0  0  0  0  0  0  0  0  0
  148.3579  139.0769  158.7321 H   0  0  0  0  0  0  0  0  0  0  0  0
  149.4665  141.1195  157.4743 H   0  0  0  0  0  0  0  0  0  0  0  0
  149.2618  142.4530  155.4107 H   0  0  0  0  0  0  0  0  0  0  0  0
  150.1850  139.2263  153.0096 H   0  0  0  0  0  0  0  0  0  0  0  0
  150.4424  137.7171  154.9547 H   0  0  0  0  0  0  0  0  0  0  0  0
  150.7003  139.9577  159.0492 H   0  0  0  0  0  0  0  0  0  0  0  0
  151.0691  138.3695  159.6153 H   0  0  0  0  0  0  0  0  0  0  0  0
  152.5596  139.7791  157.3547 H   0  0  0  0  0  0  0  0  0  0  0  0
  153.1304  139.5729  158.9916 H   0  0  0  0  0  0  0  0  0  0  0  0
  154.0950  137.8455  157.4507 H   0  0  0  0  0  0  0  0  0  0  0  0
  153.1741  137.1286  158.7513 H   0  0  0  0  0  0  0  0  0  0  0  0
  152.2492  137.5347  155.8746 H   0  0  0  0  0  0  0  0  0  0  0  0
  152.5670  136.0132  156.6590 H   0  0  0  0  0  0  0  0  0  0  0  0
  150.7121  136.3312  158.2221 H   0  0  0  0  0  0  0  0  0  0  0  0
  150.1168  136.4053  156.6049 H   0  0  0  0  0  0  0  0  0  0  0  0
  1  2  1  0  0  0  0
  1 21  1  0  0  0  0
  1 22  1  0  0  0  0
  1 23  1  0  0  0  0
  2  3  1  0  0  0  0
  2  4  1  0  0  0  0
  3 24  1  0  0  0  0
  3 25  1  0  0  0  0
  3 26  1  0  0  0  0
  4  5  1  0  0  0  0
  4 27  1  0  0  0  0
  4 28  1  0  0  0  0
  5  6  2  0  0  0  0
  5  7  1  0  0  0  0
  7  8  1  0  0  0  0
  7 29  1  0  0  0  0
  8  9  1  0  0  0  0
  8 30  1  0  0  0  0
  8 31  1  0  0  0  0
  9 20  1  0  0  0  0
  9 10  1  0  0  0  0
  9 16  1  0  0  0  0
 10 15  1  0  0  0  0
 10 11  2  0  0  0  0
 11 12  1  0  0  0  0
 11 32  1  0  0  0  0
 12 13  2  0  0  0  0
 12 33  1  0  0  0  0
 13 14  1  0  0  0  0
 14 15  2  0  0  0  0
 14 34  1  0  0  0  0
 15 35  1  0  0  0  0
 16 17  1  0  0  0  0
 16 36  1  0  0  0  0
 16 37  1  0  0  0  0
 17 18  1  0  0  0  0
 17 38  1  0  0  0  0
 17 39  1  0  0  0  0
 18 19  1  0  0  0  0
 18 40  1  0  0  0  0
 18 41  1  0  0  0  0
 19 20  1  0  0  0  0
 19 42  1  0  0  0  0
 19 43  1  0  0  0  0
 20 44  1  0  0  0  0
 20 45  1  0  0  0  0
M  END
> <s_m_source_file>
AV-unprocessed.smi

> <i_m_source_file_index>
2790

> <i_lp_mmshare_version>
43012

> <i_f3d_flags>
0

> <s_epik_input>
W0NIM11OKFtDSDNdKVtDSDJdQyg9TylbTkhdW0NIMl1DMShbQ0gyXVtDSDJdW0NIMl1bQ0gyXVtDSDJdMSljMltjSF1bY0hdbltjSF1bY0hdMg==

> <s_epik_cmdline>
J2VwaWtfcHl0aG9uJywgJy1waCcsICc3LjAnLCAnLXRuJywgJzgnLCAnLW1hJywgJzIwMCcsICctbWV0YWxfYmluZGluZycsICctaW1hZScsICc8aW5maWxlLm1hZT4nLCAnLW9tYWUnLCAnPG91dGZpbGUubWFlPic=

> <r_epik_Ionization_Penalty>
1.73486

> <r_epik_Ionization_Penalty_Charging>
0

> <r_epik_Ionization_Penalty_Neutral>
1.73486

> <r_epik_State_Penalty>
1.84779

> <r_epik_Charging_Adjusted_Penalty>
1.84779

> <i_epik_Tot_Q>
0

> <i_epik_Tot_abs_Q>
0

> <r_epik_Metal_State_Penalty>
1.83713

> <b_epik_Metal_Only>
0

> <s_lp_Force_Field>
OPLS_2005

> <r_lp_Energy>
21.958

> <b_lp_Chiralities_Consistent>
1

> <s_lp_Variant>
AV-unprocessed.smi:2790-3

> <Gold.Version>
5.8.1

> <Gold.Id.Protein>
6NUR|6NUR_protein|mol2

> <Gold.PLP.Fitness>
32.4463

> <Gold.PLP.PLP>
-23.8043

> <Gold.PLP.part.hbond>
-2.4724

> <Gold.PLP.part.metal>
0.0000

> <Gold.PLP.part.buried>
-0.1802

> <Gold.PLP.part.nonpolar>
-20.4984

> <Gold.PLP.part.repulsive>
0.7666

> <Gold.PLP.ligand.clash>
0.0000

> <Gold.PLP.ligand.torsion>
0.5703

> <Gold.PLP.Chemscore.Hbond>
1.2387

> <Gold.PLP.Chemscore.CHOScore>
2.0000

> <Gold.PLP.Chemscore.Metal>
0.0000

> <Gold.Chemscore.Hbonds>
donor molecule, donor type, donor heavy atom, donor atom, acceptor molecule, acceptor atom, score
      P1  H  6934  6947       L1     6  1.00
      P1  H  8011  8017       L1    13  0.21
      L1  C    12    33       P1  8028  1.00
      L1  C    14    34       P1  7957  1.00

> <Gold.PLP.Chemscore.Internal.Correction>
0.0666

> <Gold.Rescore>
     Score         DG    S(hbond)    S(metal)    S(lipo)     H(rot)  DE(clash)    DE(int)     intcor
     12.31     -14.24       1.24        0.00      73.43       1.55       1.34       0.60       ----

> <Gold.Chemscore.Fitness>
12.3052

> <Gold.Chemscore.DG>
-14.2408

> <Gold.Chemscore.ZeroCoef>
-5.4800

> <Gold.Chemscore.Hbond>
1.2392

> <Gold.Chemscore.Metal>
0.0000

> <Gold.Chemscore.Lipo>
73.4298

> <Gold.Chemscore.Internal_Hbond>
0.0000

> <Gold.Chemscore.DEClash>
1.3406

> <Gold.Chemscore.DEInternal>
0.5951

> <Gold.Chemscore.Rot>
1.5505

> <Gold.Chemscore.Internal.Correction>
   9.000000E+99

> <Gold.Chemscore.Hbonds>
donor molecule, donor type, donor heavy atom, donor atom, acceptor molecule, acceptor atom, score
      P1  H  6934  6947       L1     6  0.40
      P1  H  8011  8017       L1    13  0.20

> <Gold.Chemscore.Hbond.Weighted>
-4.1389

> <Gold.Chemscore.Metal.Weighted>
-0.0000

> <Gold.Chemscore.Lipo.Weighted>
-8.5913

> <Gold.Chemscore.Internal_Hbond.Weighted>
0.0000

> <Gold.Chemscore.DEClash.Weighted>
1.3406

> <Gold.Chemscore.DEInternal.Weighted>
0.5951

> <Gold.Chemscore.Rot.Weighted>
3.9693

> <Gold.Chemscore.Internal.Correction.Weighted>
   9.000000E+99

> <Gold.Protein.RotatedTorsions>
[ 6907 6896 6895 6894 ] final  112.54 input  -60.11 | X-H torsion
[ 7974 7965 7964 7962 ] final  -83.39 input  175.53 | X-H torsion
[ 8008 7997 7996 7995 ] final  -78.49 input   59.86 | X-H torsion
[ 10167 10162 10161 10158 ] final   88.30 input  -65.29 | X-H torsion
[ 10718 10713 10712 10709 ] final   92.12 input   66.30 | X-H torsion
[ 10763 10752 10751 10750 ] final  -89.80 input  -60.55 | X-H torsion
[ 11005 11000 10999 10996 ] final   54.23 input  -57.11 | X-H torsion

> <Gold.Protein.ActiveResidues>
 VAL166  LYS551  ARG553  GLY616  TRP617  ASP618  TYR619  PRO620  LYS621  CYS622 
 ASP623  PHE694  ASN695  SER759  ASP760  ASP761  ALA762  ILE779  LEU786  VAL792 
 PHE793  MET794  SER795  GLU796  ALA797  LYS798  CYS799  TRP800  GLU811  SER814 

> <Gold.Protein.RotatedAtoms>
  152.4911  133.8502  159.7197 H   0  0  0  0  0  0  0  0  0  0  0  0  # atno 6907 bound_to 6896
  150.9041  133.7071  159.2878 H   0  0  0  0  0  0  0  0  0  0  0  0  # atno 6908 bound_to 6896
  151.4502  135.1033  159.9748 H   0  0  0  0  0  0  0  0  0  0  0  0  # atno 6909 bound_to 6896
  145.5205  140.9532  143.1657 H   0  0  0  0  0  0  0  0  0  0  0  0  # atno 7974 bound_to 7965
  154.5694  140.0693  156.8941 H   0  0  0  0  0  0  0  0  0  0  0  0  # atno 8008 bound_to 7997
  155.2662  140.3362  155.4251 H   0  0  0  0  0  0  0  0  0  0  0  0  # atno 8009 bound_to 7997
  156.2106  140.1758  156.7688 H   0  0  0  0  0  0  0  0  0  0  0  0  # atno 8010 bound_to 7997
  139.8687  144.6505  150.8974 H   0  0  0  0  0  0  0  0  0  0  0  0  # atno 10167 bound_to 10162
  157.6959  131.0432  150.3834 H   0  0  0  0  0  0  0  0  0  0  0  0  # atno 10718 bound_to 10713
  154.6591  135.5327  153.7996 H   0  0  0  0  0  0  0  0  0  0  0  0  # atno 10763 bound_to 10752
  153.0431  135.6501  154.0899 H   0  0  0  0  0  0  0  0  0  0  0  0  # atno 10764 bound_to 10752
  154.0809  135.2947  155.3270 H   0  0  0  0  0  0  0  0  0  0  0  0  # atno 10765 bound_to 10752
  140.0703  134.5479  155.9054 H   0  0  0  0  0  0  0  0  0  0  0  0  # atno 11005 bound_to 11000
  144.7678  139.6804  143.7207 LP  0  0  0  0  0  0  0  0  0  0  0  0  # atno 17320 bound_to 7965
  146.2109  139.5464  142.9682 LP  0  0  0  0  0  0  0  0  0  0  0  0  # atno 17321 bound_to 7965
  140.7764  143.3682  151.1699 LP  0  0  0  0  0  0  0  0  0  0  0  0  # atno 17342 bound_to 10162
  139.7304  143.9081  152.3017 LP  0  0  0  0  0  0  0  0  0  0  0  0  # atno 17343 bound_to 10162
  156.4245  130.3959  149.6802 LP  0  0  0  0  0  0  0  0  0  0  0  0  # atno 17370 bound_to 10713
  156.4041  130.7689  151.2699 LP  0  0  0  0  0  0  0  0  0  0  0  0  # atno 17371 bound_to 10713
  141.2009  133.6615  156.5922 LP  0  0  0  0  0  0  0  0  0  0  0  0  # atno 17394 bound_to 11000
  140.3637  134.7665  157.4551 LP  0  0  0  0  0  0  0  0  0  0  0  0  # atno 17395 bound_to 11000

$$$$
