AV-unprocessed.smi:276|AV-procd|sdf|2076|dock5
  -GOLD-   2262021343D 1   1.00000     0.00000
 Structure written by MMmdl.
 57 61  0  0  0  0  0  0  0  0  1 V2000
  151.8676  145.1283  159.3446 C   0  0  0  0  0  0  0  0  0  0  0  0
  152.6664  144.1317  159.9578 O   0  0  0  0  0  0  0  0  0  0  0  0
  151.9689  142.9106  160.1437 C   0  0  2  0  0  0  0  0  0  0  0  0
  152.8742  141.6937  160.3653 C   0  0  0  0  0  0  0  0  0  0  0  0
  151.8835  140.8993  159.5041 C   0  0  2  0  0  0  0  0  0  0  0  0
  152.5379  139.8952  158.6614 N   0  0  0  0  0  0  0  0  0  0  0  0
  152.8266  138.6163  159.2975 C   0  0  0  0  0  0  0  0  0  0  0  0
  151.9970  139.6986  157.4377 C   0  0  0  0  0  0  0  0  0  0  0  0
  152.8576  139.6166  156.3923 N   0  0  0  0  0  0  0  0  0  0  0  0
  152.3908  139.4531  155.1511 C   0  0  0  0  0  0  0  0  0  0  0  0
  151.1247  139.3446  154.7430 N   0  0  0  0  0  0  0  0  0  0  0  0
  150.2594  139.3996  155.7955 C   0  0  0  0  0  0  0  0  0  0  0  0
  150.6053  139.5616  157.1665 C   0  0  0  0  0  0  0  0  0  0  0  0
  149.4549  139.5496  157.9473 N   0  0  0  0  0  0  0  0  0  0  0  0
  148.4846  139.4153  157.0855 C   0  0  0  0  0  0  0  0  0  0  0  0
  148.8792  139.3281  155.7701 N   0  0  0  0  0  0  0  0  0  0  0  0
  148.0191  139.1943  154.6097 C   0  0  0  0  0  0  0  0  0  0  0  0
  147.7667  140.5359  153.8896 C   0  0  1  0  0  0  0  0  0  0  0  0
  147.5245  140.2394  152.5290 O   0  0  0  0  0  0  0  0  0  0  0  0
  146.5805  141.3489  154.4554 C   0  0  2  0  0  0  0  0  0  0  0  0
  146.3880  142.7238  153.8151 C   0  0  0  0  0  0  0  0  0  0  0  0
  145.5560  143.4611  154.8470 C   0  0  0  0  0  0  0  0  0  0  0  0
  145.9158  142.7651  156.1614 C   0  0  0  0  0  0  0  0  0  0  0  0
  146.8040  141.7096  155.8119 O   0  0  0  0  0  0  0  0  0  0  0  0
  151.5109  142.2480  158.8299 C   0  0  0  0  0  0  0  0  0  0  0  0
  150.1046  142.5154  158.2778 C   0  0  0  0  0  0  0  0  0  0  0  0
  150.6893  142.5481  156.8622 C   0  0  0  0  0  0  0  0  0  0  0  0
  152.0860  142.7049  157.4731 C   0  0  0  0  0  0  0  0  0  0  0  0
  152.4506  146.0411  159.2249 H   0  0  0  0  0  0  0  0  0  0  0  0
  150.9929  145.3659  159.9512 H   0  0  0  0  0  0  0  0  0  0  0  0
  151.5327  144.8106  158.3564 H   0  0  0  0  0  0  0  0  0  0  0  0
  151.1569  142.9764  160.8716 H   0  0  0  0  0  0  0  0  0  0  0  0
  153.8578  141.8083  159.9053 H   0  0  0  0  0  0  0  0  0  0  0  0
  152.9472  141.3627  161.4014 H   0  0  0  0  0  0  0  0  0  0  0  0
  151.0710  140.5081  160.1179 H   0  0  0  0  0  0  0  0  0  0  0  0
  151.9034  138.1121  159.5862 H   0  0  0  0  0  0  0  0  0  0  0  0
  153.4296  138.7595  160.1943 H   0  0  0  0  0  0  0  0  0  0  0  0
  153.3836  137.9583  158.6289 H   0  0  0  0  0  0  0  0  0  0  0  0
  153.1385  139.4086  154.3731 H   0  0  0  0  0  0  0  0  0  0  0  0
  147.4476  139.3875  157.3868 H   0  0  0  0  0  0  0  0  0  0  0  0
  148.4794  138.4787  153.9270 H   0  0  0  0  0  0  0  0  0  0  0  0
  147.0741  138.7545  154.9320 H   0  0  0  0  0  0  0  0  0  0  0  0
  148.6687  141.1475  153.9327 H   0  0  0  0  0  0  0  0  0  0  0  0
  148.3538  140.0746  152.1067 H   0  0  0  0  0  0  0  0  0  0  0  0
  145.6541  140.7756  154.3836 H   0  0  0  0  0  0  0  0  0  0  0  0
  147.3516  143.2207  153.6929 H   0  0  0  0  0  0  0  0  0  0  0  0
  145.9041  142.6760  152.8390 H   0  0  0  0  0  0  0  0  0  0  0  0
  145.7752  144.5291  154.8636 H   0  0  0  0  0  0  0  0  0  0  0  0
  144.4925  143.3376  154.6373 H   0  0  0  0  0  0  0  0  0  0  0  0
  146.3988  143.4433  156.8649 H   0  0  0  0  0  0  0  0  0  0  0  0
  145.0262  142.3553  156.6413 H   0  0  0  0  0  0  0  0  0  0  0  0
  149.3846  141.7159  158.4494 H   0  0  0  0  0  0  0  0  0  0  0  0
  149.7085  143.4831  158.5882 H   0  0  0  0  0  0  0  0  0  0  0  0
  150.5557  141.6087  156.3259 H   0  0  0  0  0  0  0  0  0  0  0  0
  150.3633  143.3977  156.2619 H   0  0  0  0  0  0  0  0  0  0  0  0
  152.4123  143.7452  157.4700 H   0  0  0  0  0  0  0  0  0  0  0  0
  152.8472  142.0573  157.0397 H   0  0  0  0  0  0  0  0  0  0  0  0
  1  2  1  0  0  0  0
  1 29  1  0  0  0  0
  1 30  1  0  0  0  0
  1 31  1  0  0  0  0
  2  3  1  0  0  0  0
  3 25  1  0  0  0  0
  3  4  1  0  0  0  0
  3 32  1  0  0  0  0
  4  5  1  0  0  0  0
  4 33  1  0  0  0  0
  4 34  1  0  0  0  0
  5  6  1  0  0  0  0
  5 25  1  0  0  0  0
  5 35  1  0  0  0  0
  6  7  1  0  0  0  0
  6  8  1  0  0  0  0
  7 36  1  0  0  0  0
  7 37  1  0  0  0  0
  7 38  1  0  0  0  0
  8 13  1  0  0  0  0
  8  9  2  0  0  0  0
  9 10  1  0  0  0  0
 10 11  2  0  0  0  0
 10 39  1  0  0  0  0
 11 12  1  0  0  0  0
 12 16  1  0  0  0  0
 12 13  2  0  0  0  0
 13 14  1  0  0  0  0
 14 15  2  0  0  0  0
 15 16  1  0  0  0  0
 15 40  1  0  0  0  0
 16 17  1  0  0  0  0
 17 18  1  0  0  0  0
 17 41  1  0  0  0  0
 17 42  1  0  0  0  0
 18 19  1  0  0  0  0
 18 20  1  0  0  0  0
 18 43  1  0  0  0  0
 19 44  1  0  0  0  0
 20 24  1  0  0  0  0
 20 21  1  0  0  0  0
 20 45  1  0  0  0  0
 21 22  1  0  0  0  0
 21 46  1  0  0  0  0
 21 47  1  0  0  0  0
 22 23  1  0  0  0  0
 22 48  1  0  0  0  0
 22 49  1  0  0  0  0
 23 24  1  0  0  0  0
 23 50  1  0  0  0  0
 23 51  1  0  0  0  0
 25 28  1  0  0  0  0
 25 26  1  0  0  0  0
 26 27  1  0  0  0  0
 26 52  1  0  0  0  0
 26 53  1  0  0  0  0
 27 28  1  0  0  0  0
 27 54  1  0  0  0  0
 27 55  1  0  0  0  0
 28 56  1  0  0  0  0
 28 57  1  0  0  0  0
M  END
> <s_m_source_file>
AV-unprocessed.smi

> <i_m_source_file_index>
276

> <i_lp_mmshare_version>
43012

> <i_f3d_flags>
0

> <s_epik_input>
W0NIMl0xW0NIMl1bQ0gyXUMxMltDQEhdKE9bQ0gzXSlbQ0gyXVtDQEhdMk4oW0NIM10pYyhuW2NIXW4zKWMoYzM0KW5bY0hdbjRbQ0gyXVtDQEhdKFtPSF0pW0NAQEhdNVtDSDJdW0NIMl1bQ0gyXU81

> <s_epik_cmdline>
J2VwaWtfcHl0aG9uJywgJy1waCcsICc3LjAnLCAnLXRuJywgJzgnLCAnLW1hJywgJzIwMCcsICctbWV0YWxfYmluZGluZycsICctaW1hZScsICc8aW5maWxlLm1hZT4nLCAnLW9tYWUnLCAnPG91dGZpbGUubWFlPic=

> <r_lp_tautomer_probability>
1

> <r_epik_Ionization_Penalty>
0.00204117

> <r_epik_Ionization_Penalty_Charging>
0

> <r_epik_Ionization_Penalty_Neutral>
0.00204117

> <r_epik_State_Penalty>
0.00127401

> <r_epik_Charging_Adjusted_Penalty>
0.00127401

> <i_epik_Tot_Q>
0

> <i_epik_Tot_abs_Q>
0

> <r_epik_Metal_State_Penalty>
-0

> <b_epik_Metal_Only>
0

> <s_lp_Force_Field>
OPLS_2005

> <r_lp_Energy>
54.0539

> <b_lp_Chiralities_Consistent>
1

> <s_lp_Variant>
AV-unprocessed.smi:276-7

> <Gold.Version>
5.8.1

> <Gold.Id.Protein>
6NUR|6NUR_protein|mol2

> <Gold.PLP.Fitness>
45.7792

> <Gold.PLP.PLP>
-42.0835

> <Gold.PLP.part.hbond>
-2.8105

> <Gold.PLP.part.metal>
0.0000

> <Gold.PLP.part.buried>
-6.9404

> <Gold.PLP.part.nonpolar>
-32.8367

> <Gold.PLP.part.repulsive>
0.2065

> <Gold.PLP.ligand.clash>
0.0000

> <Gold.PLP.ligand.torsion>
1.7184

> <Gold.PLP.Chemscore.Hbond>
2.1487

> <Gold.PLP.Chemscore.CHOScore>
0.0000

> <Gold.PLP.Chemscore.Metal>
0.0000

> <Gold.Chemscore.Hbonds>
donor molecule, donor type, donor heavy atom, donor atom, acceptor molecule, acceptor atom, score
      L1  H    19    44       P1  7957  1.00
      P1  H  7989  7998       L1    11  0.15
      P1  H  7997  8009       L1     9  1.00

> <Gold.PLP.Chemscore.Internal.Correction>
0.6865

> <Gold.Rescore>
     Score         DG    S(hbond)    S(metal)    S(lipo)     H(rot)  DE(clash)    DE(int)     intcor
     15.30     -18.57       1.92        0.00     116.62       2.72       1.80       1.47       ----

> <Gold.Chemscore.Fitness>
15.3030

> <Gold.Chemscore.DG>
-18.5721

> <Gold.Chemscore.ZeroCoef>
-5.4800

> <Gold.Chemscore.Hbond>
1.9172

> <Gold.Chemscore.Metal>
0.0000

> <Gold.Chemscore.Lipo>
116.6200

> <Gold.Chemscore.Internal_Hbond>
0.0000

> <Gold.Chemscore.DEClash>
1.8017

> <Gold.Chemscore.DEInternal>
1.4675

> <Gold.Chemscore.Rot>
2.7172

> <Gold.Chemscore.Internal.Correction>
   9.000000E+99

> <Gold.Chemscore.Hbonds>
donor molecule, donor type, donor heavy atom, donor atom, acceptor molecule, acceptor atom, score
      L1  H    19    44       P1  7957  0.96
      P1  H  7997  8009       L1     9  0.90

> <Gold.Chemscore.Hbond.Weighted>
-6.4036

> <Gold.Chemscore.Metal.Weighted>
-0.0000

> <Gold.Chemscore.Lipo.Weighted>
-13.6445

> <Gold.Chemscore.Internal_Hbond.Weighted>
0.0000

> <Gold.Chemscore.DEClash.Weighted>
1.8017

> <Gold.Chemscore.DEInternal.Weighted>
1.4675

> <Gold.Chemscore.Rot.Weighted>
6.9560

> <Gold.Chemscore.Internal.Correction.Weighted>
   9.000000E+99

> <Gold.Protein.RotatedTorsions>
[ 6907 6896 6895 6894 ] final -119.56 input  -60.11 | X-H torsion
[ 7974 7965 7964 7962 ] final  153.57 input  175.53 | X-H torsion
[ 8008 7997 7996 7995 ] final  176.84 input   59.86 | X-H torsion
[ 10167 10162 10161 10158 ] final  -76.34 input  -65.29 | X-H torsion
[ 10718 10713 10712 10709 ] final   -2.29 input   66.30 | X-H torsion
[ 10763 10752 10751 10750 ] final   53.73 input  -60.55 | X-H torsion
[ 11005 11000 10999 10996 ] final  129.50 input  -57.11 | X-H torsion

> <Gold.Protein.ActiveResidues>
 VAL166  LYS551  ARG553  GLY616  TRP617  ASP618  TYR619  PRO620  LYS621  CYS622 
 ASP623  PHE694  ASN695  SER759  ASP760  ASP761  ALA762  ILE779  LEU786  VAL792 
 PHE793  MET794  SER795  GLU796  ALA797  LYS798  CYS799  TRP800  GLU811  SER814 

> <Gold.Protein.RotatedAtoms>
  150.8315  133.8082  159.3096 H   0  0  0  0  0  0  0  0  0  0  0  0  # atno 6907 bound_to 6896
  151.5811  135.1056  160.0027 H   0  0  0  0  0  0  0  0  0  0  0  0  # atno 6908 bound_to 6896
  152.4394  133.7379  159.6680 H   0  0  0  0  0  0  0  0  0  0  0  0  # atno 6909 bound_to 6896
  144.8145  139.6818  143.6127 H   0  0  0  0  0  0  0  0  0  0  0  0  # atno 7974 bound_to 7965
  156.0721  140.1373  156.9816 H   0  0  0  0  0  0  0  0  0  0  0  0  # atno 8008 bound_to 7997
  154.4537  140.0969  156.6747 H   0  0  0  0  0  0  0  0  0  0  0  0  # atno 8009 bound_to 7997
  155.5211  140.3456  155.4409 H   0  0  0  0  0  0  0  0  0  0  0  0  # atno 8010 bound_to 7997
  140.4866  143.2390  151.7974 H   0  0  0  0  0  0  0  0  0  0  0  0  # atno 10167 bound_to 10162
  156.7929  130.5368  149.5733 H   0  0  0  0  0  0  0  0  0  0  0  0  # atno 10718 bound_to 10713
  152.9798  135.5769  154.4790 H   0  0  0  0  0  0  0  0  0  0  0  0  # atno 10763 bound_to 10752
  154.4341  135.2774  155.1894 H   0  0  0  0  0  0  0  0  0  0  0  0  # atno 10764 bound_to 10752
  154.3590  135.6193  153.5735 H   0  0  0  0  0  0  0  0  0  0  0  0  # atno 10765 bound_to 10752
  139.9619  134.9600  156.9157 H   0  0  0  0  0  0  0  0  0  0  0  0  # atno 11005 bound_to 11000
  146.2447  139.6074  142.9467 LP  0  0  0  0  0  0  0  0  0  0  0  0  # atno 17320 bound_to 7965
  145.5245  141.0430  143.2417 LP  0  0  0  0  0  0  0  0  0  0  0  0  # atno 17321 bound_to 7965
  139.4843  144.4704  151.9432 LP  0  0  0  0  0  0  0  0  0  0  0  0  # atno 17342 bound_to 10162
  140.3790  144.2760  150.5911 LP  0  0  0  0  0  0  0  0  0  0  0  0  # atno 17343 bound_to 10162
  156.1148  130.6066  151.0103 LP  0  0  0  0  0  0  0  0  0  0  0  0  # atno 17370 bound_to 10713
  157.6591  131.0884  150.7879 LP  0  0  0  0  0  0  0  0  0  0  0  0  # atno 17371 bound_to 10713
  140.5481  134.0654  155.7361 LP  0  0  0  0  0  0  0  0  0  0  0  0  # atno 17394 bound_to 11000
  141.1297  133.9324  157.2562 LP  0  0  0  0  0  0  0  0  0  0  0  0  # atno 17395 bound_to 11000

$$$$
