AV-unprocessed.smi:276|AV-procd|sdf|2074|dock7
  -GOLD-   2262021333D 1   1.00000     0.00000
 Structure written by MMmdl.
 57 61  0  0  0  0  0  0  0  0  1 V2000
  152.7265  142.4210  162.3568 C   0  0  0  0  0  0  0  0  0  0  0  0
  152.6854  143.0292  161.0781 O   0  0  0  0  0  0  0  0  0  0  0  0
  151.8745  142.3140  160.1595 C   0  0  2  0  0  0  0  0  0  0  0  0
  152.6534  141.5563  159.0764 C   0  0  0  0  0  0  0  0  0  0  0  0
  151.5887  142.0093  158.0572 C   0  0  1  0  0  0  0  0  0  0  0  0
  150.5181  141.0112  157.9180 N   0  0  0  0  0  0  0  0  0  0  0  0
  150.9523  139.6281  157.7483 C   0  0  0  0  0  0  0  0  0  0  0  0
  149.5701  141.3011  157.0003 C   0  0  0  0  0  0  0  0  0  0  0  0
  149.9583  141.3346  155.7013 N   0  0  0  0  0  0  0  0  0  0  0  0
  149.0655  141.6066  154.7450 C   0  0  0  0  0  0  0  0  0  0  0  0
  147.7646  141.8783  154.8696 N   0  0  0  0  0  0  0  0  0  0  0  0
  147.3772  141.8636  156.1772 C   0  0  0  0  0  0  0  0  0  0  0  0
  148.2075  141.5877  157.2992 C   0  0  0  0  0  0  0  0  0  0  0  0
  147.4634  141.6677  158.4704 N   0  0  0  0  0  0  0  0  0  0  0  0
  146.2620  141.9746  158.0640 C   0  0  0  0  0  0  0  0  0  0  0  0
  146.1236  142.1215  156.7024 N   0  0  0  0  0  0  0  0  0  0  0  0
  144.9113  142.4701  155.9841 C   0  0  0  0  0  0  0  0  0  0  0  0
  144.9717  143.8640  155.3215 C   0  0  1  0  0  0  0  0  0  0  0  0
  145.3940  143.6696  153.9865 O   0  0  0  0  0  0  0  0  0  0  0  0
  143.6344  144.6401  155.3182 C   0  0  2  0  0  0  0  0  0  0  0  0
  143.6353  145.8808  154.4187 C   0  0  0  0  0  0  0  0  0  0  0  0
  142.5840  146.7483  155.0698 C   0  0  0  0  0  0  0  0  0  0  0  0
  142.8543  146.4885  156.5456 C   0  0  0  0  0  0  0  0  0  0  0  0
  143.3242  145.1466  156.6174 O   0  0  0  0  0  0  0  0  0  0  0  0
  151.2939  143.1841  159.0300 C   0  0  0  0  0  0  0  0  0  0  0  0
  151.8991  144.5718  158.7458 C   0  0  0  0  0  0  0  0  0  0  0  0
  150.7177  145.1831  159.5041 C   0  0  0  0  0  0  0  0  0  0  0  0
  149.9407  143.9026  159.1904 C   0  0  0  0  0  0  0  0  0  0  0  0
  153.3515  143.0149  163.0234 H   0  0  0  0  0  0  0  0  0  0  0  0
  153.1494  141.4170  162.3057 H   0  0  0  0  0  0  0  0  0  0  0  0
  151.7301  142.3594  162.7957 H   0  0  0  0  0  0  0  0  0  0  0  0
  151.1056  141.7037  160.6382 H   0  0  0  0  0  0  0  0  0  0  0  0
  153.6314  141.9986  158.8790 H   0  0  0  0  0  0  0  0  0  0  0  0
  152.7388  140.4848  159.2548 H   0  0  0  0  0  0  0  0  0  0  0  0
  152.0299  142.3246  157.1113 H   0  0  0  0  0  0  0  0  0  0  0  0
  150.1340  138.9803  157.4285 H   0  0  0  0  0  0  0  0  0  0  0  0
  151.3311  139.2255  158.6869 H   0  0  0  0  0  0  0  0  0  0  0  0
  151.7467  139.5631  157.0037 H   0  0  0  0  0  0  0  0  0  0  0  0
  149.4481  141.6068  153.7352 H   0  0  0  0  0  0  0  0  0  0  0  0
  145.4417  142.1139  158.7527 H   0  0  0  0  0  0  0  0  0  0  0  0
  144.7365  141.7019  155.2295 H   0  0  0  0  0  0  0  0  0  0  0  0
  144.0726  142.4205  156.6801 H   0  0  0  0  0  0  0  0  0  0  0  0
  145.7320  144.4685  155.8169 H   0  0  0  0  0  0  0  0  0  0  0  0
  145.1514  142.7963  153.7195 H   0  0  0  0  0  0  0  0  0  0  0  0
  142.8177  143.9823  155.0160 H   0  0  0  0  0  0  0  0  0  0  0  0
  144.6031  146.3831  154.4568 H   0  0  0  0  0  0  0  0  0  0  0  0
  143.4119  145.6510  153.3765 H   0  0  0  0  0  0  0  0  0  0  0  0
  142.6661  147.8013  154.7992 H   0  0  0  0  0  0  0  0  0  0  0  0
  141.5866  146.3986  154.7997 H   0  0  0  0  0  0  0  0  0  0  0  0
  143.6412  147.1492  156.9116 H   0  0  0  0  0  0  0  0  0  0  0  0
  141.9699  146.6359  157.1657 H   0  0  0  0  0  0  0  0  0  0  0  0
  152.8769  144.7615  159.1893 H   0  0  0  0  0  0  0  0  0  0  0  0
  151.8894  144.8242  157.6840 H   0  0  0  0  0  0  0  0  0  0  0  0
  150.9161  145.3069  160.5700 H   0  0  0  0  0  0  0  0  0  0  0  0
  150.3066  146.0891  159.0584 H   0  0  0  0  0  0  0  0  0  0  0  0
  149.3776  144.0013  158.2622 H   0  0  0  0  0  0  0  0  0  0  0  0
  149.3165  143.5336  160.0046 H   0  0  0  0  0  0  0  0  0  0  0  0
  1  2  1  0  0  0  0
  1 29  1  0  0  0  0
  1 30  1  0  0  0  0
  1 31  1  0  0  0  0
  2  3  1  0  0  0  0
  3 25  1  0  0  0  0
  3  4  1  0  0  0  0
  3 32  1  0  0  0  0
  4  5  1  0  0  0  0
  4 33  1  0  0  0  0
  4 34  1  0  0  0  0
  5  6  1  0  0  0  0
  5 25  1  0  0  0  0
  5 35  1  0  0  0  0
  6  7  1  0  0  0  0
  6  8  1  0  0  0  0
  7 36  1  0  0  0  0
  7 37  1  0  0  0  0
  7 38  1  0  0  0  0
  8 13  1  0  0  0  0
  8  9  2  0  0  0  0
  9 10  1  0  0  0  0
 10 11  2  0  0  0  0
 10 39  1  0  0  0  0
 11 12  1  0  0  0  0
 12 16  1  0  0  0  0
 12 13  2  0  0  0  0
 13 14  1  0  0  0  0
 14 15  2  0  0  0  0
 15 16  1  0  0  0  0
 15 40  1  0  0  0  0
 16 17  1  0  0  0  0
 17 18  1  0  0  0  0
 17 41  1  0  0  0  0
 17 42  1  0  0  0  0
 18 19  1  0  0  0  0
 18 20  1  0  0  0  0
 18 43  1  0  0  0  0
 19 44  1  0  0  0  0
 20 24  1  0  0  0  0
 20 21  1  0  0  0  0
 20 45  1  0  0  0  0
 21 22  1  0  0  0  0
 21 46  1  0  0  0  0
 21 47  1  0  0  0  0
 22 23  1  0  0  0  0
 22 48  1  0  0  0  0
 22 49  1  0  0  0  0
 23 24  1  0  0  0  0
 23 50  1  0  0  0  0
 23 51  1  0  0  0  0
 25 28  1  0  0  0  0
 25 26  1  0  0  0  0
 26 27  1  0  0  0  0
 26 52  1  0  0  0  0
 26 53  1  0  0  0  0
 27 28  1  0  0  0  0
 27 54  1  0  0  0  0
 27 55  1  0  0  0  0
 28 56  1  0  0  0  0
 28 57  1  0  0  0  0
M  END
> <s_m_source_file>
AV-unprocessed.smi

> <i_m_source_file_index>
276

> <i_lp_mmshare_version>
43012

> <i_f3d_flags>
0

> <s_epik_input>
W0NIMl0xW0NIMl1bQ0gyXUMxMltDQEhdKE9bQ0gzXSlbQ0gyXVtDQEhdMk4oW0NIM10pYyhuW2NIXW4zKWMoYzM0KW5bY0hdbjRbQ0gyXVtDQEhdKFtPSF0pW0NAQEhdNVtDSDJdW0NIMl1bQ0gyXU81

> <s_epik_cmdline>
J2VwaWtfcHl0aG9uJywgJy1waCcsICc3LjAnLCAnLXRuJywgJzgnLCAnLW1hJywgJzIwMCcsICctbWV0YWxfYmluZGluZycsICctaW1hZScsICc8aW5maWxlLm1hZT4nLCAnLW9tYWUnLCAnPG91dGZpbGUubWFlPic=

> <r_lp_tautomer_probability>
1

> <r_epik_Ionization_Penalty>
0.00204117

> <r_epik_Ionization_Penalty_Charging>
0

> <r_epik_Ionization_Penalty_Neutral>
0.00204117

> <r_epik_State_Penalty>
0.00127401

> <r_epik_Charging_Adjusted_Penalty>
0.00127401

> <i_epik_Tot_Q>
0

> <i_epik_Tot_abs_Q>
0

> <r_epik_Metal_State_Penalty>
-0

> <b_epik_Metal_Only>
0

> <s_lp_Force_Field>
OPLS_2005

> <r_lp_Energy>
56.3497

> <b_lp_Chiralities_Consistent>
1

> <s_lp_Variant>
AV-unprocessed.smi:276-5

> <Gold.Version>
5.8.1

> <Gold.Id.Protein>
6NUR|6NUR_protein|mol2

> <Gold.PLP.Fitness>
51.5438

> <Gold.PLP.PLP>
-52.2654

> <Gold.PLP.part.hbond>
-0.6222

> <Gold.PLP.part.metal>
0.0000

> <Gold.PLP.part.buried>
-7.4927

> <Gold.PLP.part.nonpolar>
-43.3756

> <Gold.PLP.part.repulsive>
0.3348

> <Gold.PLP.ligand.clash>
0.0000

> <Gold.PLP.ligand.torsion>
1.6991

> <Gold.PLP.Chemscore.Hbond>
0.0000

> <Gold.PLP.Chemscore.CHOScore>
0.6617

> <Gold.PLP.Chemscore.Metal>
0.0000

> <Gold.Chemscore.Hbonds>
donor molecule, donor type, donor heavy atom, donor atom, acceptor molecule, acceptor atom, score
      P1  H  6934  6946       L1    14  0.01

> <Gold.PLP.Chemscore.Internal.Correction>
0.6914

> <Gold.Rescore>
     Score         DG    S(hbond)    S(metal)    S(lipo)     H(rot)  DE(clash)    DE(int)     intcor
     11.79     -13.53       0.00        0.00     128.25       2.72       0.02       1.73       ----

> <Gold.Chemscore.Fitness>
11.7858

> <Gold.Chemscore.DG>
-13.5298

> <Gold.Chemscore.ZeroCoef>
-5.4800

> <Gold.Chemscore.Hbond>
0.0000

> <Gold.Chemscore.Metal>
0.0000

> <Gold.Chemscore.Lipo>
128.2544

> <Gold.Chemscore.Internal_Hbond>
0.0000

> <Gold.Chemscore.DEClash>
0.0183

> <Gold.Chemscore.DEInternal>
1.7256

> <Gold.Chemscore.Rot>
2.7172

> <Gold.Chemscore.Internal.Correction>
   9.000000E+99

> <Gold.Chemscore.Hbonds>
donor molecule, donor type, donor heavy atom, donor atom, acceptor molecule, acceptor atom, score
      P1  H  6934  6946       L1    14  0.01

> <Gold.Chemscore.Hbond.Weighted>
-0.0000

> <Gold.Chemscore.Metal.Weighted>
-0.0000

> <Gold.Chemscore.Lipo.Weighted>
-15.0058

> <Gold.Chemscore.Internal_Hbond.Weighted>
0.0000

> <Gold.Chemscore.DEClash.Weighted>
0.0183

> <Gold.Chemscore.DEInternal.Weighted>
1.7256

> <Gold.Chemscore.Rot.Weighted>
6.9560

> <Gold.Chemscore.Internal.Correction.Weighted>
   9.000000E+99

> <Gold.Protein.RotatedTorsions>
[ 6907 6896 6895 6894 ] final  151.10 input  -60.11 | X-H torsion
[ 7974 7965 7964 7962 ] final   32.04 input  175.53 | X-H torsion
[ 8008 7997 7996 7995 ] final   37.11 input   59.86 | X-H torsion
[ 10167 10162 10161 10158 ] final  -22.20 input  -65.29 | X-H torsion
[ 10718 10713 10712 10709 ] final   82.96 input   66.30 | X-H torsion
[ 10763 10752 10751 10750 ] final   66.60 input  -60.55 | X-H torsion
[ 11005 11000 10999 10996 ] final  -12.80 input  -57.11 | X-H torsion

> <Gold.Protein.ActiveResidues>
 VAL166  LYS551  ARG553  GLY616  TRP617  ASP618  TYR619  PRO620  LYS621  CYS622 
 ASP623  PHE694  ASN695  SER759  ASP760  ASP761  ALA762  ILE779  LEU786  VAL792 
 PHE793  MET794  SER795  GLU796  ALA797  LYS798  CYS799  TRP800  GLU811  SER814 

> <Gold.Protein.RotatedAtoms>
  152.1053  133.4271  159.4605 H   0  0  0  0  0  0  0  0  0  0  0  0  # atno 6907 bound_to 6896
  150.6865  134.2712  159.4598 H   0  0  0  0  0  0  0  0  0  0  0  0  # atno 6908 bound_to 6896
  152.0576  134.9614  160.0625 H   0  0  0  0  0  0  0  0  0  0  0  0  # atno 6909 bound_to 6896
  146.1512  139.6578  142.9097 H   0  0  0  0  0  0  0  0  0  0  0  0  # atno 7974 bound_to 7965
  155.1983  140.3313  155.4347 H   0  0  0  0  0  0  0  0  0  0  0  0  # atno 8008 bound_to 7997
  156.2416  140.1898  156.7022 H   0  0  0  0  0  0  0  0  0  0  0  0  # atno 8009 bound_to 7997
  154.6158  140.0602  156.9538 H   0  0  0  0  0  0  0  0  0  0  0  0  # atno 8010 bound_to 7997
  140.7285  143.4557  151.0452 H   0  0  0  0  0  0  0  0  0  0  0  0  # atno 10167 bound_to 10162
  157.6869  131.0070  150.2452 H   0  0  0  0  0  0  0  0  0  0  0  0  # atno 10718 bound_to 10713
  153.0147  135.5314  154.6849 H   0  0  0  0  0  0  0  0  0  0  0  0  # atno 10763 bound_to 10752
  154.5999  135.2867  155.0549 H   0  0  0  0  0  0  0  0  0  0  0  0  # atno 10764 bound_to 10752
  154.1610  135.6547  153.5038 H   0  0  0  0  0  0  0  0  0  0  0  0  # atno 10765 bound_to 10752
  140.7695  133.8450  155.9195 H   0  0  0  0  0  0  0  0  0  0  0  0  # atno 11005 bound_to 11000
  145.4818  141.0438  143.2641 LP  0  0  0  0  0  0  0  0  0  0  0  0  # atno 17320 bound_to 7965
  144.7906  139.6335  143.7115 LP  0  0  0  0  0  0  0  0  0  0  0  0  # atno 17321 bound_to 7965
  139.8237  143.7785  152.3178 LP  0  0  0  0  0  0  0  0  0  0  0  0  # atno 17342 bound_to 10162
  139.7876  144.7422  150.9999 LP  0  0  0  0  0  0  0  0  0  0  0  0  # atno 17343 bound_to 10162
  156.3059  130.3765  149.7706 LP  0  0  0  0  0  0  0  0  0  0  0  0  # atno 17370 bound_to 10713
  156.5322  130.8262  151.3241 LP  0  0  0  0  0  0  0  0  0  0  0  0  # atno 17371 bound_to 10713
  140.9587  134.1684  157.4671 LP  0  0  0  0  0  0  0  0  0  0  0  0  # atno 17394 bound_to 11000
  139.8758  134.9936  156.5655 LP  0  0  0  0  0  0  0  0  0  0  0  0  # atno 17395 bound_to 11000

$$$$
