AV-unprocessed.smi:1331|AV-procd|sdf|5487|dock9
  -GOLD-   22720 5 63D 1   1.00000     0.00000
 Structure written by MMmdl.
 38 39  0  0  0  0  0  0  0  0  1 V2000
  147.8390  141.9909  154.8005 C   0  0  0  0  0  0  0  0  0  0  0  0
  149.1960  141.3142  154.5556 C   0  0  2  0  0  0  0  0  0  0  0  0
  149.0931  139.7799  154.6504 C   0  0  0  0  0  0  0  0  0  0  0  0
  150.3851  139.1558  154.8784 N   0  0  0  0  0  0  0  0  0  0  0  0
  150.6524  137.8607  155.2691 C   0  0  0  0  0  0  0  0  0  0  0  0
  152.0097  137.7300  155.3403 C   0  0  0  0  0  0  0  0  0  0  0  0
  152.4932  139.0158  154.9697 C   0  0  0  0  0  0  0  0  0  0  0  0
  151.5187  139.8676  154.6949 N   0  0  0  0  0  0  0  0  0  0  0  0
  150.1771  141.8098  155.5180 N   0  0  0  0  0  0  0  0  0  0  0  0
  150.0613  141.7484  156.8531 C   0  0  0  0  0  0  0  0  0  0  0  0
  149.1111  141.2146  157.4264 O   0  0  0  0  0  0  0  0  0  0  0  0
  151.1910  142.3968  157.6635 C   0  0  0  0  0  0  0  0  0  0  0  0
  151.8529  141.3748  158.6126 C   0  0  0  0  0  0  0  0  0  0  0  0
  152.9740  142.0249  159.4396 C   0  0  0  0  0  0  0  0  0  0  0  0
  152.4535  143.2388  160.2253 C   0  0  0  0  0  0  0  0  0  0  0  0
  151.7861  144.2608  159.2912 C   0  0  0  0  0  0  0  0  0  0  0  0
  150.6672  143.6102  158.4612 C   0  0  0  0  0  0  0  0  0  0  0  0
  147.0945  141.6466  154.0826 H   0  0  0  0  0  0  0  0  0  0  0  0
  147.9147  143.0742  154.6993 H   0  0  0  0  0  0  0  0  0  0  0  0
  147.4622  141.7747  155.8007 H   0  0  0  0  0  0  0  0  0  0  0  0
  149.5201  141.5644  153.5434 H   0  0  0  0  0  0  0  0  0  0  0  0
  148.4062  139.4867  155.4463 H   0  0  0  0  0  0  0  0  0  0  0  0
  148.6861  139.3735  153.7237 H   0  0  0  0  0  0  0  0  0  0  0  0
  149.8631  137.1479  155.4581 H   0  0  0  0  0  0  0  0  0  0  0  0
  152.5717  136.8495  155.6140 H   0  0  0  0  0  0  0  0  0  0  0  0
  153.5164  139.3532  154.8929 H   0  0  0  0  0  0  0  0  0  0  0  0
  150.9909  142.2711  155.1373 H   0  0  0  0  0  0  0  0  0  0  0  0
  151.9523  142.7525  156.9665 H   0  0  0  0  0  0  0  0  0  0  0  0
  151.1091  140.9513  159.2897 H   0  0  0  0  0  0  0  0  0  0  0  0
  152.2597  140.5399  158.0405 H   0  0  0  0  0  0  0  0  0  0  0  0
  153.4016  141.2935  160.1259 H   0  0  0  0  0  0  0  0  0  0  0  0
  153.7828  142.3371  158.7776 H   0  0  0  0  0  0  0  0  0  0  0  0
  151.7351  142.9067  160.9756 H   0  0  0  0  0  0  0  0  0  0  0  0
  153.2730  143.7101  160.7685 H   0  0  0  0  0  0  0  0  0  0  0  0
  151.3821  145.0887  159.8745 H   0  0  0  0  0  0  0  0  0  0  0  0
  152.5343  144.6891  158.6232 H   0  0  0  0  0  0  0  0  0  0  0  0
  150.2411  144.3499  157.7816 H   0  0  0  0  0  0  0  0  0  0  0  0
  149.8596  143.3028  159.1278 H   0  0  0  0  0  0  0  0  0  0  0  0
  1  2  1  0  0  0  0
  1 18  1  0  0  0  0
  1 19  1  0  0  0  0
  1 20  1  0  0  0  0
  2  3  1  0  0  0  0
  2  9  1  0  0  0  0
  2 21  1  0  0  0  0
  3  4  1  0  0  0  0
  3 22  1  0  0  0  0
  3 23  1  0  0  0  0
  4  8  1  0  0  0  0
  4  5  1  0  0  0  0
  5  6  2  0  0  0  0
  5 24  1  0  0  0  0
  6  7  1  0  0  0  0
  6 25  1  0  0  0  0
  7  8  2  0  0  0  0
  7 26  1  0  0  0  0
  9 10  1  0  0  0  0
  9 27  1  0  0  0  0
 10 11  2  0  0  0  0
 10 12  1  0  0  0  0
 12 17  1  0  0  0  0
 12 13  1  0  0  0  0
 12 28  1  0  0  0  0
 13 14  1  0  0  0  0
 13 29  1  0  0  0  0
 13 30  1  0  0  0  0
 14 15  1  0  0  0  0
 14 31  1  0  0  0  0
 14 32  1  0  0  0  0
 15 16  1  0  0  0  0
 15 33  1  0  0  0  0
 15 34  1  0  0  0  0
 16 17  1  0  0  0  0
 16 35  1  0  0  0  0
 16 36  1  0  0  0  0
 17 37  1  0  0  0  0
 17 38  1  0  0  0  0
M  END
> <s_m_source_file>
AV-unprocessed.smi

> <i_m_source_file_index>
1331

> <i_lp_mmshare_version>
43012

> <i_f3d_flags>
0

> <s_epik_input>
bjFbY0hdW2NIXVtjSF1uMVtDSDJdW0NAQEhdKFtDSDNdKVtOSF1DKD1PKVtDSF0yW0NIMl1bQ0gyXVtDSDJdW0NIMl1bQ0gyXTI=

> <s_epik_cmdline>
J2VwaWtfcHl0aG9uJywgJy1waCcsICc3LjAnLCAnLXRuJywgJzgnLCAnLW1hJywgJzIwMCcsICctbWV0YWxfYmluZGluZycsICctaW1hZScsICc8aW5maWxlLm1hZT4nLCAnLW9tYWUnLCAnPG91dGZpbGUubWFlPic=

> <r_lp_tautomer_probability>
1

> <r_epik_Ionization_Penalty>
0.000326658

> <r_epik_Ionization_Penalty_Charging>
0

> <r_epik_Ionization_Penalty_Neutral>
0.000326658

> <r_epik_State_Penalty>
-0

> <r_epik_Charging_Adjusted_Penalty>
0

> <i_epik_Tot_Q>
0

> <i_epik_Tot_abs_Q>
0

> <r_epik_Metal_State_Penalty>
-0

> <b_epik_Metal_Only>
0

> <s_lp_Force_Field>
OPLS_2005

> <r_lp_Energy>
10.6365

> <b_lp_Chiralities_Consistent>
1

> <s_lp_Variant>
AV-unprocessed.smi:1331-1

> <Gold.Version>
5.8.1

> <Gold.Id.Protein>
6NUR|6NUR_protein|mol2

> <Gold.PLP.Fitness>
40.0617

> <Gold.PLP.PLP>
-37.8719

> <Gold.PLP.part.hbond>
-1.4755

> <Gold.PLP.part.metal>
0.0000

> <Gold.PLP.part.buried>
-2.9938

> <Gold.PLP.part.nonpolar>
-35.0127

> <Gold.PLP.part.repulsive>
0.2973

> <Gold.PLP.ligand.clash>
0.0023

> <Gold.PLP.ligand.torsion>
0.4211

> <Gold.PLP.Chemscore.Hbond>
1.0000

> <Gold.PLP.Chemscore.CHOScore>
0.0000

> <Gold.PLP.Chemscore.Metal>
0.0000

> <Gold.Chemscore.Hbonds>
donor molecule, donor type, donor heavy atom, donor atom, acceptor molecule, acceptor atom, score
      P1  H  7989  7998       L1     8  1.00

> <Gold.PLP.Chemscore.Internal.Correction>
0.0342

> <Gold.Rescore>
     Score         DG    S(hbond)    S(metal)    S(lipo)     H(rot)  DE(clash)    DE(int)     intcor
     15.58     -16.81       0.98        0.00     101.49       1.49       0.04       1.18       ----

> <Gold.Chemscore.Fitness>
15.5847

> <Gold.Chemscore.DG>
-16.8067

> <Gold.Chemscore.ZeroCoef>
-5.4800

> <Gold.Chemscore.Hbond>
0.9781

> <Gold.Chemscore.Metal>
0.0000

> <Gold.Chemscore.Lipo>
101.4915

> <Gold.Chemscore.Internal_Hbond>
0.0000

> <Gold.Chemscore.DEClash>
0.0386

> <Gold.Chemscore.DEInternal>
1.1834

> <Gold.Chemscore.Rot>
1.4902

> <Gold.Chemscore.Internal.Correction>
   9.000000E+99

> <Gold.Chemscore.Hbonds>
donor molecule, donor type, donor heavy atom, donor atom, acceptor molecule, acceptor atom, score
      P1  H  7989  7998       L1     8  0.92

> <Gold.Chemscore.Hbond.Weighted>
-3.2670

> <Gold.Chemscore.Metal.Weighted>
-0.0000

> <Gold.Chemscore.Lipo.Weighted>
-11.8745

> <Gold.Chemscore.Internal_Hbond.Weighted>
0.0000

> <Gold.Chemscore.DEClash.Weighted>
0.0386

> <Gold.Chemscore.DEInternal.Weighted>
1.1834

> <Gold.Chemscore.Rot.Weighted>
3.8149

> <Gold.Chemscore.Internal.Correction.Weighted>
   9.000000E+99

> <Gold.Protein.RotatedTorsions>
[ 6907 6896 6895 6894 ] final  -21.63 input  -60.11 | X-H torsion
[ 7974 7965 7964 7962 ] final  118.60 input  175.53 | X-H torsion
[ 8008 7997 7996 7995 ] final -155.49 input   59.86 | X-H torsion
[ 10167 10162 10161 10158 ] final    3.86 input  -65.29 | X-H torsion
[ 10718 10713 10712 10709 ] final  -17.51 input   66.30 | X-H torsion
[ 10763 10752 10751 10750 ] final  -58.54 input  -60.55 | X-H torsion
[ 11005 11000 10999 10996 ] final  -22.12 input  -57.11 | X-H torsion

> <Gold.Protein.ActiveResidues>
 VAL166  LYS551  ARG553  GLY616  TRP617  ASP618  TYR619  PRO620  LYS621  CYS622 
 ASP623  PHE694  ASN695  SER759  ASP760  ASP761  ALA762  ILE779  LEU786  VAL792 
 PHE793  MET794  SER795  GLU796  ALA797  LYS798  CYS799  TRP800  GLU811  SER814 

> <Gold.Protein.RotatedAtoms>
  151.2305  135.0552  159.8985 H   0  0  0  0  0  0  0  0  0  0  0  0  # atno 6907 bound_to 6896
  152.5405  134.0542  159.8133 H   0  0  0  0  0  0  0  0  0  0  0  0  # atno 6908 bound_to 6896
  151.0721  133.5409  159.2658 H   0  0  0  0  0  0  0  0  0  0  0  0  # atno 6909 bound_to 6896
  145.1533  139.3198  143.4555 H   0  0  0  0  0  0  0  0  0  0  0  0  # atno 7974 bound_to 7965
  155.7027  140.0768  157.2403 H   0  0  0  0  0  0  0  0  0  0  0  0  # atno 8008 bound_to 7997
  154.4070  140.1644  156.2262 H   0  0  0  0  0  0  0  0  0  0  0  0  # atno 8009 bound_to 7997
  155.9353  140.3388  155.6286 H   0  0  0  0  0  0  0  0  0  0  0  0  # atno 8010 bound_to 7997
  140.6564  143.7415  150.7662 H   0  0  0  0  0  0  0  0  0  0  0  0  # atno 10167 bound_to 10162
  156.5725  130.4753  149.6356 H   0  0  0  0  0  0  0  0  0  0  0  0  # atno 10718 bound_to 10713
  154.2398  135.6345  153.5203 H   0  0  0  0  0  0  0  0  0  0  0  0  # atno 10763 bound_to 10752
  152.9932  135.5539  154.5923 H   0  0  0  0  0  0  0  0  0  0  0  0  # atno 10764 bound_to 10752
  154.5426  135.2896  155.1056 H   0  0  0  0  0  0  0  0  0  0  0  0  # atno 10765 bound_to 10752
  140.8626  133.7777  156.0093 H   0  0  0  0  0  0  0  0  0  0  0  0  # atno 11005 bound_to 11000
  146.3492  140.1615  142.8590 LP  0  0  0  0  0  0  0  0  0  0  0  0  # atno 17320 bound_to 7965
  145.0408  140.8944  143.5053 LP  0  0  0  0  0  0  0  0  0  0  0  0  # atno 17321 bound_to 7965
  140.1076  143.4729  152.2389 LP  0  0  0  0  0  0  0  0  0  0  0  0  # atno 17342 bound_to 10162
  139.5788  144.7500  151.3694 LP  0  0  0  0  0  0  0  0  0  0  0  0  # atno 17343 bound_to 10162
  156.2702  130.7012  151.1808 LP  0  0  0  0  0  0  0  0  0  0  0  0  # atno 17370 bound_to 10713
  157.7345  131.0581  150.5521 LP  0  0  0  0  0  0  0  0  0  0  0  0  # atno 17371 bound_to 10713
  140.8665  134.2778  157.5211 LP  0  0  0  0  0  0  0  0  0  0  0  0  # atno 17394 bound_to 11000
  139.8707  134.9545  156.4178 LP  0  0  0  0  0  0  0  0  0  0  0  0  # atno 17395 bound_to 11000

$$$$
