AV-unprocessed.smi:1958|AV-procd|sdf|7907|dock6
  -GOLD-   2272010 63D 1   1.00000     0.00000
 Structure written by MMmdl.
 47 48  0  0  0  0  0  0  0  0  1 V2000
  152.0139  138.9759  155.0649 C   0  0  0  0  0  0  0  0  0  0  0  0
  151.1356  140.0805  155.1861 O   0  0  0  0  0  0  0  0  0  0  0  0
  151.4563  140.9123  156.2895 C   0  0  0  0  0  0  0  0  0  0  0  0
  150.9929  140.2370  157.5906 C   0  0  0  0  0  0  0  0  0  0  0  0
  152.0588  140.2052  158.5985 N   0  0  0  0  0  0  0  0  0  0  0  0
  152.3306  138.9397  159.0908 N   0  0  0  0  0  0  0  0  0  0  0  0
  153.2365  138.7756  160.0001 C   0  0  0  0  0  0  0  0  0  0  0  0
  153.5526  137.4325  160.5603 C   0  0  0  0  0  0  0  0  0  0  0  0
  153.1208  136.3978  160.0494 O   0  0  0  0  0  0  0  0  0  0  0  0
  154.3317  137.4382  161.6577 N   0  0  0  0  0  0  0  0  0  0  0  0
  154.7814  136.2610  162.3970 C   0  0  0  0  0  0  0  0  0  0  0  0
  154.7827  136.4772  163.9370 C   0  0  1  0  0  0  0  0  0  0  0  0
  153.4665  137.1846  164.3493 C   0  0  0  0  0  0  0  0  0  0  0  0
  155.0252  135.2313  164.7027 N   0  0  0  0  0  0  0  0  0  0  0  0
  156.3651  134.6784  164.4701 C   0  0  0  0  0  0  0  0  0  0  0  0
  156.6158  133.3696  165.2392 C   0  0  0  0  0  0  0  0  0  0  0  0
  155.6255  132.4123  164.8907 O   0  0  0  0  0  0  0  0  0  0  0  0
  154.3134  132.8763  165.1762 C   0  0  0  0  0  0  0  0  0  0  0  0
  154.0452  134.1799  164.4044 C   0  0  0  0  0  0  0  0  0  0  0  0
  153.9881  139.9084  160.5139 C   0  0  0  0  0  0  0  0  0  0  0  0
  153.7127  141.1368  160.0235 C   0  0  0  0  0  0  0  0  0  0  0  0
  152.6872  141.3507  159.0011 C   0  0  0  0  0  0  0  0  0  0  0  0
  152.4108  142.4607  158.5470 O   0  0  0  0  0  0  0  0  0  0  0  0
  151.7235  138.3704  154.2063 H   0  0  0  0  0  0  0  0  0  0  0  0
  151.9768  138.3424  155.9519 H   0  0  0  0  0  0  0  0  0  0  0  0
  153.0424  139.3054  154.9121 H   0  0  0  0  0  0  0  0  0  0  0  0
  152.5354  141.0681  156.3246 H   0  0  0  0  0  0  0  0  0  0  0  0
  150.9920  141.8933  156.1775 H   0  0  0  0  0  0  0  0  0  0  0  0
  150.1163  140.7579  157.9807 H   0  0  0  0  0  0  0  0  0  0  0  0
  150.6526  139.2224  157.3772 H   0  0  0  0  0  0  0  0  0  0  0  0
  154.6381  138.3351  162.0071 H   0  0  0  0  0  0  0  0  0  0  0  0
  154.1936  135.3773  162.1431 H   0  0  0  0  0  0  0  0  0  0  0  0
  155.7867  136.0771  162.0227 H   0  0  0  0  0  0  0  0  0  0  0  0
  155.5967  137.1693  164.1586 H   0  0  0  0  0  0  0  0  0  0  0  0
  153.2786  138.0851  163.7665 H   0  0  0  0  0  0  0  0  0  0  0  0
  153.4811  137.5207  165.3849 H   0  0  0  0  0  0  0  0  0  0  0  0
  152.6079  136.5250  164.2190 H   0  0  0  0  0  0  0  0  0  0  0  0
  156.5137  134.5048  163.4031 H   0  0  0  0  0  0  0  0  0  0  0  0
  157.1324  135.3825  164.7865 H   0  0  0  0  0  0  0  0  0  0  0  0
  157.5992  132.9688  164.9934 H   0  0  0  0  0  0  0  0  0  0  0  0
  156.6021  133.5449  166.3160 H   0  0  0  0  0  0  0  0  0  0  0  0
  153.5943  132.1103  164.8861 H   0  0  0  0  0  0  0  0  0  0  0  0
  154.1990  133.0328  166.2501 H   0  0  0  0  0  0  0  0  0  0  0  0
  153.0406  134.5010  164.6721 H   0  0  0  0  0  0  0  0  0  0  0  0
  154.0392  133.9722  163.3332 H   0  0  0  0  0  0  0  0  0  0  0  0
  154.7497  139.7802  161.2693 H   0  0  0  0  0  0  0  0  0  0  0  0
  154.2639  141.9876  160.3963 H   0  0  0  0  0  0  0  0  0  0  0  0
  1  2  1  0  0  0  0
  1 24  1  0  0  0  0
  1 25  1  0  0  0  0
  1 26  1  0  0  0  0
  2  3  1  0  0  0  0
  3  4  1  0  0  0  0
  3 27  1  0  0  0  0
  3 28  1  0  0  0  0
  4  5  1  0  0  0  0
  4 29  1  0  0  0  0
  4 30  1  0  0  0  0
  5 22  1  0  0  0  0
  5  6  1  0  0  0  0
  6  7  2  0  0  0  0
  7  8  1  0  0  0  0
  7 20  1  0  0  0  0
  8  9  2  0  0  0  0
  8 10  1  0  0  0  0
 10 11  1  0  0  0  0
 10 31  1  0  0  0  0
 11 12  1  0  0  0  0
 11 32  1  0  0  0  0
 11 33  1  0  0  0  0
 12 13  1  0  0  0  0
 12 14  1  0  0  0  0
 12 34  1  0  0  0  0
 13 35  1  0  0  0  0
 13 36  1  0  0  0  0
 13 37  1  0  0  0  0
 14 19  1  0  0  0  0
 14 15  1  0  0  0  0
 15 16  1  0  0  0  0
 15 38  1  0  0  0  0
 15 39  1  0  0  0  0
 16 17  1  0  0  0  0
 16 40  1  0  0  0  0
 16 41  1  0  0  0  0
 17 18  1  0  0  0  0
 18 19  1  0  0  0  0
 18 42  1  0  0  0  0
 18 43  1  0  0  0  0
 19 44  1  0  0  0  0
 19 45  1  0  0  0  0
 20 21  2  0  0  0  0
 20 46  1  0  0  0  0
 21 22  1  0  0  0  0
 21 47  1  0  0  0  0
 22 23  2  0  0  0  0
M  END
> <s_m_source_file>
AV-unprocessed.smi

> <i_m_source_file_index>
1958

> <i_lp_mmshare_version>
43012

> <i_f3d_flags>
0

> <s_epik_input>
W0NIM11PW0NIMl1bQ0gyXW4xbmMoW2NIXVtjSF1jMT1PKUMoPU8pW05IXVtDSDJdW0NASF0oW0NIM10pTjJbQ0gyXVtDSDJdT1tDSDJdW0NIMl0y

> <s_epik_cmdline>
J2VwaWtfcHl0aG9uJywgJy1waCcsICc3LjAnLCAnLXRuJywgJzgnLCAnLW1hJywgJzIwMCcsICctbWV0YWxfYmluZGluZycsICctaW1hZScsICc8aW5maWxlLm1hZT4nLCAnLW9tYWUnLCAnPG91dGZpbGUubWFlPic=

> <r_lp_tautomer_probability>
1

> <r_epik_Ionization_Penalty>
0.206669

> <r_epik_Ionization_Penalty_Charging>
5.75808e-09

> <r_epik_Ionization_Penalty_Neutral>
0.206669

> <r_epik_State_Penalty>
0.196651

> <r_epik_Charging_Adjusted_Penalty>
0.196651

> <i_epik_Tot_Q>
0

> <i_epik_Tot_abs_Q>
0

> <r_epik_Metal_State_Penalty>
0.198415

> <b_epik_Metal_Only>
0

> <s_lp_Force_Field>
OPLS_2005

> <r_lp_Energy>
50.1951

> <b_lp_Chiralities_Consistent>
1

> <s_lp_Variant>
AV-unprocessed.smi:1958-2

> <Gold.Version>
5.8.1

> <Gold.Id.Protein>
6NUR|6NUR_protein|mol2

> <Gold.PLP.Fitness>
41.5225

> <Gold.PLP.PLP>
-37.1353

> <Gold.PLP.part.hbond>
-2.0000

> <Gold.PLP.part.metal>
0.0000

> <Gold.PLP.part.buried>
-6.5675

> <Gold.PLP.part.nonpolar>
-27.9899

> <Gold.PLP.part.repulsive>
0.1537

> <Gold.PLP.ligand.clash>
0.2288

> <Gold.PLP.ligand.torsion>
0.7656

> <Gold.PLP.Chemscore.Hbond>
2.0000

> <Gold.PLP.Chemscore.CHOScore>
0.0000

> <Gold.PLP.Chemscore.Metal>
0.0000

> <Gold.Chemscore.Hbonds>
donor molecule, donor type, donor heavy atom, donor atom, acceptor molecule, acceptor atom, score
      P1  H  6896  6909       L1     9  1.00
      P1  H  7989  7998       L1     2  0.75

> <Gold.PLP.Chemscore.Internal.Correction>
0.1473

> <Gold.Rescore>
     Score         DG    S(hbond)    S(metal)    S(lipo)     H(rot)  DE(clash)    DE(int)     intcor
     13.93     -16.11       1.69        0.00      87.36       2.04       0.14       2.04       ----

> <Gold.Chemscore.Fitness>
13.9336

> <Gold.Chemscore.DG>
-16.1125

> <Gold.Chemscore.ZeroCoef>
-5.4800

> <Gold.Chemscore.Hbond>
1.6878

> <Gold.Chemscore.Metal>
0.0000

> <Gold.Chemscore.Lipo>
87.3573

> <Gold.Chemscore.Internal_Hbond>
0.0000

> <Gold.Chemscore.DEClash>
0.1399

> <Gold.Chemscore.DEInternal>
2.0389

> <Gold.Chemscore.Rot>
2.0413

> <Gold.Chemscore.Internal.Correction>
   9.000000E+99

> <Gold.Chemscore.Hbonds>
donor molecule, donor type, donor heavy atom, donor atom, acceptor molecule, acceptor atom, score
      P1  H  6896  6909       L1     9  1.00
      P1  H  7989  7998       L1     2  0.08

> <Gold.Chemscore.Hbond.Weighted>
-5.6373

> <Gold.Chemscore.Metal.Weighted>
-0.0000

> <Gold.Chemscore.Lipo.Weighted>
-10.2208

> <Gold.Chemscore.Internal_Hbond.Weighted>
0.0000

> <Gold.Chemscore.DEClash.Weighted>
0.1399

> <Gold.Chemscore.DEInternal.Weighted>
2.0389

> <Gold.Chemscore.Rot.Weighted>
5.2257

> <Gold.Chemscore.Internal.Correction.Weighted>
   9.000000E+99

> <Gold.Protein.RotatedTorsions>
[ 6907 6896 6895 6894 ] final  156.13 input  -60.11 | X-H torsion
[ 7974 7965 7964 7962 ] final   39.92 input  175.53 | X-H torsion
[ 8008 7997 7996 7995 ] final  172.09 input   59.86 | X-H torsion
[ 10167 10162 10161 10158 ] final  -87.41 input  -65.29 | X-H torsion
[ 10718 10713 10712 10709 ] final  -99.50 input   66.30 | X-H torsion
[ 10763 10752 10751 10750 ] final  159.30 input  -60.55 | X-H torsion
[ 11005 11000 10999 10996 ] final    2.26 input  -57.11 | X-H torsion

> <Gold.Protein.ActiveResidues>
 VAL166  LYS551  ARG553  GLY616  TRP617  ASP618  TYR619  PRO620  LYS621  CYS622 
 ASP623  PHE694  ASN695  SER759  ASP760  ASP761  ALA762  ILE779  LEU786  VAL792 
 PHE793  MET794  SER795  GLU796  ALA797  LYS798  CYS799  TRP800  GLU811  SER814 

> <Gold.Protein.RotatedAtoms>
  152.0341  133.3949  159.4309 H   0  0  0  0  0  0  0  0  0  0  0  0  # atno 6907 bound_to 6896
  150.6880  134.3488  159.4909 H   0  0  0  0  0  0  0  0  0  0  0  0  # atno 6908 bound_to 6896
  152.1278  134.9157  160.0611 H   0  0  0  0  0  0  0  0  0  0  0  0  # atno 6909 bound_to 6896
  146.0946  139.5594  142.9453 H   0  0  0  0  0  0  0  0  0  0  0  0  # atno 7974 bound_to 7965
  156.1208  140.1495  156.9207 H   0  0  0  0  0  0  0  0  0  0  0  0  # atno 8008 bound_to 7997
  154.4834  140.0872  156.7473 H   0  0  0  0  0  0  0  0  0  0  0  0  # atno 8009 bound_to 7997
  155.4432  140.3432  155.4294 H   0  0  0  0  0  0  0  0  0  0  0  0  # atno 8010 bound_to 7997
  140.3848  143.2732  151.9339 H   0  0  0  0  0  0  0  0  0  0  0  0  # atno 10167 bound_to 10162
  156.0136  130.5285  150.6680 H   0  0  0  0  0  0  0  0  0  0  0  0  # atno 10718 bound_to 10713
  154.2296  135.2779  155.2894 H   0  0  0  0  0  0  0  0  0  0  0  0  # atno 10763 bound_to 10752
  154.5634  135.5640  153.7032 H   0  0  0  0  0  0  0  0  0  0  0  0  # atno 10764 bound_to 10752
  153.0023  135.6303  154.2438 H   0  0  0  0  0  0  0  0  0  0  0  0  # atno 10765 bound_to 10752
  140.6062  133.9790  155.8155 H   0  0  0  0  0  0  0  0  0  0  0  0  # atno 11005 bound_to 11000
  145.5973  141.0360  143.2037 LP  0  0  0  0  0  0  0  0  0  0  0  0  # atno 17320 bound_to 7965
  144.7386  139.7514  143.7320 LP  0  0  0  0  0  0  0  0  0  0  0  0  # atno 17321 bound_to 7965
  139.4793  144.5784  151.7973 LP  0  0  0  0  0  0  0  0  0  0  0  0  # atno 17342 bound_to 10162
  140.4901  144.1323  150.5948 LP  0  0  0  0  0  0  0  0  0  0  0  0  # atno 17343 bound_to 10162
  157.4408  131.0861  151.0945 LP  0  0  0  0  0  0  0  0  0  0  0  0  # atno 17370 bound_to 10713
  157.1490  130.6176  149.5577 LP  0  0  0  0  0  0  0  0  0  0  0  0  # atno 17371 bound_to 10713
  141.0839  134.0021  157.3344 LP  0  0  0  0  0  0  0  0  0  0  0  0  # atno 17394 bound_to 11000
  139.9211  135.0200  156.8067 LP  0  0  0  0  0  0  0  0  0  0  0  0  # atno 17395 bound_to 11000

$$$$
