AV-unprocessed.smi:2600|AV-procd|sdf|10182|dock6
  -GOLD-   2272014193D 1   1.00000     0.00000
 Structure written by MMmdl.
 44 45  0  0  0  0  0  0  0  0  1 V2000
  144.0403  143.1824  155.5577 C   0  0  0  0  0  0  0  0  0  0  0  0
  145.4030  143.3566  154.8673 C   0  0  0  0  0  0  0  0  0  0  0  0
  146.4701  142.2934  155.2212 C   0  0  2  0  0  0  0  0  0  0  0  0
  146.6661  142.2982  156.7542 C   0  0  0  0  0  0  0  0  0  0  0  0
  147.8059  142.5503  154.4735 C   0  0  0  0  0  0  0  0  0  0  0  0
  148.7187  141.4176  154.6848 N   0  0  0  0  0  0  0  0  0  0  0  0
  149.8910  141.4251  155.3667 C   0  0  0  0  0  0  0  0  0  0  0  0
  150.7032  140.5008  155.3164 O   0  0  0  0  0  0  0  0  0  0  0  0
  150.1085  142.5330  156.0974 N   0  0  0  0  0  0  0  0  0  0  0  0
  151.2873  142.7990  156.9187 C   0  0  0  0  0  0  0  0  0  0  0  0
  151.2940  141.9736  158.2198 C   0  0  0  0  0  0  0  0  0  0  0  0
  151.8928  142.6659  159.4067 C   0  0  0  0  0  0  0  0  0  0  0  0
  151.5919  143.8838  159.9489 C   0  0  0  0  0  0  0  0  0  0  0  0
  152.4662  143.9940  161.0643 C   0  0  0  0  0  0  0  0  0  0  0  0
  153.2528  142.9409  161.1971 N   0  0  0  0  0  0  0  0  0  0  0  0
  152.9090  142.1259  160.1772 N   0  0  0  0  0  0  0  0  0  0  0  0
  153.6008  140.8592  160.0339 C   0  0  0  0  0  0  0  0  0  0  0  0
  148.1252  140.1929  154.1442 C   0  0  0  0  0  0  0  0  0  0  0  0
  146.8206  139.9074  154.9050 C   0  0  0  0  0  0  0  0  0  0  0  0
  145.9360  141.0268  154.8124 O   0  0  0  0  0  0  0  0  0  0  0  0
  143.3883  144.0265  155.3313 H   0  0  0  0  0  0  0  0  0  0  0  0
  144.1439  143.1305  156.6417 H   0  0  0  0  0  0  0  0  0  0  0  0
  143.5253  142.2829  155.2226 H   0  0  0  0  0  0  0  0  0  0  0  0
  145.2499  143.3750  153.7874 H   0  0  0  0  0  0  0  0  0  0  0  0
  145.7876  144.3431  155.1292 H   0  0  0  0  0  0  0  0  0  0  0  0
  147.0112  143.2729  157.1003 H   0  0  0  0  0  0  0  0  0  0  0  0
  147.3996  141.5655  157.0865 H   0  0  0  0  0  0  0  0  0  0  0  0
  145.7324  142.0768  157.2718 H   0  0  0  0  0  0  0  0  0  0  0  0
  147.6408  142.6347  153.3997 H   0  0  0  0  0  0  0  0  0  0  0  0
  148.2168  143.5135  154.7754 H   0  0  0  0  0  0  0  0  0  0  0  0
  149.3966  143.2489  156.0827 H   0  0  0  0  0  0  0  0  0  0  0  0
  152.2010  142.6160  156.3518 H   0  0  0  0  0  0  0  0  0  0  0  0
  151.2973  143.8610  157.1635 H   0  0  0  0  0  0  0  0  0  0  0  0
  150.2755  141.6649  158.4558 H   0  0  0  0  0  0  0  0  0  0  0  0
  151.8428  141.0480  158.0417 H   0  0  0  0  0  0  0  0  0  0  0  0
  150.8486  144.5877  159.6055 H   0  0  0  0  0  0  0  0  0  0  0  0
  152.5525  144.8027  161.7751 H   0  0  0  0  0  0  0  0  0  0  0  0
  153.6208  140.5537  158.9881 H   0  0  0  0  0  0  0  0  0  0  0  0
  153.0894  140.0951  160.6194 H   0  0  0  0  0  0  0  0  0  0  0  0
  154.6285  140.9488  160.3879 H   0  0  0  0  0  0  0  0  0  0  0  0
  147.9179  140.3268  153.0815 H   0  0  0  0  0  0  0  0  0  0  0  0
  148.7898  139.3308  154.2136 H   0  0  0  0  0  0  0  0  0  0  0  0
  146.3222  139.0379  154.4760 H   0  0  0  0  0  0  0  0  0  0  0  0
  147.0243  139.6607  155.9471 H   0  0  0  0  0  0  0  0  0  0  0  0
  1  2  1  0  0  0  0
  1 21  1  0  0  0  0
  1 22  1  0  0  0  0
  1 23  1  0  0  0  0
  2  3  1  0  0  0  0
  2 24  1  0  0  0  0
  2 25  1  0  0  0  0
  3 20  1  0  0  0  0
  3  4  1  0  0  0  0
  3  5  1  0  0  0  0
  4 26  1  0  0  0  0
  4 27  1  0  0  0  0
  4 28  1  0  0  0  0
  5  6  1  0  0  0  0
  5 29  1  0  0  0  0
  5 30  1  0  0  0  0
  6  7  1  0  0  0  0
  6 18  1  0  0  0  0
  7  8  2  0  0  0  0
  7  9  1  0  0  0  0
  9 10  1  0  0  0  0
  9 31  1  0  0  0  0
 10 11  1  0  0  0  0
 10 32  1  0  0  0  0
 10 33  1  0  0  0  0
 11 12  1  0  0  0  0
 11 34  1  0  0  0  0
 11 35  1  0  0  0  0
 12 16  1  0  0  0  0
 12 13  2  0  0  0  0
 13 14  1  0  0  0  0
 13 36  1  0  0  0  0
 14 15  2  0  0  0  0
 14 37  1  0  0  0  0
 15 16  1  0  0  0  0
 16 17  1  0  0  0  0
 17 38  1  0  0  0  0
 17 39  1  0  0  0  0
 17 40  1  0  0  0  0
 18 19  1  0  0  0  0
 18 41  1  0  0  0  0
 18 42  1  0  0  0  0
 19 20  1  0  0  0  0
 19 43  1  0  0  0  0
 19 44  1  0  0  0  0
M  END
> <s_m_source_file>
AV-unprocessed.smi

> <i_m_source_file_index>
2600

> <i_lp_mmshare_version>
43012

> <i_f3d_flags>
0

> <s_epik_input>
W0NIM11bQ0gyXVtDQEBdMShbQ0gzXSlbQ0gyXU4oW0NIMl1bQ0gyXU8xKUMoPU8pW05IXVtDSDJdW0NIMl1jMltjSF1bY0hdbm4yW0NIM10=

> <s_epik_cmdline>
J2VwaWtfcHl0aG9uJywgJy1waCcsICc3LjAnLCAnLXRuJywgJzgnLCAnLW1hJywgJzIwMCcsICctbWV0YWxfYmluZGluZycsICctaW1hZScsICc8aW5maWxlLm1hZT4nLCAnLW9tYWUnLCAnPG91dGZpbGUubWFlPic=

> <r_lp_tautomer_probability>
1

> <r_epik_Ionization_Penalty>
0.00252014

> <r_epik_Ionization_Penalty_Charging>
0

> <r_epik_Ionization_Penalty_Neutral>
0.00252014

> <r_epik_State_Penalty>
0.00172506

> <r_epik_Charging_Adjusted_Penalty>
0.00172506

> <i_epik_Tot_Q>
0

> <i_epik_Tot_abs_Q>
0

> <r_epik_Metal_State_Penalty>
-0

> <b_epik_Metal_Only>
0

> <s_lp_Force_Field>
OPLS_2005

> <r_lp_Energy>
29.2507

> <b_lp_Chiralities_Consistent>
1

> <s_lp_Variant>
AV-unprocessed.smi:2600-2

> <Gold.Version>
5.8.1

> <Gold.Id.Protein>
6NUR|6NUR_protein|mol2

> <Gold.PLP.Fitness>
44.2678

> <Gold.PLP.PLP>
-39.2071

> <Gold.PLP.part.hbond>
-2.0000

> <Gold.PLP.part.metal>
0.0000

> <Gold.PLP.part.buried>
-2.4130

> <Gold.PLP.part.nonpolar>
-35.1768

> <Gold.PLP.part.repulsive>
0.3452

> <Gold.PLP.ligand.clash>
0.0000

> <Gold.PLP.ligand.torsion>
0.4610

> <Gold.PLP.Chemscore.Hbond>
1.9840

> <Gold.PLP.Chemscore.CHOScore>
0.0000

> <Gold.PLP.Chemscore.Metal>
0.0000

> <Gold.Chemscore.Hbonds>
donor molecule, donor type, donor heavy atom, donor atom, acceptor molecule, acceptor atom, score
      L1  H     9    31       P1  8028  1.00
      P1  H  7989  7998       L1     8  0.89

> <Gold.PLP.Chemscore.Internal.Correction>
0.0308

> <Gold.Rescore>
     Score         DG    S(hbond)    S(metal)    S(lipo)     H(rot)  DE(clash)    DE(int)     intcor
     15.02     -17.12       1.53        0.00      87.96       1.47       1.64       0.46       ----

> <Gold.Chemscore.Fitness>
15.0166

> <Gold.Chemscore.DG>
-17.1162

> <Gold.Chemscore.ZeroCoef>
-5.4800

> <Gold.Chemscore.Hbond>
1.5322

> <Gold.Chemscore.Metal>
0.0000

> <Gold.Chemscore.Lipo>
87.9552

> <Gold.Chemscore.Internal_Hbond>
0.0000

> <Gold.Chemscore.DEClash>
1.6425

> <Gold.Chemscore.DEInternal>
0.4571

> <Gold.Chemscore.Rot>
1.4735

> <Gold.Chemscore.Internal.Correction>
   9.000000E+99

> <Gold.Chemscore.Hbonds>
donor molecule, donor type, donor heavy atom, donor atom, acceptor molecule, acceptor atom, score
      L1  H     9    31       P1  8028  0.94
      P1  H  7989  7998       L1     8  0.24

> <Gold.Chemscore.Hbond.Weighted>
-5.1176

> <Gold.Chemscore.Metal.Weighted>
-0.0000

> <Gold.Chemscore.Lipo.Weighted>
-10.2908

> <Gold.Chemscore.Internal_Hbond.Weighted>
0.0000

> <Gold.Chemscore.DEClash.Weighted>
1.6425

> <Gold.Chemscore.DEInternal.Weighted>
0.4571

> <Gold.Chemscore.Rot.Weighted>
3.7721

> <Gold.Chemscore.Internal.Correction.Weighted>
   9.000000E+99

> <Gold.Protein.RotatedTorsions>
[ 6907 6896 6895 6894 ] final   21.69 input  -60.11 | X-H torsion
[ 7974 7965 7964 7962 ] final -170.02 input  175.53 | X-H torsion
[ 8008 7997 7996 7995 ] final  -51.75 input   59.86 | X-H torsion
[ 10167 10162 10161 10158 ] final  165.95 input  -65.29 | X-H torsion
[ 10718 10713 10712 10709 ] final -102.53 input   66.30 | X-H torsion
[ 10763 10752 10751 10750 ] final   99.37 input  -60.55 | X-H torsion
[ 11005 11000 10999 10996 ] final -117.29 input  -57.11 | X-H torsion

> <Gold.Protein.ActiveResidues>
 VAL166  LYS551  ARG553  GLY616  TRP617  ASP618  TYR619  PRO620  LYS621  CYS622 
 ASP623  PHE694  ASN695  SER759  ASP760  ASP761  ALA762  ILE779  LEU786  VAL792 
 PHE793  MET794  SER795  GLU796  ALA797  LYS798  CYS799  TRP800  GLU811  SER814 

> <Gold.Protein.RotatedAtoms>
  151.9157  135.0320  160.0517 H   0  0  0  0  0  0  0  0  0  0  0  0  # atno 6907 bound_to 6896
  152.2242  133.5003  159.5188 H   0  0  0  0  0  0  0  0  0  0  0  0  # atno 6908 bound_to 6896
  150.7008  134.1219  159.4080 H   0  0  0  0  0  0  0  0  0  0  0  0  # atno 6909 bound_to 6896
  144.7176  140.2135  143.6324 H   0  0  0  0  0  0  0  0  0  0  0  0  # atno 7974 bound_to 7965
  154.4090  140.1240  156.4880 H   0  0  0  0  0  0  0  0  0  0  0  0  # atno 8008 bound_to 7997
  155.7019  140.3494  155.4917 H   0  0  0  0  0  0  0  0  0  0  0  0  # atno 8009 bound_to 7997
  155.9378  140.1081  157.1071 H   0  0  0  0  0  0  0  0  0  0  0  0  # atno 8010 bound_to 7997
  139.4915  144.4078  151.9335 H   0  0  0  0  0  0  0  0  0  0  0  0  # atno 10167 bound_to 10162
  156.0232  130.5424  150.7121 H   0  0  0  0  0  0  0  0  0  0  0  0  # atno 10718 bound_to 10713
  153.3005  135.4116  155.1248 H   0  0  0  0  0  0  0  0  0  0  0  0  # atno 10763 bound_to 10752
  154.8548  135.3540  154.5858 H   0  0  0  0  0  0  0  0  0  0  0  0  # atno 10764 bound_to 10752
  153.6283  135.7062  153.5343 H   0  0  0  0  0  0  0  0  0  0  0  0  # atno 10765 bound_to 10752
  141.0364  133.9902  157.3063 H   0  0  0  0  0  0  0  0  0  0  0  0  # atno 11005 bound_to 11000
  145.8569  139.2203  143.1739 LP  0  0  0  0  0  0  0  0  0  0  0  0  # atno 17320 bound_to 7965
  146.0210  140.8348  142.9923 LP  0  0  0  0  0  0  0  0  0  0  0  0  # atno 17321 bound_to 7965
  140.3519  144.3079  150.5948 LP  0  0  0  0  0  0  0  0  0  0  0  0  # atno 17342 bound_to 10162
  140.5478  143.2211  151.7978 LP  0  0  0  0  0  0  0  0  0  0  0  0  # atno 17343 bound_to 10162
  157.4757  131.0897  151.0593 LP  0  0  0  0  0  0  0  0  0  0  0  0  # atno 17370 bound_to 10713
  157.1041  130.5994  149.5467 LP  0  0  0  0  0  0  0  0  0  0  0  0  # atno 17371 bound_to 10713
  139.9244  135.0201  156.8181 LP  0  0  0  0  0  0  0  0  0  0  0  0  # atno 17394 bound_to 11000
  140.6313  133.9903  155.7663 LP  0  0  0  0  0  0  0  0  0  0  0  0  # atno 17395 bound_to 11000

$$$$
