AV-unprocessed.smi:2340|AV-procd|sdf|9350|dock2
  -GOLD-   2272012573D 1   1.00000     0.00000
 Structure written by MMmdl.
 40 41  0  0  0  0  0  0  0  0  1 V2000
  145.3056  135.5427  150.9845 C   0  0  0  0  0  0  0  0  0  0  0  0
  145.6975  134.1948  151.5025 C   0  0  0  0  0  0  0  0  0  0  0  0
  144.9758  133.0312  151.4091 C   0  0  0  0  0  0  0  0  0  0  0  0
  145.8087  131.6896  152.1448 S   0  0  0  0  0  0  0  0  0  0  0  0
  147.1298  132.7764  152.5611 C   0  0  0  0  0  0  0  0  0  0  0  0
  148.3720  132.3260  153.2688 C   0  0  2  0  0  0  0  0  0  0  0  0
  148.3652  130.8153  153.5423 C   0  0  0  0  0  0  0  0  0  0  0  0
  148.6810  133.1639  154.5247 C   0  0  0  0  0  0  0  0  0  0  0  0
  149.0517  134.5316  154.1734 N   0  0  0  0  0  0  0  0  0  0  0  0
  149.5499  135.4395  155.0223 C   0  0  0  0  0  0  0  0  0  0  0  0
  149.7926  135.2202  156.2090 O   0  0  0  0  0  0  0  0  0  0  0  0
  149.7496  136.6195  154.4211 N   0  0  0  0  0  0  0  0  0  0  0  0
  150.2706  137.8116  155.0811 C   0  0  1  0  0  0  0  0  0  0  0  0
  151.7753  137.7713  155.2660 C   0  0  0  0  0  0  0  0  0  0  0  0
  152.1289  139.2531  155.3600 C   0  0  0  0  0  0  0  0  0  0  0  0
  151.1286  139.9525  154.6245 O   0  0  0  0  0  0  0  0  0  0  0  0
  150.1082  139.0539  154.2018 C   0  0  2  0  0  0  0  0  0  0  0  0
  148.7306  139.7185  154.3058 C   0  0  0  0  0  0  0  0  0  0  0  0
  146.9198  134.0342  152.1603 N   0  0  0  0  0  0  0  0  0  0  0  0
  144.3206  135.5196  150.5176 H   0  0  0  0  0  0  0  0  0  0  0  0
  146.0159  135.8985  150.2380 H   0  0  0  0  0  0  0  0  0  0  0  0
  145.2720  136.2790  151.7879 H   0  0  0  0  0  0  0  0  0  0  0  0
  144.0084  132.8821  150.9529 H   0  0  0  0  0  0  0  0  0  0  0  0
  149.1946  132.5007  152.5736 H   0  0  0  0  0  0  0  0  0  0  0  0
  148.2419  130.2502  152.6180 H   0  0  0  0  0  0  0  0  0  0  0  0
  147.5527  130.5377  154.2145 H   0  0  0  0  0  0  0  0  0  0  0  0
  149.3006  130.4962  154.0023 H   0  0  0  0  0  0  0  0  0  0  0  0
  147.8065  133.1646  155.1782 H   0  0  0  0  0  0  0  0  0  0  0  0
  149.4965  132.7130  155.0912 H   0  0  0  0  0  0  0  0  0  0  0  0
  148.8929  134.8136  153.2173 H   0  0  0  0  0  0  0  0  0  0  0  0
  149.5174  136.7038  153.4422 H   0  0  0  0  0  0  0  0  0  0  0  0
  149.7832  137.9694  156.0455 H   0  0  0  0  0  0  0  0  0  0  0  0
  152.0850  137.2036  156.1439 H   0  0  0  0  0  0  0  0  0  0  0  0
  152.2567  137.3333  154.3901 H   0  0  0  0  0  0  0  0  0  0  0  0
  152.0882  139.5878  156.3972 H   0  0  0  0  0  0  0  0  0  0  0  0
  153.1270  139.4647  154.9759 H   0  0  0  0  0  0  0  0  0  0  0  0
  150.3167  138.7991  153.1610 H   0  0  0  0  0  0  0  0  0  0  0  0
  147.9412  139.0342  153.9941 H   0  0  0  0  0  0  0  0  0  0  0  0
  148.6763  140.6028  153.6708 H   0  0  0  0  0  0  0  0  0  0  0  0
  148.5195  140.0301  155.3292 H   0  0  0  0  0  0  0  0  0  0  0  0
  1  2  1  0  0  0  0
  1 20  1  0  0  0  0
  1 21  1  0  0  0  0
  1 22  1  0  0  0  0
  2 19  1  0  0  0  0
  2  3  2  0  0  0  0
  3  4  1  0  0  0  0
  3 23  1  0  0  0  0
  4  5  1  0  0  0  0
  5  6  1  0  0  0  0
  5 19  2  0  0  0  0
  6  7  1  0  0  0  0
  6  8  1  0  0  0  0
  6 24  1  0  0  0  0
  7 25  1  0  0  0  0
  7 26  1  0  0  0  0
  7 27  1  0  0  0  0
  8  9  1  0  0  0  0
  8 28  1  0  0  0  0
  8 29  1  0  0  0  0
  9 10  1  0  0  0  0
  9 30  1  0  0  0  0
 10 11  2  0  0  0  0
 10 12  1  0  0  0  0
 12 13  1  0  0  0  0
 12 31  1  0  0  0  0
 13 17  1  0  0  0  0
 13 14  1  0  0  0  0
 13 32  1  0  0  0  0
 14 15  1  0  0  0  0
 14 33  1  0  0  0  0
 14 34  1  0  0  0  0
 15 16  1  0  0  0  0
 15 35  1  0  0  0  0
 15 36  1  0  0  0  0
 16 17  1  0  0  0  0
 17 18  1  0  0  0  0
 17 37  1  0  0  0  0
 18 38  1  0  0  0  0
 18 39  1  0  0  0  0
 18 40  1  0  0  0  0
M  END
> <s_m_source_file>
AV-unprocessed.smi

> <i_m_source_file_index>
2340

> <i_lp_mmshare_version>
43012

> <i_f3d_flags>
0

> <s_epik_input>
W0NIM11jMVtjSF1zYyhuMSlbQ0BIXShbQ0gzXSlbQ0gyXVtOSF1DKD1PKVtOSF1bQ0BASF0yW0NIMl1bQ0gyXU9bQ0BIXTJbQ0gzXQ==

> <s_epik_cmdline>
J2VwaWtfcHl0aG9uJywgJy1waCcsICc3LjAnLCAnLXRuJywgJzgnLCAnLW1hJywgJzIwMCcsICctbWV0YWxfYmluZGluZycsICctaW1hZScsICc8aW5maWxlLm1hZT4nLCAnLW9tYWUnLCAnPG91dGZpbGUubWFlPic=

> <r_epik_Ionization_Penalty>
0.00156622

> <r_epik_Ionization_Penalty_Charging>
0

> <r_epik_Ionization_Penalty_Neutral>
0.00156622

> <r_epik_State_Penalty>
0.00101902

> <r_epik_Charging_Adjusted_Penalty>
0.00101902

> <i_epik_Tot_Q>
0

> <i_epik_Tot_abs_Q>
0

> <r_epik_Metal_State_Penalty>
-0

> <b_epik_Metal_Only>
0

> <s_lp_Force_Field>
OPLS_2005

> <r_lp_Energy>
5.83327

> <b_lp_Chiralities_Consistent>
1

> <s_lp_Variant>
AV-unprocessed.smi:2340-7

> <Gold.Version>
5.8.1

> <Gold.Id.Protein>
6NUR|6NUR_protein|mol2

> <Gold.PLP.Fitness>
43.3554

> <Gold.PLP.PLP>
-35.2500

> <Gold.PLP.part.hbond>
-3.1232

> <Gold.PLP.part.metal>
0.0000

> <Gold.PLP.part.buried>
-5.2203

> <Gold.PLP.part.nonpolar>
-28.9087

> <Gold.PLP.part.repulsive>
1.3812

> <Gold.PLP.ligand.clash>
0.0000

> <Gold.PLP.ligand.torsion>
0.3594

> <Gold.PLP.Chemscore.Hbond>
2.8928

> <Gold.PLP.Chemscore.CHOScore>
0.0000

> <Gold.PLP.Chemscore.Metal>
0.0000

> <Gold.Chemscore.Hbonds>
donor molecule, donor type, donor heavy atom, donor atom, acceptor molecule, acceptor atom, score
      L1  H     9    30       P1  7948  0.94
      L1  H    12    31       P1  7948  1.00
      P1  H  7989  7998       L1    16  1.00

> <Gold.PLP.Chemscore.Internal.Correction>
0.1458

> <Gold.Rescore>
     Score         DG    S(hbond)    S(metal)    S(lipo)     H(rot)  DE(clash)    DE(int)     intcor
     16.90     -18.35       2.41        0.00      74.77       1.53       0.01       1.44       ----

> <Gold.Chemscore.Fitness>
16.9001

> <Gold.Chemscore.DG>
-18.3458

> <Gold.Chemscore.ZeroCoef>
-5.4800

> <Gold.Chemscore.Hbond>
2.4074

> <Gold.Chemscore.Metal>
0.0000

> <Gold.Chemscore.Lipo>
74.7725

> <Gold.Chemscore.Internal_Hbond>
0.0000

> <Gold.Chemscore.DEClash>
0.0089

> <Gold.Chemscore.DEInternal>
1.4368

> <Gold.Chemscore.Rot>
1.5325

> <Gold.Chemscore.Internal.Correction>
   9.000000E+99

> <Gold.Chemscore.Hbonds>
donor molecule, donor type, donor heavy atom, donor atom, acceptor molecule, acceptor atom, score
      L1  H     9    30       P1  7948  0.20
      L1  H    12    31       P1  7948  0.74
      P1  H  7989  7998       L1    16  0.74

> <Gold.Chemscore.Hbond.Weighted>
-8.0407

> <Gold.Chemscore.Metal.Weighted>
-0.0000

> <Gold.Chemscore.Lipo.Weighted>
-8.7484

> <Gold.Chemscore.Internal_Hbond.Weighted>
0.0000

> <Gold.Chemscore.DEClash.Weighted>
0.0089

> <Gold.Chemscore.DEInternal.Weighted>
1.4368

> <Gold.Chemscore.Rot.Weighted>
3.9233

> <Gold.Chemscore.Internal.Correction.Weighted>
   9.000000E+99

> <Gold.Protein.RotatedTorsions>
[ 6907 6896 6895 6894 ] final   18.48 input  -60.11 | X-H torsion
[ 7974 7965 7964 7962 ] final  -25.74 input  175.53 | X-H torsion
[ 8008 7997 7996 7995 ] final -120.86 input   59.86 | X-H torsion
[ 10167 10162 10161 10158 ] final  160.34 input  -65.29 | X-H torsion
[ 10718 10713 10712 10709 ] final  111.98 input   66.30 | X-H torsion
[ 10763 10752 10751 10750 ] final -109.85 input  -60.55 | X-H torsion
[ 11005 11000 10999 10996 ] final   46.85 input  -57.11 | X-H torsion

> <Gold.Protein.ActiveResidues>
 VAL166  LYS551  ARG553  GLY616  TRP617  ASP618  TYR619  PRO620  LYS621  CYS622 
 ASP623  PHE694  ASN695  SER759  ASP760  ASP761  ALA762  ILE779  LEU786  VAL792 
 PHE793  MET794  SER795  GLU796  ALA797  LYS798  CYS799  TRP800  GLU811  SER814 

> <Gold.Protein.RotatedAtoms>
  151.8659  135.0507  160.0473 H   0  0  0  0  0  0  0  0  0  0  0  0  # atno 6907 bound_to 6896
  152.2626  133.5307  159.5399 H   0  0  0  0  0  0  0  0  0  0  0  0  # atno 6908 bound_to 6896
  150.7122  134.0724  159.3911 H   0  0  0  0  0  0  0  0  0  0  0  0  # atno 6909 bound_to 6896
  146.1471  140.4927  142.8627 H   0  0  0  0  0  0  0  0  0  0  0  0  # atno 7974 bound_to 7965
  155.1386  140.0401  157.2793 H   0  0  0  0  0  0  0  0  0  0  0  0  # atno 8008 bound_to 7997
  154.6489  140.2564  155.7209 H   0  0  0  0  0  0  0  0  0  0  0  0  # atno 8009 bound_to 7997
  156.2568  140.2840  156.0915 H   0  0  0  0  0  0  0  0  0  0  0  0  # atno 8010 bound_to 7997
  139.4839  144.4643  151.8663 H   0  0  0  0  0  0  0  0  0  0  0  0  # atno 10167 bound_to 10162
  157.6416  131.0960  150.6828 H   0  0  0  0  0  0  0  0  0  0  0  0  # atno 10718 bound_to 10713
  154.8216  135.4586  154.0795 H   0  0  0  0  0  0  0  0  0  0  0  0  # atno 10763 bound_to 10752
  153.2144  135.6886  153.8082 H   0  0  0  0  0  0  0  0  0  0  0  0  # atno 10764 bound_to 10752
  153.7521  135.3296  155.3299 H   0  0  0  0  0  0  0  0  0  0  0  0  # atno 10765 bound_to 10752
  140.1332  134.4679  155.8506 H   0  0  0  0  0  0  0  0  0  0  0  0  # atno 11005 bound_to 11000
  144.7859  140.5936  143.6574 LP  0  0  0  0  0  0  0  0  0  0  0  0  # atno 17320 bound_to 7965
  145.4911  139.1488  143.3709 LP  0  0  0  0  0  0  0  0  0  0  0  0  # atno 17321 bound_to 7965
  140.4107  144.2372  150.5889 LP  0  0  0  0  0  0  0  0  0  0  0  0  # atno 17342 bound_to 10162
  140.4969  143.2330  151.8737 LP  0  0  0  0  0  0  0  0  0  0  0  0  # atno 17343 bound_to 10162
  156.7151  130.4663  149.5537 LP  0  0  0  0  0  0  0  0  0  0  0  0  # atno 17370 bound_to 10713
  156.1703  130.6432  151.0829 LP  0  0  0  0  0  0  0  0  0  0  0  0  # atno 17371 bound_to 10713
  141.2174  133.6804  156.7108 LP  0  0  0  0  0  0  0  0  0  0  0  0  # atno 17394 bound_to 11000
  140.2816  134.8312  157.3938 LP  0  0  0  0  0  0  0  0  0  0  0  0  # atno 17395 bound_to 11000

$$$$
