AV-unprocessed.smi:37|AV-procd|sdf|312|dock3
  -GOLD-   2262016123D 1   1.00000     0.00000
 Structure written by MMmdl.
 44 45  0  0  0  0  0  0  0  0  1 V2000
  144.1769  143.5633  162.1825 C   0  0  0  0  0  0  0  0  0  0  0  0
  144.1068  143.2457  160.6826 C   0  0  0  0  0  0  0  0  0  0  0  0
  145.4792  142.9222  160.0959 C   0  0  0  0  0  0  0  0  0  0  0  0
  146.4792  142.8413  160.8094 O   0  0  0  0  0  0  0  0  0  0  0  0
  145.4436  142.7391  158.7668 O   0  0  0  0  0  0  0  0  0  0  0  0
  146.6073  142.2979  158.0880 C   0  0  0  0  0  0  0  0  0  0  0  0
  146.5048  142.6796  156.6060 C   0  0  1  0  0  0  0  0  0  0  0  0
  147.6845  142.2194  155.9492 O   0  0  0  0  0  0  0  0  0  0  0  0
  147.3335  141.4344  154.8554 C   0  0  1  0  0  0  0  0  0  0  0  0
  148.4072  140.4053  154.5695 N   0  0  0  0  0  0  0  0  0  0  0  0
  149.6501  140.5394  155.1720 C   0  0  0  0  0  0  0  0  0  0  0  0
  150.6607  139.6569  154.9908 C   0  0  0  0  0  0  0  0  0  0  0  0
  151.8387  139.8622  155.6041 F   0  0  0  0  0  0  0  0  0  0  0  0
  150.4824  138.4867  154.1372 C   0  0  0  0  0  0  0  0  0  0  0  0
  151.3380  137.6341  153.9083 O   0  0  0  0  0  0  0  0  0  0  0  0
  149.2122  138.3799  153.5644 N   0  0  0  0  0  0  0  0  0  0  0  0
  148.1602  139.2796  153.7458 C   0  0  0  0  0  0  0  0  0  0  0  0
  147.0787  139.0645  153.2007 O   0  0  0  0  0  0  0  0  0  0  0  0
  145.9255  140.8761  155.1074 C   0  0  1  0  0  0  0  0  0  0  0  0
  145.8450  139.2213  156.2214 Br  0  0  0  0  0  0  0  0  0  0  0  0
  145.3074  142.0222  155.8937 C   0  0  2  0  0  0  0  0  0  0  0  0
  144.7246  142.9781  155.0144 O   0  0  0  0  0  0  0  0  0  0  0  0
  143.9687  143.9802  155.5010 C   0  0  0  0  0  0  0  0  0  0  0  0
  143.5189  144.0555  156.6444 O   0  0  0  0  0  0  0  0  0  0  0  0
  143.6833  145.0617  154.4614 C   0  0  0  0  0  0  0  0  0  0  0  0
  144.5042  144.8656  153.1796 C   0  0  0  0  0  0  0  0  0  0  0  0
  149.0386  137.5805  152.9727 H   0  0  0  0  0  0  0  0  0  0  0  0
  143.1790  143.7367  162.5848 H   0  0  0  0  0  0  0  0  0  0  0  0
  144.7690  144.4588  162.3745 H   0  0  0  0  0  0  0  0  0  0  0  0
  144.6205  142.7394  162.7425 H   0  0  0  0  0  0  0  0  0  0  0  0
  143.4444  142.3961  160.5155 H   0  0  0  0  0  0  0  0  0  0  0  0
  143.6811  144.0904  160.1406 H   0  0  0  0  0  0  0  0  0  0  0  0
  147.4819  142.7734  158.5339 H   0  0  0  0  0  0  0  0  0  0  0  0
  146.7302  141.2201  158.1998 H   0  0  0  0  0  0  0  0  0  0  0  0
  146.4627  143.7665  156.5204 H   0  0  0  0  0  0  0  0  0  0  0  0
  147.3386  142.1043  153.9934 H   0  0  0  0  0  0  0  0  0  0  0  0
  149.8343  141.3913  155.8110 H   0  0  0  0  0  0  0  0  0  0  0  0
  145.4203  140.6624  154.1651 H   0  0  0  0  0  0  0  0  0  0  0  0
  144.5596  141.6718  156.6072 H   0  0  0  0  0  0  0  0  0  0  0  0
  142.6182  145.0552  154.2291 H   0  0  0  0  0  0  0  0  0  0  0  0
  143.9061  146.0362  154.8970 H   0  0  0  0  0  0  0  0  0  0  0  0
  144.3122  145.6740  152.4741 H   0  0  0  0  0  0  0  0  0  0  0  0
  144.2528  143.9282  152.6822 H   0  0  0  0  0  0  0  0  0  0  0  0
  145.5742  144.8587  153.3910 H   0  0  0  0  0  0  0  0  0  0  0  0
  1  2  1  0  0  0  0
  1 28  1  0  0  0  0
  1 29  1  0  0  0  0
  1 30  1  0  0  0  0
  2  3  1  0  0  0  0
  2 31  1  0  0  0  0
  2 32  1  0  0  0  0
  3  4  2  0  0  0  0
  3  5  1  0  0  0  0
  5  6  1  0  0  0  0
  6  7  1  0  0  0  0
  6 33  1  0  0  0  0
  6 34  1  0  0  0  0
  7 21  1  0  0  0  0
  7  8  1  0  0  0  0
  7 35  1  0  0  0  0
  8  9  1  0  0  0  0
  9 10  1  0  0  0  0
  9 19  1  0  0  0  0
  9 36  1  0  0  0  0
 10 17  1  0  0  0  0
 10 11  1  0  0  0  0
 11 12  2  0  0  0  0
 11 37  1  0  0  0  0
 12 13  1  0  0  0  0
 12 14  1  0  0  0  0
 14 15  2  0  0  0  0
 14 16  1  0  0  0  0
 16 27  1  0  0  0  0
 16 17  1  0  0  0  0
 17 18  2  0  0  0  0
 19 20  1  0  0  0  0
 19 21  1  0  0  0  0
 19 38  1  0  0  0  0
 21 22  1  0  0  0  0
 21 39  1  0  0  0  0
 22 23  1  0  0  0  0
 23 24  2  0  0  0  0
 23 25  1  0  0  0  0
 25 26  1  0  0  0  0
 25 40  1  0  0  0  0
 25 41  1  0  0  0  0
 26 42  1  0  0  0  0
 26 43  1  0  0  0  0
 26 44  1  0  0  0  0
M  END
> <s_m_source_file>
AV-unprocessed.smi

> <i_m_source_file_index>
37

> <i_lp_mmshare_version>
43012

> <i_f3d_flags>
0

> <s_epik_input>
W0NIM11bQ0gyXUMoPU8pT1tDSDJdW0NAQEhdMU9bQ0BASF0objJbY0hdYyhGKWMoPU8pW25IXWMyPU8pW0NAQEhdKEJyKVtDQEhdMU9DKD1PKVtDSDJdW0NIM10=

> <s_epik_cmdline>
J2VwaWtfcHl0aG9uJywgJy1waCcsICc3LjAnLCAnLXRuJywgJzgnLCAnLW1hJywgJzIwMCcsICctbWV0YWxfYmluZGluZycsICctaW1hZScsICc8aW5maWxlLm1hZT4nLCAnLW9tYWUnLCAnPG91dGZpbGUubWFlPic=

> <r_lp_tautomer_probability>
0.999537

> <r_epik_Ionization_Penalty>
0.104106

> <r_epik_Ionization_Penalty_Charging>
0.104106

> <r_epik_Ionization_Penalty_Neutral>
3.94675e-16

> <r_epik_State_Penalty>
0.0940182

> <r_epik_Charging_Adjusted_Penalty>
0.198124

> <i_epik_Tot_Q>
0

> <i_epik_Tot_abs_Q>
0

> <r_epik_Metal_State_Penalty>
3.05314

> <b_epik_Metal_Only>
0

> <s_epik_Chemistry_Notes>
This compound has an ester and may undergo hydrolysis at high or low pH. This compound contains an acetal/aminal-like group ( X-CH(R)-Y where X, Y are N, S, or O) that may be acid/base labile, releasing an aldehyde.

> <s_lp_Force_Field>
OPLS_2005

> <r_lp_Energy>
23.0288

> <b_lp_Chiralities_Consistent>
1

> <s_lp_Variant>
AV-unprocessed.smi:37-10

> <Gold.Version>
5.8.1

> <Gold.Id.Protein>
6NUR|6NUR_protein|mol2

> <Gold.PLP.Fitness>
42.9366

> <Gold.PLP.PLP>
-36.1657

> <Gold.PLP.part.hbond>
-4.0000

> <Gold.PLP.part.metal>
0.0000

> <Gold.PLP.part.buried>
-5.2955

> <Gold.PLP.part.nonpolar>
-30.7810

> <Gold.PLP.part.repulsive>
5.0669

> <Gold.PLP.ligand.clash>
0.0000

> <Gold.PLP.ligand.torsion>
0.9050

> <Gold.PLP.Chemscore.Hbond>
2.8002

> <Gold.PLP.Chemscore.CHOScore>
0.0000

> <Gold.PLP.Chemscore.Metal>
0.0000

> <Gold.Chemscore.Hbonds>
donor molecule, donor type, donor heavy atom, donor atom, acceptor molecule, acceptor atom, score
      L1  H    16    27       P1  7948  1.00
      P1  H  6933  6944       L1     4  0.58
      P1  H  6934  6946       L1     4  0.98

> <Gold.PLP.Chemscore.Internal.Correction>
0.1804

> <Gold.Rescore>
     Score         DG    S(hbond)    S(metal)    S(lipo)     H(rot)  DE(clash)    DE(int)     intcor
      7.15     -10.63       2.31        0.00      50.95       3.33       1.34       2.14       ----

> <Gold.Chemscore.Fitness>
7.1501

> <Gold.Chemscore.DG>
-10.6261

> <Gold.Chemscore.ZeroCoef>
-5.4800

> <Gold.Chemscore.Hbond>
2.3084

> <Gold.Chemscore.Metal>
0.0000

> <Gold.Chemscore.Lipo>
50.9545

> <Gold.Chemscore.Internal_Hbond>
0.0000

> <Gold.Chemscore.DEClash>
1.3360

> <Gold.Chemscore.DEInternal>
2.1400

> <Gold.Chemscore.Rot>
3.3303

> <Gold.Chemscore.Internal.Correction>
   9.000000E+99

> <Gold.Chemscore.Hbonds>
donor molecule, donor type, donor heavy atom, donor atom, acceptor molecule, acceptor atom, score
      L1  H    16    27       P1  7948  1.00
      P1  H  6933  6944       L1     4  0.58
      P1  H  6934  6946       L1     4  0.35

> <Gold.Chemscore.Hbond.Weighted>
-7.7100

> <Gold.Chemscore.Metal.Weighted>
-0.0000

> <Gold.Chemscore.Lipo.Weighted>
-5.9617

> <Gold.Chemscore.Internal_Hbond.Weighted>
0.0000

> <Gold.Chemscore.DEClash.Weighted>
1.3360

> <Gold.Chemscore.DEInternal.Weighted>
2.1400

> <Gold.Chemscore.Rot.Weighted>
8.5256

> <Gold.Chemscore.Internal.Correction.Weighted>
   9.000000E+99

> <Gold.Protein.RotatedTorsions>
[ 6907 6896 6895 6894 ] final -121.19 input  -60.11 | X-H torsion
[ 7974 7965 7964 7962 ] final  -76.00 input  175.53 | X-H torsion
[ 8008 7997 7996 7995 ] final  108.23 input   59.86 | X-H torsion
[ 10167 10162 10161 10158 ] final  154.10 input  -65.29 | X-H torsion
[ 10718 10713 10712 10709 ] final  142.28 input   66.30 | X-H torsion
[ 10763 10752 10751 10750 ] final  109.96 input  -60.55 | X-H torsion
[ 11005 11000 10999 10996 ] final  119.65 input  -57.11 | X-H torsion

> <Gold.Protein.ActiveResidues>
 VAL166  LYS551  ARG553  GLY616  TRP617  ASP618  TYR619  PRO620  LYS621  CYS622 
 ASP623  PHE694  ASN695  SER759  ASP760  ASP761  ALA762  ILE779  LEU786  VAL792 
 PHE793  MET794  SER795  GLU796  ALA797  LYS798  CYS799  TRP800  GLU811  SER814 

> <Gold.Protein.RotatedAtoms>
  150.8461  133.7859  159.3042 H   0  0  0  0  0  0  0  0  0  0  0  0  # atno 6907 bound_to 6896
  151.5546  135.1065  159.9967 H   0  0  0  0  0  0  0  0  0  0  0  0  # atno 6908 bound_to 6896
  152.4514  133.7595  159.6794 H   0  0  0  0  0  0  0  0  0  0  0  0  # atno 6909 bound_to 6896
  145.6186  140.9369  143.1151 H   0  0  0  0  0  0  0  0  0  0  0  0  # atno 7974 bound_to 7965
  156.1887  140.3080  155.9289 H   0  0  0  0  0  0  0  0  0  0  0  0  # atno 8008 bound_to 7997
  155.3223  140.0456  157.3057 H   0  0  0  0  0  0  0  0  0  0  0  0  # atno 8009 bound_to 7997
  154.5426  140.2266  155.8625 H   0  0  0  0  0  0  0  0  0  0  0  0  # atno 8010 bound_to 7997
  139.4824  144.5216  151.7867 H   0  0  0  0  0  0  0  0  0  0  0  0  # atno 10167 bound_to 10162
  157.3823  131.0994  151.0726 H   0  0  0  0  0  0  0  0  0  0  0  0  # atno 10718 bound_to 10713
  153.4421  135.3763  155.2234 H   0  0  0  0  0  0  0  0  0  0  0  0  # atno 10763 bound_to 10752
  154.8754  135.3865  154.4140 H   0  0  0  0  0  0  0  0  0  0  0  0  # atno 10764 bound_to 10752
  153.4687  135.7087  153.6070 H   0  0  0  0  0  0  0  0  0  0  0  0  # atno 10765 bound_to 10752
  139.9154  134.9630  156.7687 H   0  0  0  0  0  0  0  0  0  0  0  0  # atno 11005 bound_to 11000
  144.7240  139.7935  143.7371 LP  0  0  0  0  0  0  0  0  0  0  0  0  # atno 17320 bound_to 7965
  146.1449  139.4516  143.0085 LP  0  0  0  0  0  0  0  0  0  0  0  0  # atno 17321 bound_to 7965
  140.4731  144.1559  150.5921 LP  0  0  0  0  0  0  0  0  0  0  0  0  # atno 17342 bound_to 10162
  140.4361  143.2547  151.9533 LP  0  0  0  0  0  0  0  0  0  0  0  0  # atno 17343 bound_to 10162
  157.1791  130.6301  149.5665 LP  0  0  0  0  0  0  0  0  0  0  0  0  # atno 17370 bound_to 10713
  155.9778  130.4760  150.6620 LP  0  0  0  0  0  0  0  0  0  0  0  0  # atno 17371 bound_to 10713
  140.6639  133.9620  155.7819 LP  0  0  0  0  0  0  0  0  0  0  0  0  # atno 17394 bound_to 11000
  141.0625  134.0326  157.3639 LP  0  0  0  0  0  0  0  0  0  0  0  0  # atno 17395 bound_to 11000

$$$$
