AV-unprocessed.smi:1236|AV-procd|sdf|5179|dock10
  -GOLD-   22720 4263D 1   1.00000     0.00000
 Structure written by MMmdl.
 39 40  0  0  0  0  0  0  0  0  1 V2000
  147.3150  141.4336  153.6113 C   0  0  0  0  0  0  0  0  0  0  0  0
  148.6583  140.9672  154.1879 C   0  0  2  0  0  0  0  0  0  0  0  0
  148.5272  139.5846  154.8625 C   0  0  0  0  0  0  0  0  0  0  0  0
  149.7729  138.8299  155.0097 N   0  0  0  0  0  0  0  0  0  0  0  0
  150.6760  139.0009  153.8736 C   0  0  0  0  0  0  0  0  0  0  0  0
  151.9724  138.1917  154.0488 C   0  0  0  0  0  0  0  0  0  0  0  0
  151.6558  136.8169  154.2430 O   0  0  0  0  0  0  0  0  0  0  0  0
  150.8085  136.6019  155.3668 C   0  0  0  0  0  0  0  0  0  0  0  0
  149.5093  137.4073  155.1942 C   0  0  0  0  0  0  0  0  0  0  0  0
  149.1334  141.9575  155.1535 N   0  0  0  0  0  0  0  0  0  0  0  0
  150.2357  141.8507  155.9108 C   0  0  0  0  0  0  0  0  0  0  0  0
  151.0119  140.8962  155.8564 O   0  0  0  0  0  0  0  0  0  0  0  0
  150.3665  142.9113  156.7268 N   0  0  0  0  0  0  0  0  0  0  0  0
  151.3872  143.1642  157.6817 C   0  0  0  0  0  0  0  0  0  0  0  0
  152.0481  142.0143  158.1698 C   0  0  0  0  0  0  0  0  0  0  0  0
  153.0772  142.1576  159.1206 C   0  0  0  0  0  0  0  0  0  0  0  0
  153.4186  143.4489  159.5605 C   0  0  0  0  0  0  0  0  0  0  0  0
  152.7104  144.5405  159.0249 C   0  0  0  0  0  0  0  0  0  0  0  0
  151.7244  144.4053  158.1133 N   0  0  0  0  0  0  0  0  0  0  0  0
  146.9394  140.7251  152.8725 H   0  0  0  0  0  0  0  0  0  0  0  0
  147.4143  142.4009  153.1176 H   0  0  0  0  0  0  0  0  0  0  0  0
  146.5591  141.5328  154.3909 H   0  0  0  0  0  0  0  0  0  0  0  0
  149.3492  140.8945  153.3473 H   0  0  0  0  0  0  0  0  0  0  0  0
  148.0932  139.7394  155.8513 H   0  0  0  0  0  0  0  0  0  0  0  0
  147.8022  138.9824  154.3131 H   0  0  0  0  0  0  0  0  0  0  0  0
  150.1778  138.6911  152.9540 H   0  0  0  0  0  0  0  0  0  0  0  0
  150.9378  140.0502  153.7483 H   0  0  0  0  0  0  0  0  0  0  0  0
  152.6046  138.2916  153.1666 H   0  0  0  0  0  0  0  0  0  0  0  0
  152.5464  138.5644  154.8984 H   0  0  0  0  0  0  0  0  0  0  0  0
  150.5878  135.5376  155.4492 H   0  0  0  0  0  0  0  0  0  0  0  0
  151.3251  136.8947  156.2820 H   0  0  0  0  0  0  0  0  0  0  0  0
  148.8759  137.2582  156.0694 H   0  0  0  0  0  0  0  0  0  0  0  0
  148.9553  137.0190  154.3382 H   0  0  0  0  0  0  0  0  0  0  0  0
  148.5591  142.7787  155.2722 H   0  0  0  0  0  0  0  0  0  0  0  0
  149.6476  143.6167  156.6635 H   0  0  0  0  0  0  0  0  0  0  0  0
  151.7729  141.0296  157.8211 H   0  0  0  0  0  0  0  0  0  0  0  0
  153.5947  141.2914  159.5053 H   0  0  0  0  0  0  0  0  0  0  0  0
  154.2016  143.5994  160.2889 H   0  0  0  0  0  0  0  0  0  0  0  0
  152.9409  145.5485  159.3366 H   0  0  0  0  0  0  0  0  0  0  0  0
  1  2  1  0  0  0  0
  1 20  1  0  0  0  0
  1 21  1  0  0  0  0
  1 22  1  0  0  0  0
  2  3  1  0  0  0  0
  2 10  1  0  0  0  0
  2 23  1  0  0  0  0
  3  4  1  0  0  0  0
  3 24  1  0  0  0  0
  3 25  1  0  0  0  0
  4  9  1  0  0  0  0
  4  5  1  0  0  0  0
  5  6  1  0  0  0  0
  5 26  1  0  0  0  0
  5 27  1  0  0  0  0
  6  7  1  0  0  0  0
  6 28  1  0  0  0  0
  6 29  1  0  0  0  0
  7  8  1  0  0  0  0
  8  9  1  0  0  0  0
  8 30  1  0  0  0  0
  8 31  1  0  0  0  0
  9 32  1  0  0  0  0
  9 33  1  0  0  0  0
 10 11  1  0  0  0  0
 10 34  1  0  0  0  0
 11 12  2  0  0  0  0
 11 13  1  0  0  0  0
 13 14  1  0  0  0  0
 13 35  1  0  0  0  0
 14 19  1  0  0  0  0
 14 15  2  0  0  0  0
 15 16  1  0  0  0  0
 15 36  1  0  0  0  0
 16 17  2  0  0  0  0
 16 37  1  0  0  0  0
 17 18  1  0  0  0  0
 17 38  1  0  0  0  0
 18 19  2  0  0  0  0
 18 39  1  0  0  0  0
M  END
> <s_m_source_file>
AV-unprocessed.smi

> <i_m_source_file_index>
1236

> <i_lp_mmshare_version>
43012

> <i_f3d_flags>
0

> <s_epik_input>
W0NIMl0xW0NIMl1PW0NIMl1bQ0gyXU4xW0NIMl1bQ0BASF0oW0NIM10pW05IXUMoPU8pW05IXWMyW2NIXVtjSF1bY0hdW2NIXW4y

> <s_epik_cmdline>
J2VwaWtfcHl0aG9uJywgJy1waCcsICc3LjAnLCAnLXRuJywgJzgnLCAnLW1hJywgJzIwMCcsICctbWV0YWxfYmluZGluZycsICctaW1hZScsICc8aW5maWxlLm1hZT4nLCAnLW9tYWUnLCAnPG91dGZpbGUubWFlPic=

> <r_epik_Ionization_Penalty>
0.26604

> <r_epik_Ionization_Penalty_Charging>
0

> <r_epik_Ionization_Penalty_Neutral>
0.26604

> <r_epik_State_Penalty>
0.257924

> <r_epik_Charging_Adjusted_Penalty>
0.257924

> <i_epik_Tot_Q>
0

> <i_epik_Tot_abs_Q>
0

> <r_epik_Metal_State_Penalty>
0.257923

> <b_epik_Metal_Only>
0

> <s_lp_Force_Field>
OPLS_2005

> <r_lp_Energy>
27.6221

> <b_lp_Chiralities_Consistent>
1

> <s_lp_Variant>
AV-unprocessed.smi:1236-1

> <Gold.Version>
5.8.1

> <Gold.Id.Protein>
6NUR|6NUR_protein|mol2

> <Gold.PLP.Fitness>
45.2710

> <Gold.PLP.PLP>
-37.9197

> <Gold.PLP.part.hbond>
-3.0000

> <Gold.PLP.part.metal>
0.0000

> <Gold.PLP.part.buried>
-7.6664

> <Gold.PLP.part.nonpolar>
-28.7221

> <Gold.PLP.part.repulsive>
0.6123

> <Gold.PLP.ligand.clash>
0.0000

> <Gold.PLP.ligand.torsion>
0.5773

> <Gold.PLP.Chemscore.Hbond>
2.8320

> <Gold.PLP.Chemscore.CHOScore>
0.0000

> <Gold.PLP.Chemscore.Metal>
0.0000

> <Gold.Chemscore.Hbonds>
donor molecule, donor type, donor heavy atom, donor atom, acceptor molecule, acceptor atom, score
      L1  H    10    34       P1  8028  0.74
      L1  H    13    35       P1  8028  0.91
      P1  H  7989  7998       L1    12  0.01
      P1  H 10752 10764       L1     7  0.98

> <Gold.PLP.Chemscore.Internal.Correction>
0.0100

> <Gold.Rescore>
     Score         DG    S(hbond)    S(metal)    S(lipo)     H(rot)  DE(clash)    DE(int)     intcor
     14.74     -19.51       2.28        0.00      87.84       1.51       0.05       4.72       ----

> <Gold.Chemscore.Fitness>
14.7419

> <Gold.Chemscore.DG>
-19.5057

> <Gold.Chemscore.ZeroCoef>
-5.4800

> <Gold.Chemscore.Hbond>
2.2800

> <Gold.Chemscore.Metal>
0.0000

> <Gold.Chemscore.Lipo>
87.8377

> <Gold.Chemscore.Internal_Hbond>
0.0000

> <Gold.Chemscore.DEClash>
0.0456

> <Gold.Chemscore.DEInternal>
4.7182

> <Gold.Chemscore.Rot>
1.5104

> <Gold.Chemscore.Internal.Correction>
   9.000000E+99

> <Gold.Chemscore.Hbonds>
donor molecule, donor type, donor heavy atom, donor atom, acceptor molecule, acceptor atom, score
      L1  H    10    34       P1  8028  0.71
      L1  H    13    35       P1  8028  0.89
      P1  H  7989  7998       L1    12  0.02
      P1  H 10752 10764       L1     7  0.24

> <Gold.Chemscore.Hbond.Weighted>
-7.6152

> <Gold.Chemscore.Metal.Weighted>
-0.0000

> <Gold.Chemscore.Lipo.Weighted>
-10.2770

> <Gold.Chemscore.Internal_Hbond.Weighted>
0.0000

> <Gold.Chemscore.DEClash.Weighted>
0.0456

> <Gold.Chemscore.DEInternal.Weighted>
4.7182

> <Gold.Chemscore.Rot.Weighted>
3.8665

> <Gold.Chemscore.Internal.Correction.Weighted>
   9.000000E+99

> <Gold.Protein.RotatedTorsions>
[ 6907 6896 6895 6894 ] final    9.51 input  -60.11 | X-H torsion
[ 7974 7965 7964 7962 ] final -125.07 input  175.53 | X-H torsion
[ 8008 7997 7996 7995 ] final   29.16 input   59.86 | X-H torsion
[ 10167 10162 10161 10158 ] final   88.09 input  -65.29 | X-H torsion
[ 10718 10713 10712 10709 ] final -139.72 input   66.30 | X-H torsion
[ 10763 10752 10751 10750 ] final  -59.19 input  -60.55 | X-H torsion
[ 11005 11000 10999 10996 ] final  -11.55 input  -57.11 | X-H torsion

> <Gold.Protein.ActiveResidues>
 VAL166  LYS551  ARG553  GLY616  TRP617  ASP618  TYR619  PRO620  LYS621  CYS622 
 ASP623  PHE694  ASN695  SER759  ASP760  ASP761  ALA762  ILE779  LEU786  VAL792 
 PHE793  MET794  SER795  GLU796  ALA797  LYS798  CYS799  TRP800  GLU811  SER814 

> <Gold.Protein.RotatedAtoms>
  151.7234  135.0890  160.0287 H   0  0  0  0  0  0  0  0  0  0  0  0  # atno 6907 bound_to 6896
  152.3588  133.6266  159.6007 H   0  0  0  0  0  0  0  0  0  0  0  0  # atno 6908 bound_to 6896
  150.7589  133.9374  159.3487 H   0  0  0  0  0  0  0  0  0  0  0  0  # atno 6909 bound_to 6896
  145.0014  140.7824  143.4494 H   0  0  0  0  0  0  0  0  0  0  0  0  # atno 7974 bound_to 7965
  155.0701  140.3199  155.4633 H   0  0  0  0  0  0  0  0  0  0  0  0  # atno 8008 bound_to 7997
  156.2793  140.2113  156.5773 H   0  0  0  0  0  0  0  0  0  0  0  0  # atno 8009 bound_to 7997
  154.7062  140.0502  157.0493 H   0  0  0  0  0  0  0  0  0  0  0  0  # atno 8010 bound_to 7997
  139.8708  144.6494  150.8951 H   0  0  0  0  0  0  0  0  0  0  0  0  # atno 10167 bound_to 10162
  156.3140  130.7497  151.1580 H   0  0  0  0  0  0  0  0  0  0  0  0  # atno 10718 bound_to 10713
  154.2499  135.6328  153.5236 H   0  0  0  0  0  0  0  0  0  0  0  0  # atno 10763 bound_to 10752
  152.9914  135.5562  154.5819 H   0  0  0  0  0  0  0  0  0  0  0  0  # atno 10764 bound_to 10752
  154.5344  135.2890  155.1126 H   0  0  0  0  0  0  0  0  0  0  0  0  # atno 10765 bound_to 10752
  140.7565  133.8550  155.9088 H   0  0  0  0  0  0  0  0  0  0  0  0  # atno 11005 bound_to 11000
  145.2148  139.2187  143.5124 LP  0  0  0  0  0  0  0  0  0  0  0  0  # atno 17320 bound_to 7965
  146.3452  140.1993  142.8589 LP  0  0  0  0  0  0  0  0  0  0  0  0  # atno 17321 bound_to 7965
  140.7761  143.3665  151.1729 LP  0  0  0  0  0  0  0  0  0  0  0  0  # atno 17342 bound_to 10162
  139.7285  143.9109  152.3011 LP  0  0  0  0  0  0  0  0  0  0  0  0  # atno 17343 bound_to 10162
  157.7397  131.0525  150.5212 LP  0  0  0  0  0  0  0  0  0  0  0  0  # atno 17370 bound_to 10713
  156.5356  130.4195  149.6179 LP  0  0  0  0  0  0  0  0  0  0  0  0  # atno 17371 bound_to 10713
  140.9703  134.1540  157.4582 LP  0  0  0  0  0  0  0  0  0  0  0  0  # atno 17394 bound_to 11000
  139.8778  134.9976  156.5856 LP  0  0  0  0  0  0  0  0  0  0  0  0  # atno 17395 bound_to 11000

$$$$
