AV-unprocessed.smi:1110|AV-procd|sdf|4790|dock3
  -GOLD-   22720 3333D 1   1.00000     0.00000
 Structure written by MMmdl.
 44 45  0  0  0  0  0  0  0  0  2 V2000
  150.5211  132.4692  156.0604 C   0  0  0  0  0  0  0  0  0  0  0  0
  149.2713  132.6046  155.1800 C   0  0  0  0  0  0  0  0  0  0  0  0
  149.2613  133.8890  154.3123 C   0  0  2  0  0  0  0  0  0  0  0  0
  149.2458  135.1800  155.1669 C   0  0  0  0  0  0  0  0  0  0  0  0
  149.8505  136.3050  154.4575 N   0  0  0  0  0  0  0  0  0  0  0  0
  151.0390  136.8577  154.7448 C   0  0  0  0  0  0  0  0  0  0  0  0
  151.8165  136.3987  155.5814 O   0  0  0  0  0  0  0  0  0  0  0  0
  151.3881  138.1440  153.9861 C   0  0  0  0  0  0  0  0  0  0  0  0
  150.9803  139.3551  154.7192 N   0  0  0  0  0  0  0  0  0  0  0  0
  149.7385  139.9275  154.3783 C   0  0  0  0  0  0  0  0  0  0  0  0
  149.2728  141.0290  154.9882 C   0  0  0  0  0  0  0  0  0  0  0  0
  150.0806  141.6308  156.0224 C   0  0  0  0  0  0  0  0  0  0  0  0
  151.2720  141.0950  156.3541 C   0  0  0  0  0  0  0  0  0  0  0  0
  151.7870  139.8935  155.6878 C   0  0  0  0  0  0  0  0  0  0  0  0
  152.8795  139.4032  155.9788 O   0  0  0  0  0  0  0  0  0  0  0  0
  148.1752  133.9044  153.2878 N   0  3  0  0  0  0  0  0  0  0  0  0
  148.1086  132.7133  152.4100 C   0  0  0  0  0  0  0  0  0  0  0  0
  146.6454  132.5985  151.9889 C   0  0  0  0  0  0  0  0  0  0  0  0
  145.8995  133.1018  153.2192 C   0  0  0  0  0  0  0  0  0  0  0  0
  146.8003  134.2189  153.7514 C   0  0  0  0  0  0  0  0  0  0  0  0
  150.5072  131.5246  156.6046 H   0  0  0  0  0  0  0  0  0  0  0  0
  150.5834  133.2681  156.7988 H   0  0  0  0  0  0  0  0  0  0  0  0
  151.4318  132.4913  155.4614 H   0  0  0  0  0  0  0  0  0  0  0  0
  149.2155  131.7201  154.5466 H   0  0  0  0  0  0  0  0  0  0  0  0
  148.3910  132.5680  155.8213 H   0  0  0  0  0  0  0  0  0  0  0  0
  150.1930  133.9075  153.7440 H   0  0  0  0  0  0  0  0  0  0  0  0
  148.2270  135.4161  155.4788 H   0  0  0  0  0  0  0  0  0  0  0  0
  149.8144  135.0309  156.0845 H   0  0  0  0  0  0  0  0  0  0  0  0
  149.2928  136.7383  153.7353 H   0  0  0  0  0  0  0  0  0  0  0  0
  152.4611  138.1409  153.7905 H   0  0  0  0  0  0  0  0  0  0  0  0
  150.9136  138.1405  153.0027 H   0  0  0  0  0  0  0  0  0  0  0  0
  149.1958  139.4220  153.5929 H   0  0  0  0  0  0  0  0  0  0  0  0
  148.3195  141.4551  154.7115 H   0  0  0  0  0  0  0  0  0  0  0  0
  149.7276  142.5148  156.5331 H   0  0  0  0  0  0  0  0  0  0  0  0
  151.8620  141.5589  157.1311 H   0  0  0  0  0  0  0  0  0  0  0  0
  148.7789  132.8155  151.5562 H   0  0  0  0  0  0  0  0  0  0  0  0
  148.4003  131.8140  152.9526 H   0  0  0  0  0  0  0  0  0  0  0  0
  146.4489  133.2561  151.1406 H   0  0  0  0  0  0  0  0  0  0  0  0
  146.3634  131.5845  151.7047 H   0  0  0  0  0  0  0  0  0  0  0  0
  144.8890  133.4441  152.9933 H   0  0  0  0  0  0  0  0  0  0  0  0
  145.8267  132.3020  153.9577 H   0  0  0  0  0  0  0  0  0  0  0  0
  146.7053  134.3426  154.8293 H   0  0  0  0  0  0  0  0  0  0  0  0
  146.5089  135.1664  153.2977 H   0  0  0  0  0  0  0  0  0  0  0  0
  148.4129  134.6632  152.6643 H   0  0  0  0  0  0  0  0  0  0  0  0
  1  2  1  0  0  0  0
  1 21  1  0  0  0  0
  1 22  1  0  0  0  0
  1 23  1  0  0  0  0
  2  3  1  0  0  0  0
  2 24  1  0  0  0  0
  2 25  1  0  0  0  0
  3  4  1  0  0  0  0
  3 16  1  0  0  0  0
  3 26  1  0  0  0  0
  4  5  1  0  0  0  0
  4 27  1  0  0  0  0
  4 28  1  0  0  0  0
  5  6  1  0  0  0  0
  5 29  1  0  0  0  0
  6  7  2  0  0  0  0
  6  8  1  0  0  0  0
  8  9  1  0  0  0  0
  8 30  1  0  0  0  0
  8 31  1  0  0  0  0
  9 14  1  0  0  0  0
  9 10  1  0  0  0  0
 10 11  2  0  0  0  0
 10 32  1  0  0  0  0
 11 12  1  0  0  0  0
 11 33  1  0  0  0  0
 12 13  2  0  0  0  0
 12 34  1  0  0  0  0
 13 14  1  0  0  0  0
 13 35  1  0  0  0  0
 14 15  2  0  0  0  0
 16 20  1  0  0  0  0
 16 17  1  0  0  0  0
 16 44  1  0  0  0  0
 17 18  1  0  0  0  0
 17 36  1  0  0  0  0
 17 37  1  0  0  0  0
 18 19  1  0  0  0  0
 18 38  1  0  0  0  0
 18 39  1  0  0  0  0
 19 20  1  0  0  0  0
 19 40  1  0  0  0  0
 19 41  1  0  0  0  0
 20 42  1  0  0  0  0
 20 43  1  0  0  0  0
M  CHG  1  16   1
M  END
> <s_m_source_file>
AV-unprocessed.smi

> <i_m_source_file_index>
1110

> <i_lp_mmshare_version>
43012

> <i_f3d_flags>
0

> <s_epik_input>
W0NIMl0xW0NIMl1bQ0gyXVtDSDJdTjFbQ0BIXShbQ0gyXVtDSDNdKVtDSDJdW05IXUMoPU8pW0NIMl1uMltjSF1bY0hdW2NIXVtjSF1jMj1P

> <s_epik_cmdline>
J2VwaWtfcHl0aG9uJywgJy1waCcsICc3LjAnLCAnLXRuJywgJzgnLCAnLW1hJywgJzIwMCcsICctbWV0YWxfYmluZGluZycsICctaW1hZScsICc8aW5maWxlLm1hZT4nLCAnLW9tYWUnLCAnPG91dGZpbGUubWFlPic=

> <r_lp_tautomer_probability>
1

> <r_epik_Ionization_Penalty>
0.00361135

> <r_epik_Ionization_Penalty_Charging>
0.00361127

> <r_epik_Ionization_Penalty_Neutral>
7.8489e-08

> <r_epik_State_Penalty>
0.00256751

> <r_epik_Charging_Adjusted_Penalty>
0.00617878

> <i_epik_Tot_Q>
1

> <i_epik_Tot_abs_Q>
1

> <r_epik_Metal_State_Penalty>
-0

> <b_epik_Metal_Only>
0

> <s_lp_Force_Field>
OPLS_2005

> <r_lp_Energy>
45.664

> <b_lp_Chiralities_Consistent>
1

> <s_lp_Variant>
AV-unprocessed.smi:1110-1

> <Gold.Version>
5.8.1

> <Gold.Id.Protein>
6NUR|6NUR_protein|mol2

> <Gold.PLP.Fitness>
53.0055

> <Gold.PLP.PLP>
-38.4382

> <Gold.PLP.part.hbond>
-4.0731

> <Gold.PLP.part.metal>
0.0000

> <Gold.PLP.part.buried>
-0.1391

> <Gold.PLP.part.nonpolar>
-33.4814

> <Gold.PLP.part.repulsive>
0.0900

> <Gold.PLP.ligand.clash>
0.0000

> <Gold.PLP.ligand.torsion>
1.1403

> <Gold.PLP.Chemscore.Hbond>
4.6560

> <Gold.PLP.Chemscore.CHOScore>
0.8779

> <Gold.PLP.Chemscore.Metal>
0.0000

> <Gold.Chemscore.Hbonds>
donor molecule, donor type, donor heavy atom, donor atom, acceptor molecule, acceptor atom, score
      L1  H     5    29       P1  7948  0.61
      L1  H    16    44       P1  7948  2.00
      P1  H  7997  8009       L1    15  0.93
      P1  H 10752 10765       L1     7  0.99
      L1  C    10    32       P1  7957  0.78

> <Gold.PLP.Chemscore.Internal.Correction>
0.2464

> <Gold.Rescore>
     Score         DG    S(hbond)    S(metal)    S(lipo)     H(rot)  DE(clash)    DE(int)     intcor
     18.25     -19.43       3.11        0.00      74.10       1.99       0.04       1.14       ----

> <Gold.Chemscore.Fitness>
18.2526

> <Gold.Chemscore.DG>
-19.4345

> <Gold.Chemscore.ZeroCoef>
-5.4800

> <Gold.Chemscore.Hbond>
3.1070

> <Gold.Chemscore.Metal>
0.0000

> <Gold.Chemscore.Lipo>
74.1008

> <Gold.Chemscore.Internal_Hbond>
0.0000

> <Gold.Chemscore.DEClash>
0.0396

> <Gold.Chemscore.DEInternal>
1.1424

> <Gold.Chemscore.Rot>
1.9893

> <Gold.Chemscore.Internal.Correction>
   9.000000E+99

> <Gold.Chemscore.Hbonds>
donor molecule, donor type, donor heavy atom, donor atom, acceptor molecule, acceptor atom, score
      L1  H     5    29       P1  7948  0.59
      L1  H    16    44       P1  7948  0.26
      P1  H  7997  8009       L1    15  0.91
      P1  H 10752 10765       L1     7  0.92

> <Gold.Chemscore.Hbond.Weighted>
-10.3774

> <Gold.Chemscore.Metal.Weighted>
-0.0000

> <Gold.Chemscore.Lipo.Weighted>
-8.6698

> <Gold.Chemscore.Internal_Hbond.Weighted>
0.0000

> <Gold.Chemscore.DEClash.Weighted>
0.0396

> <Gold.Chemscore.DEInternal.Weighted>
1.1424

> <Gold.Chemscore.Rot.Weighted>
5.0927

> <Gold.Chemscore.Internal.Correction.Weighted>
   9.000000E+99

> <Gold.Protein.RotatedTorsions>
[ 6907 6896 6895 6894 ] final   93.97 input  -60.11 | X-H torsion
[ 7974 7965 7964 7962 ] final -147.73 input  175.53 | X-H torsion
[ 8008 7997 7996 7995 ] final  179.40 input   59.86 | X-H torsion
[ 10167 10162 10161 10158 ] final  -36.12 input  -65.29 | X-H torsion
[ 10718 10713 10712 10709 ] final  -95.15 input   66.30 | X-H torsion
[ 10763 10752 10751 10750 ] final -145.63 input  -60.55 | X-H torsion
[ 11005 11000 10999 10996 ] final -169.41 input  -57.11 | X-H torsion

> <Gold.Protein.ActiveResidues>
 VAL166  LYS551  ARG553  GLY616  TRP617  ASP618  TYR619  PRO620  LYS621  CYS622 
 ASP623  PHE694  ASN695  SER759  ASP760  ASP761  ALA762  ILE779  LEU786  VAL792 
 PHE793  MET794  SER795  GLU796  ALA797  LYS798  CYS799  TRP800  GLU811  SER814 

> <Gold.Protein.RotatedAtoms>
  152.5451  134.1266  159.8421 H   0  0  0  0  0  0  0  0  0  0  0  0  # atno 6907 bound_to 6896
  151.1316  133.5025  159.2606 H   0  0  0  0  0  0  0  0  0  0  0  0  # atno 6908 bound_to 6896
  151.1669  135.0309  159.8789 H   0  0  0  0  0  0  0  0  0  0  0  0  # atno 6909 bound_to 6896
  144.8074  140.5288  143.5665 H   0  0  0  0  0  0  0  0  0  0  0  0  # atno 7974 bound_to 7965
  156.0438  140.1309  157.0126 H   0  0  0  0  0  0  0  0  0  0  0  0  # atno 8008 bound_to 7997
  154.4403  140.1025  156.6347 H   0  0  0  0  0  0  0  0  0  0  0  0  # atno 8009 bound_to 7997
  155.5626  140.3465  155.4497 H   0  0  0  0  0  0  0  0  0  0  0  0  # atno 8010 bound_to 7997
  140.7150  143.3430  151.2316 H   0  0  0  0  0  0  0  0  0  0  0  0  # atno 10167 bound_to 10162
  156.0038  130.5097  150.6033 H   0  0  0  0  0  0  0  0  0  0  0  0  # atno 10718 bound_to 10713
  154.8374  135.3408  154.6534 H   0  0  0  0  0  0  0  0  0  0  0  0  # atno 10763 bound_to 10752
  153.7147  135.6962  153.5032 H   0  0  0  0  0  0  0  0  0  0  0  0  # atno 10764 bound_to 10752
  153.2425  135.4380  155.0666 H   0  0  0  0  0  0  0  0  0  0  0  0  # atno 10765 bound_to 10752
  140.5311  134.5616  157.5075 H   0  0  0  0  0  0  0  0  0  0  0  0  # atno 11005 bound_to 11000
  145.5405  139.1475  143.3450 LP  0  0  0  0  0  0  0  0  0  0  0  0  # atno 17320 bound_to 7965
  146.2368  140.5544  142.8951 LP  0  0  0  0  0  0  0  0  0  0  0  0  # atno 17321 bound_to 7965
  139.6943  143.9640  152.2875 LP  0  0  0  0  0  0  0  0  0  0  0  0  # atno 17342 bound_to 10162
  139.9311  144.6740  150.8361 LP  0  0  0  0  0  0  0  0  0  0  0  0  # atno 17343 bound_to 10162
  157.3878  131.0791  151.1420 LP  0  0  0  0  0  0  0  0  0  0  0  0  # atno 17370 bound_to 10713
  157.2122  130.6443  149.5778 LP  0  0  0  0  0  0  0  0  0  0  0  0  # atno 17371 bound_to 10713
  139.9554  134.7544  156.0354 LP  0  0  0  0  0  0  0  0  0  0  0  0  # atno 17394 bound_to 11000
  141.1281  133.6594  156.3390 LP  0  0  0  0  0  0  0  0  0  0  0  0  # atno 17395 bound_to 11000

$$$$
