AV-unprocessed.smi:1705|AV-procd|sdf|6884|dock9
  -GOLD-   22720 8 93D 1   1.00000     0.00000
 Structure written by MMmdl.
 38 39  0  0  0  0  0  0  0  0  1 V2000
  146.0019  134.9208  156.5913 C   0  0  0  0  0  0  0  0  0  0  0  0
  147.4080  134.6947  156.0185 C   0  0  2  0  0  0  0  0  0  0  0  0
  147.9364  135.9460  155.4904 N   0  0  0  0  0  0  0  0  0  0  0  0
  149.2072  136.5194  155.5396 C   0  0  0  0  0  0  0  0  0  0  0  0
  150.2787  135.9281  156.1480 C   0  0  0  0  0  0  0  0  0  0  0  0
  150.2556  134.6432  156.7735 C   0  0  0  0  0  0  0  0  0  0  0  0
  150.2562  133.6252  157.3267 N   0  0  0  0  0  0  0  0  0  0  0  0
  151.5956  136.5638  156.1889 C   0  0  0  0  0  0  0  0  0  0  0  0
  152.5890  136.0467  156.7061 O   0  0  0  0  0  0  0  0  0  0  0  0
  151.6640  137.8307  155.5763 N   0  0  0  0  0  0  0  0  0  0  0  0
  152.9502  138.5011  155.5802 C   0  0  0  0  0  0  0  0  0  0  0  0
  150.5838  138.4533  154.9218 C   0  0  0  0  0  0  0  0  0  0  0  0
  150.7092  139.5539  154.3756 O   0  0  0  0  0  0  0  0  0  0  0  0
  149.3480  137.7610  154.9070 N   0  0  0  0  0  0  0  0  0  0  0  0
  148.2831  138.4588  154.2103 C   0  0  0  0  0  0  0  0  0  0  0  0
  147.4215  133.5849  154.9458 C   0  0  1  0  0  0  0  0  0  0  0  0
  146.7703  133.9383  153.6028 C   0  0  0  0  0  0  0  0  0  0  0  0
  147.5105  133.0252  152.6522 C   0  0  0  0  0  0  0  0  0  0  0  0
  148.9216  133.0691  153.2276 C   0  0  0  0  0  0  0  0  0  0  0  0
  148.7542  133.1816  154.6371 O   0  0  0  0  0  0  0  0  0  0  0  0
  145.5956  133.9983  157.0069 H   0  0  0  0  0  0  0  0  0  0  0  0
  145.3088  135.2762  155.8283 H   0  0  0  0  0  0  0  0  0  0  0  0
  146.0210  135.6613  157.3917 H   0  0  0  0  0  0  0  0  0  0  0  0
  148.0132  134.3693  156.8599 H   0  0  0  0  0  0  0  0  0  0  0  0
  147.2018  136.5904  155.2357 H   0  0  0  0  0  0  0  0  0  0  0  0
  152.8209  139.5767  155.4564 H   0  0  0  0  0  0  0  0  0  0  0  0
  153.5315  138.0753  154.7610 H   0  0  0  0  0  0  0  0  0  0  0  0
  153.4341  138.3328  156.5437 H   0  0  0  0  0  0  0  0  0  0  0  0
  148.0397  139.3449  154.7988 H   0  0  0  0  0  0  0  0  0  0  0  0
  147.4066  137.8245  154.1030 H   0  0  0  0  0  0  0  0  0  0  0  0
  148.6451  138.7198  153.2139 H   0  0  0  0  0  0  0  0  0  0  0  0
  146.9222  132.7006  155.3452 H   0  0  0  0  0  0  0  0  0  0  0  0
  145.6923  133.7758  153.5980 H   0  0  0  0  0  0  0  0  0  0  0  0
  146.9573  134.9772  153.3289 H   0  0  0  0  0  0  0  0  0  0  0  0
  147.1090  132.0129  152.7129 H   0  0  0  0  0  0  0  0  0  0  0  0
  147.4623  133.3540  151.6139 H   0  0  0  0  0  0  0  0  0  0  0  0
  149.5113  132.1910  152.9631 H   0  0  0  0  0  0  0  0  0  0  0  0
  149.4501  133.9538  152.8702 H   0  0  0  0  0  0  0  0  0  0  0  0
  1  2  1  0  0  0  0
  1 21  1  0  0  0  0
  1 22  1  0  0  0  0
  1 23  1  0  0  0  0
  2  3  1  0  0  0  0
  2 16  1  0  0  0  0
  2 24  1  0  0  0  0
  3  4  1  0  0  0  0
  3 25  1  0  0  0  0
  4 14  1  0  0  0  0
  4  5  2  0  0  0  0
  5  6  1  0  0  0  0
  5  8  1  0  0  0  0
  6  7  3  0  0  0  0
  8  9  2  0  0  0  0
  8 10  1  0  0  0  0
 10 11  1  0  0  0  0
 10 12  1  0  0  0  0
 11 26  1  0  0  0  0
 11 27  1  0  0  0  0
 11 28  1  0  0  0  0
 12 13  2  0  0  0  0
 12 14  1  0  0  0  0
 14 15  1  0  0  0  0
 15 29  1  0  0  0  0
 15 30  1  0  0  0  0
 15 31  1  0  0  0  0
 16 20  1  0  0  0  0
 16 17  1  0  0  0  0
 16 32  1  0  0  0  0
 17 18  1  0  0  0  0
 17 33  1  0  0  0  0
 17 34  1  0  0  0  0
 18 19  1  0  0  0  0
 18 35  1  0  0  0  0
 18 36  1  0  0  0  0
 19 20  1  0  0  0  0
 19 37  1  0  0  0  0
 19 38  1  0  0  0  0
M  END
> <s_m_source_file>
AV-unprocessed.smi

> <i_m_source_file_index>
1705

> <i_lp_mmshare_version>
43012

> <i_f3d_flags>
0

> <s_epik_input>
TzFbQ0gyXVtDSDJdW0NIMl1bQ0BIXTFbQ0BIXShbQ0gzXSlbTkhdYzJjKEMjTiljKD1PKW4oW0NIM10pYyg9TyluMltDSDNd

> <s_epik_cmdline>
J2VwaWtfcHl0aG9uJywgJy1waCcsICc3LjAnLCAnLXRuJywgJzgnLCAnLW1hJywgJzIwMCcsICctbWV0YWxfYmluZGluZycsICctaW1hZScsICc8aW5maWxlLm1hZT4nLCAnLW9tYWUnLCAnPG91dGZpbGUubWFlPic=

> <r_epik_Ionization_Penalty>
0.000446268

> <r_epik_Ionization_Penalty_Charging>
9.41922e-10

> <r_epik_Ionization_Penalty_Neutral>
0.000446267

> <r_epik_State_Penalty>
0.000275531

> <r_epik_Charging_Adjusted_Penalty>
0.000275532

> <i_epik_Tot_Q>
0

> <i_epik_Tot_abs_Q>
0

> <r_epik_Metal_State_Penalty>
-0

> <b_epik_Metal_Only>
0

> <s_lp_Force_Field>
OPLS_2005

> <r_lp_Energy>
40.5078

> <b_lp_Chiralities_Consistent>
1

> <s_lp_Variant>
AV-unprocessed.smi:1705-3

> <Gold.Version>
5.8.1

> <Gold.Id.Protein>
6NUR|6NUR_protein|mol2

> <Gold.PLP.Fitness>
29.7697

> <Gold.PLP.PLP>
-21.8663

> <Gold.PLP.part.hbond>
-3.0000

> <Gold.PLP.part.metal>
0.0000

> <Gold.PLP.part.buried>
-3.3929

> <Gold.PLP.part.nonpolar>
-17.0828

> <Gold.PLP.part.repulsive>
0.1922

> <Gold.PLP.ligand.clash>
1.7701

> <Gold.PLP.ligand.torsion>
0.4249

> <Gold.PLP.Chemscore.Hbond>
2.9120

> <Gold.PLP.Chemscore.CHOScore>
0.0000

> <Gold.PLP.Chemscore.Metal>
0.0000

> <Gold.Chemscore.Hbonds>
donor molecule, donor type, donor heavy atom, donor atom, acceptor molecule, acceptor atom, score
      P1  H  6896  6909       L1     7  0.90
      P1  H  7989  7998       L1    13  1.00
      P1  H 10752 10764       L1     9  1.00

> <Gold.PLP.Chemscore.Internal.Correction>
1.7873

> <Gold.Rescore>
     Score         DG    S(hbond)    S(metal)    S(lipo)     H(rot)  DE(clash)    DE(int)     intcor
     13.44     -15.07       2.65        0.00      34.41       1.28       0.15       1.48       ----

> <Gold.Chemscore.Fitness>
13.4445

> <Gold.Chemscore.DG>
-15.0702

> <Gold.Chemscore.ZeroCoef>
-5.4800

> <Gold.Chemscore.Hbond>
2.6455

> <Gold.Chemscore.Metal>
0.0000

> <Gold.Chemscore.Lipo>
34.4085

> <Gold.Chemscore.Internal_Hbond>
0.0000

> <Gold.Chemscore.DEClash>
0.1461

> <Gold.Chemscore.DEInternal>
1.4796

> <Gold.Chemscore.Rot>
1.2780

> <Gold.Chemscore.Internal.Correction>
   9.000000E+99

> <Gold.Chemscore.Hbonds>
donor molecule, donor type, donor heavy atom, donor atom, acceptor molecule, acceptor atom, score
      P1  H  6896  6909       L1     7  0.80
      P1  H  7989  7998       L1    13  1.00
      P1  H 10752 10764       L1     9  0.64

> <Gold.Chemscore.Hbond.Weighted>
-8.8360

> <Gold.Chemscore.Metal.Weighted>
-0.0000

> <Gold.Chemscore.Lipo.Weighted>
-4.0258

> <Gold.Chemscore.Internal_Hbond.Weighted>
0.0000

> <Gold.Chemscore.DEClash.Weighted>
0.1461

> <Gold.Chemscore.DEInternal.Weighted>
1.4796

> <Gold.Chemscore.Rot.Weighted>
3.2717

> <Gold.Chemscore.Internal.Correction.Weighted>
   9.000000E+99

> <Gold.Protein.RotatedTorsions>
[ 6907 6896 6895 6894 ] final  -17.60 input  -60.11 | X-H torsion
[ 7974 7965 7964 7962 ] final    6.85 input  175.53 | X-H torsion
[ 8008 7997 7996 7995 ] final   79.77 input   59.86 | X-H torsion
[ 10167 10162 10161 10158 ] final  106.28 input  -65.29 | X-H torsion
[ 10718 10713 10712 10709 ] final  -60.78 input   66.30 | X-H torsion
[ 10763 10752 10751 10750 ] final    5.05 input  -60.55 | X-H torsion
[ 11005 11000 10999 10996 ] final   10.89 input  -57.11 | X-H torsion

> <Gold.Protein.ActiveResidues>
 VAL166  LYS551  ARG553  GLY616  TRP617  ASP618  TYR619  PRO620  LYS621  CYS622 
 ASP623  PHE694  ASN695  SER759  ASP760  ASP761  ALA762  ILE779  LEU786  VAL792 
 PHE793  MET794  SER795  GLU796  ALA797  LYS798  CYS799  TRP800  GLU811  SER814 

> <Gold.Protein.RotatedAtoms>
  151.2909  135.0741  159.9203 H   0  0  0  0  0  0  0  0  0  0  0  0  # atno 6907 bound_to 6896
  152.5316  133.9932  159.7871 H   0  0  0  0  0  0  0  0  0  0  0  0  # atno 6908 bound_to 6896
  151.0202  133.5832  159.2703 H   0  0  0  0  0  0  0  0  0  0  0  0  # atno 6909 bound_to 6896
  146.2431  140.0171  142.8401 H   0  0  0  0  0  0  0  0  0  0  0  0  # atno 7974 bound_to 7965
  155.8742  140.3447  155.5842 H   0  0  0  0  0  0  0  0  0  0  0  0  # atno 8008 bound_to 7997
  155.7793  140.0856  157.2087 H   0  0  0  0  0  0  0  0  0  0  0  0  # atno 8009 bound_to 7997
  154.4019  140.1504  156.3020 H   0  0  0  0  0  0  0  0  0  0  0  0  # atno 8010 bound_to 7997
  139.7022  144.7092  151.1166 H   0  0  0  0  0  0  0  0  0  0  0  0  # atno 10167 bound_to 10162
  156.0967  130.4192  150.0902 H   0  0  0  0  0  0  0  0  0  0  0  0  # atno 10718 bound_to 10713
  153.2640  135.6926  153.7549 H   0  0  0  0  0  0  0  0  0  0  0  0  # atno 10763 bound_to 10752
  153.6598  135.3362  155.3124 H   0  0  0  0  0  0  0  0  0  0  0  0  # atno 10764 bound_to 10752
  154.8440  135.4474  154.1640 H   0  0  0  0  0  0  0  0  0  0  0  0  # atno 10765 bound_to 10752
  140.5094  134.0667  155.7814 H   0  0  0  0  0  0  0  0  0  0  0  0  # atno 11005 bound_to 11000
  145.1275  140.9498  143.4564 LP  0  0  0  0  0  0  0  0  0  0  0  0  # atno 17320 bound_to 7965
  145.0421  139.3252  143.5971 LP  0  0  0  0  0  0  0  0  0  0  0  0  # atno 17321 bound_to 7965
  140.7712  143.5408  150.9315 LP  0  0  0  0  0  0  0  0  0  0  0  0  # atno 17342 bound_to 10162
  139.9090  143.6743  152.3118 LP  0  0  0  0  0  0  0  0  0  0  0  0  # atno 17343 bound_to 10162
  156.8899  130.9585  151.3589 LP  0  0  0  0  0  0  0  0  0  0  0  0  # atno 17370 bound_to 10713
  157.6129  130.8596  149.8981 LP  0  0  0  0  0  0  0  0  0  0  0  0  # atno 17371 bound_to 10713
  141.1393  133.9166  157.2361 LP  0  0  0  0  0  0  0  0  0  0  0  0  # atno 17394 bound_to 11000
  139.9667  135.0140  156.9406 LP  0  0  0  0  0  0  0  0  0  0  0  0  # atno 17395 bound_to 11000

$$$$
