AV-unprocessed.smi:160|AV-procd|sdf|1344|dock4
  -GOLD-   2262019 43D 1   1.00000     0.00000
 Structure written by MMmdl.
 29 30  0  0  0  0  0  0  0  0  1 V2000
  140.8657  138.7288  155.0055 N   0  0  0  0  0  0  0  0  0  0  0  0
  140.1789  137.6436  154.6334 C   0  0  0  0  0  0  0  0  0  0  0  0
  138.9502  137.5989  154.6641 O   0  0  0  0  0  0  0  0  0  0  0  0
  140.9946  136.4692  154.1681 C   0  0  0  0  0  0  0  0  0  0  0  0
  140.4568  135.2149  154.1053 N   0  0  0  0  0  0  0  0  0  0  0  0
  141.5167  134.5564  153.6540 C   0  0  0  0  0  0  0  0  0  0  0  0
  142.5970  135.3208  153.4637 N   0  0  0  0  0  0  0  0  0  0  0  0
  143.9621  134.9461  152.9675 C   0  0  1  0  0  0  0  0  0  0  0  0
  143.8285  133.8692  152.0874 O   0  0  0  0  0  0  0  0  0  0  0  0
  143.9490  134.3278  150.7445 C   0  0  2  0  0  0  0  0  0  0  0  0
  144.3327  133.1575  149.8265 C   0  0  0  0  0  0  0  0  0  0  0  0
  143.1960  132.3663  149.5531 O   0  0  0  0  0  0  0  0  0  0  0  0
  145.0433  135.3861  150.8880 C   0  0  1  0  0  0  0  0  0  0  0  0
  145.1144  136.2614  149.7776 O   0  0  0  0  0  0  0  0  0  0  0  0
  144.6746  136.0843  152.1967 C   0  0  1  0  0  0  0  0  0  0  0  0
  143.8778  137.2423  151.9950 O   0  0  0  0  0  0  0  0  0  0  0  0
  142.2698  136.5945  153.7981 N   0  0  0  0  0  0  0  0  0  0  0  0
  144.4982  134.6285  153.8625 H   0  0  0  0  0  0  0  0  0  0  0  0
  143.0196  134.7980  150.4170 H   0  0  0  0  0  0  0  0  0  0  0  0
  146.0090  134.8930  151.0094 H   0  0  0  0  0  0  0  0  0  0  0  0
  145.5708  136.3807  152.7427 H   0  0  0  0  0  0  0  0  0  0  0  0
  140.3756  139.5502  155.3274 H   0  0  0  0  0  0  0  0  0  0  0  0
  141.8748  138.7181  154.9610 H   0  0  0  0  0  0  0  0  0  0  0  0
  141.5061  133.4938  153.4602 H   0  0  0  0  0  0  0  0  0  0  0  0
  144.7056  133.5340  148.8736 H   0  0  0  0  0  0  0  0  0  0  0  0
  145.1232  132.5489  150.2667 H   0  0  0  0  0  0  0  0  0  0  0  0
  142.4381  132.9297  149.5194 H   0  0  0  0  0  0  0  0  0  0  0  0
  144.4748  136.9469  149.8950 H   0  0  0  0  0  0  0  0  0  0  0  0
  143.7592  137.3699  151.0663 H   0  0  0  0  0  0  0  0  0  0  0  0
  1  2  1  0  0  0  0
  1 22  1  0  0  0  0
  1 23  1  0  0  0  0
  2  3  2  0  0  0  0
  2  4  1  0  0  0  0
  4 17  2  0  0  0  0
  4  5  1  0  0  0  0
  5  6  2  0  0  0  0
  6  7  1  0  0  0  0
  6 24  1  0  0  0  0
  7  8  1  0  0  0  0
  7 17  1  0  0  0  0
  8 18  1  0  0  0  0
  8 15  1  0  0  0  0
  8  9  1  0  0  0  0
  9 10  1  0  0  0  0
 10 19  1  0  0  0  0
 10 11  1  0  0  0  0
 10 13  1  0  0  0  0
 11 12  1  0  0  0  0
 11 25  1  0  0  0  0
 11 26  1  0  0  0  0
 12 27  1  0  0  0  0
 13 20  1  0  0  0  0
 13 14  1  0  0  0  0
 13 15  1  0  0  0  0
 14 28  1  0  0  0  0
 15 21  1  0  0  0  0
 15 16  1  0  0  0  0
 16 29  1  0  0  0  0
M  END
> <s_m_source_file>
AV-unprocessed.smi

> <i_m_source_file_index>
160

> <i_lp_mmshare_version>
43012

> <i_f3d_flags>
0

> <s_epik_input>
W05IMl1DKD1PKWMxbltjSF1uKG4xKVtDQEBIXTJPW0NASF0oW0NIMl1bT0hdKVtDQEBIXShbT0hdKVtDQEhdMltPSF0=

> <s_epik_cmdline>
J2VwaWtfcHl0aG9uJywgJy1waCcsICc3LjAnLCAnLXRuJywgJzgnLCAnLW1hJywgJzIwMCcsICctbWV0YWxfYmluZGluZycsICctaW1hZScsICc8aW5maWxlLm1hZT4nLCAnLW9tYWUnLCAnPG91dGZpbGUubWFlPic=

> <r_lp_tautomer_probability>
1

> <r_epik_Ionization_Penalty>
1.06932e-05

> <r_epik_Ionization_Penalty_Charging>
0

> <r_epik_Ionization_Penalty_Neutral>
1.06932e-05

> <r_epik_State_Penalty>
-0

> <r_epik_Charging_Adjusted_Penalty>
0

> <i_epik_Tot_Q>
0

> <i_epik_Tot_abs_Q>
0

> <r_epik_Metal_State_Penalty>
0.0142097

> <b_epik_Metal_Only>
0

> <s_epik_Chemistry_Notes>
This compound contains an acetal/aminal-like group ( X-CH(R)-Y where X, Y are N, S, or O) that may be acid/base labile, releasing an aldehyde.

> <s_lp_Force_Field>
OPLS_2005

> <r_lp_Energy>
46.1789

> <b_lp_Chiralities_Consistent>
1

> <s_lp_Variant>
AV-unprocessed.smi:160-2

> <Gold.Version>
5.8.1

> <Gold.Id.Protein>
6NUR|6NUR_protein|mol2

> <Gold.PLP.Fitness>
39.4767

> <Gold.PLP.PLP>
-30.6999

> <Gold.PLP.part.hbond>
-6.6287

> <Gold.PLP.part.metal>
0.0000

> <Gold.PLP.part.buried>
-7.6287

> <Gold.PLP.part.nonpolar>
-17.7004

> <Gold.PLP.part.repulsive>
0.4626

> <Gold.PLP.ligand.clash>
0.0000

> <Gold.PLP.ligand.torsion>
0.9941

> <Gold.PLP.Chemscore.Hbond>
2.9370

> <Gold.PLP.Chemscore.CHOScore>
0.6458

> <Gold.PLP.Chemscore.Metal>
0.0000

> <Gold.Chemscore.Hbonds>
donor molecule, donor type, donor heavy atom, donor atom, acceptor molecule, acceptor atom, score
      L1  H    12    27       P1 10186  0.93
      L1  H    14    28       P1 10171  1.00
      L1  H    16    29       P1 10171  0.85
      P1  H 10785 10796       L1    12  0.16
      L1  C     6    24       P1 10957  0.94

> <Gold.PLP.Chemscore.Internal.Correction>
0.0165

> <Gold.Rescore>
     Score         DG    S(hbond)    S(metal)    S(lipo)     H(rot)  DE(clash)    DE(int)     intcor
      6.57      -9.03       3.24        0.00      26.66       4.06       0.02       2.44       ----

> <Gold.Chemscore.Fitness>
6.5689

> <Gold.Chemscore.DG>
-9.0293

> <Gold.Chemscore.ZeroCoef>
-5.4800

> <Gold.Chemscore.Hbond>
3.2405

> <Gold.Chemscore.Metal>
0.0000

> <Gold.Chemscore.Lipo>
26.6622

> <Gold.Chemscore.Internal_Hbond>
0.0000

> <Gold.Chemscore.DEClash>
0.0234

> <Gold.Chemscore.DEInternal>
2.4369

> <Gold.Chemscore.Rot>
4.0600

> <Gold.Chemscore.Internal.Correction>
   9.000000E+99

> <Gold.Chemscore.Hbonds>
donor molecule, donor type, donor heavy atom, donor atom, acceptor molecule, acceptor atom, score
      L1  H    12    27       P1 10186  0.89
      L1  H    14    28       P1 10171  0.98
      L1  H    16    29       P1 10171  0.85
      P1  H 10785 10796       L1    12  0.17

> <Gold.Chemscore.Hbond.Weighted>
-10.8234

> <Gold.Chemscore.Metal.Weighted>
-0.0000

> <Gold.Chemscore.Lipo.Weighted>
-3.1195

> <Gold.Chemscore.Internal_Hbond.Weighted>
0.0000

> <Gold.Chemscore.DEClash.Weighted>
0.0234

> <Gold.Chemscore.DEInternal.Weighted>
2.4369

> <Gold.Chemscore.Rot.Weighted>
10.3936

> <Gold.Chemscore.Internal.Correction.Weighted>
   9.000000E+99

> <Gold.Protein.RotatedTorsions>
[ 6907 6896 6895 6894 ] final -108.02 input  -60.11 | X-H torsion
[ 7974 7965 7964 7962 ] final  155.84 input  175.53 | X-H torsion
[ 8008 7997 7996 7995 ] final  -49.11 input   59.86 | X-H torsion
[ 10167 10162 10161 10158 ] final   80.87 input  -65.29 | X-H torsion
[ 10718 10713 10712 10709 ] final   24.82 input   66.30 | X-H torsion
[ 10763 10752 10751 10750 ] final   -8.86 input  -60.55 | X-H torsion
[ 11005 11000 10999 10996 ] final  -44.20 input  -57.11 | X-H torsion

> <Gold.Protein.ActiveResidues>
 VAL166  LYS551  ARG553  GLY616  TRP617  ASP618  TYR619  PRO620  LYS621  CYS622 
 ASP623  PHE694  ASN695  SER759  ASP760  ASP761  ALA762  ILE779  LEU786  VAL792 
 PHE793  MET794  SER795  GLU796  ALA797  LYS798  CYS799  TRP800  GLU811  SER814 

> <Gold.Protein.RotatedAtoms>
  150.7477  133.9739  159.3554 H   0  0  0  0  0  0  0  0  0  0  0  0  # atno 6907 bound_to 6896
  151.7675  135.0792  160.0364 H   0  0  0  0  0  0  0  0  0  0  0  0  # atno 6908 bound_to 6896
  152.3361  133.5977  159.5880 H   0  0  0  0  0  0  0  0  0  0  0  0  # atno 6909 bound_to 6896
  144.8000  139.7122  143.6186 H   0  0  0  0  0  0  0  0  0  0  0  0  # atno 7974 bound_to 7965
  154.4039  140.1305  156.4450 H   0  0  0  0  0  0  0  0  0  0  0  0  # atno 8008 bound_to 7997
  155.7422  140.3489  155.5090 H   0  0  0  0  0  0  0  0  0  0  0  0  # atno 8009 bound_to 7997
  155.9028  140.1022  157.1327 H   0  0  0  0  0  0  0  0  0  0  0  0  # atno 8010 bound_to 7997
  139.9452  144.6063  150.8213 H   0  0  0  0  0  0  0  0  0  0  0  0  # atno 10167 bound_to 10162
  157.1850  130.6820  149.6127 H   0  0  0  0  0  0  0  0  0  0  0  0  # atno 10718 bound_to 10713
  153.4466  135.7014  153.6135 H   0  0  0  0  0  0  0  0  0  0  0  0  # atno 10763 bound_to 10752
  153.4488  135.3763  155.2272 H   0  0  0  0  0  0  0  0  0  0  0  0  # atno 10764 bound_to 10752
  154.8728  135.3992  154.3872 H   0  0  0  0  0  0  0  0  0  0  0  0  # atno 10765 bound_to 10752
  141.0434  133.6771  156.2839 H   0  0  0  0  0  0  0  0  0  0  0  0  # atno 11005 bound_to 11000
  146.2279  139.5757  142.9575 LP  0  0  0  0  0  0  0  0  0  0  0  0  # atno 17320 bound_to 7965
  145.5577  141.0407  143.2243 LP  0  0  0  0  0  0  0  0  0  0  0  0  # atno 17321 bound_to 7965
  140.7599  143.3140  151.2778 LP  0  0  0  0  0  0  0  0  0  0  0  0  # atno 17342 bound_to 10162
  139.6672  144.0083  152.2731 LP  0  0  0  0  0  0  0  0  0  0  0  0  # atno 17343 bound_to 10162
  155.9719  130.4634  150.6180 LP  0  0  0  0  0  0  0  0  0  0  0  0  # atno 17370 bound_to 10713
  157.3916  131.0796  151.1388 LP  0  0  0  0  0  0  0  0  0  0  0  0  # atno 17371 bound_to 10713
  140.6191  134.5380  157.5545 LP  0  0  0  0  0  0  0  0  0  0  0  0  # atno 17394 bound_to 11000
  139.9293  134.7994  156.0976 LP  0  0  0  0  0  0  0  0  0  0  0  0  # atno 17395 bound_to 11000

$$$$
