AV-unprocessed.smi:740|AV-procd|sdf|3548|dock1
  -GOLD-   22720 0543D 1   1.00000     0.00000
 Structure written by MMmdl.
 44 46  0  0  0  0  0  0  0  0  1 V2000
  152.7404  144.0620  161.6680 C   0  0  0  0  0  0  0  0  0  0  0  0
  152.4439  143.2304  160.4323 C   0  0  0  0  0  0  0  0  0  0  0  0
  152.7598  141.8531  160.4391 C   0  0  0  0  0  0  0  0  0  0  0  0
  152.5031  141.0454  159.3097 C   0  0  0  0  0  0  0  0  0  0  0  0
  152.7309  139.6960  159.0999 N   0  0  0  0  0  0  0  0  0  0  0  0
  152.2839  139.5395  157.8573 C   0  0  0  0  0  0  0  0  0  0  0  0
  151.7905  140.6285  157.2372 N   0  0  0  0  0  0  0  0  0  0  0  0
  151.2542  140.6949  155.8894 C   0  0  0  0  0  0  0  0  0  0  0  0
  151.0371  139.2992  155.2740 C   0  0  2  0  0  0  0  0  0  0  0  0
  150.6393  139.4557  153.9254 O   0  0  0  0  0  0  0  0  0  0  0  0
  149.9469  138.5070  156.0251 C   0  0  0  0  0  0  0  0  0  0  0  0
  149.9636  137.0831  155.6715 N   0  0  0  0  0  0  0  0  0  0  0  0
  148.8727  136.3797  155.3381 C   0  0  0  0  0  0  0  0  0  0  0  0
  147.7225  136.8112  155.2636 O   0  0  0  0  0  0  0  0  0  0  0  0
  149.2247  134.9255  155.0582 C   0  0  0  0  0  0  0  0  0  0  0  0
  150.7417  134.8775  155.2959 C   0  0  2  0  0  0  0  0  0  0  0  0
  151.1662  133.8827  156.3888 C   0  0  0  0  0  0  0  0  0  0  0  0
  151.0650  136.3191  155.6839 C   0  0  0  0  0  0  0  0  0  0  0  0
  152.2034  136.6919  155.9679 O   0  0  0  0  0  0  0  0  0  0  0  0
  151.9148  141.6575  158.1645 C   0  0  0  0  0  0  0  0  0  0  0  0
  151.5952  143.0268  158.1459 C   0  0  0  0  0  0  0  0  0  0  0  0
  151.8604  143.8197  159.2820 C   0  0  0  0  0  0  0  0  0  0  0  0
  151.5157  145.2982  159.2504 C   0  0  0  0  0  0  0  0  0  0  0  0
  153.1523  143.4499  162.4708 H   0  0  0  0  0  0  0  0  0  0  0  0
  151.8305  144.5328  162.0407 H   0  0  0  0  0  0  0  0  0  0  0  0
  153.4651  144.8429  161.4363 H   0  0  0  0  0  0  0  0  0  0  0  0
  153.2053  141.4040  161.3145 H   0  0  0  0  0  0  0  0  0  0  0  0
  152.3177  138.5773  157.3672 H   0  0  0  0  0  0  0  0  0  0  0  0
  150.3089  141.2379  155.9298 H   0  0  0  0  0  0  0  0  0  0  0  0
  151.9274  141.2897  155.2706 H   0  0  0  0  0  0  0  0  0  0  0  0
  151.9824  138.7551  155.2980 H   0  0  0  0  0  0  0  0  0  0  0  0
  150.5527  138.5994  153.5350 H   0  0  0  0  0  0  0  0  0  0  0  0
  150.1145  138.5881  157.1007 H   0  0  0  0  0  0  0  0  0  0  0  0
  148.9627  138.9487  155.8576 H   0  0  0  0  0  0  0  0  0  0  0  0
  148.6741  134.2704  155.7341 H   0  0  0  0  0  0  0  0  0  0  0  0
  148.9664  134.6617  154.0321 H   0  0  0  0  0  0  0  0  0  0  0  0
  151.2580  134.6439  154.3639 H   0  0  0  0  0  0  0  0  0  0  0  0
  152.2473  133.8899  156.5318 H   0  0  0  0  0  0  0  0  0  0  0  0
  150.8782  132.8661  156.1204 H   0  0  0  0  0  0  0  0  0  0  0  0
  150.7012  134.1169  157.3473 H   0  0  0  0  0  0  0  0  0  0  0  0
  151.1530  143.4633  157.2627 H   0  0  0  0  0  0  0  0  0  0  0  0
  151.0958  145.5877  158.2866 H   0  0  0  0  0  0  0  0  0  0  0  0
  152.4067  145.9026  159.4217 H   0  0  0  0  0  0  0  0  0  0  0  0
  150.7816  145.5355  160.0205 H   0  0  0  0  0  0  0  0  0  0  0  0
  1  2  1  0  0  0  0
  1 24  1  0  0  0  0
  1 25  1  0  0  0  0
  1 26  1  0  0  0  0
  2 22  1  0  0  0  0
  2  3  2  0  0  0  0
  3  4  1  0  0  0  0
  3 27  1  0  0  0  0
  4 20  2  0  0  0  0
  4  5  1  0  0  0  0
  5  6  2  0  0  0  0
  6  7  1  0  0  0  0
  6 28  1  0  0  0  0
  7  8  1  0  0  0  0
  7 20  1  0  0  0  0
  8  9  1  0  0  0  0
  8 29  1  0  0  0  0
  8 30  1  0  0  0  0
  9 10  1  0  0  0  0
  9 11  1  0  0  0  0
  9 31  1  0  0  0  0
 10 32  1  0  0  0  0
 11 12  1  0  0  0  0
 11 33  1  0  0  0  0
 11 34  1  0  0  0  0
 12 18  1  0  0  0  0
 12 13  1  0  0  0  0
 13 14  2  0  0  0  0
 13 15  1  0  0  0  0
 15 16  1  0  0  0  0
 15 35  1  0  0  0  0
 15 36  1  0  0  0  0
 16 17  1  0  0  0  0
 16 18  1  0  0  0  0
 16 37  1  0  0  0  0
 17 38  1  0  0  0  0
 17 39  1  0  0  0  0
 17 40  1  0  0  0  0
 18 19  2  0  0  0  0
 20 21  1  0  0  0  0
 21 22  2  0  0  0  0
 21 41  1  0  0  0  0
 22 23  1  0  0  0  0
 23 42  1  0  0  0  0
 23 43  1  0  0  0  0
 23 44  1  0  0  0  0
M  END
> <s_m_source_file>
AV-unprocessed.smi

> <i_m_source_file_index>
740

> <i_lp_mmshare_version>
43012

> <i_f3d_flags>
0

> <s_epik_input>
W0NIM11jKFtjSF0xKWMoW0NIM10pW2NIXWMoYzEyKW4oW2NIXW4yKVtDSDJdW0NASF0oW09IXSlbQ0gyXU4zQyg9TylbQ0gyXVtDQEBIXShbQ0gzXSlDMz1P

> <s_epik_cmdline>
J2VwaWtfcHl0aG9uJywgJy1waCcsICc3LjAnLCAnLXRuJywgJzgnLCAnLW1hJywgJzIwMCcsICctbWV0YWxfYmluZGluZycsICctaW1hZScsICc8aW5maWxlLm1hZT4nLCAnLW9tYWUnLCAnPG91dGZpbGUubWFlPic=

> <r_lp_tautomer_probability>
1

> <r_epik_Ionization_Penalty>
0.104021

> <r_epik_Ionization_Penalty_Charging>
0

> <r_epik_Ionization_Penalty_Neutral>
0.104021

> <r_epik_State_Penalty>
0.0939354

> <r_epik_Charging_Adjusted_Penalty>
0.0939354

> <i_epik_Tot_Q>
0

> <i_epik_Tot_abs_Q>
0

> <r_epik_Metal_State_Penalty>
0.000101783

> <b_epik_Metal_Only>
0

> <s_lp_Force_Field>
OPLS_2005

> <r_lp_Energy>
16.7866

> <b_lp_Chiralities_Consistent>
1

> <s_lp_Variant>
AV-unprocessed.smi:740-3

> <Gold.Version>
5.8.1

> <Gold.Id.Protein>
6NUR|6NUR_protein|mol2

> <Gold.PLP.Fitness>
49.1041

> <Gold.PLP.PLP>
-43.7008

> <Gold.PLP.part.hbond>
-3.0000

> <Gold.PLP.part.metal>
0.0000

> <Gold.PLP.part.buried>
-4.6121

> <Gold.PLP.part.nonpolar>
-35.4221

> <Gold.PLP.part.repulsive>
0.0885

> <Gold.PLP.ligand.clash>
0.0000

> <Gold.PLP.ligand.torsion>
0.3395

> <Gold.PLP.Chemscore.Hbond>
2.0000

> <Gold.PLP.Chemscore.CHOScore>
0.0000

> <Gold.PLP.Chemscore.Metal>
0.0000

> <Gold.Chemscore.Hbonds>
donor molecule, donor type, donor heavy atom, donor atom, acceptor molecule, acceptor atom, score
      P1  H  7989  7998       L1    10  1.00
      P1  H 10752 10763       L1    19  0.98

> <Gold.PLP.Chemscore.Internal.Correction>
0.0823

> <Gold.Rescore>
     Score         DG    S(hbond)    S(metal)    S(lipo)     H(rot)  DE(clash)    DE(int)     intcor
     16.99     -18.77       1.83        0.00     112.09       2.31       0.14       1.64       ----

> <Gold.Chemscore.Fitness>
16.9866

> <Gold.Chemscore.DG>
-18.7683

> <Gold.Chemscore.ZeroCoef>
-5.4800

> <Gold.Chemscore.Hbond>
1.8260

> <Gold.Chemscore.Metal>
0.0000

> <Gold.Chemscore.Lipo>
112.0933

> <Gold.Chemscore.Internal_Hbond>
0.0000

> <Gold.Chemscore.DEClash>
0.1416

> <Gold.Chemscore.DEInternal>
1.6401

> <Gold.Chemscore.Rot>
2.3147

> <Gold.Chemscore.Internal.Correction>
   9.000000E+99

> <Gold.Chemscore.Hbonds>
donor molecule, donor type, donor heavy atom, donor atom, acceptor molecule, acceptor atom, score
      P1  H  7989  7998       L1    10  0.25
      P1  H 10752 10763       L1    19  0.37

> <Gold.Chemscore.Hbond.Weighted>
-6.0989

> <Gold.Chemscore.Metal.Weighted>
-0.0000

> <Gold.Chemscore.Lipo.Weighted>
-13.1149

> <Gold.Chemscore.Internal_Hbond.Weighted>
0.0000

> <Gold.Chemscore.DEClash.Weighted>
0.1416

> <Gold.Chemscore.DEInternal.Weighted>
1.6401

> <Gold.Chemscore.Rot.Weighted>
5.9256

> <Gold.Chemscore.Internal.Correction.Weighted>
   9.000000E+99

> <Gold.Protein.RotatedTorsions>
[ 6907 6896 6895 6894 ] final  -83.53 input  -60.11 | X-H torsion
[ 7974 7965 7964 7962 ] final  -88.72 input  175.53 | X-H torsion
[ 8008 7997 7996 7995 ] final   49.99 input   59.86 | X-H torsion
[ 10167 10162 10161 10158 ] final -170.61 input  -65.29 | X-H torsion
[ 10718 10713 10712 10709 ] final  168.29 input   66.30 | X-H torsion
[ 10763 10752 10751 10750 ] final   99.39 input  -60.55 | X-H torsion
[ 11005 11000 10999 10996 ] final  161.93 input  -57.11 | X-H torsion

> <Gold.Protein.ActiveResidues>
 VAL166  LYS551  ARG553  GLY616  TRP617  ASP618  TYR619  PRO620  LYS621  CYS622 
 ASP623  PHE694  ASN695  SER759  ASP760  ASP761  ALA762  ILE779  LEU786  VAL792 
 PHE793  MET794  SER795  GLU796  ALA797  LYS798  CYS799  TRP800  GLU811  SER814 

> <Gold.Protein.RotatedAtoms>
  150.6884  134.3498  159.4903 H   0  0  0  0  0  0  0  0  0  0  0  0  # atno 6907 bound_to 6896
  152.1340  134.9110  160.0566 H   0  0  0  0  0  0  0  0  0  0  0  0  # atno 6908 bound_to 6896
  152.0269  133.3886  159.4318 H   0  0  0  0  0  0  0  0  0  0  0  0  # atno 6909 bound_to 6896
  145.4494  140.9560  143.2031 H   0  0  0  0  0  0  0  0  0  0  0  0  # atno 7974 bound_to 7965
  155.4114  140.3442  155.4264 H   0  0  0  0  0  0  0  0  0  0  0  0  # atno 8008 bound_to 7997
  156.1446  140.1552  156.8898 H   0  0  0  0  0  0  0  0  0  0  0  0  # atno 8009 bound_to 7997
  154.5000  140.0817  156.7758 H   0  0  0  0  0  0  0  0  0  0  0  0  # atno 8010 bound_to 7997
  139.5852  144.1335  152.1566 H   0  0  0  0  0  0  0  0  0  0  0  0  # atno 10167 bound_to 10162
  157.0392  131.0281  151.2719 H   0  0  0  0  0  0  0  0  0  0  0  0  # atno 10718 bound_to 10713
  153.3009  135.4115  155.1251 H   0  0  0  0  0  0  0  0  0  0  0  0  # atno 10763 bound_to 10752
  154.8549  135.3541  154.5853 H   0  0  0  0  0  0  0  0  0  0  0  0  # atno 10764 bound_to 10752
  153.6279  135.7062  153.5344 H   0  0  0  0  0  0  0  0  0  0  0  0  # atno 10765 bound_to 10752
  140.2207  134.8198  157.3217 H   0  0  0  0  0  0  0  0  0  0  0  0  # atno 11005 bound_to 11000
  144.8071  139.6030  143.7046 LP  0  0  0  0  0  0  0  0  0  0  0  0  # atno 17320 bound_to 7965
  146.2513  139.6205  142.9425 LP  0  0  0  0  0  0  0  0  0  0  0  0  # atno 17321 bound_to 7965
  140.0897  144.5631  150.7063 LP  0  0  0  0  0  0  0  0  0  0  0  0  # atno 17342 bound_to 10162
  140.7124  143.2516  151.4539 LP  0  0  0  0  0  0  0  0  0  0  0  0  # atno 17343 bound_to 10162
  157.5118  130.7943  149.7713 LP  0  0  0  0  0  0  0  0  0  0  0  0  # atno 17370 bound_to 10713
  156.0044  130.3863  150.2487 LP  0  0  0  0  0  0  0  0  0  0  0  0  # atno 17371 bound_to 10713
  140.1853  134.4439  155.7748 LP  0  0  0  0  0  0  0  0  0  0  0  0  # atno 17394 bound_to 11000
  141.2223  133.7002  156.7936 LP  0  0  0  0  0  0  0  0  0  0  0  0  # atno 17395 bound_to 11000

$$$$
