AV-unprocessed.smi:1786|AV-procd|sdf|7202|dock2
  -GOLD-   22720 8443D 1   1.00000     0.00000
 Structure written by MMmdl.
 44 45  0  0  0  0  0  0  0  0  2 V2000
  147.3718  134.9948  154.6166 C   0  0  0  0  0  0  0  0  0  0  0  0
  146.2520  135.2378  153.5850 C   0  0  2  0  0  0  0  0  0  0  0  0
  146.1958  134.0412  152.6100 C   0  0  0  0  0  0  0  0  0  0  0  0
  145.1093  134.2188  151.5450 C   0  0  0  0  0  0  0  0  0  0  0  0
  145.3302  135.5401  150.8061 C   0  0  0  0  0  0  0  0  0  0  0  0
  145.3688  136.7110  151.7982 C   0  0  0  0  0  0  0  0  0  0  0  0
  146.4192  136.5248  152.8364 N   0  3  1  0  0  0  0  0  0  0  0  0
  146.5407  137.7277  153.7048 C   0  0  0  0  0  0  0  0  0  0  0  0
  146.5511  139.0245  152.8744 C   0  0  0  0  0  0  0  0  0  0  0  0
  147.7565  139.8076  153.1168 N   0  0  0  0  0  0  0  0  0  0  0  0
  148.1841  140.1994  154.3266 C   0  0  0  0  0  0  0  0  0  0  0  0
  147.5757  139.9458  155.3673 O   0  0  0  0  0  0  0  0  0  0  0  0
  149.4835  141.0171  154.3499 C   0  0  0  0  0  0  0  0  0  0  0  0
  150.1159  141.0721  155.6786 N   0  0  0  0  0  0  0  0  0  0  0  0
  149.5284  141.9249  156.6343 C   0  0  0  0  0  0  0  0  0  0  0  0
  150.0245  142.0487  157.8756 C   0  0  0  0  0  0  0  0  0  0  0  0
  151.1952  141.2786  158.2228 C   0  0  0  0  0  0  0  0  0  0  0  0
  151.7629  140.4569  157.3175 C   0  0  0  0  0  0  0  0  0  0  0  0
  151.2215  140.3154  155.9607 C   0  0  0  0  0  0  0  0  0  0  0  0
  151.7295  139.5628  155.1288 O   0  0  0  0  0  0  0  0  0  0  0  0
  147.2446  134.0283  155.1051 H   0  0  0  0  0  0  0  0  0  0  0  0
  147.3780  135.7431  155.4084 H   0  0  0  0  0  0  0  0  0  0  0  0
  148.3545  134.9944  154.1441 H   0  0  0  0  0  0  0  0  0  0  0  0
  145.3028  135.2854  154.1218 H   0  0  0  0  0  0  0  0  0  0  0  0
  147.1634  133.9184  152.1206 H   0  0  0  0  0  0  0  0  0  0  0  0
  146.0123  133.1180  153.1607 H   0  0  0  0  0  0  0  0  0  0  0  0
  145.1284  133.3849  150.8425 H   0  0  0  0  0  0  0  0  0  0  0  0
  144.1240  134.2134  152.0131 H   0  0  0  0  0  0  0  0  0  0  0  0
  146.2649  135.4995  150.2452 H   0  0  0  0  0  0  0  0  0  0  0  0
  144.5358  135.6959  150.0754 H   0  0  0  0  0  0  0  0  0  0  0  0
  145.5597  137.6324  151.2461 H   0  0  0  0  0  0  0  0  0  0  0  0
  144.3967  136.8249  152.2811 H   0  0  0  0  0  0  0  0  0  0  0  0
  145.7004  137.7837  154.3985 H   0  0  0  0  0  0  0  0  0  0  0  0
  147.4243  137.6515  154.3395 H   0  0  0  0  0  0  0  0  0  0  0  0
  146.4608  138.8169  151.8080 H   0  0  0  0  0  0  0  0  0  0  0  0
  145.6905  139.6389  153.1399 H   0  0  0  0  0  0  0  0  0  0  0  0
  148.3112  140.0606  152.3112 H   0  0  0  0  0  0  0  0  0  0  0  0
  150.1836  140.6055  153.6202 H   0  0  0  0  0  0  0  0  0  0  0  0
  149.2579  142.0226  153.9921 H   0  0  0  0  0  0  0  0  0  0  0  0
  148.6529  142.4609  156.2980 H   0  0  0  0  0  0  0  0  0  0  0  0
  149.5586  142.7045  158.5965 H   0  0  0  0  0  0  0  0  0  0  0  0
  151.6173  141.3613  159.2136 H   0  0  0  0  0  0  0  0  0  0  0  0
  152.6382  139.8884  157.5953 H   0  0  0  0  0  0  0  0  0  0  0  0
  147.2921  136.4525  152.3335 H   0  0  0  0  0  0  0  0  0  0  0  0
  1  2  1  0  0  0  0
  1 21  1  0  0  0  0
  1 22  1  0  0  0  0
  1 23  1  0  0  0  0
  2  7  1  0  0  0  0
  2  3  1  0  0  0  0
  2 24  1  0  0  0  0
  3  4  1  0  0  0  0
  3 25  1  0  0  0  0
  3 26  1  0  0  0  0
  4  5  1  0  0  0  0
  4 27  1  0  0  0  0
  4 28  1  0  0  0  0
  5  6  1  0  0  0  0
  5 29  1  0  0  0  0
  5 30  1  0  0  0  0
  6  7  1  0  0  0  0
  6 31  1  0  0  0  0
  6 32  1  0  0  0  0
  7  8  1  0  0  0  0
  7 44  1  0  0  0  0
  8  9  1  0  0  0  0
  8 33  1  0  0  0  0
  8 34  1  0  0  0  0
  9 10  1  0  0  0  0
  9 35  1  0  0  0  0
  9 36  1  0  0  0  0
 10 11  1  0  0  0  0
 10 37  1  0  0  0  0
 11 12  2  0  0  0  0
 11 13  1  0  0  0  0
 13 14  1  0  0  0  0
 13 38  1  0  0  0  0
 13 39  1  0  0  0  0
 14 19  1  0  0  0  0
 14 15  1  0  0  0  0
 15 16  2  0  0  0  0
 15 40  1  0  0  0  0
 16 17  1  0  0  0  0
 16 41  1  0  0  0  0
 17 18  2  0  0  0  0
 17 42  1  0  0  0  0
 18 19  1  0  0  0  0
 18 43  1  0  0  0  0
 19 20  2  0  0  0  0
M  CHG  1   7   1
M  END
> <s_m_source_file>
AV-unprocessed.smi

> <i_m_source_file_index>
1786

> <i_lp_mmshare_version>
43012

> <i_f3d_flags>
0

> <s_epik_input>
W0NIM11bQ0BASF0xW0NIMl1bQ0gyXVtDSDJdW0NIMl1OMVtDSDJdW0NIMl1bTkhdQyg9TylbQ0gyXW4yW2NIXVtjSF1bY0hdW2NIXWMyPU8=

> <s_epik_cmdline>
J2VwaWtfcHl0aG9uJywgJy1waCcsICc3LjAnLCAnLXRuJywgJzgnLCAnLW1hJywgJzIwMCcsICctbWV0YWxfYmluZGluZycsICctaW1hZScsICc8aW5maWxlLm1hZT4nLCAnLW9tYWUnLCAnPG91dGZpbGUubWFlPic=

> <r_lp_tautomer_probability>
1

> <r_epik_Ionization_Penalty>
0.00237247

> <r_epik_Ionization_Penalty_Charging>
0.00237238

> <r_epik_Ionization_Penalty_Neutral>
8.2065e-08

> <r_epik_State_Penalty>
0.00163922

> <r_epik_Charging_Adjusted_Penalty>
0.0040116

> <i_epik_Tot_Q>
1

> <i_epik_Tot_abs_Q>
1

> <r_epik_Metal_State_Penalty>
-0

> <b_epik_Metal_Only>
0

> <s_lp_Force_Field>
OPLS_2005

> <r_lp_Energy>
28.1092

> <b_lp_Chiralities_Consistent>
1

> <s_lp_Variant>
AV-unprocessed.smi:1786-1

> <Gold.Version>
5.8.1

> <Gold.Id.Protein>
6NUR|6NUR_protein|mol2

> <Gold.PLP.Fitness>
45.1430

> <Gold.PLP.PLP>
-32.5558

> <Gold.PLP.part.hbond>
-3.0000

> <Gold.PLP.part.metal>
0.0000

> <Gold.PLP.part.buried>
-1.3178

> <Gold.PLP.part.nonpolar>
-27.8872

> <Gold.PLP.part.repulsive>
0.1311

> <Gold.PLP.ligand.clash>
0.0000

> <Gold.PLP.ligand.torsion>
0.9038

> <Gold.PLP.Chemscore.Hbond>
4.0000

> <Gold.PLP.Chemscore.CHOScore>
0.7635

> <Gold.PLP.Chemscore.Metal>
0.0000

> <Gold.Chemscore.Hbonds>
donor molecule, donor type, donor heavy atom, donor atom, acceptor molecule, acceptor atom, score
      L1  H     7    44       P1  7948  2.00
      L1  H    10    37       P1  7957  1.00
      P1  H  7989  7998       L1    20  0.79
      L1  C    15    40       P1  8028  0.79

> <Gold.PLP.Chemscore.Internal.Correction>
0.1042

> <Gold.Rescore>
     Score         DG    S(hbond)    S(metal)    S(lipo)     H(rot)  DE(clash)    DE(int)     intcor
     14.43     -17.46       2.82        0.00      62.65       1.86       0.00       3.03       ----

> <Gold.Chemscore.Fitness>
14.4318

> <Gold.Chemscore.DG>
-17.4621

> <Gold.Chemscore.ZeroCoef>
-5.4800

> <Gold.Chemscore.Hbond>
2.8174

> <Gold.Chemscore.Metal>
0.0000

> <Gold.Chemscore.Lipo>
62.6502

> <Gold.Chemscore.Internal_Hbond>
0.0000

> <Gold.Chemscore.DEClash>
0.0004

> <Gold.Chemscore.DEInternal>
3.0299

> <Gold.Chemscore.Rot>
1.8586

> <Gold.Chemscore.Internal.Correction>
   9.000000E+99

> <Gold.Chemscore.Hbonds>
donor molecule, donor type, donor heavy atom, donor atom, acceptor molecule, acceptor atom, score
      L1  H     7    44       P1  7948  1.00
      L1  H    10    37       P1  7957  1.00
      P1  H  7989  7998       L1    20  0.15

> <Gold.Chemscore.Hbond.Weighted>
-9.4101

> <Gold.Chemscore.Metal.Weighted>
-0.0000

> <Gold.Chemscore.Lipo.Weighted>
-7.3301

> <Gold.Chemscore.Internal_Hbond.Weighted>
0.0000

> <Gold.Chemscore.DEClash.Weighted>
0.0004

> <Gold.Chemscore.DEInternal.Weighted>
3.0299

> <Gold.Chemscore.Rot.Weighted>
4.7581

> <Gold.Chemscore.Internal.Correction.Weighted>
   9.000000E+99

> <Gold.Protein.RotatedTorsions>
[ 6907 6896 6895 6894 ] final  -39.87 input  -60.11 | X-H torsion
[ 7974 7965 7964 7962 ] final -166.78 input  175.53 | X-H torsion
[ 8008 7997 7996 7995 ] final  -72.72 input   59.86 | X-H torsion
[ 10167 10162 10161 10158 ] final  123.84 input  -65.29 | X-H torsion
[ 10718 10713 10712 10709 ] final -170.85 input   66.30 | X-H torsion
[ 10763 10752 10751 10750 ] final  140.38 input  -60.55 | X-H torsion
[ 11005 11000 10999 10996 ] final -161.44 input  -57.11 | X-H torsion

> <Gold.Protein.ActiveResidues>
 VAL166  LYS551  ARG553  GLY616  TRP617  ASP618  TYR619  PRO620  LYS621  CYS622 
 ASP623  PHE694  ASN695  SER759  ASP760  ASP761  ALA762  ILE779  LEU786  VAL792 
 PHE793  MET794  SER795  GLU796  ALA797  LYS798  CYS799  TRP800  GLU811  SER814 

> <Gold.Protein.RotatedAtoms>
  150.9851  134.9198  159.7866 H   0  0  0  0  0  0  0  0  0  0  0  0  # atno 6907 bound_to 6896
  152.5234  134.3357  159.9209 H   0  0  0  0  0  0  0  0  0  0  0  0  # atno 6908 bound_to 6896
  151.3363  133.3939  159.2701 H   0  0  0  0  0  0  0  0  0  0  0  0  # atno 6909 bound_to 6896
  144.7237  140.2616  143.6264 H   0  0  0  0  0  0  0  0  0  0  0  0  # atno 7974 bound_to 7965
  154.5189  140.0792  156.8134 H   0  0  0  0  0  0  0  0  0  0  0  0  # atno 8008 bound_to 7997
  155.3620  140.3418  155.4223 H   0  0  0  0  0  0  0  0  0  0  0  0  # atno 8009 bound_to 7997
  156.1659  140.1603  156.8520 H   0  0  0  0  0  0  0  0  0  0  0  0  # atno 8010 bound_to 7997
  139.5776  144.6971  151.3612 H   0  0  0  0  0  0  0  0  0  0  0  0  # atno 10167 bound_to 10162
  156.7322  130.9310  151.3105 H   0  0  0  0  0  0  0  0  0  0  0  0  # atno 10718 bound_to 10713
  153.9217  135.3000  155.3447 H   0  0  0  0  0  0  0  0  0  0  0  0  # atno 10763 bound_to 10752
  154.7572  135.4952  153.9400 H   0  0  0  0  0  0  0  0  0  0  0  0  # atno 10764 bound_to 10752
  153.1138  135.6766  153.9556 H   0  0  0  0  0  0  0  0  0  0  0  0  # atno 10765 bound_to 10752
  140.6204  134.4756  157.5223 H   0  0  0  0  0  0  0  0  0  0  0  0  # atno 11005 bound_to 11000
  145.8130  139.2011  143.1982 LP  0  0  0  0  0  0  0  0  0  0  0  0  # atno 17320 bound_to 7965
  146.0580  140.8001  142.9749 LP  0  0  0  0  0  0  0  0  0  0  0  0  # atno 17321 bound_to 7965
  140.7057  143.7519  150.7478 LP  0  0  0  0  0  0  0  0  0  0  0  0  # atno 17342 bound_to 10162
  140.1043  143.4759  152.2407 LP  0  0  0  0  0  0  0  0  0  0  0  0  # atno 17343 bound_to 10162
  157.6854  130.9180  150.0373 LP  0  0  0  0  0  0  0  0  0  0  0  0  # atno 17370 bound_to 10713
  156.1521  130.3642  149.9422 LP  0  0  0  0  0  0  0  0  0  0  0  0  # atno 17371 bound_to 10713
  139.9156  134.8254  156.1379 LP  0  0  0  0  0  0  0  0  0  0  0  0  # atno 17394 bound_to 11000
  141.0746  133.6781  156.2210 LP  0  0  0  0  0  0  0  0  0  0  0  0  # atno 17395 bound_to 11000

$$$$
