AV-unprocessed.smi:249|AV-procd|sdf|1928|dock10
  -GOLD-   2262021 43D 1   1.00000     0.00000
 Structure written by MMmdl.
 64 67  0  0  0  0  0  0  0  0  2 V2000
  143.5781  132.4107  149.1452 C   0  0  0  0  0  0  0  0  0  0  0  0
  144.1820  133.0738  150.3930 C   0  0  0  0  0  0  0  0  0  0  0  0
  145.5775  133.5618  150.1851 N   0  3  2  0  0  0  0  0  0  0  0  0
  146.6234  132.5159  150.3680 C   0  0  0  0  0  0  0  0  0  0  0  0
  146.8154  132.1476  151.8513 C   0  0  0  0  0  0  0  0  0  0  0  0
  147.1484  133.3991  152.6875 C   0  0  2  0  0  0  0  0  0  0  0  0
  147.3381  133.0897  154.1090 N   0  0  0  0  0  0  0  0  0  0  0  0
  147.1576  131.7195  154.5881 C   0  0  0  0  0  0  0  0  0  0  0  0
  148.2941  133.8247  154.7329 C   0  0  0  0  0  0  0  0  0  0  0  0
  149.4041  133.2098  155.2211 N   0  0  0  0  0  0  0  0  0  0  0  0
  150.3642  133.9247  155.8140 C   0  0  0  0  0  0  0  0  0  0  0  0
  150.4122  135.2407  156.0263 N   0  0  0  0  0  0  0  0  0  0  0  0
  149.2938  135.8635  155.5561 C   0  0  0  0  0  0  0  0  0  0  0  0
  148.2016  135.2362  154.8921 C   0  0  0  0  0  0  0  0  0  0  0  0
  147.2518  136.1871  154.5396 N   0  0  0  0  0  0  0  0  0  0  0  0
  147.7569  137.3125  154.9643 C   0  0  0  0  0  0  0  0  0  0  0  0
  148.9648  137.2087  155.6184 N   0  0  0  0  0  0  0  0  0  0  0  0
  149.7389  138.3088  156.1773 C   0  0  0  0  0  0  0  0  0  0  0  0
  150.3689  139.2741  155.1311 C   0  0  1  0  0  0  0  0  0  0  0  0
  149.2332  140.0640  154.4363 C   0  0  0  0  0  0  0  0  0  0  0  0
  149.7026  140.7149  153.2733 O   0  0  0  0  0  0  0  0  0  0  0  0
  151.4275  140.2647  155.7103 C   0  0  1  0  0  0  0  0  0  0  0  0
  150.9028  141.4642  156.4878 C   0  0  0  0  0  0  0  0  0  0  0  0
  150.5913  140.8811  157.8620 C   0  0  0  0  0  0  0  0  0  0  0  0
  151.5181  139.8145  158.0310 O   0  0  0  0  0  0  0  0  0  0  0  0
  152.2675  139.6342  156.8331 C   0  0  0  0  0  0  0  0  0  0  0  0
  146.0943  134.4997  152.4543 C   0  0  0  0  0  0  0  0  0  0  0  0
  145.9381  134.7967  150.9478 C   0  0  2  0  0  0  0  0  0  0  0  0
  144.9997  135.9861  150.6754 C   0  0  0  0  0  0  0  0  0  0  0  0
  142.5159  132.2167  149.2943 H   0  0  0  0  0  0  0  0  0  0  0  0
  144.0446  131.4517  148.9214 H   0  0  0  0  0  0  0  0  0  0  0  0
  143.6755  133.0518  148.2686 H   0  0  0  0  0  0  0  0  0  0  0  0
  143.5343  133.9135  150.6378 H   0  0  0  0  0  0  0  0  0  0  0  0
  144.1283  132.3908  151.2405 H   0  0  0  0  0  0  0  0  0  0  0  0
  146.4067  131.6272  149.7779 H   0  0  0  0  0  0  0  0  0  0  0  0
  147.5639  132.9002  149.9709 H   0  0  0  0  0  0  0  0  0  0  0  0
  145.9186  131.6581  152.2304 H   0  0  0  0  0  0  0  0  0  0  0  0
  147.6202  131.4170  151.9409 H   0  0  0  0  0  0  0  0  0  0  0  0
  148.0861  133.7911  152.2939 H   0  0  0  0  0  0  0  0  0  0  0  0
  147.1744  131.6874  155.6783 H   0  0  0  0  0  0  0  0  0  0  0  0
  147.9467  131.0654  154.2163 H   0  0  0  0  0  0  0  0  0  0  0  0
  146.1990  131.3117  154.2713 H   0  0  0  0  0  0  0  0  0  0  0  0
  151.2153  133.3630  156.1700 H   0  0  0  0  0  0  0  0  0  0  0  0
  147.2476  138.2557  154.8280 H   0  0  0  0  0  0  0  0  0  0  0  0
  149.0557  138.8491  156.8327 H   0  0  0  0  0  0  0  0  0  0  0  0
  150.5156  137.9055  156.8281 H   0  0  0  0  0  0  0  0  0  0  0  0
  150.8619  138.6877  154.3570 H   0  0  0  0  0  0  0  0  0  0  0  0
  148.4095  139.4004  154.1709 H   0  0  0  0  0  0  0  0  0  0  0  0
  148.8151  140.8331  155.0828 H   0  0  0  0  0  0  0  0  0  0  0  0
  149.6144  140.1238  152.5412 H   0  0  0  0  0  0  0  0  0  0  0  0
  152.0666  140.6072  154.8952 H   0  0  0  0  0  0  0  0  0  0  0  0
  151.7047  142.1971  156.5900 H   0  0  0  0  0  0  0  0  0  0  0  0
  150.0719  141.9933  156.0338 H   0  0  0  0  0  0  0  0  0  0  0  0
  150.6859  141.6212  158.6567 H   0  0  0  0  0  0  0  0  0  0  0  0
  149.5792  140.4765  157.8924 H   0  0  0  0  0  0  0  0  0  0  0  0
  152.5105  138.5833  156.6873 H   0  0  0  0  0  0  0  0  0  0  0  0
  153.2115  140.1713  156.9383 H   0  0  0  0  0  0  0  0  0  0  0  0
  145.1288  134.2140  152.8709 H   0  0  0  0  0  0  0  0  0  0  0  0
  146.3977  135.4067  152.9789 H   0  0  0  0  0  0  0  0  0  0  0  0
  146.9166  135.1039  150.5745 H   0  0  0  0  0  0  0  0  0  0  0  0
  145.4200  136.9059  151.0835 H   0  0  0  0  0  0  0  0  0  0  0  0
  144.0211  135.8548  151.1372 H   0  0  0  0  0  0  0  0  0  0  0  0
  144.8557  136.1406  149.6056 H   0  0  0  0  0  0  0  0  0  0  0  0
  145.6201  133.8248  149.2107 H   0  0  0  0  0  0  0  0  0  0  0  0
  1  2  1  0  0  0  0
  1 30  1  0  0  0  0
  1 31  1  0  0  0  0
  1 32  1  0  0  0  0
  2  3  1  0  0  0  0
  2 33  1  0  0  0  0
  2 34  1  0  0  0  0
  3 28  1  0  0  0  0
  3  4  1  0  0  0  0
  3 64  1  0  0  0  0
  4  5  1  0  0  0  0
  4 35  1  0  0  0  0
  4 36  1  0  0  0  0
  5  6  1  0  0  0  0
  5 37  1  0  0  0  0
  5 38  1  0  0  0  0
  6  7  1  0  0  0  0
  6 27  1  0  0  0  0
  6 39  1  0  0  0  0
  7  8  1  0  0  0  0
  7  9  1  0  0  0  0
  8 40  1  0  0  0  0
  8 41  1  0  0  0  0
  8 42  1  0  0  0  0
  9 14  1  0  0  0  0
  9 10  2  0  0  0  0
 10 11  1  0  0  0  0
 11 12  2  0  0  0  0
 11 43  1  0  0  0  0
 12 13  1  0  0  0  0
 13 17  1  0  0  0  0
 13 14  2  0  0  0  0
 14 15  1  0  0  0  0
 15 16  2  0  0  0  0
 16 17  1  0  0  0  0
 16 44  1  0  0  0  0
 17 18  1  0  0  0  0
 18 19  1  0  0  0  0
 18 45  1  0  0  0  0
 18 46  1  0  0  0  0
 19 20  1  0  0  0  0
 19 22  1  0  0  0  0
 19 47  1  0  0  0  0
 20 21  1  0  0  0  0
 20 48  1  0  0  0  0
 20 49  1  0  0  0  0
 21 50  1  0  0  0  0
 22 26  1  0  0  0  0
 22 23  1  0  0  0  0
 22 51  1  0  0  0  0
 23 24  1  0  0  0  0
 23 52  1  0  0  0  0
 23 53  1  0  0  0  0
 24 25  1  0  0  0  0
 24 54  1  0  0  0  0
 24 55  1  0  0  0  0
 25 26  1  0  0  0  0
 26 56  1  0  0  0  0
 26 57  1  0  0  0  0
 27 28  1  0  0  0  0
 27 58  1  0  0  0  0
 27 59  1  0  0  0  0
 28 29  1  0  0  0  0
 28 60  1  0  0  0  0
 29 61  1  0  0  0  0
 29 62  1  0  0  0  0
 29 63  1  0  0  0  0
M  CHG  1   3   1
M  END
> <s_m_source_file>
AV-unprocessed.smi

> <i_m_source_file_index>
249

> <i_lp_mmshare_version>
43012

> <i_f3d_flags>
0

> <s_epik_input>
W0NIM11bQ0gyXU4xW0NIMl1bQ0gyXVtDQEhdKFtDSDJdW0NASF0xW0NIM10pTihbQ0gzXSljKG5bY0hdbjIpYyhjMjMpbltjSF1uM1tDSDJdW0NASF0oW0NIMl1bT0hdKVtDQEBIXTRbQ0gyXVtDSDJdT1tDSDJdNA==

> <s_epik_cmdline>
J2VwaWtfcHl0aG9uJywgJy1waCcsICc3LjAnLCAnLXRuJywgJzgnLCAnLW1hJywgJzIwMCcsICctbWV0YWxfYmluZGluZycsICctaW1hZScsICc8aW5maWxlLm1hZT4nLCAnLW9tYWUnLCAnPG91dGZpbGUubWFlPic=

> <r_lp_tautomer_probability>
1

> <r_epik_Ionization_Penalty>
0.00294688

> <r_epik_Ionization_Penalty_Charging>
0.00169971

> <r_epik_Ionization_Penalty_Neutral>
0.00124717

> <r_epik_State_Penalty>
-0

> <r_epik_Charging_Adjusted_Penalty>
0.00169971

> <i_epik_Tot_Q>
1

> <i_epik_Tot_abs_Q>
1

> <r_epik_Metal_State_Penalty>
-0

> <b_epik_Metal_Only>
0

> <s_lp_Force_Field>
OPLS_2005

> <r_lp_Energy>
58.8032

> <b_lp_Chiralities_Consistent>
1

> <s_lp_Variant>
AV-unprocessed.smi:249-31

> <Gold.Version>
5.8.1

> <Gold.Id.Protein>
6NUR|6NUR_protein|mol2

> <Gold.PLP.Fitness>
45.3214

> <Gold.PLP.PLP>
-39.5129

> <Gold.PLP.part.hbond>
-3.4668

> <Gold.PLP.part.metal>
0.0000

> <Gold.PLP.part.buried>
1.3223

> <Gold.PLP.part.nonpolar>
-39.1194

> <Gold.PLP.part.repulsive>
0.2839

> <Gold.PLP.ligand.clash>
0.0000

> <Gold.PLP.ligand.torsion>
2.1108

> <Gold.PLP.Chemscore.Hbond>
2.9719

> <Gold.PLP.Chemscore.CHOScore>
0.0000

> <Gold.PLP.Chemscore.Metal>
0.0000

> <Gold.Chemscore.Hbonds>
donor molecule, donor type, donor heavy atom, donor atom, acceptor molecule, acceptor atom, score
      L1  H     3    64       P1  7921  1.00
      L1  H    21    50       P1  7957  0.56
      P1  H  7989  7998       L1    21  0.29
      P1  H  8011  8017       L1    21  1.00

> <Gold.PLP.Chemscore.Internal.Correction>
1.1144

> <Gold.Rescore>
     Score         DG    S(hbond)    S(metal)    S(lipo)     H(rot)  DE(clash)    DE(int)     intcor
      9.83     -16.64       1.79        0.00     102.43       2.65       2.09       4.72       ----

> <Gold.Chemscore.Fitness>
9.8348

> <Gold.Chemscore.DG>
-16.6431

> <Gold.Chemscore.ZeroCoef>
-5.4800

> <Gold.Chemscore.Hbond>
1.7864

> <Gold.Chemscore.Metal>
0.0000

> <Gold.Chemscore.Lipo>
102.4317

> <Gold.Chemscore.Internal_Hbond>
0.0000

> <Gold.Chemscore.DEClash>
2.0870

> <Gold.Chemscore.DEInternal>
4.7213

> <Gold.Chemscore.Rot>
2.6515

> <Gold.Chemscore.Internal.Correction>
   9.000000E+99

> <Gold.Chemscore.Hbonds>
donor molecule, donor type, donor heavy atom, donor atom, acceptor molecule, acceptor atom, score
      L1  H     3    64       P1  7921  0.44
      L1  H    21    50       P1  7957  0.54
      P1  H  7989  7998       L1    21  0.07
      P1  H  8011  8017       L1    21  0.25

> <Gold.Chemscore.Hbond.Weighted>
-5.9665

> <Gold.Chemscore.Metal.Weighted>
-0.0000

> <Gold.Chemscore.Lipo.Weighted>
-11.9845

> <Gold.Chemscore.Internal_Hbond.Weighted>
0.0000

> <Gold.Chemscore.DEClash.Weighted>
2.0870

> <Gold.Chemscore.DEInternal.Weighted>
4.7213

> <Gold.Chemscore.Rot.Weighted>
6.7880

> <Gold.Chemscore.Internal.Correction.Weighted>
   9.000000E+99

> <Gold.Protein.RotatedTorsions>
[ 6907 6896 6895 6894 ] final   73.51 input  -60.11 | X-H torsion
[ 7974 7965 7964 7962 ] final   48.39 input  175.53 | X-H torsion
[ 8008 7997 7996 7995 ] final  168.55 input   59.86 | X-H torsion
[ 10167 10162 10161 10158 ] final -166.72 input  -65.29 | X-H torsion
[ 10718 10713 10712 10709 ] final -166.01 input   66.30 | X-H torsion
[ 10763 10752 10751 10750 ] final   76.94 input  -60.55 | X-H torsion
[ 11005 11000 10999 10996 ] final   84.37 input  -57.11 | X-H torsion

> <Gold.Protein.ActiveResidues>
 VAL166  LYS551  ARG553  GLY616  TRP617  ASP618  TYR619  PRO620  LYS621  CYS622 
 ASP623  PHE694  ASN695  SER759  ASP760  ASP761  ALA762  ILE779  LEU786  VAL792 
 PHE793  MET794  SER795  GLU796  ALA797  LYS798  CYS799  TRP800  GLU811  SER814 

> <Gold.Protein.RotatedAtoms>
  152.4927  134.4411  159.9543 H   0  0  0  0  0  0  0  0  0  0  0  0  # atno 6907 bound_to 6896
  151.4395  133.3641  159.2787 H   0  0  0  0  0  0  0  0  0  0  0  0  # atno 6908 bound_to 6896
  150.9097  134.8537  159.7477 H   0  0  0  0  0  0  0  0  0  0  0  0  # atno 6909 bound_to 6896
  146.0208  139.4649  142.9898 H   0  0  0  0  0  0  0  0  0  0  0  0  # atno 7974 bound_to 7965
  156.1537  140.1587  156.8728 H   0  0  0  0  0  0  0  0  0  0  0  0  # atno 8008 bound_to 7997
  154.5095  140.0804  156.7997 H   0  0  0  0  0  0  0  0  0  0  0  0  # atno 8009 bound_to 7997
  155.3846  140.3407  155.4250 H   0  0  0  0  0  0  0  0  0  0  0  0  # atno 8010 bound_to 7997
  139.6096  144.0841  152.1828 H   0  0  0  0  0  0  0  0  0  0  0  0  # atno 10167 bound_to 10162
  156.6617  130.9048  151.3030 H   0  0  0  0  0  0  0  0  0  0  0  0  # atno 10718 bound_to 10713
  153.0762  135.4933  154.8408 H   0  0  0  0  0  0  0  0  0  0  0  0  # atno 10763 bound_to 10752
  154.7090  135.3016  154.9228 H   0  0  0  0  0  0  0  0  0  0  0  0  # atno 10764 bound_to 10752
  153.9928  135.6776  153.4808 H   0  0  0  0  0  0  0  0  0  0  0  0  # atno 10765 bound_to 10752
  139.9002  134.8211  156.2435 H   0  0  0  0  0  0  0  0  0  0  0  0  # atno 11005 bound_to 11000
  145.7196  141.0079  143.1410 LP  0  0  0  0  0  0  0  0  0  0  0  0  # atno 17320 bound_to 7965
  144.6989  139.8854  143.7450 LP  0  0  0  0  0  0  0  0  0  0  0  0  # atno 17321 bound_to 7965
  140.0457  144.5972  150.7376 LP  0  0  0  0  0  0  0  0  0  0  0  0  # atno 17342 bound_to 10162
  140.7310  143.2689  151.3953 LP  0  0  0  0  0  0  0  0  0  0  0  0  # atno 17343 bound_to 10162
  157.7107  130.9437  150.1080 LP  0  0  0  0  0  0  0  0  0  0  0  0  # atno 17370 bound_to 10713
  156.2006  130.3660  149.8793 LP  0  0  0  0  0  0  0  0  0  0  0  0  # atno 17371 bound_to 10713
  141.0269  133.7010  156.1364 LP  0  0  0  0  0  0  0  0  0  0  0  0  # atno 17394 bound_to 11000
  140.7152  134.4418  157.5579 LP  0  0  0  0  0  0  0  0  0  0  0  0  # atno 17395 bound_to 11000

$$$$
