AV-unprocessed.smi:69|AV-procd|sdf|652|dock8
  -GOLD-   2262016553D 1   1.00000     0.00000
 Structure written by MMmdl.
 32 34  0  0  0  0  0  0  0  0  1 V2000
  146.1713  139.4192  155.0835 N   0  0  0  0  0  0  0  0  0  0  0  0
  146.3170  138.9099  153.8525 C   0  0  0  0  0  0  0  0  0  0  0  0
  146.9352  139.6639  152.9130 N   0  0  0  0  0  0  0  0  0  0  0  0
  147.0955  139.1769  151.6777 C   0  0  0  0  0  0  0  0  0  0  0  0
  146.7175  137.9915  151.1903 N   0  0  0  0  0  0  0  0  0  0  0  0
  146.0917  137.2362  152.1404 C   0  0  0  0  0  0  0  0  0  0  0  0
  145.8565  137.6192  153.4889 C   0  0  0  0  0  0  0  0  0  0  0  0
  145.2078  136.5939  154.1634 N   0  0  0  0  0  0  0  0  0  0  0  0
  145.0735  135.6584  153.2607 C   0  0  0  0  0  0  0  0  0  0  0  0
  145.5616  135.9709  152.0076 N   0  0  0  0  0  0  0  0  0  0  0  0
  145.5916  135.1419  150.7585 C   0  0  1  0  0  0  0  0  0  0  0  0
  146.1860  133.9152  151.0489 O   0  0  0  0  0  0  0  0  0  0  0  0
  145.1802  132.9877  151.4346 C   0  0  2  0  0  0  0  0  0  0  0  0
  145.7105  131.5529  151.2964 C   0  0  0  0  0  0  0  0  0  0  0  0
  146.9443  131.4270  151.9707 O   0  0  0  0  0  0  0  0  0  0  0  0
  144.0479  133.3215  150.4589 C   0  0  1  0  0  0  0  0  0  0  0  0
  142.7982  132.9728  151.0206 O   0  0  0  0  0  0  0  0  0  0  0  0
  144.1572  134.8358  150.2832 C   0  0  2  0  0  0  0  0  0  0  0  0
  143.9695  135.1913  148.9285 O   0  0  0  0  0  0  0  0  0  0  0  0
  146.1965  135.7252  150.0626 H   0  0  0  0  0  0  0  0  0  0  0  0
  144.8599  133.1903  152.4586 H   0  0  0  0  0  0  0  0  0  0  0  0
  144.2000  132.8030  149.5106 H   0  0  0  0  0  0  0  0  0  0  0  0
  143.4333  135.3681  150.9029 H   0  0  0  0  0  0  0  0  0  0  0  0
  145.7148  138.8741  155.8006 H   0  0  0  0  0  0  0  0  0  0  0  0
  146.5156  140.3455  155.2906 H   0  0  0  0  0  0  0  0  0  0  0  0
  147.5983  139.8303  150.9801 H   0  0  0  0  0  0  0  0  0  0  0  0
  144.6109  134.7105  153.4935 H   0  0  0  0  0  0  0  0  0  0  0  0
  145.0142  130.8503  151.7550 H   0  0  0  0  0  0  0  0  0  0  0  0
  145.8173  131.2675  150.2495 H   0  0  0  0  0  0  0  0  0  0  0  0
  147.6050  131.1756  151.3436 H   0  0  0  0  0  0  0  0  0  0  0  0
  142.1860  133.6708  150.8429 H   0  0  0  0  0  0  0  0  0  0  0  0
  144.6399  134.7672  148.4142 H   0  0  0  0  0  0  0  0  0  0  0  0
  1  2  1  0  0  0  0
  1 24  1  0  0  0  0
  1 25  1  0  0  0  0
  2  7  1  0  0  0  0
  2  3  2  0  0  0  0
  3  4  1  0  0  0  0
  4  5  2  0  0  0  0
  4 26  1  0  0  0  0
  5  6  1  0  0  0  0
  6 10  1  0  0  0  0
  6  7  2  0  0  0  0
  7  8  1  0  0  0  0
  8  9  2  0  0  0  0
  9 10  1  0  0  0  0
  9 27  1  0  0  0  0
 10 11  1  0  0  0  0
 11 20  1  0  0  0  0
 11 18  1  0  0  0  0
 11 12  1  0  0  0  0
 12 13  1  0  0  0  0
 13 21  1  0  0  0  0
 13 14  1  0  0  0  0
 13 16  1  0  0  0  0
 14 15  1  0  0  0  0
 14 28  1  0  0  0  0
 14 29  1  0  0  0  0
 15 30  1  0  0  0  0
 16 22  1  0  0  0  0
 16 17  1  0  0  0  0
 16 18  1  0  0  0  0
 17 31  1  0  0  0  0
 18 23  1  0  0  0  0
 18 19  1  0  0  0  0
 19 32  1  0  0  0  0
M  END
> <s_m_source_file>
AV-unprocessed.smi

> <i_m_source_file_index>
69

> <i_lp_mmshare_version>
43012

> <i_f3d_flags>
0

> <s_epik_input>
bjFbY0hdbmMoW05IMl0pYyhjMTIpbltjSF1uMltDQEBIXTNPW0NASF0oW0NIMl1bT0hdKVtDQEBIXShbT0hdKVtDQEhdM1tPSF0=

> <s_epik_cmdline>
J2VwaWtfcHl0aG9uJywgJy1waCcsICc3LjAnLCAnLXRuJywgJzgnLCAnLW1hJywgJzIwMCcsICctbWV0YWxfYmluZGluZycsICctaW1hZScsICc8aW5maWxlLm1hZT4nLCAnLW9tYWUnLCAnPG91dGZpbGUubWFlPic=

> <r_lp_tautomer_probability>
1

> <r_epik_Ionization_Penalty>
0.000428445

> <r_epik_Ionization_Penalty_Charging>
0

> <r_epik_Ionization_Penalty_Neutral>
0.000428445

> <r_epik_State_Penalty>
-0

> <r_epik_Charging_Adjusted_Penalty>
0

> <i_epik_Tot_Q>
0

> <i_epik_Tot_abs_Q>
0

> <r_epik_Metal_State_Penalty>
-0

> <b_epik_Metal_Only>
0

> <s_epik_Chemistry_Notes>
This compound contains an acetal/aminal-like group ( X-CH(R)-Y where X, Y are N, S, or O) that may be acid/base labile, releasing an aldehyde.

> <s_lp_Force_Field>
OPLS_2005

> <r_lp_Energy>
31.7018

> <b_lp_Chiralities_Consistent>
1

> <s_lp_Variant>
AV-unprocessed.smi:69-10

> <Gold.Version>
5.8.1

> <Gold.Id.Protein>
6NUR|6NUR_protein|mol2

> <Gold.PLP.Fitness>
38.0992

> <Gold.PLP.PLP>
-23.9820

> <Gold.PLP.part.hbond>
-3.9135

> <Gold.PLP.part.metal>
0.0000

> <Gold.PLP.part.buried>
-1.1638

> <Gold.PLP.part.nonpolar>
-21.0671

> <Gold.PLP.part.repulsive>
1.9533

> <Gold.PLP.ligand.clash>
0.0000

> <Gold.PLP.ligand.torsion>
0.1174

> <Gold.PLP.Chemscore.Hbond>
3.9500

> <Gold.PLP.Chemscore.CHOScore>
0.8239

> <Gold.PLP.Chemscore.Metal>
0.0000

> <Gold.Chemscore.Hbonds>
donor molecule, donor type, donor heavy atom, donor atom, acceptor molecule, acceptor atom, score
      L1  H    15    30       P1 10747  1.00
      L1  H    17    31       P1 10186  0.91
      L1  H    19    32       P1  7921  1.00
      P1  H  7954  7966       L1     5  0.75
      L1  C     4    26       P1  7957  0.67

> <Gold.PLP.Chemscore.Internal.Correction>
0.0304

> <Gold.Rescore>
     Score         DG    S(hbond)    S(metal)    S(lipo)     H(rot)  DE(clash)    DE(int)     intcor
      8.56      -9.15       3.02        0.00      33.41       4.03       0.50       0.09       ----

> <Gold.Chemscore.Fitness>
8.5600

> <Gold.Chemscore.DG>
-9.1511

> <Gold.Chemscore.ZeroCoef>
-5.4800

> <Gold.Chemscore.Hbond>
3.0159

> <Gold.Chemscore.Metal>
0.0000

> <Gold.Chemscore.Lipo>
33.4106

> <Gold.Chemscore.Internal_Hbond>
0.0000

> <Gold.Chemscore.DEClash>
0.5005

> <Gold.Chemscore.DEInternal>
0.0906

> <Gold.Chemscore.Rot>
4.0277

> <Gold.Chemscore.Internal.Correction>
   9.000000E+99

> <Gold.Chemscore.Hbonds>
donor molecule, donor type, donor heavy atom, donor atom, acceptor molecule, acceptor atom, score
      L1  H    15    30       P1 10747  1.00
      L1  H    17    31       P1 10186  0.67
      L1  H    19    32       P1  7921  0.94
      P1  H  7954  7966       L1     5  0.09

> <Gold.Chemscore.Hbond.Weighted>
-10.0730

> <Gold.Chemscore.Metal.Weighted>
-0.0000

> <Gold.Chemscore.Lipo.Weighted>
-3.9090

> <Gold.Chemscore.Internal_Hbond.Weighted>
0.0000

> <Gold.Chemscore.DEClash.Weighted>
0.5005

> <Gold.Chemscore.DEInternal.Weighted>
0.0906

> <Gold.Chemscore.Rot.Weighted>
10.3110

> <Gold.Chemscore.Internal.Correction.Weighted>
   9.000000E+99

> <Gold.Protein.RotatedTorsions>
[ 6907 6896 6895 6894 ] final  119.74 input  -60.11 | X-H torsion
[ 7974 7965 7964 7962 ] final   32.10 input  175.53 | X-H torsion
[ 8008 7997 7996 7995 ] final   24.23 input   59.86 | X-H torsion
[ 10167 10162 10161 10158 ] final  -25.92 input  -65.29 | X-H torsion
[ 10718 10713 10712 10709 ] final   14.42 input   66.30 | X-H torsion
[ 10763 10752 10751 10750 ] final  114.90 input  -60.55 | X-H torsion
[ 11005 11000 10999 10996 ] final   -5.42 input  -57.11 | X-H torsion

> <Gold.Protein.ActiveResidues>
 VAL166  LYS551  ARG553  GLY616  TRP617  ASP618  TYR619  PRO620  LYS621  CYS622 
 ASP623  PHE694  ASN695  SER759  ASP760  ASP761  ALA762  ILE779  LEU786  VAL792 
 PHE793  MET794  SER795  GLU796  ALA797  LYS798  CYS799  TRP800  GLU811  SER814 

> <Gold.Protein.RotatedAtoms>
  152.4450  133.7519  159.6698 H   0  0  0  0  0  0  0  0  0  0  0  0  # atno 6907 bound_to 6896
  150.8348  133.8021  159.3090 H   0  0  0  0  0  0  0  0  0  0  0  0  # atno 6908 bound_to 6896
  151.5664  135.1066  160.0036 H   0  0  0  0  0  0  0  0  0  0  0  0  # atno 6909 bound_to 6896
  146.1508  139.6570  142.9100 H   0  0  0  0  0  0  0  0  0  0  0  0  # atno 7974 bound_to 7965
  154.9931  140.3116  155.4898 H   0  0  0  0  0  0  0  0  0  0  0  0  # atno 8008 bound_to 7997
  156.2937  140.2245  156.4977 H   0  0  0  0  0  0  0  0  0  0  0  0  # atno 8009 bound_to 7997
  154.7685  140.0454  157.1020 H   0  0  0  0  0  0  0  0  0  0  0  0  # atno 8010 bound_to 7997
  140.7285  143.4222  151.0932 H   0  0  0  0  0  0  0  0  0  0  0  0  # atno 10167 bound_to 10162
  157.0389  130.6223  149.5747 H   0  0  0  0  0  0  0  0  0  0  0  0  # atno 10718 bound_to 10713
  153.5142  135.3611  155.2601 H   0  0  0  0  0  0  0  0  0  0  0  0  # atno 10763 bound_to 10752
  154.8740  135.4030  154.3333 H   0  0  0  0  0  0  0  0  0  0  0  0  # atno 10764 bound_to 10752
  153.3992  135.7074  153.6505 H   0  0  0  0  0  0  0  0  0  0  0  0  # atno 10765 bound_to 10752
  140.6909  133.9072  155.8618 H   0  0  0  0  0  0  0  0  0  0  0  0  # atno 11005 bound_to 11000
  145.4828  141.0438  143.2636 LP  0  0  0  0  0  0  0  0  0  0  0  0  # atno 17320 bound_to 7965
  144.7901  139.6345  143.7117 LP  0  0  0  0  0  0  0  0  0  0  0  0  # atno 17321 bound_to 7965
  139.7870  143.8274  152.3146 LP  0  0  0  0  0  0  0  0  0  0  0  0  # atno 17342 bound_to 10162
  139.8244  144.7281  150.9531 LP  0  0  0  0  0  0  0  0  0  0  0  0  # atno 17343 bound_to 10162
  156.0045  130.5129  150.7780 LP  0  0  0  0  0  0  0  0  0  0  0  0  # atno 17370 bound_to 10713
  157.5120  131.0926  151.0186 LP  0  0  0  0  0  0  0  0  0  0  0  0  # atno 17371 bound_to 10713
  141.0242  134.0847  157.4087 LP  0  0  0  0  0  0  0  0  0  0  0  0  # atno 17394 bound_to 11000
  139.8924  135.0124  156.6842 LP  0  0  0  0  0  0  0  0  0  0  0  0  # atno 17395 bound_to 11000

$$$$
