AV-unprocessed.smi:1142|AV-procd|sdf|4873|dock3
  -GOLD-   22720 3443D 1   1.00000     0.00000
 Structure written by MMmdl.
 33 34  0  0  0  0  0  0  0  0  1 V2000
  153.8674  137.8278  161.6480 C   0  0  0  0  0  0  0  0  0  0  0  0
  154.2878  138.9739  161.6750 C   0  0  0  0  0  0  0  0  0  0  0  0
  154.8061  140.3515  161.7162 C   0  0  0  0  0  0  0  0  0  0  0  0
  153.9945  141.2787  160.9367 N   0  0  0  0  0  0  0  0  0  0  0  0
  153.5672  141.0713  159.6798 C   0  0  0  0  0  0  0  0  0  0  0  0
  153.8095  140.0483  159.0383 O   0  0  0  0  0  0  0  0  0  0  0  0
  152.7213  142.1766  159.1033 C   0  0  0  0  0  0  0  0  0  0  0  0
  152.7787  143.4651  159.6835 C   0  0  0  0  0  0  0  0  0  0  0  0
  152.0294  144.5145  159.1234 C   0  0  0  0  0  0  0  0  0  0  0  0
  151.2487  144.2402  157.9880 C   0  0  0  0  0  0  0  0  0  0  0  0
  151.1816  143.0209  157.4175 N   0  0  0  0  0  0  0  0  0  0  0  0
  151.8968  141.9994  157.9517 C   0  0  0  0  0  0  0  0  0  0  0  0
  151.7493  140.7397  157.3355 N   0  0  0  0  0  0  0  0  0  0  0  0
  151.1753  140.7079  155.9939 C   0  0  0  0  0  0  0  0  0  0  0  0
  151.3248  139.2986  155.3958 C   0  0  0  0  0  0  0  0  0  0  0  0
  150.7275  138.3431  156.2681 O   0  0  0  0  0  0  0  0  0  0  0  0
  151.3443  138.3305  157.5527 C   0  0  0  0  0  0  0  0  0  0  0  0
  151.1976  139.7127  158.2113 C   0  0  0  0  0  0  0  0  0  0  0  0
  153.5022  136.8256  161.6227 H   0  0  0  0  0  0  0  0  0  0  0  0
  154.8822  140.6653  162.7585 H   0  0  0  0  0  0  0  0  0  0  0  0
  155.8177  140.3419  161.3104 H   0  0  0  0  0  0  0  0  0  0  0  0
  153.7347  142.1440  161.3872 H   0  0  0  0  0  0  0  0  0  0  0  0
  153.3995  143.6590  160.5465 H   0  0  0  0  0  0  0  0  0  0  0  0
  152.0590  145.5066  159.5491 H   0  0  0  0  0  0  0  0  0  0  0  0
  150.6617  145.0197  157.5252 H   0  0  0  0  0  0  0  0  0  0  0  0
  150.1194  140.9787  156.0376 H   0  0  0  0  0  0  0  0  0  0  0  0
  151.6749  141.4400  155.3583 H   0  0  0  0  0  0  0  0  0  0  0  0
  150.8344  139.2486  154.4236 H   0  0  0  0  0  0  0  0  0  0  0  0
  152.3761  139.0534  155.2362 H   0  0  0  0  0  0  0  0  0  0  0  0
  150.8679  137.5682  158.1688 H   0  0  0  0  0  0  0  0  0  0  0  0
  152.3964  138.0549  157.4603 H   0  0  0  0  0  0  0  0  0  0  0  0
  151.6978  139.7164  159.1799 H   0  0  0  0  0  0  0  0  0  0  0  0
  150.1446  139.9294  158.3964 H   0  0  0  0  0  0  0  0  0  0  0  0
  1  2  3  0  0  0  0
  1 19  1  0  0  0  0
  2  3  1  0  0  0  0
  3  4  1  0  0  0  0
  3 20  1  0  0  0  0
  3 21  1  0  0  0  0
  4  5  1  0  0  0  0
  4 22  1  0  0  0  0
  5  6  2  0  0  0  0
  5  7  1  0  0  0  0
  7 12  1  0  0  0  0
  7  8  2  0  0  0  0
  8  9  1  0  0  0  0
  8 23  1  0  0  0  0
  9 10  2  0  0  0  0
  9 24  1  0  0  0  0
 10 11  1  0  0  0  0
 10 25  1  0  0  0  0
 11 12  2  0  0  0  0
 12 13  1  0  0  0  0
 13 18  1  0  0  0  0
 13 14  1  0  0  0  0
 14 15  1  0  0  0  0
 14 26  1  0  0  0  0
 14 27  1  0  0  0  0
 15 16  1  0  0  0  0
 15 28  1  0  0  0  0
 15 29  1  0  0  0  0
 16 17  1  0  0  0  0
 17 18  1  0  0  0  0
 17 30  1  0  0  0  0
 17 31  1  0  0  0  0
 18 32  1  0  0  0  0
 18 33  1  0  0  0  0
M  END
> <s_m_source_file>
AV-unprocessed.smi

> <i_m_source_file_index>
1142

> <i_lp_mmshare_version>
43012

> <i_f3d_flags>
0

> <s_epik_input>
W0NIXSNDW0NIMl1bTkhdQyg9TyljMVtjSF1bY0hdW2NIXW5jMU4yW0NIMl1bQ0gyXU9bQ0gyXVtDSDJdMg==

> <s_epik_cmdline>
J2VwaWtfcHl0aG9uJywgJy1waCcsICc3LjAnLCAnLXRuJywgJzgnLCAnLW1hJywgJzIwMCcsICctbWV0YWxfYmluZGluZycsICctaW1hZScsICc8aW5maWxlLm1hZT4nLCAnLW9tYWUnLCAnPG91dGZpbGUubWFlPic=

> <r_lp_tautomer_probability>
1

> <r_epik_Ionization_Penalty>
1.59202e-05

> <r_epik_Ionization_Penalty_Charging>
0

> <r_epik_Ionization_Penalty_Neutral>
1.59202e-05

> <r_epik_State_Penalty>
-0

> <r_epik_Charging_Adjusted_Penalty>
0

> <i_epik_Tot_Q>
0

> <i_epik_Tot_abs_Q>
0

> <r_epik_Metal_State_Penalty>
0.00596736

> <b_epik_Metal_Only>
0

> <s_lp_Force_Field>
OPLS_2005

> <r_lp_Energy>
22.9222

> <b_lp_Chiralities_Consistent>
1

> <s_lp_Variant>
AV-unprocessed.smi:1142-1

> <Gold.Version>
5.8.1

> <Gold.Id.Protein>
6NUR|6NUR_protein|mol2

> <Gold.PLP.Fitness>
40.6282

> <Gold.PLP.PLP>
-35.4925

> <Gold.PLP.part.hbond>
-1.0000

> <Gold.PLP.part.metal>
0.0000

> <Gold.PLP.part.buried>
-4.7346

> <Gold.PLP.part.nonpolar>
-30.1787

> <Gold.PLP.part.repulsive>
0.1342

> <Gold.PLP.ligand.clash>
0.0000

> <Gold.PLP.ligand.torsion>
0.4149

> <Gold.PLP.Chemscore.Hbond>
0.9920

> <Gold.PLP.Chemscore.CHOScore>
0.9155

> <Gold.PLP.Chemscore.Metal>
0.0000

> <Gold.Chemscore.Hbonds>
donor molecule, donor type, donor heavy atom, donor atom, acceptor molecule, acceptor atom, score
      P1  H  7997  8008       L1     6  0.86
      L1  C    10    25       P1  8028  0.88
      L1  C    10    25       P1  8029  0.01

> <Gold.PLP.Chemscore.Internal.Correction>
0.2429

> <Gold.Rescore>
     Score         DG    S(hbond)    S(metal)    S(lipo)     H(rot)  DE(clash)    DE(int)     intcor
     14.30     -16.59       0.95        0.00      93.72       1.19       0.18       2.11       ----

> <Gold.Chemscore.Fitness>
14.2967

> <Gold.Chemscore.DG>
-16.5881

> <Gold.Chemscore.ZeroCoef>
-5.4800

> <Gold.Chemscore.Hbond>
0.9537

> <Gold.Chemscore.Metal>
0.0000

> <Gold.Chemscore.Lipo>
93.7247

> <Gold.Chemscore.Internal_Hbond>
0.0000

> <Gold.Chemscore.DEClash>
0.1825

> <Gold.Chemscore.DEInternal>
2.1089

> <Gold.Chemscore.Rot>
1.1887

> <Gold.Chemscore.Internal.Correction>
   9.000000E+99

> <Gold.Chemscore.Hbonds>
donor molecule, donor type, donor heavy atom, donor atom, acceptor molecule, acceptor atom, score
      P1  H  7997  8008       L1     6  0.79

> <Gold.Chemscore.Hbond.Weighted>
-3.1854

> <Gold.Chemscore.Metal.Weighted>
-0.0000

> <Gold.Chemscore.Lipo.Weighted>
-10.9658

> <Gold.Chemscore.Internal_Hbond.Weighted>
0.0000

> <Gold.Chemscore.DEClash.Weighted>
0.1825

> <Gold.Chemscore.DEInternal.Weighted>
2.1089

> <Gold.Chemscore.Rot.Weighted>
3.0432

> <Gold.Chemscore.Internal.Correction.Weighted>
   9.000000E+99

> <Gold.Protein.RotatedTorsions>
[ 6907 6896 6895 6894 ] final  -62.23 input  -60.11 | X-H torsion
[ 7974 7965 7964 7962 ] final   63.22 input  175.53 | X-H torsion
[ 8008 7997 7996 7995 ] final -109.64 input   59.86 | X-H torsion
[ 10167 10162 10161 10158 ] final  128.89 input  -65.29 | X-H torsion
[ 10718 10713 10712 10709 ] final  -98.56 input   66.30 | X-H torsion
[ 10763 10752 10751 10750 ] final  -88.36 input  -60.55 | X-H torsion
[ 11005 11000 10999 10996 ] final   23.94 input  -57.11 | X-H torsion

> <Gold.Protein.ActiveResidues>
 VAL166  LYS551  ARG553  GLY616  TRP617  ASP618  TYR619  PRO620  LYS621  CYS622 
 ASP623  PHE694  ASN695  SER759  ASP760  ASP761  ALA762  ILE779  LEU786  VAL792 
 PHE793  MET794  SER795  GLU796  ALA797  LYS798  CYS799  TRP800  GLU811  SER814 

> <Gold.Protein.RotatedAtoms>
  150.7730  134.6599  159.6333 H   0  0  0  0  0  0  0  0  0  0  0  0  # atno 6907 bound_to 6896
  152.3790  134.6617  160.0159 H   0  0  0  0  0  0  0  0  0  0  0  0  # atno 6908 bound_to 6896
  151.6953  133.3274  159.3289 H   0  0  0  0  0  0  0  0  0  0  0  0  # atno 6909 bound_to 6896
  145.8644  139.3336  143.0800 H   0  0  0  0  0  0  0  0  0  0  0  0  # atno 7974 bound_to 7965
  154.9624  140.0399  157.2196 H   0  0  0  0  0  0  0  0  0  0  0  0  # atno 8008 bound_to 7997
  154.7877  140.2830  155.5993 H   0  0  0  0  0  0  0  0  0  0  0  0  # atno 8009 bound_to 7997
  156.2945  140.2579  156.2717 H   0  0  0  0  0  0  0  0  0  0  0  0  # atno 8010 bound_to 7997
  139.5505  144.6809  151.4340 H   0  0  0  0  0  0  0  0  0  0  0  0  # atno 10167 bound_to 10162
  156.0111  130.5243  150.6541 H   0  0  0  0  0  0  0  0  0  0  0  0  # atno 10718 bound_to 10713
  154.6437  135.5380  153.7820 H   0  0  0  0  0  0  0  0  0  0  0  0  # atno 10763 bound_to 10752
  153.0348  135.6465  154.1121 H   0  0  0  0  0  0  0  0  0  0  0  0  # atno 10764 bound_to 10752
  154.1043  135.2931  155.3224 H   0  0  0  0  0  0  0  0  0  0  0  0  # atno 10765 bound_to 10752
  140.3641  134.2093  155.7670 H   0  0  0  0  0  0  0  0  0  0  0  0  # atno 11005 bound_to 11000
  145.9211  140.9115  143.0405 LP  0  0  0  0  0  0  0  0  0  0  0  0  # atno 17320 bound_to 7965
  144.6726  140.1289  143.7445 LP  0  0  0  0  0  0  0  0  0  0  0  0  # atno 17321 bound_to 7965
  140.6766  143.8177  150.7066 LP  0  0  0  0  0  0  0  0  0  0  0  0  # atno 17342 bound_to 10162
  140.1617  143.4269  152.2062 LP  0  0  0  0  0  0  0  0  0  0  0  0  # atno 17343 bound_to 10162
  157.4296  131.0847  151.1051 LP  0  0  0  0  0  0  0  0  0  0  0  0  # atno 17370 bound_to 10713
  157.1628  130.6233  149.5616 LP  0  0  0  0  0  0  0  0  0  0  0  0  # atno 17371 bound_to 10713
  141.1975  133.8058  157.0625 LP  0  0  0  0  0  0  0  0  0  0  0  0  # atno 17394 bound_to 11000
  140.0603  134.9758  157.1293 LP  0  0  0  0  0  0  0  0  0  0  0  0  # atno 17395 bound_to 11000

$$$$
