AV-unprocessed.smi:3144|AV-procd|sdf|11978|dock3
  -GOLD-   2272017373D 1   1.00000     0.00000
 Structure written by MMmdl.
 40 41  0  0  0  0  0  0  0  0  2 V2000
  151.1672  141.4665  158.2801 C   0  0  0  0  0  0  0  0  0  0  0  0
  150.6971  140.9550  156.9488 C   0  0  0  0  0  0  0  0  0  0  0  0
  151.3000  139.9530  156.1365 C   0  0  0  0  0  0  0  0  0  0  0  0
  150.6351  139.7325  155.0138 N   0  0  0  0  0  0  0  0  0  0  0  0
  149.5884  140.5822  155.0696 N   0  0  0  0  0  0  0  0  0  0  0  0
  148.6298  140.6121  153.9822 C   0  0  0  0  0  0  0  0  0  0  0  0
  147.8640  139.2865  153.8654 C   0  0  0  0  0  0  0  0  0  0  0  0
  147.9023  138.7731  152.4828 N   0  3  0  0  0  0  0  0  0  0  0  0
  146.5921  138.7814  151.8018 C   0  0  0  0  0  0  0  0  0  0  0  0
  145.9505  137.3817  151.7857 C   0  0  0  0  0  0  0  0  0  0  0  0
  145.9862  136.7763  150.3671 C   0  0  0  0  0  0  0  0  0  0  0  0
  145.3552  135.3748  150.3298 C   0  0  0  0  0  0  0  0  0  0  0  0
  143.9166  135.3982  150.8674 C   0  0  0  0  0  0  0  0  0  0  0  0
  143.8651  136.0001  152.2796 C   0  0  0  0  0  0  0  0  0  0  0  0
  144.4984  137.4006  152.3127 C   0  0  0  0  0  0  0  0  0  0  0  0
  149.6000  141.3319  156.2266 C   0  0  0  0  0  0  0  0  0  0  0  0
  151.6916  140.6963  158.8461 H   0  0  0  0  0  0  0  0  0  0  0  0
  150.3375  141.8089  158.8989 H   0  0  0  0  0  0  0  0  0  0  0  0
  151.8537  142.3059  158.1675 H   0  0  0  0  0  0  0  0  0  0  0  0
  152.1967  139.3825  156.3291 H   0  0  0  0  0  0  0  0  0  0  0  0
  147.9400  141.4403  154.1515 H   0  0  0  0  0  0  0  0  0  0  0  0
  149.1626  140.8278  153.0551 H   0  0  0  0  0  0  0  0  0  0  0  0
  148.2975  138.5452  154.5381 H   0  0  0  0  0  0  0  0  0  0  0  0
  146.8240  139.4249  154.1644 H   0  0  0  0  0  0  0  0  0  0  0  0
  148.5455  139.3399  151.9485 H   0  0  0  0  0  0  0  0  0  0  0  0
  145.9289  139.4975  152.2893 H   0  0  0  0  0  0  0  0  0  0  0  0
  146.7403  139.1303  150.7787 H   0  0  0  0  0  0  0  0  0  0  0  0
  146.5414  136.7329  152.4348 H   0  0  0  0  0  0  0  0  0  0  0  0
  145.4566  137.4304  149.6730 H   0  0  0  0  0  0  0  0  0  0  0  0
  147.0153  136.7186  150.0103 H   0  0  0  0  0  0  0  0  0  0  0  0
  145.3636  134.9901  149.3095 H   0  0  0  0  0  0  0  0  0  0  0  0
  145.9574  134.6863  150.9243 H   0  0  0  0  0  0  0  0  0  0  0  0
  143.2850  135.9827  150.1974 H   0  0  0  0  0  0  0  0  0  0  0  0
  143.5053  134.3884  150.8776 H   0  0  0  0  0  0  0  0  0  0  0  0
  142.8317  136.0506  152.6236 H   0  0  0  0  0  0  0  0  0  0  0  0
  144.3904  135.3445  152.9756 H   0  0  0  0  0  0  0  0  0  0  0  0
  144.4689  137.7812  153.3340 H   0  0  0  0  0  0  0  0  0  0  0  0
  143.8963  138.0844  151.7128 H   0  0  0  0  0  0  0  0  0  0  0  0
  148.8356  142.0649  156.4389 H   0  0  0  0  0  0  0  0  0  0  0  0
  148.2464  137.8238  152.5015 H   0  0  0  0  0  0  0  0  0  0  0  0
  1  2  1  0  0  0  0
  1 17  1  0  0  0  0
  1 18  1  0  0  0  0
  1 19  1  0  0  0  0
  2 16  2  0  0  0  0
  2  3  1  0  0  0  0
  3  4  2  0  0  0  0
  3 20  1  0  0  0  0
  4  5  1  0  0  0  0
  5  6  1  0  0  0  0
  5 16  1  0  0  0  0
  6  7  1  0  0  0  0
  6 21  1  0  0  0  0
  6 22  1  0  0  0  0
  7  8  1  0  0  0  0
  7 23  1  0  0  0  0
  7 24  1  0  0  0  0
  8  9  1  0  0  0  0
  8 25  1  0  0  0  0
  8 40  1  0  0  0  0
  9 10  1  0  0  0  0
  9 26  1  0  0  0  0
  9 27  1  0  0  0  0
 10 15  1  0  0  0  0
 10 11  1  0  0  0  0
 10 28  1  0  0  0  0
 11 12  1  0  0  0  0
 11 29  1  0  0  0  0
 11 30  1  0  0  0  0
 12 13  1  0  0  0  0
 12 31  1  0  0  0  0
 12 32  1  0  0  0  0
 13 14  1  0  0  0  0
 13 33  1  0  0  0  0
 13 34  1  0  0  0  0
 14 15  1  0  0  0  0
 14 35  1  0  0  0  0
 14 36  1  0  0  0  0
 15 37  1  0  0  0  0
 15 38  1  0  0  0  0
 16 39  1  0  0  0  0
M  CHG  1   8   1
M  END
> <s_m_source_file>
AV-unprocessed.smi

> <i_m_source_file_index>
3144

> <i_lp_mmshare_version>
43012

> <i_f3d_flags>
0

> <s_epik_input>
W0NIM11jMVtjSF1ubihbY0hdMSlbQ0gyXVtDSDJdW05IXVtDSDJdW0NIXTJbQ0gyXVtDSDJdW0NIMl1bQ0gyXVtDSDJdMg==

> <s_epik_cmdline>
J2VwaWtfcHl0aG9uJywgJy1waCcsICc3LjAnLCAnLXRuJywgJzgnLCAnLW1hJywgJzIwMCcsICctbWV0YWxfYmluZGluZycsICctaW1hZScsICc8aW5maWxlLm1hZT4nLCAnLW9tYWUnLCAnPG91dGZpbGUubWFlPic=

> <r_lp_tautomer_probability>
1

> <r_epik_Ionization_Penalty>
0.0017464

> <r_epik_Ionization_Penalty_Charging>
0.00174052

> <r_epik_Ionization_Penalty_Neutral>
5.87243e-06

> <r_epik_State_Penalty>
-0

> <r_epik_Charging_Adjusted_Penalty>
0.00174052

> <i_epik_Tot_Q>
1

> <i_epik_Tot_abs_Q>
1

> <r_epik_Metal_State_Penalty>
-0

> <b_epik_Metal_Only>
0

> <s_lp_Force_Field>
OPLS_2005

> <r_lp_Energy>
13.1437

> <b_lp_Chiralities_Consistent>
1

> <s_lp_Variant>
AV-unprocessed.smi:3144-1

> <Gold.Version>
5.8.1

> <Gold.Id.Protein>
6NUR|6NUR_protein|mol2

> <Gold.PLP.Fitness>
46.0378

> <Gold.PLP.PLP>
-34.5629

> <Gold.PLP.part.hbond>
-3.0000

> <Gold.PLP.part.metal>
0.0000

> <Gold.PLP.part.buried>
2.2277

> <Gold.PLP.part.nonpolar>
-33.9366

> <Gold.PLP.part.repulsive>
0.1380

> <Gold.PLP.ligand.clash>
0.0000

> <Gold.PLP.ligand.torsion>
1.7283

> <Gold.PLP.Chemscore.Hbond>
4.0000

> <Gold.PLP.Chemscore.CHOScore>
0.9548

> <Gold.PLP.Chemscore.Metal>
0.0000

> <Gold.Chemscore.Hbonds>
donor molecule, donor type, donor heavy atom, donor atom, acceptor molecule, acceptor atom, score
      L1  H     8    25       P1  7957  0.86
      L1  H     8    40       P1  7948  2.00
      P1  H  7989  7998       L1     4  0.48
      L1  C    16    39       P1  8028  0.38

> <Gold.PLP.Chemscore.Internal.Correction>
0.0671

> <Gold.Rescore>
     Score         DG    S(hbond)    S(metal)    S(lipo)     H(rot)  DE(clash)    DE(int)     intcor
     17.58     -19.52       2.67        0.00      76.75       1.50       0.17       1.76       ----

> <Gold.Chemscore.Fitness>
17.5812

> <Gold.Chemscore.DG>
-19.5167

> <Gold.Chemscore.ZeroCoef>
-5.4800

> <Gold.Chemscore.Hbond>
2.6664

> <Gold.Chemscore.Metal>
0.0000

> <Gold.Chemscore.Lipo>
76.7521

> <Gold.Chemscore.Internal_Hbond>
0.0000

> <Gold.Chemscore.DEClash>
0.1720

> <Gold.Chemscore.DEInternal>
1.7635

> <Gold.Chemscore.Rot>
1.5036

> <Gold.Chemscore.Internal.Correction>
   9.000000E+99

> <Gold.Chemscore.Hbonds>
donor molecule, donor type, donor heavy atom, donor atom, acceptor molecule, acceptor atom, score
      L1  H     8    25       P1  7957  0.84
      L1  H     8    40       P1  7948  0.99
      P1  H  7989  7998       L1     4  0.02

> <Gold.Chemscore.Hbond.Weighted>
-8.9059

> <Gold.Chemscore.Metal.Weighted>
-0.0000

> <Gold.Chemscore.Lipo.Weighted>
-8.9800

> <Gold.Chemscore.Internal_Hbond.Weighted>
0.0000

> <Gold.Chemscore.DEClash.Weighted>
0.1720

> <Gold.Chemscore.DEInternal.Weighted>
1.7635

> <Gold.Chemscore.Rot.Weighted>
3.8492

> <Gold.Chemscore.Internal.Correction.Weighted>
   9.000000E+99

> <Gold.Protein.RotatedTorsions>
[ 6907 6896 6895 6894 ] final  115.59 input  -60.11 | X-H torsion
[ 7974 7965 7964 7962 ] final   60.37 input  175.53 | X-H torsion
[ 8008 7997 7996 7995 ] final  105.90 input   59.86 | X-H torsion
[ 10167 10162 10161 10158 ] final  -54.62 input  -65.29 | X-H torsion
[ 10718 10713 10712 10709 ] final   70.21 input   66.30 | X-H torsion
[ 10763 10752 10751 10750 ] final -100.57 input  -60.55 | X-H torsion
[ 11005 11000 10999 10996 ] final -144.82 input  -57.11 | X-H torsion

> <Gold.Protein.ActiveResidues>
 VAL166  LYS551  ARG553  GLY616  TRP617  ASP618  TYR619  PRO620  LYS621  CYS622 
 ASP623  PHE694  ASN695  SER759  ASP760  ASP761  ALA762  ILE779  LEU786  VAL792 
 PHE793  MET794  SER795  GLU796  ALA797  LYS798  CYS799  TRP800  GLU811  SER814 

> <Gold.Protein.RotatedAtoms>
  152.4732  133.8078  159.6986 H   0  0  0  0  0  0  0  0  0  0  0  0  # atno 6907 bound_to 6896
  150.8733  133.7465  159.2961 H   0  0  0  0  0  0  0  0  0  0  0  0  # atno 6908 bound_to 6896
  151.4992  135.1064  159.9876 H   0  0  0  0  0  0  0  0  0  0  0  0  # atno 6909 bound_to 6896
  145.8967  139.3551  143.0617 H   0  0  0  0  0  0  0  0  0  0  0  0  # atno 7974 bound_to 7965
  156.1698  140.3122  155.8953 H   0  0  0  0  0  0  0  0  0  0  0  0  # atno 8008 bound_to 7997
  155.3610  140.0476  157.3063 H   0  0  0  0  0  0  0  0  0  0  0  0  # atno 8009 bound_to 7997
  154.5229  140.2204  155.8953 H   0  0  0  0  0  0  0  0  0  0  0  0  # atno 8010 bound_to 7997
  140.6420  143.2513  151.4962 H   0  0  0  0  0  0  0  0  0  0  0  0  # atno 10167 bound_to 10162
  157.6388  130.9465  150.0619 H   0  0  0  0  0  0  0  0  0  0  0  0  # atno 10718 bound_to 10713
  154.7590  135.4930  153.9428 H   0  0  0  0  0  0  0  0  0  0  0  0  # atno 10763 bound_to 10752
  153.1229  135.6736  153.9313 H   0  0  0  0  0  0  0  0  0  0  0  0  # atno 10764 bound_to 10752
  153.9040  135.3106  155.3427 H   0  0  0  0  0  0  0  0  0  0  0  0  # atno 10765 bound_to 10752
  140.7985  134.2884  157.4987 H   0  0  0  0  0  0  0  0  0  0  0  0  # atno 11005 bound_to 11000
  145.8841  140.9344  143.0586 LP  0  0  0  0  0  0  0  0  0  0  0  0  # atno 17320 bound_to 7965
  144.6733  140.0819  143.7469 LP  0  0  0  0  0  0  0  0  0  0  0  0  # atno 17321 bound_to 7965
  139.5630  144.2111  152.1721 LP  0  0  0  0  0  0  0  0  0  0  0  0  # atno 17342 bound_to 10162
  140.1384  144.5224  150.6759 LP  0  0  0  0  0  0  0  0  0  0  0  0  # atno 17343 bound_to 10162
  156.1649  130.3645  149.9246 LP  0  0  0  0  0  0  0  0  0  0  0  0  # atno 17370 bound_to 10713
  156.7235  130.9016  151.3620 LP  0  0  0  0  0  0  0  0  0  0  0  0  # atno 17371 bound_to 10713
  139.8724  134.9416  156.3801 LP  0  0  0  0  0  0  0  0  0  0  0  0  # atno 17394 bound_to 11000
  140.9318  133.7574  156.0035 LP  0  0  0  0  0  0  0  0  0  0  0  0  # atno 17395 bound_to 11000

$$$$
