AV-unprocessed.smi:109|AV-procd|sdf|1053|dock5
  -GOLD-   2262018113D 1   1.00000     0.00000
 Structure written by MMmdl.
 58 61  0  0  0  0  0  0  0  0  1 V2000
  149.3639  140.8065  153.5584 O   0  0  0  0  0  0  0  0  0  0  0  0
  148.8175  140.8120  154.8596 C   0  0  0  0  0  0  0  0  0  0  0  0
  149.8647  141.3213  155.8649 C   0  0  0  0  0  0  0  0  0  0  0  0
  149.2877  141.6906  157.2543 C   0  0  2  0  0  0  0  0  0  0  0  0
  148.1864  142.6420  157.0906 N   0  0  0  0  0  0  0  0  0  0  0  0
  146.9637  142.4355  157.6292 C   0  0  0  0  0  0  0  0  0  0  0  0
  146.8089  142.0842  158.9325 N   0  0  0  0  0  0  0  0  0  0  0  0
  145.5859  141.8773  159.4306 C   0  0  0  0  0  0  0  0  0  0  0  0
  144.4064  141.9671  158.8113 N   0  0  0  0  0  0  0  0  0  0  0  0
  144.5588  142.3228  157.5032 C   0  0  0  0  0  0  0  0  0  0  0  0
  145.7921  142.5728  156.8415 C   0  0  0  0  0  0  0  0  0  0  0  0
  145.5542  142.9056  155.5141 N   0  0  0  0  0  0  0  0  0  0  0  0
  144.2535  142.8532  155.4033 C   0  0  0  0  0  0  0  0  0  0  0  0
  143.5782  142.5052  156.5545 N   0  0  0  0  0  0  0  0  0  0  0  0
  142.1105  142.3406  156.7786 C   0  0  1  0  0  0  0  0  0  0  0  0
  141.6243  143.5448  157.2941 O   0  0  0  0  0  0  0  0  0  0  0  0
  140.5976  144.0715  156.4610 C   0  0  1  0  0  0  0  0  0  0  0  0
  140.5531  145.6078  156.5394 C   0  0  0  0  0  0  0  0  0  0  0  0
  140.2450  146.0223  157.8531 O   0  0  0  0  0  0  0  0  0  0  0  0
  140.8383  143.4461  155.0799 C   0  0  1  0  0  0  0  0  0  0  0  0
  141.7704  144.1911  154.3176 O   0  0  0  0  0  0  0  0  0  0  0  0
  141.4126  142.0821  155.4331 C   0  0  2  0  0  0  0  0  0  0  0  0
  140.3876  141.1183  155.5670 O   0  0  0  0  0  0  0  0  0  0  0  0
  150.3410  142.2924  158.2285 C   0  0  0  0  0  0  0  0  0  0  0  0
  150.9465  143.6288  157.7306 C   0  0  0  0  0  0  0  0  0  0  0  0
  152.0161  144.1821  158.6865 C   0  0  0  0  0  0  0  0  0  0  0  0
  153.1334  143.1609  158.9306 C   0  0  0  0  0  0  0  0  0  0  0  0
  152.5519  141.8429  159.4548 C   0  0  0  0  0  0  0  0  0  0  0  0
  151.4897  141.2853  158.4947 C   0  0  0  0  0  0  0  0  0  0  0  0
  142.0310  141.5241  157.4979 H   0  0  0  0  0  0  0  0  0  0  0  0
  139.6610  143.6721  156.8546 H   0  0  0  0  0  0  0  0  0  0  0  0
  139.9164  143.3751  154.5009 H   0  0  0  0  0  0  0  0  0  0  0  0
  142.1167  141.7143  154.6843 H   0  0  0  0  0  0  0  0  0  0  0  0
  148.9173  140.1490  153.0474 H   0  0  0  0  0  0  0  0  0  0  0  0
  147.9296  141.4442  154.8581 H   0  0  0  0  0  0  0  0  0  0  0  0
  148.5006  139.8001  155.1135 H   0  0  0  0  0  0  0  0  0  0  0  0
  150.6035  140.5288  155.9722 H   0  0  0  0  0  0  0  0  0  0  0  0
  150.3912  142.1796  155.4450 H   0  0  0  0  0  0  0  0  0  0  0  0
  148.9322  140.7698  157.7164 H   0  0  0  0  0  0  0  0  0  0  0  0
  148.4035  143.4624  156.5429 H   0  0  0  0  0  0  0  0  0  0  0  0
  145.5470  141.5985  160.4734 H   0  0  0  0  0  0  0  0  0  0  0  0
  143.7526  143.0644  154.4698 H   0  0  0  0  0  0  0  0  0  0  0  0
  141.5271  146.0196  156.2742 H   0  0  0  0  0  0  0  0  0  0  0  0
  139.8319  146.0276  155.8382 H   0  0  0  0  0  0  0  0  0  0  0  0
  139.6607  145.3880  158.2395 H   0  0  0  0  0  0  0  0  0  0  0  0
  142.1860  143.6088  153.7003 H   0  0  0  0  0  0  0  0  0  0  0  0
  139.5839  141.4854  155.2315 H   0  0  0  0  0  0  0  0  0  0  0  0
  149.8439  142.4927  159.1792 H   0  0  0  0  0  0  0  0  0  0  0  0
  151.3782  143.4912  156.7384 H   0  0  0  0  0  0  0  0  0  0  0  0
  150.1753  144.3912  157.6329 H   0  0  0  0  0  0  0  0  0  0  0  0
  152.4371  145.1019  158.2794 H   0  0  0  0  0  0  0  0  0  0  0  0
  151.5527  144.4497  159.6370 H   0  0  0  0  0  0  0  0  0  0  0  0
  153.6768  142.9809  158.0021 H   0  0  0  0  0  0  0  0  0  0  0  0
  153.8563  143.5605  159.6422 H   0  0  0  0  0  0  0  0  0  0  0  0
  153.3506  141.1129  159.5894 H   0  0  0  0  0  0  0  0  0  0  0  0
  152.1091  142.0020  160.4387 H   0  0  0  0  0  0  0  0  0  0  0  0
  151.1020  140.3576  158.9161 H   0  0  0  0  0  0  0  0  0  0  0  0
  151.9638  141.0141  157.5503 H   0  0  0  0  0  0  0  0  0  0  0  0
  1  2  1  0  0  0  0
  1 34  1  0  0  0  0
  2  3  1  0  0  0  0
  2 35  1  0  0  0  0
  2 36  1  0  0  0  0
  3  4  1  0  0  0  0
  3 37  1  0  0  0  0
  3 38  1  0  0  0  0
  4  5  1  0  0  0  0
  4 24  1  0  0  0  0
  4 39  1  0  0  0  0
  5  6  1  0  0  0  0
  5 40  1  0  0  0  0
  6 11  1  0  0  0  0
  6  7  2  0  0  0  0
  7  8  1  0  0  0  0
  8  9  2  0  0  0  0
  8 41  1  0  0  0  0
  9 10  1  0  0  0  0
 10 14  1  0  0  0  0
 10 11  2  0  0  0  0
 11 12  1  0  0  0  0
 12 13  2  0  0  0  0
 13 14  1  0  0  0  0
 13 42  1  0  0  0  0
 14 15  1  0  0  0  0
 15 30  1  0  0  0  0
 15 22  1  0  0  0  0
 15 16  1  0  0  0  0
 16 17  1  0  0  0  0
 17 31  1  0  0  0  0
 17 18  1  0  0  0  0
 17 20  1  0  0  0  0
 18 19  1  0  0  0  0
 18 43  1  0  0  0  0
 18 44  1  0  0  0  0
 19 45  1  0  0  0  0
 20 32  1  0  0  0  0
 20 21  1  0  0  0  0
 20 22  1  0  0  0  0
 21 46  1  0  0  0  0
 22 33  1  0  0  0  0
 22 23  1  0  0  0  0
 23 47  1  0  0  0  0
 24 29  1  0  0  0  0
 24 25  1  0  0  0  0
 24 48  1  0  0  0  0
 25 26  1  0  0  0  0
 25 49  1  0  0  0  0
 25 50  1  0  0  0  0
 26 27  1  0  0  0  0
 26 51  1  0  0  0  0
 26 52  1  0  0  0  0
 27 28  1  0  0  0  0
 27 53  1  0  0  0  0
 27 54  1  0  0  0  0
 28 29  1  0  0  0  0
 28 55  1  0  0  0  0
 28 56  1  0  0  0  0
 29 57  1  0  0  0  0
 29 58  1  0  0  0  0
M  END
> <s_m_source_file>
AV-unprocessed.smi

> <i_m_source_file_index>
109

> <i_lp_mmshare_version>
43012

> <i_f3d_flags>
0

> <s_epik_input>
W0NIMl0xW0NIMl1bQ0gyXVtDSDJdW0NIMl1bQ0hdMVtDQEhdKFtDSDJdW0NIMl1bT0hdKVtOSF1jKG5bY0hdbjIpYyhjMjMpbltjSF1uM1tDQEBIXTRPW0NASF0oW0NIMl1bT0hdKVtDQEBIXShbT0hdKVtDQEhdNFtPSF0=

> <s_epik_cmdline>
J2VwaWtfcHl0aG9uJywgJy1waCcsICc3LjAnLCAnLXRuJywgJzgnLCAnLW1hJywgJzIwMCcsICctbWV0YWxfYmluZGluZycsICctaW1hZScsICc8aW5maWxlLm1hZT4nLCAnLW9tYWUnLCAnPG91dGZpbGUubWFlPic=

> <r_lp_tautomer_probability>
1

> <r_epik_Ionization_Penalty>
0.000793976

> <r_epik_Ionization_Penalty_Charging>
0

> <r_epik_Ionization_Penalty_Neutral>
0.000793976

> <r_epik_State_Penalty>
-0

> <r_epik_Charging_Adjusted_Penalty>
0

> <i_epik_Tot_Q>
0

> <i_epik_Tot_abs_Q>
0

> <r_epik_Metal_State_Penalty>
-0

> <b_epik_Metal_Only>
0

> <s_epik_Chemistry_Notes>
This compound contains an acetal/aminal-like group ( X-CH(R)-Y where X, Y are N, S, or O) that may be acid/base labile, releasing an aldehyde.

> <s_lp_Force_Field>
OPLS_2005

> <r_lp_Energy>
46.6527

> <b_lp_Chiralities_Consistent>
1

> <s_lp_Variant>
AV-unprocessed.smi:109-23

> <Gold.Version>
5.8.1

> <Gold.Id.Protein>
6NUR|6NUR_protein|mol2

> <Gold.PLP.Fitness>
48.2157

> <Gold.PLP.PLP>
-36.1421

> <Gold.PLP.part.hbond>
-6.1807

> <Gold.PLP.part.metal>
0.0000

> <Gold.PLP.part.buried>
-1.8781

> <Gold.PLP.part.nonpolar>
-28.2655

> <Gold.PLP.part.repulsive>
0.2413

> <Gold.PLP.ligand.clash>
0.0000

> <Gold.PLP.ligand.torsion>
1.2481

> <Gold.PLP.Chemscore.Hbond>
3.8000

> <Gold.PLP.Chemscore.CHOScore>
1.0000

> <Gold.PLP.Chemscore.Metal>
0.0000

> <Gold.Chemscore.Hbonds>
donor molecule, donor type, donor heavy atom, donor atom, acceptor molecule, acceptor atom, score
      L1  H     1    34       P1  7957  0.26
      L1  H     5    40       P1  8028  1.00
      L1  H    21    46       P1 10174  1.00
      P1  H  7989  7998       L1     1  0.17
      P1  H  8011  8017       L1     1  0.91
      L1  C    13    42       P1 10174  0.73

> <Gold.PLP.Chemscore.Internal.Correction>
0.1698

> <Gold.Rescore>
     Score         DG    S(hbond)    S(metal)    S(lipo)     H(rot)  DE(clash)    DE(int)     intcor
      7.42     -10.08       2.47        0.00      88.25       5.47       0.50       2.17       ----

> <Gold.Chemscore.Fitness>
7.4162

> <Gold.Chemscore.DG>
-10.0776

> <Gold.Chemscore.ZeroCoef>
-5.4800

> <Gold.Chemscore.Hbond>
2.4749

> <Gold.Chemscore.Metal>
0.0000

> <Gold.Chemscore.Lipo>
88.2476

> <Gold.Chemscore.Internal_Hbond>
0.0000

> <Gold.Chemscore.DEClash>
0.4963

> <Gold.Chemscore.DEInternal>
2.1650

> <Gold.Chemscore.Rot>
5.4662

> <Gold.Chemscore.Internal.Correction>
   9.000000E+99

> <Gold.Chemscore.Hbonds>
donor molecule, donor type, donor heavy atom, donor atom, acceptor molecule, acceptor atom, score
      L1  H     1    34       P1  7957  0.25
      L1  H     5    40       P1  8028  0.34
      L1  H    21    46       P1 10174  0.98
      P1  H  7989  7998       L1     1  0.15
      P1  H  8011  8017       L1     1  0.56

> <Gold.Chemscore.Hbond.Weighted>
-8.2661

> <Gold.Chemscore.Metal.Weighted>
-0.0000

> <Gold.Chemscore.Lipo.Weighted>
-10.3250

> <Gold.Chemscore.Internal_Hbond.Weighted>
0.0000

> <Gold.Chemscore.DEClash.Weighted>
0.4963

> <Gold.Chemscore.DEInternal.Weighted>
2.1650

> <Gold.Chemscore.Rot.Weighted>
13.9935

> <Gold.Chemscore.Internal.Correction.Weighted>
   9.000000E+99

> <Gold.Protein.RotatedTorsions>
[ 6907 6896 6895 6894 ] final  133.10 input  -60.11 | X-H torsion
[ 7974 7965 7964 7962 ] final -120.35 input  175.53 | X-H torsion
[ 8008 7997 7996 7995 ] final  139.58 input   59.86 | X-H torsion
[ 10167 10162 10161 10158 ] final  -59.62 input  -65.29 | X-H torsion
[ 10718 10713 10712 10709 ] final  -81.47 input   66.30 | X-H torsion
[ 10763 10752 10751 10750 ] final    0.85 input  -60.55 | X-H torsion
[ 11005 11000 10999 10996 ] final -177.39 input  -57.11 | X-H torsion

> <Gold.Protein.ActiveResidues>
 VAL166  LYS551  ARG553  GLY616  TRP617  ASP618  TYR619  PRO620  LYS621  CYS622 
 ASP623  PHE694  ASN695  SER759  ASP760  ASP761  ALA762  ILE779  LEU786  VAL792 
 PHE793  MET794  SER795  GLU796  ALA797  LYS798  CYS799  TRP800  GLU811  SER814 

> <Gold.Protein.RotatedAtoms>
  152.3255  133.5900  159.5773 H   0  0  0  0  0  0  0  0  0  0  0  0  # atno 6907 bound_to 6896
  150.7394  133.9947  159.3627 H   0  0  0  0  0  0  0  0  0  0  0  0  # atno 6908 bound_to 6896
  151.7827  135.0758  160.0427 H   0  0  0  0  0  0  0  0  0  0  0  0  # atno 6909 bound_to 6896
  145.0524  140.8228  143.4201 H   0  0  0  0  0  0  0  0  0  0  0  0  # atno 7974 bound_to 7965
  156.2988  140.2364  156.4260 H   0  0  0  0  0  0  0  0  0  0  0  0  # atno 8008 bound_to 7997
  154.8313  140.0433  157.1499 H   0  0  0  0  0  0  0  0  0  0  0  0  # atno 8009 bound_to 7997
  154.9205  140.3003  155.5222 H   0  0  0  0  0  0  0  0  0  0  0  0  # atno 8010 bound_to 7997
  140.6123  143.2391  151.5679 H   0  0  0  0  0  0  0  0  0  0  0  0  # atno 10167 bound_to 10162
  156.0050  130.4605  150.3957 H   0  0  0  0  0  0  0  0  0  0  0  0  # atno 10718 bound_to 10713
  153.3154  135.6965  153.7078 H   0  0  0  0  0  0  0  0  0  0  0  0  # atno 10763 bound_to 10752
  153.5939  135.3475  155.2921 H   0  0  0  0  0  0  0  0  0  0  0  0  # atno 10764 bound_to 10752
  154.8585  135.4324  154.2304 H   0  0  0  0  0  0  0  0  0  0  0  0  # atno 10765 bound_to 10752
  140.4415  134.6427  157.4760 H   0  0  0  0  0  0  0  0  0  0  0  0  # atno 11005 bound_to 11000
  145.1511  139.2514  143.5440 LP  0  0  0  0  0  0  0  0  0  0  0  0  # atno 17320 bound_to 7965
  146.3519  140.1214  142.8600 LP  0  0  0  0  0  0  0  0  0  0  0  0  # atno 17321 bound_to 7965
  139.5371  144.2750  152.1274 LP  0  0  0  0  0  0  0  0  0  0  0  0  # atno 17342 bound_to 10162
  140.1952  144.4712  150.6459 LP  0  0  0  0  0  0  0  0  0  0  0  0  # atno 17343 bound_to 10162
  157.2029  131.0442  151.2641 LP  0  0  0  0  0  0  0  0  0  0  0  0  # atno 17370 bound_to 10713
  157.3959  130.7307  149.6731 LP  0  0  0  0  0  0  0  0  0  0  0  0  # atno 17371 bound_to 10713
  140.0067  134.6753  155.9445 LP  0  0  0  0  0  0  0  0  0  0  0  0  # atno 17394 bound_to 11000
  141.1703  133.6537  156.4629 LP  0  0  0  0  0  0  0  0  0  0  0  0  # atno 17395 bound_to 11000

$$$$
