AV-unprocessed.smi:1686|AV-procd|sdf|6760|dock10
  -GOLD-   22720 7523D 1   1.00000     0.00000
 Structure written by MMmdl.
 41 43  0  0  0  0  0  0  0  0  1 V2000
  153.3717  138.2049  157.9329 C   0  0  0  0  0  0  0  0  0  0  0  0
  152.4075  138.8873  157.0055 C   0  0  0  0  0  0  0  0  0  0  0  0
  152.8024  139.2118  155.7816 N   0  0  0  0  0  0  0  0  0  0  0  0
  151.7038  139.8160  155.1598 O   0  0  0  0  0  0  0  0  0  0  0  0
  150.6938  139.8228  156.0595 C   0  0  0  0  0  0  0  0  0  0  0  0
  149.1413  140.4635  155.6941 Cl  0  0  0  0  0  0  0  0  0  0  0  0
  151.0520  139.2566  157.2493 C   0  0  0  0  0  0  0  0  0  0  0  0
  150.2296  139.0465  158.4976 C   0  0  0  0  0  0  0  0  0  0  0  0
  150.1081  137.5493  158.7845 C   0  0  0  0  0  0  0  0  0  0  0  0
  151.1156  136.8440  158.8159 O   0  0  0  0  0  0  0  0  0  0  0  0
  148.8683  137.0904  159.0169 N   0  0  0  0  0  0  0  0  0  0  0  0
  148.5164  135.7509  159.4777 C   0  0  2  0  0  0  0  0  0  0  0  0
  148.4090  134.8223  158.2572 C   0  0  0  0  0  0  0  0  0  0  0  0
  147.2005  135.8217  160.2904 C   0  0  1  0  0  0  0  0  0  0  0  0
  146.6478  134.4367  160.7050 C   0  0  0  0  0  0  0  0  0  0  0  0
  146.4613  134.5710  162.2267 C   0  0  2  0  0  0  0  0  0  0  0  0
  145.3068  135.5459  162.5228 C   0  0  0  0  0  0  0  0  0  0  0  0
  145.9172  136.9127  162.1617 C   0  0  0  0  0  0  0  0  0  0  0  0
  147.3247  136.5338  161.6645 C   0  0  1  0  0  0  0  0  0  0  0  0
  147.6832  135.3939  162.6117 C   0  0  0  0  0  0  0  0  0  0  0  0
  152.8563  137.5132  158.5991 H   0  0  0  0  0  0  0  0  0  0  0  0
  153.8975  138.9326  158.5514 H   0  0  0  0  0  0  0  0  0  0  0  0
  154.1194  137.6323  157.3830 H   0  0  0  0  0  0  0  0  0  0  0  0
  150.6788  139.5351  159.3627 H   0  0  0  0  0  0  0  0  0  0  0  0
  149.2324  139.4751  158.3902 H   0  0  0  0  0  0  0  0  0  0  0  0
  148.1095  137.7533  158.9538 H   0  0  0  0  0  0  0  0  0  0  0  0
  149.3030  135.3651  160.1282 H   0  0  0  0  0  0  0  0  0  0  0  0
  148.1740  133.7992  158.5499 H   0  0  0  0  0  0  0  0  0  0  0  0
  149.3494  134.7935  157.7056 H   0  0  0  0  0  0  0  0  0  0  0  0
  147.6313  135.1575  157.5703 H   0  0  0  0  0  0  0  0  0  0  0  0
  146.4597  136.3442  159.6827 H   0  0  0  0  0  0  0  0  0  0  0  0
  145.7174  134.1903  160.1922 H   0  0  0  0  0  0  0  0  0  0  0  0
  147.3622  133.6406  160.4919 H   0  0  0  0  0  0  0  0  0  0  0  0
  146.3694  133.6141  162.7414 H   0  0  0  0  0  0  0  0  0  0  0  0
  144.4153  135.3201  161.9367 H   0  0  0  0  0  0  0  0  0  0  0  0
  145.0317  135.5161  163.5778 H   0  0  0  0  0  0  0  0  0  0  0  0
  145.3362  137.4470  161.4090 H   0  0  0  0  0  0  0  0  0  0  0  0
  145.9796  137.5488  163.0457 H   0  0  0  0  0  0  0  0  0  0  0  0
  148.0168  137.3754  161.6873 H   0  0  0  0  0  0  0  0  0  0  0  0
  147.6923  135.6904  163.6620 H   0  0  0  0  0  0  0  0  0  0  0  0
  148.6296  134.9074  162.3703 H   0  0  0  0  0  0  0  0  0  0  0  0
  1  2  1  0  0  0  0
  1 21  1  0  0  0  0
  1 22  1  0  0  0  0
  1 23  1  0  0  0  0
  2  7  1  0  0  0  0
  2  3  2  0  0  0  0
  3  4  1  0  0  0  0
  4  5  1  0  0  0  0
  5  6  1  0  0  0  0
  5  7  2  0  0  0  0
  7  8  1  0  0  0  0
  8  9  1  0  0  0  0
  8 24  1  0  0  0  0
  8 25  1  0  0  0  0
  9 10  2  0  0  0  0
  9 11  1  0  0  0  0
 11 12  1  0  0  0  0
 11 26  1  0  0  0  0
 12 13  1  0  0  0  0
 12 14  1  0  0  0  0
 12 27  1  0  0  0  0
 13 28  1  0  0  0  0
 13 29  1  0  0  0  0
 13 30  1  0  0  0  0
 14 19  1  0  0  0  0
 14 15  1  0  0  0  0
 14 31  1  0  0  0  0
 15 16  1  0  0  0  0
 15 32  1  0  0  0  0
 15 33  1  0  0  0  0
 16 20  1  0  0  0  0
 16 17  1  0  0  0  0
 16 34  1  0  0  0  0
 17 18  1  0  0  0  0
 17 35  1  0  0  0  0
 17 36  1  0  0  0  0
 18 19  1  0  0  0  0
 18 37  1  0  0  0  0
 18 38  1  0  0  0  0
 19 20  1  0  0  0  0
 19 39  1  0  0  0  0
 20 40  1  0  0  0  0
 20 41  1  0  0  0  0
M  END
> <s_m_source_file>
AV-unprocessed.smi

> <i_m_source_file_index>
1686

> <i_lp_mmshare_version>
43012

> <i_f3d_flags>
0

> <s_epik_input>
W0NIM11jMW5vYyhDbCljMVtDSDJdQyg9TylbTkhdW0NASF0oW0NIM10pW0NASF0oW0NIMl1bQ0BIXTIzKVtDQEhdKFtDSDJdMylbQ0gyXVtDSDJdMg==

> <s_epik_cmdline>
J2VwaWtfcHl0aG9uJywgJy1waCcsICc3LjAnLCAnLXRuJywgJzgnLCAnLW1hJywgJzIwMCcsICctbWV0YWxfYmluZGluZycsICctaW1hZScsICc8aW5maWxlLm1hZT4nLCAnLW9tYWUnLCAnPG91dGZpbGUubWFlPic=

> <r_lp_tautomer_probability>
1

> <r_epik_Ionization_Penalty>
2.01576e-08

> <r_epik_Ionization_Penalty_Charging>
0

> <r_epik_Ionization_Penalty_Neutral>
2.01576e-08

> <r_epik_State_Penalty>
-0

> <r_epik_Charging_Adjusted_Penalty>
0

> <i_epik_Tot_Q>
0

> <i_epik_Tot_abs_Q>
0

> <r_epik_Metal_State_Penalty>
-0

> <b_epik_Metal_Only>
0

> <s_lp_Force_Field>
OPLS_2005

> <r_lp_Energy>
45.33

> <b_lp_Chiralities_Consistent>
1

> <s_lp_Variant>
AV-unprocessed.smi:1686-3

> <Gold.Version>
5.8.1

> <Gold.Id.Protein>
6NUR|6NUR_protein|mol2

> <Gold.PLP.Fitness>
40.2791

> <Gold.PLP.PLP>
-32.3930

> <Gold.PLP.part.hbond>
-3.0000

> <Gold.PLP.part.metal>
0.0000

> <Gold.PLP.part.buried>
-5.7002

> <Gold.PLP.part.nonpolar>
-23.9966

> <Gold.PLP.part.repulsive>
0.2077

> <Gold.PLP.ligand.clash>
0.0000

> <Gold.PLP.ligand.torsion>
0.5303

> <Gold.PLP.Chemscore.Hbond>
2.9760

> <Gold.PLP.Chemscore.CHOScore>
0.0000

> <Gold.PLP.Chemscore.Metal>
0.0000

> <Gold.Chemscore.Hbonds>
donor molecule, donor type, donor heavy atom, donor atom, acceptor molecule, acceptor atom, score
      P1  H  6896  6908       L1    10  0.99
      P1  H  7989  7998       L1     4  1.00
      P1  H  7997  8008       L1     3  1.00

> <Gold.PLP.Chemscore.Internal.Correction>
0.0186

> <Gold.Rescore>
     Score         DG    S(hbond)    S(metal)    S(lipo)     H(rot)  DE(clash)    DE(int)     intcor
     18.28     -19.94       2.50        0.00      84.24       1.46       0.01       1.65       ----

> <Gold.Chemscore.Fitness>
18.2816

> <Gold.Chemscore.DG>
-19.9361

> <Gold.Chemscore.ZeroCoef>
-5.4800

> <Gold.Chemscore.Hbond>
2.4998

> <Gold.Chemscore.Metal>
0.0000

> <Gold.Chemscore.Lipo>
84.2450

> <Gold.Chemscore.Internal_Hbond>
0.0000

> <Gold.Chemscore.DEClash>
0.0089

> <Gold.Chemscore.DEInternal>
1.6457

> <Gold.Chemscore.Rot>
1.4648

> <Gold.Chemscore.Internal.Correction>
   9.000000E+99

> <Gold.Chemscore.Hbonds>
donor molecule, donor type, donor heavy atom, donor atom, acceptor molecule, acceptor atom, score
      P1  H  6896  6908       L1    10  0.87
      P1  H  7989  7998       L1     4  0.93
      P1  H  7997  8008       L1     3  0.39

> <Gold.Chemscore.Hbond.Weighted>
-8.3494

> <Gold.Chemscore.Metal.Weighted>
-0.0000

> <Gold.Chemscore.Lipo.Weighted>
-9.8567

> <Gold.Chemscore.Internal_Hbond.Weighted>
0.0000

> <Gold.Chemscore.DEClash.Weighted>
0.0089

> <Gold.Chemscore.DEInternal.Weighted>
1.6457

> <Gold.Chemscore.Rot.Weighted>
3.7500

> <Gold.Chemscore.Internal.Correction.Weighted>
   9.000000E+99

> <Gold.Protein.RotatedTorsions>
[ 6907 6896 6895 6894 ] final -142.27 input  -60.11 | X-H torsion
[ 7974 7965 7964 7962 ] final  132.97 input  175.53 | X-H torsion
[ 8008 7997 7996 7995 ] final  -27.47 input   59.86 | X-H torsion
[ 10167 10162 10161 10158 ] final -113.17 input  -65.29 | X-H torsion
[ 10718 10713 10712 10709 ] final  -13.71 input   66.30 | X-H torsion
[ 10763 10752 10751 10750 ] final  -20.33 input  -60.55 | X-H torsion
[ 11005 11000 10999 10996 ] final  -61.98 input  -57.11 | X-H torsion

> <Gold.Protein.ActiveResidues>
 VAL166  LYS551  ARG553  GLY616  TRP617  ASP618  TYR619  PRO620  LYS621  CYS622 
 ASP623  PHE694  ASN695  SER759  ASP760  ASP761  ALA762  ILE779  LEU786  VAL792 
 PHE793  MET794  SER795  GLU796  ALA797  LYS798  CYS799  TRP800  GLU811  SER814 

> <Gold.Protein.RotatedAtoms>
  151.0849  133.5361  159.2618 H   0  0  0  0  0  0  0  0  0  0  0  0  # atno 6907 bound_to 6896
  151.2250  135.0532  159.8975 H   0  0  0  0  0  0  0  0  0  0  0  0  # atno 6908 bound_to 6896
  152.5428  134.0646  159.8221 H   0  0  0  0  0  0  0  0  0  0  0  0  # atno 6909 bound_to 6896
  144.9913  139.4404  143.5338 H   0  0  0  0  0  0  0  0  0  0  0  0  # atno 7974 bound_to 7965
  154.4376  140.1871  156.0936 H   0  0  0  0  0  0  0  0  0  0  0  0  # atno 8008 bound_to 7997
  156.0346  140.3326  155.7151 H   0  0  0  0  0  0  0  0  0  0  0  0  # atno 8009 bound_to 7997
  155.5789  140.0620  157.2779 H   0  0  0  0  0  0  0  0  0  0  0  0  # atno 8010 bound_to 7997
  140.1148  143.4495  152.1729 H   0  0  0  0  0  0  0  0  0  0  0  0  # atno 10167 bound_to 10162
  156.6264  130.4889  149.6145 H   0  0  0  0  0  0  0  0  0  0  0  0  # atno 10718 bound_to 10713
  153.6188  135.6993  153.5318 H   0  0  0  0  0  0  0  0  0  0  0  0  # atno 10763 bound_to 10752
  153.2955  135.4144  155.1205 H   0  0  0  0  0  0  0  0  0  0  0  0  # atno 10764 bound_to 10752
  154.8548  135.3636  154.5728 H   0  0  0  0  0  0  0  0  0  0  0  0  # atno 10765 bound_to 10752
  141.1343  133.6635  156.5457 H   0  0  0  0  0  0  0  0  0  0  0  0  # atno 11005 bound_to 11000
  146.3432  139.9246  142.8762 LP  0  0  0  0  0  0  0  0  0  0  0  0  # atno 17320 bound_to 7965
  145.2282  140.9962  143.4006 LP  0  0  0  0  0  0  0  0  0  0  0  0  # atno 17321 bound_to 7965
  139.5600  144.7399  151.4183 LP  0  0  0  0  0  0  0  0  0  0  0  0  # atno 17342 bound_to 10162
  140.6905  143.7872  150.7249 LP  0  0  0  0  0  0  0  0  0  0  0  0  # atno 17343 bound_to 10162
  156.2270  130.6772  151.1426 LP  0  0  0  0  0  0  0  0  0  0  0  0  # atno 17370 bound_to 10713
  157.7213  131.0679  150.6124 LP  0  0  0  0  0  0  0  0  0  0  0  0  # atno 17371 bound_to 10713
  140.4104  134.7277  157.4832 LP  0  0  0  0  0  0  0  0  0  0  0  0  # atno 17394 bound_to 11000
  140.0431  134.6238  155.8955 LP  0  0  0  0  0  0  0  0  0  0  0  0  # atno 17395 bound_to 11000

$$$$
