AV-unprocessed.smi:2493|AV-procd|sdf|9820|dock4
  -GOLD-   2272013453D 1   1.00000     0.00000
 Structure written by MMmdl.
 41 42  0  0  0  0  0  0  0  0  1 V2000
  151.6495  144.7973  158.1970 C   0  0  0  0  0  0  0  0  0  0  0  0
  151.2861  143.5950  159.0994 C   0  0  0  0  0  0  0  0  0  0  0  0
  149.9758  142.9373  158.5796 C   0  0  0  0  0  0  0  0  0  0  0  0
  149.9649  142.7098  157.1349 N   0  0  0  0  0  0  0  0  0  0  0  0
  149.9871  141.5126  156.5275 C   0  0  0  0  0  0  0  0  0  0  0  0
  150.0342  140.4418  157.1330 O   0  0  0  0  0  0  0  0  0  0  0  0
  149.9587  141.5252  154.9990 C   0  0  0  0  0  0  0  0  0  0  0  0
  148.8153  140.6864  154.4946 C   0  0  0  0  0  0  0  0  0  0  0  0
  147.7297  141.0926  153.6626 C   0  0  0  0  0  0  0  0  0  0  0  0
  146.9855  139.9582  153.5072 C   0  0  0  0  0  0  0  0  0  0  0  0
  147.6235  138.9710  154.2201 N   0  0  0  0  0  0  0  0  0  0  0  0
  148.7423  139.4046  154.8304 N   0  0  0  0  0  0  0  0  0  0  0  0
  152.4367  142.5575  158.9802 C   0  0  0  0  0  0  0  0  0  0  0  0
  152.5441  141.5164  160.1103 C   0  0  0  0  0  0  0  0  0  0  0  0
  153.4297  141.9917  161.2749 C   0  0  0  0  0  0  0  0  0  0  0  0
  152.7985  143.0792  162.1557 C   0  0  0  0  0  0  0  0  0  0  0  0
  152.3402  144.3356  161.3952 C   0  0  0  0  0  0  0  0  0  0  0  0
  151.0712  144.0980  160.5552 C   0  0  0  0  0  0  0  0  0  0  0  0
  147.3118  138.0133  154.2993 H   0  0  0  0  0  0  0  0  0  0  0  0
  151.7546  144.4915  157.1553 H   0  0  0  0  0  0  0  0  0  0  0  0
  152.5917  145.2556  158.4978 H   0  0  0  0  0  0  0  0  0  0  0  0
  150.8929  145.5810  158.2317 H   0  0  0  0  0  0  0  0  0  0  0  0
  149.7803  142.0041  159.1110 H   0  0  0  0  0  0  0  0  0  0  0  0
  149.1247  143.5810  158.8021 H   0  0  0  0  0  0  0  0  0  0  0  0
  149.9248  143.5312  156.5489 H   0  0  0  0  0  0  0  0  0  0  0  0
  149.8796  142.5531  154.6414 H   0  0  0  0  0  0  0  0  0  0  0  0
  150.9058  141.1396  154.6199 H   0  0  0  0  0  0  0  0  0  0  0  0
  147.5323  142.0681  153.2434 H   0  0  0  0  0  0  0  0  0  0  0  0
  146.0725  139.7749  152.9601 H   0  0  0  0  0  0  0  0  0  0  0  0
  152.3321  142.0287  158.0319 H   0  0  0  0  0  0  0  0  0  0  0  0
  153.3962  143.0696  158.8958 H   0  0  0  0  0  0  0  0  0  0  0  0
  151.5613  141.2060  160.4658 H   0  0  0  0  0  0  0  0  0  0  0  0
  153.0043  140.6188  159.6955 H   0  0  0  0  0  0  0  0  0  0  0  0
  153.6651  141.1351  161.9074 H   0  0  0  0  0  0  0  0  0  0  0  0
  154.3877  142.3430  160.8890 H   0  0  0  0  0  0  0  0  0  0  0  0
  151.9596  142.6590  162.7116 H   0  0  0  0  0  0  0  0  0  0  0  0
  153.5303  143.3744  162.9083 H   0  0  0  0  0  0  0  0  0  0  0  0
  152.1102  145.1001  162.1380 H   0  0  0  0  0  0  0  0  0  0  0  0
  153.1492  144.7463  160.7911 H   0  0  0  0  0  0  0  0  0  0  0  0
  150.5052  145.0300  160.5227 H   0  0  0  0  0  0  0  0  0  0  0  0
  150.4242  143.4054  161.0956 H   0  0  0  0  0  0  0  0  0  0  0  0
  1  2  1  0  0  0  0
  1 20  1  0  0  0  0
  1 21  1  0  0  0  0
  1 22  1  0  0  0  0
  2 18  1  0  0  0  0
  2  3  1  0  0  0  0
  2 13  1  0  0  0  0
  3  4  1  0  0  0  0
  3 23  1  0  0  0  0
  3 24  1  0  0  0  0
  4  5  1  0  0  0  0
  4 25  1  0  0  0  0
  5  6  2  0  0  0  0
  5  7  1  0  0  0  0
  7 26  1  0  0  0  0
  7 27  1  0  0  0  0
  7  8  1  0  0  0  0
  8 12  2  0  0  0  0
  8  9  1  0  0  0  0
  9 10  2  0  0  0  0
  9 28  1  0  0  0  0
 10 11  1  0  0  0  0
 10 29  1  0  0  0  0
 11 12  1  0  0  0  0
 11 19  1  0  0  0  0
 13 14  1  0  0  0  0
 13 30  1  0  0  0  0
 13 31  1  0  0  0  0
 14 15  1  0  0  0  0
 14 32  1  0  0  0  0
 14 33  1  0  0  0  0
 15 16  1  0  0  0  0
 15 34  1  0  0  0  0
 15 35  1  0  0  0  0
 16 17  1  0  0  0  0
 16 36  1  0  0  0  0
 16 37  1  0  0  0  0
 17 18  1  0  0  0  0
 17 38  1  0  0  0  0
 17 39  1  0  0  0  0
 18 40  1  0  0  0  0
 18 41  1  0  0  0  0
M  END
> <s_m_source_file>
AV-unprocessed.smi

> <i_m_source_file_index>
2493

> <i_lp_mmshare_version>
43012

> <i_f3d_flags>
0

> <s_epik_input>
W0NIMl0xW0NIMl1bQ0gyXVtDSDJdW0NIMl1bQ0gyXUMxKFtDSDNdKVtDSDJdW05IXUMoPU8pW0NIMl1jMltjSF1bY0hdbltuSF0y

> <s_epik_cmdline>
J2VwaWtfcHl0aG9uJywgJy1waCcsICc3LjAnLCAnLXRuJywgJzgnLCAnLW1hJywgJzIwMCcsICctbWV0YWxfYmluZGluZycsICctaW1hZScsICc8aW5maWxlLm1hZT4nLCAnLW9tYWUnLCAnPG91dGZpbGUubWFlPic=

> <r_lp_tautomer_probability>
0.5

> <r_epik_Ionization_Penalty>
1.58956e-05

> <r_epik_Ionization_Penalty_Charging>
0

> <r_epik_Ionization_Penalty_Neutral>
1.58956e-05

> <r_epik_State_Penalty>
0.41068

> <r_epik_Charging_Adjusted_Penalty>
0.41068

> <i_epik_Tot_Q>
0

> <i_epik_Tot_abs_Q>
0

> <r_epik_Metal_State_Penalty>
0.410685

> <b_epik_Metal_Only>
0

> <s_lp_Force_Field>
OPLS_2005

> <r_lp_Energy>
20.7964

> <b_lp_Chiralities_Consistent>
1

> <s_lp_Variant>
AV-unprocessed.smi:2493-2

> <Gold.Version>
5.8.1

> <Gold.Id.Protein>
6NUR|6NUR_protein|mol2

> <Gold.PLP.Fitness>
44.9750

> <Gold.PLP.PLP>
-39.4029

> <Gold.PLP.part.hbond>
-1.0000

> <Gold.PLP.part.metal>
0.0000

> <Gold.PLP.part.buried>
-4.6521

> <Gold.PLP.part.nonpolar>
-34.0336

> <Gold.PLP.part.repulsive>
0.1190

> <Gold.PLP.ligand.clash>
0.0000

> <Gold.PLP.ligand.torsion>
0.1674

> <Gold.PLP.Chemscore.Hbond>
0.9600

> <Gold.PLP.Chemscore.CHOScore>
1.0000

> <Gold.PLP.Chemscore.Metal>
0.0000

> <Gold.Chemscore.Hbonds>
donor molecule, donor type, donor heavy atom, donor atom, acceptor molecule, acceptor atom, score
      L1  H     4    25       P1  8028  0.96
      L1  C    10    29       P1 10175  0.99

> <Gold.PLP.Chemscore.Internal.Correction>
0.0269

> <Gold.Rescore>
     Score         DG    S(hbond)    S(metal)    S(lipo)     H(rot)  DE(clash)    DE(int)     intcor
     17.45     -18.90       0.98        0.00     123.00       1.66       0.00       1.44       ----

> <Gold.Chemscore.Fitness>
17.4525

> <Gold.Chemscore.DG>
-18.8983

> <Gold.Chemscore.ZeroCoef>
-5.4800

> <Gold.Chemscore.Hbond>
0.9804

> <Gold.Chemscore.Metal>
0.0000

> <Gold.Chemscore.Lipo>
123.0026

> <Gold.Chemscore.Internal_Hbond>
0.0000

> <Gold.Chemscore.DEClash>
0.0038

> <Gold.Chemscore.DEInternal>
1.4420

> <Gold.Chemscore.Rot>
1.6592

> <Gold.Chemscore.Internal.Correction>
   9.000000E+99

> <Gold.Chemscore.Hbonds>
donor molecule, donor type, donor heavy atom, donor atom, acceptor molecule, acceptor atom, score
      L1  H     4    25       P1  8028  0.92

> <Gold.Chemscore.Hbond.Weighted>
-3.2745

> <Gold.Chemscore.Metal.Weighted>
-0.0000

> <Gold.Chemscore.Lipo.Weighted>
-14.3913

> <Gold.Chemscore.Internal_Hbond.Weighted>
0.0000

> <Gold.Chemscore.DEClash.Weighted>
0.0038

> <Gold.Chemscore.DEInternal.Weighted>
1.4420

> <Gold.Chemscore.Rot.Weighted>
4.2475

> <Gold.Chemscore.Internal.Correction.Weighted>
   9.000000E+99

> <Gold.Protein.RotatedTorsions>
[ 6907 6896 6895 6894 ] final  -20.90 input  -60.11 | X-H torsion
[ 7974 7965 7964 7962 ] final   82.83 input  175.53 | X-H torsion
[ 8008 7997 7996 7995 ] final   43.25 input   59.86 | X-H torsion
[ 10167 10162 10161 10158 ] final   -3.20 input  -65.29 | X-H torsion
[ 10718 10713 10712 10709 ] final   -6.07 input   66.30 | X-H torsion
[ 10763 10752 10751 10750 ] final  124.16 input  -60.55 | X-H torsion
[ 11005 11000 10999 10996 ] final   34.80 input  -57.11 | X-H torsion

> <Gold.Protein.ActiveResidues>
 VAL166  LYS551  ARG553  GLY616  TRP617  ASP618  TYR619  PRO620  LYS621  CYS622 
 ASP623  PHE694  ASN695  SER759  ASP760  ASP761  ALA762  ILE779  LEU786  VAL792 
 PHE793  MET794  SER795  GLU796  ALA797  LYS798  CYS799  TRP800  GLU811  SER814 

> <Gold.Protein.RotatedAtoms>
  151.2413  135.0590  159.9025 H   0  0  0  0  0  0  0  0  0  0  0  0  # atno 6907 bound_to 6896
  152.5392  134.0431  159.8087 H   0  0  0  0  0  0  0  0  0  0  0  0  # atno 6908 bound_to 6896
  151.0625  133.5483  159.2664 H   0  0  0  0  0  0  0  0  0  0  0  0  # atno 6909 bound_to 6896
  145.6199  139.2384  143.2144 H   0  0  0  0  0  0  0  0  0  0  0  0  # atno 7974 bound_to 7965
  155.2995  140.3384  155.4248 H   0  0  0  0  0  0  0  0  0  0  0  0  # atno 8008 bound_to 7997
  156.2008  140.1732  156.7943 H   0  0  0  0  0  0  0  0  0  0  0  0  # atno 8009 bound_to 7997
  154.5556  140.0697  156.8722 H   0  0  0  0  0  0  0  0  0  0  0  0  # atno 8010 bound_to 7997
  140.6881  143.6567  150.8302 H   0  0  0  0  0  0  0  0  0  0  0  0  # atno 10167 bound_to 10162
  156.7372  130.5198  149.5832 H   0  0  0  0  0  0  0  0  0  0  0  0  # atno 10718 bound_to 10713
  153.6570  135.3353  155.3116 H   0  0  0  0  0  0  0  0  0  0  0  0  # atno 10763 bound_to 10752
  154.8524  135.4354  154.1844 H   0  0  0  0  0  0  0  0  0  0  0  0  # atno 10764 bound_to 10752
  153.2801  135.7008  153.7469 H   0  0  0  0  0  0  0  0  0  0  0  0  # atno 10765 bound_to 10752
  140.2491  134.3324  155.7897 H   0  0  0  0  0  0  0  0  0  0  0  0  # atno 11005 bound_to 11000
  146.1439  140.7020  142.9354 LP  0  0  0  0  0  0  0  0  0  0  0  0  # atno 17320 bound_to 7965
  144.7235  140.4450  143.6990 LP  0  0  0  0  0  0  0  0  0  0  0  0  # atno 17321 bound_to 7965
  140.0277  143.5476  152.2774 LP  0  0  0  0  0  0  0  0  0  0  0  0  # atno 17342 bound_to 10162
  139.6257  144.7637  151.2643 LP  0  0  0  0  0  0  0  0  0  0  0  0  # atno 17343 bound_to 10162
  156.1489  130.6296  151.0568 LP  0  0  0  0  0  0  0  0  0  0  0  0  # atno 17370 bound_to 10713
  157.6834  131.0832  150.7309 LP  0  0  0  0  0  0  0  0  0  0  0  0  # atno 17371 bound_to 10713
  141.2203  133.7343  156.9008 LP  0  0  0  0  0  0  0  0  0  0  0  0  # atno 17394 bound_to 11000
  140.1576  134.9188  157.2673 LP  0  0  0  0  0  0  0  0  0  0  0  0  # atno 17395 bound_to 11000

$$$$
