AV-unprocessed.smi:2699|AV-procd|sdf|10423|dock6
  -GOLD-   2272014463D 1   1.00000     0.00000
 Structure written by MMmdl.
 42 44  0  0  0  0  0  0  0  0  2 V2000
  149.9621  130.4585  154.0208 C   0  0  0  0  0  0  0  0  0  0  0  0
  150.4154  131.5771  154.9521 C   0  0  0  0  0  0  0  0  0  0  0  0
  151.1633  131.2989  156.0424 C   0  0  0  0  0  0  0  0  0  0  0  0
  151.6161  132.2989  156.8931 C   0  0  0  0  0  0  0  0  0  0  0  0
  152.3059  132.0466  157.9054 O   0  5  0  0  0  0  0  0  0  0  0  0
  151.2598  133.5959  156.5475 C   0  0  0  0  0  0  0  0  0  0  0  0
  150.4616  133.9589  155.3827 C   0  0  0  0  0  0  0  0  0  0  0  0
  150.1856  135.1303  155.1178 O   0  0  0  0  0  0  0  0  0  0  0  0
  150.0441  132.9081  154.6221 N   0  0  0  0  0  0  0  0  0  0  0  0
  149.1807  133.1782  153.4492 C   0  0  0  0  0  0  0  0  0  0  0  0
  147.7034  132.7905  153.6626 C   0  0  0  0  0  0  0  0  0  0  0  0
  147.3976  131.8846  154.4366 O   0  0  0  0  0  0  0  0  0  0  0  0
  146.7574  133.4694  152.9956 N   0  0  0  0  0  0  0  0  0  0  0  0
  145.3168  133.2472  153.0686 C   0  0  0  0  0  0  0  0  0  0  0  0
  144.5968  133.7475  151.8030 C   0  0  0  0  0  0  0  0  0  0  0  0
  144.5760  132.5927  150.7978 C   0  0  0  0  0  0  0  0  0  0  0  0
  145.6842  132.3842  149.7937 C   0  0  0  0  0  0  0  0  0  0  0  0
  144.2938  132.7611  149.3227 C   0  0  0  0  0  0  0  0  0  0  0  0
  143.2248  134.4049  152.0626 C   0  0  0  0  0  0  0  0  0  0  0  0
  143.9089  135.7695  152.1277 C   0  0  0  0  0  0  0  0  0  0  0  0
  145.0430  135.1486  151.3138 C   0  0  0  0  0  0  0  0  0  0  0  0
  150.5157  129.5412  154.2232 H   0  0  0  0  0  0  0  0  0  0  0  0
  150.1345  130.7023  152.9729 H   0  0  0  0  0  0  0  0  0  0  0  0
  148.9036  130.2432  154.1683 H   0  0  0  0  0  0  0  0  0  0  0  0
  151.4184  130.2703  156.2545 H   0  0  0  0  0  0  0  0  0  0  0  0
  151.5935  134.4057  157.1805 H   0  0  0  0  0  0  0  0  0  0  0  0
  149.2391  134.2211  153.1432 H   0  0  0  0  0  0  0  0  0  0  0  0
  149.5580  132.6391  152.5788 H   0  0  0  0  0  0  0  0  0  0  0  0
  147.0660  134.2066  152.3785 H   0  0  0  0  0  0  0  0  0  0  0  0
  145.1202  132.1845  153.2183 H   0  0  0  0  0  0  0  0  0  0  0  0
  144.9338  133.7563  153.9540 H   0  0  0  0  0  0  0  0  0  0  0  0
  144.1521  131.6835  151.2212 H   0  0  0  0  0  0  0  0  0  0  0  0
  146.4605  133.1439  149.7246 H   0  0  0  0  0  0  0  0  0  0  0  0
  146.0164  131.3626  149.6216 H   0  0  0  0  0  0  0  0  0  0  0  0
  143.7054  131.9858  148.8363 H   0  0  0  0  0  0  0  0  0  0  0  0
  144.1479  133.7625  148.9259 H   0  0  0  0  0  0  0  0  0  0  0  0
  142.5445  134.3241  151.2129 H   0  0  0  0  0  0  0  0  0  0  0  0
  142.7362  134.0979  152.9878 H   0  0  0  0  0  0  0  0  0  0  0  0
  143.3720  136.5742  151.6251 H   0  0  0  0  0  0  0  0  0  0  0  0
  144.2102  136.0501  153.1381 H   0  0  0  0  0  0  0  0  0  0  0  0
  146.0400  135.4515  151.6356 H   0  0  0  0  0  0  0  0  0  0  0  0
  144.9151  135.3189  150.2453 H   0  0  0  0  0  0  0  0  0  0  0  0
  1  2  1  0  0  0  0
  1 22  1  0  0  0  0
  1 23  1  0  0  0  0
  1 24  1  0  0  0  0
  2  9  1  0  0  0  0
  2  3  2  0  0  0  0
  3  4  1  0  0  0  0
  3 25  1  0  0  0  0
  4  5  1  0  0  0  0
  4  6  2  0  0  0  0
  6  7  1  0  0  0  0
  6 26  1  0  0  0  0
  7  8  2  0  0  0  0
  7  9  1  0  0  0  0
  9 10  1  0  0  0  0
 10 11  1  0  0  0  0
 10 27  1  0  0  0  0
 10 28  1  0  0  0  0
 11 12  2  0  0  0  0
 11 13  1  0  0  0  0
 13 14  1  0  0  0  0
 13 29  1  0  0  0  0
 14 15  1  0  0  0  0
 14 30  1  0  0  0  0
 14 31  1  0  0  0  0
 15 21  1  0  0  0  0
 15 16  1  0  0  0  0
 15 19  1  0  0  0  0
 16 18  1  0  0  0  0
 16 17  1  0  0  0  0
 16 32  1  0  0  0  0
 17 18  1  0  0  0  0
 17 33  1  0  0  0  0
 17 34  1  0  0  0  0
 18 35  1  0  0  0  0
 18 36  1  0  0  0  0
 19 20  1  0  0  0  0
 19 37  1  0  0  0  0
 19 38  1  0  0  0  0
 20 21  1  0  0  0  0
 20 39  1  0  0  0  0
 20 40  1  0  0  0  0
 21 41  1  0  0  0  0
 21 42  1  0  0  0  0
M  CHG  1   5  -1
M  END
> <s_m_source_file>
AV-unprocessed.smi

> <i_m_source_file_index>
2699

> <i_lp_mmshare_version>
43012

> <i_f3d_flags>
0

> <s_epik_input>
W0NIM11jMVtjSF1jKFtPSF0pW2NIXWMoPU8pbjFbQ0gyXUMoPU8pW05IXVtDSDJdQzIoW0NIXTNbQ0gyXVtDSDJdMylbQ0gyXVtDSDJdW0NIMl0y

> <s_epik_cmdline>
J2VwaWtfcHl0aG9uJywgJy1waCcsICc3LjAnLCAnLXRuJywgJzgnLCAnLW1hJywgJzIwMCcsICctbWV0YWxfYmluZGluZycsICctaW1hZScsICc8aW5maWxlLm1hZT4nLCAnLW9tYWUnLCAnPG91dGZpbGUubWFlPic=

> <r_lp_tautomer_probability>
1

> <r_epik_Ionization_Penalty>
0.201472

> <r_epik_Ionization_Penalty_Charging>
0.201472

> <r_epik_Ionization_Penalty_Neutral>
1.82775e-08

> <r_epik_State_Penalty>
0.183831

> <r_epik_Charging_Adjusted_Penalty>
0.385303

> <i_epik_Tot_Q>
-1

> <i_epik_Tot_abs_Q>
1

> <r_epik_Metal_State_Penalty>
0.183831

> <b_epik_Metal_Only>
0

> <s_lp_Force_Field>
OPLS_2005

> <r_lp_Energy>
45.0719

> <b_lp_Chiralities_Consistent>
1

> <s_lp_Variant>
AV-unprocessed.smi:2699-1

> <Gold.Version>
5.8.1

> <Gold.Id.Protein>
6NUR|6NUR_protein|mol2

> <Gold.PLP.Fitness>
42.9245

> <Gold.PLP.PLP>
-39.1460

> <Gold.PLP.part.hbond>
-1.0000

> <Gold.PLP.part.metal>
0.0000

> <Gold.PLP.part.buried>
-6.6249

> <Gold.PLP.part.nonpolar>
-32.3049

> <Gold.PLP.part.repulsive>
0.1961

> <Gold.PLP.ligand.clash>
0.0000

> <Gold.PLP.ligand.torsion>
1.9931

> <Gold.PLP.Chemscore.Hbond>
2.0000

> <Gold.PLP.Chemscore.CHOScore>
0.0000

> <Gold.PLP.Chemscore.Metal>
0.0000

> <Gold.Chemscore.Hbonds>
donor molecule, donor type, donor heavy atom, donor atom, acceptor molecule, acceptor atom, score
      P1  H  6896  6908       L1     5  2.00

> <Gold.PLP.Chemscore.Internal.Correction>
1.7646

> <Gold.Rescore>
     Score         DG    S(hbond)    S(metal)    S(lipo)     H(rot)  DE(clash)    DE(int)     intcor
     12.98     -14.85       0.98        0.00      89.42       1.71       0.04       1.83       ----

> <Gold.Chemscore.Fitness>
12.9791

> <Gold.Chemscore.DG>
-14.8524

> <Gold.Chemscore.ZeroCoef>
-5.4800

> <Gold.Chemscore.Hbond>
0.9840

> <Gold.Chemscore.Metal>
0.0000

> <Gold.Chemscore.Lipo>
89.4168

> <Gold.Chemscore.Internal_Hbond>
0.0000

> <Gold.Chemscore.DEClash>
0.0387

> <Gold.Chemscore.DEInternal>
1.8347

> <Gold.Chemscore.Rot>
1.7094

> <Gold.Chemscore.Internal.Correction>
   9.000000E+99

> <Gold.Chemscore.Hbonds>
donor molecule, donor type, donor heavy atom, donor atom, acceptor molecule, acceptor atom, score
      P1  H  6896  6908       L1     5  0.81

> <Gold.Chemscore.Hbond.Weighted>
-3.2867

> <Gold.Chemscore.Metal.Weighted>
-0.0000

> <Gold.Chemscore.Lipo.Weighted>
-10.4618

> <Gold.Chemscore.Internal_Hbond.Weighted>
0.0000

> <Gold.Chemscore.DEClash.Weighted>
0.0387

> <Gold.Chemscore.DEInternal.Weighted>
1.8347

> <Gold.Chemscore.Rot.Weighted>
4.3760

> <Gold.Chemscore.Internal.Correction.Weighted>
   9.000000E+99

> <Gold.Protein.RotatedTorsions>
[ 6907 6896 6895 6894 ] final   41.70 input  -60.11 | X-H torsion
[ 7974 7965 7964 7962 ] final  -64.52 input  175.53 | X-H torsion
[ 8008 7997 7996 7995 ] final -161.18 input   59.86 | X-H torsion
[ 10167 10162 10161 10158 ] final   44.93 input  -65.29 | X-H torsion
[ 10718 10713 10712 10709 ] final    7.52 input   66.30 | X-H torsion
[ 10763 10752 10751 10750 ] final  -21.11 input  -60.55 | X-H torsion
[ 11005 11000 10999 10996 ] final  137.35 input  -57.11 | X-H torsion

> <Gold.Protein.ActiveResidues>
 VAL166  LYS551  ARG553  GLY616  TRP617  ASP618  TYR619  PRO620  LYS621  CYS622 
 ASP623  PHE694  ASN695  SER759  ASP760  ASP761  ALA762  ILE779  LEU786  VAL792 
 PHE793  MET794  SER795  GLU796  ALA797  LYS798  CYS799  TRP800  GLU811  SER814 

> <Gold.Protein.RotatedAtoms>
  152.1985  134.8609  160.0510 H   0  0  0  0  0  0  0  0  0  0  0  0  # atno 6907 bound_to 6896
  151.9471  133.3650  159.3994 H   0  0  0  0  0  0  0  0  0  0  0  0  # atno 6908 bound_to 6896
  150.6950  134.4303  159.5289 H   0  0  0  0  0  0  0  0  0  0  0  0  # atno 6909 bound_to 6896
  145.7657  140.8839  143.0406 H   0  0  0  0  0  0  0  0  0  0  0  0  # atno 7974 bound_to 7965
  155.7884  140.0875  157.2022 H   0  0  0  0  0  0  0  0  0  0  0  0  # atno 8008 bound_to 7997
  154.3986  140.1494  156.3192 H   0  0  0  0  0  0  0  0  0  0  0  0  # atno 8009 bound_to 7997
  155.8583  140.3431  155.5742 H   0  0  0  0  0  0  0  0  0  0  0  0  # atno 8010 bound_to 7997
  140.3293  144.2608  150.6170 H   0  0  0  0  0  0  0  0  0  0  0  0  # atno 10167 bound_to 10162
  156.9382  130.5851  149.5651 H   0  0  0  0  0  0  0  0  0  0  0  0  # atno 10718 bound_to 10713
  153.6310  135.6989  153.5275 H   0  0  0  0  0  0  0  0  0  0  0  0  # atno 10763 bound_to 10752
  153.2859  135.4171  155.1122 H   0  0  0  0  0  0  0  0  0  0  0  0  # atno 10764 bound_to 10752
  154.8522  135.3613  154.5853 H   0  0  0  0  0  0  0  0  0  0  0  0  # atno 10765 bound_to 10752
  140.0108  134.9439  157.0274 H   0  0  0  0  0  0  0  0  0  0  0  0  # atno 11005 bound_to 11000
  144.6822  139.9785  143.7483 LP  0  0  0  0  0  0  0  0  0  0  0  0  # atno 17320 bound_to 7965
  146.0220  139.3259  143.0807 LP  0  0  0  0  0  0  0  0  0  0  0  0  # atno 17321 bound_to 7965
  140.5411  143.2223  151.8082 LP  0  0  0  0  0  0  0  0  0  0  0  0  # atno 17342 bound_to 10162
  139.4859  144.4598  151.9554 LP  0  0  0  0  0  0  0  0  0  0  0  0  # atno 17343 bound_to 10162
  156.0416  130.5498  150.8785 LP  0  0  0  0  0  0  0  0  0  0  0  0  # atno 17370 bound_to 10713
  157.5802  131.0946  150.9282 LP  0  0  0  0  0  0  0  0  0  0  0  0  # atno 17371 bound_to 10713
  140.4558  134.1535  155.7186 LP  0  0  0  0  0  0  0  0  0  0  0  0  # atno 17394 bound_to 11000
  141.1709  133.8609  157.1572 LP  0  0  0  0  0  0  0  0  0  0  0  0  # atno 17395 bound_to 11000

$$$$
