AV-unprocessed.smi:2782|AV-procd|sdf|10721|dock7
  -GOLD-   2272015163D 1   1.00000     0.00000
 Structure written by MMmdl.
 38 39  0  0  0  0  0  0  0  0  1 V2000
  151.6619  144.9102  159.3216 C   0  0  0  0  0  0  0  0  0  0  0  0
  152.2169  143.5109  159.4915 C   0  0  0  0  0  0  0  0  0  0  0  0
  152.9722  143.1784  160.6332 C   0  0  0  0  0  0  0  0  0  0  0  0
  153.4821  141.8760  160.7819 C   0  0  0  0  0  0  0  0  0  0  0  0
  153.2392  140.9028  159.7931 C   0  0  0  0  0  0  0  0  0  0  0  0
  153.8755  139.3104  160.0019 Cl  0  0  0  0  0  0  0  0  0  0  0  0
  152.4846  141.2207  158.6420 C   0  0  0  0  0  0  0  0  0  0  0  0
  152.2872  140.2165  157.7177 O   0  0  0  0  0  0  0  0  0  0  0  0
  151.4822  140.4887  156.5770 C   0  0  0  0  0  0  0  0  0  0  0  0
  151.6460  139.3628  155.5417 C   0  0  2  0  0  0  0  0  0  0  0  0
  152.8949  139.5381  154.9029 O   0  0  0  0  0  0  0  0  0  0  0  0
  150.5085  139.3302  154.4975 C   0  0  0  0  0  0  0  0  0  0  0  0
  149.1941  139.5690  155.1049 N   0  0  0  0  0  0  0  0  0  0  0  0
  148.8014  138.5886  156.0001 N   0  0  0  0  0  0  0  0  0  0  0  0
  147.6666  138.6631  156.6151 C   0  0  0  0  0  0  0  0  0  0  0  0
  147.3190  137.5584  157.5685 C   0  0  0  0  0  0  0  0  0  0  0  0
  146.7902  139.7910  156.3623 C   0  0  0  0  0  0  0  0  0  0  0  0
  147.1774  140.7472  155.4910 C   0  0  0  0  0  0  0  0  0  0  0  0
  148.4592  140.6768  154.7927 C   0  0  0  0  0  0  0  0  0  0  0  0
  148.8449  141.5364  154.0007 O   0  0  0  0  0  0  0  0  0  0  0  0
  151.9766  142.5372  158.5006 C   0  0  0  0  0  0  0  0  0  0  0  0
  151.8490  145.5234  160.2037 H   0  0  0  0  0  0  0  0  0  0  0  0
  150.5846  144.8731  159.1564 H   0  0  0  0  0  0  0  0  0  0  0  0
  152.1248  145.3973  158.4631 H   0  0  0  0  0  0  0  0  0  0  0  0
  153.1634  143.9178  161.3971 H   0  0  0  0  0  0  0  0  0  0  0  0
  154.0608  141.6231  161.6581 H   0  0  0  0  0  0  0  0  0  0  0  0
  150.4323  140.6038  156.8517 H   0  0  0  0  0  0  0  0  0  0  0  0
  151.8122  141.4268  156.1276 H   0  0  0  0  0  0  0  0  0  0  0  0
  151.6896  138.4172  156.0833 H   0  0  0  0  0  0  0  0  0  0  0  0
  152.8480  139.1472  154.0439 H   0  0  0  0  0  0  0  0  0  0  0  0
  150.6873  140.0932  153.7374 H   0  0  0  0  0  0  0  0  0  0  0  0
  150.5181  138.3841  153.9524 H   0  0  0  0  0  0  0  0  0  0  0  0
  146.3929  137.7745  158.1017 H   0  0  0  0  0  0  0  0  0  0  0  0
  148.1064  137.4216  158.3106 H   0  0  0  0  0  0  0  0  0  0  0  0
  147.1869  136.6157  157.0368 H   0  0  0  0  0  0  0  0  0  0  0  0
  145.8395  139.8578  156.8702 H   0  0  0  0  0  0  0  0  0  0  0  0
  146.5244  141.5870  155.3037 H   0  0  0  0  0  0  0  0  0  0  0  0
  151.3962  142.8247  157.6371 H   0  0  0  0  0  0  0  0  0  0  0  0
  1  2  1  0  0  0  0
  1 22  1  0  0  0  0
  1 23  1  0  0  0  0
  1 24  1  0  0  0  0
  2 21  1  0  0  0  0
  2  3  2  0  0  0  0
  3  4  1  0  0  0  0
  3 25  1  0  0  0  0
  4  5  2  0  0  0  0
  4 26  1  0  0  0  0
  5  6  1  0  0  0  0
  5  7  1  0  0  0  0
  7  8  1  0  0  0  0
  7 21  2  0  0  0  0
  8  9  1  0  0  0  0
  9 10  1  0  0  0  0
  9 27  1  0  0  0  0
  9 28  1  0  0  0  0
 10 11  1  0  0  0  0
 10 12  1  0  0  0  0
 10 29  1  0  0  0  0
 11 30  1  0  0  0  0
 12 13  1  0  0  0  0
 12 31  1  0  0  0  0
 12 32  1  0  0  0  0
 13 19  1  0  0  0  0
 13 14  1  0  0  0  0
 14 15  2  0  0  0  0
 15 16  1  0  0  0  0
 15 17  1  0  0  0  0
 16 33  1  0  0  0  0
 16 34  1  0  0  0  0
 16 35  1  0  0  0  0
 17 18  2  0  0  0  0
 17 36  1  0  0  0  0
 18 19  1  0  0  0  0
 18 37  1  0  0  0  0
 19 20  2  0  0  0  0
 21 38  1  0  0  0  0
M  END
> <s_m_source_file>
AV-unprocessed.smi

> <i_m_source_file_index>
2782

> <i_lp_mmshare_version>
43012

> <i_f3d_flags>
0

> <s_epik_input>
W0NIM11jMVtjSF1bY0hdYyhDbCljKFtjSF0xKU9bQ0gyXVtDQEhdKFtPSF0pW0NIMl1uMm5jKFtDSDNdKVtjSF1bY0hdYzI9Tw==

> <s_epik_cmdline>
J2VwaWtfcHl0aG9uJywgJy1waCcsICc3LjAnLCAnLXRuJywgJzgnLCAnLW1hJywgJzIwMCcsICctbWV0YWxfYmluZGluZycsICctaW1hZScsICc8aW5maWxlLm1hZT4nLCAnLW9tYWUnLCAnPG91dGZpbGUubWFlPic=

> <r_lp_tautomer_probability>
1

> <r_epik_Ionization_Penalty>
2.96353e-07

> <r_epik_Ionization_Penalty_Charging>
1.79179e-07

> <r_epik_Ionization_Penalty_Neutral>
1.17174e-07

> <r_epik_State_Penalty>
-0

> <r_epik_Charging_Adjusted_Penalty>
1.79179e-07

> <i_epik_Tot_Q>
0

> <i_epik_Tot_abs_Q>
0

> <r_epik_Metal_State_Penalty>
-0

> <b_epik_Metal_Only>
0

> <s_lp_Force_Field>
OPLS_2005

> <r_lp_Energy>
32.0669

> <b_lp_Chiralities_Consistent>
1

> <s_lp_Variant>
AV-unprocessed.smi:2782-1

> <Gold.Version>
5.8.1

> <Gold.Id.Protein>
6NUR|6NUR_protein|mol2

> <Gold.PLP.Fitness>
46.5723

> <Gold.PLP.PLP>
-42.2837

> <Gold.PLP.part.hbond>
-3.8788

> <Gold.PLP.part.metal>
0.0000

> <Gold.PLP.part.buried>
-3.4241

> <Gold.PLP.part.nonpolar>
-34.0058

> <Gold.PLP.part.repulsive>
0.3703

> <Gold.PLP.ligand.clash>
0.0000

> <Gold.PLP.ligand.torsion>
0.3631

> <Gold.PLP.Chemscore.Hbond>
1.6560

> <Gold.PLP.Chemscore.CHOScore>
0.0000

> <Gold.PLP.Chemscore.Metal>
0.0000

> <Gold.Chemscore.Hbonds>
donor molecule, donor type, donor heavy atom, donor atom, acceptor molecule, acceptor atom, score
      P1  H  7997  8010       L1    11  1.00
      P1  H  8011  8017       L1    20  0.53

> <Gold.PLP.Chemscore.Internal.Correction>
0.0468

> <Gold.Rescore>
     Score         DG    S(hbond)    S(metal)    S(lipo)     H(rot)  DE(clash)    DE(int)     intcor
     18.24     -18.95       1.76        0.00     113.32       2.22       0.45       0.25       ----

> <Gold.Chemscore.Fitness>
18.2447

> <Gold.Chemscore.DG>
-18.9481

> <Gold.Chemscore.ZeroCoef>
-5.4800

> <Gold.Chemscore.Hbond>
1.7642

> <Gold.Chemscore.Metal>
0.0000

> <Gold.Chemscore.Lipo>
113.3194

> <Gold.Chemscore.Internal_Hbond>
0.0000

> <Gold.Chemscore.DEClash>
0.4512

> <Gold.Chemscore.DEInternal>
0.2522

> <Gold.Chemscore.Rot>
2.2199

> <Gold.Chemscore.Internal.Correction>
   9.000000E+99

> <Gold.Chemscore.Hbonds>
donor molecule, donor type, donor heavy atom, donor atom, acceptor molecule, acceptor atom, score
      P1  H  7997  8010       L1    11  0.82
      P1  H  8011  8017       L1    20  0.52

> <Gold.Chemscore.Hbond.Weighted>
-5.8926

> <Gold.Chemscore.Metal.Weighted>
-0.0000

> <Gold.Chemscore.Lipo.Weighted>
-13.2584

> <Gold.Chemscore.Internal_Hbond.Weighted>
0.0000

> <Gold.Chemscore.DEClash.Weighted>
0.4512

> <Gold.Chemscore.DEInternal.Weighted>
0.2522

> <Gold.Chemscore.Rot.Weighted>
5.6829

> <Gold.Chemscore.Internal.Correction.Weighted>
   9.000000E+99

> <Gold.Protein.RotatedTorsions>
[ 6907 6896 6895 6894 ] final -118.41 input  -60.11 | X-H torsion
[ 7974 7965 7964 7962 ] final  -57.40 input  175.53 | X-H torsion
[ 8008 7997 7996 7995 ] final   86.42 input   59.86 | X-H torsion
[ 10167 10162 10161 10158 ] final  102.05 input  -65.29 | X-H torsion
[ 10718 10713 10712 10709 ] final  143.24 input   66.30 | X-H torsion
[ 10763 10752 10751 10750 ] final   77.42 input  -60.55 | X-H torsion
[ 11005 11000 10999 10996 ] final   28.82 input  -57.11 | X-H torsion

> <Gold.Protein.ActiveResidues>
 VAL166  LYS551  ARG553  GLY616  TRP617  ASP618  TYR619  PRO620  LYS621  CYS622 
 ASP623  PHE694  ASN695  SER759  ASP760  ASP761  ALA762  ILE779  LEU786  VAL792 
 PHE793  MET794  SER795  GLU796  ALA797  LYS798  CYS799  TRP800  GLU811  SER814 

> <Gold.Protein.RotatedAtoms>
  150.8218  133.8240  159.3135 H   0  0  0  0  0  0  0  0  0  0  0  0  # atno 6907 bound_to 6896
  151.5996  135.1046  160.0067 H   0  0  0  0  0  0  0  0  0  0  0  0  # atno 6908 bound_to 6896
  152.4306  133.7230  159.6600 H   0  0  0  0  0  0  0  0  0  0  0  0  # atno 6909 bound_to 6896
  145.8515  140.8349  142.9983 H   0  0  0  0  0  0  0  0  0  0  0  0  # atno 7974 bound_to 7965
  155.9625  140.3392  155.6503 H   0  0  0  0  0  0  0  0  0  0  0  0  # atno 8008 bound_to 7997
  155.6780  140.0734  157.2514 H   0  0  0  0  0  0  0  0  0  0  0  0  # atno 8009 bound_to 7997
  154.4146  140.1679  156.1938 H   0  0  0  0  0  0  0  0  0  0  0  0  # atno 8010 bound_to 7997
  139.7384  144.7018  151.0613 H   0  0  0  0  0  0  0  0  0  0  0  0  # atno 10167 bound_to 10162
  157.3713  131.0979  151.0826 H   0  0  0  0  0  0  0  0  0  0  0  0  # atno 10718 bound_to 10713
  153.0797  135.4915  154.8478 H   0  0  0  0  0  0  0  0  0  0  0  0  # atno 10763 bound_to 10752
  154.7135  135.3024  154.9163 H   0  0  0  0  0  0  0  0  0  0  0  0  # atno 10764 bound_to 10752
  153.9849  135.6785  153.4804 H   0  0  0  0  0  0  0  0  0  0  0  0  # atno 10765 bound_to 10752
  140.3115  134.2644  155.7733 H   0  0  0  0  0  0  0  0  0  0  0  0  # atno 11005 bound_to 11000
  144.6729  140.0961  143.7463 LP  0  0  0  0  0  0  0  0  0  0  0  0  # atno 17320 bound_to 7965
  145.9352  139.2632  143.1301 LP  0  0  0  0  0  0  0  0  0  0  0  0  # atno 17321 bound_to 7965
  140.7782  143.4955  150.9838 LP  0  0  0  0  0  0  0  0  0  0  0  0  # atno 17342 bound_to 10162
  139.8643  143.7274  152.3171 LP  0  0  0  0  0  0  0  0  0  0  0  0  # atno 17343 bound_to 10162
  157.1929  130.6360  149.5711 LP  0  0  0  0  0  0  0  0  0  0  0  0  # atno 17370 bound_to 10713
  155.9756  130.4716  150.6471 LP  0  0  0  0  0  0  0  0  0  0  0  0  # atno 17371 bound_to 10713
  141.2107  133.7712  156.9915 LP  0  0  0  0  0  0  0  0  0  0  0  0  # atno 17394 bound_to 11000
  140.1020  134.9529  157.1937 LP  0  0  0  0  0  0  0  0  0  0  0  0  # atno 17395 bound_to 11000

$$$$
