AV-unprocessed.smi:1762|AV-procd|sdf|7123|dock8
  -GOLD-   22720 8353D 1   1.00000     0.00000
 Structure written by MMmdl.
 52 53  0  0  0  0  0  0  0  0  3 V2000
  148.0186  136.0559  161.3955 C   0  0  0  0  0  0  0  0  0  0  0  0
  147.9341  136.3985  159.9040 C   0  0  2  0  0  0  0  0  0  0  0  0
  149.2268  137.0578  159.3869 C   0  0  0  0  0  0  0  0  0  0  0  0
  149.0968  137.4472  157.9554 N   0  3  2  0  0  0  0  0  0  0  0  0
  150.3282  138.0569  157.3478 C   0  0  2  0  0  0  0  0  0  0  0  0
  150.5797  139.4736  157.9205 C   0  0  0  0  0  0  0  0  0  0  0  0
  149.8397  140.3953  157.5584 O   0  0  0  0  0  0  0  0  0  0  0  0
  151.6213  139.4764  158.7963 N   0  5  0  0  0  0  0  0  0  0  0  0
  152.7787  140.3619  158.6823 C   0  0  0  0  0  0  0  0  0  0  0  0
  152.8547  141.3092  159.9024 C   0  0  0  0  0  0  0  0  0  0  0  0
  152.3012  142.7141  159.6702 C   0  0  0  0  0  0  0  0  0  0  0  0
  152.3103  143.6707  160.7110 C   0  0  0  0  0  0  0  0  0  0  0  0
  151.7891  144.9532  160.4553 C   0  0  0  0  0  0  0  0  0  0  0  0
  151.2696  145.2315  159.1772 C   0  0  0  0  0  0  0  0  0  0  0  0
  151.2923  144.2090  158.2083 C   0  0  0  0  0  0  0  0  0  0  0  0
  151.7899  142.9759  158.4422 N   0  0  0  0  0  0  0  0  0  0  0  0
  150.3425  138.0746  155.7802 C   0  0  0  0  0  0  0  0  0  0  0  0
  150.2526  136.6667  155.1600 C   0  0  0  0  0  0  0  0  0  0  0  0
  151.5241  138.8507  155.1616 C   0  0  0  0  0  0  0  0  0  0  0  0
  147.8834  138.2994  157.7936 C   0  0  0  0  0  0  0  0  0  0  0  0
  146.6312  137.5967  158.3466 C   0  0  2  0  0  0  0  0  0  0  0  0
  145.3816  138.4784  158.2443 C   0  0  0  0  0  0  0  0  0  0  0  0
  146.8429  137.2891  159.7176 O   0  0  0  0  0  0  0  0  0  0  0  0
  148.8358  135.3622  161.5943 H   0  0  0  0  0  0  0  0  0  0  0  0
  147.0959  135.5888  161.7406 H   0  0  0  0  0  0  0  0  0  0  0  0
  148.1844  136.9497  161.9974 H   0  0  0  0  0  0  0  0  0  0  0  0
  147.7455  135.4778  159.3489 H   0  0  0  0  0  0  0  0  0  0  0  0
  149.4703  137.9396  159.9818 H   0  0  0  0  0  0  0  0  0  0  0  0
  150.0312  136.3390  159.5289 H   0  0  0  0  0  0  0  0  0  0  0  0
  151.1495  137.4006  157.6473 H   0  0  0  0  0  0  0  0  0  0  0  0
  153.7193  139.8146  158.6016 H   0  0  0  0  0  0  0  0  0  0  0  0
  152.7127  140.9665  157.7772 H   0  0  0  0  0  0  0  0  0  0  0  0
  152.3033  140.8613  160.7301 H   0  0  0  0  0  0  0  0  0  0  0  0
  153.8869  141.3856  160.2467 H   0  0  0  0  0  0  0  0  0  0  0  0
  152.7223  143.4288  161.6797 H   0  0  0  0  0  0  0  0  0  0  0  0
  151.7901  145.7100  161.2255 H   0  0  0  0  0  0  0  0  0  0  0  0
  150.8625  146.2042  158.9446 H   0  0  0  0  0  0  0  0  0  0  0  0
  150.8983  144.3862  157.2186 H   0  0  0  0  0  0  0  0  0  0  0  0
  149.4273  138.5621  155.4477 H   0  0  0  0  0  0  0  0  0  0  0  0
  151.1523  136.0783  155.3445 H   0  0  0  0  0  0  0  0  0  0  0  0
  150.1191  136.7229  154.0795 H   0  0  0  0  0  0  0  0  0  0  0  0
  149.4044  136.1144  155.5651 H   0  0  0  0  0  0  0  0  0  0  0  0
  152.4718  138.3360  155.3188 H   0  0  0  0  0  0  0  0  0  0  0  0
  151.6197  139.8531  155.5778 H   0  0  0  0  0  0  0  0  0  0  0  0
  151.3929  138.9584  154.0846 H   0  0  0  0  0  0  0  0  0  0  0  0
  148.0386  139.2497  158.3074 H   0  0  0  0  0  0  0  0  0  0  0  0
  147.7034  138.5367  156.7452 H   0  0  0  0  0  0  0  0  0  0  0  0
  146.4503  136.6744  157.7914 H   0  0  0  0  0  0  0  0  0  0  0  0
  145.1675  138.7378  157.2072 H   0  0  0  0  0  0  0  0  0  0  0  0
  145.5062  139.4067  158.8028 H   0  0  0  0  0  0  0  0  0  0  0  0
  144.5076  137.9638  158.6445 H   0  0  0  0  0  0  0  0  0  0  0  0
  148.9260  136.5967  157.4379 H   0  0  0  0  0  0  0  0  0  0  0  0
  1  2  1  0  0  0  0
  1 24  1  0  0  0  0
  1 25  1  0  0  0  0
  1 26  1  0  0  0  0
  2 23  1  0  0  0  0
  2  3  1  0  0  0  0
  2 27  1  0  0  0  0
  3  4  1  0  0  0  0
  3 28  1  0  0  0  0
  3 29  1  0  0  0  0
  4  5  1  0  0  0  0
  4 20  1  0  0  0  0
  4 52  1  0  0  0  0
  5  6  1  0  0  0  0
  5 17  1  0  0  0  0
  5 30  1  0  0  0  0
  6  7  2  0  0  0  0
  6  8  1  0  0  0  0
  8  9  1  0  0  0  0
  9 10  1  0  0  0  0
  9 31  1  0  0  0  0
  9 32  1  0  0  0  0
 10 11  1  0  0  0  0
 10 33  1  0  0  0  0
 10 34  1  0  0  0  0
 11 16  1  0  0  0  0
 11 12  2  0  0  0  0
 12 13  1  0  0  0  0
 12 35  1  0  0  0  0
 13 14  2  0  0  0  0
 13 36  1  0  0  0  0
 14 15  1  0  0  0  0
 14 37  1  0  0  0  0
 15 16  2  0  0  0  0
 15 38  1  0  0  0  0
 17 18  1  0  0  0  0
 17 19  1  0  0  0  0
 17 39  1  0  0  0  0
 18 40  1  0  0  0  0
 18 41  1  0  0  0  0
 18 42  1  0  0  0  0
 19 43  1  0  0  0  0
 19 44  1  0  0  0  0
 19 45  1  0  0  0  0
 20 21  1  0  0  0  0
 20 46  1  0  0  0  0
 20 47  1  0  0  0  0
 21 22  1  0  0  0  0
 21 23  1  0  0  0  0
 21 48  1  0  0  0  0
 22 49  1  0  0  0  0
 22 50  1  0  0  0  0
 22 51  1  0  0  0  0
M  CHG  1   4   1
M  CHG  1   8  -1
M  END
> <s_m_source_file>
AV-unprocessed.smi

> <i_m_source_file_index>
1762

> <i_lp_mmshare_version>
43012

> <i_f3d_flags>
0

> <s_epik_input>
W0NIM11bQ0BASF0xW0NIMl1OKFtDSDJdW0NASF0oTzEpW0NIM10pW0NAQEhdKFtDSF0oW0NIM10pW0NIM10pQyg9TylbTkhdW0NIMl1bQ0gyXWMyW2NIXVtjSF1bY0hdW2NIXW4y

> <s_epik_cmdline>
J2VwaWtfcHl0aG9uJywgJy1waCcsICc3LjAnLCAnLXRuJywgJzgnLCAnLW1hJywgJzIwMCcsICctbWV0YWxfYmluZGluZycsICctaW1hZScsICc8aW5maWxlLm1hZT4nLCAnLW9tYWUnLCAnPG91dGZpbGUubWFlPic=

> <r_epik_Ionization_Penalty>
7.82966

> <r_epik_Ionization_Penalty_Charging>
7.7461

> <r_epik_Ionization_Penalty_Neutral>
0.0835571

> <r_epik_State_Penalty>
8.52273

> <r_epik_Charging_Adjusted_Penalty>
16.2688

> <i_epik_Tot_Q>
0

> <i_epik_Tot_abs_Q>
2

> <r_epik_Metal_State_Penalty>
4.47451

> <b_epik_Metal_Only>
1

> <s_lp_Force_Field>
OPLS_2005

> <r_lp_Energy>
21.039

> <b_lp_Chiralities_Consistent>
1

> <s_lp_Variant>
AV-unprocessed.smi:1762-25

> <Gold.Version>
5.8.1

> <Gold.Id.Protein>
6NUR|6NUR_protein|mol2

> <Gold.PLP.Fitness>
44.3372

> <Gold.PLP.PLP>
-40.3530

> <Gold.PLP.part.hbond>
-1.0000

> <Gold.PLP.part.metal>
0.0000

> <Gold.PLP.part.buried>
-5.6545

> <Gold.PLP.part.nonpolar>
-34.2701

> <Gold.PLP.part.repulsive>
0.1328

> <Gold.PLP.ligand.clash>
0.0000

> <Gold.PLP.ligand.torsion>
1.1723

> <Gold.PLP.Chemscore.Hbond>
1.0000

> <Gold.PLP.Chemscore.CHOScore>
1.0000

> <Gold.PLP.Chemscore.Metal>
0.0000

> <Gold.Chemscore.Hbonds>
donor molecule, donor type, donor heavy atom, donor atom, acceptor molecule, acceptor atom, score
      P1  H  6934  6947       L1    23  0.75
      L1  C    15    38       P1  8028  0.99

> <Gold.PLP.Chemscore.Internal.Correction>
0.3288

> <Gold.Rescore>
     Score         DG    S(hbond)    S(metal)    S(lipo)     H(rot)  DE(clash)    DE(int)     intcor
     14.36     -17.01       0.66        0.00     114.68       1.60       0.19       2.46       ----

> <Gold.Chemscore.Fitness>
14.3646

> <Gold.Chemscore.DG>
-17.0078

> <Gold.Chemscore.ZeroCoef>
-5.4800

> <Gold.Chemscore.Hbond>
0.6613

> <Gold.Chemscore.Metal>
0.0000

> <Gold.Chemscore.Lipo>
114.6847

> <Gold.Chemscore.Internal_Hbond>
0.0000

> <Gold.Chemscore.DEClash>
0.1864

> <Gold.Chemscore.DEInternal>
2.4568

> <Gold.Chemscore.Rot>
1.6012

> <Gold.Chemscore.Internal.Correction>
   9.000000E+99

> <Gold.Chemscore.Hbonds>
donor molecule, donor type, donor heavy atom, donor atom, acceptor molecule, acceptor atom, score
      P1  H  6934  6947       L1    23  0.42

> <Gold.Chemscore.Hbond.Weighted>
-2.2086

> <Gold.Chemscore.Metal.Weighted>
-0.0000

> <Gold.Chemscore.Lipo.Weighted>
-13.4181

> <Gold.Chemscore.Internal_Hbond.Weighted>
0.0000

> <Gold.Chemscore.DEClash.Weighted>
0.1864

> <Gold.Chemscore.DEInternal.Weighted>
2.4568

> <Gold.Chemscore.Rot.Weighted>
4.0990

> <Gold.Chemscore.Internal.Correction.Weighted>
   9.000000E+99

> <Gold.Protein.RotatedTorsions>
[ 6907 6896 6895 6894 ] final -172.86 input  -60.11 | X-H torsion
[ 7974 7965 7964 7962 ] final  114.03 input  175.53 | X-H torsion
[ 8008 7997 7996 7995 ] final   14.24 input   59.86 | X-H torsion
[ 10167 10162 10161 10158 ] final   45.48 input  -65.29 | X-H torsion
[ 10718 10713 10712 10709 ] final  -53.72 input   66.30 | X-H torsion
[ 10763 10752 10751 10750 ] final   34.33 input  -60.55 | X-H torsion
[ 11005 11000 10999 10996 ] final  -50.48 input  -57.11 | X-H torsion

> <Gold.Protein.ActiveResidues>
 VAL166  LYS551  ARG553  GLY616  TRP617  ASP618  TYR619  PRO620  LYS621  CYS622 
 ASP623  PHE694  ASN695  SER759  ASP760  ASP761  ALA762  ILE779  LEU786  VAL792 
 PHE793  MET794  SER795  GLU796  ALA797  LYS798  CYS799  TRP800  GLU811  SER814 

> <Gold.Protein.RotatedAtoms>
  151.5468  133.3424  159.2945 H   0  0  0  0  0  0  0  0  0  0  0  0  # atno 6907 bound_to 6896
  150.8502  134.7827  159.7014 H   0  0  0  0  0  0  0  0  0  0  0  0  # atno 6908 bound_to 6896
  152.4550  134.5319  159.9865 H   0  0  0  0  0  0  0  0  0  0  0  0  # atno 6909 bound_to 6896
  145.2095  139.2913  143.4276 H   0  0  0  0  0  0  0  0  0  0  0  0  # atno 7974 bound_to 7965
  154.8457  140.2921  155.5631 H   0  0  0  0  0  0  0  0  0  0  0  0  # atno 8008 bound_to 7997
  156.3014  140.2505  156.3338 H   0  0  0  0  0  0  0  0  0  0  0  0  # atno 8009 bound_to 7997
  154.9077  140.0389  157.1918 H   0  0  0  0  0  0  0  0  0  0  0  0  # atno 8010 bound_to 7997
  140.3237  144.2674  150.6178 H   0  0  0  0  0  0  0  0  0  0  0  0  # atno 10167 bound_to 10162
  156.1511  130.4151  149.9943 H   0  0  0  0  0  0  0  0  0  0  0  0  # atno 10718 bound_to 10713
  153.0169  135.6363  154.1652 H   0  0  0  0  0  0  0  0  0  0  0  0  # atno 10763 bound_to 10752
  154.1391  135.2836  155.3167 H   0  0  0  0  0  0  0  0  0  0  0  0  # atno 10764 bound_to 10752
  154.6138  135.5547  153.7563 H   0  0  0  0  0  0  0  0  0  0  0  0  # atno 10765 bound_to 10752
  141.0818  133.6651  156.3738 H   0  0  0  0  0  0  0  0  0  0  0  0  # atno 11005 bound_to 11000
  146.3400  140.2366  142.8594 LP  0  0  0  0  0  0  0  0  0  0  0  0  # atno 17320 bound_to 7965
  144.9869  140.8511  143.5363 LP  0  0  0  0  0  0  0  0  0  0  0  0  # atno 17321 bound_to 7965
  140.5460  143.2214  151.8006 LP  0  0  0  0  0  0  0  0  0  0  0  0  # atno 17342 bound_to 10162
  139.4869  144.4538  151.9622 LP  0  0  0  0  0  0  0  0  0  0  0  0  # atno 17343 bound_to 10162
  156.7800  130.9218  151.3646 LP  0  0  0  0  0  0  0  0  0  0  0  0  # atno 17370 bound_to 10713
  157.6658  130.9006  149.9928 LP  0  0  0  0  0  0  0  0  0  0  0  0  # atno 17371 bound_to 10713
  140.5451  134.6083  157.5391 LP  0  0  0  0  0  0  0  0  0  0  0  0  # atno 17394 bound_to 11000
  139.9633  134.7416  156.0191 LP  0  0  0  0  0  0  0  0  0  0  0  0  # atno 17395 bound_to 11000

$$$$
