AV-unprocessed.smi:1949|AV-procd|sdf|7878|dock3
  -GOLD-   2272010 33D 1   1.00000     0.00000
 Structure written by MMmdl.
 28 29  0  0  0  0  0  0  0  0  2 V2000
  143.8697  144.2841  162.4905 C   0  0  0  0  0  0  0  0  0  0  0  0
  145.0030  143.9023  161.6012 C   0  0  0  0  0  0  0  0  0  0  0  0
  145.5691  142.6934  161.6323 N   0  0  0  0  0  0  0  0  0  0  0  0
  146.6021  142.5763  160.7137 N   0  0  0  0  0  0  0  0  0  0  0  0
  146.7936  143.6904  159.9928 C   0  0  0  0  0  0  0  0  0  0  0  0
  147.7403  143.7842  159.0404 N   0  5  0  0  0  0  0  0  0  0  0  0
  149.0570  143.9534  159.3322 C   0  0  0  0  0  0  0  0  0  0  0  0
  149.5110  143.8720  160.4730 O   0  0  0  0  0  0  0  0  0  0  0  0
  149.8980  144.2201  158.3138 N   0  0  0  0  0  0  0  0  0  0  0  0
  151.3388  144.4390  158.4152 C   0  0  0  0  0  0  0  0  0  0  0  0
  152.0719  143.1071  158.6704 C   0  0  0  0  0  0  0  0  0  0  0  0
  152.9856  143.3449  159.8745 C   0  0  0  0  0  0  0  0  0  0  0  0
  152.2849  144.4384  160.6742 C   0  0  0  0  0  0  0  0  0  0  0  0
  151.6884  145.3538  159.6058 C   0  0  0  0  0  0  0  0  0  0  0  0
  145.6999  145.0042  160.4256 S   0  0  0  0  0  0  0  0  0  0  0  0
  142.9589  143.7769  162.1720 H   0  0  0  0  0  0  0  0  0  0  0  0
  143.7029  145.3607  162.4513 H   0  0  0  0  0  0  0  0  0  0  0  0
  144.0879  144.0025  163.5207 H   0  0  0  0  0  0  0  0  0  0  0  0
  149.4988  144.2710  157.3882 H   0  0  0  0  0  0  0  0  0  0  0  0
  151.7045  144.8857  157.4889 H   0  0  0  0  0  0  0  0  0  0  0  0
  151.3608  142.3157  158.9144 H   0  0  0  0  0  0  0  0  0  0  0  0
  152.6328  142.7741  157.7964 H   0  0  0  0  0  0  0  0  0  0  0  0
  153.1537  142.4397  160.4589 H   0  0  0  0  0  0  0  0  0  0  0  0
  153.9564  143.7068  159.5331 H   0  0  0  0  0  0  0  0  0  0  0  0
  151.4840  144.0016  161.2722 H   0  0  0  0  0  0  0  0  0  0  0  0
  152.9594  144.9648  161.3499 H   0  0  0  0  0  0  0  0  0  0  0  0
  152.4430  146.0757  159.2912 H   0  0  0  0  0  0  0  0  0  0  0  0
  150.8386  145.9246  159.9826 H   0  0  0  0  0  0  0  0  0  0  0  0
  1  2  1  0  0  0  0
  1 16  1  0  0  0  0
  1 17  1  0  0  0  0
  1 18  1  0  0  0  0
  2 15  1  0  0  0  0
  2  3  2  0  0  0  0
  3  4  1  0  0  0  0
  4  5  2  0  0  0  0
  5  6  1  0  0  0  0
  5 15  1  0  0  0  0
  6  7  1  0  0  0  0
  7  8  2  0  0  0  0
  7  9  1  0  0  0  0
  9 10  1  0  0  0  0
  9 19  1  0  0  0  0
 10 14  1  0  0  0  0
 10 11  1  0  0  0  0
 10 20  1  0  0  0  0
 11 12  1  0  0  0  0
 11 21  1  0  0  0  0
 11 22  1  0  0  0  0
 12 13  1  0  0  0  0
 12 23  1  0  0  0  0
 12 24  1  0  0  0  0
 13 14  1  0  0  0  0
 13 25  1  0  0  0  0
 13 26  1  0  0  0  0
 14 27  1  0  0  0  0
 14 28  1  0  0  0  0
M  CHG  1   6  -1
M  END
> <s_m_source_file>
AV-unprocessed.smi

> <i_m_source_file_index>
1949

> <i_lp_mmshare_version>
43012

> <i_f3d_flags>
0

> <s_epik_input>
W0NIM11jMW5uYyhzMSlbTkhdQyg9TylbTkhdW0NIXTJbQ0gyXVtDSDJdW0NIMl1bQ0gyXTI=

> <s_epik_cmdline>
J2VwaWtfcHl0aG9uJywgJy1waCcsICc3LjAnLCAnLXRuJywgJzgnLCAnLW1hJywgJzIwMCcsICctbWV0YWxfYmluZGluZycsICctaW1hZScsICc8aW5maWxlLm1hZT4nLCAnLW9tYWUnLCAnPG91dGZpbGUubWFlPic=

> <r_lp_tautomer_probability>
1

> <r_epik_Ionization_Penalty>
4.54091

> <r_epik_Ionization_Penalty_Charging>
4.38642

> <r_epik_Ionization_Penalty_Neutral>
0.154484

> <r_epik_State_Penalty>
4.38606

> <r_epik_Charging_Adjusted_Penalty>
8.77248

> <i_epik_Tot_Q>
-1

> <i_epik_Tot_abs_Q>
1

> <r_epik_Metal_State_Penalty>
0.765318

> <b_epik_Metal_Only>
1

> <s_lp_Force_Field>
OPLS_2005

> <r_lp_Energy>
17.692

> <b_lp_Chiralities_Consistent>
1

> <s_lp_Variant>
AV-unprocessed.smi:1949-2

> <Gold.Version>
5.8.1

> <Gold.Id.Protein>
6NUR|6NUR_protein|mol2

> <Gold.PLP.Fitness>
37.4744

> <Gold.PLP.PLP>
-31.8157

> <Gold.PLP.part.hbond>
-5.7028

> <Gold.PLP.part.metal>
0.0000

> <Gold.PLP.part.buried>
-1.0896

> <Gold.PLP.part.nonpolar>
-26.6235

> <Gold.PLP.part.repulsive>
2.1669

> <Gold.PLP.ligand.clash>
0.0000

> <Gold.PLP.ligand.torsion>
0.9196

> <Gold.PLP.Chemscore.Hbond>
2.4968

> <Gold.PLP.Chemscore.CHOScore>
0.0000

> <Gold.PLP.Chemscore.Metal>
0.0000

> <Gold.Chemscore.Hbonds>
donor molecule, donor type, donor heavy atom, donor atom, acceptor molecule, acceptor atom, score
      L1  H     9    19       P1  8028  0.85
      P1  H  6933  6944       L1     4  0.74
      P1  H  6934  6946       L1     4  0.98

> <Gold.PLP.Chemscore.Internal.Correction>
0.0075

> <Gold.Rescore>
     Score         DG    S(hbond)    S(metal)    S(lipo)     H(rot)  DE(clash)    DE(int)     intcor
     12.25     -17.78       1.69        0.00      78.90       1.00       1.81       3.72       ----

> <Gold.Chemscore.Fitness>
12.2455

> <Gold.Chemscore.DG>
-17.7829

> <Gold.Chemscore.ZeroCoef>
-5.4800

> <Gold.Chemscore.Hbond>
1.6861

> <Gold.Chemscore.Metal>
0.0000

> <Gold.Chemscore.Lipo>
78.9006

> <Gold.Chemscore.Internal_Hbond>
0.0000

> <Gold.Chemscore.DEClash>
1.8132

> <Gold.Chemscore.DEInternal>
3.7242

> <Gold.Chemscore.Rot>
1.0000

> <Gold.Chemscore.Internal.Correction>
   9.000000E+99

> <Gold.Chemscore.Hbonds>
donor molecule, donor type, donor heavy atom, donor atom, acceptor molecule, acceptor atom, score
      L1  H     9    19       P1  8028  0.15
      P1  H  6933  6944       L1     8  0.22
      P1  H  6934  6946       L1     4  0.32

> <Gold.Chemscore.Hbond.Weighted>
-5.6316

> <Gold.Chemscore.Metal.Weighted>
-0.0000

> <Gold.Chemscore.Lipo.Weighted>
-9.2314

> <Gold.Chemscore.Internal_Hbond.Weighted>
0.0000

> <Gold.Chemscore.DEClash.Weighted>
1.8132

> <Gold.Chemscore.DEInternal.Weighted>
3.7242

> <Gold.Chemscore.Rot.Weighted>
2.5600

> <Gold.Chemscore.Internal.Correction.Weighted>
   9.000000E+99

> <Gold.Protein.RotatedTorsions>
[ 6907 6896 6895 6894 ] final  138.13 input  -60.11 | X-H torsion
[ 7974 7965 7964 7962 ] final  -72.83 input  175.53 | X-H torsion
[ 8008 7997 7996 7995 ] final  164.64 input   59.86 | X-H torsion
[ 10167 10162 10161 10158 ] final   41.64 input  -65.29 | X-H torsion
[ 10718 10713 10712 10709 ] final   95.47 input   66.30 | X-H torsion
[ 10763 10752 10751 10750 ] final   71.43 input  -60.55 | X-H torsion
[ 11005 11000 10999 10996 ] final   25.55 input  -57.11 | X-H torsion

> <Gold.Protein.ActiveResidues>
 VAL166  LYS551  ARG553  GLY616  TRP617  ASP618  TYR619  PRO620  LYS621  CYS622 
 ASP623  PHE694  ASN695  SER759  ASP760  ASP761  ALA762  ILE779  LEU786  VAL792 
 PHE793  MET794  SER795  GLU796  ALA797  LYS798  CYS799  TRP800  GLU811  SER814 

> <Gold.Protein.RotatedAtoms>
  152.2701  133.5375  159.5433 H   0  0  0  0  0  0  0  0  0  0  0  0  # atno 6907 bound_to 6896
  150.7156  134.0709  159.3873 H   0  0  0  0  0  0  0  0  0  0  0  0  # atno 6908 bound_to 6896
  151.8624  135.0519  160.0521 H   0  0  0  0  0  0  0  0  0  0  0  0  # atno 6909 bound_to 6896
  145.6601  140.9255  143.0938 H   0  0  0  0  0  0  0  0  0  0  0  0  # atno 7974 bound_to 7965
  156.1864  140.1691  156.8176 H   0  0  0  0  0  0  0  0  0  0  0  0  # atno 8008 bound_to 7997
  154.5419  140.0735  156.8557 H   0  0  0  0  0  0  0  0  0  0  0  0  # atno 8009 bound_to 7997
  155.3197  140.3372  155.4244 H   0  0  0  0  0  0  0  0  0  0  0  0  # atno 8010 bound_to 7997
  140.3623  144.2213  150.6137 H   0  0  0  0  0  0  0  0  0  0  0  0  # atno 10167 bound_to 10162
  157.6938  131.0546  150.4344 H   0  0  0  0  0  0  0  0  0  0  0  0  # atno 10718 bound_to 10713
  153.0398  135.5137  154.7592 H   0  0  0  0  0  0  0  0  0  0  0  0  # atno 10763 bound_to 10752
  154.6538  135.2929  154.9956 H   0  0  0  0  0  0  0  0  0  0  0  0  # atno 10764 bound_to 10752
  154.0830  135.6661  153.4893 H   0  0  0  0  0  0  0  0  0  0  0  0  # atno 10765 bound_to 10752
  140.3466  134.2274  155.7684 H   0  0  0  0  0  0  0  0  0  0  0  0  # atno 11005 bound_to 11000
  144.7092  139.8438  143.7420 LP  0  0  0  0  0  0  0  0  0  0  0  0  # atno 17320 bound_to 7965
  146.1132  139.4140  143.0274 LP  0  0  0  0  0  0  0  0  0  0  0  0  # atno 17321 bound_to 7965
  140.5115  143.2289  151.8528 LP  0  0  0  0  0  0  0  0  0  0  0  0  # atno 17342 bound_to 10162
  139.4813  144.4944  151.9143 LP  0  0  0  0  0  0  0  0  0  0  0  0  # atno 17343 bound_to 10162
  156.4708  130.4052  149.6519 LP  0  0  0  0  0  0  0  0  0  0  0  0  # atno 17370 bound_to 10713
  156.3601  130.7477  151.2448 LP  0  0  0  0  0  0  0  0  0  0  0  0  # atno 17371 bound_to 10713
  141.2024  133.7939  157.0394 LP  0  0  0  0  0  0  0  0  0  0  0  0  # atno 17394 bound_to 11000
  140.0737  134.9688  157.1510 LP  0  0  0  0  0  0  0  0  0  0  0  0  # atno 17395 bound_to 11000

$$$$
