AV-unprocessed.smi:99|AV-procd|sdf|876|dock3
  -GOLD-   2262017343D 1   1.00000     0.00000
 Structure written by MMmdl.
 53 56  0  0  0  0  0  0  0  0  1 V2000
  153.0224  139.9369  158.3631 O   0  0  0  0  0  0  0  0  0  0  0  0
  152.3276  140.7336  157.7287 C   0  0  0  0  0  0  0  0  0  0  0  0
  151.6921  140.4192  156.5826 O   0  0  0  0  0  0  0  0  0  0  0  0
  151.4049  139.0636  156.2821 C   0  0  0  0  0  0  0  0  0  0  0  0
  150.0743  138.6646  156.9395 C   0  0  1  0  0  0  0  0  0  0  0  0
  148.9972  139.1874  156.1714 O   0  0  0  0  0  0  0  0  0  0  0  0
  148.6164  138.2700  155.1947 C   0  0  2  0  0  0  0  0  0  0  0  0
  147.1054  138.3351  155.0875 N   0  0  0  0  0  0  0  0  0  0  0  0
  146.3001  138.2544  156.2180 C   0  0  0  0  0  0  0  0  0  0  0  0
  144.9539  138.3941  156.1863 C   0  0  0  0  0  0  0  0  0  0  0  0
  144.2691  138.6710  154.9291 C   0  0  0  0  0  0  0  0  0  0  0  0
  143.0540  138.7989  154.7957 O   0  0  0  0  0  0  0  0  0  0  0  0
  145.1172  138.8001  153.8262 N   0  0  0  0  0  0  0  0  0  0  0  0
  146.5073  138.6723  153.8504 C   0  0  0  0  0  0  0  0  0  0  0  0
  147.1499  138.8476  152.8157 O   0  0  0  0  0  0  0  0  0  0  0  0
  149.1460  136.8791  155.5985 C   0  0  1  0  0  0  0  0  0  0  0  0
  150.0827  136.3704  154.6695 O   0  0  0  0  0  0  0  0  0  0  0  0
  149.8500  137.1488  156.9277 C   0  0  2  0  0  0  0  0  0  0  0  0
  149.0248  136.7972  158.0314 O   0  0  0  0  0  0  0  0  0  0  0  0
  149.0167  135.5395  158.5221 C   0  0  0  0  0  0  0  0  0  0  0  0
  149.5642  134.5854  157.9666 O   0  0  0  0  0  0  0  0  0  0  0  0
  148.2645  135.4264  159.8042 C   0  0  0  0  0  0  0  0  0  0  0  0
  147.8435  136.6026  160.4676 C   0  0  0  0  0  0  0  0  0  0  0  0
  147.1341  136.5259  161.6820 C   0  0  0  0  0  0  0  0  0  0  0  0
  146.8381  135.2723  162.2484 C   0  0  0  0  0  0  0  0  0  0  0  0
  147.2529  134.0950  161.5992 C   0  0  0  0  0  0  0  0  0  0  0  0
  147.9620  134.1694  160.3845 C   0  0  0  0  0  0  0  0  0  0  0  0
  152.1027  142.1463  158.1502 C   0  0  0  0  0  0  0  0  0  0  0  0
  152.5495  142.5684  159.4243 C   0  0  0  0  0  0  0  0  0  0  0  0
  152.3512  143.8961  159.8507 C   0  0  0  0  0  0  0  0  0  0  0  0
  151.7032  144.8180  159.0083 C   0  0  0  0  0  0  0  0  0  0  0  0
  151.2546  144.4110  157.7383 C   0  0  0  0  0  0  0  0  0  0  0  0
  151.4522  143.0836  157.3101 C   0  0  0  0  0  0  0  0  0  0  0  0
  144.6890  139.0176  152.9379 H   0  0  0  0  0  0  0  0  0  0  0  0
  151.3684  138.9106  155.2027 H   0  0  0  0  0  0  0  0  0  0  0  0
  152.2104  138.4409  156.6737 H   0  0  0  0  0  0  0  0  0  0  0  0
  150.0436  139.0573  157.9570 H   0  0  0  0  0  0  0  0  0  0  0  0
  149.0288  138.5786  154.2329 H   0  0  0  0  0  0  0  0  0  0  0  0
  146.7488  138.0814  157.1827 H   0  0  0  0  0  0  0  0  0  0  0  0
  144.3811  138.3094  157.0988 H   0  0  0  0  0  0  0  0  0  0  0  0
  148.3450  136.1448  155.6826 H   0  0  0  0  0  0  0  0  0  0  0  0
  149.6949  136.3885  153.8080 H   0  0  0  0  0  0  0  0  0  0  0  0
  150.8014  136.6198  157.0084 H   0  0  0  0  0  0  0  0  0  0  0  0
  148.0591  137.5765  160.0518 H   0  0  0  0  0  0  0  0  0  0  0  0
  146.8166  137.4307  162.1791 H   0  0  0  0  0  0  0  0  0  0  0  0
  146.2938  135.2138  163.1796 H   0  0  0  0  0  0  0  0  0  0  0  0
  147.0272  133.1321  162.0335 H   0  0  0  0  0  0  0  0  0  0  0  0
  148.2669  133.2458  159.9140 H   0  0  0  0  0  0  0  0  0  0  0  0
  153.0489  141.8782  160.0889 H   0  0  0  0  0  0  0  0  0  0  0  0
  152.6966  144.2067  160.8258 H   0  0  0  0  0  0  0  0  0  0  0  0
  151.5503  145.8358  159.3362 H   0  0  0  0  0  0  0  0  0  0  0  0
  150.7572  145.1179  157.0906 H   0  0  0  0  0  0  0  0  0  0  0  0
  151.0953  142.8042  156.3295 H   0  0  0  0  0  0  0  0  0  0  0  0
  1  2  2  0  0  0  0
  2  3  1  0  0  0  0
  2 28  1  0  0  0  0
  3  4  1  0  0  0  0
  4  5  1  0  0  0  0
  4 35  1  0  0  0  0
  4 36  1  0  0  0  0
  5 18  1  0  0  0  0
  5  6  1  0  0  0  0
  5 37  1  0  0  0  0
  6  7  1  0  0  0  0
  7  8  1  0  0  0  0
  7 16  1  0  0  0  0
  7 38  1  0  0  0  0
  8 14  1  0  0  0  0
  8  9  1  0  0  0  0
  9 10  2  0  0  0  0
  9 39  1  0  0  0  0
 10 11  1  0  0  0  0
 10 40  1  0  0  0  0
 11 12  2  0  0  0  0
 11 13  1  0  0  0  0
 13 34  1  0  0  0  0
 13 14  1  0  0  0  0
 14 15  2  0  0  0  0
 16 17  1  0  0  0  0
 16 18  1  0  0  0  0
 16 41  1  0  0  0  0
 17 42  1  0  0  0  0
 18 19  1  0  0  0  0
 18 43  1  0  0  0  0
 19 20  1  0  0  0  0
 20 21  2  0  0  0  0
 20 22  1  0  0  0  0
 22 27  1  0  0  0  0
 22 23  2  0  0  0  0
 23 24  1  0  0  0  0
 23 44  1  0  0  0  0
 24 25  2  0  0  0  0
 24 45  1  0  0  0  0
 25 26  1  0  0  0  0
 25 46  1  0  0  0  0
 26 27  2  0  0  0  0
 26 47  1  0  0  0  0
 27 48  1  0  0  0  0
 28 33  1  0  0  0  0
 28 29  2  0  0  0  0
 29 30  1  0  0  0  0
 29 49  1  0  0  0  0
 30 31  2  0  0  0  0
 30 50  1  0  0  0  0
 31 32  1  0  0  0  0
 31 51  1  0  0  0  0
 32 33  2  0  0  0  0
 32 52  1  0  0  0  0
 33 53  1  0  0  0  0
M  END
> <s_m_source_file>
AV-unprocessed.smi

> <i_m_source_file_index>
99

> <i_lp_mmshare_version>
43012

> <i_f3d_flags>
0

> <s_epik_input>
W2NIXTFbY0hdW2NIXVtjSF1bY0hdYzFDKD1PKU9bQ0gyXVtDQEBIXTJPW0NAQEhdKG4zW2NIXVtjSF1jKD1PKVtuSF1jMz1PKVtDQEBIXShbT0hdKVtDQEhdMk9DKD1PKWM0W2NIXVtjSF1bY0hdW2NIXVtjSF00

> <s_epik_cmdline>
J2VwaWtfcHl0aG9uJywgJy1waCcsICc3LjAnLCAnLXRuJywgJzgnLCAnLW1hJywgJzIwMCcsICctbWV0YWxfYmluZGluZycsICctaW1hZScsICc8aW5maWxlLm1hZT4nLCAnLW9tYWUnLCAnPG91dGZpbGUubWFlPic=

> <r_lp_tautomer_probability>
1

> <r_epik_Ionization_Penalty>
0.00454555

> <r_epik_Ionization_Penalty_Charging>
0.0045191

> <r_epik_Ionization_Penalty_Neutral>
2.64449e-05

> <r_epik_State_Penalty>
-0

> <r_epik_Charging_Adjusted_Penalty>
0.0045191

> <i_epik_Tot_Q>
0

> <i_epik_Tot_abs_Q>
0

> <r_epik_Metal_State_Penalty>
1.27877

> <b_epik_Metal_Only>
0

> <s_epik_Chemistry_Notes>
This compound has an ester and may undergo hydrolysis at high or low pH. This compound contains an acetal/aminal-like group ( X-CH(R)-Y where X, Y are N, S, or O) that may be acid/base labile, releasing an aldehyde.

> <s_lp_Force_Field>
OPLS_2005

> <r_lp_Energy>
32.4523

> <b_lp_Chiralities_Consistent>
1

> <s_lp_Variant>
AV-unprocessed.smi:99-12

> <Gold.Version>
5.8.1

> <Gold.Id.Protein>
6NUR|6NUR_protein|mol2

> <Gold.PLP.Fitness>
56.0868

> <Gold.PLP.PLP>
-46.1471

> <Gold.PLP.part.hbond>
-4.0000

> <Gold.PLP.part.metal>
0.0000

> <Gold.PLP.part.buried>
-5.9859

> <Gold.PLP.part.nonpolar>
-35.8399

> <Gold.PLP.part.repulsive>
0.3209

> <Gold.PLP.ligand.clash>
0.0000

> <Gold.PLP.ligand.torsion>
1.0951

> <Gold.PLP.Chemscore.Hbond>
3.8863

> <Gold.PLP.Chemscore.CHOScore>
0.0000

> <Gold.PLP.Chemscore.Metal>
0.0000

> <Gold.Chemscore.Hbonds>
donor molecule, donor type, donor heavy atom, donor atom, acceptor molecule, acceptor atom, score
      L1  H    13    34       P1 10175  0.59
      L1  H    17    42       P1  7948  0.94
      P1  H  6896  6907       L1    21  0.98
      P1  H  7997  8009       L1     1  0.69

> <Gold.PLP.Chemscore.Internal.Correction>
0.4710

> <Gold.Rescore>
     Score         DG    S(hbond)    S(metal)    S(lipo)     H(rot)  DE(clash)    DE(int)     intcor
     19.70     -20.96       2.99        0.00     116.78       3.19       0.13       1.13       ----

> <Gold.Chemscore.Fitness>
19.6952

> <Gold.Chemscore.DG>
-20.9604

> <Gold.Chemscore.ZeroCoef>
-5.4800

> <Gold.Chemscore.Hbond>
2.9893

> <Gold.Chemscore.Metal>
0.0000

> <Gold.Chemscore.Lipo>
116.7808

> <Gold.Chemscore.Internal_Hbond>
0.0000

> <Gold.Chemscore.DEClash>
0.1308

> <Gold.Chemscore.DEInternal>
1.1344

> <Gold.Chemscore.Rot>
3.1903

> <Gold.Chemscore.Internal.Correction>
   9.000000E+99

> <Gold.Chemscore.Hbonds>
donor molecule, donor type, donor heavy atom, donor atom, acceptor molecule, acceptor atom, score
      L1  H    13    34       P1 10175  0.60
      L1  H    17    42       P1  7948  0.45
      P1  H  6896  6907       L1    21  0.37
      P1  H  7997  8009       L1     1  0.08

> <Gold.Chemscore.Hbond.Weighted>
-9.9841

> <Gold.Chemscore.Metal.Weighted>
-0.0000

> <Gold.Chemscore.Lipo.Weighted>
-13.6634

> <Gold.Chemscore.Internal_Hbond.Weighted>
0.0000

> <Gold.Chemscore.DEClash.Weighted>
0.1308

> <Gold.Chemscore.DEInternal.Weighted>
1.1344

> <Gold.Chemscore.Rot.Weighted>
8.1671

> <Gold.Chemscore.Internal.Correction.Weighted>
   9.000000E+99

> <Gold.Protein.RotatedTorsions>
[ 6907 6896 6895 6894 ] final -111.71 input  -60.11 | X-H torsion
[ 7974 7965 7964 7962 ] final   18.67 input  175.53 | X-H torsion
[ 8008 7997 7996 7995 ] final  150.83 input   59.86 | X-H torsion
[ 10167 10162 10161 10158 ] final  -28.28 input  -65.29 | X-H torsion
[ 10718 10713 10712 10709 ] final  121.74 input   66.30 | X-H torsion
[ 10763 10752 10751 10750 ] final  136.99 input  -60.55 | X-H torsion
[ 11005 11000 10999 10996 ] final   23.80 input  -57.11 | X-H torsion

> <Gold.Protein.ActiveResidues>
 VAL166  LYS551  ARG553  GLY616  TRP617  ASP618  TYR619  PRO620  LYS621  CYS622 
 ASP623  PHE694  ASN695  SER759  ASP760  ASP761  ALA762  ILE779  LEU786  VAL792 
 PHE793  MET794  SER795  GLU796  ALA797  LYS798  CYS799  TRP800  GLU811  SER814 

> <Gold.Protein.RotatedAtoms>
  150.7709  133.9196  159.3393 H   0  0  0  0  0  0  0  0  0  0  0  0  # atno 6907 bound_to 6896
  151.7082  135.0915  160.0272 H   0  0  0  0  0  0  0  0  0  0  0  0  # atno 6908 bound_to 6896
  152.3725  133.6400  159.6134 H   0  0  0  0  0  0  0  0  0  0  0  0  # atno 6909 bound_to 6896
  146.2177  139.8424  142.8638 H   0  0  0  0  0  0  0  0  0  0  0  0  # atno 7974 bound_to 7965
  156.2699  140.2064  156.6079 H   0  0  0  0  0  0  0  0  0  0  0  0  # atno 8008 bound_to 7997
  154.6854  140.0535  157.0333 H   0  0  0  0  0  0  0  0  0  0  0  0  # atno 8009 bound_to 7997
  155.0941  140.3199  155.4568 H   0  0  0  0  0  0  0  0  0  0  0  0  # atno 8010 bound_to 7997
  140.7271  143.4023  151.1243 H   0  0  0  0  0  0  0  0  0  0  0  0  # atno 10167 bound_to 10162
  157.5795  131.1076  150.8215 H   0  0  0  0  0  0  0  0  0  0  0  0  # atno 10718 bound_to 10713
  153.8657  135.3062  155.3440 H   0  0  0  0  0  0  0  0  0  0  0  0  # atno 10763 bound_to 10752
  154.7828  135.4826  153.9885 H   0  0  0  0  0  0  0  0  0  0  0  0  # atno 10764 bound_to 10752
  153.1435  135.6829  153.9085 H   0  0  0  0  0  0  0  0  0  0  0  0  # atno 10765 bound_to 10752
  140.3657  134.2077  155.7669 H   0  0  0  0  0  0  0  0  0  0  0  0  # atno 11005 bound_to 11000
  145.2886  141.0160  143.3676 LP  0  0  0  0  0  0  0  0  0  0  0  0  # atno 17320 bound_to 7965
  144.9095  139.4547  143.6594 LP  0  0  0  0  0  0  0  0  0  0  0  0  # atno 17321 bound_to 7965
  139.7645  143.8586  152.3107 LP  0  0  0  0  0  0  0  0  0  0  0  0  # atno 17342 bound_to 10162
  139.8483  144.7177  150.9245 LP  0  0  0  0  0  0  0  0  0  0  0  0  # atno 17343 bound_to 10162
  156.8665  130.5131  149.5300 LP  0  0  0  0  0  0  0  0  0  0  0  0  # atno 17370 bound_to 10713
  156.0840  130.5843  150.9615 LP  0  0  0  0  0  0  0  0  0  0  0  0  # atno 17371 bound_to 10713
  141.1970  133.8068  157.0645 LP  0  0  0  0  0  0  0  0  0  0  0  0  # atno 17394 bound_to 11000
  140.0591  134.9764  157.1274 LP  0  0  0  0  0  0  0  0  0  0  0  0  # atno 17395 bound_to 11000

$$$$
