AV-unprocessed.smi:2062|AV-procd|sdf|8397|dock8
  -GOLD-   2272011 83D 1   1.00000     0.00000
 Structure written by MMmdl.
 43 44  0  0  0  0  0  0  0  0  2 V2000
  144.4602  132.6955  150.4982 C   0  0  0  0  0  0  0  0  0  0  0  0
  145.6978  131.8898  150.9201 C   0  0  0  0  0  0  0  0  0  0  0  0
  145.2908  130.4753  151.3656 C   0  0  0  0  0  0  0  0  0  0  0  0
  146.4827  132.6372  152.0202 C   0  0  0  0  0  0  0  0  0  0  0  0
  147.7751  131.9828  152.3639 N   0  3  2  0  0  0  0  0  0  0  0  0
  147.6242  130.7993  153.2448 C   0  0  0  0  0  0  0  0  0  0  0  0
  147.3936  131.2208  154.7071 C   0  0  0  0  0  0  0  0  0  0  0  0
  148.4681  132.0489  155.1338 O   0  0  0  0  0  0  0  0  0  0  0  0
  148.5606  133.2536  154.3790 C   0  0  1  0  0  0  0  0  0  0  0  0
  149.6975  134.1087  154.9673 C   0  0  0  0  0  0  0  0  0  0  0  0
  149.6622  135.4800  154.4702 N   0  0  0  0  0  0  0  0  0  0  0  0
  149.9539  136.5670  155.1989 C   0  0  0  0  0  0  0  0  0  0  0  0
  150.2827  136.5170  156.3846 O   0  0  0  0  0  0  0  0  0  0  0  0
  149.8427  137.6897  154.4680 N   0  0  0  0  0  0  0  0  0  0  0  0
  150.1004  139.0267  154.8700 C   0  0  0  0  0  0  0  0  0  0  0  0
  151.1121  139.3935  155.6655 N   0  0  0  0  0  0  0  0  0  0  0  0
  151.1280  140.7723  155.8911 C   0  0  0  0  0  0  0  0  0  0  0  0
  150.1152  141.4446  155.2536 C   0  0  0  0  0  0  0  0  0  0  0  0
  149.0949  140.3669  154.3388 S   0  0  0  0  0  0  0  0  0  0  0  0
  148.8187  132.8956  152.8990 C   0  0  0  0  0  0  0  0  0  0  0  0
  143.7698  132.8304  151.3315 H   0  0  0  0  0  0  0  0  0  0  0  0
  143.9186  132.1934  149.6958 H   0  0  0  0  0  0  0  0  0  0  0  0
  144.7401  133.6843  150.1338 H   0  0  0  0  0  0  0  0  0  0  0  0
  146.3228  131.7946  150.0331 H   0  0  0  0  0  0  0  0  0  0  0  0
  144.6568  130.5055  152.2524 H   0  0  0  0  0  0  0  0  0  0  0  0
  146.1620  129.8632  151.5991 H   0  0  0  0  0  0  0  0  0  0  0  0
  144.7361  129.9615  150.5799 H   0  0  0  0  0  0  0  0  0  0  0  0
  146.6536  133.6729  151.7273 H   0  0  0  0  0  0  0  0  0  0  0  0
  145.8540  132.6810  152.9108 H   0  0  0  0  0  0  0  0  0  0  0  0
  146.8183  130.1543  152.8931 H   0  0  0  0  0  0  0  0  0  0  0  0
  148.5378  130.2066  153.1821 H   0  0  0  0  0  0  0  0  0  0  0  0
  146.4424  131.7415  154.8259 H   0  0  0  0  0  0  0  0  0  0  0  0
  147.3544  130.3402  155.3481 H   0  0  0  0  0  0  0  0  0  0  0  0
  147.6237  133.8051  154.4648 H   0  0  0  0  0  0  0  0  0  0  0  0
  149.6243  134.1345  156.0549 H   0  0  0  0  0  0  0  0  0  0  0  0
  150.6664  133.6646  154.7328 H   0  0  0  0  0  0  0  0  0  0  0  0
  149.4018  135.6082  153.5031 H   0  0  0  0  0  0  0  0  0  0  0  0
  149.5471  137.5754  153.5099 H   0  0  0  0  0  0  0  0  0  0  0  0
  151.8988  141.1923  156.5203 H   0  0  0  0  0  0  0  0  0  0  0  0
  149.9086  142.5044  155.2664 H   0  0  0  0  0  0  0  0  0  0  0  0
  149.7814  132.3900  152.8132 H   0  0  0  0  0  0  0  0  0  0  0  0
  148.8995  133.7981  152.2948 H   0  0  0  0  0  0  0  0  0  0  0  0
  148.1262  131.6271  151.4859 H   0  0  0  0  0  0  0  0  0  0  0  0
  1  2  1  0  0  0  0
  1 21  1  0  0  0  0
  1 22  1  0  0  0  0
  1 23  1  0  0  0  0
  2  3  1  0  0  0  0
  2  4  1  0  0  0  0
  2 24  1  0  0  0  0
  3 25  1  0  0  0  0
  3 26  1  0  0  0  0
  3 27  1  0  0  0  0
  4  5  1  0  0  0  0
  4 28  1  0  0  0  0
  4 29  1  0  0  0  0
  5 20  1  0  0  0  0
  5  6  1  0  0  0  0
  5 43  1  0  0  0  0
  6  7  1  0  0  0  0
  6 30  1  0  0  0  0
  6 31  1  0  0  0  0
  7  8  1  0  0  0  0
  7 32  1  0  0  0  0
  7 33  1  0  0  0  0
  8  9  1  0  0  0  0
  9 10  1  0  0  0  0
  9 20  1  0  0  0  0
  9 34  1  0  0  0  0
 10 11  1  0  0  0  0
 10 35  1  0  0  0  0
 10 36  1  0  0  0  0
 11 12  1  0  0  0  0
 11 37  1  0  0  0  0
 12 13  2  0  0  0  0
 12 14  1  0  0  0  0
 14 15  1  0  0  0  0
 14 38  1  0  0  0  0
 15 19  1  0  0  0  0
 15 16  2  0  0  0  0
 16 17  1  0  0  0  0
 17 18  2  0  0  0  0
 17 39  1  0  0  0  0
 18 19  1  0  0  0  0
 18 40  1  0  0  0  0
 20 41  1  0  0  0  0
 20 42  1  0  0  0  0
M  CHG  1   5   1
M  END
> <s_m_source_file>
AV-unprocessed.smi

> <i_m_source_file_index>
2062

> <i_lp_mmshare_version>
43012

> <i_f3d_flags>
0

> <s_epik_input>
W0NIM11bQ0hdKFtDSDNdKVtDSDJdTjFbQ0gyXVtDSDJdT1tDQEhdKFtDSDJdMSlbQ0gyXVtOSF1DKD1PKVtOSF1jMm5bY0hdW2NIXXMy

> <s_epik_cmdline>
J2VwaWtfcHl0aG9uJywgJy1waCcsICc3LjAnLCAnLXRuJywgJzgnLCAnLW1hJywgJzIwMCcsICctbWV0YWxfYmluZGluZycsICctaW1hZScsICc8aW5maWxlLm1hZT4nLCAnLW9tYWUnLCAnPG91dGZpbGUubWFlPic=

> <r_lp_tautomer_probability>
0.999

> <r_epik_Ionization_Penalty>
0.0985527

> <r_epik_Ionization_Penalty_Charging>
0.098413

> <r_epik_Ionization_Penalty_Neutral>
0.000139681

> <r_epik_State_Penalty>
0.0884988

> <r_epik_Charging_Adjusted_Penalty>
0.186912

> <i_epik_Tot_Q>
1

> <i_epik_Tot_abs_Q>
1

> <r_epik_Metal_State_Penalty>
0.141792

> <b_epik_Metal_Only>
0

> <s_lp_Force_Field>
OPLS_2005

> <r_lp_Energy>
17.4544

> <b_lp_Chiralities_Consistent>
1

> <s_lp_Variant>
AV-unprocessed.smi:2062-2

> <Gold.Version>
5.8.1

> <Gold.Id.Protein>
6NUR|6NUR_protein|mol2

> <Gold.PLP.Fitness>
45.0156

> <Gold.PLP.PLP>
-35.3761

> <Gold.PLP.part.hbond>
-2.9324

> <Gold.PLP.part.metal>
0.0000

> <Gold.PLP.part.buried>
-3.7119

> <Gold.PLP.part.nonpolar>
-27.6078

> <Gold.PLP.part.repulsive>
0.0957

> <Gold.PLP.ligand.clash>
0.0000

> <Gold.PLP.ligand.torsion>
0.7897

> <Gold.PLP.Chemscore.Hbond>
2.7093

> <Gold.PLP.Chemscore.CHOScore>
1.0000

> <Gold.PLP.Chemscore.Metal>
0.0000

> <Gold.Chemscore.Hbonds>
donor molecule, donor type, donor heavy atom, donor atom, acceptor molecule, acceptor atom, score
      L1  H     5    43       P1 10747  1.00
      L1  H    11    37       P1  7948  1.00
      L1  H    14    38       P1  7948  0.63
      L1  C    18    40       P1  8028  1.00

> <Gold.PLP.Chemscore.Internal.Correction>
0.0911

> <Gold.Rescore>
     Score         DG    S(hbond)    S(metal)    S(lipo)     H(rot)  DE(clash)    DE(int)     intcor
     17.54     -19.19       2.57        0.00      82.25       1.76       0.01       1.64       ----

> <Gold.Chemscore.Fitness>
17.5368

> <Gold.Chemscore.DG>
-19.1882

> <Gold.Chemscore.ZeroCoef>
-5.4800

> <Gold.Chemscore.Hbond>
2.5721

> <Gold.Chemscore.Metal>
0.0000

> <Gold.Chemscore.Lipo>
82.2471

> <Gold.Chemscore.Internal_Hbond>
0.0000

> <Gold.Chemscore.DEClash>
0.0066

> <Gold.Chemscore.DEInternal>
1.6448

> <Gold.Chemscore.Rot>
1.7599

> <Gold.Chemscore.Internal.Correction>
   9.000000E+99

> <Gold.Chemscore.Hbonds>
donor molecule, donor type, donor heavy atom, donor atom, acceptor molecule, acceptor atom, score
      L1  H     5    43       P1 10747  1.00
      L1  H    11    37       P1  7948  0.30
      L1  H    14    38       P1  7948  0.53

> <Gold.Chemscore.Hbond.Weighted>
-8.5908

> <Gold.Chemscore.Metal.Weighted>
-0.0000

> <Gold.Chemscore.Lipo.Weighted>
-9.6229

> <Gold.Chemscore.Internal_Hbond.Weighted>
0.0000

> <Gold.Chemscore.DEClash.Weighted>
0.0066

> <Gold.Chemscore.DEInternal.Weighted>
1.6448

> <Gold.Chemscore.Rot.Weighted>
4.5054

> <Gold.Chemscore.Internal.Correction.Weighted>
   9.000000E+99

> <Gold.Protein.RotatedTorsions>
[ 6907 6896 6895 6894 ] final   -1.48 input  -60.11 | X-H torsion
[ 7974 7965 7964 7962 ] final -109.88 input  175.53 | X-H torsion
[ 8008 7997 7996 7995 ] final -110.26 input   59.86 | X-H torsion
[ 10167 10162 10161 10158 ] final  -21.70 input  -65.29 | X-H torsion
[ 10718 10713 10712 10709 ] final  150.71 input   66.30 | X-H torsion
[ 10763 10752 10751 10750 ] final   74.23 input  -60.55 | X-H torsion
[ 11005 11000 10999 10996 ] final -147.14 input  -57.11 | X-H torsion

> <Gold.Protein.ActiveResidues>
 VAL166  LYS551  ARG553  GLY616  TRP617  ASP618  TYR619  PRO620  LYS621  CYS622 
 ASP623  PHE694  ASN695  SER759  ASP760  ASP761  ALA762  ILE779  LEU786  VAL792 
 PHE793  MET794  SER795  GLU796  ALA797  LYS798  CYS799  TRP800  GLU811  SER814 

> <Gold.Protein.RotatedAtoms>
  151.5453  135.1068  159.9936 H   0  0  0  0  0  0  0  0  0  0  0  0  # atno 6907 bound_to 6896
  152.4516  133.7637  159.6771 H   0  0  0  0  0  0  0  0  0  0  0  0  # atno 6908 bound_to 6896
  150.8447  133.7814  159.3072 H   0  0  0  0  0  0  0  0  0  0  0  0  # atno 6909 bound_to 6896
  145.1751  140.8944  143.3513 H   0  0  0  0  0  0  0  0  0  0  0  0  # atno 7974 bound_to 7965
  154.9719  140.0397  157.2238 H   0  0  0  0  0  0  0  0  0  0  0  0  # atno 8008 bound_to 7997
  154.7793  140.2816  155.6054 H   0  0  0  0  0  0  0  0  0  0  0  0  # atno 8009 bound_to 7997
  156.2934  140.2594  156.2615 H   0  0  0  0  0  0  0  0  0  0  0  0  # atno 8010 bound_to 7997
  140.7283  143.4604  151.0388 H   0  0  0  0  0  0  0  0  0  0  0  0  # atno 10167 bound_to 10162
  157.2800  131.0833  151.1539 H   0  0  0  0  0  0  0  0  0  0  0  0  # atno 10718 bound_to 10713
  153.0573  135.5033  154.8011 H   0  0  0  0  0  0  0  0  0  0  0  0  # atno 10763 bound_to 10752
  154.6827  135.2971  154.9592 H   0  0  0  0  0  0  0  0  0  0  0  0  # atno 10764 bound_to 10752
  154.0373  135.6721  153.4839 H   0  0  0  0  0  0  0  0  0  0  0  0  # atno 10765 bound_to 10752
  140.7747  134.3148  157.5064 H   0  0  0  0  0  0  0  0  0  0  0  0  # atno 11005 bound_to 11000
  145.0193  139.3438  143.6080 LP  0  0  0  0  0  0  0  0  0  0  0  0  # atno 17320 bound_to 7965
  146.3462  139.9487  142.8731 LP  0  0  0  0  0  0  0  0  0  0  0  0  # atno 17321 bound_to 7965
  139.8288  143.7720  152.3179 LP  0  0  0  0  0  0  0  0  0  0  0  0  # atno 17342 bound_to 10162
  139.7828  144.7438  151.0064 LP  0  0  0  0  0  0  0  0  0  0  0  0  # atno 17343 bound_to 10162
  157.2977  130.6827  149.6147 LP  0  0  0  0  0  0  0  0  0  0  0  0  # atno 17370 bound_to 10713
  155.9664  130.4401  150.5288 LP  0  0  0  0  0  0  0  0  0  0  0  0  # atno 17371 bound_to 10713
  139.8751  134.9282  156.3445 LP  0  0  0  0  0  0  0  0  0  0  0  0  # atno 17394 bound_to 11000
  140.9540  133.7432  156.0310 LP  0  0  0  0  0  0  0  0  0  0  0  0  # atno 17395 bound_to 11000

$$$$
