AV-unprocessed.smi:2033|AV-procd|sdf|8260|dock6
  -GOLD-   2272010533D 1   1.00000     0.00000
 Structure written by MMmdl.
 33 34  0  0  0  0  0  0  0  0  1 V2000
  150.9561  130.9923  156.5586 C   0  0  0  0  0  0  0  0  0  0  0  0
  150.6450  132.4259  156.2939 C   0  0  0  0  0  0  0  0  0  0  0  0
  150.8308  133.3899  157.2041 N   0  0  0  0  0  0  0  0  0  0  0  0
  150.4698  134.6417  156.7255 N   0  0  0  0  0  0  0  0  0  0  0  0
  150.0204  134.5838  155.4644 C   0  0  0  0  0  0  0  0  0  0  0  0
  149.5840  135.7171  154.7289 N   0  0  0  0  0  0  0  0  0  0  0  0
  149.0907  136.8765  155.1982 C   0  0  0  0  0  0  0  0  0  0  0  0
  148.9306  137.1538  156.3872 O   0  0  0  0  0  0  0  0  0  0  0  0
  148.7846  137.7127  154.1956 N   0  0  0  0  0  0  0  0  0  0  0  0
  148.1881  139.0417  154.3412 C   0  0  1  0  0  0  0  0  0  0  0  0
  149.2301  140.1336  154.0106 C   0  0  0  0  0  0  0  0  0  0  0  0
  148.9171  141.5037  154.6332 C   0  0  0  0  0  0  0  0  0  0  0  0
  147.6165  142.1548  154.1397 C   0  0  0  0  0  0  0  0  0  0  0  0
  146.3485  141.3791  154.5359 C   0  0  0  0  0  0  0  0  0  0  0  0
  146.1047  140.2272  153.6767 N   0  0  0  0  0  0  0  0  0  0  0  0
  146.8840  139.1451  153.5277 C   0  0  0  0  0  0  0  0  0  0  0  0
  146.5651  138.2497  152.7455 O   0  0  0  0  0  0  0  0  0  0  0  0
  150.0057  132.9798  154.7517 S   0  0  0  0  0  0  0  0  0  0  0  0
  151.2188  130.8413  157.6062 H   0  0  0  0  0  0  0  0  0  0  0  0
  151.7936  130.6734  155.9384 H   0  0  0  0  0  0  0  0  0  0  0  0
  150.0898  130.3736  156.3236 H   0  0  0  0  0  0  0  0  0  0  0  0
  149.6482  135.6322  153.7253 H   0  0  0  0  0  0  0  0  0  0  0  0
  148.9466  137.3994  153.2495 H   0  0  0  0  0  0  0  0  0  0  0  0
  147.9010  139.1451  155.3894 H   0  0  0  0  0  0  0  0  0  0  0  0
  150.2095  139.8279  154.3811 H   0  0  0  0  0  0  0  0  0  0  0  0
  149.3427  140.2303  152.9297 H   0  0  0  0  0  0  0  0  0  0  0  0
  148.8880  141.4102  155.7195 H   0  0  0  0  0  0  0  0  0  0  0  0
  149.7454  142.1788  154.4163 H   0  0  0  0  0  0  0  0  0  0  0  0
  147.5557  143.1534  154.5736 H   0  0  0  0  0  0  0  0  0  0  0  0
  147.6504  142.3014  153.0592 H   0  0  0  0  0  0  0  0  0  0  0  0
  146.3827  141.0739  155.5828 H   0  0  0  0  0  0  0  0  0  0  0  0
  145.4843  142.0364  154.4378 H   0  0  0  0  0  0  0  0  0  0  0  0
  145.2582  140.2576  153.1269 H   0  0  0  0  0  0  0  0  0  0  0  0
  1  2  1  0  0  0  0
  1 19  1  0  0  0  0
  1 20  1  0  0  0  0
  1 21  1  0  0  0  0
  2 18  1  0  0  0  0
  2  3  2  0  0  0  0
  3  4  1  0  0  0  0
  4  5  2  0  0  0  0
  5  6  1  0  0  0  0
  5 18  1  0  0  0  0
  6  7  1  0  0  0  0
  6 22  1  0  0  0  0
  7  8  2  0  0  0  0
  7  9  1  0  0  0  0
  9 10  1  0  0  0  0
  9 23  1  0  0  0  0
 10 16  1  0  0  0  0
 10 11  1  0  0  0  0
 10 24  1  0  0  0  0
 11 12  1  0  0  0  0
 11 25  1  0  0  0  0
 11 26  1  0  0  0  0
 12 13  1  0  0  0  0
 12 27  1  0  0  0  0
 12 28  1  0  0  0  0
 13 14  1  0  0  0  0
 13 29  1  0  0  0  0
 13 30  1  0  0  0  0
 14 15  1  0  0  0  0
 14 31  1  0  0  0  0
 14 32  1  0  0  0  0
 15 16  1  0  0  0  0
 15 33  1  0  0  0  0
 16 17  2  0  0  0  0
M  END
> <s_m_source_file>
AV-unprocessed.smi

> <i_m_source_file_index>
2033

> <i_lp_mmshare_version>
43012

> <i_f3d_flags>
0

> <s_epik_input>
W0NIM11jMW5uYyhzMSlbTkhdQyg9TylbTkhdW0NAQEhdMltDSDJdW0NIMl1bQ0gyXVtDSDJdW05IXUMyPU8=

> <s_epik_cmdline>
J2VwaWtfcHl0aG9uJywgJy1waCcsICc3LjAnLCAnLXRuJywgJzgnLCAnLW1hJywgJzIwMCcsICctbWV0YWxfYmluZGluZycsICctaW1hZScsICc8aW5maWxlLm1hZT4nLCAnLW9tYWUnLCAnPG91dGZpbGUubWFlPic=

> <r_lp_tautomer_probability>
1

> <r_epik_Ionization_Penalty>
0.00079266

> <r_epik_Ionization_Penalty_Charging>
0

> <r_epik_Ionization_Penalty_Neutral>
0.00079266

> <r_epik_State_Penalty>
-0

> <r_epik_Charging_Adjusted_Penalty>
0

> <i_epik_Tot_Q>
0

> <i_epik_Tot_abs_Q>
0

> <r_epik_Metal_State_Penalty>
0.265831

> <b_epik_Metal_Only>
0

> <s_lp_Force_Field>
OPLS_2005

> <r_lp_Energy>
9.00356

> <b_lp_Chiralities_Consistent>
1

> <s_lp_Variant>
AV-unprocessed.smi:2033-2

> <Gold.Version>
5.8.1

> <Gold.Id.Protein>
6NUR|6NUR_protein|mol2

> <Gold.PLP.Fitness>
35.5933

> <Gold.PLP.PLP>
-24.3097

> <Gold.PLP.part.hbond>
-4.0000

> <Gold.PLP.part.metal>
0.0000

> <Gold.PLP.part.buried>
-2.2088

> <Gold.PLP.part.nonpolar>
-19.8041

> <Gold.PLP.part.repulsive>
0.3255

> <Gold.PLP.ligand.clash>
0.0000

> <Gold.PLP.ligand.torsion>
0.2042

> <Gold.PLP.Chemscore.Hbond>
3.8882

> <Gold.PLP.Chemscore.CHOScore>
0.0000

> <Gold.PLP.Chemscore.Metal>
0.0000

> <Gold.Chemscore.Hbonds>
donor molecule, donor type, donor heavy atom, donor atom, acceptor molecule, acceptor atom, score
      L1  H     6    22       P1  7948  0.88
      L1  H     9    23       P1  7948  1.00
      L1  H    15    33       P1 10175  1.00
      P1  H  6896  6909       L1     3  0.83

> <Gold.PLP.Chemscore.Internal.Correction>
0.0276

> <Gold.Rescore>
     Score         DG    S(hbond)    S(metal)    S(lipo)     H(rot)  DE(clash)    DE(int)     intcor
     16.99     -19.29       3.29        0.00      46.05       1.00       1.18       1.12       ----

> <Gold.Chemscore.Fitness>
16.9949

> <Gold.Chemscore.DG>
-19.2907

> <Gold.Chemscore.ZeroCoef>
-5.4800

> <Gold.Chemscore.Hbond>
3.2882

> <Gold.Chemscore.Metal>
0.0000

> <Gold.Chemscore.Lipo>
46.0509

> <Gold.Chemscore.Internal_Hbond>
0.0000

> <Gold.Chemscore.DEClash>
1.1774

> <Gold.Chemscore.DEInternal>
1.1184

> <Gold.Chemscore.Rot>
1.0000

> <Gold.Chemscore.Internal.Correction>
   9.000000E+99

> <Gold.Chemscore.Hbonds>
donor molecule, donor type, donor heavy atom, donor atom, acceptor molecule, acceptor atom, score
      L1  H     6    22       P1  7948  0.15
      L1  H     9    23       P1  7948  0.99
      L1  H    15    33       P1 10175  0.99
      P1  H  6896  6909       L1     3  0.54

> <Gold.Chemscore.Hbond.Weighted>
-10.9827

> <Gold.Chemscore.Metal.Weighted>
-0.0000

> <Gold.Chemscore.Lipo.Weighted>
-5.3879

> <Gold.Chemscore.Internal_Hbond.Weighted>
0.0000

> <Gold.Chemscore.DEClash.Weighted>
1.1774

> <Gold.Chemscore.DEInternal.Weighted>
1.1184

> <Gold.Chemscore.Rot.Weighted>
2.5600

> <Gold.Chemscore.Internal.Correction.Weighted>
   9.000000E+99

> <Gold.Protein.RotatedTorsions>
[ 6907 6896 6895 6894 ] final  -24.02 input  -60.11 | X-H torsion
[ 7974 7965 7964 7962 ] final -137.68 input  175.53 | X-H torsion
[ 8008 7997 7996 7995 ] final   84.02 input   59.86 | X-H torsion
[ 10167 10162 10161 10158 ] final  162.76 input  -65.29 | X-H torsion
[ 10718 10713 10712 10709 ] final   33.99 input   66.30 | X-H torsion
[ 10763 10752 10751 10750 ] final  104.41 input  -60.55 | X-H torsion
[ 11005 11000 10999 10996 ] final   61.30 input  -57.11 | X-H torsion

> <Gold.Protein.ActiveResidues>
 VAL166  LYS551  ARG553  GLY616  TRP617  ASP618  TYR619  PRO620  LYS621  CYS622 
 ASP623  PHE694  ASN695  SER759  ASP760  ASP761  ALA762  ILE779  LEU786  VAL792 
 PHE793  MET794  SER795  GLU796  ALA797  LYS798  CYS799  TRP800  GLU811  SER814 

> <Gold.Protein.RotatedAtoms>
  151.1956  135.0421  159.8850 H   0  0  0  0  0  0  0  0  0  0  0  0  # atno 6907 bound_to 6896
  152.5436  134.0907  159.8286 H   0  0  0  0  0  0  0  0  0  0  0  0  # atno 6908 bound_to 6896
  151.1041  133.5174  159.2640 H   0  0  0  0  0  0  0  0  0  0  0  0  # atno 6909 bound_to 6896
  144.8821  140.6522  143.5199 H   0  0  0  0  0  0  0  0  0  0  0  0  # atno 7974 bound_to 7965
  155.9316  140.3414  155.6253 H   0  0  0  0  0  0  0  0  0  0  0  0  # atno 8008 bound_to 7997
  155.7151  140.0776  157.2373 H   0  0  0  0  0  0  0  0  0  0  0  0  # atno 8009 bound_to 7997
  154.4086  140.1615  156.2326 H   0  0  0  0  0  0  0  0  0  0  0  0  # atno 8010 bound_to 7997
  139.4865  144.4405  151.8958 H   0  0  0  0  0  0  0  0  0  0  0  0  # atno 10167 bound_to 10162
  157.3048  130.7369  149.6689 H   0  0  0  0  0  0  0  0  0  0  0  0  # atno 10718 bound_to 10713
  153.3655  135.3944  155.1750 H   0  0  0  0  0  0  0  0  0  0  0  0  # atno 10763 bound_to 10752
  154.8686  135.3690  154.5044 H   0  0  0  0  0  0  0  0  0  0  0  0  # atno 10764 bound_to 10752
  153.5507  135.7083  153.5653 H   0  0  0  0  0  0  0  0  0  0  0  0  # atno 10765 bound_to 10752
  140.0171  134.6209  155.9694 H   0  0  0  0  0  0  0  0  0  0  0  0  # atno 11005 bound_to 11000
  145.3935  139.1612  143.4216 LP  0  0  0  0  0  0  0  0  0  0  0  0  # atno 17320 bound_to 7965
  146.3001  140.4026  142.8707 LP  0  0  0  0  0  0  0  0  0  0  0  0  # atno 17321 bound_to 7965
  140.3857  144.2680  150.5904 LP  0  0  0  0  0  0  0  0  0  0  0  0  # atno 17342 bound_to 10162
  140.5193  143.2270  151.8414 LP  0  0  0  0  0  0  0  0  0  0  0  0  # atno 17343 bound_to 10162
  155.9674  130.4269  150.4719 LP  0  0  0  0  0  0  0  0  0  0  0  0  # atno 17370 bound_to 10713
  157.2707  131.0586  151.2261 LP  0  0  0  0  0  0  0  0  0  0  0  0  # atno 17371 bound_to 10713
  141.1749  133.6539  156.4792 LP  0  0  0  0  0  0  0  0  0  0  0  0  # atno 17394 bound_to 11000
  140.4452  134.6979  157.5012 LP  0  0  0  0  0  0  0  0  0  0  0  0  # atno 17395 bound_to 11000

$$$$
