AV-unprocessed.smi:1740|AV-procd|sdf|7006|dock4
  -GOLD-   22720 8213D 1   1.00000     0.00000
 Structure written by MMmdl.
 51 53  0  0  0  0  0  0  0  0  1 V2000
  146.4411  131.8972  151.2612 N   0  0  0  0  0  0  0  0  0  0  0  0
  145.2217  131.3930  151.4644 C   0  0  0  0  0  0  0  0  0  0  0  0
  145.0246  130.1878  151.6037 O   0  0  0  0  0  0  0  0  0  0  0  0
  144.0543  132.3859  151.5270 C   0  0  0  0  0  0  0  0  0  0  0  0
  144.4328  133.7559  151.9427 N   0  0  0  0  0  0  0  0  0  0  0  0
  143.2725  134.4105  152.5569 C   0  0  0  0  0  0  0  0  0  0  0  0
  143.6586  135.7907  153.1165 C   0  0  0  0  0  0  0  0  0  0  0  0
  144.2353  136.6917  152.0129 C   0  0  0  0  0  0  0  0  0  0  0  0
  144.7158  137.9538  152.5665 N   0  0  0  0  0  0  0  0  0  0  0  0
  145.8538  138.1110  153.2567 C   0  0  0  0  0  0  0  0  0  0  0  0
  146.6340  137.1913  153.5040 O   0  0  0  0  0  0  0  0  0  0  0  0
  146.0101  139.3860  153.6497 N   0  0  0  0  0  0  0  0  0  0  0  0
  147.0614  139.9388  154.4342 C   0  0  0  0  0  0  0  0  0  0  0  0
  148.2633  139.2268  154.6677 C   0  0  0  0  0  0  0  0  0  0  0  0
  149.3000  139.8415  155.3906 C   0  0  0  0  0  0  0  0  0  0  0  0
  149.1050  141.1570  155.8426 C   0  0  0  0  0  0  0  0  0  0  0  0
  147.9735  141.8536  155.6164 N   0  0  0  0  0  0  0  0  0  0  0  0
  146.9583  141.2689  154.9334 C   0  0  0  0  0  0  0  0  0  0  0  0
  145.7879  142.0387  154.7435 N   0  0  0  0  0  0  0  0  0  0  0  0
  144.9202  142.2545  155.8980 C   0  0  0  0  0  0  0  0  0  0  0  0
  144.3855  143.6855  155.7771 C   0  0  0  0  0  0  0  0  0  0  0  0
  144.5447  144.0047  154.2940 C   0  0  0  0  0  0  0  0  0  0  0  0
  145.8240  143.2537  153.9360 C   0  0  0  0  0  0  0  0  0  0  0  0
  145.3871  135.9523  151.3191 C   0  0  0  0  0  0  0  0  0  0  0  0
  144.9420  134.5644  150.8248 C   0  0  0  0  0  0  0  0  0  0  0  0
  147.2368  131.2775  151.2142 H   0  0  0  0  0  0  0  0  0  0  0  0
  146.5643  132.8936  151.1561 H   0  0  0  0  0  0  0  0  0  0  0  0
  143.5496  132.4228  150.5596 H   0  0  0  0  0  0  0  0  0  0  0  0
  143.3320  131.9797  152.2364 H   0  0  0  0  0  0  0  0  0  0  0  0
  142.4637  134.5115  151.8308 H   0  0  0  0  0  0  0  0  0  0  0  0
  142.8905  133.7954  153.3727 H   0  0  0  0  0  0  0  0  0  0  0  0
  142.7835  136.2607  153.5666 H   0  0  0  0  0  0  0  0  0  0  0  0
  144.3890  135.6660  153.9178 H   0  0  0  0  0  0  0  0  0  0  0  0
  143.4594  136.8927  151.2714 H   0  0  0  0  0  0  0  0  0  0  0  0
  144.1366  138.7663  152.4132 H   0  0  0  0  0  0  0  0  0  0  0  0
  145.2407  140.0105  153.4564 H   0  0  0  0  0  0  0  0  0  0  0  0
  148.4154  138.2292  154.2848 H   0  0  0  0  0  0  0  0  0  0  0  0
  150.2266  139.3212  155.5822 H   0  0  0  0  0  0  0  0  0  0  0  0
  149.8803  141.6667  156.3954 H   0  0  0  0  0  0  0  0  0  0  0  0
  144.0935  141.5448  155.8535 H   0  0  0  0  0  0  0  0  0  0  0  0
  145.4452  142.1042  156.8426 H   0  0  0  0  0  0  0  0  0  0  0  0
  143.3580  143.7851  156.1281 H   0  0  0  0  0  0  0  0  0  0  0  0
  145.0090  144.3607  156.3649 H   0  0  0  0  0  0  0  0  0  0  0  0
  143.7023  143.5987  153.7324 H   0  0  0  0  0  0  0  0  0  0  0  0
  144.6072  145.0738  154.0897 H   0  0  0  0  0  0  0  0  0  0  0  0
  146.6873  143.8684  154.1943 H   0  0  0  0  0  0  0  0  0  0  0  0
  145.8736  143.0209  152.8720 H   0  0  0  0  0  0  0  0  0  0  0  0
  145.7552  136.5411  150.4783 H   0  0  0  0  0  0  0  0  0  0  0  0
  146.2263  135.8375  152.0072 H   0  0  0  0  0  0  0  0  0  0  0  0
  145.8011  134.0845  150.3561 H   0  0  0  0  0  0  0  0  0  0  0  0
  144.1766  134.6644  150.0532 H   0  0  0  0  0  0  0  0  0  0  0  0
  1  2  1  0  0  0  0
  1 26  1  0  0  0  0
  1 27  1  0  0  0  0
  2  3  2  0  0  0  0
  2  4  1  0  0  0  0
  4  5  1  0  0  0  0
  4 28  1  0  0  0  0
  4 29  1  0  0  0  0
  5 25  1  0  0  0  0
  5  6  1  0  0  0  0
  6  7  1  0  0  0  0
  6 30  1  0  0  0  0
  6 31  1  0  0  0  0
  7  8  1  0  0  0  0
  7 32  1  0  0  0  0
  7 33  1  0  0  0  0
  8  9  1  0  0  0  0
  8 24  1  0  0  0  0
  8 34  1  0  0  0  0
  9 10  1  0  0  0  0
  9 35  1  0  0  0  0
 10 11  2  0  0  0  0
 10 12  1  0  0  0  0
 12 13  1  0  0  0  0
 12 36  1  0  0  0  0
 13 18  1  0  0  0  0
 13 14  2  0  0  0  0
 14 15  1  0  0  0  0
 14 37  1  0  0  0  0
 15 16  2  0  0  0  0
 15 38  1  0  0  0  0
 16 17  1  0  0  0  0
 16 39  1  0  0  0  0
 17 18  2  0  0  0  0
 18 19  1  0  0  0  0
 19 23  1  0  0  0  0
 19 20  1  0  0  0  0
 20 21  1  0  0  0  0
 20 40  1  0  0  0  0
 20 41  1  0  0  0  0
 21 22  1  0  0  0  0
 21 42  1  0  0  0  0
 21 43  1  0  0  0  0
 22 23  1  0  0  0  0
 22 44  1  0  0  0  0
 22 45  1  0  0  0  0
 23 46  1  0  0  0  0
 23 47  1  0  0  0  0
 24 25  1  0  0  0  0
 24 48  1  0  0  0  0
 24 49  1  0  0  0  0
 25 50  1  0  0  0  0
 25 51  1  0  0  0  0
M  END
> <s_m_source_file>
AV-unprocessed.smi

> <i_m_source_file_index>
1740

> <i_lp_mmshare_version>
43012

> <i_f3d_flags>
0

> <s_epik_input>
W05IMl1DKD1PKVtDSDJdTjFbQ0gyXVtDSDJdW0NIXShbQ0gyXVtDSDJdMSlbTkhdQyg9TylbTkhdYzJbY0hdW2NIXVtjSF1uYzJOM1tDSDJdW0NIMl1bQ0gyXVtDSDJdMw==

> <s_epik_cmdline>
J2VwaWtfcHl0aG9uJywgJy1waCcsICc3LjAnLCAnLXRuJywgJzgnLCAnLW1hJywgJzIwMCcsICctbWV0YWxfYmluZGluZycsICctaW1hZScsICc8aW5maWxlLm1hZT4nLCAnLW9tYWUnLCAnPG91dGZpbGUubWFlPic=

> <r_lp_tautomer_probability>
1

> <r_epik_Ionization_Penalty>
0.268698

> <r_epik_Ionization_Penalty_Charging>
0

> <r_epik_Ionization_Penalty_Neutral>
0.268698

> <r_epik_State_Penalty>
0.247497

> <r_epik_Charging_Adjusted_Penalty>
0.247497

> <i_epik_Tot_Q>
0

> <i_epik_Tot_abs_Q>
0

> <r_epik_Metal_State_Penalty>
0.244805

> <b_epik_Metal_Only>
0

> <s_lp_Force_Field>
OPLS_2005

> <r_lp_Energy>
39.8984

> <b_lp_Chiralities_Consistent>
1

> <s_lp_Variant>
AV-unprocessed.smi:1740-1

> <Gold.Version>
5.8.1

> <Gold.Id.Protein>
6NUR|6NUR_protein|mol2

> <Gold.PLP.Fitness>
44.7383

> <Gold.PLP.PLP>
-37.4744

> <Gold.PLP.part.hbond>
-4.0000

> <Gold.PLP.part.metal>
0.0000

> <Gold.PLP.part.buried>
-4.4461

> <Gold.PLP.part.nonpolar>
-34.5821

> <Gold.PLP.part.repulsive>
5.4960

> <Gold.PLP.ligand.clash>
0.0000

> <Gold.PLP.ligand.torsion>
1.0336

> <Gold.PLP.Chemscore.Hbond>
3.0000

> <Gold.PLP.Chemscore.CHOScore>
0.0000

> <Gold.PLP.Chemscore.Metal>
0.0000

> <Gold.Chemscore.Hbonds>
donor molecule, donor type, donor heavy atom, donor atom, acceptor molecule, acceptor atom, score
      L1  H     1    26       P1 10747  0.93
      L1  H     9    35       P1 10175  1.00
      L1  H    12    36       P1 10175  1.00

> <Gold.PLP.Chemscore.Internal.Correction>
0.3311

> <Gold.Rescore>
     Score         DG    S(hbond)    S(metal)    S(lipo)     H(rot)  DE(clash)    DE(int)     intcor
     11.79     -18.28       2.92        0.00      73.48       2.16       2.83       3.66       ----

> <Gold.Chemscore.Fitness>
11.7905

> <Gold.Chemscore.DG>
-18.2833

> <Gold.Chemscore.ZeroCoef>
-5.4800

> <Gold.Chemscore.Hbond>
2.9174

> <Gold.Chemscore.Metal>
0.0000

> <Gold.Chemscore.Lipo>
73.4844

> <Gold.Chemscore.Internal_Hbond>
0.0000

> <Gold.Chemscore.DEClash>
2.8327

> <Gold.Chemscore.DEInternal>
3.6600

> <Gold.Chemscore.Rot>
2.1635

> <Gold.Chemscore.Internal.Correction>
   9.000000E+99

> <Gold.Chemscore.Hbonds>
donor molecule, donor type, donor heavy atom, donor atom, acceptor molecule, acceptor atom, score
      L1  H     1    26       P1 10747  0.85
      L1  H     9    35       P1 10175  0.99
      L1  H    12    36       P1 10175  0.95

> <Gold.Chemscore.Hbond.Weighted>
-9.7441

> <Gold.Chemscore.Metal.Weighted>
-0.0000

> <Gold.Chemscore.Lipo.Weighted>
-8.5977

> <Gold.Chemscore.Internal_Hbond.Weighted>
0.0000

> <Gold.Chemscore.DEClash.Weighted>
2.8327

> <Gold.Chemscore.DEInternal.Weighted>
3.6600

> <Gold.Chemscore.Rot.Weighted>
5.5385

> <Gold.Chemscore.Internal.Correction.Weighted>
   9.000000E+99

> <Gold.Protein.RotatedTorsions>
[ 6907 6896 6895 6894 ] final -140.37 input  -60.11 | X-H torsion
[ 7974 7965 7964 7962 ] final   -5.81 input  175.53 | X-H torsion
[ 8008 7997 7996 7995 ] final  107.01 input   59.86 | X-H torsion
[ 10167 10162 10161 10158 ] final  -59.25 input  -65.29 | X-H torsion
[ 10718 10713 10712 10709 ] final  -43.10 input   66.30 | X-H torsion
[ 10763 10752 10751 10750 ] final   36.76 input  -60.55 | X-H torsion
[ 11005 11000 10999 10996 ] final -170.20 input  -57.11 | X-H torsion

> <Gold.Protein.ActiveResidues>
 VAL166  LYS551  ARG553  GLY616  TRP617  ASP618  TYR619  PRO620  LYS621  CYS622 
 ASP623  PHE694  ASN695  SER759  ASP760  ASP761  ALA762  ILE779  LEU786  VAL792 
 PHE793  MET794  SER795  GLU796  ALA797  LYS798  CYS799  TRP800  GLU811  SER814 

> <Gold.Protein.RotatedAtoms>
  151.0599  133.5553  159.2634 H   0  0  0  0  0  0  0  0  0  0  0  0  # atno 6907 bound_to 6896
  151.2532  135.0628  159.9080 H   0  0  0  0  0  0  0  0  0  0  0  0  # atno 6908 bound_to 6896
  152.5396  134.0356  159.8098 H   0  0  0  0  0  0  0  0  0  0  0  0  # atno 6909 bound_to 6896
  146.2345  140.2076  142.8334 H   0  0  0  0  0  0  0  0  0  0  0  0  # atno 7974 bound_to 7965
  156.1790  140.3102  155.9113 H   0  0  0  0  0  0  0  0  0  0  0  0  # atno 8008 bound_to 7997
  155.3425  140.0466  157.3062 H   0  0  0  0  0  0  0  0  0  0  0  0  # atno 8009 bound_to 7997
  154.5322  140.2234  155.8795 H   0  0  0  0  0  0  0  0  0  0  0  0  # atno 8010 bound_to 7997
  140.6147  143.2398  151.5626 H   0  0  0  0  0  0  0  0  0  0  0  0  # atno 10167 bound_to 10162
  156.2526  130.4189  149.8633 H   0  0  0  0  0  0  0  0  0  0  0  0  # atno 10718 bound_to 10713
  153.0064  135.6297  154.2037 H   0  0  0  0  0  0  0  0  0  0  0  0  # atno 10763 bound_to 10752
  154.1780  135.2815  155.3062 H   0  0  0  0  0  0  0  0  0  0  0  0  # atno 10764 bound_to 10752
  154.5857  135.5633  153.7288 H   0  0  0  0  0  0  0  0  0  0  0  0  # atno 10765 bound_to 10752
  140.5222  134.5698  157.5051 H   0  0  0  0  0  0  0  0  0  0  0  0  # atno 11005 bound_to 11000
  144.9732  140.8388  143.5442 LP  0  0  0  0  0  0  0  0  0  0  0  0  # atno 17320 bound_to 7965
  145.2061  139.2228  143.5168 LP  0  0  0  0  0  0  0  0  0  0  0  0  # atno 17321 bound_to 7965
  139.5389  144.2703  152.1309 LP  0  0  0  0  0  0  0  0  0  0  0  0  # atno 17342 bound_to 10162
  140.1910  144.4752  150.6479 LP  0  0  0  0  0  0  0  0  0  0  0  0  # atno 17343 bound_to 10162
  156.6176  130.8613  151.3468 LP  0  0  0  0  0  0  0  0  0  0  0  0  # atno 17370 bound_to 10713
  157.7220  130.9571  150.1477 LP  0  0  0  0  0  0  0  0  0  0  0  0  # atno 17371 bound_to 10713
  139.9599  134.7470  156.0259 LP  0  0  0  0  0  0  0  0  0  0  0  0  # atno 17394 bound_to 11000
  141.1328  133.6582  156.3510 LP  0  0  0  0  0  0  0  0  0  0  0  0  # atno 17395 bound_to 11000

$$$$
