AV-unprocessed.smi:299|AV-procd|sdf|2266|dock10
  -GOLD-   2262022153D 1   1.00000     0.00000
 Structure written by MMmdl.
 42 43  0  0  0  0  0  0  0  0  2 V2000
  151.3086  142.6998  158.0613 C   0  0  0  0  0  0  0  0  0  0  0  0
  152.5254  143.4994  158.5762 C   0  0  1  0  0  0  0  0  0  0  0  0
  152.2245  145.0074  158.7056 C   0  0  0  0  0  0  0  0  0  0  0  0
  151.3084  145.3115  159.8999 C   0  0  0  0  0  0  0  0  0  0  0  0
  151.9057  144.7238  161.1840 C   0  0  0  0  0  0  0  0  0  0  0  0
  152.2009  143.2230  161.0266 C   0  0  0  0  0  0  0  0  0  0  0  0
  153.0855  142.9694  159.8558 N   0  3  1  0  0  0  0  0  0  0  0  0
  153.5610  141.5649  159.7599 C   0  0  0  0  0  0  0  0  0  0  0  0
  154.0084  141.0024  161.1222 C   0  0  0  0  0  0  0  0  0  0  0  0
  154.6745  139.6166  161.0262 C   0  0  0  0  0  0  0  0  0  0  0  0
  154.7710  138.9409  162.3163 N   0  0  0  0  0  0  0  0  0  0  0  0
  154.3900  137.6767  162.5591 C   0  0  0  0  0  0  0  0  0  0  0  0
  153.9370  136.9271  161.6949 O   0  0  0  0  0  0  0  0  0  0  0  0
  154.5448  137.1796  163.9965 C   0  0  0  0  0  0  0  0  0  0  0  0
  154.7184  135.7399  164.0328 N   0  0  0  0  0  0  0  0  0  0  0  0
  153.9843  134.7821  164.6030 C   0  0  0  0  0  0  0  0  0  0  0  0
  154.5089  133.5823  164.4058 N   0  0  0  0  0  0  0  0  0  0  0  0
  155.6436  133.8533  163.6590 N   0  0  0  0  0  0  0  0  0  0  0  0
  155.7734  135.1320  163.4346 N   0  0  0  0  0  0  0  0  0  0  0  0
  150.9479  143.1140  157.1195 H   0  0  0  0  0  0  0  0  0  0  0  0
  150.4735  142.7162  158.7609 H   0  0  0  0  0  0  0  0  0  0  0  0
  151.5604  141.6567  157.8709 H   0  0  0  0  0  0  0  0  0  0  0  0
  153.3082  143.4028  157.8227 H   0  0  0  0  0  0  0  0  0  0  0  0
  153.1625  145.5501  158.8308 H   0  0  0  0  0  0  0  0  0  0  0  0
  151.7781  145.3856  157.7853 H   0  0  0  0  0  0  0  0  0  0  0  0
  151.1763  146.3887  160.0063 H   0  0  0  0  0  0  0  0  0  0  0  0
  150.3156  144.8952  159.7280 H   0  0  0  0  0  0  0  0  0  0  0  0
  152.8265  145.2527  161.4337 H   0  0  0  0  0  0  0  0  0  0  0  0
  151.2225  144.8835  162.0188 H   0  0  0  0  0  0  0  0  0  0  0  0
  152.6746  142.8669  161.9405 H   0  0  0  0  0  0  0  0  0  0  0  0
  151.2717  142.6619  160.9250 H   0  0  0  0  0  0  0  0  0  0  0  0
  152.7824  140.9418  159.3174 H   0  0  0  0  0  0  0  0  0  0  0  0
  154.4155  141.5222  159.0832 H   0  0  0  0  0  0  0  0  0  0  0  0
  154.7161  141.6945  161.5798 H   0  0  0  0  0  0  0  0  0  0  0  0
  153.1623  140.9442  161.8062 H   0  0  0  0  0  0  0  0  0  0  0  0
  154.1020  138.9783  160.3529 H   0  0  0  0  0  0  0  0  0  0  0  0
  155.6695  139.7081  160.5878 H   0  0  0  0  0  0  0  0  0  0  0  0
  155.1228  139.4850  163.0913 H   0  0  0  0  0  0  0  0  0  0  0  0
  155.4124  137.6480  164.4631 H   0  0  0  0  0  0  0  0  0  0  0  0
  153.6710  137.4574  164.5882 H   0  0  0  0  0  0  0  0  0  0  0  0
  153.0772  134.9629  165.1605 H   0  0  0  0  0  0  0  0  0  0  0  0
  153.9163  143.5203  160.0188 H   0  0  0  0  0  0  0  0  0  0  0  0
  1  2  1  0  0  0  0
  1 20  1  0  0  0  0
  1 21  1  0  0  0  0
  1 22  1  0  0  0  0
  2  7  1  0  0  0  0
  2  3  1  0  0  0  0
  2 23  1  0  0  0  0
  3  4  1  0  0  0  0
  3 24  1  0  0  0  0
  3 25  1  0  0  0  0
  4  5  1  0  0  0  0
  4 26  1  0  0  0  0
  4 27  1  0  0  0  0
  5  6  1  0  0  0  0
  5 28  1  0  0  0  0
  5 29  1  0  0  0  0
  6  7  1  0  0  0  0
  6 30  1  0  0  0  0
  6 31  1  0  0  0  0
  7  8  1  0  0  0  0
  7 42  1  0  0  0  0
  8  9  1  0  0  0  0
  8 32  1  0  0  0  0
  8 33  1  0  0  0  0
  9 10  1  0  0  0  0
  9 34  1  0  0  0  0
  9 35  1  0  0  0  0
 10 11  1  0  0  0  0
 10 36  1  0  0  0  0
 10 37  1  0  0  0  0
 11 12  1  0  0  0  0
 11 38  1  0  0  0  0
 12 13  2  0  0  0  0
 12 14  1  0  0  0  0
 14 15  1  0  0  0  0
 14 39  1  0  0  0  0
 14 40  1  0  0  0  0
 15 19  1  0  0  0  0
 15 16  1  0  0  0  0
 16 17  2  0  0  0  0
 16 41  1  0  0  0  0
 17 18  1  0  0  0  0
 18 19  2  0  0  0  0
M  CHG  1   7   1
M  END
> <s_m_source_file>
AV-unprocessed.smi

> <i_m_source_file_index>
299

> <i_lp_mmshare_version>
43012

> <i_f3d_flags>
0

> <s_epik_input>
W0NIM11bQ0BASF0xW0NIMl1bQ0gyXVtDSDJdW0NIMl1OMVtDSDJdW0NIMl1bQ0gyXVtOSF1DKD1PKVtDSDJdbjJbY0hdbm5uMg==

> <s_epik_cmdline>
J2VwaWtfcHl0aG9uJywgJy1waCcsICc3LjAnLCAnLXRuJywgJzgnLCAnLW1hJywgJzIwMCcsICctbWV0YWxfYmluZGluZycsICctaW1hZScsICc8aW5maWxlLm1hZT4nLCAnLW9tYWUnLCAnPG91dGZpbGUubWFlPic=

> <r_lp_tautomer_probability>
1

> <r_epik_Ionization_Penalty>
0.000544863

> <r_epik_Ionization_Penalty_Charging>
0.000543475

> <r_epik_Ionization_Penalty_Neutral>
1.38784e-06

> <r_epik_State_Penalty>
0.000340025

> <r_epik_Charging_Adjusted_Penalty>
0.0008835

> <i_epik_Tot_Q>
1

> <i_epik_Tot_abs_Q>
1

> <r_epik_Metal_State_Penalty>
-0

> <b_epik_Metal_Only>
0

> <s_lp_Force_Field>
OPLS_2005

> <r_lp_Energy>
24.6376

> <b_lp_Chiralities_Consistent>
1

> <s_lp_Variant>
AV-unprocessed.smi:299-2

> <Gold.Version>
5.8.1

> <Gold.Id.Protein>
6NUR|6NUR_protein|mol2

> <Gold.PLP.Fitness>
42.1922

> <Gold.PLP.PLP>
-43.2413

> <Gold.PLP.part.hbond>
0.0000

> <Gold.PLP.part.metal>
0.0000

> <Gold.PLP.part.buried>
-5.0703

> <Gold.PLP.part.nonpolar>
-38.9564

> <Gold.PLP.part.repulsive>
0.1291

> <Gold.PLP.ligand.clash>
0.0000

> <Gold.PLP.ligand.torsion>
0.5602

> <Gold.PLP.Chemscore.Hbond>
0.0000

> <Gold.PLP.Chemscore.CHOScore>
0.0000

> <Gold.PLP.Chemscore.Metal>
0.0000

> <Gold.PLP.Chemscore.Internal.Correction>
0.0713

> <Gold.Rescore>
     Score         DG    S(hbond)    S(metal)    S(lipo)     H(rot)  DE(clash)    DE(int)     intcor
     10.16     -10.73       0.00        0.00     109.81       2.97       0.04       0.53       ----

> <Gold.Chemscore.Fitness>
10.1610

> <Gold.Chemscore.DG>
-10.7298

> <Gold.Chemscore.ZeroCoef>
-5.4800

> <Gold.Chemscore.Hbond>
0.0000

> <Gold.Chemscore.Metal>
0.0000

> <Gold.Chemscore.Lipo>
109.8097

> <Gold.Chemscore.Internal_Hbond>
0.0000

> <Gold.Chemscore.DEClash>
0.0388

> <Gold.Chemscore.DEInternal>
0.5301

> <Gold.Chemscore.Rot>
2.9680

> <Gold.Chemscore.Internal.Correction>
   9.000000E+99

> <Gold.Chemscore.Hbond.Weighted>
-0.0000

> <Gold.Chemscore.Metal.Weighted>
-0.0000

> <Gold.Chemscore.Lipo.Weighted>
-12.8477

> <Gold.Chemscore.Internal_Hbond.Weighted>
0.0000

> <Gold.Chemscore.DEClash.Weighted>
0.0388

> <Gold.Chemscore.DEInternal.Weighted>
0.5301

> <Gold.Chemscore.Rot.Weighted>
7.5980

> <Gold.Chemscore.Internal.Correction.Weighted>
   9.000000E+99

> <Gold.Protein.RotatedTorsions>
[ 6907 6896 6895 6894 ] final  -37.42 input  -60.11 | X-H torsion
[ 7974 7965 7964 7962 ] final   21.48 input  175.53 | X-H torsion
[ 8008 7997 7996 7995 ] final  -31.41 input   59.86 | X-H torsion
[ 10167 10162 10161 10158 ] final  109.63 input  -65.29 | X-H torsion
[ 10718 10713 10712 10709 ] final  -27.19 input   66.30 | X-H torsion
[ 10763 10752 10751 10750 ] final   95.47 input  -60.55 | X-H torsion
[ 11005 11000 10999 10996 ] final -169.05 input  -57.11 | X-H torsion

> <Gold.Protein.ActiveResidues>
 VAL166  LYS551  ARG553  GLY616  TRP617  ASP618  TYR619  PRO620  LYS621  CYS622 
 ASP623  PHE694  ASN695  SER759  ASP760  ASP761  ALA762  ILE779  LEU786  VAL792 
 PHE793  MET794  SER795  GLU796  ALA797  LYS798  CYS799  TRP800  GLU811  SER814 

> <Gold.Protein.RotatedAtoms>
  151.0150  134.9425  159.8027 H   0  0  0  0  0  0  0  0  0  0  0  0  # atno 6907 bound_to 6896
  152.5311  134.2979  159.9077 H   0  0  0  0  0  0  0  0  0  0  0  0  # atno 6908 bound_to 6896
  151.2985  133.4091  159.2672 H   0  0  0  0  0  0  0  0  0  0  0  0  # atno 6909 bound_to 6896
  146.2069  139.8021  142.8719 H   0  0  0  0  0  0  0  0  0  0  0  0  # atno 7974 bound_to 7965
  154.4215  140.1765  156.1562 H   0  0  0  0  0  0  0  0  0  0  0  0  # atno 8008 bound_to 7997
  155.9875  140.3372  155.6697 H   0  0  0  0  0  0  0  0  0  0  0  0  # atno 8009 bound_to 7997
  155.6417  140.0681  157.2607 H   0  0  0  0  0  0  0  0  0  0  0  0  # atno 8010 bound_to 7997
  139.6751  144.7123  151.1616 H   0  0  0  0  0  0  0  0  0  0  0  0  # atno 10167 bound_to 10162
  156.4414  130.4465  149.7050 H   0  0  0  0  0  0  0  0  0  0  0  0  # atno 10718 bound_to 10713
  153.2536  135.4253  155.0822 H   0  0  0  0  0  0  0  0  0  0  0  0  # atno 10763 bound_to 10752
  154.8392  135.3432  154.6478 H   0  0  0  0  0  0  0  0  0  0  0  0  # atno 10764 bound_to 10752
  153.6899  135.7034  153.5150 H   0  0  0  0  0  0  0  0  0  0  0  0  # atno 10765 bound_to 10752
  140.5351  134.5578  157.5085 H   0  0  0  0  0  0  0  0  0  0  0  0  # atno 11005 bound_to 11000
  145.3285  141.0261  143.3460 LP  0  0  0  0  0  0  0  0  0  0  0  0  # atno 17320 bound_to 7965
  144.8815  139.4897  143.6720 LP  0  0  0  0  0  0  0  0  0  0  0  0  # atno 17321 bound_to 7965
  140.7632  143.5784  150.8921 LP  0  0  0  0  0  0  0  0  0  0  0  0  # atno 17342 bound_to 10162
  139.9452  143.6336  152.3043 LP  0  0  0  0  0  0  0  0  0  0  0  0  # atno 17343 bound_to 10162
  156.3914  130.7629  151.2630 LP  0  0  0  0  0  0  0  0  0  0  0  0  # atno 17370 bound_to 10713
  157.7506  131.0267  150.3972 LP  0  0  0  0  0  0  0  0  0  0  0  0  # atno 17371 bound_to 10713
  139.9533  134.7578  156.0398 LP  0  0  0  0  0  0  0  0  0  0  0  0  # atno 17394 bound_to 11000
  141.1259  133.6599  156.3336 LP  0  0  0  0  0  0  0  0  0  0  0  0  # atno 17395 bound_to 11000

$$$$
