AV-unprocessed.smi:648|AV-procd|sdf|3177|dock5
  -GOLD-   22720 0103D 1   1.00000     0.00000
 Structure written by MMmdl.
 45 46  0  0  0  0  0  0  0  0  1 V2000
  142.2417  135.8017  154.0176 C   0  0  0  0  0  0  0  0  0  0  0  0
  143.6157  135.6444  153.3497 C   0  0  1  0  0  0  0  0  0  0  0  0
  143.5086  134.8351  152.0451 C   0  0  0  0  0  0  0  0  0  0  0  0
  144.8648  134.6389  151.3305 C   0  0  0  0  0  0  0  0  0  0  0  0
  145.7446  133.6170  152.0868 C   0  0  0  0  0  0  0  0  0  0  0  0
  144.5979  134.0494  149.9300 C   0  0  0  0  0  0  0  0  0  0  0  0
  145.5763  136.0116  151.1557 C   0  0  0  0  0  0  0  0  0  0  0  0
  145.6615  136.9303  152.4106 C   0  0  2  0  0  0  0  0  0  0  0  0
  146.1252  138.3342  151.9163 C   0  0  0  0  0  0  0  0  0  0  0  0
  147.3473  138.3166  151.2037 O   0  0  0  0  0  0  0  0  0  0  0  0
  146.6930  136.3713  153.3073 N   0  0  0  0  0  0  0  0  0  0  0  0
  146.9982  137.0779  154.5527 C   0  0  0  0  0  0  0  0  0  0  0  0
  148.4180  136.7389  155.0244 C   0  0  0  0  0  0  0  0  0  0  0  0
  149.2691  137.9112  155.0484 N   0  0  0  0  0  0  0  0  0  0  0  0
  149.7108  138.6828  154.0540 C   0  0  0  0  0  0  0  0  0  0  0  0
  150.4772  139.6873  154.4561 N   0  0  0  0  0  0  0  0  0  0  0  0
  150.4648  139.4583  155.8031 C   0  0  0  0  0  0  0  0  0  0  0  0
  149.7527  138.4078  156.2111 N   0  0  0  0  0  0  0  0  0  0  0  0
  144.2605  137.0156  153.0790 C   0  0  0  0  0  0  0  0  0  0  0  0
  141.5462  136.3418  153.3744 H   0  0  0  0  0  0  0  0  0  0  0  0
  142.3221  136.3513  154.9559 H   0  0  0  0  0  0  0  0  0  0  0  0
  141.8014  134.8302  154.2431 H   0  0  0  0  0  0  0  0  0  0  0  0
  144.2469  135.1013  154.0527 H   0  0  0  0  0  0  0  0  0  0  0  0
  143.0546  133.8643  152.2487 H   0  0  0  0  0  0  0  0  0  0  0  0
  142.8195  135.3514  151.3749 H   0  0  0  0  0  0  0  0  0  0  0  0
  146.7172  133.5034  151.6071 H   0  0  0  0  0  0  0  0  0  0  0  0
  145.2758  132.6328  152.1050 H   0  0  0  0  0  0  0  0  0  0  0  0
  145.9244  133.8927  153.1238 H   0  0  0  0  0  0  0  0  0  0  0  0
  145.5273  133.8960  149.3801 H   0  0  0  0  0  0  0  0  0  0  0  0
  143.9678  134.7065  149.3292 H   0  0  0  0  0  0  0  0  0  0  0  0
  144.0917  133.0855  149.9933 H   0  0  0  0  0  0  0  0  0  0  0  0
  146.5719  135.8613  150.7346 H   0  0  0  0  0  0  0  0  0  0  0  0
  145.0239  136.5527  150.3859 H   0  0  0  0  0  0  0  0  0  0  0  0
  145.3568  138.8097  151.3050 H   0  0  0  0  0  0  0  0  0  0  0  0
  146.2933  139.0010  152.7625 H   0  0  0  0  0  0  0  0  0  0  0  0
  147.8685  139.0541  151.4821 H   0  0  0  0  0  0  0  0  0  0  0  0
  147.5508  136.2286  152.7841 H   0  0  0  0  0  0  0  0  0  0  0  0
  146.9226  138.1554  154.4134 H   0  0  0  0  0  0  0  0  0  0  0  0
  146.2910  136.8029  155.3345 H   0  0  0  0  0  0  0  0  0  0  0  0
  148.3917  136.3110  156.0276 H   0  0  0  0  0  0  0  0  0  0  0  0
  148.8728  135.9927  154.3714 H   0  0  0  0  0  0  0  0  0  0  0  0
  149.4675  138.5070  153.0164 H   0  0  0  0  0  0  0  0  0  0  0  0
  150.9957  140.0857  156.5042 H   0  0  0  0  0  0  0  0  0  0  0  0
  143.5973  137.5774  152.4193 H   0  0  0  0  0  0  0  0  0  0  0  0
  144.2951  137.5923  154.0029 H   0  0  0  0  0  0  0  0  0  0  0  0
  1  2  1  0  0  0  0
  1 20  1  0  0  0  0
  1 21  1  0  0  0  0
  1 22  1  0  0  0  0
  2 19  1  0  0  0  0
  2  3  1  0  0  0  0
  2 23  1  0  0  0  0
  3  4  1  0  0  0  0
  3 24  1  0  0  0  0
  3 25  1  0  0  0  0
  4  5  1  0  0  0  0
  4  6  1  0  0  0  0
  4  7  1  0  0  0  0
  5 26  1  0  0  0  0
  5 27  1  0  0  0  0
  5 28  1  0  0  0  0
  6 29  1  0  0  0  0
  6 30  1  0  0  0  0
  6 31  1  0  0  0  0
  7  8  1  0  0  0  0
  7 32  1  0  0  0  0
  7 33  1  0  0  0  0
  8  9  1  0  0  0  0
  8 11  1  0  0  0  0
  8 19  1  0  0  0  0
  9 10  1  0  0  0  0
  9 34  1  0  0  0  0
  9 35  1  0  0  0  0
 10 36  1  0  0  0  0
 11 12  1  0  0  0  0
 11 37  1  0  0  0  0
 12 13  1  0  0  0  0
 12 38  1  0  0  0  0
 12 39  1  0  0  0  0
 13 14  1  0  0  0  0
 13 40  1  0  0  0  0
 13 41  1  0  0  0  0
 14 18  1  0  0  0  0
 14 15  1  0  0  0  0
 15 16  2  0  0  0  0
 15 42  1  0  0  0  0
 16 17  1  0  0  0  0
 17 18  2  0  0  0  0
 17 43  1  0  0  0  0
 19 44  1  0  0  0  0
 19 45  1  0  0  0  0
M  END
> <s_m_source_file>
AV-unprocessed.smi

> <i_m_source_file_index>
648

> <i_lp_mmshare_version>
43012

> <i_f3d_flags>
0

> <s_epik_input>
W0NIM11DMShbQ0gzXSlbQ0gyXVtDQEBIXShbQ0gzXSlbQ0gyXVtDQF0oW0NIMl0xKShbQ0gyXVtPSF0pW05IXVtDSDJdW0NIMl1uMltjSF1uW2NIXW4y

> <s_epik_cmdline>
J2VwaWtfcHl0aG9uJywgJy1waCcsICc3LjAnLCAnLXRuJywgJzgnLCAnLW1hJywgJzIwMCcsICctbWV0YWxfYmluZGluZycsICctaW1hZScsICc8aW5maWxlLm1hZT4nLCAnLW9tYWUnLCAnPG91dGZpbGUubWFlPic=

> <r_lp_tautomer_probability>
1

> <r_epik_Ionization_Penalty>
2.45849

> <r_epik_Ionization_Penalty_Charging>
0

> <r_epik_Ionization_Penalty_Neutral>
2.45849

> <r_epik_State_Penalty>
2.62037

> <r_epik_Charging_Adjusted_Penalty>
2.62037

> <i_epik_Tot_Q>
0

> <i_epik_Tot_abs_Q>
0

> <r_epik_Metal_State_Penalty>
2.62024

> <b_epik_Metal_Only>
0

> <s_lp_Force_Field>
OPLS_2005

> <r_lp_Energy>
32.8017

> <b_lp_Chiralities_Consistent>
1

> <s_lp_Variant>
AV-unprocessed.smi:648-8

> <Gold.Version>
5.8.1

> <Gold.Id.Protein>
6NUR|6NUR_protein|mol2

> <Gold.PLP.Fitness>
45.8074

> <Gold.PLP.PLP>
-29.3314

> <Gold.PLP.part.hbond>
-5.0000

> <Gold.PLP.part.metal>
0.0000

> <Gold.PLP.part.buried>
-1.3031

> <Gold.PLP.part.nonpolar>
-23.6563

> <Gold.PLP.part.repulsive>
0.1140

> <Gold.PLP.ligand.clash>
0.0000

> <Gold.PLP.ligand.torsion>
0.5506

> <Gold.PLP.Chemscore.Hbond>
3.8640

> <Gold.PLP.Chemscore.CHOScore>
1.9858

> <Gold.PLP.Chemscore.Metal>
0.0000

> <Gold.Chemscore.Hbonds>
donor molecule, donor type, donor heavy atom, donor atom, acceptor molecule, acceptor atom, score
      L1  H    10    36       P1  7957  0.85
      L1  H    11    37       P1  7948  1.00
      P1  H  7954  7966       L1    10  0.95
      P1  H  7989  7998       L1    16  1.00
      L1  C    15    42       P1  7948  0.89
      L1  C    15    42       P1  7957  0.99

> <Gold.PLP.Chemscore.Internal.Correction>
0.0277

> <Gold.Rescore>
     Score         DG    S(hbond)    S(metal)    S(lipo)     H(rot)  DE(clash)    DE(int)     intcor
     13.48     -15.42       3.34        0.00      57.93       3.12       1.36       0.58       ----

> <Gold.Chemscore.Fitness>
13.4841

> <Gold.Chemscore.DG>
-15.4230

> <Gold.Chemscore.ZeroCoef>
-5.4800

> <Gold.Chemscore.Hbond>
3.3377

> <Gold.Chemscore.Metal>
0.0000

> <Gold.Chemscore.Lipo>
57.9326

> <Gold.Chemscore.Internal_Hbond>
0.0000

> <Gold.Chemscore.DEClash>
1.3556

> <Gold.Chemscore.DEInternal>
0.5834

> <Gold.Chemscore.Rot>
3.1183

> <Gold.Chemscore.Internal.Correction>
   9.000000E+99

> <Gold.Chemscore.Hbonds>
donor molecule, donor type, donor heavy atom, donor atom, acceptor molecule, acceptor atom, score
      L1  H    10    36       P1  7957  0.69
      L1  H    11    37       P1  7948  1.00
      P1  H  7954  7966       L1    10  0.21
      P1  H  7989  7998       L1    16  1.00

> <Gold.Chemscore.Hbond.Weighted>
-11.1478

> <Gold.Chemscore.Metal.Weighted>
-0.0000

> <Gold.Chemscore.Lipo.Weighted>
-6.7781

> <Gold.Chemscore.Internal_Hbond.Weighted>
0.0000

> <Gold.Chemscore.DEClash.Weighted>
1.3556

> <Gold.Chemscore.DEInternal.Weighted>
0.5834

> <Gold.Chemscore.Rot.Weighted>
7.9829

> <Gold.Chemscore.Internal.Correction.Weighted>
   9.000000E+99

> <Gold.Protein.RotatedTorsions>
[ 6907 6896 6895 6894 ] final  138.75 input  -60.11 | X-H torsion
[ 7974 7965 7964 7962 ] final  174.48 input  175.53 | X-H torsion
[ 8008 7997 7996 7995 ] final  -67.39 input   59.86 | X-H torsion
[ 10167 10162 10161 10158 ] final  -17.73 input  -65.29 | X-H torsion
[ 10718 10713 10712 10709 ] final  171.94 input   66.30 | X-H torsion
[ 10763 10752 10751 10750 ] final  -68.59 input  -60.55 | X-H torsion
[ 11005 11000 10999 10996 ] final  -18.11 input  -57.11 | X-H torsion

> <Gold.Protein.ActiveResidues>
 VAL166  LYS551  ARG553  GLY616  TRP617  ASP618  TYR619  PRO620  LYS621  CYS622 
 ASP623  PHE694  ASN695  SER759  ASP760  ASP761  ALA762  ILE779  LEU786  VAL792 
 PHE793  MET794  SER795  GLU796  ALA797  LYS798  CYS799  TRP800  GLU811  SER814 

> <Gold.Protein.RotatedAtoms>
  152.2629  133.5313  159.5392 H   0  0  0  0  0  0  0  0  0  0  0  0  # atno 6907 bound_to 6896
  150.7131  134.0804  159.3905 H   0  0  0  0  0  0  0  0  0  0  0  0  # atno 6908 bound_to 6896
  151.8722  135.0485  160.0531 H   0  0  0  0  0  0  0  0  0  0  0  0  # atno 6909 bound_to 6896
  144.7221  139.9803  143.6438 H   0  0  0  0  0  0  0  0  0  0  0  0  # atno 7974 bound_to 7965
  154.4797  140.0893  156.7347 H   0  0  0  0  0  0  0  0  0  0  0  0  # atno 8008 bound_to 7997
  155.4503  140.3457  155.4282 H   0  0  0  0  0  0  0  0  0  0  0  0  # atno 8009 bound_to 7997
  156.1172  140.1464  156.9244 H   0  0  0  0  0  0  0  0  0  0  0  0  # atno 8010 bound_to 7997
  140.7250  143.4986  150.9898 H   0  0  0  0  0  0  0  0  0  0  0  0  # atno 10167 bound_to 10162
  156.9861  131.0134  151.2869 H   0  0  0  0  0  0  0  0  0  0  0  0  # atno 10718 bound_to 10713
  154.3913  135.6052  153.5845 H   0  0  0  0  0  0  0  0  0  0  0  0  # atno 10763 bound_to 10752
  152.9787  135.5884  154.4294 H   0  0  0  0  0  0  0  0  0  0  0  0  # atno 10764 bound_to 10752
  154.4079  135.2844  155.2033 H   0  0  0  0  0  0  0  0  0  0  0  0  # atno 10765 bound_to 10752
  140.8236  133.8050  155.9685 H   0  0  0  0  0  0  0  0  0  0  0  0  # atno 11005 bound_to 11000
  146.0493  139.3495  143.0649 LP  0  0  0  0  0  0  0  0  0  0  0  0  # atno 17320 bound_to 7965
  145.8236  140.9667  143.0886 LP  0  0  0  0  0  0  0  0  0  0  0  0  # atno 17321 bound_to 7965
  139.8694  143.7211  152.3167 LP  0  0  0  0  0  0  0  0  0  0  0  0  # atno 17342 bound_to 10162
  139.7455  144.7548  151.0587 LP  0  0  0  0  0  0  0  0  0  0  0  0  # atno 17343 bound_to 10162
  157.5491  130.8170  149.8123 LP  0  0  0  0  0  0  0  0  0  0  0  0  # atno 17370 bound_to 10713
  156.0225  130.3790  150.1919 LP  0  0  0  0  0  0  0  0  0  0  0  0  # atno 17371 bound_to 10713
  140.9073  134.2304  157.5007 LP  0  0  0  0  0  0  0  0  0  0  0  0  # atno 17394 bound_to 11000
  139.8707  134.9734  156.4808 LP  0  0  0  0  0  0  0  0  0  0  0  0  # atno 17395 bound_to 11000

$$$$
