AV-unprocessed.smi:2684|AV-procd|sdf|10380|dock5
  -GOLD-   2272014413D 1   1.00000     0.00000
 Structure written by MMmdl.
 44 45  0  0  0  0  0  0  0  0  1 V2000
  151.5130  141.5890  158.6002 C   0  0  0  0  0  0  0  0  0  0  0  0
  151.0197  141.2371  157.2272 C   0  0  0  0  0  0  0  0  0  0  0  0
  151.5851  140.3123  156.3043 C   0  0  0  0  0  0  0  0  0  0  0  0
  150.9109  140.2422  155.1681 N   0  0  0  0  0  0  0  0  0  0  0  0
  149.8874  141.1081  155.3295 N   0  0  0  0  0  0  0  0  0  0  0  0
  148.9266  141.3042  154.2583 C   0  0  0  0  0  0  0  0  0  0  0  0
  147.9323  140.1328  154.0890 C   0  0  2  0  0  0  0  0  0  0  0  0
  148.6639  138.7848  154.1516 C   0  0  0  0  0  0  0  0  0  0  0  0
  147.2642  140.1997  152.7915 N   0  0  0  0  0  0  0  0  0  0  0  0
  146.0544  139.3688  152.7453 C   0  0  0  0  0  0  0  0  0  0  0  0
  146.2425  138.1433  151.8403 C   0  0  0  0  0  0  0  0  0  0  0  0
  146.9022  138.2605  150.8091 O   0  0  0  0  0  0  0  0  0  0  0  0
  145.7044  136.9560  152.1726 N   0  0  0  0  0  0  0  0  0  0  0  0
  145.7693  135.6856  151.4529 C   0  0  0  0  0  0  0  0  0  0  0  0
  144.4006  135.2991  150.8612 C   0  0  0  0  0  0  0  0  0  0  0  0
  144.4520  133.8876  150.2558 C   0  0  0  0  0  0  0  0  0  0  0  0
  144.8589  132.9492  151.2455 O   0  0  0  0  0  0  0  0  0  0  0  0
  146.1687  133.1998  151.7421 C   0  0  0  0  0  0  0  0  0  0  0  0
  146.2251  134.5798  152.4175 C   0  0  0  0  0  0  0  0  0  0  0  0
  149.9315  141.7253  156.5613 C   0  0  0  0  0  0  0  0  0  0  0  0
  152.1061  140.7848  159.0360 H   0  0  0  0  0  0  0  0  0  0  0  0
  150.6887  141.7889  159.2852 H   0  0  0  0  0  0  0  0  0  0  0  0
  152.1415  142.4798  158.5840 H   0  0  0  0  0  0  0  0  0  0  0  0
  152.4641  139.6964  156.4242 H   0  0  0  0  0  0  0  0  0  0  0  0
  148.3895  142.2372  154.4375 H   0  0  0  0  0  0  0  0  0  0  0  0
  149.4897  141.4481  153.3349 H   0  0  0  0  0  0  0  0  0  0  0  0
  147.2029  140.1417  154.9013 H   0  0  0  0  0  0  0  0  0  0  0  0
  149.1712  138.6602  155.1086 H   0  0  0  0  0  0  0  0  0  0  0  0
  149.4155  138.6999  153.3657 H   0  0  0  0  0  0  0  0  0  0  0  0
  147.9683  137.9520  154.0407 H   0  0  0  0  0  0  0  0  0  0  0  0
  147.9160  139.9118  152.0754 H   0  0  0  0  0  0  0  0  0  0  0  0
  145.8242  139.0088  153.7488 H   0  0  0  0  0  0  0  0  0  0  0  0
  145.2103  139.9760  152.4331 H   0  0  0  0  0  0  0  0  0  0  0  0
  145.1938  136.9314  153.0433 H   0  0  0  0  0  0  0  0  0  0  0  0
  146.5107  135.7551  150.6564 H   0  0  0  0  0  0  0  0  0  0  0  0
  143.6392  135.3263  151.6419 H   0  0  0  0  0  0  0  0  0  0  0  0
  144.0865  136.0113  150.0988 H   0  0  0  0  0  0  0  0  0  0  0  0
  143.4669  133.6032  149.8857 H   0  0  0  0  0  0  0  0  0  0  0  0
  145.1333  133.8548  149.4043 H   0  0  0  0  0  0  0  0  0  0  0  0
  146.4268  132.4219  152.4608 H   0  0  0  0  0  0  0  0  0  0  0  0
  146.8941  133.1330  150.9315 H   0  0  0  0  0  0  0  0  0  0  0  0
  147.2371  134.7796  152.7713 H   0  0  0  0  0  0  0  0  0  0  0  0
  145.5832  134.5688  153.2997 H   0  0  0  0  0  0  0  0  0  0  0  0
  149.1917  142.4537  156.8590 H   0  0  0  0  0  0  0  0  0  0  0  0
  1  2  1  0  0  0  0
  1 21  1  0  0  0  0
  1 22  1  0  0  0  0
  1 23  1  0  0  0  0
  2 20  2  0  0  0  0
  2  3  1  0  0  0  0
  3  4  2  0  0  0  0
  3 24  1  0  0  0  0
  4  5  1  0  0  0  0
  5  6  1  0  0  0  0
  5 20  1  0  0  0  0
  6  7  1  0  0  0  0
  6 25  1  0  0  0  0
  6 26  1  0  0  0  0
  7  8  1  0  0  0  0
  7  9  1  0  0  0  0
  7 27  1  0  0  0  0
  8 28  1  0  0  0  0
  8 29  1  0  0  0  0
  8 30  1  0  0  0  0
  9 10  1  0  0  0  0
  9 31  1  0  0  0  0
 10 11  1  0  0  0  0
 10 32  1  0  0  0  0
 10 33  1  0  0  0  0
 11 12  2  0  0  0  0
 11 13  1  0  0  0  0
 13 14  1  0  0  0  0
 13 34  1  0  0  0  0
 14 19  1  0  0  0  0
 14 15  1  0  0  0  0
 14 35  1  0  0  0  0
 15 16  1  0  0  0  0
 15 36  1  0  0  0  0
 15 37  1  0  0  0  0
 16 17  1  0  0  0  0
 16 38  1  0  0  0  0
 16 39  1  0  0  0  0
 17 18  1  0  0  0  0
 18 19  1  0  0  0  0
 18 40  1  0  0  0  0
 18 41  1  0  0  0  0
 19 42  1  0  0  0  0
 19 43  1  0  0  0  0
 20 44  1  0  0  0  0
M  END
> <s_m_source_file>
AV-unprocessed.smi

> <i_m_source_file_index>
2684

> <i_lp_mmshare_version>
43012

> <i_f3d_flags>
0

> <s_epik_input>
W0NIM11jMVtjSF1ubihbY0hdMSlbQ0gyXVtDQEhdKFtDSDNdKVtOSF1bQ0gyXUMoPU8pW05IXVtDSF0yW0NIMl1bQ0gyXU9bQ0gyXVtDSDJdMg==

> <s_epik_cmdline>
J2VwaWtfcHl0aG9uJywgJy1waCcsICc3LjAnLCAnLXRuJywgJzgnLCAnLW1hJywgJzIwMCcsICctbWV0YWxfYmluZGluZycsICctaW1hZScsICc8aW5maWxlLm1hZT4nLCAnLW9tYWUnLCAnPG91dGZpbGUubWFlPic=

> <r_lp_tautomer_probability>
1

> <r_epik_Ionization_Penalty>
0.968507

> <r_epik_Ionization_Penalty_Charging>
0

> <r_epik_Ionization_Penalty_Neutral>
0.968507

> <r_epik_State_Penalty>
1.01412

> <r_epik_Charging_Adjusted_Penalty>
1.01412

> <i_epik_Tot_Q>
0

> <i_epik_Tot_abs_Q>
0

> <r_epik_Metal_State_Penalty>
1.01401

> <b_epik_Metal_Only>
0

> <s_lp_Force_Field>
OPLS_2005

> <r_lp_Energy>
12.1402

> <b_lp_Chiralities_Consistent>
1

> <s_lp_Variant>
AV-unprocessed.smi:2684-3

> <Gold.Version>
5.8.1

> <Gold.Id.Protein>
6NUR|6NUR_protein|mol2

> <Gold.PLP.Fitness>
42.9722

> <Gold.PLP.PLP>
-33.5470

> <Gold.PLP.part.hbond>
-3.0000

> <Gold.PLP.part.metal>
0.0000

> <Gold.PLP.part.buried>
0.7752

> <Gold.PLP.part.nonpolar>
-33.5732

> <Gold.PLP.part.repulsive>
0.9799

> <Gold.PLP.ligand.clash>
0.0000

> <Gold.PLP.ligand.torsion>
1.1733

> <Gold.PLP.Chemscore.Hbond>
3.0000

> <Gold.PLP.Chemscore.CHOScore>
0.9149

> <Gold.PLP.Chemscore.Metal>
0.0000

> <Gold.Chemscore.Hbonds>
donor molecule, donor type, donor heavy atom, donor atom, acceptor molecule, acceptor atom, score
      L1  H     9    31       P1  7957  1.00
      P1  H  7954  7966       L1    12  1.00
      P1  H  7989  7998       L1     4  1.00
      L1  C    20    44       P1  8028  0.76

> <Gold.PLP.Chemscore.Internal.Correction>
0.0272

> <Gold.Rescore>
     Score         DG    S(hbond)    S(metal)    S(lipo)     H(rot)  DE(clash)    DE(int)     intcor
     15.30     -18.80       2.74        0.00      78.76       1.97       2.16       1.34       ----

> <Gold.Chemscore.Fitness>
15.3013

> <Gold.Chemscore.DG>
-18.8021

> <Gold.Chemscore.ZeroCoef>
-5.4800

> <Gold.Chemscore.Hbond>
2.7424

> <Gold.Chemscore.Metal>
0.0000

> <Gold.Chemscore.Lipo>
78.7596

> <Gold.Chemscore.Internal_Hbond>
0.0000

> <Gold.Chemscore.DEClash>
2.1648

> <Gold.Chemscore.DEInternal>
1.3360

> <Gold.Chemscore.Rot>
1.9736

> <Gold.Chemscore.Internal.Correction>
   9.000000E+99

> <Gold.Chemscore.Hbonds>
donor molecule, donor type, donor heavy atom, donor atom, acceptor molecule, acceptor atom, score
      L1  H     9    31       P1  7957  0.97
      P1  H  7954  7966       L1    12  0.97
      P1  H  7989  7998       L1     4  0.25

> <Gold.Chemscore.Hbond.Weighted>
-9.1596

> <Gold.Chemscore.Metal.Weighted>
-0.0000

> <Gold.Chemscore.Lipo.Weighted>
-9.2149

> <Gold.Chemscore.Internal_Hbond.Weighted>
0.0000

> <Gold.Chemscore.DEClash.Weighted>
2.1648

> <Gold.Chemscore.DEInternal.Weighted>
1.3360

> <Gold.Chemscore.Rot.Weighted>
5.0523

> <Gold.Chemscore.Internal.Correction.Weighted>
   9.000000E+99

> <Gold.Protein.RotatedTorsions>
[ 6907 6896 6895 6894 ] final  -39.48 input  -60.11 | X-H torsion
[ 7974 7965 7964 7962 ] final   95.60 input  175.53 | X-H torsion
[ 8008 7997 7996 7995 ] final  -59.13 input   59.86 | X-H torsion
[ 10167 10162 10161 10158 ] final  -88.82 input  -65.29 | X-H torsion
[ 10718 10713 10712 10709 ] final  -25.66 input   66.30 | X-H torsion
[ 10763 10752 10751 10750 ] final  -20.53 input  -60.55 | X-H torsion
[ 11005 11000 10999 10996 ] final  152.01 input  -57.11 | X-H torsion

> <Gold.Protein.ActiveResidues>
 VAL166  LYS551  ARG553  GLY616  TRP617  ASP618  TYR619  PRO620  LYS621  CYS622 
 ASP623  PHE694  ASN695  SER759  ASP760  ASP761  ALA762  ILE779  LEU786  VAL792 
 PHE793  MET794  SER795  GLU796  ALA797  LYS798  CYS799  TRP800  GLU811  SER814 

> <Gold.Protein.RotatedAtoms>
  150.9898  134.9235  159.7892 H   0  0  0  0  0  0  0  0  0  0  0  0  # atno 6907 bound_to 6896
  152.5247  134.3297  159.9188 H   0  0  0  0  0  0  0  0  0  0  0  0  # atno 6908 bound_to 6896
  151.3303  133.3962  159.2696 H   0  0  0  0  0  0  0  0  0  0  0  0  # atno 6909 bound_to 6896
  145.4500  139.2294  143.3045 H   0  0  0  0  0  0  0  0  0  0  0  0  # atno 7974 bound_to 7965
  154.4339  140.1068  156.6068 H   0  0  0  0  0  0  0  0  0  0  0  0  # atno 8008 bound_to 7997
  155.5853  140.3491  155.4532 H   0  0  0  0  0  0  0  0  0  0  0  0  # atno 8009 bound_to 7997
  156.0288  140.1256  157.0270 H   0  0  0  0  0  0  0  0  0  0  0  0  # atno 8010 bound_to 7997
  140.3709  143.2795  151.9501 H   0  0  0  0  0  0  0  0  0  0  0  0  # atno 10167 bound_to 10162
  156.4614  130.4505  149.6926 H   0  0  0  0  0  0  0  0  0  0  0  0  # atno 10718 bound_to 10713
  153.6219  135.6992  153.5307 H   0  0  0  0  0  0  0  0  0  0  0  0  # atno 10763 bound_to 10752
  153.2930  135.4151  155.1184 H   0  0  0  0  0  0  0  0  0  0  0  0  # atno 10764 bound_to 10752
  154.8541  135.3630  154.5760 H   0  0  0  0  0  0  0  0  0  0  0  0  # atno 10765 bound_to 10752
  140.1270  134.8827  157.2151 H   0  0  0  0  0  0  0  0  0  0  0  0  # atno 11005 bound_to 11000
  146.2509  140.5258  142.8894 LP  0  0  0  0  0  0  0  0  0  0  0  0  # atno 17320 bound_to 7965
  144.8067  140.6313  143.6442 LP  0  0  0  0  0  0  0  0  0  0  0  0  # atno 17321 bound_to 7965
  139.4804  144.5907  151.7776 LP  0  0  0  0  0  0  0  0  0  0  0  0  # atno 17342 bound_to 10162
  140.5034  144.1135  150.5976 LP  0  0  0  0  0  0  0  0  0  0  0  0  # atno 17343 bound_to 10162
  156.3712  130.7531  151.2515 LP  0  0  0  0  0  0  0  0  0  0  0  0  # atno 17370 bound_to 10713
  157.7497  131.0322  150.4218 LP  0  0  0  0  0  0  0  0  0  0  0  0  # atno 17371 bound_to 10713
  140.2892  134.3260  155.7320 LP  0  0  0  0  0  0  0  0  0  0  0  0  # atno 17394 bound_to 11000
  141.2163  133.7524  156.9477 LP  0  0  0  0  0  0  0  0  0  0  0  0  # atno 17395 bound_to 11000

$$$$
