AV-unprocessed.smi:2636|AV-procd|sdf|10259|dock6
  -GOLD-   2272014273D 1   1.00000     0.00000
 Structure written by MMmdl.
 35 36  0  0  0  0  0  0  0  0  2 V2000
  156.2409  143.7968  165.9894 C   0  0  0  0  0  0  0  0  0  0  0  0
  156.2149  142.2792  166.0044 C   0  0  0  0  0  0  0  0  0  0  0  0
  156.3589  141.5367  164.8873 C   0  0  0  0  0  0  0  0  0  0  0  0
  156.3363  140.1328  164.9135 N   0  0  0  0  0  0  0  0  0  0  0  0
  156.5555  139.4073  163.6739 C   0  0  0  0  0  0  0  0  0  0  0  0
  156.0468  140.1559  162.6193 O   0  0  0  0  0  0  0  0  0  0  0  0
  154.6317  140.1050  162.5326 C   0  0  0  0  0  0  0  0  0  0  0  0
  154.0882  141.0755  161.5011 C   0  0  0  0  0  0  0  0  0  0  0  0
  153.4632  142.2361  161.7780 C   0  0  0  0  0  0  0  0  0  0  0  0
  152.9243  143.1977  160.7989 C   0  0  0  0  0  0  0  0  0  0  0  0
  152.8233  142.9062  159.4175 C   0  0  0  0  0  0  0  0  0  0  0  0
  152.2999  143.8584  158.5209 C   0  0  0  0  0  0  0  0  0  0  0  0
  151.8696  145.1118  158.9935 C   0  0  0  0  0  0  0  0  0  0  0  0
  151.9640  145.4119  160.3650 C   0  0  0  0  0  0  0  0  0  0  0  0
  152.4890  144.4595  161.2602 C   0  0  0  0  0  0  0  0  0  0  0  0
  156.2044  139.4675  166.0996 C   0  0  0  0  0  0  0  0  0  0  0  0
  156.2250  138.2358  166.1050 O   0  0  0  0  0  0  0  0  0  0  0  0
  156.0474  140.2002  167.2444 N   0  5  0  0  0  0  0  0  0  0  0  0
  156.0382  141.5653  167.2718 C   0  0  0  0  0  0  0  0  0  0  0  0
  155.8896  142.2023  168.3141 O   0  0  0  0  0  0  0  0  0  0  0  0
  156.3676  144.1787  164.9760 H   0  0  0  0  0  0  0  0  0  0  0  0
  157.0660  144.1690  166.5975 H   0  0  0  0  0  0  0  0  0  0  0  0
  155.3092  144.1984  166.3888 H   0  0  0  0  0  0  0  0  0  0  0  0
  156.5056  141.9728  163.9100 H   0  0  0  0  0  0  0  0  0  0  0  0
  157.6267  139.2325  163.5515 H   0  0  0  0  0  0  0  0  0  0  0  0
  156.0559  138.4385  163.7240 H   0  0  0  0  0  0  0  0  0  0  0  0
  154.3111  139.0978  162.2626 H   0  0  0  0  0  0  0  0  0  0  0  0
  154.1872  140.3456  163.4993 H   0  0  0  0  0  0  0  0  0  0  0  0
  154.2368  140.7680  160.4777 H   0  0  0  0  0  0  0  0  0  0  0  0
  153.3321  142.5113  162.8148 H   0  0  0  0  0  0  0  0  0  0  0  0
  153.1434  141.9545  159.0228 H   0  0  0  0  0  0  0  0  0  0  0  0
  152.2288  143.6258  157.4684 H   0  0  0  0  0  0  0  0  0  0  0  0
  151.4682  145.8412  158.3054 H   0  0  0  0  0  0  0  0  0  0  0  0
  151.6352  146.3731  160.7314 H   0  0  0  0  0  0  0  0  0  0  0  0
  152.5562  144.7048  162.3104 H   0  0  0  0  0  0  0  0  0  0  0  0
  1  2  1  0  0  0  0
  1 21  1  0  0  0  0
  1 22  1  0  0  0  0
  1 23  1  0  0  0  0
  2 19  1  0  0  0  0
  2  3  2  0  0  0  0
  3  4  1  0  0  0  0
  3 24  1  0  0  0  0
  4  5  1  0  0  0  0
  4 16  1  0  0  0  0
  5  6  1  0  0  0  0
  5 25  1  0  0  0  0
  5 26  1  0  0  0  0
  6  7  1  0  0  0  0
  7  8  1  0  0  0  0
  7 27  1  0  0  0  0
  7 28  1  0  0  0  0
  8  9  2  0  0  0  0
  8 29  1  0  0  0  0
  9 10  1  0  0  0  0
  9 30  1  0  0  0  0
 10 15  1  0  0  0  0
 10 11  2  0  0  0  0
 11 12  1  0  0  0  0
 11 31  1  0  0  0  0
 12 13  2  0  0  0  0
 12 32  1  0  0  0  0
 13 14  1  0  0  0  0
 13 33  1  0  0  0  0
 14 15  2  0  0  0  0
 14 34  1  0  0  0  0
 15 35  1  0  0  0  0
 16 17  2  0  0  0  0
 16 18  1  0  0  0  0
 18 19  1  0  0  0  0
 19 20  2  0  0  0  0
M  CHG  1  18  -1
M  END
> <s_m_source_file>
AV-unprocessed.smi

> <i_m_source_file_index>
2636

> <i_lp_mmshare_version>
43012

> <i_f3d_flags>
0

> <s_epik_input>
Tz1jMVtuSF1jKD1PKW4oW2NIXWMxW0NIM10pW0NIMl1PW0NIMl0vW0NIXT1bQ0hdL2MyW2NIXVtjSF1bY0hdW2NIXVtjSF0y

> <s_epik_cmdline>
J2VwaWtfcHl0aG9uJywgJy1waCcsICc3LjAnLCAnLXRuJywgJzgnLCAnLW1hJywgJzIwMCcsICctbWV0YWxfYmluZGluZycsICctaW1hZScsICc8aW5maWxlLm1hZT4nLCAnLW9tYWUnLCAnPG91dGZpbGUubWFlPic=

> <r_lp_tautomer_probability>
0.999537

> <r_epik_Ionization_Penalty>
3.43625

> <r_epik_Ionization_Penalty_Charging>
7.29021e-08

> <r_epik_Ionization_Penalty_Neutral>
3.43625

> <r_epik_State_Penalty>
3.43567

> <r_epik_Charging_Adjusted_Penalty>
3.43567

> <i_epik_Tot_Q>
-1

> <i_epik_Tot_abs_Q>
1

> <r_epik_Metal_State_Penalty>
0.168611

> <b_epik_Metal_Only>
1

> <s_epik_Chemistry_Notes>
This compound contains an acetal/aminal-like group ( X-CH(R)-Y where X, Y are N, S, or O) that may be acid/base labile, releasing an aldehyde.

> <s_lp_Force_Field>
OPLS_2005

> <r_lp_Energy>
15.3134

> <b_lp_Chiralities_Consistent>
1

> <s_lp_Variant>
AV-unprocessed.smi:2636-3

> <Gold.Version>
5.8.1

> <Gold.Id.Protein>
6NUR|6NUR_protein|mol2

> <Gold.PLP.Fitness>
50.7476

> <Gold.PLP.PLP>
-51.8263

> <Gold.PLP.part.hbond>
-1.9393

> <Gold.PLP.part.metal>
0.0000

> <Gold.PLP.part.buried>
-7.0967

> <Gold.PLP.part.nonpolar>
-43.0065

> <Gold.PLP.part.repulsive>
0.3826

> <Gold.PLP.ligand.clash>
0.0000

> <Gold.PLP.ligand.torsion>
0.5602

> <Gold.PLP.Chemscore.Hbond>
0.0000

> <Gold.PLP.Chemscore.CHOScore>
0.0000

> <Gold.PLP.Chemscore.Metal>
0.0000

> <Gold.PLP.Chemscore.Internal.Correction>
0.0417

> <Gold.Rescore>
     Score         DG    S(hbond)    S(metal)    S(lipo)     H(rot)  DE(clash)    DE(int)     intcor
     14.00     -14.61       0.00        0.00     119.20       1.88       0.06       0.56       ----

> <Gold.Chemscore.Fitness>
13.9963

> <Gold.Chemscore.DG>
-14.6135

> <Gold.Chemscore.ZeroCoef>
-5.4800

> <Gold.Chemscore.Hbond>
0.0000

> <Gold.Chemscore.Metal>
0.0000

> <Gold.Chemscore.Lipo>
119.1992

> <Gold.Chemscore.Internal_Hbond>
0.0000

> <Gold.Chemscore.DEClash>
0.0599

> <Gold.Chemscore.DEInternal>
0.5572

> <Gold.Chemscore.Rot>
1.8800

> <Gold.Chemscore.Internal.Correction>
   9.000000E+99

> <Gold.Chemscore.Hbond.Weighted>
-0.0000

> <Gold.Chemscore.Metal.Weighted>
-0.0000

> <Gold.Chemscore.Lipo.Weighted>
-13.9463

> <Gold.Chemscore.Internal_Hbond.Weighted>
0.0000

> <Gold.Chemscore.DEClash.Weighted>
0.0599

> <Gold.Chemscore.DEInternal.Weighted>
0.5572

> <Gold.Chemscore.Rot.Weighted>
4.8129

> <Gold.Chemscore.Internal.Correction.Weighted>
   9.000000E+99

> <Gold.Protein.RotatedTorsions>
[ 6907 6896 6895 6894 ] final   82.98 input  -60.11 | X-H torsion
[ 7974 7965 7964 7962 ] final -179.86 input  175.53 | X-H torsion
[ 8008 7997 7996 7995 ] final   43.49 input   59.86 | X-H torsion
[ 10167 10162 10161 10158 ] final -149.14 input  -65.29 | X-H torsion
[ 10718 10713 10712 10709 ] final   44.49 input   66.30 | X-H torsion
[ 10763 10752 10751 10750 ] final -148.17 input  -60.55 | X-H torsion
[ 11005 11000 10999 10996 ] final   98.44 input  -57.11 | X-H torsion

> <Gold.Protein.ActiveResidues>
 VAL166  LYS551  ARG553  GLY616  TRP617  ASP618  TYR619  PRO620  LYS621  CYS622 
 ASP623  PHE694  ASN695  SER759  ASP760  ASP761  ALA762  ILE779  LEU786  VAL792 
 PHE793  MET794  SER795  GLU796  ALA797  LYS798  CYS799  TRP800  GLU811  SER814 

> <Gold.Protein.RotatedAtoms>
  152.5314  134.2967  159.9062 H   0  0  0  0  0  0  0  0  0  0  0  0  # atno 6907 bound_to 6896
  151.2918  133.4155  159.2641 H   0  0  0  0  0  0  0  0  0  0  0  0  # atno 6908 bound_to 6896
  151.0194  134.9473  159.8108 H   0  0  0  0  0  0  0  0  0  0  0  0  # atno 6909 bound_to 6896
  144.7140  140.0654  143.6431 H   0  0  0  0  0  0  0  0  0  0  0  0  # atno 7974 bound_to 7965
  155.3036  140.3386  155.4246 H   0  0  0  0  0  0  0  0  0  0  0  0  # atno 8008 bound_to 7997
  156.1989  140.1725  156.7978 H   0  0  0  0  0  0  0  0  0  0  0  0  # atno 8009 bound_to 7997
  154.5534  140.0701  156.8689 H   0  0  0  0  0  0  0  0  0  0  0  0  # atno 8010 bound_to 7997
  139.7469  143.8577  152.2577 H   0  0  0  0  0  0  0  0  0  0  0  0  # atno 10167 bound_to 10162
  157.4274  130.8004  149.7571 H   0  0  0  0  0  0  0  0  0  0  0  0  # atno 10718 bound_to 10713
  154.8247  135.3341  154.6933 H   0  0  0  0  0  0  0  0  0  0  0  0  # atno 10763 bound_to 10752
  153.7560  135.6936  153.4940 H   0  0  0  0  0  0  0  0  0  0  0  0  # atno 10764 bound_to 10752
  153.2143  135.4471  155.0366 H   0  0  0  0  0  0  0  0  0  0  0  0  # atno 10765 bound_to 10752
  139.8772  134.9049  156.4457 H   0  0  0  0  0  0  0  0  0  0  0  0  # atno 11005 bound_to 11000
  145.9829  139.2955  143.1031 LP  0  0  0  0  0  0  0  0  0  0  0  0  # atno 17320 bound_to 7965
  145.8990  140.9255  143.0512 LP  0  0  0  0  0  0  0  0  0  0  0  0  # atno 17321 bound_to 7965
  139.8544  144.7148  150.9175 LP  0  0  0  0  0  0  0  0  0  0  0  0  # atno 17342 bound_to 10162
  140.7793  143.3871  151.1374 LP  0  0  0  0  0  0  0  0  0  0  0  0  # atno 17343 bound_to 10162
  155.9901  130.3947  150.3043 LP  0  0  0  0  0  0  0  0  0  0  0  0  # atno 17370 bound_to 10713
  157.1196  131.0243  151.3014 LP  0  0  0  0  0  0  0  0  0  0  0  0  # atno 17371 bound_to 10713
  140.8968  133.7808  155.9634 LP  0  0  0  0  0  0  0  0  0  0  0  0  # atno 17394 bound_to 11000
  140.8694  134.2744  157.5197 LP  0  0  0  0  0  0  0  0  0  0  0  0  # atno 17395 bound_to 11000

$$$$
