AV-unprocessed.smi:290|AV-procd|sdf|2220|dock4
  -GOLD-   2262022 63D 1   1.00000     0.00000
 Structure written by MMmdl.
 59 62  0  0  0  0  0  0  0  0  2 V2000
  149.9835  138.7718  157.3850 C   0  0  0  0  0  0  0  0  0  0  0  0
  149.7621  140.2850  157.2277 C   0  0  1  0  0  0  0  0  0  0  0  0
  150.5981  141.0044  158.1233 O   0  0  0  0  0  0  0  0  0  0  0  0
  150.6704  142.3364  157.6485 C   0  0  0  0  0  0  0  0  0  0  0  0
  150.8705  142.1435  156.1510 C   0  0  0  0  0  0  0  0  0  0  0  0
  150.0415  140.8971  155.8283 C   0  0  1  0  0  0  0  0  0  0  0  0
  150.8316  140.0377  155.0235 O   0  0  0  0  0  0  0  0  0  0  0  0
  148.7493  141.2474  155.0494 C   0  0  0  0  0  0  0  0  0  0  0  0
  148.1248  140.0985  154.4112 N   0  0  0  0  0  0  0  0  0  0  0  0
  148.0389  139.8482  153.0593 C   0  0  0  0  0  0  0  0  0  0  0  0
  147.4209  138.7455  152.7334 N   0  0  0  0  0  0  0  0  0  0  0  0
  147.0641  138.1896  153.9546 C   0  0  0  0  0  0  0  0  0  0  0  0
  146.3836  137.0046  154.3350 C   0  0  0  0  0  0  0  0  0  0  0  0
  145.9260  136.1242  153.4157 N   0  0  0  0  0  0  0  0  0  0  0  0
  145.2456  136.7279  152.2857 C   0  0  0  0  0  0  0  0  0  0  0  0
  144.4874  135.5862  151.6104 C   0  0  0  0  0  0  0  0  0  0  0  0
  144.4224  134.4456  152.6484 C   0  0  2  0  0  0  0  0  0  0  0  0
  143.0300  133.9117  152.7844 N   0  3  1  0  0  0  0  0  0  0  0  0
  142.0920  134.9764  153.2272 C   0  0  0  0  0  0  0  0  0  0  0  0
  142.5142  133.1584  151.6052 C   0  0  0  0  0  0  0  0  0  0  0  0
  143.5742  132.2797  150.9140 C   0  0  0  0  0  0  0  0  0  0  0  0
  143.1068  131.8471  149.6532 O   0  0  0  0  0  0  0  0  0  0  0  0
  145.0497  135.0731  153.9179 C   0  0  1  0  0  0  0  0  0  0  0  0
  145.8522  134.0768  154.7838 C   0  0  0  0  0  0  0  0  0  0  0  0
  146.2175  136.7629  155.6624 N   0  0  0  0  0  0  0  0  0  0  0  0
  146.6860  137.6343  156.5617 C   0  0  0  0  0  0  0  0  0  0  0  0
  147.3380  138.7805  156.3530 N   0  0  0  0  0  0  0  0  0  0  0  0
  147.5052  139.0214  155.0206 C   0  0  0  0  0  0  0  0  0  0  0  0
  145.0738  133.6365  152.3123 H   0  0  0  0  0  0  0  0  0  0  0  0
  144.2667  135.5400  154.5173 H   0  0  0  0  0  0  0  0  0  0  0  0
  149.3602  138.2085  156.6899 H   0  0  0  0  0  0  0  0  0  0  0  0
  149.7298  138.4476  158.3942 H   0  0  0  0  0  0  0  0  0  0  0  0
  151.0235  138.4982  157.2047 H   0  0  0  0  0  0  0  0  0  0  0  0
  148.7389  140.5171  157.5259 H   0  0  0  0  0  0  0  0  0  0  0  0
  149.7334  142.8559  157.8566 H   0  0  0  0  0  0  0  0  0  0  0  0
  151.4854  142.8890  158.1162 H   0  0  0  0  0  0  0  0  0  0  0  0
  150.5797  143.0234  155.5758 H   0  0  0  0  0  0  0  0  0  0  0  0
  151.9308  141.9676  155.9615 H   0  0  0  0  0  0  0  0  0  0  0  0
  150.2582  139.4400  154.5684 H   0  0  0  0  0  0  0  0  0  0  0  0
  148.0187  141.7020  155.7200 H   0  0  0  0  0  0  0  0  0  0  0  0
  148.9594  141.9925  154.2806 H   0  0  0  0  0  0  0  0  0  0  0  0
  148.4474  140.5161  152.3148 H   0  0  0  0  0  0  0  0  0  0  0  0
  144.5454  137.4965  152.6168 H   0  0  0  0  0  0  0  0  0  0  0  0
  145.9578  137.1933  151.6034 H   0  0  0  0  0  0  0  0  0  0  0  0
  143.5025  135.9329  151.2938 H   0  0  0  0  0  0  0  0  0  0  0  0
  145.0167  135.2488  150.7184 H   0  0  0  0  0  0  0  0  0  0  0  0
  141.8784  135.6701  152.4131 H   0  0  0  0  0  0  0  0  0  0  0  0
  142.4971  135.5551  154.0568 H   0  0  0  0  0  0  0  0  0  0  0  0
  141.1501  134.5606  153.5814 H   0  0  0  0  0  0  0  0  0  0  0  0
  141.6681  132.5431  151.9143 H   0  0  0  0  0  0  0  0  0  0  0  0
  142.1470  133.8457  150.8457 H   0  0  0  0  0  0  0  0  0  0  0  0
  144.5311  132.7877  150.8039 H   0  0  0  0  0  0  0  0  0  0  0  0
  143.7696  131.3959  151.5220 H   0  0  0  0  0  0  0  0  0  0  0  0
  142.6566  132.5646  149.2333 H   0  0  0  0  0  0  0  0  0  0  0  0
  145.2507  133.2407  155.1341 H   0  0  0  0  0  0  0  0  0  0  0  0
  146.2620  134.5645  155.6688 H   0  0  0  0  0  0  0  0  0  0  0  0
  146.6902  133.6588  154.2250 H   0  0  0  0  0  0  0  0  0  0  0  0
  146.5144  137.3769  157.5965 H   0  0  0  0  0  0  0  0  0  0  0  0
  143.0723  133.2360  153.5345 H   0  0  0  0  0  0  0  0  0  0  0  0
  1  2  1  0  0  0  0
  1 31  1  0  0  0  0
  1 32  1  0  0  0  0
  1 33  1  0  0  0  0
  2  6  1  0  0  0  0
  2  3  1  0  0  0  0
  2 34  1  0  0  0  0
  3  4  1  0  0  0  0
  4  5  1  0  0  0  0
  4 35  1  0  0  0  0
  4 36  1  0  0  0  0
  5  6  1  0  0  0  0
  5 37  1  0  0  0  0
  5 38  1  0  0  0  0
  6  7  1  0  0  0  0
  6  8  1  0  0  0  0
  7 39  1  0  0  0  0
  8  9  1  0  0  0  0
  8 40  1  0  0  0  0
  8 41  1  0  0  0  0
  9 28  1  0  0  0  0
  9 10  1  0  0  0  0
 10 11  2  0  0  0  0
 10 42  1  0  0  0  0
 11 12  1  0  0  0  0
 12 28  2  0  0  0  0
 12 13  1  0  0  0  0
 13 14  1  0  0  0  0
 13 25  2  0  0  0  0
 14 23  1  0  0  0  0
 14 15  1  0  0  0  0
 15 16  1  0  0  0  0
 15 43  1  0  0  0  0
 15 44  1  0  0  0  0
 16 17  1  0  0  0  0
 16 45  1  0  0  0  0
 16 46  1  0  0  0  0
 17 29  1  0  0  0  0
 17 18  1  0  0  0  0
 17 23  1  0  0  0  0
 18 19  1  0  0  0  0
 18 20  1  0  0  0  0
 18 59  1  0  0  0  0
 19 47  1  0  0  0  0
 19 48  1  0  0  0  0
 19 49  1  0  0  0  0
 20 21  1  0  0  0  0
 20 50  1  0  0  0  0
 20 51  1  0  0  0  0
 21 22  1  0  0  0  0
 21 52  1  0  0  0  0
 21 53  1  0  0  0  0
 22 54  1  0  0  0  0
 23 30  1  0  0  0  0
 23 24  1  0  0  0  0
 24 55  1  0  0  0  0
 24 56  1  0  0  0  0
 24 57  1  0  0  0  0
 25 26  1  0  0  0  0
 26 27  2  0  0  0  0
 26 58  1  0  0  0  0
 27 28  1  0  0  0  0
M  CHG  1  18   1
M  END
> <s_m_source_file>
AV-unprocessed.smi

> <i_m_source_file_index>
290

> <i_lp_mmshare_version>
43012

> <i_f3d_flags>
0

> <s_epik_input>
W0NIMl0xW0NIMl1PW0NAQEhdKFtDSDNdKVtDQEBdMShbT0hdKVtDSDJdbihbY0hdbjIpYyhjMjMpbltjSF1uYzNONFtDSDJdW0NIMl1bQ0BIXShbQ0BIXTRbQ0gzXSlOKFtDSDNdKVtDSDJdW0NIMl1bT0hd

> <s_epik_cmdline>
J2VwaWtfcHl0aG9uJywgJy1waCcsICc3LjAnLCAnLXRuJywgJzgnLCAnLW1hJywgJzIwMCcsICctbWV0YWxfYmluZGluZycsICctaW1hZScsICc8aW5maWxlLm1hZT4nLCAnLW9tYWUnLCAnPG91dGZpbGUubWFlPic=

> <r_lp_tautomer_probability>
1

> <r_epik_Ionization_Penalty>
0.0036983

> <r_epik_Ionization_Penalty_Charging>
0.0032725

> <r_epik_Ionization_Penalty_Neutral>
0.000425798

> <r_epik_State_Penalty>
-0

> <r_epik_Charging_Adjusted_Penalty>
0.0032725

> <i_epik_Tot_Q>
1

> <i_epik_Tot_abs_Q>
1

> <r_epik_Metal_State_Penalty>
-0

> <b_epik_Metal_Only>
0

> <s_lp_Force_Field>
OPLS_2005

> <r_lp_Energy>
65.0723

> <b_lp_Chiralities_Consistent>
1

> <s_lp_Variant>
AV-unprocessed.smi:290-6

> <Gold.Version>
5.8.1

> <Gold.Id.Protein>
6NUR|6NUR_protein|mol2

> <Gold.PLP.Fitness>
45.8301

> <Gold.PLP.PLP>
-31.7393

> <Gold.PLP.part.hbond>
-4.8783

> <Gold.PLP.part.metal>
0.0000

> <Gold.PLP.part.buried>
-2.5554

> <Gold.PLP.part.nonpolar>
-26.1112

> <Gold.PLP.part.repulsive>
0.7824

> <Gold.PLP.ligand.clash>
0.0000

> <Gold.PLP.ligand.torsion>
0.8183

> <Gold.PLP.Chemscore.Hbond>
4.5015

> <Gold.PLP.Chemscore.CHOScore>
0.6668

> <Gold.PLP.Chemscore.Metal>
0.0000

> <Gold.Chemscore.Hbonds>
donor molecule, donor type, donor heavy atom, donor atom, acceptor molecule, acceptor atom, score
      L1  H    18    59       P1 10957  2.00
      P1  H  7989  7998       L1     7  0.95
      P1  H 10785 10796       L1    22  1.00
      L1  C    10    42       P1  7957  0.14

> <Gold.PLP.Chemscore.Internal.Correction>
0.2226

> <Gold.Rescore>
     Score         DG    S(hbond)    S(metal)    S(lipo)     H(rot)  DE(clash)    DE(int)     intcor
      8.81     -15.77       3.09        0.00      80.03       3.67       3.25       3.71       ----

> <Gold.Chemscore.Fitness>
8.8102

> <Gold.Chemscore.DG>
-15.7714

> <Gold.Chemscore.ZeroCoef>
-5.4800

> <Gold.Chemscore.Hbond>
3.0875

> <Gold.Chemscore.Metal>
0.0000

> <Gold.Chemscore.Lipo>
80.0296

> <Gold.Chemscore.Internal_Hbond>
0.0000

> <Gold.Chemscore.DEClash>
3.2547

> <Gold.Chemscore.DEInternal>
3.7064

> <Gold.Chemscore.Rot>
3.6658

> <Gold.Chemscore.Internal.Correction>
   9.000000E+99

> <Gold.Chemscore.Hbonds>
donor molecule, donor type, donor heavy atom, donor atom, acceptor molecule, acceptor atom, score
      L1  H    18    59       P1 10957  0.96
      L1  H    22    54       P1 10186  0.01
      P1  H  7989  7998       L1     7  0.19
      P1  H 10785 10796       L1    22  0.96

> <Gold.Chemscore.Hbond.Weighted>
-10.3123

> <Gold.Chemscore.Metal.Weighted>
-0.0000

> <Gold.Chemscore.Lipo.Weighted>
-9.3635

> <Gold.Chemscore.Internal_Hbond.Weighted>
0.0000

> <Gold.Chemscore.DEClash.Weighted>
3.2547

> <Gold.Chemscore.DEInternal.Weighted>
3.7064

> <Gold.Chemscore.Rot.Weighted>
9.3844

> <Gold.Chemscore.Internal.Correction.Weighted>
   9.000000E+99

> <Gold.Protein.RotatedTorsions>
[ 6907 6896 6895 6894 ] final  -38.35 input  -60.11 | X-H torsion
[ 7974 7965 7964 7962 ] final -142.94 input  175.53 | X-H torsion
[ 8008 7997 7996 7995 ] final  -32.91 input   59.86 | X-H torsion
[ 10167 10162 10161 10158 ] final  135.03 input  -65.29 | X-H torsion
[ 10718 10713 10712 10709 ] final -162.12 input   66.30 | X-H torsion
[ 10763 10752 10751 10750 ] final  150.57 input  -60.55 | X-H torsion
[ 11005 11000 10999 10996 ] final -157.31 input  -57.11 | X-H torsion

> <Gold.Protein.ActiveResidues>
 VAL166  LYS551  ARG553  GLY616  TRP617  ASP618  TYR619  PRO620  LYS621  CYS622 
 ASP623  PHE694  ASN695  SER759  ASP760  ASP761  ALA762  ILE779  LEU786  VAL792 
 PHE793  MET794  SER795  GLU796  ALA797  LYS798  CYS799  TRP800  GLU811  SER814 

> <Gold.Protein.RotatedAtoms>
  151.0035  134.9341  159.7966 H   0  0  0  0  0  0  0  0  0  0  0  0  # atno 6907 bound_to 6896
  152.5284  134.3123  159.9128 H   0  0  0  0  0  0  0  0  0  0  0  0  # atno 6908 bound_to 6896
  151.3128  133.4031  159.2682 H   0  0  0  0  0  0  0  0  0  0  0  0  # atno 6909 bound_to 6896
  144.8406  140.5896  143.5455 H   0  0  0  0  0  0  0  0  0  0  0  0  # atno 7974 bound_to 7965
  154.4165  140.1725  156.1802 H   0  0  0  0  0  0  0  0  0  0  0  0  # atno 8008 bound_to 7997
  155.9688  140.3387  155.6533 H   0  0  0  0  0  0  0  0  0  0  0  0  # atno 8009 bound_to 7997
  155.6653  140.0705  157.2530 H   0  0  0  0  0  0  0  0  0  0  0  0  # atno 8010 bound_to 7997
  139.5233  144.6538  151.5224 H   0  0  0  0  0  0  0  0  0  0  0  0  # atno 10167 bound_to 10162
  156.6059  130.8830  151.2925 H   0  0  0  0  0  0  0  0  0  0  0  0  # atno 10718 bound_to 10713
  154.0896  135.2853  155.3274 H   0  0  0  0  0  0  0  0  0  0  0  0  # atno 10763 bound_to 10752
  154.6629  135.5328  153.8043 H   0  0  0  0  0  0  0  0  0  0  0  0  # atno 10764 bound_to 10752
  153.0418  135.6538  154.1066 H   0  0  0  0  0  0  0  0  0  0  0  0  # atno 10765 bound_to 10752
  140.6660  134.4298  157.5233 H   0  0  0  0  0  0  0  0  0  0  0  0  # atno 11005 bound_to 11000
  145.4702  139.1504  143.3818 LP  0  0  0  0  0  0  0  0  0  0  0  0  # atno 17320 bound_to 7965
  146.2699  140.4835  142.8819 LP  0  0  0  0  0  0  0  0  0  0  0  0  # atno 17321 bound_to 7965
  140.6354  143.8994  150.6642 LP  0  0  0  0  0  0  0  0  0  0  0  0  # atno 17342 bound_to 10162
  140.2312  143.3734  152.1564 LP  0  0  0  0  0  0  0  0  0  0  0  0  # atno 17343 bound_to 10162
  157.7267  130.9633  150.1668 LP  0  0  0  0  0  0  0  0  0  0  0  0  # atno 17370 bound_to 10713
  156.2430  130.3693  149.8316 LP  0  0  0  0  0  0  0  0  0  0  0  0  # atno 17371 bound_to 10713
  139.8997  134.8585  156.1949 LP  0  0  0  0  0  0  0  0  0  0  0  0  # atno 17394 bound_to 11000
  141.0429  133.6928  156.1630 LP  0  0  0  0  0  0  0  0  0  0  0  0  # atno 17395 bound_to 11000

$$$$
