AV-unprocessed.smi:2012|AV-procd|sdf|8156|dock3
  -GOLD-   2272010393D 1   1.00000     0.00000
 Structure written by MMmdl.
 50 51  0  0  0  0  0  0  0  0  1 V2000
  147.0789  132.8495  156.9705 C   0  0  0  0  0  0  0  0  0  0  0  0
  147.8949  133.7367  157.9047 C   0  0  0  0  0  0  0  0  0  0  0  0
  149.0709  133.9787  157.6393 O   0  0  0  0  0  0  0  0  0  0  0  0
  147.2543  134.1951  158.9953 N   0  0  0  0  0  0  0  0  0  0  0  0
  147.7543  135.0841  160.0537 C   0  0  1  0  0  0  0  0  0  0  0  0
  148.0214  136.4992  159.5103 C   0  0  0  0  0  0  0  0  0  0  0  0
  147.6184  137.4883  160.1227 O   0  0  0  0  0  0  0  0  0  0  0  0
  148.7303  136.5825  158.3732 N   0  0  0  0  0  0  0  0  0  0  0  0
  149.1349  137.8295  157.7337 C   0  0  0  0  0  0  0  0  0  0  0  0
  150.3787  138.4456  158.3543 C   0  0  0  0  0  0  0  0  0  0  0  0
  151.3905  137.6241  158.8860 C   0  0  0  0  0  0  0  0  0  0  0  0
  152.5250  138.2406  159.4425 C   0  0  0  0  0  0  0  0  0  0  0  0
  152.6887  139.5788  159.4944 N   0  0  0  0  0  0  0  0  0  0  0  0
  151.7212  140.3862  158.9945 C   0  0  0  0  0  0  0  0  0  0  0  0
  151.9541  141.7803  159.0665 N   0  0  0  0  0  0  0  0  0  0  0  0
  151.0646  142.6814  158.3367 C   0  0  0  0  0  0  0  0  0  0  0  0
  151.6640  144.0953  158.2566 C   0  0  0  0  0  0  0  0  0  0  0  0
  151.9810  144.5603  159.5629 O   0  0  0  0  0  0  0  0  0  0  0  0
  152.9619  143.7391  160.1850 C   0  0  0  0  0  0  0  0  0  0  0  0
  152.4178  142.3101  160.3496 C   0  0  0  0  0  0  0  0  0  0  0  0
  150.5427  139.8464  158.4176 C   0  0  0  0  0  0  0  0  0  0  0  0
  146.9449  135.0174  161.3873 C   0  0  0  0  0  0  0  0  0  0  0  0
  147.5138  135.9425  162.4810 C   0  0  0  0  0  0  0  0  0  0  0  0
  146.8505  133.5802  161.9347 C   0  0  0  0  0  0  0  0  0  0  0  0
  146.0123  133.0611  157.0541 H   0  0  0  0  0  0  0  0  0  0  0  0
  147.2426  131.7995  157.2134 H   0  0  0  0  0  0  0  0  0  0  0  0
  147.3762  133.0129  155.9342 H   0  0  0  0  0  0  0  0  0  0  0  0
  146.2936  133.9042  159.1005 H   0  0  0  0  0  0  0  0  0  0  0  0
  148.7361  134.6679  160.2858 H   0  0  0  0  0  0  0  0  0  0  0  0
  149.0317  135.7244  157.9350 H   0  0  0  0  0  0  0  0  0  0  0  0
  149.3429  137.6234  156.6837 H   0  0  0  0  0  0  0  0  0  0  0  0
  148.3092  138.5428  157.7510 H   0  0  0  0  0  0  0  0  0  0  0  0
  151.3065  136.5474  158.8641 H   0  0  0  0  0  0  0  0  0  0  0  0
  153.3242  137.6438  159.8562 H   0  0  0  0  0  0  0  0  0  0  0  0
  150.9064  142.3215  157.3206 H   0  0  0  0  0  0  0  0  0  0  0  0
  150.0943  142.7107  158.8341 H   0  0  0  0  0  0  0  0  0  0  0  0
  152.5565  144.1036  157.6287 H   0  0  0  0  0  0  0  0  0  0  0  0
  150.9488  144.7795  157.7998 H   0  0  0  0  0  0  0  0  0  0  0  0
  153.8806  143.7397  159.5960 H   0  0  0  0  0  0  0  0  0  0  0  0
  153.2101  144.1596  161.1596 H   0  0  0  0  0  0  0  0  0  0  0  0
  151.5842  142.3054  161.0524 H   0  0  0  0  0  0  0  0  0  0  0  0
  153.2037  141.6918  160.7824 H   0  0  0  0  0  0  0  0  0  0  0  0
  149.7596  140.4766  158.0253 H   0  0  0  0  0  0  0  0  0  0  0  0
  145.9287  135.3646  161.2037 H   0  0  0  0  0  0  0  0  0  0  0  0
  148.5618  135.7205  162.6845 H   0  0  0  0  0  0  0  0  0  0  0  0
  146.9642  135.8309  163.4161 H   0  0  0  0  0  0  0  0  0  0  0  0
  147.4401  136.9927  162.1991 H   0  0  0  0  0  0  0  0  0  0  0  0
  147.8396  133.1699  162.1397 H   0  0  0  0  0  0  0  0  0  0  0  0
  146.3509  132.9099  161.2359 H   0  0  0  0  0  0  0  0  0  0  0  0
  146.2812  133.5511  162.8641 H   0  0  0  0  0  0  0  0  0  0  0  0
  1  2  1  0  0  0  0
  1 25  1  0  0  0  0
  1 26  1  0  0  0  0
  1 27  1  0  0  0  0
  2  3  2  0  0  0  0
  2  4  1  0  0  0  0
  4  5  1  0  0  0  0
  4 28  1  0  0  0  0
  5  6  1  0  0  0  0
  5 22  1  0  0  0  0
  5 29  1  0  0  0  0
  6  7  2  0  0  0  0
  6  8  1  0  0  0  0
  8  9  1  0  0  0  0
  8 30  1  0  0  0  0
  9 10  1  0  0  0  0
  9 31  1  0  0  0  0
  9 32  1  0  0  0  0
 10 21  1  0  0  0  0
 10 11  2  0  0  0  0
 11 12  1  0  0  0  0
 11 33  1  0  0  0  0
 12 13  2  0  0  0  0
 12 34  1  0  0  0  0
 13 14  1  0  0  0  0
 14 15  1  0  0  0  0
 14 21  2  0  0  0  0
 15 20  1  0  0  0  0
 15 16  1  0  0  0  0
 16 17  1  0  0  0  0
 16 35  1  0  0  0  0
 16 36  1  0  0  0  0
 17 18  1  0  0  0  0
 17 37  1  0  0  0  0
 17 38  1  0  0  0  0
 18 19  1  0  0  0  0
 19 20  1  0  0  0  0
 19 39  1  0  0  0  0
 19 40  1  0  0  0  0
 20 41  1  0  0  0  0
 20 42  1  0  0  0  0
 21 43  1  0  0  0  0
 22 23  1  0  0  0  0
 22 24  1  0  0  0  0
 22 44  1  0  0  0  0
 23 45  1  0  0  0  0
 23 46  1  0  0  0  0
 23 47  1  0  0  0  0
 24 48  1  0  0  0  0
 24 49  1  0  0  0  0
 24 50  1  0  0  0  0
M  END
> <s_m_source_file>
AV-unprocessed.smi

> <i_m_source_file_index>
2012

> <i_lp_mmshare_version>
43012

> <i_f3d_flags>
0

> <s_epik_input>
W0NIM11DKD1PKVtOSF1bQ0BASF0oW0NIXShbQ0gzXSlbQ0gzXSlDKD1PKVtOSF1bQ0gyXWMxW2NIXVtjSF1uYyhbY0hdMSlOMltDSDJdW0NIMl1PW0NIMl1bQ0gyXTI=

> <s_epik_cmdline>
J2VwaWtfcHl0aG9uJywgJy1waCcsICc3LjAnLCAnLXRuJywgJzgnLCAnLW1hJywgJzIwMCcsICctbWV0YWxfYmluZGluZycsICctaW1hZScsICc8aW5maWxlLm1hZT4nLCAnLW9tYWUnLCAnPG91dGZpbGUubWFlPic=

> <r_lp_tautomer_probability>
1

> <r_epik_Ionization_Penalty>
0.00518786

> <r_epik_Ionization_Penalty_Charging>
0

> <r_epik_Ionization_Penalty_Neutral>
0.00518786

> <r_epik_State_Penalty>
0.00378052

> <r_epik_Charging_Adjusted_Penalty>
0.00378052

> <i_epik_Tot_Q>
0

> <i_epik_Tot_abs_Q>
0

> <r_epik_Metal_State_Penalty>
-0

> <b_epik_Metal_Only>
0

> <s_lp_Force_Field>
OPLS_2005

> <r_lp_Energy>
18.0004

> <b_lp_Chiralities_Consistent>
1

> <s_lp_Variant>
AV-unprocessed.smi:2012-2

> <Gold.Version>
5.8.1

> <Gold.Id.Protein>
6NUR|6NUR_protein|mol2

> <Gold.PLP.Fitness>
47.1461

> <Gold.PLP.PLP>
-42.4038

> <Gold.PLP.part.hbond>
-3.0000

> <Gold.PLP.part.metal>
0.0000

> <Gold.PLP.part.buried>
-6.6369

> <Gold.PLP.part.nonpolar>
-32.3499

> <Gold.PLP.part.repulsive>
0.2042

> <Gold.PLP.ligand.clash>
0.0000

> <Gold.PLP.ligand.torsion>
1.1084

> <Gold.PLP.Chemscore.Hbond>
2.0164

> <Gold.PLP.Chemscore.CHOScore>
0.0000

> <Gold.PLP.Chemscore.Metal>
0.0000

> <Gold.Chemscore.Hbonds>
donor molecule, donor type, donor heavy atom, donor atom, acceptor molecule, acceptor atom, score
      P1  H  6931  6943       L1     7  0.06
      P1  H  6934  6947       L1     7  0.85

> <Gold.PLP.Chemscore.Internal.Correction>
0.9099

> <Gold.Rescore>
     Score         DG    S(hbond)    S(metal)    S(lipo)     H(rot)  DE(clash)    DE(int)     intcor
     16.47     -19.14       2.35        0.00      97.44       2.18       0.40       2.27       ----

> <Gold.Chemscore.Fitness>
16.4652

> <Gold.Chemscore.DG>
-19.1357

> <Gold.Chemscore.ZeroCoef>
-5.4800

> <Gold.Chemscore.Hbond>
2.3471

> <Gold.Chemscore.Metal>
0.0000

> <Gold.Chemscore.Lipo>
97.4407

> <Gold.Chemscore.Internal_Hbond>
0.0000

> <Gold.Chemscore.DEClash>
0.3967

> <Gold.Chemscore.DEInternal>
2.2737

> <Gold.Chemscore.Rot>
2.1813

> <Gold.Chemscore.Internal.Correction>
   9.000000E+99

> <Gold.Chemscore.Hbonds>
donor molecule, donor type, donor heavy atom, donor atom, acceptor molecule, acceptor atom, score
      P1  H  6896  6908       L1     3  0.02
      P1  H  6931  6943       L1     7  0.07
      P1  H  6934  6947       L1     7  0.85

> <Gold.Chemscore.Hbond.Weighted>
-7.8393

> <Gold.Chemscore.Metal.Weighted>
-0.0000

> <Gold.Chemscore.Lipo.Weighted>
-11.4006

> <Gold.Chemscore.Internal_Hbond.Weighted>
0.0000

> <Gold.Chemscore.DEClash.Weighted>
0.3967

> <Gold.Chemscore.DEInternal.Weighted>
2.2737

> <Gold.Chemscore.Rot.Weighted>
5.5842

> <Gold.Chemscore.Internal.Correction.Weighted>
   9.000000E+99

> <Gold.Protein.RotatedTorsions>
[ 6907 6896 6895 6894 ] final  104.40 input  -60.11 | X-H torsion
[ 7974 7965 7964 7962 ] final  -52.28 input  175.53 | X-H torsion
[ 8008 7997 7996 7995 ] final   -7.76 input   59.86 | X-H torsion
[ 10167 10162 10161 10158 ] final  134.96 input  -65.29 | X-H torsion
[ 10718 10713 10712 10709 ] final -111.18 input   66.30 | X-H torsion
[ 10763 10752 10751 10750 ] final  -71.82 input  -60.55 | X-H torsion
[ 11005 11000 10999 10996 ] final  -10.33 input  -57.11 | X-H torsion

> <Gold.Protein.ActiveResidues>
 VAL166  LYS551  ARG553  GLY616  TRP617  ASP618  TYR619  PRO620  LYS621  CYS622 
 ASP623  PHE694  ASN695  SER759  ASP760  ASP761  ALA762  ILE779  LEU786  VAL792 
 PHE793  MET794  SER795  GLU796  ALA797  LYS798  CYS799  TRP800  GLU811  SER814 

> <Gold.Protein.RotatedAtoms>
  152.5265  133.9683  159.7749 H   0  0  0  0  0  0  0  0  0  0  0  0  # atno 6907 bound_to 6896
  150.9960  133.6095  159.2708 H   0  0  0  0  0  0  0  0  0  0  0  0  # atno 6908 bound_to 6896
  151.3221  135.0827  159.9362 H   0  0  0  0  0  0  0  0  0  0  0  0  # atno 6909 bound_to 6896
  145.9097  140.7925  142.9701 H   0  0  0  0  0  0  0  0  0  0  0  0  # atno 7974 bound_to 7965
  154.5807  140.2398  155.8058 H   0  0  0  0  0  0  0  0  0  0  0  0  # atno 8008 bound_to 7997
  156.2177  140.3007  155.9834 H   0  0  0  0  0  0  0  0  0  0  0  0  # atno 8009 bound_to 7997
  155.2546  140.0412  157.2981 H   0  0  0  0  0  0  0  0  0  0  0  0  # atno 8010 bound_to 7997
  139.5236  144.6541  151.5214 H   0  0  0  0  0  0  0  0  0  0  0  0  # atno 10167 bound_to 10162
  156.0632  130.5854  150.8338 H   0  0  0  0  0  0  0  0  0  0  0  0  # atno 10718 bound_to 10713
  154.4371  135.5950  153.6105 H   0  0  0  0  0  0  0  0  0  0  0  0  # atno 10763 bound_to 10752
  152.9803  135.5989  154.3768 H   0  0  0  0  0  0  0  0  0  0  0  0  # atno 10764 bound_to 10752
  154.3613  135.2841  155.2297 H   0  0  0  0  0  0  0  0  0  0  0  0  # atno 10765 bound_to 10752
  140.7436  133.8650  155.8987 H   0  0  0  0  0  0  0  0  0  0  0  0  # atno 11005 bound_to 11000
  144.6742  140.1806  143.7406 LP  0  0  0  0  0  0  0  0  0  0  0  0  # atno 17320 bound_to 7965
  145.8687  139.2260  143.1674 LP  0  0  0  0  0  0  0  0  0  0  0  0  # atno 17321 bound_to 7965
  140.6359  143.8985  150.6647 LP  0  0  0  0  0  0  0  0  0  0  0  0  # atno 17342 bound_to 10162
  140.2304  143.3740  152.1570 LP  0  0  0  0  0  0  0  0  0  0  0  0  # atno 17343 bound_to 10162
  157.5656  131.0946  150.9495 LP  0  0  0  0  0  0  0  0  0  0  0  0  # atno 17370 bound_to 10713
  156.9722  130.5495  149.5291 LP  0  0  0  0  0  0  0  0  0  0  0  0  # atno 17371 bound_to 10713
  140.9814  134.1400  157.4490 LP  0  0  0  0  0  0  0  0  0  0  0  0  # atno 17394 bound_to 11000
  139.8801  135.0012  156.6052 LP  0  0  0  0  0  0  0  0  0  0  0  0  # atno 17395 bound_to 11000

$$$$
