AV-unprocessed.smi:1824|AV-procd|sdf|7409|dock8
  -GOLD-   22720 9 83D 1   1.00000     0.00000
 Structure written by MMmdl.
 45 47  0  0  0  0  0  0  0  0  2 V2000
  147.8273  136.8328  159.5534 C   0  0  0  0  0  0  0  0  0  0  0  0
  149.2989  136.7791  159.1087 C   0  0  2  0  0  0  0  0  0  0  0  0
  149.6601  137.8490  158.0594 C   0  0  0  0  0  0  0  0  0  0  0  0
  149.1164  137.5540  156.7376 N   0  0  0  0  0  0  0  0  0  0  0  0
  149.4857  138.5981  155.7801 C   0  0  0  0  0  0  0  0  0  0  0  0
  150.9589  138.5922  155.3260 C   0  0  1  0  0  0  0  0  0  0  0  0
  151.0203  139.1066  154.0103 O   0  0  0  0  0  0  0  0  0  0  0  0
  151.8382  139.4506  156.2562 C   0  0  0  0  0  0  0  0  0  0  0  0
  151.3069  140.8070  156.4551 N   0  0  0  0  0  0  0  0  0  0  0  0
  150.4048  141.5027  155.7110 C   0  0  0  0  0  0  0  0  0  0  0  0
  150.2359  142.7189  156.3001 N   0  3  0  0  0  0  0  0  0  0  0  0
  151.0403  142.8014  157.4389 C   0  0  0  0  0  0  0  0  0  0  0  0
  151.2112  143.8289  158.3611 C   0  0  0  0  0  0  0  0  0  0  0  0
  152.1114  143.5890  159.4201 C   0  0  0  0  0  0  0  0  0  0  0  0
  152.3142  144.5552  160.3466 F   0  0  0  0  0  0  0  0  0  0  0  0
  152.8022  142.3639  159.5325 C   0  0  0  0  0  0  0  0  0  0  0  0
  153.6562  142.1739  160.5662 F   0  0  0  0  0  0  0  0  0  0  0  0
  152.6220  141.3304  158.5899 C   0  0  0  0  0  0  0  0  0  0  0  0
  151.7308  141.5759  157.5459 C   0  0  0  0  0  0  0  0  0  0  0  0
  149.5665  136.2258  156.3295 C   0  0  0  0  0  0  0  0  0  0  0  0
  149.1594  135.1420  157.3448 C   0  0  1  0  0  0  0  0  0  0  0  0
  149.7109  133.7630  156.9673 C   0  0  0  0  0  0  0  0  0  0  0  0
  149.6641  135.4821  158.6347 O   0  0  0  0  0  0  0  0  0  0  0  0
  147.5962  137.7953  160.0103 H   0  0  0  0  0  0  0  0  0  0  0  0
  147.6153  136.0582  160.2906 H   0  0  0  0  0  0  0  0  0  0  0  0
  147.1405  136.6967  158.7183 H   0  0  0  0  0  0  0  0  0  0  0  0
  149.9054  136.9627  159.9959 H   0  0  0  0  0  0  0  0  0  0  0  0
  149.3082  138.8238  158.3996 H   0  0  0  0  0  0  0  0  0  0  0  0
  150.7470  137.9225  157.9941 H   0  0  0  0  0  0  0  0  0  0  0  0
  148.8613  138.5070  154.8897 H   0  0  0  0  0  0  0  0  0  0  0  0
  149.2452  139.5725  156.2080 H   0  0  0  0  0  0  0  0  0  0  0  0
  151.3595  137.5794  155.3180 H   0  0  0  0  0  0  0  0  0  0  0  0
  151.1410  138.3820  153.4148 H   0  0  0  0  0  0  0  0  0  0  0  0
  151.9783  138.9717  157.2257 H   0  0  0  0  0  0  0  0  0  0  0  0
  152.8340  139.5595  155.8247 H   0  0  0  0  0  0  0  0  0  0  0  0
  149.9123  141.1533  154.8147 H   0  0  0  0  0  0  0  0  0  0  0  0
  150.6834  144.7677  158.2799 H   0  0  0  0  0  0  0  0  0  0  0  0
  153.1515  140.3948  158.6907 H   0  0  0  0  0  0  0  0  0  0  0  0
  149.1456  135.9615  155.3607 H   0  0  0  0  0  0  0  0  0  0  0  0
  150.6511  136.2248  156.2095 H   0  0  0  0  0  0  0  0  0  0  0  0
  148.0718  135.0750  157.3881 H   0  0  0  0  0  0  0  0  0  0  0  0
  149.3456  133.4478  155.9895 H   0  0  0  0  0  0  0  0  0  0  0  0
  149.4061  133.0095  157.6938 H   0  0  0  0  0  0  0  0  0  0  0  0
  150.8008  133.7700  156.9317 H   0  0  0  0  0  0  0  0  0  0  0  0
  149.6154  143.4372  155.9486 H   0  0  0  0  0  0  0  0  0  0  0  0
  1  2  1  0  0  0  0
  1 24  1  0  0  0  0
  1 25  1  0  0  0  0
  1 26  1  0  0  0  0
  2 23  1  0  0  0  0
  2  3  1  0  0  0  0
  2 27  1  0  0  0  0
  3  4  1  0  0  0  0
  3 28  1  0  0  0  0
  3 29  1  0  0  0  0
  4  5  1  0  0  0  0
  4 20  1  0  0  0  0
  5  6  1  0  0  0  0
  5 30  1  0  0  0  0
  5 31  1  0  0  0  0
  6  7  1  0  0  0  0
  6  8  1  0  0  0  0
  6 32  1  0  0  0  0
  7 33  1  0  0  0  0
  8  9  1  0  0  0  0
  8 34  1  0  0  0  0
  8 35  1  0  0  0  0
  9 19  1  0  0  0  0
  9 10  1  0  0  0  0
 10 11  2  0  0  0  0
 10 36  1  0  0  0  0
 11 12  1  0  0  0  0
 11 45  1  0  0  0  0
 12 19  2  0  0  0  0
 12 13  1  0  0  0  0
 13 14  2  0  0  0  0
 13 37  1  0  0  0  0
 14 15  1  0  0  0  0
 14 16  1  0  0  0  0
 16 17  1  0  0  0  0
 16 18  2  0  0  0  0
 18 19  1  0  0  0  0
 18 38  1  0  0  0  0
 20 21  1  0  0  0  0
 20 39  1  0  0  0  0
 20 40  1  0  0  0  0
 21 22  1  0  0  0  0
 21 23  1  0  0  0  0
 21 41  1  0  0  0  0
 22 42  1  0  0  0  0
 22 43  1  0  0  0  0
 22 44  1  0  0  0  0
M  CHG  1  11   1
M  END
> <s_m_source_file>
AV-unprocessed.smi

> <i_m_source_file_index>
1824

> <i_lp_mmshare_version>
43012

> <i_f3d_flags>
0

> <s_epik_input>
W0NIM11bQ0BASF0xW0NIMl1OKFtDSDJdW0NASF0oTzEpW0NIM10pW0NIMl1bQ0BIXShbT0hdKVtDSDJdbihbY0hdbjIpYyhjMjMpW2NIXWMoRiljKEYpW2NIXTM=

> <s_epik_cmdline>
J2VwaWtfcHl0aG9uJywgJy1waCcsICc3LjAnLCAnLXRuJywgJzgnLCAnLW1hJywgJzIwMCcsICctbWV0YWxfYmluZGluZycsICctaW1hZScsICc8aW5maWxlLm1hZT4nLCAnLW9tYWUnLCAnPG91dGZpbGUubWFlPic=

> <r_epik_Ionization_Penalty>
2.58709

> <r_epik_Ionization_Penalty_Charging>
2.37273

> <r_epik_Ionization_Penalty_Neutral>
0.214359

> <r_epik_State_Penalty>
2.71799

> <r_epik_Charging_Adjusted_Penalty>
5.09071

> <i_epik_Tot_Q>
1

> <i_epik_Tot_abs_Q>
1

> <r_epik_Metal_State_Penalty>
6.80217

> <b_epik_Metal_Only>
0

> <s_lp_Force_Field>
OPLS_2005

> <r_lp_Energy>
35.2621

> <b_lp_Chiralities_Consistent>
1

> <s_lp_Variant>
AV-unprocessed.smi:1824-17

> <Gold.Version>
5.8.1

> <Gold.Id.Protein>
6NUR|6NUR_protein|mol2

> <Gold.PLP.Fitness>
51.5147

> <Gold.PLP.PLP>
-40.9719

> <Gold.PLP.part.hbond>
-3.0018

> <Gold.PLP.part.metal>
0.0000

> <Gold.PLP.part.buried>
-4.8100

> <Gold.PLP.part.nonpolar>
-33.5294

> <Gold.PLP.part.repulsive>
0.0887

> <Gold.PLP.ligand.clash>
0.0000

> <Gold.PLP.ligand.torsion>
0.7389

> <Gold.PLP.Chemscore.Hbond>
4.0000

> <Gold.PLP.Chemscore.CHOScore>
0.0000

> <Gold.PLP.Chemscore.Metal>
0.0000

> <Gold.Chemscore.Hbonds>
donor molecule, donor type, donor heavy atom, donor atom, acceptor molecule, acceptor atom, score
      L1  H    11    45       P1  8028  1.85
      P1  H  6896  6907       L1    23  1.00
      P1  H  7989  7998       L1     7  1.00

> <Gold.PLP.Chemscore.Internal.Correction>
0.0206

> <Gold.Rescore>
     Score         DG    S(hbond)    S(metal)    S(lipo)     H(rot)  DE(clash)    DE(int)     intcor
     17.03     -19.86       2.91        0.00      90.72       2.32       0.28       2.55       ----

> <Gold.Chemscore.Fitness>
17.0273

> <Gold.Chemscore.DG>
-19.8588

> <Gold.Chemscore.ZeroCoef>
-5.4800

> <Gold.Chemscore.Hbond>
2.9061

> <Gold.Chemscore.Metal>
0.0000

> <Gold.Chemscore.Lipo>
90.7176

> <Gold.Chemscore.Internal_Hbond>
0.0000

> <Gold.Chemscore.DEClash>
0.2782

> <Gold.Chemscore.DEInternal>
2.5533

> <Gold.Chemscore.Rot>
2.3210

> <Gold.Chemscore.Internal.Correction>
   9.000000E+99

> <Gold.Chemscore.Hbonds>
donor molecule, donor type, donor heavy atom, donor atom, acceptor molecule, acceptor atom, score
      L1  H    11    45       P1  8028  0.89
      P1  H  6896  6907       L1    23  0.81
      P1  H  7989  7998       L1     7  0.93

> <Gold.Chemscore.Hbond.Weighted>
-9.7065

> <Gold.Chemscore.Metal.Weighted>
-0.0000

> <Gold.Chemscore.Lipo.Weighted>
-10.6140

> <Gold.Chemscore.Internal_Hbond.Weighted>
0.0000

> <Gold.Chemscore.DEClash.Weighted>
0.2782

> <Gold.Chemscore.DEInternal.Weighted>
2.5533

> <Gold.Chemscore.Rot.Weighted>
5.9416

> <Gold.Chemscore.Internal.Correction.Weighted>
   9.000000E+99

> <Gold.Protein.RotatedTorsions>
[ 6907 6896 6895 6894 ] final  -57.35 input  -60.11 | X-H torsion
[ 7974 7965 7964 7962 ] final  -67.35 input  175.53 | X-H torsion
[ 8008 7997 7996 7995 ] final -123.57 input   59.86 | X-H torsion
[ 10167 10162 10161 10158 ] final  142.62 input  -65.29 | X-H torsion
[ 10718 10713 10712 10709 ] final  -59.82 input   66.30 | X-H torsion
[ 10763 10752 10751 10750 ] final -120.56 input  -60.55 | X-H torsion
[ 11005 11000 10999 10996 ] final  113.05 input  -57.11 | X-H torsion

> <Gold.Protein.ActiveResidues>
 VAL166  LYS551  ARG553  GLY616  TRP617  ASP618  TYR619  PRO620  LYS621  CYS622 
 ASP623  PHE694  ASN695  SER759  ASP760  ASP761  ALA762  ILE779  LEU786  VAL792 
 PHE793  MET794  SER795  GLU796  ALA797  LYS798  CYS799  TRP800  GLU811  SER814 

> <Gold.Protein.RotatedAtoms>
  150.8093  134.7238  159.6672 H   0  0  0  0  0  0  0  0  0  0  0  0  # atno 6907 bound_to 6896
  152.4213  134.5947  159.9993 H   0  0  0  0  0  0  0  0  0  0  0  0  # atno 6908 bound_to 6896
  151.6161  133.3306  159.3114 H   0  0  0  0  0  0  0  0  0  0  0  0  # atno 6909 bound_to 6896
  145.7303  140.9000  143.0583 H   0  0  0  0  0  0  0  0  0  0  0  0  # atno 7974 bound_to 7965
  155.1827  140.0411  157.2885 H   0  0  0  0  0  0  0  0  0  0  0  0  # atno 8008 bound_to 7997
  154.6192  140.2496  155.7543 H   0  0  0  0  0  0  0  0  0  0  0  0  # atno 8009 bound_to 7997
  156.2424  140.2898  156.0492 H   0  0  0  0  0  0  0  0  0  0  0  0  # atno 8010 bound_to 7997
  139.4990  144.6095  151.6304 H   0  0  0  0  0  0  0  0  0  0  0  0  # atno 10167 bound_to 10162
  156.1034  130.4183  150.0768 H   0  0  0  0  0  0  0  0  0  0  0  0  # atno 10718 bound_to 10713
  154.8647  135.4199  154.2479 H   0  0  0  0  0  0  0  0  0  0  0  0  # atno 10763 bound_to 10752
  153.3431  135.6994  153.6856 H   0  0  0  0  0  0  0  0  0  0  0  0  # atno 10764 bound_to 10752
  153.5826  135.3570  155.2854 H   0  0  0  0  0  0  0  0  0  0  0  0  # atno 10765 bound_to 10752
  139.8943  134.9542  156.6680 H   0  0  0  0  0  0  0  0  0  0  0  0  # atno 11005 bound_to 11000
  144.6894  139.9322  143.7472 LP  0  0  0  0  0  0  0  0  0  0  0  0  # atno 17320 bound_to 7965
  146.0544  139.3542  143.0620 LP  0  0  0  0  0  0  0  0  0  0  0  0  # atno 17321 bound_to 7965
  140.5766  144.0018  150.6245 LP  0  0  0  0  0  0  0  0  0  0  0  0  # atno 17342 bound_to 10162
  140.3153  143.3171  152.0838 LP  0  0  0  0  0  0  0  0  0  0  0  0  # atno 17343 bound_to 10162
  156.8749  130.9537  151.3605 LP  0  0  0  0  0  0  0  0  0  0  0  0  # atno 17370 bound_to 10713
  157.6208  130.8654  149.9105 LP  0  0  0  0  0  0  0  0  0  0  0  0  # atno 17371 bound_to 10713
  140.7395  133.8989  155.8268 LP  0  0  0  0  0  0  0  0  0  0  0  0  # atno 17394 bound_to 11000
  141.0089  134.1048  157.4242 LP  0  0  0  0  0  0  0  0  0  0  0  0  # atno 17395 bound_to 11000

$$$$
