AV-unprocessed.smi:2453|AV-procd|sdf|9690|dock1
  -GOLD-   2272013323D 1   1.00000     0.00000
 Structure written by MMmdl.
 40 41  0  0  0  0  0  0  0  0  1 V2000
  145.6874  135.7495  150.3305 C   0  0  0  0  0  0  0  0  0  0  0  0
  145.3393  134.2794  150.4849 C   0  0  0  0  0  0  0  0  0  0  0  0
  144.3964  133.6848  149.6186 C   0  0  0  0  0  0  0  0  0  0  0  0
  144.0345  132.3871  149.6867 N   0  0  0  0  0  0  0  0  0  0  0  0
  144.6139  131.6228  150.6348 C   0  0  0  0  0  0  0  0  0  0  0  0
  145.5664  132.1110  151.5502 C   0  0  0  0  0  0  0  0  0  0  0  0
  145.9359  133.4766  151.4874 C   0  0  0  0  0  0  0  0  0  0  0  0
  146.9069  134.0648  152.3472 N   0  0  0  0  0  0  0  0  0  0  0  0
  147.1564  133.8048  153.6423 C   0  0  0  0  0  0  0  0  0  0  0  0
  146.5254  133.0171  154.3469 O   0  0  0  0  0  0  0  0  0  0  0  0
  148.1877  134.5354  154.0904 N   0  0  0  0  0  0  0  0  0  0  0  0
  148.7184  134.5037  155.4524 C   0  0  1  0  0  0  0  0  0  0  0  0
  148.7470  133.0478  155.9657 C   0  0  0  0  0  0  0  0  0  0  0  0
  149.3599  132.9509  157.3701 C   0  0  0  0  0  0  0  0  0  0  0  0
  150.7688  133.5582  157.3989 C   0  0  0  0  0  0  0  0  0  0  0  0
  150.7494  135.0145  156.9111 C   0  0  0  0  0  0  0  0  0  0  0  0
  150.1320  135.1416  155.5012 C   0  0  2  0  0  0  0  0  0  0  0  0
  150.1763  136.6001  154.9920 C   0  0  0  0  0  0  0  0  0  0  0  0
  151.4362  136.9253  154.4412 O   0  0  0  0  0  0  0  0  0  0  0  0
  145.1130  136.2112  149.5268 H   0  0  0  0  0  0  0  0  0  0  0  0
  146.7463  135.8667  150.0992 H   0  0  0  0  0  0  0  0  0  0  0  0
  145.4719  136.2903  151.2523 H   0  0  0  0  0  0  0  0  0  0  0  0
  143.9186  134.2662  148.8437 H   0  0  0  0  0  0  0  0  0  0  0  0
  144.3153  130.5854  150.6608 H   0  0  0  0  0  0  0  0  0  0  0  0
  145.9995  131.4293  152.2653 H   0  0  0  0  0  0  0  0  0  0  0  0
  147.4529  134.8058  151.9334 H   0  0  0  0  0  0  0  0  0  0  0  0
  148.6432  135.1606  153.4420 H   0  0  0  0  0  0  0  0  0  0  0  0
  148.0602  135.0840  156.1022 H   0  0  0  0  0  0  0  0  0  0  0  0
  147.7378  132.6343  155.9827 H   0  0  0  0  0  0  0  0  0  0  0  0
  149.3220  132.4254  155.2786 H   0  0  0  0  0  0  0  0  0  0  0  0
  148.7214  133.4714  158.0851 H   0  0  0  0  0  0  0  0  0  0  0  0
  149.3968  131.9089  157.6886 H   0  0  0  0  0  0  0  0  0  0  0  0
  151.1728  133.5110  158.4106 H   0  0  0  0  0  0  0  0  0  0  0  0
  151.4367  132.9679  156.7701 H   0  0  0  0  0  0  0  0  0  0  0  0
  150.1845  135.6208  157.6203 H   0  0  0  0  0  0  0  0  0  0  0  0
  151.7657  135.4099  156.9105 H   0  0  0  0  0  0  0  0  0  0  0  0
  150.7680  134.5629  154.8291 H   0  0  0  0  0  0  0  0  0  0  0  0
  149.4143  136.7546  154.2276 H   0  0  0  0  0  0  0  0  0  0  0  0
  149.9547  137.3016  155.7966 H   0  0  0  0  0  0  0  0  0  0  0  0
  151.4013  136.7890  153.5065 H   0  0  0  0  0  0  0  0  0  0  0  0
  1  2  1  0  0  0  0
  1 20  1  0  0  0  0
  1 21  1  0  0  0  0
  1 22  1  0  0  0  0
  2  7  1  0  0  0  0
  2  3  2  0  0  0  0
  3  4  1  0  0  0  0
  3 23  1  0  0  0  0
  4  5  2  0  0  0  0
  5  6  1  0  0  0  0
  5 24  1  0  0  0  0
  6  7  2  0  0  0  0
  6 25  1  0  0  0  0
  7  8  1  0  0  0  0
  8  9  1  0  0  0  0
  8 26  1  0  0  0  0
  9 10  2  0  0  0  0
  9 11  1  0  0  0  0
 11 12  1  0  0  0  0
 11 27  1  0  0  0  0
 12 17  1  0  0  0  0
 12 13  1  0  0  0  0
 12 28  1  0  0  0  0
 13 14  1  0  0  0  0
 13 29  1  0  0  0  0
 13 30  1  0  0  0  0
 14 15  1  0  0  0  0
 14 31  1  0  0  0  0
 14 32  1  0  0  0  0
 15 16  1  0  0  0  0
 15 33  1  0  0  0  0
 15 34  1  0  0  0  0
 16 17  1  0  0  0  0
 16 35  1  0  0  0  0
 16 36  1  0  0  0  0
 17 18  1  0  0  0  0
 17 37  1  0  0  0  0
 18 19  1  0  0  0  0
 18 38  1  0  0  0  0
 18 39  1  0  0  0  0
 19 40  1  0  0  0  0
M  END
> <s_m_source_file>
AV-unprocessed.smi

> <i_m_source_file_index>
2453

> <i_lp_mmshare_version>
43012

> <i_f3d_flags>
0

> <s_epik_input>
W0NIM11jMVtjSF1uW2NIXVtjSF1jMVtOSF1DKD1PKVtOSF1bQ0BASF0yW0NIMl1bQ0gyXVtDSDJdW0NIMl1bQ0BIXTJbQ0gyXVtPSF0=

> <s_epik_cmdline>
J2VwaWtfcHl0aG9uJywgJy1waCcsICc3LjAnLCAnLXRuJywgJzgnLCAnLW1hJywgJzIwMCcsICctbWV0YWxfYmluZGluZycsICctaW1hZScsICc8aW5maWxlLm1hZT4nLCAnLW9tYWUnLCAnPG91dGZpbGUubWFlPic=

> <r_epik_Ionization_Penalty>
0.210691

> <r_epik_Ionization_Penalty_Charging>
0

> <r_epik_Ionization_Penalty_Neutral>
0.210691

> <r_epik_State_Penalty>
0.200732

> <r_epik_Charging_Adjusted_Penalty>
0.200732

> <i_epik_Tot_Q>
0

> <i_epik_Tot_abs_Q>
0

> <r_epik_Metal_State_Penalty>
0.147519

> <b_epik_Metal_Only>
0

> <s_lp_Force_Field>
OPLS_2005

> <r_lp_Energy>
20.8004

> <b_lp_Chiralities_Consistent>
1

> <s_lp_Variant>
AV-unprocessed.smi:2453-4

> <Gold.Version>
5.8.1

> <Gold.Id.Protein>
6NUR|6NUR_protein|mol2

> <Gold.PLP.Fitness>
44.1632

> <Gold.PLP.PLP>
-31.4722

> <Gold.PLP.part.hbond>
-3.9978

> <Gold.PLP.part.metal>
0.0000

> <Gold.PLP.part.buried>
-4.9654

> <Gold.PLP.part.nonpolar>
-24.5912

> <Gold.PLP.part.repulsive>
0.2807

> <Gold.PLP.ligand.clash>
0.0362

> <Gold.PLP.ligand.torsion>
0.7758

> <Gold.PLP.Chemscore.Hbond>
3.8288

> <Gold.PLP.Chemscore.CHOScore>
0.9249

> <Gold.PLP.Chemscore.Metal>
0.0000

> <Gold.Chemscore.Hbonds>
donor molecule, donor type, donor heavy atom, donor atom, acceptor molecule, acceptor atom, score
      L1  H     8    26       P1  7948  1.00
      L1  H    11    27       P1  7948  1.00
      L1  H    19    40       P1  7949  0.62
      P1  H 10752 10763       L1    19  0.15
      L1  C     3    23       P1  7921  0.26

> <Gold.PLP.Chemscore.Internal.Correction>
0.0177

> <Gold.Rescore>
     Score         DG    S(hbond)    S(metal)    S(lipo)     H(rot)  DE(clash)    DE(int)     intcor
     16.50     -18.95       2.61        0.00      78.86       1.75       0.20       2.25       ----

> <Gold.Chemscore.Fitness>
16.4983

> <Gold.Chemscore.DG>
-18.9494

> <Gold.Chemscore.ZeroCoef>
-5.4800

> <Gold.Chemscore.Hbond>
2.6111

> <Gold.Chemscore.Metal>
0.0000

> <Gold.Chemscore.Lipo>
78.8580

> <Gold.Chemscore.Internal_Hbond>
0.0000

> <Gold.Chemscore.DEClash>
0.2047

> <Gold.Chemscore.DEInternal>
2.2463

> <Gold.Chemscore.Rot>
1.7493

> <Gold.Chemscore.Internal.Correction>
   9.000000E+99

> <Gold.Chemscore.Hbonds>
donor molecule, donor type, donor heavy atom, donor atom, acceptor molecule, acceptor atom, score
      L1  H     8    26       P1  7948  0.72
      L1  H    11    27       P1  7948  0.82
      L1  H    19    40       P1  7949  0.49

> <Gold.Chemscore.Hbond.Weighted>
-8.7212

> <Gold.Chemscore.Metal.Weighted>
-0.0000

> <Gold.Chemscore.Lipo.Weighted>
-9.2264

> <Gold.Chemscore.Internal_Hbond.Weighted>
0.0000

> <Gold.Chemscore.DEClash.Weighted>
0.2047

> <Gold.Chemscore.DEInternal.Weighted>
2.2463

> <Gold.Chemscore.Rot.Weighted>
4.4782

> <Gold.Chemscore.Internal.Correction.Weighted>
   9.000000E+99

> <Gold.Protein.RotatedTorsions>
[ 6907 6896 6895 6894 ] final  117.45 input  -60.11 | X-H torsion
[ 7974 7965 7964 7962 ] final -110.76 input  175.53 | X-H torsion
[ 8008 7997 7996 7995 ] final  143.19 input   59.86 | X-H torsion
[ 10167 10162 10161 10158 ] final  175.15 input  -65.29 | X-H torsion
[ 10718 10713 10712 10709 ] final   58.85 input   66.30 | X-H torsion
[ 10763 10752 10751 10750 ] final   44.17 input  -60.55 | X-H torsion
[ 11005 11000 10999 10996 ] final  -77.27 input  -57.11 | X-H torsion

> <Gold.Protein.ActiveResidues>
 VAL166  LYS551  ARG553  GLY616  TRP617  ASP618  TYR619  PRO620  LYS621  CYS622 
 ASP623  PHE694  ASN695  SER759  ASP760  ASP761  ALA762  ILE779  LEU786  VAL792 
 PHE793  MET794  SER795  GLU796  ALA797  LYS798  CYS799  TRP800  GLU811  SER814 

> <Gold.Protein.RotatedAtoms>
  152.4611  133.7824  159.6857 H   0  0  0  0  0  0  0  0  0  0  0  0  # atno 6907 bound_to 6896
  150.8555  133.7711  159.3016 H   0  0  0  0  0  0  0  0  0  0  0  0  # atno 6908 bound_to 6896
  151.5293  135.1071  159.9950 H   0  0  0  0  0  0  0  0  0  0  0  0  # atno 6909 bound_to 6896
  145.1643  140.8894  143.3572 H   0  0  0  0  0  0  0  0  0  0  0  0  # atno 7974 bound_to 7965
  156.2935  140.2269  156.4850 H   0  0  0  0  0  0  0  0  0  0  0  0  # atno 8008 bound_to 7997
  154.7820  140.0459  157.1156 H   0  0  0  0  0  0  0  0  0  0  0  0  # atno 8009 bound_to 7997
  154.9747  140.3071  155.4976 H   0  0  0  0  0  0  0  0  0  0  0  0  # atno 8010 bound_to 7997
  139.5167  144.3065  152.0331 H   0  0  0  0  0  0  0  0  0  0  0  0  # atno 10167 bound_to 10162
  157.5629  130.8849  149.9140 H   0  0  0  0  0  0  0  0  0  0  0  0  # atno 10718 bound_to 10713
  152.9846  135.6079  154.3231 H   0  0  0  0  0  0  0  0  0  0  0  0  # atno 10763 bound_to 10752
  154.2939  135.2774  155.2644 H   0  0  0  0  0  0  0  0  0  0  0  0  # atno 10764 bound_to 10752
  154.4927  135.5888  153.6527 H   0  0  0  0  0  0  0  0  0  0  0  0  # atno 10765 bound_to 10752
  141.1659  133.7016  156.7795 H   0  0  0  0  0  0  0  0  0  0  0  0  # atno 11005 bound_to 11000
  145.0298  139.3351  143.6030 LP  0  0  0  0  0  0  0  0  0  0  0  0  # atno 17320 bound_to 7965
  146.3478  139.9631  142.8715 LP  0  0  0  0  0  0  0  0  0  0  0  0  # atno 17321 bound_to 7965
  140.2511  144.4168  150.6222 LP  0  0  0  0  0  0  0  0  0  0  0  0  # atno 17342 bound_to 10162
  140.6224  143.2177  151.6666 LP  0  0  0  0  0  0  0  0  0  0  0  0  # atno 17343 bound_to 10162
  156.0680  130.3689  150.0837 LP  0  0  0  0  0  0  0  0  0  0  0  0  # atno 17370 bound_to 10713
  156.8999  130.9617  151.3577 LP  0  0  0  0  0  0  0  0  0  0  0  0  # atno 17371 bound_to 10713
  140.2405  134.8617  157.3568 LP  0  0  0  0  0  0  0  0  0  0  0  0  # atno 17394 bound_to 11000
  140.1801  134.4500  155.7777 LP  0  0  0  0  0  0  0  0  0  0  0  0  # atno 17395 bound_to 11000

$$$$
