AV-unprocessed.smi:1260|AV-procd|sdf|5297|dock4
  -GOLD-   22720 4413D 1   1.00000     0.00000
 Structure written by MMmdl.
 37 39  0  0  0  0  0  0  0  0  2 V2000
  147.9497  138.2949  156.3597 O   0  0  0  0  0  0  0  0  0  0  0  0
  148.4108  138.2907  155.2192 C   0  0  0  0  0  0  0  0  0  0  0  0
  149.2994  139.4468  154.7519 C   0  0  0  0  0  0  0  0  0  0  0  0
  150.7073  139.0919  154.7759 N   0  0  0  0  0  0  0  0  0  0  0  0
  151.3510  138.0276  154.2919 C   0  0  0  0  0  0  0  0  0  0  0  0
  152.6502  138.0872  154.5399 N   0  0  0  0  0  0  0  0  0  0  0  0
  152.7863  139.2863  155.2194 N   0  0  0  0  0  0  0  0  0  0  0  0
  151.6373  139.8881  155.3604 N   0  0  0  0  0  0  0  0  0  0  0  0
  148.1629  137.3158  154.3288 N   0  0  0  0  0  0  0  0  0  0  0  0
  147.3768  136.1116  154.5907 C   0  0  2  0  0  0  0  0  0  0  0  0
  148.2479  134.8475  154.7229 C   0  0  0  0  0  0  0  0  0  0  0  0
  147.4683  133.7580  153.9794 C   0  0  0  0  0  0  0  0  0  0  0  0
  146.8019  134.5041  152.9055 N   0  3  1  0  0  0  0  0  0  0  0  0
  145.7519  133.8241  152.1204 C   0  0  0  0  0  0  0  0  0  0  0  0
  145.3447  134.7447  150.9497 C   0  0  0  0  0  0  0  0  0  0  0  0
  144.9664  136.1655  151.4266 C   0  0  0  0  0  0  0  0  0  0  0  0
  146.0478  136.7691  152.3489 C   0  0  0  0  0  0  0  0  0  0  0  0
  146.3436  135.7772  153.4883 C   0  0  2  0  0  0  0  0  0  0  0  0
  149.0223  139.7316  153.7362 H   0  0  0  0  0  0  0  0  0  0  0  0
  149.1455  140.3212  155.3861 H   0  0  0  0  0  0  0  0  0  0  0  0
  150.8716  137.2138  153.7677 H   0  0  0  0  0  0  0  0  0  0  0  0
  148.5800  137.3971  153.4129 H   0  0  0  0  0  0  0  0  0  0  0  0
  146.8394  136.2428  155.5323 H   0  0  0  0  0  0  0  0  0  0  0  0
  149.2111  134.9974  154.2326 H   0  0  0  0  0  0  0  0  0  0  0  0
  148.4474  134.5815  155.7616 H   0  0  0  0  0  0  0  0  0  0  0  0
  148.1131  132.9692  153.5905 H   0  0  0  0  0  0  0  0  0  0  0  0
  146.7210  133.3054  154.6334 H   0  0  0  0  0  0  0  0  0  0  0  0
  146.1322  132.8758  151.7391 H   0  0  0  0  0  0  0  0  0  0  0  0
  144.8940  133.5979  152.7554 H   0  0  0  0  0  0  0  0  0  0  0  0
  146.1759  134.8166  150.2468 H   0  0  0  0  0  0  0  0  0  0  0  0
  144.5151  134.3023  150.3977 H   0  0  0  0  0  0  0  0  0  0  0  0
  144.7996  136.8173  150.5686 H   0  0  0  0  0  0  0  0  0  0  0  0
  144.0188  136.1208  151.9651 H   0  0  0  0  0  0  0  0  0  0  0  0
  146.9540  136.9753  151.7778 H   0  0  0  0  0  0  0  0  0  0  0  0
  145.6985  137.7211  152.7496 H   0  0  0  0  0  0  0  0  0  0  0  0
  145.4028  135.5780  154.0064 H   0  0  0  0  0  0  0  0  0  0  0  0
  147.5343  134.7451  152.2531 H   0  0  0  0  0  0  0  0  0  0  0  0
  1  2  2  0  0  0  0
  2  3  1  0  0  0  0
  2  9  1  0  0  0  0
  3  4  1  0  0  0  0
  3 19  1  0  0  0  0
  3 20  1  0  0  0  0
  4  8  1  0  0  0  0
  4  5  1  0  0  0  0
  5  6  2  0  0  0  0
  5 21  1  0  0  0  0
  6  7  1  0  0  0  0
  7  8  2  0  0  0  0
  9 10  1  0  0  0  0
  9 22  1  0  0  0  0
 10 18  1  0  0  0  0
 10 11  1  0  0  0  0
 10 23  1  0  0  0  0
 11 12  1  0  0  0  0
 11 24  1  0  0  0  0
 11 25  1  0  0  0  0
 12 13  1  0  0  0  0
 12 26  1  0  0  0  0
 12 27  1  0  0  0  0
 13 18  1  0  0  0  0
 13 14  1  0  0  0  0
 13 37  1  0  0  0  0
 14 15  1  0  0  0  0
 14 28  1  0  0  0  0
 14 29  1  0  0  0  0
 15 16  1  0  0  0  0
 15 30  1  0  0  0  0
 15 31  1  0  0  0  0
 16 17  1  0  0  0  0
 16 32  1  0  0  0  0
 16 33  1  0  0  0  0
 17 18  1  0  0  0  0
 17 34  1  0  0  0  0
 17 35  1  0  0  0  0
 18 36  1  0  0  0  0
M  CHG  1  13   1
M  END
> <s_m_source_file>
AV-unprocessed.smi

> <i_m_source_file_index>
1260

> <i_lp_mmshare_version>
43012

> <i_f3d_flags>
0

> <s_epik_input>
bjFubltjSF1uMVtDSDJdQyg9TylbTkhdW0NASF0oW0NIMl1bQ0gyXTIpW0NAQEhdKE4yMylbQ0gyXVtDSDJdW0NIMl1bQ0gyXTM=

> <s_epik_cmdline>
J2VwaWtfcHl0aG9uJywgJy1waCcsICc3LjAnLCAnLXRuJywgJzgnLCAnLW1hJywgJzIwMCcsICctbWV0YWxfYmluZGluZycsICctaW1hZScsICc8aW5maWxlLm1hZT4nLCAnLW9tYWUnLCAnPG91dGZpbGUubWFlPic=

> <r_lp_tautomer_probability>
1

> <r_epik_Ionization_Penalty>
0.00234324

> <r_epik_Ionization_Penalty_Charging>
0.00233897

> <r_epik_Ionization_Penalty_Neutral>
4.26861e-06

> <r_epik_State_Penalty>
0.00161477

> <r_epik_Charging_Adjusted_Penalty>
0.00395374

> <i_epik_Tot_Q>
1

> <i_epik_Tot_abs_Q>
1

> <r_epik_Metal_State_Penalty>
-0

> <b_epik_Metal_Only>
0

> <s_lp_Force_Field>
OPLS_2005

> <r_lp_Energy>
44.4325

> <b_lp_Chiralities_Consistent>
1

> <s_lp_Variant>
AV-unprocessed.smi:1260-5

> <Gold.Version>
5.8.1

> <Gold.Id.Protein>
6NUR|6NUR_protein|mol2

> <Gold.PLP.Fitness>
36.8594

> <Gold.PLP.PLP>
-23.6030

> <Gold.PLP.part.hbond>
-5.1561

> <Gold.PLP.part.metal>
0.0000

> <Gold.PLP.part.buried>
1.2619

> <Gold.PLP.part.nonpolar>
-18.0908

> <Gold.PLP.part.repulsive>
0.0936

> <Gold.PLP.ligand.clash>
0.0000

> <Gold.PLP.ligand.torsion>
0.5320

> <Gold.PLP.Chemscore.Hbond>
3.6724

> <Gold.PLP.Chemscore.CHOScore>
1.1006

> <Gold.PLP.Chemscore.Metal>
0.0000

> <Gold.Chemscore.Hbonds>
donor molecule, donor type, donor heavy atom, donor atom, acceptor molecule, acceptor atom, score
      L1  H     9    22       P1  7948  0.78
      L1  H    13    37       P1  7948  1.63
      P1  H  7989  7998       L1     8  0.13
      P1  H  7997  8009       L1     7  1.00
      L1  C     5    21       P1  7948  0.12
      L1  C     5    21       P1  7949  0.77

> <Gold.PLP.Chemscore.Internal.Correction>
0.0016

> <Gold.Rescore>
     Score         DG    S(hbond)    S(metal)    S(lipo)     H(rot)  DE(clash)    DE(int)     intcor
     12.04     -13.03       2.48        0.00      37.03       1.98       0.55       0.43       ----

> <Gold.Chemscore.Fitness>
12.0412

> <Gold.Chemscore.DG>
-13.0264

> <Gold.Chemscore.ZeroCoef>
-5.4800

> <Gold.Chemscore.Hbond>
2.4767

> <Gold.Chemscore.Metal>
0.0000

> <Gold.Chemscore.Lipo>
37.0265

> <Gold.Chemscore.Internal_Hbond>
0.0000

> <Gold.Chemscore.DEClash>
0.5535

> <Gold.Chemscore.DEInternal>
0.4317

> <Gold.Chemscore.Rot>
1.9757

> <Gold.Chemscore.Internal.Correction>
   9.000000E+99

> <Gold.Chemscore.Hbonds>
donor molecule, donor type, donor heavy atom, donor atom, acceptor molecule, acceptor atom, score
      L1  H     9    22       P1  7948  0.76
      L1  H    13    37       P1  7948  0.65
      P1  H  7997  8009       L1     7  0.92

> <Gold.Chemscore.Hbond.Weighted>
-8.2720

> <Gold.Chemscore.Metal.Weighted>
-0.0000

> <Gold.Chemscore.Lipo.Weighted>
-4.3321

> <Gold.Chemscore.Internal_Hbond.Weighted>
0.0000

> <Gold.Chemscore.DEClash.Weighted>
0.5535

> <Gold.Chemscore.DEInternal.Weighted>
0.4317

> <Gold.Chemscore.Rot.Weighted>
5.0578

> <Gold.Chemscore.Internal.Correction.Weighted>
   9.000000E+99

> <Gold.Protein.RotatedTorsions>
[ 6907 6896 6895 6894 ] final   -2.96 input  -60.11 | X-H torsion
[ 7974 7965 7964 7962 ] final -172.12 input  175.53 | X-H torsion
[ 8008 7997 7996 7995 ] final -142.61 input   59.86 | X-H torsion
[ 10167 10162 10161 10158 ] final  150.74 input  -65.29 | X-H torsion
[ 10718 10713 10712 10709 ] final  109.77 input   66.30 | X-H torsion
[ 10763 10752 10751 10750 ] final -143.01 input  -60.55 | X-H torsion
[ 11005 11000 10999 10996 ] final   31.89 input  -57.11 | X-H torsion

> <Gold.Protein.ActiveResidues>
 VAL166  LYS551  ARG553  GLY616  TRP617  ASP618  TYR619  PRO620  LYS621  CYS622 
 ASP623  PHE694  ASN695  SER759  ASP760  ASP761  ALA762  ILE779  LEU786  VAL792 
 PHE793  MET794  SER795  GLU796  ALA797  LYS798  CYS799  TRP800  GLU811  SER814 

> <Gold.Protein.RotatedAtoms>
  151.5215  135.1067  159.9879 H   0  0  0  0  0  0  0  0  0  0  0  0  # atno 6907 bound_to 6896
  152.4618  133.7835  159.6874 H   0  0  0  0  0  0  0  0  0  0  0  0  # atno 6908 bound_to 6896
  150.8584  133.7616  159.3026 H   0  0  0  0  0  0  0  0  0  0  0  0  # atno 6909 bound_to 6896
  144.7149  140.1820  143.6357 H   0  0  0  0  0  0  0  0  0  0  0  0  # atno 7974 bound_to 7965
  155.4971  140.0572  157.2945 H   0  0  0  0  0  0  0  0  0  0  0  0  # atno 8008 bound_to 7997
  154.4601  140.1992  156.0219 H   0  0  0  0  0  0  0  0  0  0  0  0  # atno 8009 bound_to 7997
  156.0874  140.3238  155.7775 H   0  0  0  0  0  0  0  0  0  0  0  0  # atno 8010 bound_to 7997
  139.4847  144.5498  151.7421 H   0  0  0  0  0  0  0  0  0  0  0  0  # atno 10167 bound_to 10162
  157.6526  131.0920  150.6502 H   0  0  0  0  0  0  0  0  0  0  0  0  # atno 10718 bound_to 10713
  154.8487  135.3480  154.6119 H   0  0  0  0  0  0  0  0  0  0  0  0  # atno 10763 bound_to 10752
  153.6728  135.6984  153.5146 H   0  0  0  0  0  0  0  0  0  0  0  0  # atno 10764 bound_to 10752
  153.2729  135.4287  155.0962 H   0  0  0  0  0  0  0  0  0  0  0  0  # atno 10765 bound_to 10752
  140.2791  134.2993  155.7805 H   0  0  0  0  0  0  0  0  0  0  0  0  # atno 11005 bound_to 11000
  145.8847  139.2342  143.1584 LP  0  0  0  0  0  0  0  0  0  0  0  0  # atno 17320 bound_to 7965
  145.9961  140.8561  143.0042 LP  0  0  0  0  0  0  0  0  0  0  0  0  # atno 17321 bound_to 7965
  140.5050  144.1111  150.5980 LP  0  0  0  0  0  0  0  0  0  0  0  0  # atno 17342 bound_to 10162
  140.4018  143.2700  151.9939 LP  0  0  0  0  0  0  0  0  0  0  0  0  # atno 17343 bound_to 10162
  156.6812  130.4568  149.5627 LP  0  0  0  0  0  0  0  0  0  0  0  0  # atno 17370 bound_to 10713
  156.1928  130.6570  151.1080 LP  0  0  0  0  0  0  0  0  0  0  0  0  # atno 17371 bound_to 10713
  141.2165  133.7514  156.9453 LP  0  0  0  0  0  0  0  0  0  0  0  0  # atno 17394 bound_to 11000
  140.1300  134.9362  157.2324 LP  0  0  0  0  0  0  0  0  0  0  0  0  # atno 17395 bound_to 11000

$$$$
