AV-unprocessed.smi:281|AV-procd|sdf|2103|dock5
  -GOLD-   2262021393D 1   1.00000     0.00000
 Structure written by MMmdl.
 55 59  0  0  0  0  0  0  0  0  1 V2000
  147.3781  141.7910  153.6548 C   0  0  0  0  0  0  0  0  0  0  0  0
  148.0676  140.4630  153.9830 C   0  0  2  0  0  0  0  0  0  0  0  0
  147.0545  139.3401  154.2529 C   0  0  0  0  0  0  0  0  0  0  0  0
  147.7563  138.1307  154.6614 N   0  0  0  0  0  0  0  0  0  0  0  0
  147.0184  136.9926  154.6123 C   0  0  0  0  0  0  0  0  0  0  0  0
  147.0972  136.0869  155.6242 N   0  0  0  0  0  0  0  0  0  0  0  0
  146.3673  134.9685  155.5886 C   0  0  0  0  0  0  0  0  0  0  0  0
  145.5128  134.5598  154.6492 N   0  0  0  0  0  0  0  0  0  0  0  0
  145.4389  135.4559  153.6238 C   0  0  0  0  0  0  0  0  0  0  0  0
  146.1466  136.6877  153.5287 C   0  0  0  0  0  0  0  0  0  0  0  0
  145.8155  137.3316  152.3421 N   0  0  0  0  0  0  0  0  0  0  0  0
  144.9539  136.5325  151.7750 C   0  0  0  0  0  0  0  0  0  0  0  0
  144.6812  135.3746  152.4680 N   0  0  0  0  0  0  0  0  0  0  0  0
  143.7705  134.3116  152.0681 C   0  0  0  0  0  0  0  0  0  0  0  0
  144.2988  133.4203  150.9145 C   0  0  2  0  0  0  0  0  0  0  0  0
  144.1869  134.1224  149.6904 O   0  0  0  0  0  0  0  0  0  0  0  0
  143.5852  132.0720  150.7834 C   0  0  0  0  0  0  0  0  0  0  0  0
  144.5449  131.1060  151.4630 C   0  0  0  0  0  0  0  0  0  0  0  0
  145.8079  131.5971  151.0523 O   0  0  0  0  0  0  0  0  0  0  0  0
  145.7699  133.0158  151.1414 C   0  0  0  0  0  0  0  0  0  0  0  0
  148.6224  138.3386  155.8183 C   0  0  0  0  0  0  0  0  0  0  0  0
  149.6074  139.5065  155.5790 C   0  0  2  0  0  0  0  0  0  0  0  0
  150.7317  139.1682  154.5891 C   0  0  0  0  0  0  0  0  0  0  0  0
  151.9760  139.0386  155.4573 C   0  0  0  0  0  0  0  0  0  0  0  0
  151.7392  139.9920  156.4759 O   0  0  0  0  0  0  0  0  0  0  0  0
  150.3862  139.8342  156.8763 C   0  0  1  0  0  0  0  0  0  0  0  0
  149.9075  141.0670  157.6567 C   0  0  0  0  0  0  0  0  0  0  0  0
  148.8784  140.6606  155.1417 O   0  0  0  0  0  0  0  0  0  0  0  0
  146.7507  141.6988  152.7679 H   0  0  0  0  0  0  0  0  0  0  0  0
  148.1127  142.5733  153.4622 H   0  0  0  0  0  0  0  0  0  0  0  0
  146.7469  142.1224  154.4798 H   0  0  0  0  0  0  0  0  0  0  0  0
  148.6945  140.1859  153.1347 H   0  0  0  0  0  0  0  0  0  0  0  0
  146.3681  139.6348  155.0479 H   0  0  0  0  0  0  0  0  0  0  0  0
  146.4513  139.1725  153.3616 H   0  0  0  0  0  0  0  0  0  0  0  0
  146.4862  134.3057  156.4328 H   0  0  0  0  0  0  0  0  0  0  0  0
  144.4961  136.7649  150.8244 H   0  0  0  0  0  0  0  0  0  0  0  0
  143.5601  133.6996  152.9464 H   0  0  0  0  0  0  0  0  0  0  0  0
  142.8220  134.7688  151.7834 H   0  0  0  0  0  0  0  0  0  0  0  0
  145.0267  134.1053  149.2575 H   0  0  0  0  0  0  0  0  0  0  0  0
  142.5874  132.0418  151.2179 H   0  0  0  0  0  0  0  0  0  0  0  0
  143.4890  131.7855  149.7347 H   0  0  0  0  0  0  0  0  0  0  0  0
  144.4581  131.1626  152.5493 H   0  0  0  0  0  0  0  0  0  0  0  0
  144.3933  130.0716  151.1543 H   0  0  0  0  0  0  0  0  0  0  0  0
  146.4581  133.4618  150.4220 H   0  0  0  0  0  0  0  0  0  0  0  0
  146.1096  133.3049  152.1371 H   0  0  0  0  0  0  0  0  0  0  0  0
  147.9988  138.5573  156.6866 H   0  0  0  0  0  0  0  0  0  0  0  0
  149.1769  137.4259  156.0424 H   0  0  0  0  0  0  0  0  0  0  0  0
  150.5407  138.2716  153.9985 H   0  0  0  0  0  0  0  0  0  0  0  0
  150.8848  139.9943  153.8936 H   0  0  0  0  0  0  0  0  0  0  0  0
  152.0509  138.0406  155.8922 H   0  0  0  0  0  0  0  0  0  0  0  0
  152.8958  139.2496  154.9117 H   0  0  0  0  0  0  0  0  0  0  0  0
  150.3595  138.9707  157.5438 H   0  0  0  0  0  0  0  0  0  0  0  0
  148.8624  140.9627  157.9496 H   0  0  0  0  0  0  0  0  0  0  0  0
  150.0035  141.9776  157.0646 H   0  0  0  0  0  0  0  0  0  0  0  0
  150.4951  141.2017  158.5647 H   0  0  0  0  0  0  0  0  0  0  0  0
  1  2  1  0  0  0  0
  1 29  1  0  0  0  0
  1 30  1  0  0  0  0
  1 31  1  0  0  0  0
  2 28  1  0  0  0  0
  2  3  1  0  0  0  0
  2 32  1  0  0  0  0
  3  4  1  0  0  0  0
  3 33  1  0  0  0  0
  3 34  1  0  0  0  0
  4  5  1  0  0  0  0
  4 21  1  0  0  0  0
  5 10  1  0  0  0  0
  5  6  2  0  0  0  0
  6  7  1  0  0  0  0
  7  8  2  0  0  0  0
  7 35  1  0  0  0  0
  8  9  1  0  0  0  0
  9 13  1  0  0  0  0
  9 10  2  0  0  0  0
 10 11  1  0  0  0  0
 11 12  2  0  0  0  0
 12 13  1  0  0  0  0
 12 36  1  0  0  0  0
 13 14  1  0  0  0  0
 14 15  1  0  0  0  0
 14 37  1  0  0  0  0
 14 38  1  0  0  0  0
 15 20  1  0  0  0  0
 15 16  1  0  0  0  0
 15 17  1  0  0  0  0
 16 39  1  0  0  0  0
 17 18  1  0  0  0  0
 17 40  1  0  0  0  0
 17 41  1  0  0  0  0
 18 19  1  0  0  0  0
 18 42  1  0  0  0  0
 18 43  1  0  0  0  0
 19 20  1  0  0  0  0
 20 44  1  0  0  0  0
 20 45  1  0  0  0  0
 21 22  1  0  0  0  0
 21 46  1  0  0  0  0
 21 47  1  0  0  0  0
 22 26  1  0  0  0  0
 22 23  1  0  0  0  0
 22 28  1  0  0  0  0
 23 24  1  0  0  0  0
 23 48  1  0  0  0  0
 23 49  1  0  0  0  0
 24 25  1  0  0  0  0
 24 50  1  0  0  0  0
 24 51  1  0  0  0  0
 25 26  1  0  0  0  0
 26 27  1  0  0  0  0
 26 52  1  0  0  0  0
 27 53  1  0  0  0  0
 27 54  1  0  0  0  0
 27 55  1  0  0  0  0
M  END
> <s_m_source_file>
AV-unprocessed.smi

> <i_m_source_file_index>
281

> <i_lp_mmshare_version>
43012

> <i_f3d_flags>
0

> <s_epik_input>
W0NIM11bQ0BASF0xT1tDSDJdW0NIMl1bQ0BAXTEyW0NIMl1OKFtDSDJdW0NASF0oTzIpW0NIM10pYyhuW2NIXW4zKWMoYzM0KW5bY0hdbjRbQ0gyXVtDQEBdNShbT0hdKVtDSDJdW0NIMl1PW0NIMl01

> <s_epik_cmdline>
J2VwaWtfcHl0aG9uJywgJy1waCcsICc3LjAnLCAnLXRuJywgJzgnLCAnLW1hJywgJzIwMCcsICctbWV0YWxfYmluZGluZycsICctaW1hZScsICc8aW5maWxlLm1hZT4nLCAnLW9tYWUnLCAnPG91dGZpbGUubWFlPic=

> <r_lp_tautomer_probability>
1

> <r_epik_Ionization_Penalty>
0.00571331

> <r_epik_Ionization_Penalty_Charging>
0

> <r_epik_Ionization_Penalty_Neutral>
0.00571331

> <r_epik_State_Penalty>
0.00399586

> <r_epik_Charging_Adjusted_Penalty>
0.00399586

> <i_epik_Tot_Q>
0

> <i_epik_Tot_abs_Q>
0

> <r_epik_Metal_State_Penalty>
-0

> <b_epik_Metal_Only>
0

> <s_lp_Force_Field>
OPLS_2005

> <r_lp_Energy>
53.0608

> <b_lp_Chiralities_Consistent>
1

> <s_lp_Variant>
AV-unprocessed.smi:281-3

> <Gold.Version>
5.8.1

> <Gold.Id.Protein>
6NUR|6NUR_protein|mol2

> <Gold.PLP.Fitness>
40.7589

> <Gold.PLP.PLP>
-35.6085

> <Gold.PLP.part.hbond>
-1.8511

> <Gold.PLP.part.metal>
0.0000

> <Gold.PLP.part.buried>
-5.2185

> <Gold.PLP.part.nonpolar>
-29.2285

> <Gold.PLP.part.repulsive>
0.7126

> <Gold.PLP.ligand.clash>
0.0000

> <Gold.PLP.ligand.torsion>
0.5758

> <Gold.PLP.Chemscore.Hbond>
1.0000

> <Gold.PLP.Chemscore.CHOScore>
1.0000

> <Gold.PLP.Chemscore.Metal>
0.0000

> <Gold.Chemscore.Hbonds>
donor molecule, donor type, donor heavy atom, donor atom, acceptor molecule, acceptor atom, score
      L1  H    16    39       P1  7921  0.79
      L1  C    12    36       P1 10171  1.00

> <Gold.PLP.Chemscore.Internal.Correction>
0.3020

> <Gold.Rescore>
     Score         DG    S(hbond)    S(metal)    S(lipo)     H(rot)  DE(clash)    DE(int)     intcor
     13.01     -13.83       1.00        0.00      88.66       2.09       0.40       0.42       ----

> <Gold.Chemscore.Fitness>
13.0122

> <Gold.Chemscore.DG>
-13.8274

> <Gold.Chemscore.ZeroCoef>
-5.4800

> <Gold.Chemscore.Hbond>
0.9975

> <Gold.Chemscore.Metal>
0.0000

> <Gold.Chemscore.Lipo>
88.6581

> <Gold.Chemscore.Internal_Hbond>
0.0000

> <Gold.Chemscore.DEClash>
0.3977

> <Gold.Chemscore.DEInternal>
0.4175

> <Gold.Chemscore.Rot>
2.0927

> <Gold.Chemscore.Internal.Correction>
   9.000000E+99

> <Gold.Chemscore.Hbonds>
donor molecule, donor type, donor heavy atom, donor atom, acceptor molecule, acceptor atom, score
      L1  H    16    39       P1  7921  0.73

> <Gold.Chemscore.Hbond.Weighted>
-3.3318

> <Gold.Chemscore.Metal.Weighted>
-0.0000

> <Gold.Chemscore.Lipo.Weighted>
-10.3730

> <Gold.Chemscore.Internal_Hbond.Weighted>
0.0000

> <Gold.Chemscore.DEClash.Weighted>
0.3977

> <Gold.Chemscore.DEInternal.Weighted>
0.4175

> <Gold.Chemscore.Rot.Weighted>
5.3573

> <Gold.Chemscore.Internal.Correction.Weighted>
   9.000000E+99

> <Gold.Protein.RotatedTorsions>
[ 6907 6896 6895 6894 ] final  154.90 input  -60.11 | X-H torsion
[ 7974 7965 7964 7962 ] final  125.64 input  175.53 | X-H torsion
[ 8008 7997 7996 7995 ] final -132.26 input   59.86 | X-H torsion
[ 10167 10162 10161 10158 ] final   59.61 input  -65.29 | X-H torsion
[ 10718 10713 10712 10709 ] final  119.17 input   66.30 | X-H torsion
[ 10763 10752 10751 10750 ] final -118.49 input  -60.55 | X-H torsion
[ 11005 11000 10999 10996 ] final  144.53 input  -57.11 | X-H torsion

> <Gold.Protein.ActiveResidues>
 VAL166  LYS551  ARG553  GLY616  TRP617  ASP618  TYR619  PRO620  LYS621  CYS622 
 ASP623  PHE694  ASN695  SER759  ASP760  ASP761  ALA762  ILE779  LEU786  VAL792 
 PHE793  MET794  SER795  GLU796  ALA797  LYS798  CYS799  TRP800  GLU811  SER814 

> <Gold.Protein.RotatedAtoms>
  152.0518  133.4022  159.4379 H   0  0  0  0  0  0  0  0  0  0  0  0  # atno 6907 bound_to 6896
  150.6870  134.3299  159.4832 H   0  0  0  0  0  0  0  0  0  0  0  0  # atno 6908 bound_to 6896
  152.1110  134.9274  160.0617 H   0  0  0  0  0  0  0  0  0  0  0  0  # atno 6909 bound_to 6896
  145.0707  139.3732  143.4959 H   0  0  0  0  0  0  0  0  0  0  0  0  # atno 7974 bound_to 7965
  155.3260  140.0464  157.3041 H   0  0  0  0  0  0  0  0  0  0  0  0  # atno 8008 bound_to 7997
  154.5354  140.2270  155.8697 H   0  0  0  0  0  0  0  0  0  0  0  0  # atno 8009 bound_to 7997
  156.1830  140.3069  155.9190 H   0  0  0  0  0  0  0  0  0  0  0  0  # atno 8010 bound_to 7997
  140.1746  144.4243  150.6644 H   0  0  0  0  0  0  0  0  0  0  0  0  # atno 10167 bound_to 10162
  157.5980  131.1055  150.7859 H   0  0  0  0  0  0  0  0  0  0  0  0  # atno 10718 bound_to 10713
  154.8589  135.4272  154.2148 H   0  0  0  0  0  0  0  0  0  0  0  0  # atno 10763 bound_to 10752
  153.3166  135.6979  153.7074 H   0  0  0  0  0  0  0  0  0  0  0  0  # atno 10764 bound_to 10752
  153.6145  135.3513  155.2964 H   0  0  0  0  0  0  0  0  0  0  0  0  # atno 10765 bound_to 10752
  140.0639  134.9189  157.1232 H   0  0  0  0  0  0  0  0  0  0  0  0  # atno 11005 bound_to 11000
  146.3528  140.0451  142.8640 LP  0  0  0  0  0  0  0  0  0  0  0  0  # atno 17320 bound_to 7965
  145.1296  140.9510  143.4552 LP  0  0  0  0  0  0  0  0  0  0  0  0  # atno 17321 bound_to 7965
  140.6560  143.2238  151.5968 LP  0  0  0  0  0  0  0  0  0  0  0  0  # atno 17342 bound_to 10162
  139.5323  144.2881  152.1174 LP  0  0  0  0  0  0  0  0  0  0  0  0  # atno 17343 bound_to 10162
  156.8265  130.5001  149.5336 LP  0  0  0  0  0  0  0  0  0  0  0  0  # atno 17370 bound_to 10713
  156.1047  130.5995  150.9951 LP  0  0  0  0  0  0  0  0  0  0  0  0  # atno 17371 bound_to 10713
  140.3728  134.2372  155.7176 LP  0  0  0  0  0  0  0  0  0  0  0  0  # atno 17394 bound_to 11000
  141.1985  133.8035  157.0581 LP  0  0  0  0  0  0  0  0  0  0  0  0  # atno 17395 bound_to 11000

$$$$
