AV-unprocessed.smi:1406|AV-procd|sdf|5718|dock7
  -GOLD-   22720 5353D 1   1.00000     0.00000
 Structure written by MMmdl.
 41 43  0  0  0  0  0  0  0  0  2 V2000
  147.4467  133.0636  152.6109 C   0  0  0  0  0  0  0  0  0  0  0  0
  145.9131  133.1985  152.7021 C   0  0  1  0  0  0  0  0  0  0  0  0
  145.4579  134.6330  153.0135 C   0  0  0  0  0  0  0  0  0  0  0  0
  144.3268  134.8573  153.4454 O   0  0  0  0  0  0  0  0  0  0  0  0
  146.3596  135.6023  152.7915 N   0  0  0  0  0  0  0  0  0  0  0  0
  146.1467  137.0216  153.0615 C   0  0  2  0  0  0  0  0  0  0  0  0
  146.2256  137.9213  151.8099 C   0  0  0  0  0  0  0  0  0  0  0  0
  147.0145  139.1532  152.2651 C   0  0  0  0  0  0  0  0  0  0  0  0
  147.9401  138.6005  153.2608 N   0  3  1  0  0  0  0  0  0  0  0  0
  148.7061  139.5353  154.1099 C   0  0  0  0  0  0  0  0  0  0  0  0
  149.7239  138.7203  154.9374 C   0  0  0  0  0  0  0  0  0  0  0  0
  149.0571  137.5571  155.7075 C   0  0  0  0  0  0  0  0  0  0  0  0
  148.1695  136.6924  154.7857 C   0  0  0  0  0  0  0  0  0  0  0  0
  147.1817  137.6105  154.0444 C   0  0  2  0  0  0  0  0  0  0  0  0
  145.2448  132.7099  151.5021 N   0  0  0  0  0  0  0  0  0  0  0  0
  145.7593  132.2035  150.3792 C   0  0  0  0  0  0  0  0  0  0  0  0
  144.8498  131.8047  149.5015 N   0  0  0  0  0  0  0  0  0  0  0  0
  143.7136  132.1074  150.1970 C   0  0  0  0  0  0  0  0  0  0  0  0
  143.8935  132.6405  151.4051 N   0  0  0  0  0  0  0  0  0  0  0  0
  147.9259  133.3889  153.5350 H   0  0  0  0  0  0  0  0  0  0  0  0
  147.8637  133.6569  151.7961 H   0  0  0  0  0  0  0  0  0  0  0  0
  147.7352  132.0256  152.4433 H   0  0  0  0  0  0  0  0  0  0  0  0
  145.5842  132.5685  153.5303 H   0  0  0  0  0  0  0  0  0  0  0  0
  147.2657  135.3334  152.4363 H   0  0  0  0  0  0  0  0  0  0  0  0
  145.1590  137.1291  153.5146 H   0  0  0  0  0  0  0  0  0  0  0  0
  146.7765  137.4163  151.0146 H   0  0  0  0  0  0  0  0  0  0  0  0
  145.2419  138.1786  151.4158 H   0  0  0  0  0  0  0  0  0  0  0  0
  147.5406  139.6439  151.4458 H   0  0  0  0  0  0  0  0  0  0  0  0
  146.3527  139.8799  152.7390 H   0  0  0  0  0  0  0  0  0  0  0  0
  149.2252  140.2616  153.4837 H   0  0  0  0  0  0  0  0  0  0  0  0
  148.0310  140.0925  154.7613 H   0  0  0  0  0  0  0  0  0  0  0  0
  150.4824  138.3132  154.2675 H   0  0  0  0  0  0  0  0  0  0  0  0
  150.2507  139.3756  155.6318 H   0  0  0  0  0  0  0  0  0  0  0  0
  149.8180  136.9377  156.1833 H   0  0  0  0  0  0  0  0  0  0  0  0
  148.4469  137.9656  156.5142 H   0  0  0  0  0  0  0  0  0  0  0  0
  148.7922  136.1472  154.0749 H   0  0  0  0  0  0  0  0  0  0  0  0
  147.6321  135.9487  155.3754 H   0  0  0  0  0  0  0  0  0  0  0  0
  146.6099  138.1596  154.7958 H   0  0  0  0  0  0  0  0  0  0  0  0
  146.8213  132.1183  150.2021 H   0  0  0  0  0  0  0  0  0  0  0  0
  142.7244  131.9218  149.8047 H   0  0  0  0  0  0  0  0  0  0  0  0
  148.6195  138.0744  152.7298 H   0  0  0  0  0  0  0  0  0  0  0  0
  1  2  1  0  0  0  0
  1 20  1  0  0  0  0
  1 21  1  0  0  0  0
  1 22  1  0  0  0  0
  2  3  1  0  0  0  0
  2 15  1  0  0  0  0
  2 23  1  0  0  0  0
  3  4  2  0  0  0  0
  3  5  1  0  0  0  0
  5  6  1  0  0  0  0
  5 24  1  0  0  0  0
  6 14  1  0  0  0  0
  6  7  1  0  0  0  0
  6 25  1  0  0  0  0
  7  8  1  0  0  0  0
  7 26  1  0  0  0  0
  7 27  1  0  0  0  0
  8  9  1  0  0  0  0
  8 28  1  0  0  0  0
  8 29  1  0  0  0  0
  9 14  1  0  0  0  0
  9 10  1  0  0  0  0
  9 41  1  0  0  0  0
 10 11  1  0  0  0  0
 10 30  1  0  0  0  0
 10 31  1  0  0  0  0
 11 12  1  0  0  0  0
 11 32  1  0  0  0  0
 11 33  1  0  0  0  0
 12 13  1  0  0  0  0
 12 34  1  0  0  0  0
 12 35  1  0  0  0  0
 13 14  1  0  0  0  0
 13 36  1  0  0  0  0
 13 37  1  0  0  0  0
 14 38  1  0  0  0  0
 15 19  1  0  0  0  0
 15 16  1  0  0  0  0
 16 17  2  0  0  0  0
 16 39  1  0  0  0  0
 17 18  1  0  0  0  0
 18 19  2  0  0  0  0
 18 40  1  0  0  0  0
M  CHG  1   9   1
M  END
> <s_m_source_file>
AV-unprocessed.smi

> <i_m_source_file_index>
1406

> <i_lp_mmshare_version>
43012

> <i_f3d_flags>
0

> <s_epik_input>
bjFbY0hdbltjSF1uMVtDQEhdKFtDSDNdKUMoPU8pW05IXVtDQEhdKFtDSDJdW0NIMl0yKVtDQEBIXShOMjMpW0NIMl1bQ0gyXVtDSDJdW0NIMl0z

> <s_epik_cmdline>
J2VwaWtfcHl0aG9uJywgJy1waCcsICc3LjAnLCAnLXRuJywgJzgnLCAnLW1hJywgJzIwMCcsICctbWV0YWxfYmluZGluZycsICctaW1hZScsICc8aW5maWxlLm1hZT4nLCAnLW9tYWUnLCAnPG91dGZpbGUubWFlPic=

> <r_lp_tautomer_probability>
1

> <r_epik_Ionization_Penalty>
0.00197066

> <r_epik_Ionization_Penalty_Charging>
0.00196223

> <r_epik_Ionization_Penalty_Neutral>
8.43107e-06

> <r_epik_State_Penalty>
0.00133866

> <r_epik_Charging_Adjusted_Penalty>
0.00330089

> <i_epik_Tot_Q>
1

> <i_epik_Tot_abs_Q>
1

> <r_epik_Metal_State_Penalty>
-0

> <b_epik_Metal_Only>
0

> <s_lp_Force_Field>
OPLS_2005

> <r_lp_Energy>
46.7011

> <b_lp_Chiralities_Consistent>
1

> <s_lp_Variant>
AV-unprocessed.smi:1406-10

> <Gold.Version>
5.8.1

> <Gold.Id.Protein>
6NUR|6NUR_protein|mol2

> <Gold.PLP.Fitness>
37.7787

> <Gold.PLP.PLP>
-24.9197

> <Gold.PLP.part.hbond>
-3.9180

> <Gold.PLP.part.metal>
0.0000

> <Gold.PLP.part.buried>
2.8774

> <Gold.PLP.part.nonpolar>
-24.7919

> <Gold.PLP.part.repulsive>
0.4442

> <Gold.PLP.ligand.clash>
0.0000

> <Gold.PLP.ligand.torsion>
0.4132

> <Gold.PLP.Chemscore.Hbond>
2.5286

> <Gold.PLP.Chemscore.CHOScore>
2.0000

> <Gold.PLP.Chemscore.Metal>
0.0000

> <Gold.Chemscore.Hbonds>
donor molecule, donor type, donor heavy atom, donor atom, acceptor molecule, acceptor atom, score
      L1  H     5    24       P1  7948  0.78
      L1  H     9    41       P1  7948  1.72
      L1  C    16    39       P1 10747  1.00
      L1  C    18    40       P1 10952  1.00

> <Gold.PLP.Chemscore.Internal.Correction>
0.0996

> <Gold.Rescore>
     Score         DG    S(hbond)    S(metal)    S(lipo)     H(rot)  DE(clash)    DE(int)     intcor
      9.89     -11.44       1.54        0.00      48.26       1.89       0.26       1.29       ----

> <Gold.Chemscore.Fitness>
9.8874

> <Gold.Chemscore.DG>
-11.4435

> <Gold.Chemscore.ZeroCoef>
-5.4800

> <Gold.Chemscore.Hbond>
1.5408

> <Gold.Chemscore.Metal>
0.0000

> <Gold.Chemscore.Lipo>
48.2633

> <Gold.Chemscore.Internal_Hbond>
0.0000

> <Gold.Chemscore.DEClash>
0.2621

> <Gold.Chemscore.DEInternal>
1.2941

> <Gold.Chemscore.Rot>
1.8865

> <Gold.Chemscore.Internal.Correction>
   9.000000E+99

> <Gold.Chemscore.Hbonds>
donor molecule, donor type, donor heavy atom, donor atom, acceptor molecule, acceptor atom, score
      L1  H     5    24       P1  7948  0.76
      L1  H     9    41       P1  7948  0.80

> <Gold.Chemscore.Hbond.Weighted>
-5.1462

> <Gold.Chemscore.Metal.Weighted>
-0.0000

> <Gold.Chemscore.Lipo.Weighted>
-5.6468

> <Gold.Chemscore.Internal_Hbond.Weighted>
0.0000

> <Gold.Chemscore.DEClash.Weighted>
0.2621

> <Gold.Chemscore.DEInternal.Weighted>
1.2941

> <Gold.Chemscore.Rot.Weighted>
4.8295

> <Gold.Chemscore.Internal.Correction.Weighted>
   9.000000E+99

> <Gold.Protein.RotatedTorsions>
[ 6907 6896 6895 6894 ] final  -43.31 input  -60.11 | X-H torsion
[ 7974 7965 7964 7962 ] final   81.20 input  175.53 | X-H torsion
[ 8008 7997 7996 7995 ] final   13.89 input   59.86 | X-H torsion
[ 10167 10162 10161 10158 ] final   52.75 input  -65.29 | X-H torsion
[ 10718 10713 10712 10709 ] final  160.09 input   66.30 | X-H torsion
[ 10763 10752 10751 10750 ] final  -81.33 input  -60.55 | X-H torsion
[ 11005 11000 10999 10996 ] final   -7.80 input  -57.11 | X-H torsion

> <Gold.Protein.ActiveResidues>
 VAL166  LYS551  ARG553  GLY616  TRP617  ASP618  TYR619  PRO620  LYS621  CYS622 
 ASP623  PHE694  ASN695  SER759  ASP760  ASP761  ALA762  ILE779  LEU786  VAL792 
 PHE793  MET794  SER795  GLU796  ALA797  LYS798  CYS799  TRP800  GLU811  SER814 

> <Gold.Protein.RotatedAtoms>
  150.9454  134.8859  159.7638 H   0  0  0  0  0  0  0  0  0  0  0  0  # atno 6907 bound_to 6896
  152.5097  134.3883  159.9385 H   0  0  0  0  0  0  0  0  0  0  0  0  # atno 6908 bound_to 6896
  151.3901  133.3751  159.2755 H   0  0  0  0  0  0  0  0  0  0  0  0  # atno 6909 bound_to 6896
  145.6412  139.2426  143.2029 H   0  0  0  0  0  0  0  0  0  0  0  0  # atno 7974 bound_to 7965
  154.8408  140.2914  155.5661 H   0  0  0  0  0  0  0  0  0  0  0  0  # atno 8008 bound_to 7997
  156.3011  140.2514  156.3282 H   0  0  0  0  0  0  0  0  0  0  0  0  # atno 8009 bound_to 7997
  154.9127  140.0388  157.1944 H   0  0  0  0  0  0  0  0  0  0  0  0  # atno 8010 bound_to 7997
  140.2480  144.3510  150.6357 H   0  0  0  0  0  0  0  0  0  0  0  0  # atno 10167 bound_to 10162
  157.1551  131.0573  151.2260 H   0  0  0  0  0  0  0  0  0  0  0  0  # atno 10718 bound_to 10713
  154.5622  135.5630  153.7018 H   0  0  0  0  0  0  0  0  0  0  0  0  # atno 10763 bound_to 10752
  153.0021  135.6276  154.2229 H   0  0  0  0  0  0  0  0  0  0  0  0  # atno 10764 bound_to 10752
  154.2167  135.2871  155.2919 H   0  0  0  0  0  0  0  0  0  0  0  0  # atno 10765 bound_to 10752
  140.7166  133.8863  155.8790 H   0  0  0  0  0  0  0  0  0  0  0  0  # atno 11005 bound_to 11000
  146.1279  140.7224  142.9426 LP  0  0  0  0  0  0  0  0  0  0  0  0  # atno 17320 bound_to 7965
  144.7157  140.4199  143.7046 LP  0  0  0  0  0  0  0  0  0  0  0  0  # atno 17321 bound_to 7965
  140.6062  143.2168  151.6976 LP  0  0  0  0  0  0  0  0  0  0  0  0  # atno 17342 bound_to 10162
  139.5055  144.3714  152.0466 LP  0  0  0  0  0  0  0  0  0  0  0  0  # atno 17343 bound_to 10162
  157.4184  130.7424  149.6894 LP  0  0  0  0  0  0  0  0  0  0  0  0  # atno 17370 bound_to 10713
  155.9763  130.4077  150.3786 LP  0  0  0  0  0  0  0  0  0  0  0  0  # atno 17371 bound_to 10713
  141.0039  134.1113  157.4290 LP  0  0  0  0  0  0  0  0  0  0  0  0  # atno 17394 bound_to 11000
  139.8858  135.0076  156.6459 LP  0  0  0  0  0  0  0  0  0  0  0  0  # atno 17395 bound_to 11000

$$$$
