AV-unprocessed.smi:304|AV-procd|sdf|2276|dock5
  -GOLD-   2262022173D 1   1.00000     0.00000
 Structure written by MMmdl.
 36 38  0  0  0  0  0  0  0  0  1 V2000
  149.7488  140.9516  153.4721 O   0  0  0  0  0  0  0  0  0  0  0  0
  149.3263  140.6948  154.7973 C   0  0  2  0  0  0  0  0  0  0  0  0
  147.8021  140.8769  154.8637 C   0  0  0  0  0  0  0  0  0  0  0  0
  147.4798  142.2064  154.4919 O   0  0  0  0  0  0  0  0  0  0  0  0
  146.4854  142.2676  153.4822 C   0  0  0  0  0  0  0  0  0  0  0  0
  145.7063  143.5272  153.6868 C   0  0  0  0  0  0  0  0  0  0  0  0
  145.0833  143.9341  154.8392 C   0  0  0  0  0  0  0  0  0  0  0  0
  144.4345  145.1976  154.7136 C   0  0  0  0  0  0  0  0  0  0  0  0
  144.5781  145.7465  153.4674 C   0  0  0  0  0  0  0  0  0  0  0  0
  145.5174  144.7185  152.4206 S   0  0  0  0  0  0  0  0  0  0  0  0
  150.0610  141.6525  155.7554 C   0  0  0  0  0  0  0  0  0  0  0  0
  150.8068  140.9498  156.7847 N   0  0  0  0  0  0  0  0  0  0  0  0
  150.9370  139.6163  156.9213 C   0  0  0  0  0  0  0  0  0  0  0  0
  151.6673  139.1766  157.9421 N   0  0  0  0  0  0  0  0  0  0  0  0
  152.0585  140.3637  158.5375 C   0  0  0  0  0  0  0  0  0  0  0  0
  152.8580  140.5967  159.6792 C   0  0  0  0  0  0  0  0  0  0  0  0
  153.1280  141.9135  160.1062 C   0  0  0  0  0  0  0  0  0  0  0  0
  153.8960  142.1190  161.2026 F   0  0  0  0  0  0  0  0  0  0  0  0
  152.6041  143.0158  159.3986 C   0  0  0  0  0  0  0  0  0  0  0  0
  152.8696  144.2767  159.8145 F   0  0  0  0  0  0  0  0  0  0  0  0
  151.8045  142.8082  158.2584 C   0  0  0  0  0  0  0  0  0  0  0  0
  151.5365  141.4928  157.8369 C   0  0  0  0  0  0  0  0  0  0  0  0
  149.8460  140.1245  153.0251 H   0  0  0  0  0  0  0  0  0  0  0  0
  149.5839  139.6670  155.0579 H   0  0  0  0  0  0  0  0  0  0  0  0
  147.3206  140.1995  154.1564 H   0  0  0  0  0  0  0  0  0  0  0  0
  147.4172  140.6344  155.8559 H   0  0  0  0  0  0  0  0  0  0  0  0
  146.9456  142.2641  152.4928 H   0  0  0  0  0  0  0  0  0  0  0  0
  145.8226  141.4038  153.5481 H   0  0  0  0  0  0  0  0  0  0  0  0
  145.0688  143.3711  155.7607 H   0  0  0  0  0  0  0  0  0  0  0  0
  143.8951  145.6538  155.5306 H   0  0  0  0  0  0  0  0  0  0  0  0
  144.1939  146.6876  153.1027 H   0  0  0  0  0  0  0  0  0  0  0  0
  150.7467  142.2959  155.2027 H   0  0  0  0  0  0  0  0  0  0  0  0
  149.3458  142.3128  156.2480 H   0  0  0  0  0  0  0  0  0  0  0  0
  150.4687  138.9297  156.2311 H   0  0  0  0  0  0  0  0  0  0  0  0
  153.2651  139.7606  160.2281 H   0  0  0  0  0  0  0  0  0  0  0  0
  151.4047  143.6501  157.7131 H   0  0  0  0  0  0  0  0  0  0  0  0
  1  2  1  0  0  0  0
  1 23  1  0  0  0  0
  2  3  1  0  0  0  0
  2 11  1  0  0  0  0
  2 24  1  0  0  0  0
  3  4  1  0  0  0  0
  3 25  1  0  0  0  0
  3 26  1  0  0  0  0
  4  5  1  0  0  0  0
  5  6  1  0  0  0  0
  5 27  1  0  0  0  0
  5 28  1  0  0  0  0
  6 10  1  0  0  0  0
  6  7  2  0  0  0  0
  7  8  1  0  0  0  0
  7 29  1  0  0  0  0
  8  9  2  0  0  0  0
  8 30  1  0  0  0  0
  9 10  1  0  0  0  0
  9 31  1  0  0  0  0
 11 12  1  0  0  0  0
 11 32  1  0  0  0  0
 11 33  1  0  0  0  0
 12 22  1  0  0  0  0
 12 13  1  0  0  0  0
 13 14  2  0  0  0  0
 13 34  1  0  0  0  0
 14 15  1  0  0  0  0
 15 22  2  0  0  0  0
 15 16  1  0  0  0  0
 16 17  2  0  0  0  0
 16 35  1  0  0  0  0
 17 18  1  0  0  0  0
 17 19  1  0  0  0  0
 19 20  1  0  0  0  0
 19 21  2  0  0  0  0
 21 22  1  0  0  0  0
 21 36  1  0  0  0  0
M  END
> <s_m_source_file>
AV-unprocessed.smi

> <i_m_source_file_index>
304

> <i_lp_mmshare_version>
43012

> <i_f3d_flags>
0

> <s_epik_input>
W2NIXTFjKEYpYyhGKVtjSF1jKGMxMiluKFtjSF1uMilbQ0gyXVtDQEhdKFtPSF0pW0NIMl1PW0NIMl1jM1tjSF1bY0hdW2NIXXMz

> <s_epik_cmdline>
J2VwaWtfcHl0aG9uJywgJy1waCcsICc3LjAnLCAnLXRuJywgJzgnLCAnLW1hJywgJzIwMCcsICctbWV0YWxfYmluZGluZycsICctaW1hZScsICc8aW5maWxlLm1hZT4nLCAnLW9tYWUnLCAnPG91dGZpbGUubWFlPic=

> <r_epik_Ionization_Penalty>
0.0152118

> <r_epik_Ionization_Penalty_Charging>
0

> <r_epik_Ionization_Penalty_Neutral>
0.0152118

> <r_epik_State_Penalty>
0.0119413

> <r_epik_Charging_Adjusted_Penalty>
0.0119413

> <i_epik_Tot_Q>
0

> <i_epik_Tot_abs_Q>
0

> <r_epik_Metal_State_Penalty>
1.20623e-05

> <b_epik_Metal_Only>
0

> <s_lp_Force_Field>
OPLS_2005

> <r_lp_Energy>
8.33782

> <b_lp_Chiralities_Consistent>
1

> <s_lp_Variant>
AV-unprocessed.smi:304-1

> <Gold.Version>
5.8.1

> <Gold.Id.Protein>
6NUR|6NUR_protein|mol2

> <Gold.PLP.Fitness>
54.1674

> <Gold.PLP.PLP>
-52.0106

> <Gold.PLP.part.hbond>
-2.5627

> <Gold.PLP.part.metal>
0.0000

> <Gold.PLP.part.buried>
-4.6125

> <Gold.PLP.part.nonpolar>
-43.6129

> <Gold.PLP.part.repulsive>
0.1828

> <Gold.PLP.ligand.clash>
0.0000

> <Gold.PLP.ligand.torsion>
1.3346

> <Gold.PLP.Chemscore.Hbond>
1.5680

> <Gold.PLP.Chemscore.CHOScore>
0.0000

> <Gold.PLP.Chemscore.Metal>
0.0000

> <Gold.Chemscore.Hbonds>
donor molecule, donor type, donor heavy atom, donor atom, acceptor molecule, acceptor atom, score
      L1  H     1    23       P1  7957  0.40
      P1  H  7989  7998       L1     1  0.03
      P1  H  8011  8017       L1     1  1.00

> <Gold.PLP.Chemscore.Internal.Correction>
0.1221

> <Gold.Rescore>
     Score         DG    S(hbond)    S(metal)    S(lipo)     H(rot)  DE(clash)    DE(int)     intcor
     14.45     -16.15       1.33        0.00     110.90       2.64       0.32       1.38       ----

> <Gold.Chemscore.Fitness>
14.4538

> <Gold.Chemscore.DG>
-16.1508

> <Gold.Chemscore.ZeroCoef>
-5.4800

> <Gold.Chemscore.Hbond>
1.3336

> <Gold.Chemscore.Metal>
0.0000

> <Gold.Chemscore.Lipo>
110.9047

> <Gold.Chemscore.Internal_Hbond>
0.0000

> <Gold.Chemscore.DEClash>
0.3193

> <Gold.Chemscore.DEInternal>
1.3778

> <Gold.Chemscore.Rot>
2.6403

> <Gold.Chemscore.Internal.Correction>
   9.000000E+99

> <Gold.Chemscore.Hbonds>
donor molecule, donor type, donor heavy atom, donor atom, acceptor molecule, acceptor atom, score
      L1  H     1    23       P1  7957  0.40
      P1  H  8011  8017       L1     1  0.83

> <Gold.Chemscore.Hbond.Weighted>
-4.4541

> <Gold.Chemscore.Metal.Weighted>
-0.0000

> <Gold.Chemscore.Lipo.Weighted>
-12.9759

> <Gold.Chemscore.Internal_Hbond.Weighted>
0.0000

> <Gold.Chemscore.DEClash.Weighted>
0.3193

> <Gold.Chemscore.DEInternal.Weighted>
1.3778

> <Gold.Chemscore.Rot.Weighted>
6.7592

> <Gold.Chemscore.Internal.Correction.Weighted>
   9.000000E+99

> <Gold.Protein.RotatedTorsions>
[ 6907 6896 6895 6894 ] final   55.78 input  -60.11 | X-H torsion
[ 7974 7965 7964 7962 ] final  119.90 input  175.53 | X-H torsion
[ 8008 7997 7996 7995 ] final   70.99 input   59.86 | X-H torsion
[ 10167 10162 10161 10158 ] final   65.60 input  -65.29 | X-H torsion
[ 10718 10713 10712 10709 ] final  168.30 input   66.30 | X-H torsion
[ 10763 10752 10751 10750 ] final  -28.37 input  -60.55 | X-H torsion
[ 11005 11000 10999 10996 ] final   99.63 input  -57.11 | X-H torsion

> <Gold.Protein.ActiveResidues>
 VAL166  LYS551  ARG553  GLY616  TRP617  ASP618  TYR619  PRO620  LYS621  CYS622 
 ASP623  PHE694  ASN695  SER759  ASP760  ASP761  ALA762  ILE779  LEU786  VAL792 
 PHE793  MET794  SER795  GLU796  ALA797  LYS798  CYS799  TRP800  GLU811  SER814 

> <Gold.Protein.RotatedAtoms>
  152.3572  134.6923  160.0218 H   0  0  0  0  0  0  0  0  0  0  0  0  # atno 6907 bound_to 6896
  151.7258  133.3310  159.3335 H   0  0  0  0  0  0  0  0  0  0  0  0  # atno 6908 bound_to 6896
  150.7580  134.6342  159.6247 H   0  0  0  0  0  0  0  0  0  0  0  0  # atno 6909 bound_to 6896
  145.1376  139.3288  143.4633 H   0  0  0  0  0  0  0  0  0  0  0  0  # atno 7974 bound_to 7965
  155.7472  140.3489  155.5132 H   0  0  0  0  0  0  0  0  0  0  0  0  # atno 8008 bound_to 7997
  155.9039  140.1038  157.1351 H   0  0  0  0  0  0  0  0  0  0  0  0  # atno 8009 bound_to 7997
  154.4047  140.1281  156.4458 H   0  0  0  0  0  0  0  0  0  0  0  0  # atno 8010 bound_to 7997
  140.1095  144.4831  150.6987 H   0  0  0  0  0  0  0  0  0  0  0  0  # atno 10167 bound_to 10162
  157.0391  131.0281  151.2719 H   0  0  0  0  0  0  0  0  0  0  0  0  # atno 10718 bound_to 10713
  153.7473  135.6928  153.4953 H   0  0  0  0  0  0  0  0  0  0  0  0  # atno 10763 bound_to 10752
  153.2028  135.4430  155.0285 H   0  0  0  0  0  0  0  0  0  0  0  0  # atno 10764 bound_to 10752
  154.8200  135.3417  154.6995 H   0  0  0  0  0  0  0  0  0  0  0  0  # atno 10765 bound_to 10752
  139.8770  134.9104  156.4635 H   0  0  0  0  0  0  0  0  0  0  0  0  # atno 11005 bound_to 11000
  146.3508  140.1400  142.8595 LP  0  0  0  0  0  0  0  0  0  0  0  0  # atno 17320 bound_to 7965
  145.0567  140.9058  143.4963 LP  0  0  0  0  0  0  0  0  0  0  0  0  # atno 17321 bound_to 7965
  140.6933  143.2389  151.5070 LP  0  0  0  0  0  0  0  0  0  0  0  0  # atno 17342 bound_to 10162
  139.5627  144.2117  152.1716 LP  0  0  0  0  0  0  0  0  0  0  0  0  # atno 17343 bound_to 10162
  157.5118  130.7943  149.7713 LP  0  0  0  0  0  0  0  0  0  0  0  0  # atno 17370 bound_to 10713
  156.0044  130.3863  150.2486 LP  0  0  0  0  0  0  0  0  0  0  0  0  # atno 17371 bound_to 10713
  140.8847  133.7892  155.9505 LP  0  0  0  0  0  0  0  0  0  0  0  0  # atno 17394 bound_to 11000
  140.8817  134.2603  157.5140 LP  0  0  0  0  0  0  0  0  0  0  0  0  # atno 17395 bound_to 11000

$$$$
