AV-unprocessed.smi:2309|AV-procd|sdf|9254|dock2
  -GOLD-   2272012473D 1   1.00000     0.00000
 Structure written by MMmdl.
 34 35  0  0  0  0  0  0  0  0  1 V2000
  147.8919  138.8460  153.1133 C   0  0  0  0  0  0  0  0  0  0  0  0
  148.4739  139.6088  154.2902 C   0  0  0  0  0  0  0  0  0  0  0  0
  147.7705  140.7535  154.6761 N   0  0  0  0  0  0  0  0  0  0  0  0
  148.1947  141.4677  155.6668 C   0  0  0  0  0  0  0  0  0  0  0  0
  149.3551  141.1251  156.3805 N   0  0  0  0  0  0  0  0  0  0  0  0
  149.7331  142.0267  157.4824 C   0  0  0  0  0  0  0  0  0  0  0  0
  151.1612  142.5930  157.3155 C   0  0  1  0  0  0  0  0  0  0  0  0
  151.0628  143.9256  156.8491 O   0  0  0  0  0  0  0  0  0  0  0  0
  151.9325  142.5121  158.6317 C   0  0  0  0  0  0  0  0  0  0  0  0
  152.3640  141.2534  159.1117 C   0  0  0  0  0  0  0  0  0  0  0  0
  153.0837  141.1516  160.3172 C   0  0  0  0  0  0  0  0  0  0  0  0
  153.5976  139.6065  160.8868 Cl  0  0  0  0  0  0  0  0  0  0  0  0
  153.3852  142.3102  161.0552 C   0  0  0  0  0  0  0  0  0  0  0  0
  152.9712  143.5686  160.5824 C   0  0  0  0  0  0  0  0  0  0  0  0
  152.2514  143.6772  159.3755 C   0  0  0  0  0  0  0  0  0  0  0  0
  151.7901  145.2550  158.8391 Cl  0  0  0  0  0  0  0  0  0  0  0  0
  150.1008  140.0256  156.0692 C   0  0  0  0  0  0  0  0  0  0  0  0
  151.1202  139.7358  156.6980 O   0  0  0  0  0  0  0  0  0  0  0  0
  149.6060  139.2225  154.9393 C   0  0  0  0  0  0  0  0  0  0  0  0
  150.4154  137.9880  154.5623 C   0  0  0  0  0  0  0  0  0  0  0  0
  147.6359  137.8277  153.4070 H   0  0  0  0  0  0  0  0  0  0  0  0
  148.6093  138.8035  152.2934 H   0  0  0  0  0  0  0  0  0  0  0  0
  146.9851  139.3233  152.7396 H   0  0  0  0  0  0  0  0  0  0  0  0
  147.6862  142.3729  156.0032 H   0  0  0  0  0  0  0  0  0  0  0  0
  149.0143  142.8371  157.6209 H   0  0  0  0  0  0  0  0  0  0  0  0
  149.6797  141.4607  158.4146 H   0  0  0  0  0  0  0  0  0  0  0  0
  151.6994  142.0422  156.5455 H   0  0  0  0  0  0  0  0  0  0  0  0
  150.3210  143.9851  156.2665 H   0  0  0  0  0  0  0  0  0  0  0  0
  152.1475  140.3547  158.5527 H   0  0  0  0  0  0  0  0  0  0  0  0
  153.9377  142.2366  161.9804 H   0  0  0  0  0  0  0  0  0  0  0  0
  153.2114  144.4567  161.1483 H   0  0  0  0  0  0  0  0  0  0  0  0
  151.4294  138.2753  154.2821 H   0  0  0  0  0  0  0  0  0  0  0  0
  149.9897  137.4331  153.7280 H   0  0  0  0  0  0  0  0  0  0  0  0
  150.4786  137.3058  155.4106 H   0  0  0  0  0  0  0  0  0  0  0  0
  1  2  1  0  0  0  0
  1 21  1  0  0  0  0
  1 22  1  0  0  0  0
  1 23  1  0  0  0  0
  2 19  2  0  0  0  0
  2  3  1  0  0  0  0
  3  4  2  0  0  0  0
  4  5  1  0  0  0  0
  4 24  1  0  0  0  0
  5  6  1  0  0  0  0
  5 17  1  0  0  0  0
  6  7  1  0  0  0  0
  6 25  1  0  0  0  0
  6 26  1  0  0  0  0
  7  8  1  0  0  0  0
  7  9  1  0  0  0  0
  7 27  1  0  0  0  0
  8 28  1  0  0  0  0
  9 15  1  0  0  0  0
  9 10  2  0  0  0  0
 10 11  1  0  0  0  0
 10 29  1  0  0  0  0
 11 12  1  0  0  0  0
 11 13  2  0  0  0  0
 13 14  1  0  0  0  0
 13 30  1  0  0  0  0
 14 15  2  0  0  0  0
 14 31  1  0  0  0  0
 15 16  1  0  0  0  0
 17 18  2  0  0  0  0
 17 19  1  0  0  0  0
 19 20  1  0  0  0  0
 20 32  1  0  0  0  0
 20 33  1  0  0  0  0
 20 34  1  0  0  0  0
M  END
> <s_m_source_file>
AV-unprocessed.smi

> <i_m_source_file_index>
2309

> <i_lp_mmshare_version>
43012

> <i_f3d_flags>
0

> <s_epik_input>
W0NIM11jMW5bY0hdbihjKD1PKWMxW0NIM10pW0NIMl1bQ0BIXShbT0hdKWMyW2NIXWMoQ2wpW2NIXVtjSF1jMkNs

> <s_epik_cmdline>
J2VwaWtfcHl0aG9uJywgJy1waCcsICc3LjAnLCAnLXRuJywgJzgnLCAnLW1hJywgJzIwMCcsICctbWV0YWxfYmluZGluZycsICctaW1hZScsICc8aW5maWxlLm1hZT4nLCAnLW9tYWUnLCAnPG91dGZpbGUubWFlPic=

> <r_lp_tautomer_probability>
1

> <r_epik_Ionization_Penalty>
5.09224e-05

> <r_epik_Ionization_Penalty_Charging>
7.56727e-08

> <r_epik_Ionization_Penalty_Neutral>
5.08468e-05

> <r_epik_State_Penalty>
-0

> <r_epik_Charging_Adjusted_Penalty>
7.56727e-08

> <i_epik_Tot_Q>
0

> <i_epik_Tot_abs_Q>
0

> <r_epik_Metal_State_Penalty>
-0

> <b_epik_Metal_Only>
0

> <s_lp_Force_Field>
OPLS_2005

> <r_lp_Energy>
18.7705

> <b_lp_Chiralities_Consistent>
1

> <s_lp_Variant>
AV-unprocessed.smi:2309-2

> <Gold.Version>
5.8.1

> <Gold.Id.Protein>
6NUR|6NUR_protein|mol2

> <Gold.PLP.Fitness>
43.9735

> <Gold.PLP.PLP>
-40.7798

> <Gold.PLP.part.hbond>
-1.0000

> <Gold.PLP.part.metal>
0.0000

> <Gold.PLP.part.buried>
-1.7003

> <Gold.PLP.part.nonpolar>
-38.6514

> <Gold.PLP.part.repulsive>
0.1210

> <Gold.PLP.ligand.clash>
0.0000

> <Gold.PLP.ligand.torsion>
0.8755

> <Gold.PLP.Chemscore.Hbond>
1.0000

> <Gold.PLP.Chemscore.CHOScore>
0.6433

> <Gold.PLP.Chemscore.Metal>
0.0000

> <Gold.Chemscore.Hbonds>
donor molecule, donor type, donor heavy atom, donor atom, acceptor molecule, acceptor atom, score
      L1  H     8    28       P1  8028  1.00
      L1  C     4    24       P1  8028  0.58

> <Gold.PLP.Chemscore.Internal.Correction>
0.0148

> <Gold.Rescore>
     Score         DG    S(hbond)    S(metal)    S(lipo)     H(rot)  DE(clash)    DE(int)     intcor
     14.18     -17.64       0.97        0.00     118.31       1.93       0.03       3.43       ----

> <Gold.Chemscore.Fitness>
14.1782

> <Gold.Chemscore.DG>
-17.6376

> <Gold.Chemscore.ZeroCoef>
-5.4800

> <Gold.Chemscore.Hbond>
0.9723

> <Gold.Chemscore.Metal>
0.0000

> <Gold.Chemscore.Lipo>
118.3062

> <Gold.Chemscore.Internal_Hbond>
0.0000

> <Gold.Chemscore.DEClash>
0.0329

> <Gold.Chemscore.DEInternal>
3.4266

> <Gold.Chemscore.Rot>
1.9265

> <Gold.Chemscore.Internal.Correction>
   9.000000E+99

> <Gold.Chemscore.Hbonds>
donor molecule, donor type, donor heavy atom, donor atom, acceptor molecule, acceptor atom, score
      L1  H     8    28       P1  8028  0.97

> <Gold.Chemscore.Hbond.Weighted>
-3.2475

> <Gold.Chemscore.Metal.Weighted>
-0.0000

> <Gold.Chemscore.Lipo.Weighted>
-13.8418

> <Gold.Chemscore.Internal_Hbond.Weighted>
0.0000

> <Gold.Chemscore.DEClash.Weighted>
0.0329

> <Gold.Chemscore.DEInternal.Weighted>
3.4266

> <Gold.Chemscore.Rot.Weighted>
4.9317

> <Gold.Chemscore.Internal.Correction.Weighted>
   9.000000E+99

> <Gold.Protein.RotatedTorsions>
[ 6907 6896 6895 6894 ] final  -25.05 input  -60.11 | X-H torsion
[ 7974 7965 7964 7962 ] final   68.80 input  175.53 | X-H torsion
[ 8008 7997 7996 7995 ] final -150.43 input   59.86 | X-H torsion
[ 10167 10162 10161 10158 ] final -126.13 input  -65.29 | X-H torsion
[ 10718 10713 10712 10709 ] final  -51.86 input   66.30 | X-H torsion
[ 10763 10752 10751 10750 ] final   53.61 input  -60.55 | X-H torsion
[ 11005 11000 10999 10996 ] final   -2.99 input  -57.11 | X-H torsion

> <Gold.Protein.ActiveResidues>
 VAL166  LYS551  ARG553  GLY616  TRP617  ASP618  TYR619  PRO620  LYS621  CYS622 
 ASP623  PHE694  ASN695  SER759  ASP760  ASP761  ALA762  ILE779  LEU786  VAL792 
 PHE793  MET794  SER795  GLU796  ALA797  LYS798  CYS799  TRP800  GLU811  SER814 

> <Gold.Protein.RotatedAtoms>
  151.1807  135.0359  159.8790 H   0  0  0  0  0  0  0  0  0  0  0  0  # atno 6907 bound_to 6896
  152.5445  134.1066  159.8351 H   0  0  0  0  0  0  0  0  0  0  0  0  # atno 6908 bound_to 6896
  151.1183  133.5076  159.2635 H   0  0  0  0  0  0  0  0  0  0  0  0  # atno 6909 bound_to 6896
  145.7982  139.2968  143.1170 H   0  0  0  0  0  0  0  0  0  0  0  0  # atno 7974 bound_to 7965
  155.6234  140.0684  157.2671 H   0  0  0  0  0  0  0  0  0  0  0  0  # atno 8008 bound_to 7997
  154.4223  140.1780  156.1444 H   0  0  0  0  0  0  0  0  0  0  0  0  # atno 8009 bound_to 7997
  155.9991  140.3338  155.6831 H   0  0  0  0  0  0  0  0  0  0  0  0  # atno 8010 bound_to 7997
  139.9747  143.5807  152.2400 H   0  0  0  0  0  0  0  0  0  0  0  0  # atno 10167 bound_to 10162
  156.1672  130.4149  149.9702 H   0  0  0  0  0  0  0  0  0  0  0  0  # atno 10718 bound_to 10713
  152.9797  135.5773  154.4769 H   0  0  0  0  0  0  0  0  0  0  0  0  # atno 10763 bound_to 10752
  154.4324  135.2774  155.1905 H   0  0  0  0  0  0  0  0  0  0  0  0  # atno 10764 bound_to 10752
  154.3608  135.6189  153.5743 H   0  0  0  0  0  0  0  0  0  0  0  0  # atno 10765 bound_to 10752
  140.6645  133.9291  155.8456 H   0  0  0  0  0  0  0  0  0  0  0  0  # atno 11005 bound_to 11000
  145.9905  140.8606  143.0068 LP  0  0  0  0  0  0  0  0  0  0  0  0  # atno 17320 bound_to 7965
  144.6772  140.2209  143.7366 LP  0  0  0  0  0  0  0  0  0  0  0  0  # atno 17321 bound_to 7965
  139.6455  144.7658  151.2253 LP  0  0  0  0  0  0  0  0  0  0  0  0  # atno 17342 bound_to 10162
  140.7510  143.6247  150.8480 LP  0  0  0  0  0  0  0  0  0  0  0  0  # atno 17343 bound_to 10162
  156.7513  130.9116  151.3637 LP  0  0  0  0  0  0  0  0  0  0  0  0  # atno 17370 bound_to 10713
  157.6777  130.9110  150.0189 LP  0  0  0  0  0  0  0  0  0  0  0  0  # atno 17371 bound_to 10713
  141.0440  134.0581  157.3867 LP  0  0  0  0  0  0  0  0  0  0  0  0  # atno 17394 bound_to 11000
  139.9002  135.0161  156.7230 LP  0  0  0  0  0  0  0  0  0  0  0  0  # atno 17395 bound_to 11000

$$$$
