AV-unprocessed.smi:160|AV-procd|sdf|1364|dock7
  -GOLD-   2262019 73D 1   1.00000     0.00000
 Structure written by MMmdl.
 28 29  0  0  0  0  0  0  0  0  2 V2000
  151.9956  138.4714  154.5617 N   0  5  0  0  0  0  0  0  0  0  0  0
  152.4707  139.1236  155.6451 C   0  0  0  0  0  0  0  0  0  0  0  0
  153.5198  138.8760  156.2388 O   0  0  0  0  0  0  0  0  0  0  0  0
  151.5943  140.2515  156.1365 C   0  0  0  0  0  0  0  0  0  0  0  0
  150.6709  140.8269  155.3074 N   0  0  0  0  0  0  0  0  0  0  0  0
  150.1712  141.7300  156.1401 C   0  0  0  0  0  0  0  0  0  0  0  0
  150.7269  141.7239  157.3548 N   0  0  0  0  0  0  0  0  0  0  0  0
  150.4310  142.5873  158.5460 C   0  0  1  0  0  0  0  0  0  0  0  0
  151.2248  142.1603  159.6122 O   0  0  0  0  0  0  0  0  0  0  0  0
  152.3245  143.0487  159.7788 C   0  0  2  0  0  0  0  0  0  0  0  0
  152.9333  142.9252  161.1869 C   0  0  0  0  0  0  0  0  0  0  0  0
  151.9122  142.9198  162.1613 O   0  0  0  0  0  0  0  0  0  0  0  0
  151.7045  144.4132  159.4427 C   0  0  2  0  0  0  0  0  0  0  0  0
  151.0077  144.9450  160.5558 O   0  0  0  0  0  0  0  0  0  0  0  0
  150.7297  144.0897  158.3148 C   0  0  1  0  0  0  0  0  0  0  0  0
  151.3177  144.3891  157.0607 O   0  0  0  0  0  0  0  0  0  0  0  0
  151.6674  140.7463  157.3761 N   0  0  0  0  0  0  0  0  0  0  0  0
  149.3819  142.3886  158.7677 H   0  0  0  0  0  0  0  0  0  0  0  0
  153.0837  142.8261  159.0269 H   0  0  0  0  0  0  0  0  0  0  0  0
  152.4636  145.1388  159.1466 H   0  0  0  0  0  0  0  0  0  0  0  0
  149.8029  144.6589  158.3991 H   0  0  0  0  0  0  0  0  0  0  0  0
  152.6367  137.8718  154.0292 H   0  0  0  0  0  0  0  0  0  0  0  0
  149.3853  142.4142  155.8561 H   0  0  0  0  0  0  0  0  0  0  0  0
  153.4741  141.9832  161.2792 H   0  0  0  0  0  0  0  0  0  0  0  0
  153.6411  143.7301  161.3876 H   0  0  0  0  0  0  0  0  0  0  0  0
  152.2505  143.3036  162.9554 H   0  0  0  0  0  0  0  0  0  0  0  0
  151.5910  145.5195  161.0273 H   0  0  0  0  0  0  0  0  0  0  0  0
  150.6287  144.5381  156.4316 H   0  0  0  0  0  0  0  0  0  0  0  0
  1  2  1  0  0  0  0
  1 22  1  0  0  0  0
  2  3  2  0  0  0  0
  2  4  1  0  0  0  0
  4 17  2  0  0  0  0
  4  5  1  0  0  0  0
  5  6  2  0  0  0  0
  6  7  1  0  0  0  0
  6 23  1  0  0  0  0
  7  8  1  0  0  0  0
  7 17  1  0  0  0  0
  8 18  1  0  0  0  0
  8 15  1  0  0  0  0
  8  9  1  0  0  0  0
  9 10  1  0  0  0  0
 10 19  1  0  0  0  0
 10 11  1  0  0  0  0
 10 13  1  0  0  0  0
 11 12  1  0  0  0  0
 11 24  1  0  0  0  0
 11 25  1  0  0  0  0
 12 26  1  0  0  0  0
 13 20  1  0  0  0  0
 13 14  1  0  0  0  0
 13 15  1  0  0  0  0
 14 27  1  0  0  0  0
 15 21  1  0  0  0  0
 15 16  1  0  0  0  0
 16 28  1  0  0  0  0
M  CHG  1   1  -1
M  END
> <s_m_source_file>
AV-unprocessed.smi

> <i_m_source_file_index>
160

> <i_lp_mmshare_version>
43012

> <i_f3d_flags>
0

> <s_epik_input>
W05IMl1DKD1PKWMxbltjSF1uKG4xKVtDQEBIXTJPW0NASF0oW0NIMl1bT0hdKVtDQEBIXShbT0hdKVtDQEhdMltPSF0=

> <s_epik_cmdline>
J2VwaWtfcHl0aG9uJywgJy1waCcsICc3LjAnLCAnLXRuJywgJzgnLCAnLW1hJywgJzIwMCcsICctbWV0YWxfYmluZGluZycsICctaW1hZScsICc8aW5maWxlLm1hZT4nLCAnLW9tYWUnLCAnPG91dGZpbGUubWFlPic=

> <r_lp_tautomer_probability>
1

> <r_epik_Ionization_Penalty>
6.6993

> <r_epik_Ionization_Penalty_Charging>
6.6993

> <r_epik_Ionization_Penalty_Neutral>
6.01698e-06

> <r_epik_State_Penalty>
6.69929

> <r_epik_Charging_Adjusted_Penalty>
13.3986

> <i_epik_Tot_Q>
-1

> <i_epik_Tot_abs_Q>
1

> <r_epik_Metal_State_Penalty>
2.62798

> <b_epik_Metal_Only>
1

> <s_epik_Chemistry_Notes>
This compound contains an acetal/aminal-like group ( X-CH(R)-Y where X, Y are N, S, or O) that may be acid/base labile, releasing an aldehyde.

> <s_lp_Force_Field>
OPLS_2005

> <r_lp_Energy>
46.6633

> <b_lp_Chiralities_Consistent>
1

> <s_lp_Variant>
AV-unprocessed.smi:160-22

> <Gold.Version>
5.8.1

> <Gold.Id.Protein>
6NUR|6NUR_protein|mol2

> <Gold.PLP.Fitness>
49.8352

> <Gold.PLP.PLP>
-36.2864

> <Gold.PLP.part.hbond>
-6.4521

> <Gold.PLP.part.metal>
0.0000

> <Gold.PLP.part.buried>
-5.9909

> <Gold.PLP.part.nonpolar>
-24.6648

> <Gold.PLP.part.repulsive>
0.0680

> <Gold.PLP.ligand.clash>
0.0000

> <Gold.PLP.ligand.torsion>
0.2718

> <Gold.PLP.Chemscore.Hbond>
3.6960

> <Gold.PLP.Chemscore.CHOScore>
1.0000

> <Gold.PLP.Chemscore.Metal>
0.0000

> <Gold.Chemscore.Hbonds>
donor molecule, donor type, donor heavy atom, donor atom, acceptor molecule, acceptor atom, score
      L1  H    16    28       P1  8028  1.00
      P1  H  6933  6945       L1    12  0.55
      P1  H  7989  7998       L1     5  0.80
      P1  H  7997  8009       L1     3  0.81
      L1  C     6    23       P1  8028  1.00

> <Gold.PLP.Chemscore.Internal.Correction>
0.0044

> <Gold.Rescore>
     Score         DG    S(hbond)    S(metal)    S(lipo)     H(rot)  DE(clash)    DE(int)     intcor
      8.22     -10.05       2.88        0.00      45.19       4.04       1.26       0.56       ----

> <Gold.Chemscore.Fitness>
8.2193

> <Gold.Chemscore.DG>
-10.0459

> <Gold.Chemscore.ZeroCoef>
-5.4800

> <Gold.Chemscore.Hbond>
2.8807

> <Gold.Chemscore.Metal>
0.0000

> <Gold.Chemscore.Lipo>
45.1922

> <Gold.Chemscore.Internal_Hbond>
0.0000

> <Gold.Chemscore.DEClash>
1.2648

> <Gold.Chemscore.DEInternal>
0.5618

> <Gold.Chemscore.Rot>
4.0403

> <Gold.Chemscore.Internal.Correction>
   9.000000E+99

> <Gold.Chemscore.Hbonds>
donor molecule, donor type, donor heavy atom, donor atom, acceptor molecule, acceptor atom, score
      L1  H    16    28       P1  8028  0.99
      P1  H  6933  6945       L1    12  0.51
      P1  H  7989  7998       L1     5  0.29
      P1  H  7997  8009       L1     3  0.68

> <Gold.Chemscore.Hbond.Weighted>
-9.6215

> <Gold.Chemscore.Metal.Weighted>
-0.0000

> <Gold.Chemscore.Lipo.Weighted>
-5.2875

> <Gold.Chemscore.Internal_Hbond.Weighted>
0.0000

> <Gold.Chemscore.DEClash.Weighted>
1.2648

> <Gold.Chemscore.DEInternal.Weighted>
0.5618

> <Gold.Chemscore.Rot.Weighted>
10.3431

> <Gold.Chemscore.Internal.Correction.Weighted>
   9.000000E+99

> <Gold.Protein.RotatedTorsions>
[ 6907 6896 6895 6894 ] final  -83.57 input  -60.11 | X-H torsion
[ 7974 7965 7964 7962 ] final  117.07 input  175.53 | X-H torsion
[ 8008 7997 7996 7995 ] final -172.33 input   59.86 | X-H torsion
[ 10167 10162 10161 10158 ] final  -44.01 input  -65.29 | X-H torsion
[ 10718 10713 10712 10709 ] final -163.78 input   66.30 | X-H torsion
[ 10763 10752 10751 10750 ] final  176.06 input  -60.55 | X-H torsion
[ 11005 11000 10999 10996 ] final  -11.62 input  -57.11 | X-H torsion

> <Gold.Protein.ActiveResidues>
 VAL166  LYS551  ARG553  GLY616  TRP617  ASP618  TYR619  PRO620  LYS621  CYS622 
 ASP623  PHE694  ASN695  SER759  ASP760  ASP761  ALA762  ILE779  LEU786  VAL792 
 PHE793  MET794  SER795  GLU796  ALA797  LYS798  CYS799  TRP800  GLU811  SER814 

> <Gold.Protein.RotatedAtoms>
  150.6884  134.3491  159.4900 H   0  0  0  0  0  0  0  0  0  0  0  0  # atno 6907 bound_to 6896
  152.1335  134.9114  160.0567 H   0  0  0  0  0  0  0  0  0  0  0  0  # atno 6908 bound_to 6896
  152.0275  133.3889  159.4320 H   0  0  0  0  0  0  0  0  0  0  0  0  # atno 6909 bound_to 6896
  145.1718  139.3097  143.4463 H   0  0  0  0  0  0  0  0  0  0  0  0  # atno 7974 bound_to 7965
  155.9431  140.1112  157.1039 H   0  0  0  0  0  0  0  0  0  0  0  0  # atno 8008 bound_to 7997
  154.4093  140.1215  156.5020 H   0  0  0  0  0  0  0  0  0  0  0  0  # atno 8009 bound_to 7997
  155.6936  140.3472  155.4906 H   0  0  0  0  0  0  0  0  0  0  0  0  # atno 8010 bound_to 7997
  140.6913  143.2953  151.3434 H   0  0  0  0  0  0  0  0  0  0  0  0  # atno 10167 bound_to 10162
  156.6296  130.8924  151.2974 H   0  0  0  0  0  0  0  0  0  0  0  0  # atno 10718 bound_to 10713
  154.4760  135.2773  155.1607 H   0  0  0  0  0  0  0  0  0  0  0  0  # atno 10763 bound_to 10752
  154.3336  135.6185  153.5566 H   0  0  0  0  0  0  0  0  0  0  0  0  # atno 10764 bound_to 10752
  152.9869  135.5771  154.5151 H   0  0  0  0  0  0  0  0  0  0  0  0  # atno 10765 bound_to 10752
  140.7572  133.8544  155.9094 H   0  0  0  0  0  0  0  0  0  0  0  0  # atno 11005 bound_to 11000
  146.3467  140.1867  142.8589 LP  0  0  0  0  0  0  0  0  0  0  0  0  # atno 17320 bound_to 7965
  145.0225  140.8805  143.5158 LP  0  0  0  0  0  0  0  0  0  0  0  0  # atno 17321 bound_to 7965
  139.6319  144.0705  152.2483 LP  0  0  0  0  0  0  0  0  0  0  0  0  # atno 17342 bound_to 10162
  140.0182  144.6173  150.7589 LP  0  0  0  0  0  0  0  0  0  0  0  0  # atno 17343 bound_to 10162
  157.7204  130.9551  150.1416 LP  0  0  0  0  0  0  0  0  0  0  0  0  # atno 17370 bound_to 10713
  156.2246  130.3677  149.8516 LP  0  0  0  0  0  0  0  0  0  0  0  0  # atno 17371 bound_to 10713
  140.9697  134.1548  157.4587 LP  0  0  0  0  0  0  0  0  0  0  0  0  # atno 17394 bound_to 11000
  139.8777  134.9974  156.5845 LP  0  0  0  0  0  0  0  0  0  0  0  0  # atno 17395 bound_to 11000

$$$$
