AV-unprocessed.smi:98|AV-procd|sdf|864|dock9
  -GOLD-   2262017313D 1   1.00000     0.00000
 Structure written by MMmdl.
 56 59  0  0  0  0  0  0  0  0  1 V2000
  152.5492  136.2823  156.1287 O   0  0  0  0  0  0  0  0  0  0  0  0
  152.2184  137.3268  156.6916 C   0  0  0  0  0  0  0  0  0  0  0  0
  153.0023  138.6248  156.4422 C   0  0  0  0  0  0  0  0  0  0  0  0
  152.2074  139.8451  156.7028 N   0  0  0  0  0  0  0  0  0  0  0  0
  151.1408  140.1524  155.8219 C   0  0  0  0  0  0  0  0  0  0  0  0
  150.8707  139.4222  154.8670 O   0  0  0  0  0  0  0  0  0  0  0  0
  150.4037  141.3731  156.1268 C   0  0  0  0  0  0  0  0  0  0  0  0
  149.3959  141.7600  155.3265 F   0  0  0  0  0  0  0  0  0  0  0  0
  150.7212  142.1255  157.2002 C   0  0  0  0  0  0  0  0  0  0  0  0
  151.7365  141.7932  158.0750 N   0  0  0  0  0  0  0  0  0  0  0  0
  152.0410  142.7118  159.2355 C   0  0  1  0  0  0  0  0  0  0  0  0
  152.6603  144.0568  158.8107 C   0  0  0  0  0  0  0  0  0  0  0  0
  151.6821  145.0741  159.3752 C   0  0  0  0  0  0  0  0  0  0  0  0
  150.9638  144.2869  160.4659 C   0  0  0  0  0  0  0  0  0  0  0  0
  150.8524  142.9858  159.9107 O   0  0  0  0  0  0  0  0  0  0  0  0
  152.5260  140.6466  157.8258 C   0  0  0  0  0  0  0  0  0  0  0  0
  153.4650  140.3495  158.5661 O   0  0  0  0  0  0  0  0  0  0  0  0
  151.1854  137.4329  157.5470 N   0  0  0  0  0  0  0  0  0  0  0  0
  150.2825  136.4173  157.9586 C   0  0  0  0  0  0  0  0  0  0  0  0
  149.2609  136.7797  158.8622 C   0  0  0  0  0  0  0  0  0  0  0  0
  148.3178  135.8271  159.2937 C   0  0  0  0  0  0  0  0  0  0  0  0
  148.3886  134.5071  158.8070 C   0  0  0  0  0  0  0  0  0  0  0  0
  147.1888  133.2921  159.3454 S   0  0  0  0  0  0  0  0  0  0  0  0
  145.8984  133.5903  158.7039 O   0  0  0  0  0  0  0  0  0  0  0  0
  147.7886  131.9551  159.2119 O   0  0  0  0  0  0  0  0  0  0  0  0
  147.0364  133.6421  161.0366 N   0  0  0  0  0  0  0  0  0  0  0  0
  146.0506  132.8839  161.8254 C   0  0  0  0  0  0  0  0  0  0  0  0
  145.7998  133.5537  163.1858 C   0  0  0  0  0  0  0  0  0  0  0  0
  147.0299  133.7558  163.8651 O   0  0  0  0  0  0  0  0  0  0  0  0
  147.8793  134.6380  163.1473 C   0  0  0  0  0  0  0  0  0  0  0  0
  148.2448  134.0302  161.7833 C   0  0  0  0  0  0  0  0  0  0  0  0
  149.3911  134.1373  157.8894 C   0  0  0  0  0  0  0  0  0  0  0  0
  150.3354  135.0914  157.4636 C   0  0  0  0  0  0  0  0  0  0  0  0
  153.9046  138.5971  157.0549 H   0  0  0  0  0  0  0  0  0  0  0  0
  153.3823  138.6291  155.4189 H   0  0  0  0  0  0  0  0  0  0  0  0
  150.1469  143.0230  157.3789 H   0  0  0  0  0  0  0  0  0  0  0  0
  152.7060  142.1532  159.8960 H   0  0  0  0  0  0  0  0  0  0  0  0
  153.6404  144.1515  159.2792 H   0  0  0  0  0  0  0  0  0  0  0  0
  152.7850  144.1394  157.7306 H   0  0  0  0  0  0  0  0  0  0  0  0
  152.1722  145.9715  159.7533 H   0  0  0  0  0  0  0  0  0  0  0  0
  150.9704  145.3779  158.6070 H   0  0  0  0  0  0  0  0  0  0  0  0
  151.5636  144.2456  161.3765 H   0  0  0  0  0  0  0  0  0  0  0  0
  149.9874  144.7037  160.7136 H   0  0  0  0  0  0  0  0  0  0  0  0
  151.0885  138.3211  158.0177 H   0  0  0  0  0  0  0  0  0  0  0  0
  149.2014  137.7918  159.2355 H   0  0  0  0  0  0  0  0  0  0  0  0
  147.5477  136.1140  159.9943 H   0  0  0  0  0  0  0  0  0  0  0  0
  145.1134  132.8058  161.2743 H   0  0  0  0  0  0  0  0  0  0  0  0
  146.4223  131.8697  161.9741 H   0  0  0  0  0  0  0  0  0  0  0  0
  145.2792  134.5045  163.0593 H   0  0  0  0  0  0  0  0  0  0  0  0
  145.1577  132.9218  163.7994 H   0  0  0  0  0  0  0  0  0  0  0  0
  147.3934  135.6070  163.0216 H   0  0  0  0  0  0  0  0  0  0  0  0
  148.7825  134.8124  163.7322 H   0  0  0  0  0  0  0  0  0  0  0  0
  148.8707  133.1481  161.9229 H   0  0  0  0  0  0  0  0  0  0  0  0
  148.8260  134.7481  161.2047 H   0  0  0  0  0  0  0  0  0  0  0  0
  149.4389  133.1274  157.5095 H   0  0  0  0  0  0  0  0  0  0  0  0
  151.0837  134.7922  156.7452 H   0  0  0  0  0  0  0  0  0  0  0  0
  1  2  2  0  0  0  0
  2  3  1  0  0  0  0
  2 18  1  0  0  0  0
  3  4  1  0  0  0  0
  3 34  1  0  0  0  0
  3 35  1  0  0  0  0
  4 16  1  0  0  0  0
  4  5  1  0  0  0  0
  5  6  2  0  0  0  0
  5  7  1  0  0  0  0
  7  8  1  0  0  0  0
  7  9  2  0  0  0  0
  9 10  1  0  0  0  0
  9 36  1  0  0  0  0
 10 11  1  0  0  0  0
 10 16  1  0  0  0  0
 11 15  1  0  0  0  0
 11 12  1  0  0  0  0
 11 37  1  0  0  0  0
 12 13  1  0  0  0  0
 12 38  1  0  0  0  0
 12 39  1  0  0  0  0
 13 14  1  0  0  0  0
 13 40  1  0  0  0  0
 13 41  1  0  0  0  0
 14 15  1  0  0  0  0
 14 42  1  0  0  0  0
 14 43  1  0  0  0  0
 16 17  2  0  0  0  0
 18 19  1  0  0  0  0
 18 44  1  0  0  0  0
 19 33  1  0  0  0  0
 19 20  2  0  0  0  0
 20 21  1  0  0  0  0
 20 45  1  0  0  0  0
 21 22  2  0  0  0  0
 21 46  1  0  0  0  0
 22 23  1  0  0  0  0
 22 32  1  0  0  0  0
 23 24  2  0  0  0  0
 23 25  2  0  0  0  0
 23 26  1  0  0  0  0
 26 31  1  0  0  0  0
 26 27  1  0  0  0  0
 27 28  1  0  0  0  0
 27 47  1  0  0  0  0
 27 48  1  0  0  0  0
 28 29  1  0  0  0  0
 28 49  1  0  0  0  0
 28 50  1  0  0  0  0
 29 30  1  0  0  0  0
 30 31  1  0  0  0  0
 30 51  1  0  0  0  0
 30 52  1  0  0  0  0
 31 53  1  0  0  0  0
 31 54  1  0  0  0  0
 32 33  2  0  0  0  0
 32 55  1  0  0  0  0
 33 56  1  0  0  0  0
M  END
> <s_m_source_file>
AV-unprocessed.smi

> <i_m_source_file_index>
98

> <i_lp_mmshare_version>
43012

> <i_f3d_flags>
0

> <s_epik_input>
TzFbQ0gyXVtDSDJdW0NIMl1bQ0BIXTFuKGMyPU8pW2NIXWMoRiljKD1PKW4yW0NIMl1DKD1PKVtOSF1jM1tjSF1bY0hdYyhbY0hdW2NIXTMpUyg9TykoPU8pTjRbQ0gyXVtDSDJdT1tDSDJdW0NIMl00

> <s_epik_cmdline>
J2VwaWtfcHl0aG9uJywgJy1waCcsICc3LjAnLCAnLXRuJywgJzgnLCAnLW1hJywgJzIwMCcsICctbWV0YWxfYmluZGluZycsICctaW1hZScsICc8aW5maWxlLm1hZT4nLCAnLW9tYWUnLCAnPG91dGZpbGUubWFlPic=

> <r_lp_tautomer_probability>
1

> <r_epik_Ionization_Penalty>
1.9271e-06

> <r_epik_Ionization_Penalty_Charging>
3.88729e-08

> <r_epik_Ionization_Penalty_Neutral>
1.88823e-06

> <r_epik_State_Penalty>
-0

> <r_epik_Charging_Adjusted_Penalty>
3.88729e-08

> <i_epik_Tot_Q>
0

> <i_epik_Tot_abs_Q>
0

> <r_epik_Metal_State_Penalty>
-0

> <b_epik_Metal_Only>
0

> <s_epik_Chemistry_Notes>
This compound contains an acetal/aminal-like group ( X-CH(R)-Y where X, Y are N, S, or O) that may be acid/base labile, releasing an aldehyde.

> <s_lp_Force_Field>
OPLS_2005

> <r_lp_Energy>
28.5933

> <b_lp_Chiralities_Consistent>
1

> <s_lp_Variant>
AV-unprocessed.smi:98-2

> <Gold.Version>
5.8.1

> <Gold.Id.Protein>
6NUR|6NUR_protein|mol2

> <Gold.PLP.Fitness>
58.4100

> <Gold.PLP.PLP>
-50.3200

> <Gold.PLP.part.hbond>
-5.0000

> <Gold.PLP.part.metal>
0.0000

> <Gold.PLP.part.buried>
-1.8516

> <Gold.PLP.part.nonpolar>
-43.1130

> <Gold.PLP.part.repulsive>
0.2390

> <Gold.PLP.ligand.clash>
0.0000

> <Gold.PLP.ligand.torsion>
3.0034

> <Gold.PLP.Chemscore.Hbond>
2.3140

> <Gold.PLP.Chemscore.CHOScore>
1.0000

> <Gold.PLP.Chemscore.Metal>
0.0000

> <Gold.Chemscore.Hbonds>
donor molecule, donor type, donor heavy atom, donor atom, acceptor molecule, acceptor atom, score
      P1  H  7989  7998       L1     6  0.41
      P1  H  7997  8009       L1    17  0.72
      P1  H 10752 10765       L1     1  0.83
      L1  C     9    36       P1  8028  0.53

> <Gold.PLP.Chemscore.Internal.Correction>
4.1548

> <Gold.Rescore>
     Score         DG    S(hbond)    S(metal)    S(lipo)     H(rot)  DE(clash)    DE(int)     intcor
     12.32     -18.02       1.71        0.00      95.06       1.67       0.98       4.72       ----

> <Gold.Chemscore.Fitness>
12.3168

> <Gold.Chemscore.DG>
-18.0157

> <Gold.Chemscore.ZeroCoef>
-5.4800

> <Gold.Chemscore.Hbond>
1.7065

> <Gold.Chemscore.Metal>
0.0000

> <Gold.Chemscore.Lipo>
95.0629

> <Gold.Chemscore.Internal_Hbond>
0.0000

> <Gold.Chemscore.DEClash>
0.9770

> <Gold.Chemscore.DEInternal>
4.7219

> <Gold.Chemscore.Rot>
1.6744

> <Gold.Chemscore.Internal.Correction>
   9.000000E+99

> <Gold.Chemscore.Hbonds>
donor molecule, donor type, donor heavy atom, donor atom, acceptor molecule, acceptor atom, score
      P1  H  7989  7998       L1     6  0.02
      P1  H  7997  8009       L1    17  0.12
      P1  H 10752 10765       L1     1  0.80

> <Gold.Chemscore.Hbond.Weighted>
-5.6999

> <Gold.Chemscore.Metal.Weighted>
-0.0000

> <Gold.Chemscore.Lipo.Weighted>
-11.1224

> <Gold.Chemscore.Internal_Hbond.Weighted>
0.0000

> <Gold.Chemscore.DEClash.Weighted>
0.9770

> <Gold.Chemscore.DEInternal.Weighted>
4.7219

> <Gold.Chemscore.Rot.Weighted>
4.2865

> <Gold.Chemscore.Internal.Correction.Weighted>
   9.000000E+99

> <Gold.Protein.RotatedTorsions>
[ 6907 6896 6895 6894 ] final  164.73 input  -60.11 | X-H torsion
[ 7974 7965 7964 7962 ] final -100.23 input  175.53 | X-H torsion
[ 8008 7997 7996 7995 ] final  141.07 input   59.86 | X-H torsion
[ 10167 10162 10161 10158 ] final  135.99 input  -65.29 | X-H torsion
[ 10718 10713 10712 10709 ] final  -89.23 input   66.30 | X-H torsion
[ 10763 10752 10751 10750 ] final -149.21 input  -60.55 | X-H torsion
[ 11005 11000 10999 10996 ] final -176.73 input  -57.11 | X-H torsion

> <Gold.Protein.ActiveResidues>
 VAL166  LYS551  ARG553  GLY616  TRP617  ASP618  TYR619  PRO620  LYS621  CYS622 
 ASP623  PHE694  ASN695  SER759  ASP760  ASP761  ALA762  ILE779  LEU786  VAL792 
 PHE793  MET794  SER795  GLU796  ALA797  LYS798  CYS799  TRP800  GLU811  SER814 

> <Gold.Protein.RotatedAtoms>
  151.9054  133.3548  159.3844 H   0  0  0  0  0  0  0  0  0  0  0  0  # atno 6907 bound_to 6896
  150.7070  134.4786  159.5469 H   0  0  0  0  0  0  0  0  0  0  0  0  # atno 6908 bound_to 6896
  152.2382  134.8255  160.0515 H   0  0  0  0  0  0  0  0  0  0  0  0  # atno 6909 bound_to 6896
  145.2973  140.9368  143.2844 H   0  0  0  0  0  0  0  0  0  0  0  0  # atno 7974 bound_to 7965
  156.2971  140.2325  156.4504 H   0  0  0  0  0  0  0  0  0  0  0  0  # atno 8008 bound_to 7997
  154.8107  140.0443  157.1361 H   0  0  0  0  0  0  0  0  0  0  0  0  # atno 8009 bound_to 7997
  154.9427  140.3031  155.5116 H   0  0  0  0  0  0  0  0  0  0  0  0  # atno 8010 bound_to 7997
  139.5196  144.6488  151.5362 H   0  0  0  0  0  0  0  0  0  0  0  0  # atno 10167 bound_to 10162
  155.9984  130.4864  150.5139 H   0  0  0  0  0  0  0  0  0  0  0  0  # atno 10718 bound_to 10713
  154.8190  135.3315  154.7093 H   0  0  0  0  0  0  0  0  0  0  0  0  # atno 10763 bound_to 10752
  153.7729  135.6924  153.4907 H   0  0  0  0  0  0  0  0  0  0  0  0  # atno 10764 bound_to 10752
  153.2032  135.4508  155.0240 H   0  0  0  0  0  0  0  0  0  0  0  0  # atno 10765 bound_to 10752
  140.4489  134.6362  157.4792 H   0  0  0  0  0  0  0  0  0  0  0  0  # atno 11005 bound_to 11000
  144.9123  139.4513  143.6581 LP  0  0  0  0  0  0  0  0  0  0  0  0  # atno 17320 bound_to 7965
  146.3164  139.7938  142.8980 LP  0  0  0  0  0  0  0  0  0  0  0  0  # atno 17321 bound_to 7965
  140.6284  143.9123  150.6584 LP  0  0  0  0  0  0  0  0  0  0  0  0  # atno 17342 bound_to 10162
  140.2419  143.3657  152.1479 LP  0  0  0  0  0  0  0  0  0  0  0  0  # atno 17343 bound_to 10162
  157.3109  131.0663  151.2002 LP  0  0  0  0  0  0  0  0  0  0  0  0  # atno 17370 bound_to 10713
  157.2948  130.6814  149.6133 LP  0  0  0  0  0  0  0  0  0  0  0  0  # atno 17371 bound_to 10713
  140.0020  134.6821  155.9515 LP  0  0  0  0  0  0  0  0  0  0  0  0  # atno 17394 bound_to 11000
  141.1673  133.6537  156.4525 LP  0  0  0  0  0  0  0  0  0  0  0  0  # atno 17395 bound_to 11000

$$$$
