AV-unprocessed.smi:36|AV-procd|sdf|288|dock4
  -GOLD-   2262016 73D 1   1.00000     0.00000
 Structure written by MMmdl.
 64 67  0  0  0  0  0  0  0  0  1 V2000
  150.8536  133.4761  156.0126 C   0  0  0  0  0  0  0  0  0  0  0  0
  149.8349  134.3506  155.2632 C   0  0  0  0  0  0  0  0  0  0  0  0
  150.5132  135.6401  154.7715 C   0  0  0  0  0  0  0  0  0  0  0  0
  149.2632  133.5769  154.0631 C   0  0  0  0  0  0  0  0  0  0  0  0
  148.4036  134.8087  156.4425 Si  0  0  0  0  0  0  0  0  0  0  0  0
  147.5809  133.2492  157.1537 C   0  0  0  0  0  0  0  0  0  0  0  0
  149.0077  135.9175  157.8619 C   0  0  0  0  0  0  0  0  0  0  0  0
  147.2542  135.6724  155.5510 O   0  0  0  0  0  0  0  0  0  0  0  0
  147.5470  136.8656  154.8562 C   0  0  0  0  0  0  0  0  0  0  0  0
  146.2263  137.5235  154.4090 C   0  0  1  0  0  0  0  0  0  0  0  0
  146.1653  138.8538  154.9203 O   0  0  0  0  0  0  0  0  0  0  0  0
  146.6619  139.7733  153.9879 C   0  0  1  0  0  0  0  0  0  0  0  0
  147.9333  140.3603  154.5193 N   0  0  0  0  0  0  0  0  0  0  0  0
  149.1876  140.1633  154.0666 C   0  0  0  0  0  0  0  0  0  0  0  0
  150.1449  140.7954  154.7403 N   0  0  0  0  0  0  0  0  0  0  0  0
  149.4313  141.4502  155.7379 C   0  0  0  0  0  0  0  0  0  0  0  0
  149.9022  142.3234  156.8345 C   0  0  0  0  0  0  0  0  0  0  0  0
  151.1777  142.5533  156.9172 N   0  0  0  0  0  0  0  0  0  0  0  0
  151.6766  143.3605  157.9313 C   0  0  0  0  0  0  0  0  0  0  0  0
  151.5920  144.5851  158.0585 O   0  0  0  0  0  0  0  0  0  0  0  0
  152.4273  142.5992  158.9747 C   0  0  0  0  0  0  0  0  0  0  0  0
  152.7832  143.2243  160.1886 C   0  0  0  0  0  0  0  0  0  0  0  0
  153.4837  142.5033  161.1754 C   0  0  0  0  0  0  0  0  0  0  0  0
  153.8284  141.1560  160.9526 C   0  0  0  0  0  0  0  0  0  0  0  0
  153.4723  140.5289  159.7427 C   0  0  0  0  0  0  0  0  0  0  0  0
  152.7716  141.2485  158.7549 C   0  0  0  0  0  0  0  0  0  0  0  0
  148.8122  142.7471  157.6058 N   0  0  0  0  0  0  0  0  0  0  0  0
  147.4684  142.4040  157.3909 C   0  0  0  0  0  0  0  0  0  0  0  0
  147.0390  141.6331  156.4279 N   0  0  0  0  0  0  0  0  0  0  0  0
  148.0824  141.1887  155.6279 C   0  0  0  0  0  0  0  0  0  0  0  0
  146.9239  139.0023  152.6871 C   0  0  0  0  0  0  0  0  0  0  0  0
  146.0941  137.7528  152.8992 C   0  0  1  0  0  0  0  0  0  0  0  0
  146.5448  136.6723  152.1075 O   0  0  0  0  0  0  0  0  0  0  0  0
  151.6868  133.1971  155.3667 H   0  0  0  0  0  0  0  0  0  0  0  0
  150.3963  132.5548  156.3740 H   0  0  0  0  0  0  0  0  0  0  0  0
  151.2676  133.9990  156.8752 H   0  0  0  0  0  0  0  0  0  0  0  0
  150.9367  136.2081  155.6002 H   0  0  0  0  0  0  0  0  0  0  0  0
  149.8037  136.2889  154.2567 H   0  0  0  0  0  0  0  0  0  0  0  0
  151.3239  135.4210  154.0760 H   0  0  0  0  0  0  0  0  0  0  0  0
  150.0481  133.3007  153.3583 H   0  0  0  0  0  0  0  0  0  0  0  0
  148.5298  134.1742  153.5205 H   0  0  0  0  0  0  0  0  0  0  0  0
  148.7687  132.6581  154.3797 H   0  0  0  0  0  0  0  0  0  0  0  0
  148.2853  132.6552  157.7351 H   0  0  0  0  0  0  0  0  0  0  0  0
  147.1886  132.6063  156.3669 H   0  0  0  0  0  0  0  0  0  0  0  0
  146.7496  133.4990  157.8122 H   0  0  0  0  0  0  0  0  0  0  0  0
  149.7685  135.4205  158.4630 H   0  0  0  0  0  0  0  0  0  0  0  0
  148.1912  136.1878  158.5312 H   0  0  0  0  0  0  0  0  0  0  0  0
  149.4415  136.8452  157.4894 H   0  0  0  0  0  0  0  0  0  0  0  0
  148.1326  137.5284  155.4921 H   0  0  0  0  0  0  0  0  0  0  0  0
  148.1642  136.6186  153.9923 H   0  0  0  0  0  0  0  0  0  0  0  0
  145.3859  136.9400  154.7862 H   0  0  0  0  0  0  0  0  0  0  0  0
  145.9843  140.6204  153.8767 H   0  0  0  0  0  0  0  0  0  0  0  0
  149.4115  139.5402  153.2137 H   0  0  0  0  0  0  0  0  0  0  0  0
  152.5205  144.2571  160.3671 H   0  0  0  0  0  0  0  0  0  0  0  0
  153.7563  142.9838  162.1033 H   0  0  0  0  0  0  0  0  0  0  0  0
  154.3651  140.6036  161.7096 H   0  0  0  0  0  0  0  0  0  0  0  0
  153.7361  139.4956  159.5722 H   0  0  0  0  0  0  0  0  0  0  0  0
  152.5006  140.7602  157.8298 H   0  0  0  0  0  0  0  0  0  0  0  0
  146.7781  142.8429  158.1126 H   0  0  0  0  0  0  0  0  0  0  0  0
  146.6224  139.5842  151.8158 H   0  0  0  0  0  0  0  0  0  0  0  0
  147.9847  138.7600  152.6006 H   0  0  0  0  0  0  0  0  0  0  0  0
  145.0523  137.9637  152.6538 H   0  0  0  0  0  0  0  0  0  0  0  0
  147.4814  136.5971  152.2082 H   0  0  0  0  0  0  0  0  0  0  0  0
  149.0133  143.3541  158.3873 H   0  0  0  0  0  0  0  0  0  0  0  0
  1  2  1  0  0  0  0
  1 34  1  0  0  0  0
  1 35  1  0  0  0  0
  1 36  1  0  0  0  0
  2  3  1  0  0  0  0
  2  4  1  0  0  0  0
  2  5  1  0  0  0  0
  3 37  1  0  0  0  0
  3 38  1  0  0  0  0
  3 39  1  0  0  0  0
  4 40  1  0  0  0  0
  4 41  1  0  0  0  0
  4 42  1  0  0  0  0
  5  6  1  0  0  0  0
  5  7  1  0  0  0  0
  5  8  1  0  0  0  0
  6 43  1  0  0  0  0
  6 44  1  0  0  0  0
  6 45  1  0  0  0  0
  7 46  1  0  0  0  0
  7 47  1  0  0  0  0
  7 48  1  0  0  0  0
  8  9  1  0  0  0  0
  9 10  1  0  0  0  0
  9 49  1  0  0  0  0
  9 50  1  0  0  0  0
 10 32  1  0  0  0  0
 10 11  1  0  0  0  0
 10 51  1  0  0  0  0
 11 12  1  0  0  0  0
 12 13  1  0  0  0  0
 12 31  1  0  0  0  0
 12 52  1  0  0  0  0
 13 30  1  0  0  0  0
 13 14  1  0  0  0  0
 14 15  2  0  0  0  0
 14 53  1  0  0  0  0
 15 16  1  0  0  0  0
 16 30  2  0  0  0  0
 16 17  1  0  0  0  0
 17 18  2  0  0  0  0
 17 27  1  0  0  0  0
 18 19  1  0  0  0  0
 19 20  2  0  0  0  0
 19 21  1  0  0  0  0
 21 26  1  0  0  0  0
 21 22  2  0  0  0  0
 22 23  1  0  0  0  0
 22 54  1  0  0  0  0
 23 24  2  0  0  0  0
 23 55  1  0  0  0  0
 24 25  1  0  0  0  0
 24 56  1  0  0  0  0
 25 26  2  0  0  0  0
 25 57  1  0  0  0  0
 26 58  1  0  0  0  0
 27 28  1  0  0  0  0
 27 64  1  0  0  0  0
 28 29  2  0  0  0  0
 28 59  1  0  0  0  0
 29 30  1  0  0  0  0
 31 32  1  0  0  0  0
 31 60  1  0  0  0  0
 31 61  1  0  0  0  0
 32 33  1  0  0  0  0
 32 62  1  0  0  0  0
 33 63  1  0  0  0  0
M  END
> <s_m_source_file>
AV-unprocessed.smi

> <i_m_source_file_index>
36

> <i_lp_mmshare_version>
43012

> <i_f3d_flags>
0

> <s_epik_input>
W0NIM11DKFtDSDNdKShbQ0gzXSlbU2ldKFtDSDNdKShbQ0gzXSlPW0NIMl1bQ0BASF0xT1tDQEhdKFtDSDJdW0NASF0xW09IXSluKFtjSF1uMiljKGMyMyluW2NIXW5jM1tOSF1DKD1PKWM0W2NIXVtjSF1bY0hdW2NIXVtjSF00

> <s_epik_cmdline>
J2VwaWtfcHl0aG9uJywgJy1waCcsICc3LjAnLCAnLXRuJywgJzgnLCAnLW1hJywgJzIwMCcsICctbWV0YWxfYmluZGluZycsICctaW1hZScsICc8aW5maWxlLm1hZT4nLCAnLW9tYWUnLCAnPG91dGZpbGUubWFlPic=

> <r_epik_Ionization_Penalty>
0.0850405

> <r_epik_Ionization_Penalty_Charging>
0.0850403

> <r_epik_Ionization_Penalty_Neutral>
1.47497e-07

> <r_epik_State_Penalty>
2.6133

> <r_epik_Charging_Adjusted_Penalty>
2.69834

> <i_epik_Tot_Q>
0

> <i_epik_Tot_abs_Q>
0

> <r_epik_Metal_State_Penalty>
2.92945

> <b_epik_Metal_Only>
0

> <s_epik_Chemistry_Notes>
This compound contains an acetal/aminal-like group ( X-CH(R)-Y where X, Y are N, S, or O) that may be acid/base labile, releasing an aldehyde.

> <s_lp_Force_Field>
OPLS_2005

> <r_lp_Energy>
49.0467

> <b_lp_Chiralities_Consistent>
1

> <s_lp_Variant>
AV-unprocessed.smi:36-10

> <Gold.Version>
5.8.1

> <Gold.Id.Protein>
6NUR|6NUR_protein|mol2

> <Gold.PLP.Fitness>
53.1900

> <Gold.PLP.PLP>
-47.5877

> <Gold.PLP.part.hbond>
-2.7795

> <Gold.PLP.part.metal>
0.0000

> <Gold.PLP.part.buried>
-3.8472

> <Gold.PLP.part.nonpolar>
-41.8421

> <Gold.PLP.part.repulsive>
0.5938

> <Gold.PLP.ligand.clash>
0.0000

> <Gold.PLP.ligand.torsion>
1.6727

> <Gold.PLP.Chemscore.Hbond>
1.8160

> <Gold.PLP.Chemscore.CHOScore>
1.0000

> <Gold.PLP.Chemscore.Metal>
0.0000

> <Gold.Chemscore.Hbonds>
donor molecule, donor type, donor heavy atom, donor atom, acceptor molecule, acceptor atom, score
      L1  H    33    63       P1  7948  1.00
      P1  H  7989  7998       L1    15  0.78
      L1  C    14    53       P1  7957  1.00

> <Gold.PLP.Chemscore.Internal.Correction>
0.4999

> <Gold.Rescore>
     Score         DG    S(hbond)    S(metal)    S(lipo)     H(rot)  DE(clash)    DE(int)     intcor
     14.18     -16.11       1.53        0.00     106.46       2.70       0.33       1.60       ----

> <Gold.Chemscore.Fitness>
14.1781

> <Gold.Chemscore.DG>
-16.1109

> <Gold.Chemscore.ZeroCoef>
-5.4800

> <Gold.Chemscore.Hbond>
1.5261

> <Gold.Chemscore.Metal>
0.0000

> <Gold.Chemscore.Lipo>
106.4647

> <Gold.Chemscore.Internal_Hbond>
0.0000

> <Gold.Chemscore.DEClash>
0.3321

> <Gold.Chemscore.DEInternal>
1.6007

> <Gold.Chemscore.Rot>
2.7041

> <Gold.Chemscore.Internal.Correction>
   9.000000E+99

> <Gold.Chemscore.Hbonds>
donor molecule, donor type, donor heavy atom, donor atom, acceptor molecule, acceptor atom, score
      L1  H    33    63       P1  7948  0.93
      P1  H  7989  7998       L1    15  0.35

> <Gold.Chemscore.Hbond.Weighted>
-5.0970

> <Gold.Chemscore.Metal.Weighted>
-0.0000

> <Gold.Chemscore.Lipo.Weighted>
-12.4564

> <Gold.Chemscore.Internal_Hbond.Weighted>
0.0000

> <Gold.Chemscore.DEClash.Weighted>
0.3321

> <Gold.Chemscore.DEInternal.Weighted>
1.6007

> <Gold.Chemscore.Rot.Weighted>
6.9225

> <Gold.Chemscore.Internal.Correction.Weighted>
   9.000000E+99

> <Gold.Protein.RotatedTorsions>
[ 6907 6896 6895 6894 ] final  -42.67 input  -60.11 | X-H torsion
[ 7974 7965 7964 7962 ] final  141.87 input  175.53 | X-H torsion
[ 8008 7997 7996 7995 ] final  -81.53 input   59.86 | X-H torsion
[ 10167 10162 10161 10158 ] final  -53.73 input  -65.29 | X-H torsion
[ 10718 10713 10712 10709 ] final -146.58 input   66.30 | X-H torsion
[ 10763 10752 10751 10750 ] final  -81.65 input  -60.55 | X-H torsion
[ 11005 11000 10999 10996 ] final -175.85 input  -57.11 | X-H torsion

> <Gold.Protein.ActiveResidues>
 VAL166  LYS551  ARG553  GLY616  TRP617  ASP618  TYR619  PRO620  LYS621  CYS622 
 ASP623  PHE694  ASN695  SER759  ASP760  ASP761  ALA762  ILE779  LEU786  VAL792 
 PHE793  MET794  SER795  GLU796  ALA797  LYS798  CYS799  TRP800  GLU811  SER814 

> <Gold.Protein.RotatedAtoms>
  150.9526  134.8924  159.7681 H   0  0  0  0  0  0  0  0  0  0  0  0  # atno 6907 bound_to 6896
  152.5125  134.3784  159.9352 H   0  0  0  0  0  0  0  0  0  0  0  0  # atno 6908 bound_to 6896
  151.3800  133.3784  159.2744 H   0  0  0  0  0  0  0  0  0  0  0  0  # atno 6909 bound_to 6896
  144.9058  139.5360  143.5732 H   0  0  0  0  0  0  0  0  0  0  0  0  # atno 7974 bound_to 7965
  154.5993  140.0646  156.9346 H   0  0  0  0  0  0  0  0  0  0  0  0  # atno 8008 bound_to 7997
  155.2160  140.3326  155.4304 H   0  0  0  0  0  0  0  0  0  0  0  0  # atno 8009 bound_to 7997
  156.2307  140.1840  156.7232 H   0  0  0  0  0  0  0  0  0  0  0  0  # atno 8010 bound_to 7997
  140.6469  143.2541  151.4834 H   0  0  0  0  0  0  0  0  0  0  0  0  # atno 10167 bound_to 10162
  156.3967  130.7913  151.2120 H   0  0  0  0  0  0  0  0  0  0  0  0  # atno 10718 bound_to 10713
  154.5662  135.5619  153.7052 H   0  0  0  0  0  0  0  0  0  0  0  0  # atno 10763 bound_to 10752
  153.0033  135.6286  154.2177 H   0  0  0  0  0  0  0  0  0  0  0  0  # atno 10764 bound_to 10752
  154.2116  135.2873  155.2936 H   0  0  0  0  0  0  0  0  0  0  0  0  # atno 10765 bound_to 10752
  140.4586  134.6275  157.4833 H   0  0  0  0  0  0  0  0  0  0  0  0  # atno 11005 bound_to 11000
  146.3133  139.7825  142.9003 LP  0  0  0  0  0  0  0  0  0  0  0  0  # atno 17320 bound_to 7965
  145.3538  141.0313  143.3323 LP  0  0  0  0  0  0  0  0  0  0  0  0  # atno 17321 bound_to 7965
  139.5680  144.1995  152.1795 LP  0  0  0  0  0  0  0  0  0  0  0  0  # atno 17342 bound_to 10162
  140.1283  144.5312  150.6819 LP  0  0  0  0  0  0  0  0  0  0  0  0  # atno 17343 bound_to 10162
  157.7502  131.0299  150.4113 LP  0  0  0  0  0  0  0  0  0  0  0  0  # atno 17370 bound_to 10713
  156.4385  130.3986  149.6713 LP  0  0  0  0  0  0  0  0  0  0  0  0  # atno 17371 bound_to 10713
  139.9960  134.6911  155.9609 LP  0  0  0  0  0  0  0  0  0  0  0  0  # atno 17394 bound_to 11000
  141.1631  133.6538  156.4387 LP  0  0  0  0  0  0  0  0  0  0  0  0  # atno 17395 bound_to 11000

$$$$
