AV-unprocessed.smi:1761|AV-procd|sdf|7095|dock5
  -GOLD-   22720 8313D 1   1.00000     0.00000
 Structure written by MMmdl.
 34 35  0  0  0  0  0  0  0  0  1 V2000
  149.8788  140.6259  157.4571 O   0  0  0  0  0  0  0  0  0  0  0  0
  149.6848  141.7620  157.0235 C   0  0  0  0  0  0  0  0  0  0  0  0
  150.2350  142.8859  157.5151 N   0  0  0  0  0  0  0  0  0  0  0  0
  151.1521  143.0170  158.5919 C   0  0  0  0  0  0  0  0  0  0  0  0
  151.3723  144.3422  159.0311 C   0  0  0  0  0  0  0  0  0  0  0  0
  152.2667  144.5808  160.0924 C   0  0  0  0  0  0  0  0  0  0  0  0
  152.9195  143.4866  160.6874 C   0  0  0  0  0  0  0  0  0  0  0  0
  152.6442  142.1995  160.1902 C   0  0  0  0  0  0  0  0  0  0  0  0
  151.7872  141.9686  159.1734 N   0  0  0  0  0  0  0  0  0  0  0  0
  148.8795  142.0329  155.9859 N   0  0  0  0  0  0  0  0  0  0  0  0
  148.1144  141.0474  155.2244 C   0  0  2  0  0  0  0  0  0  0  0  0
  147.2386  140.2564  156.2182 C   0  0  0  0  0  0  0  0  0  0  0  0
  146.5003  139.0923  155.5421 C   0  0  0  0  0  0  0  0  0  0  0  0
  147.4876  138.1543  154.8353 C   0  0  0  0  0  0  0  0  0  0  0  0
  148.3280  138.9260  153.8092 C   0  0  0  0  0  0  0  0  0  0  0  0
  149.0755  140.1083  154.4556 C   0  0  1  0  0  0  0  0  0  0  0  0
  149.7173  140.8212  153.4171 O   0  0  0  0  0  0  0  0  0  0  0  0
  149.9700  143.7488  157.0638 H   0  0  0  0  0  0  0  0  0  0  0  0
  150.8625  145.1714  158.5621 H   0  0  0  0  0  0  0  0  0  0  0  0
  152.4474  145.5863  160.4427 H   0  0  0  0  0  0  0  0  0  0  0  0
  153.6127  143.6297  161.5031 H   0  0  0  0  0  0  0  0  0  0  0  0
  153.1244  141.3325  160.6191 H   0  0  0  0  0  0  0  0  0  0  0  0
  148.7788  142.9969  155.7040 H   0  0  0  0  0  0  0  0  0  0  0  0
  147.4482  141.5378  154.5115 H   0  0  0  0  0  0  0  0  0  0  0  0
  147.8596  139.8604  157.0233 H   0  0  0  0  0  0  0  0  0  0  0  0
  146.5159  140.9236  156.6895 H   0  0  0  0  0  0  0  0  0  0  0  0
  145.9250  138.5367  156.2831 H   0  0  0  0  0  0  0  0  0  0  0  0
  145.7813  139.4830  154.8210 H   0  0  0  0  0  0  0  0  0  0  0  0
  148.1429  137.6857  155.5705 H   0  0  0  0  0  0  0  0  0  0  0  0
  146.9463  137.3468  154.3414 H   0  0  0  0  0  0  0  0  0  0  0  0
  149.0390  138.2496  153.3332 H   0  0  0  0  0  0  0  0  0  0  0  0
  147.6725  139.2912  153.0169 H   0  0  0  0  0  0  0  0  0  0  0  0
  149.8377  139.7212  155.1338 H   0  0  0  0  0  0  0  0  0  0  0  0
  149.6969  140.2939  152.6330 H   0  0  0  0  0  0  0  0  0  0  0  0
  1  2  2  0  0  0  0
  2  3  1  0  0  0  0
  2 10  1  0  0  0  0
  3  4  1  0  0  0  0
  3 18  1  0  0  0  0
  4  9  1  0  0  0  0
  4  5  2  0  0  0  0
  5  6  1  0  0  0  0
  5 19  1  0  0  0  0
  6  7  2  0  0  0  0
  6 20  1  0  0  0  0
  7  8  1  0  0  0  0
  7 21  1  0  0  0  0
  8  9  2  0  0  0  0
  8 22  1  0  0  0  0
 10 11  1  0  0  0  0
 10 23  1  0  0  0  0
 11 16  1  0  0  0  0
 11 12  1  0  0  0  0
 11 24  1  0  0  0  0
 12 13  1  0  0  0  0
 12 25  1  0  0  0  0
 12 26  1  0  0  0  0
 13 14  1  0  0  0  0
 13 27  1  0  0  0  0
 13 28  1  0  0  0  0
 14 15  1  0  0  0  0
 14 29  1  0  0  0  0
 14 30  1  0  0  0  0
 15 16  1  0  0  0  0
 15 31  1  0  0  0  0
 15 32  1  0  0  0  0
 16 17  1  0  0  0  0
 16 33  1  0  0  0  0
 17 34  1  0  0  0  0
M  END
> <s_m_source_file>
AV-unprocessed.smi

> <i_m_source_file_index>
1761

> <i_lp_mmshare_version>
43012

> <i_f3d_flags>
0

> <s_epik_input>
bjFbY0hdW2NIXVtjSF1bY0hdYzFbTkhdQyg9TylbTkhdW0NAQEhdMltDSDJdW0NIMl1bQ0gyXVtDSDJdW0NASF0yW09IXQ==

> <s_epik_cmdline>
J2VwaWtfcHl0aG9uJywgJy1waCcsICc3LjAnLCAnLXRuJywgJzgnLCAnLW1hJywgJzIwMCcsICctbWV0YWxfYmluZGluZycsICctaW1hZScsICc8aW5maWxlLm1hZT4nLCAnLW9tYWUnLCAnPG91dGZpbGUubWFlPic=

> <r_lp_tautomer_probability>
1

> <r_epik_Ionization_Penalty>
4.92589e-05

> <r_epik_Ionization_Penalty_Charging>
0

> <r_epik_Ionization_Penalty_Neutral>
4.92589e-05

> <r_epik_State_Penalty>
-0

> <r_epik_Charging_Adjusted_Penalty>
0

> <i_epik_Tot_Q>
0

> <i_epik_Tot_abs_Q>
0

> <r_epik_Metal_State_Penalty>
-0

> <b_epik_Metal_Only>
0

> <s_lp_Force_Field>
OPLS_2005

> <r_lp_Energy>
12.6575

> <b_lp_Chiralities_Consistent>
1

> <s_lp_Variant>
AV-unprocessed.smi:1761-1

> <Gold.Version>
5.8.1

> <Gold.Id.Protein>
6NUR|6NUR_protein|mol2

> <Gold.PLP.Fitness>
40.8558

> <Gold.PLP.PLP>
-29.6270

> <Gold.PLP.part.hbond>
-4.2967

> <Gold.PLP.part.metal>
0.0000

> <Gold.PLP.part.buried>
-3.9530

> <Gold.PLP.part.nonpolar>
-20.6178

> <Gold.PLP.part.repulsive>
0.1255

> <Gold.PLP.ligand.clash>
0.0000

> <Gold.PLP.ligand.torsion>
0.0544

> <Gold.PLP.Chemscore.Hbond>
3.7788

> <Gold.PLP.Chemscore.CHOScore>
0.0000

> <Gold.PLP.Chemscore.Metal>
0.0000

> <Gold.Chemscore.Hbonds>
donor molecule, donor type, donor heavy atom, donor atom, acceptor molecule, acceptor atom, score
      L1  H     3    18       P1  8028  1.00
      L1  H    10    23       P1  8028  1.00
      L1  H    17    34       P1  7957  0.91
      P1  H  7989  7998       L1    17  0.20
      P1  H  8011  8017       L1    17  0.45

> <Gold.PLP.Chemscore.Internal.Correction>
0.0011

> <Gold.Rescore>
     Score         DG    S(hbond)    S(metal)    S(lipo)     H(rot)  DE(clash)    DE(int)     intcor
     17.86     -20.27       3.26        0.00      65.35       1.47       0.00       2.41       ----

> <Gold.Chemscore.Fitness>
17.8621

> <Gold.Chemscore.DG>
-20.2690

> <Gold.Chemscore.ZeroCoef>
-5.4800

> <Gold.Chemscore.Hbond>
3.2618

> <Gold.Chemscore.Metal>
0.0000

> <Gold.Chemscore.Lipo>
65.3466

> <Gold.Chemscore.Internal_Hbond>
0.0000

> <Gold.Chemscore.DEClash>
0.0009

> <Gold.Chemscore.DEInternal>
2.4060

> <Gold.Chemscore.Rot>
1.4653

> <Gold.Chemscore.Internal.Correction>
   9.000000E+99

> <Gold.Chemscore.Hbonds>
donor molecule, donor type, donor heavy atom, donor atom, acceptor molecule, acceptor atom, score
      L1  H     3    18       P1  8028  0.88
      L1  H    10    23       P1  8028  1.00
      L1  H    17    34       P1  7957  0.85
      P1  H  7989  7998       L1    17  0.02
      P1  H  8011  8017       L1    17  0.02

> <Gold.Chemscore.Hbond.Weighted>
-10.8945

> <Gold.Chemscore.Metal.Weighted>
-0.0000

> <Gold.Chemscore.Lipo.Weighted>
-7.6455

> <Gold.Chemscore.Internal_Hbond.Weighted>
0.0000

> <Gold.Chemscore.DEClash.Weighted>
0.0009

> <Gold.Chemscore.DEInternal.Weighted>
2.4060

> <Gold.Chemscore.Rot.Weighted>
3.7511

> <Gold.Chemscore.Internal.Correction.Weighted>
   9.000000E+99

> <Gold.Protein.RotatedTorsions>
[ 6907 6896 6895 6894 ] final  105.25 input  -60.11 | X-H torsion
[ 7974 7965 7964 7962 ] final -170.30 input  175.53 | X-H torsion
[ 8008 7997 7996 7995 ] final  162.59 input   59.86 | X-H torsion
[ 10167 10162 10161 10158 ] final -123.55 input  -65.29 | X-H torsion
[ 10718 10713 10712 10709 ] final -124.72 input   66.30 | X-H torsion
[ 10763 10752 10751 10750 ] final  -42.12 input  -60.55 | X-H torsion
[ 11005 11000 10999 10996 ] final -107.05 input  -57.11 | X-H torsion

> <Gold.Protein.ActiveResidues>
 VAL166  LYS551  ARG553  GLY616  TRP617  ASP618  TYR619  PRO620  LYS621  CYS622 
 ASP623  PHE694  ASN695  SER759  ASP760  ASP761  ALA762  ILE779  LEU786  VAL792 
 PHE793  MET794  SER795  GLU796  ALA797  LYS798  CYS799  TRP800  GLU811  SER814 

> <Gold.Protein.RotatedAtoms>
  152.5237  133.9556  159.7692 H   0  0  0  0  0  0  0  0  0  0  0  0  # atno 6907 bound_to 6896
  150.9857  133.6192  159.2723 H   0  0  0  0  0  0  0  0  0  0  0  0  # atno 6908 bound_to 6896
  151.3353  135.0857  159.9406 H   0  0  0  0  0  0  0  0  0  0  0  0  # atno 6909 bound_to 6896
  144.7172  140.2092  143.6329 H   0  0  0  0  0  0  0  0  0  0  0  0  # atno 7974 bound_to 7965
  156.2020  140.1746  156.7879 H   0  0  0  0  0  0  0  0  0  0  0  0  # atno 8008 bound_to 7997
  154.5604  140.0700  156.8841 H   0  0  0  0  0  0  0  0  0  0  0  0  # atno 8009 bound_to 7997
  155.2858  140.3352  155.4258 H   0  0  0  0  0  0  0  0  0  0  0  0  # atno 8010 bound_to 7997
  140.0022  143.5528  152.2298 H   0  0  0  0  0  0  0  0  0  0  0  0  # atno 10167 bound_to 10162
  156.1612  130.6603  151.0052 H   0  0  0  0  0  0  0  0  0  0  0  0  # atno 10718 bound_to 10713
  153.9739  135.6725  153.4748 H   0  0  0  0  0  0  0  0  0  0  0  0  # atno 10763 bound_to 10752
  153.0780  135.4938  154.8441 H   0  0  0  0  0  0  0  0  0  0  0  0  # atno 10764 bound_to 10752
  154.7203  135.3116  154.9018 H   0  0  0  0  0  0  0  0  0  0  0  0  # atno 10765 bound_to 10752
  141.0974  133.8947  157.1929 H   0  0  0  0  0  0  0  0  0  0  0  0  # atno 11005 bound_to 11000
  145.8607  139.2221  143.1718 LP  0  0  0  0  0  0  0  0  0  0  0  0  # atno 17320 bound_to 7965
  146.0176  140.8378  142.9939 LP  0  0  0  0  0  0  0  0  0  0  0  0  # atno 17321 bound_to 7965
  139.6263  144.7637  151.2631 LP  0  0  0  0  0  0  0  0  0  0  0  0  # atno 17342 bound_to 10162
  140.7414  143.6558  150.8208 LP  0  0  0  0  0  0  0  0  0  0  0  0  # atno 17343 bound_to 10162
  157.6734  131.0856  150.7556 LP  0  0  0  0  0  0  0  0  0  0  0  0  # atno 17370 bound_to 10713
  156.7619  130.4801  149.5435 LP  0  0  0  0  0  0  0  0  0  0  0  0  # atno 17371 bound_to 10713
  139.9814  135.0097  156.9759 LP  0  0  0  0  0  0  0  0  0  0  0  0  # atno 17394 bound_to 11000
  140.5107  134.1005  155.7270 LP  0  0  0  0  0  0  0  0  0  0  0  0  # atno 17395 bound_to 11000

$$$$
