AV-unprocessed.smi:2706|AV-procd|sdf|10445|dock9
  -GOLD-   2272014483D 1   1.00000     0.00000
 Structure written by MMmdl.
 43 46  0  0  0  0  0  0  0  0  1 V2000
  150.8852  138.2006  154.3287 C   0  0  0  0  0  0  0  0  0  0  0  0
  150.4496  139.4932  154.8486 N   0  0  0  0  0  0  0  0  0  0  0  0
  151.3038  140.2309  155.7707 C   0  0  0  0  0  0  0  0  0  0  0  0
  149.2409  140.0628  154.3880 C   0  0  0  0  0  0  0  0  0  0  0  0
  148.9374  141.4297  154.5965 C   0  0  0  0  0  0  0  0  0  0  0  0
  147.7196  141.9379  154.1100 C   0  0  0  0  0  0  0  0  0  0  0  0
  146.8407  141.0735  153.4333 C   0  0  0  0  0  0  0  0  0  0  0  0
  147.2019  139.7207  153.2624 C   0  0  0  0  0  0  0  0  0  0  0  0
  146.2546  138.9225  152.5675 N   0  0  0  0  0  0  0  0  0  0  0  0
  145.9643  137.6233  152.7603 C   0  0  0  0  0  0  0  0  0  0  0  0
  146.4764  136.8990  153.6148 O   0  0  0  0  0  0  0  0  0  0  0  0
  145.0305  137.2030  151.8958 N   0  0  0  0  0  0  0  0  0  0  0  0
  144.4909  135.8832  151.8371 C   0  0  2  0  0  0  0  0  0  0  0  0
  145.4713  134.7261  151.9470 C   0  0  1  0  0  0  0  0  0  0  0  0
  145.1017  133.2635  152.1766 C   0  0  2  0  0  0  0  0  0  0  0  0
  145.9396  132.4061  151.2058 C   0  0  0  0  0  0  0  0  0  0  0  0
  145.3005  132.7341  149.8338 C   0  0  0  0  0  0  0  0  0  0  0  0
  144.1855  133.7304  150.2145 C   0  0  1  0  0  0  0  0  0  0  0  0
  143.7205  133.1173  151.5361 C   0  0  0  0  0  0  0  0  0  0  0  0
  144.8497  135.0429  150.6205 C   0  0  1  0  0  0  0  0  0  0  0  0
  148.3792  139.2454  153.7357 N   0  0  0  0  0  0  0  0  0  0  0  0
  150.1405  137.4319  154.5376 H   0  0  0  0  0  0  0  0  0  0  0  0
  151.8248  137.8845  154.7817 H   0  0  0  0  0  0  0  0  0  0  0  0
  151.0346  138.2534  153.2500 H   0  0  0  0  0  0  0  0  0  0  0  0
  150.7875  140.4021  156.7157 H   0  0  0  0  0  0  0  0  0  0  0  0
  151.5871  141.1945  155.3459 H   0  0  0  0  0  0  0  0  0  0  0  0
  152.2205  139.6822  155.9868 H   0  0  0  0  0  0  0  0  0  0  0  0
  149.6103  142.0946  155.1161 H   0  0  0  0  0  0  0  0  0  0  0  0
  147.4631  142.9772  154.2539 H   0  0  0  0  0  0  0  0  0  0  0  0
  145.9014  141.4488  153.0535 H   0  0  0  0  0  0  0  0  0  0  0  0
  145.7429  139.3937  151.8365 H   0  0  0  0  0  0  0  0  0  0  0  0
  144.6686  137.8685  151.2287 H   0  0  0  0  0  0  0  0  0  0  0  0
  143.4995  135.7470  152.2638 H   0  0  0  0  0  0  0  0  0  0  0  0
  146.5223  134.9746  152.0858 H   0  0  0  0  0  0  0  0  0  0  0  0
  145.1676  132.9695  153.2242 H   0  0  0  0  0  0  0  0  0  0  0  0
  147.0004  132.6573  151.2420 H   0  0  0  0  0  0  0  0  0  0  0  0
  145.8380  131.3444  151.4342 H   0  0  0  0  0  0  0  0  0  0  0  0
  146.0176  133.1639  149.1331 H   0  0  0  0  0  0  0  0  0  0  0  0
  144.8838  131.8352  149.3775 H   0  0  0  0  0  0  0  0  0  0  0  0
  143.4109  133.8637  149.4592 H   0  0  0  0  0  0  0  0  0  0  0  0
  143.3914  132.0804  151.4429 H   0  0  0  0  0  0  0  0  0  0  0  0
  142.9309  133.6761  152.0373 H   0  0  0  0  0  0  0  0  0  0  0  0
  145.4804  135.5058  149.8634 H   0  0  0  0  0  0  0  0  0  0  0  0
  1  2  1  0  0  0  0
  1 22  1  0  0  0  0
  1 23  1  0  0  0  0
  1 24  1  0  0  0  0
  2  3  1  0  0  0  0
  2  4  1  0  0  0  0
  3 25  1  0  0  0  0
  3 26  1  0  0  0  0
  3 27  1  0  0  0  0
  4 21  1  0  0  0  0
  4  5  2  0  0  0  0
  5  6  1  0  0  0  0
  5 28  1  0  0  0  0
  6  7  2  0  0  0  0
  6 29  1  0  0  0  0
  7  8  1  0  0  0  0
  7 30  1  0  0  0  0
  8  9  1  0  0  0  0
  8 21  2  0  0  0  0
  9 10  1  0  0  0  0
  9 31  1  0  0  0  0
 10 11  2  0  0  0  0
 10 12  1  0  0  0  0
 12 13  1  0  0  0  0
 12 32  1  0  0  0  0
 13 20  1  0  0  0  0
 13 14  1  0  0  0  0
 13 33  1  0  0  0  0
 14 20  1  0  0  0  0
 14 15  1  0  0  0  0
 14 34  1  0  0  0  0
 15 19  1  0  0  0  0
 15 16  1  0  0  0  0
 15 35  1  0  0  0  0
 16 17  1  0  0  0  0
 16 36  1  0  0  0  0
 16 37  1  0  0  0  0
 17 18  1  0  0  0  0
 17 38  1  0  0  0  0
 17 39  1  0  0  0  0
 18 19  1  0  0  0  0
 18 20  1  0  0  0  0
 18 40  1  0  0  0  0
 19 41  1  0  0  0  0
 19 42  1  0  0  0  0
 20 43  1  0  0  0  0
M  END
> <s_m_source_file>
AV-unprocessed.smi

> <i_m_source_file_index>
2706

> <i_lp_mmshare_version>
43012

> <i_f3d_flags>
0

> <s_epik_input>
W0NIM11OKFtDSDNdKWMxW2NIXVtjSF1bY0hdYyhuMSlbTkhdQyg9TylbTkhdW0NASF0yW0NAQEhdM1tDQEBIXShbQ0gyXTQpW0NIMl1bQ0gyXVtDQEBIXTRbQ0BIXTIz

> <s_epik_cmdline>
J2VwaWtfcHl0aG9uJywgJy1waCcsICc3LjAnLCAnLXRuJywgJzgnLCAnLW1hJywgJzIwMCcsICctbWV0YWxfYmluZGluZycsICctaW1hZScsICc8aW5maWxlLm1hZT4nLCAnLW9tYWUnLCAnPG91dGZpbGUubWFlPic=

> <r_lp_tautomer_probability>
1

> <r_epik_Ionization_Penalty>
0.0296788

> <r_epik_Ionization_Penalty_Charging>
0

> <r_epik_Ionization_Penalty_Neutral>
0.0296788

> <r_epik_State_Penalty>
0.0248512

> <r_epik_Charging_Adjusted_Penalty>
0.0248512

> <i_epik_Tot_Q>
0

> <i_epik_Tot_abs_Q>
0

> <r_epik_Metal_State_Penalty>
0.0237882

> <b_epik_Metal_Only>
0

> <s_lp_Force_Field>
OPLS_2005

> <r_lp_Energy>
77.4142

> <b_lp_Chiralities_Consistent>
1

> <s_lp_Variant>
AV-unprocessed.smi:2706-2

> <Gold.Version>
5.8.1

> <Gold.Id.Protein>
6NUR|6NUR_protein|mol2

> <Gold.PLP.Fitness>
46.3215

> <Gold.PLP.PLP>
-44.1708

> <Gold.PLP.part.hbond>
-2.0000

> <Gold.PLP.part.metal>
0.0000

> <Gold.PLP.part.buried>
-5.8524

> <Gold.PLP.part.nonpolar>
-38.1494

> <Gold.PLP.part.repulsive>
1.4950

> <Gold.PLP.ligand.clash>
0.0000

> <Gold.PLP.ligand.torsion>
0.4659

> <Gold.PLP.Chemscore.Hbond>
1.0172

> <Gold.PLP.Chemscore.CHOScore>
0.0000

> <Gold.PLP.Chemscore.Metal>
0.0000

> <Gold.Chemscore.Hbonds>
donor molecule, donor type, donor heavy atom, donor atom, acceptor molecule, acceptor atom, score
      L1  H     9    31       P1 10175  0.03
      L1  H    12    32       P1 10171  1.00

> <Gold.PLP.Chemscore.Internal.Correction>
0.0309

> <Gold.Rescore>
     Score         DG    S(hbond)    S(metal)    S(lipo)     H(rot)  DE(clash)    DE(int)     intcor
     13.75     -16.68       1.03        0.00      88.30       1.00       0.53       2.40       ----

> <Gold.Chemscore.Fitness>
13.7455

> <Gold.Chemscore.DG>
-16.6781

> <Gold.Chemscore.ZeroCoef>
-5.4800

> <Gold.Chemscore.Hbond>
1.0262

> <Gold.Chemscore.Metal>
0.0000

> <Gold.Chemscore.Lipo>
88.2969

> <Gold.Chemscore.Internal_Hbond>
0.0000

> <Gold.Chemscore.DEClash>
0.5344

> <Gold.Chemscore.DEInternal>
2.3982

> <Gold.Chemscore.Rot>
1.0000

> <Gold.Chemscore.Internal.Correction>
   9.000000E+99

> <Gold.Chemscore.Hbonds>
donor molecule, donor type, donor heavy atom, donor atom, acceptor molecule, acceptor atom, score
      L1  H     9    31       P1 10175  0.04
      L1  H    12    32       P1 10171  1.00

> <Gold.Chemscore.Hbond.Weighted>
-3.4274

> <Gold.Chemscore.Metal.Weighted>
-0.0000

> <Gold.Chemscore.Lipo.Weighted>
-10.3307

> <Gold.Chemscore.Internal_Hbond.Weighted>
0.0000

> <Gold.Chemscore.DEClash.Weighted>
0.5344

> <Gold.Chemscore.DEInternal.Weighted>
2.3982

> <Gold.Chemscore.Rot.Weighted>
2.5600

> <Gold.Chemscore.Internal.Correction.Weighted>
   9.000000E+99

> <Gold.Protein.RotatedTorsions>
[ 6907 6896 6895 6894 ] final  136.96 input  -60.11 | X-H torsion
[ 7974 7965 7964 7962 ] final  -69.58 input  175.53 | X-H torsion
[ 8008 7997 7996 7995 ] final   74.29 input   59.86 | X-H torsion
[ 10167 10162 10161 10158 ] final  -24.45 input  -65.29 | X-H torsion
[ 10718 10713 10712 10709 ] final  -18.01 input   66.30 | X-H torsion
[ 10763 10752 10751 10750 ] final -159.91 input  -60.55 | X-H torsion
[ 11005 11000 10999 10996 ] final   70.78 input  -57.11 | X-H torsion

> <Gold.Protein.ActiveResidues>
 VAL166  LYS551  ARG553  GLY616  TRP617  ASP618  TYR619  PRO620  LYS621  CYS622 
 ASP623  PHE694  ASN695  SER759  ASP760  ASP761  ALA762  ILE779  LEU786  VAL792 
 PHE793  MET794  SER795  GLU796  ALA797  LYS798  CYS799  TRP800  GLU811  SER814 

> <Gold.Protein.RotatedAtoms>
  152.2835  133.5492  159.5512 H   0  0  0  0  0  0  0  0  0  0  0  0  # atno 6907 bound_to 6896
  150.7205  134.0531  159.3814 H   0  0  0  0  0  0  0  0  0  0  0  0  # atno 6908 bound_to 6896
  151.8440  135.0580  160.0502 H   0  0  0  0  0  0  0  0  0  0  0  0  # atno 6909 bound_to 6896
  145.7020  140.9113  143.0726 H   0  0  0  0  0  0  0  0  0  0  0  0  # atno 7974 bound_to 7965
  155.7962  140.3478  155.5377 H   0  0  0  0  0  0  0  0  0  0  0  0  # atno 8008 bound_to 7997
  155.8584  140.0967  157.1650 H   0  0  0  0  0  0  0  0  0  0  0  0  # atno 8009 bound_to 7997
  154.4011  140.1363  156.3918 H   0  0  0  0  0  0  0  0  0  0  0  0  # atno 8010 bound_to 7997
  140.7288  143.4352  151.0741 H   0  0  0  0  0  0  0  0  0  0  0  0  # atno 10167 bound_to 10162
  156.5655  130.4736  149.6387 H   0  0  0  0  0  0  0  0  0  0  0  0  # atno 10718 bound_to 10713
  154.7435  135.3074  154.8686 H   0  0  0  0  0  0  0  0  0  0  0  0  # atno 10763 bound_to 10752
  153.9493  135.6765  153.4748 H   0  0  0  0  0  0  0  0  0  0  0  0  # atno 10764 bound_to 10752
  153.1033  135.4901  154.8831 H   0  0  0  0  0  0  0  0  0  0  0  0  # atno 10765 bound_to 10752
  139.9579  134.7112  156.0711 H   0  0  0  0  0  0  0  0  0  0  0  0  # atno 11005 bound_to 11000
  144.6966  139.8960  143.7456 LP  0  0  0  0  0  0  0  0  0  0  0  0  # atno 17320 bound_to 7965
  146.0790  139.3777  143.0476 LP  0  0  0  0  0  0  0  0  0  0  0  0  # atno 17321 bound_to 7965
  139.8013  143.8080  152.3163 LP  0  0  0  0  0  0  0  0  0  0  0  0  # atno 17342 bound_to 10162
  139.8097  144.7341  150.9713 LP  0  0  0  0  0  0  0  0  0  0  0  0  # atno 17343 bound_to 10162
  156.2761  130.7044  151.1856 LP  0  0  0  0  0  0  0  0  0  0  0  0  # atno 17370 bound_to 10713
  157.7359  131.0567  150.5441 LP  0  0  0  0  0  0  0  0  0  0  0  0  # atno 17371 bound_to 10713
  141.1253  133.6601  156.3320 LP  0  0  0  0  0  0  0  0  0  0  0  0  # atno 17394 bound_to 11000
  140.5567  134.5974  157.5422 LP  0  0  0  0  0  0  0  0  0  0  0  0  # atno 17395 bound_to 11000

$$$$
