AV-unprocessed.smi:907|AV-procd|sdf|4107|dock8
  -GOLD-   22720 2 03D 1   1.00000     0.00000
 Structure written by MMmdl.
 53 56  0  0  0  0  0  0  0  0  2 V2000
  149.7789  140.8054  153.6590 O   0  0  0  0  0  0  0  0  0  0  0  0
  148.7596  141.0062  154.3204 C   0  0  0  0  0  0  0  0  0  0  0  0
  148.8066  141.3514  155.6170 N   0  0  0  0  0  0  0  0  0  0  0  0
  150.0317  141.5417  156.3814 C   0  0  0  0  0  0  0  0  0  0  0  0
  149.7084  141.9305  157.8309 C   0  0  0  0  0  0  0  0  0  0  0  0
  150.9257  142.4483  158.5738 C   0  0  0  0  0  0  0  0  0  0  0  0
  151.6107  143.5964  158.1219 C   0  0  0  0  0  0  0  0  0  0  0  0
  152.7316  144.0392  158.8505 C   0  0  0  0  0  0  0  0  0  0  0  0
  153.1213  143.3219  159.9977 C   0  0  0  0  0  0  0  0  0  0  0  0
  152.3695  142.1883  160.3667 C   0  0  0  0  0  0  0  0  0  0  0  0
  151.2939  141.7545  159.6745 N   0  0  0  0  0  0  0  0  0  0  0  0
  147.5081  140.8650  153.8151 N   0  0  0  0  0  0  0  0  0  0  0  0
  147.1522  140.2952  152.5105 C   0  0  0  0  0  0  0  0  0  0  0  0
  146.5479  138.8933  152.7174 C   0  0  0  0  0  0  0  0  0  0  0  0
  145.3911  138.9080  153.6622 N   0  3  0  0  0  0  0  0  0  0  0  0
  144.8133  137.5585  153.9498 C   0  0  1  0  0  0  0  0  0  0  0  0
  143.5840  137.6437  154.8938 C   0  0  0  0  0  0  0  0  0  0  0  0
  142.4854  136.8855  154.1309 C   0  0  2  0  0  0  0  0  0  0  0  0
  142.8204  135.3851  154.1003 C   0  0  0  0  0  0  0  0  0  0  0  0
  143.9984  135.3281  153.1128 C   0  0  0  0  0  0  0  0  0  0  0  0
  144.2039  136.8077  152.7311 C   0  0  1  0  0  0  0  0  0  0  0  0
  142.7654  137.3110  152.6959 C   0  0  0  0  0  0  0  0  0  0  0  0
  145.7030  139.6522  154.9196 C   0  0  0  0  0  0  0  0  0  0  0  0
  146.3106  141.0370  154.6379 C   0  0  0  0  0  0  0  0  0  0  0  0
  147.9347  141.4855  156.1078 H   0  0  0  0  0  0  0  0  0  0  0  0
  150.6127  140.6183  156.3607 H   0  0  0  0  0  0  0  0  0  0  0  0
  150.6397  142.3178  155.9133 H   0  0  0  0  0  0  0  0  0  0  0  0
  148.9322  142.6973  157.8484 H   0  0  0  0  0  0  0  0  0  0  0  0
  149.3021  141.0713  158.3663 H   0  0  0  0  0  0  0  0  0  0  0  0
  151.2857  144.1275  157.2393 H   0  0  0  0  0  0  0  0  0  0  0  0
  153.2818  144.9134  158.5349 H   0  0  0  0  0  0  0  0  0  0  0  0
  153.9753  143.6326  160.5810 H   0  0  0  0  0  0  0  0  0  0  0  0
  152.6390  141.6149  161.2412 H   0  0  0  0  0  0  0  0  0  0  0  0
  146.4212  140.9455  152.0277 H   0  0  0  0  0  0  0  0  0  0  0  0
  147.9861  140.2347  151.8108 H   0  0  0  0  0  0  0  0  0  0  0  0
  146.2404  138.5325  151.7383 H   0  0  0  0  0  0  0  0  0  0  0  0
  147.3125  138.2104  153.0915 H   0  0  0  0  0  0  0  0  0  0  0  0
  145.5994  136.9469  154.3963 H   0  0  0  0  0  0  0  0  0  0  0  0
  143.7830  137.2108  155.8748 H   0  0  0  0  0  0  0  0  0  0  0  0
  143.2579  138.6731  155.0477 H   0  0  0  0  0  0  0  0  0  0  0  0
  141.4778  137.1015  154.4872 H   0  0  0  0  0  0  0  0  0  0  0  0
  143.0822  134.9995  155.0865 H   0  0  0  0  0  0  0  0  0  0  0  0
  141.9771  134.8036  153.7254 H   0  0  0  0  0  0  0  0  0  0  0  0
  144.8904  134.8807  153.5524 H   0  0  0  0  0  0  0  0  0  0  0  0
  143.7303  134.7368  152.2361 H   0  0  0  0  0  0  0  0  0  0  0  0
  144.7422  136.8934  151.7901 H   0  0  0  0  0  0  0  0  0  0  0  0
  142.1435  136.7941  151.9629 H   0  0  0  0  0  0  0  0  0  0  0  0
  142.6861  138.3879  152.5375 H   0  0  0  0  0  0  0  0  0  0  0  0
  144.8071  139.7800  155.5259 H   0  0  0  0  0  0  0  0  0  0  0  0
  146.4021  139.0666  155.5191 H   0  0  0  0  0  0  0  0  0  0  0  0
  146.5158  141.5528  155.5772 H   0  0  0  0  0  0  0  0  0  0  0  0
  145.5911  141.6641  154.1093 H   0  0  0  0  0  0  0  0  0  0  0  0
  144.6657  139.4343  153.1962 H   0  0  0  0  0  0  0  0  0  0  0  0
  1  2  2  0  0  0  0
  2  3  1  0  0  0  0
  2 12  1  0  0  0  0
  3  4  1  0  0  0  0
  3 25  1  0  0  0  0
  4  5  1  0  0  0  0
  4 26  1  0  0  0  0
  4 27  1  0  0  0  0
  5  6  1  0  0  0  0
  5 28  1  0  0  0  0
  5 29  1  0  0  0  0
  6 11  1  0  0  0  0
  6  7  2  0  0  0  0
  7  8  1  0  0  0  0
  7 30  1  0  0  0  0
  8  9  2  0  0  0  0
  8 31  1  0  0  0  0
  9 10  1  0  0  0  0
  9 32  1  0  0  0  0
 10 11  2  0  0  0  0
 10 33  1  0  0  0  0
 12 24  1  0  0  0  0
 12 13  1  0  0  0  0
 13 14  1  0  0  0  0
 13 34  1  0  0  0  0
 13 35  1  0  0  0  0
 14 15  1  0  0  0  0
 14 36  1  0  0  0  0
 14 37  1  0  0  0  0
 15 16  1  0  0  0  0
 15 23  1  0  0  0  0
 15 53  1  0  0  0  0
 16 21  1  0  0  0  0
 16 17  1  0  0  0  0
 16 38  1  0  0  0  0
 17 18  1  0  0  0  0
 17 39  1  0  0  0  0
 17 40  1  0  0  0  0
 18 22  1  0  0  0  0
 18 19  1  0  0  0  0
 18 41  1  0  0  0  0
 19 20  1  0  0  0  0
 19 42  1  0  0  0  0
 19 43  1  0  0  0  0
 20 21  1  0  0  0  0
 20 44  1  0  0  0  0
 20 45  1  0  0  0  0
 21 22  1  0  0  0  0
 21 46  1  0  0  0  0
 22 47  1  0  0  0  0
 22 48  1  0  0  0  0
 23 24  1  0  0  0  0
 23 49  1  0  0  0  0
 23 50  1  0  0  0  0
 24 51  1  0  0  0  0
 24 52  1  0  0  0  0
M  CHG  1  15   1
M  END
> <s_m_source_file>
AV-unprocessed.smi

> <i_m_source_file_index>
907

> <i_lp_mmshare_version>
43012

> <i_f3d_flags>
0

> <s_epik_input>
W0NIMl0xW0NIMl1bQ0BASF0oW0NIMl0yKVtDQEBIXShbQ0gyXVtDQEhdMTIpTihbQ0gyXVtDSDJdMylbQ0gyXVtDSDJdTjNDKD1PKVtOSF1bQ0gyXVtDSDJdYzRbY0hdW2NIXVtjSF1bY0hdbjQ=

> <s_epik_cmdline>
J2VwaWtfcHl0aG9uJywgJy1waCcsICc3LjAnLCAnLXRuJywgJzgnLCAnLW1hJywgJzIwMCcsICctbWV0YWxfYmluZGluZycsICctaW1hZScsICc8aW5maWxlLm1hZT4nLCAnLW9tYWUnLCAnPG91dGZpbGUubWFlPic=

> <r_epik_Ionization_Penalty>
0.0419258

> <r_epik_Ionization_Penalty_Charging>
0.00262064

> <r_epik_Ionization_Penalty_Neutral>
0.0393052

> <r_epik_State_Penalty>
0.0329887

> <r_epik_Charging_Adjusted_Penalty>
0.0356093

> <i_epik_Tot_Q>
1

> <i_epik_Tot_abs_Q>
1

> <r_epik_Metal_State_Penalty>
0.0309172

> <b_epik_Metal_Only>
0

> <s_lp_Force_Field>
OPLS_2005

> <r_lp_Energy>
96.5641

> <b_lp_Chiralities_Consistent>
1

> <s_lp_Variant>
AV-unprocessed.smi:907-2

> <Gold.Version>
5.8.1

> <Gold.Id.Protein>
6NUR|6NUR_protein|mol2

> <Gold.PLP.Fitness>
48.8185

> <Gold.PLP.PLP>
-40.6108

> <Gold.PLP.part.hbond>
-3.8577

> <Gold.PLP.part.metal>
0.0000

> <Gold.PLP.part.buried>
-3.1131

> <Gold.PLP.part.nonpolar>
-37.9348

> <Gold.PLP.part.repulsive>
3.7586

> <Gold.PLP.ligand.clash>
1.8166

> <Gold.PLP.ligand.torsion>
0.1108

> <Gold.PLP.Chemscore.Hbond>
3.3840

> <Gold.PLP.Chemscore.CHOScore>
0.0000

> <Gold.PLP.Chemscore.Metal>
0.0000

> <Gold.Chemscore.Hbonds>
donor molecule, donor type, donor heavy atom, donor atom, acceptor molecule, acceptor atom, score
      L1  H    15    53       P1 10175  2.00
      P1  H  7989  7998       L1     1  0.42
      P1  H  8011  8017       L1     1  0.88

> <Gold.PLP.Chemscore.Internal.Correction>
0.0940

> <Gold.Rescore>
     Score         DG    S(hbond)    S(metal)    S(lipo)     H(rot)  DE(clash)    DE(int)     intcor
     19.93     -21.88       2.09        0.00     110.52       1.37       1.85       0.10       ----

> <Gold.Chemscore.Fitness>
19.9337

> <Gold.Chemscore.DG>
-21.8758

> <Gold.Chemscore.ZeroCoef>
-5.4800

> <Gold.Chemscore.Hbond>
2.0897

> <Gold.Chemscore.Metal>
0.0000

> <Gold.Chemscore.Lipo>
110.5246

> <Gold.Chemscore.Internal_Hbond>
0.0000

> <Gold.Chemscore.DEClash>
1.8454

> <Gold.Chemscore.DEInternal>
0.0966

> <Gold.Chemscore.Rot>
1.3731

> <Gold.Chemscore.Internal.Correction>
   9.000000E+99

> <Gold.Chemscore.Hbonds>
donor molecule, donor type, donor heavy atom, donor atom, acceptor molecule, acceptor atom, score
      L1  H    15    53       P1 10175  0.99
      P1  H  7989  7998       L1     1  0.42
      P1  H  8011  8017       L1     1  0.33

> <Gold.Chemscore.Hbond.Weighted>
-6.9796

> <Gold.Chemscore.Metal.Weighted>
-0.0000

> <Gold.Chemscore.Lipo.Weighted>
-12.9314

> <Gold.Chemscore.Internal_Hbond.Weighted>
0.0000

> <Gold.Chemscore.DEClash.Weighted>
1.8454

> <Gold.Chemscore.DEInternal.Weighted>
0.0966

> <Gold.Chemscore.Rot.Weighted>
3.5152

> <Gold.Chemscore.Internal.Correction.Weighted>
   9.000000E+99

> <Gold.Protein.RotatedTorsions>
[ 6907 6896 6895 6894 ] final  121.37 input  -60.11 | X-H torsion
[ 7974 7965 7964 7962 ] final   40.04 input  175.53 | X-H torsion
[ 8008 7997 7996 7995 ] final   86.69 input   59.86 | X-H torsion
[ 10167 10162 10161 10158 ] final  125.24 input  -65.29 | X-H torsion
[ 10718 10713 10712 10709 ] final  173.83 input   66.30 | X-H torsion
[ 10763 10752 10751 10750 ] final   85.76 input  -60.55 | X-H torsion
[ 11005 11000 10999 10996 ] final  168.59 input  -57.11 | X-H torsion

> <Gold.Protein.ActiveResidues>
 VAL166  LYS551  ARG553  GLY616  TRP617  ASP618  TYR619  PRO620  LYS621  CYS622 
 ASP623  PHE694  ASN695  SER759  ASP760  ASP761  ALA762  ILE779  LEU786  VAL792 
 PHE793  MET794  SER795  GLU796  ALA797  LYS798  CYS799  TRP800  GLU811  SER814 

> <Gold.Protein.RotatedAtoms>
  152.4327  133.7306  159.6584 H   0  0  0  0  0  0  0  0  0  0  0  0  # atno 6907 bound_to 6896
  150.8207  133.8246  159.3146 H   0  0  0  0  0  0  0  0  0  0  0  0  # atno 6908 bound_to 6896
  151.5929  135.1054  160.0095 H   0  0  0  0  0  0  0  0  0  0  0  0  # atno 6909 bound_to 6896
  146.0936  139.5580  142.9459 H   0  0  0  0  0  0  0  0  0  0  0  0  # atno 7974 bound_to 7965
  155.9660  140.3389  155.6532 H   0  0  0  0  0  0  0  0  0  0  0  0  # atno 8008 bound_to 7997
  155.6737  140.0730  157.2529 H   0  0  0  0  0  0  0  0  0  0  0  0  # atno 8009 bound_to 7997
  154.4154  140.1687  156.1894 H   0  0  0  0  0  0  0  0  0  0  0  0  # atno 8010 bound_to 7997
  139.5696  144.6931  151.3814 H   0  0  0  0  0  0  0  0  0  0  0  0  # atno 10167 bound_to 10162
  156.9586  131.0053  151.2932 H   0  0  0  0  0  0  0  0  0  0  0  0  # atno 10718 bound_to 10713
  153.1506  135.4605  154.9630 H   0  0  0  0  0  0  0  0  0  0  0  0  # atno 10763 bound_to 10752
  154.7821  135.3192  154.7968 H   0  0  0  0  0  0  0  0  0  0  0  0  # atno 10764 bound_to 10752
  153.8474  135.6924  153.4850 H   0  0  0  0  0  0  0  0  0  0  0  0  # atno 10765 bound_to 10752
  140.2889  134.7690  157.3821 H   0  0  0  0  0  0  0  0  0  0  0  0  # atno 11005 bound_to 11000
  145.5991  141.0358  143.2028 LP  0  0  0  0  0  0  0  0  0  0  0  0  # atno 17320 bound_to 7965
  144.7379  139.7533  143.7322 LP  0  0  0  0  0  0  0  0  0  0  0  0  # atno 17321 bound_to 7965
  140.6981  143.7700  150.7358 LP  0  0  0  0  0  0  0  0  0  0  0  0  # atno 17342 bound_to 10162
  140.1202  143.4619  152.2317 LP  0  0  0  0  0  0  0  0  0  0  0  0  # atno 17343 bound_to 10162
  157.5673  130.8286  149.8345 LP  0  0  0  0  0  0  0  0  0  0  0  0  # atno 17370 bound_to 10713
  156.0332  130.3758  150.1631 LP  0  0  0  0  0  0  0  0  0  0  0  0  # atno 17371 bound_to 10713
  140.1214  134.5215  155.8181 LP  0  0  0  0  0  0  0  0  0  0  0  0  # atno 17394 bound_to 11000
  141.2150  133.6757  156.6872 LP  0  0  0  0  0  0  0  0  0  0  0  0  # atno 17395 bound_to 11000

$$$$
