AV-unprocessed.smi:3311|AV-procd|sdf|12724|dock3
  -GOLD-   2272019 63D 1   1.00000     0.00000
 Structure written by MMmdl.
 43 44  0  0  0  0  0  0  0  0  1 V2000
  148.1677  139.1219  157.2476 C   0  0  0  0  0  0  0  0  0  0  0  0
  148.8838  140.4473  156.9070 C   0  0  1  0  0  0  0  0  0  0  0  0
  150.1071  140.6161  157.6999 N   0  0  0  0  0  0  0  0  0  0  0  0
  150.9245  141.7904  157.3855 C   0  0  0  0  0  0  0  0  0  0  0  0
  150.9485  142.8166  158.5410 C   0  0  0  0  0  0  0  0  0  0  0  0
  149.7663  142.6183  159.2965 O   0  0  0  0  0  0  0  0  0  0  0  0
  152.1903  142.6571  159.4555 C   0  0  0  0  0  0  0  0  0  0  0  0
  152.3010  143.7648  160.5186 C   0  0  0  0  0  0  0  0  0  0  0  0
  152.2724  145.1604  159.8812 C   0  0  0  0  0  0  0  0  0  0  0  0
  151.0095  145.3462  159.0294 C   0  0  0  0  0  0  0  0  0  0  0  0
  150.8938  144.2484  157.9565 C   0  0  0  0  0  0  0  0  0  0  0  0
  149.2216  140.5983  155.3989 C   0  0  2  0  0  0  0  0  0  0  0  0
  147.9640  140.5817  154.5104 C   0  0  0  0  0  0  0  0  0  0  0  0
  150.2127  139.6287  154.9363 N   0  0  0  0  0  0  0  0  0  0  0  0
  150.1086  138.2553  154.8172 C   0  0  0  0  0  0  0  0  0  0  0  0
  151.3128  137.7876  154.3751 C   0  0  0  0  0  0  0  0  0  0  0  0
  152.1079  138.9608  154.2595 C   0  0  0  0  0  0  0  0  0  0  0  0
  151.4506  140.0566  154.6010 N   0  0  0  0  0  0  0  0  0  0  0  0
  147.3241  138.9428  156.5817 H   0  0  0  0  0  0  0  0  0  0  0  0
  147.7644  139.1317  158.2597 H   0  0  0  0  0  0  0  0  0  0  0  0
  148.8399  138.2670  157.1683 H   0  0  0  0  0  0  0  0  0  0  0  0
  148.2046  141.2607  157.1649 H   0  0  0  0  0  0  0  0  0  0  0  0
  149.8776  140.6186  158.6893 H   0  0  0  0  0  0  0  0  0  0  0  0
  151.9436  141.4689  157.1667 H   0  0  0  0  0  0  0  0  0  0  0  0
  150.5575  142.2842  156.4856 H   0  0  0  0  0  0  0  0  0  0  0  0
  150.0112  142.4295  160.1893 H   0  0  0  0  0  0  0  0  0  0  0  0
  152.1802  141.6875  159.9548 H   0  0  0  0  0  0  0  0  0  0  0  0
  153.0910  142.6706  158.8403 H   0  0  0  0  0  0  0  0  0  0  0  0
  151.4831  143.6723  161.2340 H   0  0  0  0  0  0  0  0  0  0  0  0
  153.2215  143.6378  161.0891 H   0  0  0  0  0  0  0  0  0  0  0  0
  152.3148  145.9253  160.6570 H   0  0  0  0  0  0  0  0  0  0  0  0
  153.1581  145.2990  159.2598 H   0  0  0  0  0  0  0  0  0  0  0  0
  150.1278  145.3331  159.6711 H   0  0  0  0  0  0  0  0  0  0  0  0
  151.0266  146.3268  158.5533 H   0  0  0  0  0  0  0  0  0  0  0  0
  151.7105  144.3761  157.2448 H   0  0  0  0  0  0  0  0  0  0  0  0
  149.9745  144.3896  157.3858 H   0  0  0  0  0  0  0  0  0  0  0  0
  149.6580  141.5896  155.2580 H   0  0  0  0  0  0  0  0  0  0  0  0
  147.2740  141.3751  154.7988 H   0  0  0  0  0  0  0  0  0  0  0  0
  147.4237  139.6378  154.5774 H   0  0  0  0  0  0  0  0  0  0  0  0
  148.2238  140.7413  153.4635 H   0  0  0  0  0  0  0  0  0  0  0  0
  149.1983  137.7262  155.0568 H   0  0  0  0  0  0  0  0  0  0  0  0
  151.5853  136.7630  154.1706 H   0  0  0  0  0  0  0  0  0  0  0  0
  153.1369  139.0483  153.9433 H   0  0  0  0  0  0  0  0  0  0  0  0
  1  2  1  0  0  0  0
  1 19  1  0  0  0  0
  1 20  1  0  0  0  0
  1 21  1  0  0  0  0
  2  3  1  0  0  0  0
  2 12  1  0  0  0  0
  2 22  1  0  0  0  0
  3  4  1  0  0  0  0
  3 23  1  0  0  0  0
  4  5  1  0  0  0  0
  4 24  1  0  0  0  0
  4 25  1  0  0  0  0
  5 11  1  0  0  0  0
  5  6  1  0  0  0  0
  5  7  1  0  0  0  0
  6 26  1  0  0  0  0
  7  8  1  0  0  0  0
  7 27  1  0  0  0  0
  7 28  1  0  0  0  0
  8  9  1  0  0  0  0
  8 29  1  0  0  0  0
  8 30  1  0  0  0  0
  9 10  1  0  0  0  0
  9 31  1  0  0  0  0
  9 32  1  0  0  0  0
 10 11  1  0  0  0  0
 10 33  1  0  0  0  0
 10 34  1  0  0  0  0
 11 35  1  0  0  0  0
 11 36  1  0  0  0  0
 12 13  1  0  0  0  0
 12 14  1  0  0  0  0
 12 37  1  0  0  0  0
 13 38  1  0  0  0  0
 13 39  1  0  0  0  0
 13 40  1  0  0  0  0
 14 18  1  0  0  0  0
 14 15  1  0  0  0  0
 15 16  2  0  0  0  0
 15 41  1  0  0  0  0
 16 17  1  0  0  0  0
 16 42  1  0  0  0  0
 17 18  2  0  0  0  0
 17 43  1  0  0  0  0
M  END
> <s_m_source_file>
AV-unprocessed.smi

> <i_m_source_file_index>
3311

> <i_lp_mmshare_version>
43012

> <i_f3d_flags>
0

> <s_epik_input>
bjFbY0hdW2NIXVtjSF1uMVtDQEBIXShbQ0gzXSlbQ0BIXShbQ0gzXSlbTkhdW0NIMl1DMihbT0hdKVtDSDJdW0NIMl1bQ0gyXVtDSDJdW0NIMl0y

> <s_epik_cmdline>
J2VwaWtfcHl0aG9uJywgJy1waCcsICc3LjAnLCAnLXRuJywgJzgnLCAnLW1hJywgJzIwMCcsICctbWV0YWxfYmluZGluZycsICctaW1hZScsICc8aW5maWxlLm1hZT4nLCAnLW9tYWUnLCAnPG91dGZpbGUubWFlPic=

> <r_lp_tautomer_probability>
1

> <r_epik_Ionization_Penalty>
2.222

> <r_epik_Ionization_Penalty_Charging>
0

> <r_epik_Ionization_Penalty_Neutral>
2.222

> <r_epik_State_Penalty>
2.36562

> <r_epik_Charging_Adjusted_Penalty>
2.36562

> <i_epik_Tot_Q>
0

> <i_epik_Tot_abs_Q>
0

> <r_epik_Metal_State_Penalty>
2.36435

> <b_epik_Metal_Only>
0

> <s_lp_Force_Field>
OPLS_2005

> <r_lp_Energy>
28.1428

> <b_lp_Chiralities_Consistent>
1

> <s_lp_Variant>
AV-unprocessed.smi:3311-6

> <Gold.Version>
5.8.1

> <Gold.Id.Protein>
6NUR|6NUR_protein|mol2

> <Gold.PLP.Fitness>
40.8546

> <Gold.PLP.PLP>
-40.1922

> <Gold.PLP.part.hbond>
-1.9426

> <Gold.PLP.part.metal>
0.0000

> <Gold.PLP.part.buried>
-5.3087

> <Gold.PLP.part.nonpolar>
-33.1135

> <Gold.PLP.part.repulsive>
0.0692

> <Gold.PLP.ligand.clash>
0.0000

> <Gold.PLP.ligand.torsion>
1.2428

> <Gold.PLP.Chemscore.Hbond>
1.0000

> <Gold.PLP.Chemscore.CHOScore>
0.0000

> <Gold.PLP.Chemscore.Metal>
0.0000

> <Gold.Chemscore.Hbonds>
donor molecule, donor type, donor heavy atom, donor atom, acceptor molecule, acceptor atom, score
      P1  H  7989  7998       L1    18  0.62

> <Gold.PLP.Chemscore.Internal.Correction>
0.1480

> <Gold.Rescore>
     Score         DG    S(hbond)    S(metal)    S(lipo)     H(rot)  DE(clash)    DE(int)     intcor
     14.09     -16.16       0.95        0.00     109.45       2.07       0.49       1.58       ----

> <Gold.Chemscore.Fitness>
14.0902

> <Gold.Chemscore.DG>
-16.1578

> <Gold.Chemscore.ZeroCoef>
-5.4800

> <Gold.Chemscore.Hbond>
0.9483

> <Gold.Chemscore.Metal>
0.0000

> <Gold.Chemscore.Lipo>
109.4538

> <Gold.Chemscore.Internal_Hbond>
0.0000

> <Gold.Chemscore.DEClash>
0.4855

> <Gold.Chemscore.DEInternal>
1.5821

> <Gold.Chemscore.Rot>
2.0686

> <Gold.Chemscore.Internal.Correction>
   9.000000E+99

> <Gold.Chemscore.Hbonds>
donor molecule, donor type, donor heavy atom, donor atom, acceptor molecule, acceptor atom, score
      P1  H  7989  7998       L1    18  0.21

> <Gold.Chemscore.Hbond.Weighted>
-3.1674

> <Gold.Chemscore.Metal.Weighted>
-0.0000

> <Gold.Chemscore.Lipo.Weighted>
-12.8061

> <Gold.Chemscore.Internal_Hbond.Weighted>
0.0000

> <Gold.Chemscore.DEClash.Weighted>
0.4855

> <Gold.Chemscore.DEInternal.Weighted>
1.5821

> <Gold.Chemscore.Rot.Weighted>
5.2957

> <Gold.Chemscore.Internal.Correction.Weighted>
   9.000000E+99

> <Gold.Protein.RotatedTorsions>
[ 6907 6896 6895 6894 ] final -118.41 input  -60.11 | X-H torsion
[ 7974 7965 7964 7962 ] final   17.14 input  175.53 | X-H torsion
[ 8008 7997 7996 7995 ] final -133.77 input   59.86 | X-H torsion
[ 10167 10162 10161 10158 ] final  116.25 input  -65.29 | X-H torsion
[ 10718 10713 10712 10709 ] final  113.79 input   66.30 | X-H torsion
[ 10763 10752 10751 10750 ] final -168.45 input  -60.55 | X-H torsion
[ 11005 11000 10999 10996 ] final   89.58 input  -57.11 | X-H torsion

> <Gold.Protein.ActiveResidues>
 VAL166  LYS551  ARG553  GLY616  TRP617  ASP618  TYR619  PRO620  LYS621  CYS622 
 ASP623  PHE694  ASN695  SER759  ASP760  ASP761  ALA762  ILE779  LEU786  VAL792 
 PHE793  MET794  SER795  GLU796  ALA797  LYS798  CYS799  TRP800  GLU811  SER814 

> <Gold.Protein.RotatedAtoms>
  150.8218  133.8240  159.3135 H   0  0  0  0  0  0  0  0  0  0  0  0  # atno 6907 bound_to 6896
  151.5996  135.1046  160.0067 H   0  0  0  0  0  0  0  0  0  0  0  0  # atno 6908 bound_to 6896
  152.4306  133.7230  159.6601 H   0  0  0  0  0  0  0  0  0  0  0  0  # atno 6909 bound_to 6896
  146.2228  139.8645  142.8598 H   0  0  0  0  0  0  0  0  0  0  0  0  # atno 7974 bound_to 7965
  155.3510  140.0477  157.3046 H   0  0  0  0  0  0  0  0  0  0  0  0  # atno 8008 bound_to 7997
  154.5227  140.2230  155.8911 H   0  0  0  0  0  0  0  0  0  0  0  0  # atno 8009 bound_to 7997
  156.1706  140.3096  155.8974 H   0  0  0  0  0  0  0  0  0  0  0  0  # atno 8010 bound_to 7997
  139.6260  144.7108  151.2532 H   0  0  0  0  0  0  0  0  0  0  0  0  # atno 10167 bound_to 10162
  157.6318  131.0989  150.7092 H   0  0  0  0  0  0  0  0  0  0  0  0  # atno 10718 bound_to 10713
  154.6627  135.2927  154.9845 H   0  0  0  0  0  0  0  0  0  0  0  0  # atno 10763 bound_to 10752
  154.0899  135.6592  153.4855 H   0  0  0  0  0  0  0  0  0  0  0  0  # atno 10764 bound_to 10752
  153.0439  135.5217  154.7586 H   0  0  0  0  0  0  0  0  0  0  0  0  # atno 10765 bound_to 10752
  139.8872  134.8560  156.3163 H   0  0  0  0  0  0  0  0  0  0  0  0  # atno 11005 bound_to 11000
  145.2670  141.0096  143.3793 LP  0  0  0  0  0  0  0  0  0  0  0  0  # atno 17320 bound_to 7965
  144.9253  139.4362  143.6521 LP  0  0  0  0  0  0  0  0  0  0  0  0  # atno 17321 bound_to 7965
  140.7411  143.6566  150.8201 LP  0  0  0  0  0  0  0  0  0  0  0  0  # atno 17342 bound_to 10162
  140.0184  143.5568  152.2810 LP  0  0  0  0  0  0  0  0  0  0  0  0  # atno 17343 bound_to 10162
  156.7430  130.4745  149.5473 LP  0  0  0  0  0  0  0  0  0  0  0  0  # atno 17370 bound_to 10713
  156.1527  130.6321  151.0617 LP  0  0  0  0  0  0  0  0  0  0  0  0  # atno 17371 bound_to 10713
  140.9817  133.7263  156.0681 LP  0  0  0  0  0  0  0  0  0  0  0  0  # atno 17394 bound_to 11000
  140.7741  134.3799  157.5501 LP  0  0  0  0  0  0  0  0  0  0  0  0  # atno 17395 bound_to 11000

$$$$
