AV-unprocessed.smi:2641|AV-procd|sdf|10273|dock3
  -GOLD-   2272014283D 1   1.00000     0.00000
 Structure written by MMmdl.
 40 41  0  0  0  0  0  0  0  0  3 V2000
  144.0412  145.7918  154.8827 C   0  0  0  0  0  0  0  0  0  0  0  0
  144.8836  144.5506  154.6774 C   0  0  0  0  0  0  0  0  0  0  0  0
  145.5934  144.3104  153.4813 C   0  0  0  0  0  0  0  0  0  0  0  0
  146.3565  143.1305  153.3591 C   0  0  0  0  0  0  0  0  0  0  0  0
  146.3953  142.2151  154.4343 C   0  0  0  0  0  0  0  0  0  0  0  0
  147.2059  140.9354  154.3327 C   0  0  0  0  0  0  0  0  0  0  0  0
  148.6590  141.1885  154.7387 C   0  0  0  0  0  0  0  0  0  0  0  0
  149.3892  141.8304  153.9851 O   0  0  0  0  0  0  0  0  0  0  0  0
  149.0283  140.6694  155.9246 N   0  0  0  0  0  0  0  0  0  0  0  0
  150.2966  140.7103  156.6707 C   0  0  0  0  0  0  0  0  0  0  0  0
  151.3277  140.0336  155.7312 C   0  0  0  0  0  0  0  0  0  0  0  0
  150.9274  139.6397  154.6126 O   0  0  0  0  0  0  0  0  0  0  0  0
  152.4917  139.8685  156.1596 O   0  5  0  0  0  0  0  0  0  0  0  0
  150.6412  142.2101  156.8993 C   0  0  0  0  0  0  0  0  0  0  0  0
  151.9331  142.4262  157.7128 C   0  0  0  0  0  0  0  0  0  0  0  0
  151.8685  141.7017  159.0649 C   0  0  0  0  0  0  0  0  0  0  0  0
  151.5559  140.2100  158.8800 C   0  0  0  0  0  0  0  0  0  0  0  0
  150.2614  140.0098  158.0673 C   0  0  0  0  0  0  0  0  0  0  0  0
  145.6646  142.5086  155.6060 C   0  0  0  0  0  0  0  0  0  0  0  0
  144.9450  143.6494  155.6836 N   0  3  0  0  0  0  0  0  0  0  0  0
  144.1367  146.4757  154.0387 H   0  0  0  0  0  0  0  0  0  0  0  0
  144.3526  146.3198  155.7845 H   0  0  0  0  0  0  0  0  0  0  0  0
  142.9896  145.5228  154.9859 H   0  0  0  0  0  0  0  0  0  0  0  0
  145.5548  145.0180  152.6657 H   0  0  0  0  0  0  0  0  0  0  0  0
  146.9022  142.9301  152.4484 H   0  0  0  0  0  0  0  0  0  0  0  0
  146.7805  140.1708  154.9838 H   0  0  0  0  0  0  0  0  0  0  0  0
  147.1497  140.5469  153.3143 H   0  0  0  0  0  0  0  0  0  0  0  0
  148.2949  140.1860  156.4225 H   0  0  0  0  0  0  0  0  0  0  0  0
  150.7161  142.7450  155.9514 H   0  0  0  0  0  0  0  0  0  0  0  0
  149.8159  142.6857  157.4313 H   0  0  0  0  0  0  0  0  0  0  0  0
  152.7968  142.0729  157.1485 H   0  0  0  0  0  0  0  0  0  0  0  0
  152.0924  143.4925  157.8741 H   0  0  0  0  0  0  0  0  0  0  0  0
  152.8119  141.8219  159.5980 H   0  0  0  0  0  0  0  0  0  0  0  0
  151.0998  142.1603  159.6879 H   0  0  0  0  0  0  0  0  0  0  0  0
  152.3936  139.7164  158.3863 H   0  0  0  0  0  0  0  0  0  0  0  0
  151.4549  139.7325  159.8549 H   0  0  0  0  0  0  0  0  0  0  0  0
  149.4437  140.4215  158.6601 H   0  0  0  0  0  0  0  0  0  0  0  0
  150.0564  138.9425  157.9718 H   0  0  0  0  0  0  0  0  0  0  0  0
  145.6313  141.8680  156.4754 H   0  0  0  0  0  0  0  0  0  0  0  0
  144.4239  143.8382  156.5401 H   0  0  0  0  0  0  0  0  0  0  0  0
  1  2  1  0  0  0  0
  1 21  1  0  0  0  0
  1 22  1  0  0  0  0
  1 23  1  0  0  0  0
  2 20  1  0  0  0  0
  2  3  2  0  0  0  0
  3  4  1  0  0  0  0
  3 24  1  0  0  0  0
  4  5  2  0  0  0  0
  4 25  1  0  0  0  0
  5  6  1  0  0  0  0
  5 19  1  0  0  0  0
  6  7  1  0  0  0  0
  6 26  1  0  0  0  0
  6 27  1  0  0  0  0
  7  8  2  0  0  0  0
  7  9  1  0  0  0  0
  9 10  1  0  0  0  0
  9 28  1  0  0  0  0
 10 18  1  0  0  0  0
 10 11  1  0  0  0  0
 10 14  1  0  0  0  0
 11 12  2  0  0  0  0
 11 13  1  0  0  0  0
 14 15  1  0  0  0  0
 14 29  1  0  0  0  0
 14 30  1  0  0  0  0
 15 16  1  0  0  0  0
 15 31  1  0  0  0  0
 15 32  1  0  0  0  0
 16 17  1  0  0  0  0
 16 33  1  0  0  0  0
 16 34  1  0  0  0  0
 17 18  1  0  0  0  0
 17 35  1  0  0  0  0
 17 36  1  0  0  0  0
 18 37  1  0  0  0  0
 18 38  1  0  0  0  0
 19 20  2  0  0  0  0
 19 39  1  0  0  0  0
 20 40  1  0  0  0  0
M  CHG  1  13  -1
M  CHG  1  20   1
M  END
> <s_m_source_file>
AV-unprocessed.smi

> <i_m_source_file_index>
2641

> <i_lp_mmshare_version>
43012

> <i_f3d_flags>
0

> <s_epik_input>
W0NIM11jMVtjSF1bY0hdYyhbY0hdbjEpW0NIMl1DKD1PKVtOSF1DMihDKD1PKVtPSF0pW0NIMl1bQ0gyXVtDSDJdW0NIMl1bQ0gyXTI=

> <s_epik_cmdline>
J2VwaWtfcHl0aG9uJywgJy1waCcsICc3LjAnLCAnLXRuJywgJzgnLCAnLW1hJywgJzIwMCcsICctbWV0YWxfYmluZGluZycsICctaW1hZScsICc8aW5maWxlLm1hZT4nLCAnLW9tYWUnLCAnPG91dGZpbGUubWFlPic=

> <r_epik_Ionization_Penalty>
2.05743

> <r_epik_Ionization_Penalty_Charging>
2.05743

> <r_epik_Ionization_Penalty_Neutral>
6.51537e-08

> <r_epik_State_Penalty>
2.19002

> <r_epik_Charging_Adjusted_Penalty>
4.24745

> <i_epik_Tot_Q>
0

> <i_epik_Tot_abs_Q>
2

> <r_epik_Metal_State_Penalty>
2.2083

> <b_epik_Metal_Only>
0

> <s_lp_Force_Field>
OPLS_2005

> <r_lp_Energy>
7.8147

> <b_lp_Chiralities_Consistent>
1

> <s_lp_Variant>
AV-unprocessed.smi:2641-2

> <Gold.Version>
5.8.1

> <Gold.Id.Protein>
6NUR|6NUR_protein|mol2

> <Gold.PLP.Fitness>
44.2262

> <Gold.PLP.PLP>
-34.6718

> <Gold.PLP.part.hbond>
-4.0000

> <Gold.PLP.part.metal>
0.0000

> <Gold.PLP.part.buried>
-6.5882

> <Gold.PLP.part.nonpolar>
-23.5886

> <Gold.PLP.part.repulsive>
0.3207

> <Gold.PLP.ligand.clash>
0.0144

> <Gold.PLP.ligand.torsion>
0.6058

> <Gold.PLP.Chemscore.Hbond>
3.5760

> <Gold.PLP.Chemscore.CHOScore>
0.0000

> <Gold.PLP.Chemscore.Metal>
0.0000

> <Gold.Chemscore.Hbonds>
donor molecule, donor type, donor heavy atom, donor atom, acceptor molecule, acceptor atom, score
      P1  H  7989  7998       L1    12  1.00
      P1  H  7997  8008       L1    13  2.00
      P1  H  8011  8017       L1     8  0.51

> <Gold.PLP.Chemscore.Internal.Correction>
0.0525

> <Gold.Rescore>
     Score         DG    S(hbond)    S(metal)    S(lipo)     H(rot)  DE(clash)    DE(int)     intcor
     12.07     -18.60       2.49        0.00      82.91       1.91       1.20       5.33       ----

> <Gold.Chemscore.Fitness>
12.0673

> <Gold.Chemscore.DG>
-18.5974

> <Gold.Chemscore.ZeroCoef>
-5.4800

> <Gold.Chemscore.Hbond>
2.4909

> <Gold.Chemscore.Metal>
0.0000

> <Gold.Chemscore.Lipo>
82.9073

> <Gold.Chemscore.Internal_Hbond>
0.0000

> <Gold.Chemscore.DEClash>
1.1996

> <Gold.Chemscore.DEInternal>
5.3305

> <Gold.Chemscore.Rot>
1.9149

> <Gold.Chemscore.Internal.Correction>
   9.000000E+99

> <Gold.Chemscore.Hbonds>
donor molecule, donor type, donor heavy atom, donor atom, acceptor molecule, acceptor atom, score
      P1  H  7989  7998       L1    12  0.40
      P1  H  7997  8008       L1    13  1.00
      P1  H  8011  8017       L1     8  0.52

> <Gold.Chemscore.Hbond.Weighted>
-8.3195

> <Gold.Chemscore.Metal.Weighted>
-0.0000

> <Gold.Chemscore.Lipo.Weighted>
-9.7001

> <Gold.Chemscore.Internal_Hbond.Weighted>
0.0000

> <Gold.Chemscore.DEClash.Weighted>
1.1996

> <Gold.Chemscore.DEInternal.Weighted>
5.3305

> <Gold.Chemscore.Rot.Weighted>
4.9023

> <Gold.Chemscore.Internal.Correction.Weighted>
   9.000000E+99

> <Gold.Protein.RotatedTorsions>
[ 6907 6896 6895 6894 ] final    1.36 input  -60.11 | X-H torsion
[ 7974 7965 7964 7962 ] final  -39.26 input  175.53 | X-H torsion
[ 8008 7997 7996 7995 ] final  -31.83 input   59.86 | X-H torsion
[ 10167 10162 10161 10158 ] final  -36.96 input  -65.29 | X-H torsion
[ 10718 10713 10712 10709 ] final  115.46 input   66.30 | X-H torsion
[ 10763 10752 10751 10750 ] final   -3.39 input  -60.55 | X-H torsion
[ 11005 11000 10999 10996 ] final  162.93 input  -57.11 | X-H torsion

> <Gold.Protein.ActiveResidues>
 VAL166  LYS551  ARG553  GLY616  TRP617  ASP618  TYR619  PRO620  LYS621  CYS622 
 ASP623  PHE694  ASN695  SER759  ASP760  ASP761  ALA762  ILE779  LEU786  VAL792 
 PHE793  MET794  SER795  GLU796  ALA797  LYS798  CYS799  TRP800  GLU811  SER814 

> <Gold.Protein.RotatedAtoms>
  151.5913  135.1053  160.0039 H   0  0  0  0  0  0  0  0  0  0  0  0  # atno 6907 bound_to 6896
  152.4305  133.7265  159.6573 H   0  0  0  0  0  0  0  0  0  0  0  0  # atno 6908 bound_to 6896
  150.8197  133.8204  159.3167 H   0  0  0  0  0  0  0  0  0  0  0  0  # atno 6909 bound_to 6896
  146.0412  140.6605  142.9086 H   0  0  0  0  0  0  0  0  0  0  0  0  # atno 7974 bound_to 7965
  154.4200  140.1754  156.1629 H   0  0  0  0  0  0  0  0  0  0  0  0  # atno 8008 bound_to 7997
  155.9823  140.3376  155.6650 H   0  0  0  0  0  0  0  0  0  0  0  0  # atno 8009 bound_to 7997
  155.6483  140.0687  157.2586 H   0  0  0  0  0  0  0  0  0  0  0  0  # atno 8010 bound_to 7997
  140.7130  143.3373  151.2434 H   0  0  0  0  0  0  0  0  0  0  0  0  # atno 10167 bound_to 10162
  157.6220  131.1013  150.7333 H   0  0  0  0  0  0  0  0  0  0  0  0  # atno 10718 bound_to 10713
  153.3708  135.6994  153.6639 H   0  0  0  0  0  0  0  0  0  0  0  0  # atno 10763 bound_to 10752
  153.5290  135.3596  155.2668 H   0  0  0  0  0  0  0  0  0  0  0  0  # atno 10764 bound_to 10752
  154.8681  135.4176  154.2985 H   0  0  0  0  0  0  0  0  0  0  0  0  # atno 10765 bound_to 10752
  140.2307  134.8126  157.3314 H   0  0  0  0  0  0  0  0  0  0  0  0  # atno 11005 bound_to 11000
  144.7076  140.3912  143.7106 LP  0  0  0  0  0  0  0  0  0  0  0  0  # atno 17320 bound_to 7965
  145.6880  139.1633  143.2663 LP  0  0  0  0  0  0  0  0  0  0  0  0  # atno 17321 bound_to 7965
  139.6872  143.9754  152.2840 LP  0  0  0  0  0  0  0  0  0  0  0  0  # atno 17342 bound_to 10162
  139.9403  144.6686  150.8273 LP  0  0  0  0  0  0  0  0  0  0  0  0  # atno 17343 bound_to 10162
  156.7689  130.4822  149.5422 LP  0  0  0  0  0  0  0  0  0  0  0  0  # atno 17370 bound_to 10713
  156.1371  130.6219  151.0415 LP  0  0  0  0  0  0  0  0  0  0  0  0  # atno 17371 bound_to 10713
  140.1754  134.4557  155.7805 LP  0  0  0  0  0  0  0  0  0  0  0  0  # atno 17394 bound_to 11000
  141.2218  133.6960  156.7778 LP  0  0  0  0  0  0  0  0  0  0  0  0  # atno 17395 bound_to 11000

$$$$
