AV-unprocessed.smi:2734|AV-procd|sdf|10538|dock4
  -GOLD-   2272014583D 1   1.00000     0.00000
 Structure written by MMmdl.
 40 42  0  0  0  0  0  0  0  0  1 V2000
  153.0927  142.8969  160.8389 C   0  0  0  0  0  0  0  0  0  0  0  0
  152.4518  142.3583  159.5719 C   0  0  0  0  0  0  0  0  0  0  0  0
  152.4009  140.9609  159.3681 C   0  0  0  0  0  0  0  0  0  0  0  0
  151.8180  140.4200  158.2012 C   0  0  0  0  0  0  0  0  0  0  0  0
  151.6688  139.1041  157.7982 N   0  0  0  0  0  0  0  0  0  0  0  0
  151.0595  139.2504  156.6252 C   0  0  0  0  0  0  0  0  0  0  0  0
  150.7963  140.5073  156.2194 N   0  0  0  0  0  0  0  0  0  0  0  0
  150.1507  140.9064  154.9819 C   0  0  0  0  0  0  0  0  0  0  0  0
  148.7824  141.5773  155.2142 C   0  0  1  0  0  0  0  0  0  0  0  0
  148.5526  142.4726  154.1454 O   0  0  0  0  0  0  0  0  0  0  0  0
  147.6122  140.5797  155.3011 C   0  0  0  0  0  0  0  0  0  0  0  0
  146.0587  141.3768  155.8087 S   0  0  0  0  0  0  0  0  0  0  0  0
  146.4817  141.8176  157.4664 C   0  0  0  0  0  0  0  0  0  0  0  0
  147.5803  142.4506  157.8630 N   0  0  0  0  0  0  0  0  0  0  0  0
  147.4323  142.5510  159.2333 N   0  0  0  0  0  0  0  0  0  0  0  0
  146.3157  142.0116  159.6278 N   0  0  0  0  0  0  0  0  0  0  0  0
  145.6994  141.5401  158.5167 N   0  0  0  0  0  0  0  0  0  0  0  0
  144.4157  140.8722  158.5985 C   0  0  0  0  0  0  0  0  0  0  0  0
  151.2801  141.3224  157.2377 C   0  0  0  0  0  0  0  0  0  0  0  0
  151.3227  142.7146  157.4303 C   0  0  0  0  0  0  0  0  0  0  0  0
  151.9121  143.2384  158.5996 C   0  0  0  0  0  0  0  0  0  0  0  0
  151.9607  144.7435  158.7936 C   0  0  0  0  0  0  0  0  0  0  0  0
  153.4467  142.0894  161.4806 H   0  0  0  0  0  0  0  0  0  0  0  0
  152.3754  143.4871  161.4096 H   0  0  0  0  0  0  0  0  0  0  0  0
  153.9466  143.5292  160.5949 H   0  0  0  0  0  0  0  0  0  0  0  0
  152.8137  140.2902  160.1072 H   0  0  0  0  0  0  0  0  0  0  0  0
  150.7913  138.3944  156.0232 H   0  0  0  0  0  0  0  0  0  0  0  0
  150.8195  141.5874  154.4535 H   0  0  0  0  0  0  0  0  0  0  0  0
  150.0414  140.0253  154.3479 H   0  0  0  0  0  0  0  0  0  0  0  0
  148.8247  142.1606  156.1349 H   0  0  0  0  0  0  0  0  0  0  0  0
  148.5159  143.3504  154.4943 H   0  0  0  0  0  0  0  0  0  0  0  0
  147.4680  140.0849  154.3397 H   0  0  0  0  0  0  0  0  0  0  0  0
  147.8348  139.8041  156.0336 H   0  0  0  0  0  0  0  0  0  0  0  0
  143.6811  141.4182  158.0062 H   0  0  0  0  0  0  0  0  0  0  0  0
  144.0725  140.8260  159.6327 H   0  0  0  0  0  0  0  0  0  0  0  0
  144.5055  139.8578  158.2096 H   0  0  0  0  0  0  0  0  0  0  0  0
  150.9116  143.3739  156.6802 H   0  0  0  0  0  0  0  0  0  0  0  0
  151.4967  145.2677  157.9576 H   0  0  0  0  0  0  0  0  0  0  0  0
  152.9931  145.0850  158.8707 H   0  0  0  0  0  0  0  0  0  0  0  0
  151.4312  145.0295  159.7028 H   0  0  0  0  0  0  0  0  0  0  0  0
  1  2  1  0  0  0  0
  1 23  1  0  0  0  0
  1 24  1  0  0  0  0
  1 25  1  0  0  0  0
  2 21  1  0  0  0  0
  2  3  2  0  0  0  0
  3  4  1  0  0  0  0
  3 26  1  0  0  0  0
  4 19  2  0  0  0  0
  4  5  1  0  0  0  0
  5  6  2  0  0  0  0
  6  7  1  0  0  0  0
  6 27  1  0  0  0  0
  7  8  1  0  0  0  0
  7 19  1  0  0  0  0
  8  9  1  0  0  0  0
  8 28  1  0  0  0  0
  8 29  1  0  0  0  0
  9 10  1  0  0  0  0
  9 11  1  0  0  0  0
  9 30  1  0  0  0  0
 10 31  1  0  0  0  0
 11 12  1  0  0  0  0
 11 32  1  0  0  0  0
 11 33  1  0  0  0  0
 12 13  1  0  0  0  0
 13 17  1  0  0  0  0
 13 14  2  0  0  0  0
 14 15  1  0  0  0  0
 15 16  2  0  0  0  0
 16 17  1  0  0  0  0
 17 18  1  0  0  0  0
 18 34  1  0  0  0  0
 18 35  1  0  0  0  0
 18 36  1  0  0  0  0
 19 20  1  0  0  0  0
 20 21  2  0  0  0  0
 20 37  1  0  0  0  0
 21 22  1  0  0  0  0
 22 38  1  0  0  0  0
 22 39  1  0  0  0  0
 22 40  1  0  0  0  0
M  END
> <s_m_source_file>
AV-unprocessed.smi

> <i_m_source_file_index>
2734

> <i_lp_mmshare_version>
43012

> <i_f3d_flags>
0

> <s_epik_input>
W0NIM11jKFtjSF0xKWMoW0NIM10pW2NIXWMoYzEyKW4oW2NIXW4yKVtDSDJdW0NASF0oW09IXSlbQ0gyXVNjM25ubm4zW0NIM10=

> <s_epik_cmdline>
J2VwaWtfcHl0aG9uJywgJy1waCcsICc3LjAnLCAnLXRuJywgJzgnLCAnLW1hJywgJzIwMCcsICctbWV0YWxfYmluZGluZycsICctaW1hZScsICc8aW5maWxlLm1hZT4nLCAnLW9tYWUnLCAnPG91dGZpbGUubWFlPic=

> <r_lp_tautomer_probability>
1

> <r_epik_Ionization_Penalty>
0.105517

> <r_epik_Ionization_Penalty_Charging>
0

> <r_epik_Ionization_Penalty_Neutral>
0.105517

> <r_epik_State_Penalty>
0.0953887

> <r_epik_Charging_Adjusted_Penalty>
0.0953887

> <i_epik_Tot_Q>
0

> <i_epik_Tot_abs_Q>
0

> <r_epik_Metal_State_Penalty>
0.0808533

> <b_epik_Metal_Only>
0

> <s_lp_Force_Field>
OPLS_2005

> <r_lp_Energy>
9.84292

> <b_lp_Chiralities_Consistent>
1

> <s_lp_Variant>
AV-unprocessed.smi:2734-2

> <Gold.Version>
5.8.1

> <Gold.Id.Protein>
6NUR|6NUR_protein|mol2

> <Gold.PLP.Fitness>
43.9538

> <Gold.PLP.PLP>
-38.5905

> <Gold.PLP.part.hbond>
-4.3251

> <Gold.PLP.part.metal>
0.0000

> <Gold.PLP.part.buried>
-3.2797

> <Gold.PLP.part.nonpolar>
-30.6558

> <Gold.PLP.part.repulsive>
0.2682

> <Gold.PLP.ligand.clash>
0.0000

> <Gold.PLP.ligand.torsion>
0.5123

> <Gold.PLP.Chemscore.Hbond>
2.1144

> <Gold.PLP.Chemscore.CHOScore>
0.0000

> <Gold.PLP.Chemscore.Metal>
0.0000

> <Gold.Chemscore.Hbonds>
donor molecule, donor type, donor heavy atom, donor atom, acceptor molecule, acceptor atom, score
      L1  H    10    31       P1  8028  1.00
      P1  H  6934  6946       L1    16  1.00
      P1  H  8011  8017       L1    10  0.10

> <Gold.PLP.Chemscore.Internal.Correction>
0.0448

> <Gold.Rescore>
     Score         DG    S(hbond)    S(metal)    S(lipo)     H(rot)  DE(clash)    DE(int)     intcor
     14.15     -15.74       1.82        0.00      98.10       2.85       0.46       1.14       ----

> <Gold.Chemscore.Fitness>
14.1455

> <Gold.Chemscore.DG>
-15.7450

> <Gold.Chemscore.ZeroCoef>
-5.4800

> <Gold.Chemscore.Hbond>
1.8177

> <Gold.Chemscore.Metal>
0.0000

> <Gold.Chemscore.Lipo>
98.0984

> <Gold.Chemscore.Internal_Hbond>
0.0000

> <Gold.Chemscore.DEClash>
0.4600

> <Gold.Chemscore.DEInternal>
1.1395

> <Gold.Chemscore.Rot>
2.8452

> <Gold.Chemscore.Internal.Correction>
   9.000000E+99

> <Gold.Chemscore.Hbonds>
donor molecule, donor type, donor heavy atom, donor atom, acceptor molecule, acceptor atom, score
      L1  H    10    31       P1  8028  0.99
      P1  H  6934  6946       L1    16  0.24
      P1  H  8011  8017       L1    10  0.07

> <Gold.Chemscore.Hbond.Weighted>
-6.0712

> <Gold.Chemscore.Metal.Weighted>
-0.0000

> <Gold.Chemscore.Lipo.Weighted>
-11.4775

> <Gold.Chemscore.Internal_Hbond.Weighted>
0.0000

> <Gold.Chemscore.DEClash.Weighted>
0.4600

> <Gold.Chemscore.DEInternal.Weighted>
1.1395

> <Gold.Chemscore.Rot.Weighted>
7.2837

> <Gold.Chemscore.Internal.Correction.Weighted>
   9.000000E+99

> <Gold.Protein.RotatedTorsions>
[ 6907 6896 6895 6894 ] final  -45.81 input  -60.11 | X-H torsion
[ 7974 7965 7964 7962 ] final   36.48 input  175.53 | X-H torsion
[ 8008 7997 7996 7995 ] final  -55.86 input   59.86 | X-H torsion
[ 10167 10162 10161 10158 ] final  125.16 input  -65.29 | X-H torsion
[ 10718 10713 10712 10709 ] final  -50.73 input   66.30 | X-H torsion
[ 10763 10752 10751 10750 ] final -172.58 input  -60.55 | X-H torsion
[ 11005 11000 10999 10996 ] final   33.98 input  -57.11 | X-H torsion

> <Gold.Protein.ActiveResidues>
 VAL166  LYS551  ARG553  GLY616  TRP617  ASP618  TYR619  PRO620  LYS621  CYS622 
 ASP623  PHE694  ASN695  SER759  ASP760  ASP761  ALA762  ILE779  LEU786  VAL792 
 PHE793  MET794  SER795  GLU796  ALA797  LYS798  CYS799  TRP800  GLU811  SER814 

> <Gold.Protein.RotatedAtoms>
  150.9179  134.8597  159.7468 H   0  0  0  0  0  0  0  0  0  0  0  0  # atno 6907 bound_to 6896
  152.4978  134.4262  159.9507 H   0  0  0  0  0  0  0  0  0  0  0  0  # atno 6908 bound_to 6896
  151.4298  133.3634  159.2802 H   0  0  0  0  0  0  0  0  0  0  0  0  # atno 6909 bound_to 6896
  146.1208  139.6013  142.9291 H   0  0  0  0  0  0  0  0  0  0  0  0  # atno 7974 bound_to 7965
  154.4209  140.1143  156.5544 H   0  0  0  0  0  0  0  0  0  0  0  0  # atno 8008 bound_to 7997
  155.6376  140.3496  155.4685 H   0  0  0  0  0  0  0  0  0  0  0  0  # atno 8009 bound_to 7997
  155.9897  140.1177  157.0640 H   0  0  0  0  0  0  0  0  0  0  0  0  # atno 8010 bound_to 7997
  139.5701  144.6934  151.3802 H   0  0  0  0  0  0  0  0  0  0  0  0  # atno 10167 bound_to 10162
  156.1774  130.4150  149.9557 H   0  0  0  0  0  0  0  0  0  0  0  0  # atno 10718 bound_to 10713
  154.6177  135.2871  155.0361 H   0  0  0  0  0  0  0  0  0  0  0  0  # atno 10763 bound_to 10752
  154.1568  135.6494  153.4980 H   0  0  0  0  0  0  0  0  0  0  0  0  # atno 10764 bound_to 10752
  153.0222  135.5368  154.6955 H   0  0  0  0  0  0  0  0  0  0  0  0  # atno 10765 bound_to 10752
  140.2575  134.3230  155.7869 H   0  0  0  0  0  0  0  0  0  0  0  0  # atno 11005 bound_to 11000
  145.5470  141.0416  143.2299 LP  0  0  0  0  0  0  0  0  0  0  0  0  # atno 17320 bound_to 7965
  144.7595  139.6990  143.7240 LP  0  0  0  0  0  0  0  0  0  0  0  0  # atno 17321 bound_to 7965
  140.6985  143.7689  150.7365 LP  0  0  0  0  0  0  0  0  0  0  0  0  # atno 17342 bound_to 10162
  140.1193  143.4627  152.2323 LP  0  0  0  0  0  0  0  0  0  0  0  0  # atno 17343 bound_to 10162
  156.7338  130.9053  151.3627 LP  0  0  0  0  0  0  0  0  0  0  0  0  # atno 17370 bound_to 10713
  157.6845  130.9172  150.0351 LP  0  0  0  0  0  0  0  0  0  0  0  0  # atno 17371 bound_to 10713
  141.2194  133.7390  156.9135 LP  0  0  0  0  0  0  0  0  0  0  0  0  # atno 17394 bound_to 11000
  140.1497  134.9238  157.2576 LP  0  0  0  0  0  0  0  0  0  0  0  0  # atno 17395 bound_to 11000

$$$$
