AV-unprocessed.smi:2327|AV-procd|sdf|9298|dock9
  -GOLD-   2272012523D 1   1.00000     0.00000
 Structure written by MMmdl.
 40 41  0  0  0  0  0  0  0  0  1 V2000
  145.1154  135.7344  150.8665 C   0  0  0  0  0  0  0  0  0  0  0  0
  145.4321  134.3840  151.4282 C   0  0  0  0  0  0  0  0  0  0  0  0
  144.7196  133.2256  151.2441 C   0  0  0  0  0  0  0  0  0  0  0  0
  145.4403  131.8798  152.0830 S   0  0  0  0  0  0  0  0  0  0  0  0
  146.7036  132.9583  152.6670 C   0  0  0  0  0  0  0  0  0  0  0  0
  147.8446  132.4958  153.5233 C   0  0  2  0  0  0  0  0  0  0  0  0
  147.7058  131.0225  153.9316 C   0  0  0  0  0  0  0  0  0  0  0  0
  148.1155  133.4323  154.7200 C   0  0  0  0  0  0  0  0  0  0  0  0
  148.6373  134.7253  154.2915 N   0  0  0  0  0  0  0  0  0  0  0  0
  149.0163  135.7190  155.1110 C   0  0  0  0  0  0  0  0  0  0  0  0
  148.8397  135.6996  156.3276 O   0  0  0  0  0  0  0  0  0  0  0  0
  149.6052  136.7580  154.4928 N   0  0  0  0  0  0  0  0  0  0  0  0
  150.1264  137.9855  155.0983 C   0  0  0  0  0  0  0  0  0  0  0  0
  149.5327  139.2080  154.3829 C   0  0  0  0  0  0  0  0  0  0  0  0
  150.1703  140.5054  154.9054 C   0  0  0  0  0  0  0  0  0  0  0  0
  151.5839  140.4507  154.7460 O   0  0  0  0  0  0  0  0  0  0  0  0
  152.1862  139.3992  155.4933 C   0  0  0  0  0  0  0  0  0  0  0  0
  151.6613  138.0384  155.0077 C   0  0  0  0  0  0  0  0  0  0  0  0
  146.5615  134.2150  152.2340 N   0  0  0  0  0  0  0  0  0  0  0  0
  144.1607  135.7334  150.3399 H   0  0  0  0  0  0  0  0  0  0  0  0
  145.8812  136.0564  150.1606 H   0  0  0  0  0  0  0  0  0  0  0  0
  145.0544  136.4849  151.6549 H   0  0  0  0  0  0  0  0  0  0  0  0
  143.8168  133.0823  150.6691 H   0  0  0  0  0  0  0  0  0  0  0  0
  148.7314  132.5455  152.8895 H   0  0  0  0  0  0  0  0  0  0  0  0
  147.6180  130.3793  153.0555 H   0  0  0  0  0  0  0  0  0  0  0  0
  146.8231  130.8641  154.5521 H   0  0  0  0  0  0  0  0  0  0  0  0
  148.5751  130.6899  154.4996 H   0  0  0  0  0  0  0  0  0  0  0  0
  147.1842  133.6208  155.2547 H   0  0  0  0  0  0  0  0  0  0  0  0
  148.7925  132.9620  155.4351 H   0  0  0  0  0  0  0  0  0  0  0  0
  148.8009  134.8419  153.3020 H   0  0  0  0  0  0  0  0  0  0  0  0
  149.6031  136.7369  153.4830 H   0  0  0  0  0  0  0  0  0  0  0  0
  149.8262  138.0392  156.1468 H   0  0  0  0  0  0  0  0  0  0  0  0
  149.7063  139.1320  153.3085 H   0  0  0  0  0  0  0  0  0  0  0  0
  148.4516  139.2402  154.5240 H   0  0  0  0  0  0  0  0  0  0  0  0
  149.7862  141.3609  154.3496 H   0  0  0  0  0  0  0  0  0  0  0  0
  149.9174  140.6684  155.9543 H   0  0  0  0  0  0  0  0  0  0  0  0
  153.2674  139.4506  155.3638 H   0  0  0  0  0  0  0  0  0  0  0  0
  151.9868  139.5350  156.5575 H   0  0  0  0  0  0  0  0  0  0  0  0
  152.1094  137.2378  155.5972 H   0  0  0  0  0  0  0  0  0  0  0  0
  151.9771  137.8797  153.9757 H   0  0  0  0  0  0  0  0  0  0  0  0
  1  2  1  0  0  0  0
  1 20  1  0  0  0  0
  1 21  1  0  0  0  0
  1 22  1  0  0  0  0
  2 19  1  0  0  0  0
  2  3  2  0  0  0  0
  3  4  1  0  0  0  0
  3 23  1  0  0  0  0
  4  5  1  0  0  0  0
  5  6  1  0  0  0  0
  5 19  2  0  0  0  0
  6  7  1  0  0  0  0
  6  8  1  0  0  0  0
  6 24  1  0  0  0  0
  7 25  1  0  0  0  0
  7 26  1  0  0  0  0
  7 27  1  0  0  0  0
  8  9  1  0  0  0  0
  8 28  1  0  0  0  0
  8 29  1  0  0  0  0
  9 10  1  0  0  0  0
  9 30  1  0  0  0  0
 10 11  2  0  0  0  0
 10 12  1  0  0  0  0
 12 13  1  0  0  0  0
 12 31  1  0  0  0  0
 13 18  1  0  0  0  0
 13 14  1  0  0  0  0
 13 32  1  0  0  0  0
 14 15  1  0  0  0  0
 14 33  1  0  0  0  0
 14 34  1  0  0  0  0
 15 16  1  0  0  0  0
 15 35  1  0  0  0  0
 15 36  1  0  0  0  0
 16 17  1  0  0  0  0
 17 18  1  0  0  0  0
 17 37  1  0  0  0  0
 17 38  1  0  0  0  0
 18 39  1  0  0  0  0
 18 40  1  0  0  0  0
M  END
> <s_m_source_file>
AV-unprocessed.smi

> <i_m_source_file_index>
2327

> <i_lp_mmshare_version>
43012

> <i_f3d_flags>
0

> <s_epik_input>
W0NIM11jMVtjSF1zYyhuMSlbQ0BIXShbQ0gzXSlbQ0gyXVtOSF1DKD1PKVtOSF1bQ0hdMltDSDJdW0NIMl1PW0NIMl1bQ0gyXTI=

> <s_epik_cmdline>
J2VwaWtfcHl0aG9uJywgJy1waCcsICc3LjAnLCAnLXRuJywgJzgnLCAnLW1hJywgJzIwMCcsICctbWV0YWxfYmluZGluZycsICctaW1hZScsICc8aW5maWxlLm1hZT4nLCAnLW9tYWUnLCAnPG91dGZpbGUubWFlPic=

> <r_epik_Ionization_Penalty>
0.0015425

> <r_epik_Ionization_Penalty_Charging>
0

> <r_epik_Ionization_Penalty_Neutral>
0.0015425

> <r_epik_State_Penalty>
0.000998134

> <r_epik_Charging_Adjusted_Penalty>
0.000998134

> <i_epik_Tot_Q>
0

> <i_epik_Tot_abs_Q>
0

> <r_epik_Metal_State_Penalty>
-0

> <b_epik_Metal_Only>
0

> <s_lp_Force_Field>
OPLS_2005

> <r_lp_Energy>
7.05585

> <b_lp_Chiralities_Consistent>
1

> <s_lp_Variant>
AV-unprocessed.smi:2327-1

> <Gold.Version>
5.8.1

> <Gold.Id.Protein>
6NUR|6NUR_protein|mol2

> <Gold.PLP.Fitness>
41.7568

> <Gold.PLP.PLP>
-34.8375

> <Gold.PLP.part.hbond>
-2.8649

> <Gold.PLP.part.metal>
0.0000

> <Gold.PLP.part.buried>
-3.8685

> <Gold.PLP.part.nonpolar>
-28.7180

> <Gold.PLP.part.repulsive>
0.7154

> <Gold.PLP.ligand.clash>
0.0000

> <Gold.PLP.ligand.torsion>
0.3344

> <Gold.PLP.Chemscore.Hbond>
2.4896

> <Gold.PLP.Chemscore.CHOScore>
0.0000

> <Gold.PLP.Chemscore.Metal>
0.0000

> <Gold.Chemscore.Hbonds>
donor molecule, donor type, donor heavy atom, donor atom, acceptor molecule, acceptor atom, score
      L1  H     9    30       P1  7948  0.88
      L1  H    12    31       P1  7948  1.00
      P1  H  7989  7998       L1    16  0.39

> <Gold.PLP.Chemscore.Internal.Correction>
0.1192

> <Gold.Rescore>
     Score         DG    S(hbond)    S(metal)    S(lipo)     H(rot)  DE(clash)    DE(int)     intcor
     15.03     -15.45       1.27        0.00      82.43       1.53       0.04       0.38       ----

> <Gold.Chemscore.Fitness>
15.0260

> <Gold.Chemscore.DG>
-15.4536

> <Gold.Chemscore.ZeroCoef>
-5.4800

> <Gold.Chemscore.Hbond>
1.2734

> <Gold.Chemscore.Metal>
0.0000

> <Gold.Chemscore.Lipo>
82.4252

> <Gold.Chemscore.Internal_Hbond>
0.0000

> <Gold.Chemscore.DEClash>
0.0432

> <Gold.Chemscore.DEInternal>
0.3844

> <Gold.Chemscore.Rot>
1.5325

> <Gold.Chemscore.Internal.Correction>
   9.000000E+99

> <Gold.Chemscore.Hbonds>
donor molecule, donor type, donor heavy atom, donor atom, acceptor molecule, acceptor atom, score
      L1  H     9    30       P1  7948  0.30
      L1  H    12    31       P1  7948  0.64
      P1  H  7989  7998       L1    16  0.09

> <Gold.Chemscore.Hbond.Weighted>
-4.2531

> <Gold.Chemscore.Metal.Weighted>
-0.0000

> <Gold.Chemscore.Lipo.Weighted>
-9.6437

> <Gold.Chemscore.Internal_Hbond.Weighted>
0.0000

> <Gold.Chemscore.DEClash.Weighted>
0.0432

> <Gold.Chemscore.DEInternal.Weighted>
0.3844

> <Gold.Chemscore.Rot.Weighted>
3.9233

> <Gold.Chemscore.Internal.Correction.Weighted>
   9.000000E+99

> <Gold.Protein.RotatedTorsions>
[ 6907 6896 6895 6894 ] final  133.60 input  -60.11 | X-H torsion
[ 7974 7965 7964 7962 ] final    7.53 input  175.53 | X-H torsion
[ 8008 7997 7996 7995 ] final -167.44 input   59.86 | X-H torsion
[ 10167 10162 10161 10158 ] final   37.45 input  -65.29 | X-H torsion
[ 10718 10713 10712 10709 ] final   69.37 input   66.30 | X-H torsion
[ 10763 10752 10751 10750 ] final   22.20 input  -60.55 | X-H torsion
[ 11005 11000 10999 10996 ] final   15.12 input  -57.11 | X-H torsion

> <Gold.Protein.ActiveResidues>
 VAL166  LYS551  ARG553  GLY616  TRP617  ASP618  TYR619  PRO620  LYS621  CYS622 
 ASP623  PHE694  ASN695  SER759  ASP760  ASP761  ALA762  ILE779  LEU786  VAL792 
 PHE793  MET794  SER795  GLU796  ALA797  LYS798  CYS799  TRP800  GLU811  SER814 

> <Gold.Protein.RotatedAtoms>
  152.3202  133.5845  159.5739 H   0  0  0  0  0  0  0  0  0  0  0  0  # atno 6907 bound_to 6896
  150.7367  134.0022  159.3651 H   0  0  0  0  0  0  0  0  0  0  0  0  # atno 6908 bound_to 6896
  151.7907  135.0737  160.0438 H   0  0  0  0  0  0  0  0  0  0  0  0  # atno 6909 bound_to 6896
  146.2426  140.0070  142.8410 H   0  0  0  0  0  0  0  0  0  0  0  0  # atno 7974 bound_to 7965
  155.8778  140.1004  157.1506 H   0  0  0  0  0  0  0  0  0  0  0  0  # atno 8008 bound_to 7997
  154.4002  140.1335  156.4221 H   0  0  0  0  0  0  0  0  0  0  0  0  # atno 8009 bound_to 7997
  155.7678  140.3461  155.5233 H   0  0  0  0  0  0  0  0  0  0  0  0  # atno 8010 bound_to 7997
  140.4031  144.1696  150.6135 H   0  0  0  0  0  0  0  0  0  0  0  0  # atno 10167 bound_to 10162
  157.6342  130.9422  150.0504 H   0  0  0  0  0  0  0  0  0  0  0  0  # atno 10718 bound_to 10713
  153.0934  135.6653  153.9809 H   0  0  0  0  0  0  0  0  0  0  0  0  # atno 10763 bound_to 10752
  153.9399  135.2995  155.3444 H   0  0  0  0  0  0  0  0  0  0  0  0  # atno 10764 bound_to 10752
  154.7351  135.5105  153.9102 H   0  0  0  0  0  0  0  0  0  0  0  0  # atno 10765 bound_to 10752
  140.4619  134.1119  155.7718 H   0  0  0  0  0  0  0  0  0  0  0  0  # atno 11005 bound_to 11000
  145.1363  140.9546  143.4515 LP  0  0  0  0  0  0  0  0  0  0  0  0  # atno 17320 bound_to 7965
  145.0339  139.3317  143.6010 LP  0  0  0  0  0  0  0  0  0  0  0  0  # atno 17321 bound_to 7965
  140.4718  143.2410  151.9078 LP  0  0  0  0  0  0  0  0  0  0  0  0  # atno 17342 bound_to 10162
  139.4784  144.5361  151.8596 LP  0  0  0  0  0  0  0  0  0  0  0  0  # atno 17343 bound_to 10162
  156.1568  130.3643  149.9357 LP  0  0  0  0  0  0  0  0  0  0  0  0  # atno 17370 bound_to 10713
  156.7365  130.9063  151.3629 LP  0  0  0  0  0  0  0  0  0  0  0  0  # atno 17371 bound_to 10713
  141.1617  133.8780  157.1828 LP  0  0  0  0  0  0  0  0  0  0  0  0  # atno 17394 bound_to 11000
  139.9940  135.0054  157.0040 LP  0  0  0  0  0  0  0  0  0  0  0  0  # atno 17395 bound_to 11000

$$$$
