AV-unprocessed.smi:1683|AV-procd|sdf|6747|dock4
  -GOLD-   22720 7503D 1   1.00000     0.00000
 Structure written by MMmdl.
 36 37  0  0  0  0  0  0  0  0  1 V2000
  144.7616  137.5133  152.4708 O   0  0  0  0  0  0  0  0  0  0  0  0
  145.8927  137.1701  152.1254 C   0  0  0  0  0  0  0  0  0  0  0  0
  146.8993  138.0310  151.9166 N   0  0  0  0  0  0  0  0  0  0  0  0
  146.8207  139.4805  152.0712 C   0  0  0  0  0  0  0  0  0  0  0  0
  147.1967  139.9275  153.4964 C   0  0  2  0  0  0  0  0  0  0  0  0
  147.2972  141.4451  153.6581 C   0  0  0  0  0  0  0  0  0  0  0  0
  148.5992  141.6759  154.4311 C   0  0  0  0  0  0  0  0  0  0  0  0
  148.9010  140.3817  155.0315 N   0  0  0  0  0  0  0  0  0  0  0  0
  150.2976  140.2381  155.4381 C   0  0  0  0  0  0  0  0  0  0  0  0
  150.5672  140.7414  156.8698 C   0  0  0  0  0  0  0  0  0  0  0  0
  150.3876  142.0614  156.8970 F   0  0  0  0  0  0  0  0  0  0  0  0
  149.7304  140.1907  157.7491 F   0  0  0  0  0  0  0  0  0  0  0  0
  151.8237  140.4776  157.2299 F   0  0  0  0  0  0  0  0  0  0  0  0
  148.5601  139.4306  153.9837 C   0  0  0  0  0  0  0  0  0  0  0  0
  146.2806  135.9033  151.9044 N   0  0  0  0  0  0  0  0  0  0  0  0
  145.5022  134.7267  152.0482 C   0  0  0  0  0  0  0  0  0  0  0  0
  145.7894  133.4846  151.4197 C   0  0  0  0  0  0  0  0  0  0  0  0
  144.8934  132.5618  151.7396 N   0  0  0  0  0  0  0  0  0  0  0  0
  144.0372  133.2029  152.5669 N   0  0  0  0  0  0  0  0  0  0  0  0
  144.3685  134.5223  152.7838 C   0  0  0  0  0  0  0  0  0  0  0  0
  143.2411  132.7314  152.9721 H   0  0  0  0  0  0  0  0  0  0  0  0
  147.7917  137.6550  151.6309 H   0  0  0  0  0  0  0  0  0  0  0  0
  147.4454  139.9877  151.3337 H   0  0  0  0  0  0  0  0  0  0  0  0
  145.7947  139.7797  151.8558 H   0  0  0  0  0  0  0  0  0  0  0  0
  146.4367  139.5649  154.1910 H   0  0  0  0  0  0  0  0  0  0  0  0
  147.3270  141.9669  152.7009 H   0  0  0  0  0  0  0  0  0  0  0  0
  146.4388  141.8255  154.2131 H   0  0  0  0  0  0  0  0  0  0  0  0
  149.3931  141.9614  153.7385 H   0  0  0  0  0  0  0  0  0  0  0  0
  148.4977  142.4619  155.1796 H   0  0  0  0  0  0  0  0  0  0  0  0
  150.5473  139.1769  155.3988 H   0  0  0  0  0  0  0  0  0  0  0  0
  150.9560  140.7387  154.7264 H   0  0  0  0  0  0  0  0  0  0  0  0
  148.5230  138.4072  154.3589 H   0  0  0  0  0  0  0  0  0  0  0  0
  149.2958  139.4770  153.1785 H   0  0  0  0  0  0  0  0  0  0  0  0
  147.2362  135.7643  151.6098 H   0  0  0  0  0  0  0  0  0  0  0  0
  146.6017  133.2267  150.7563 H   0  0  0  0  0  0  0  0  0  0  0  0
  143.7840  135.1681  153.4224 H   0  0  0  0  0  0  0  0  0  0  0  0
  1  2  2  0  0  0  0
  2  3  1  0  0  0  0
  2 15  1  0  0  0  0
  3  4  1  0  0  0  0
  3 22  1  0  0  0  0
  4  5  1  0  0  0  0
  4 23  1  0  0  0  0
  4 24  1  0  0  0  0
  5 14  1  0  0  0  0
  5  6  1  0  0  0  0
  5 25  1  0  0  0  0
  6  7  1  0  0  0  0
  6 26  1  0  0  0  0
  6 27  1  0  0  0  0
  7  8  1  0  0  0  0
  7 28  1  0  0  0  0
  7 29  1  0  0  0  0
  8  9  1  0  0  0  0
  8 14  1  0  0  0  0
  9 10  1  0  0  0  0
  9 30  1  0  0  0  0
  9 31  1  0  0  0  0
 10 11  1  0  0  0  0
 10 12  1  0  0  0  0
 10 13  1  0  0  0  0
 14 32  1  0  0  0  0
 14 33  1  0  0  0  0
 15 16  1  0  0  0  0
 15 34  1  0  0  0  0
 16 20  2  0  0  0  0
 16 17  1  0  0  0  0
 17 18  2  0  0  0  0
 17 35  1  0  0  0  0
 18 19  1  0  0  0  0
 19 21  1  0  0  0  0
 19 20  1  0  0  0  0
 20 36  1  0  0  0  0
M  END
> <s_m_source_file>
AV-unprocessed.smi

> <i_m_source_file_index>
1683

> <i_lp_mmshare_version>
43012

> <i_f3d_flags>
0

> <s_epik_input>
W2NIXTFbbkhdbltjSF1jMVtOSF1DKD1PKVtOSF1bQ0gyXVtDQEBIXTJbQ0gyXVtDSDJdTihbQ0gyXTIpW0NIMl1DKEYpKEYpRg==

> <s_epik_cmdline>
J2VwaWtfcHl0aG9uJywgJy1waCcsICc3LjAnLCAnLXRuJywgJzgnLCAnLW1hJywgJzIwMCcsICctbWV0YWxfYmluZGluZycsICctaW1hZScsICc8aW5maWxlLm1hZT4nLCAnLW9tYWUnLCAnPG91dGZpbGUubWFlPic=

> <r_lp_tautomer_probability>
0.5

> <r_epik_Ionization_Penalty>
0.244885

> <r_epik_Ionization_Penalty_Charging>
0

> <r_epik_Ionization_Penalty_Neutral>
0.244885

> <r_epik_State_Penalty>
0.235951

> <r_epik_Charging_Adjusted_Penalty>
0.235951

> <i_epik_Tot_Q>
0

> <i_epik_Tot_abs_Q>
0

> <r_epik_Metal_State_Penalty>
0.23595

> <b_epik_Metal_Only>
0

> <s_lp_Force_Field>
OPLS_2005

> <r_lp_Energy>
32.4259

> <b_lp_Chiralities_Consistent>
1

> <s_lp_Variant>
AV-unprocessed.smi:1683-1

> <Gold.Version>
5.8.1

> <Gold.Id.Protein>
6NUR|6NUR_protein|mol2

> <Gold.PLP.Fitness>
39.1212

> <Gold.PLP.PLP>
-31.7373

> <Gold.PLP.part.hbond>
-3.0000

> <Gold.PLP.part.metal>
0.0000

> <Gold.PLP.part.buried>
-1.2406

> <Gold.PLP.part.nonpolar>
-27.8772

> <Gold.PLP.part.repulsive>
0.9218

> <Gold.PLP.ligand.clash>
0.0000

> <Gold.PLP.ligand.torsion>
0.6420

> <Gold.PLP.Chemscore.Hbond>
2.7360

> <Gold.PLP.Chemscore.CHOScore>
0.0000

> <Gold.PLP.Chemscore.Metal>
0.0000

> <Gold.Chemscore.Hbonds>
donor molecule, donor type, donor heavy atom, donor atom, acceptor molecule, acceptor atom, score
      L1  H     3    22       P1  7948  0.91
      L1  H    15    34       P1  7948  0.96
      L1  H    19    21       P1 10957  0.65

> <Gold.PLP.Chemscore.Internal.Correction>
0.4598

> <Gold.Rescore>
     Score         DG    S(hbond)    S(metal)    S(lipo)     H(rot)  DE(clash)    DE(int)     intcor
     15.13     -16.97       2.79        0.00      57.61       1.78       0.19       1.64       ----

> <Gold.Chemscore.Fitness>
15.1337

> <Gold.Chemscore.DG>
-16.9669

> <Gold.Chemscore.ZeroCoef>
-5.4800

> <Gold.Chemscore.Hbond>
2.7850

> <Gold.Chemscore.Metal>
0.0000

> <Gold.Chemscore.Lipo>
57.6075

> <Gold.Chemscore.Internal_Hbond>
0.0000

> <Gold.Chemscore.DEClash>
0.1931

> <Gold.Chemscore.DEInternal>
1.6401

> <Gold.Chemscore.Rot>
1.7793

> <Gold.Chemscore.Internal.Correction>
   9.000000E+99

> <Gold.Chemscore.Hbonds>
donor molecule, donor type, donor heavy atom, donor atom, acceptor molecule, acceptor atom, score
      L1  H     3    22       P1  7948  0.88
      L1  H    15    34       P1  7948  0.92
      L1  H    19    21       P1 10957  0.16

> <Gold.Chemscore.Hbond.Weighted>
-9.3019

> <Gold.Chemscore.Metal.Weighted>
-0.0000

> <Gold.Chemscore.Lipo.Weighted>
-6.7401

> <Gold.Chemscore.Internal_Hbond.Weighted>
0.0000

> <Gold.Chemscore.DEClash.Weighted>
0.1931

> <Gold.Chemscore.DEInternal.Weighted>
1.6401

> <Gold.Chemscore.Rot.Weighted>
4.5551

> <Gold.Chemscore.Internal.Correction.Weighted>
   9.000000E+99

> <Gold.Protein.RotatedTorsions>
[ 6907 6896 6895 6894 ] final -151.99 input  -60.11 | X-H torsion
[ 7974 7965 7964 7962 ] final   20.44 input  175.53 | X-H torsion
[ 8008 7997 7996 7995 ] final   43.66 input   59.86 | X-H torsion
[ 10167 10162 10161 10158 ] final   45.62 input  -65.29 | X-H torsion
[ 10718 10713 10712 10709 ] final   76.66 input   66.30 | X-H torsion
[ 10763 10752 10751 10750 ] final  -30.69 input  -60.55 | X-H torsion
[ 11005 11000 10999 10996 ] final   85.78 input  -57.11 | X-H torsion

> <Gold.Protein.ActiveResidues>
 VAL166  LYS551  ARG553  GLY616  TRP617  ASP618  TYR619  PRO620  LYS621  CYS622 
 ASP623  PHE694  ASN695  SER759  ASP760  ASP761  ALA762  ILE779  LEU786  VAL792 
 PHE793  MET794  SER795  GLU796  ALA797  LYS798  CYS799  TRP800  GLU811  SER814 

> <Gold.Protein.RotatedAtoms>
  151.2212  133.4501  159.2600 H   0  0  0  0  0  0  0  0  0  0  0  0  # atno 6907 bound_to 6896
  151.0883  134.9901  159.8400 H   0  0  0  0  0  0  0  0  0  0  0  0  # atno 6908 bound_to 6896
  152.5432  134.2147  159.8817 H   0  0  0  0  0  0  0  0  0  0  0  0  # atno 6909 bound_to 6896
  146.2111  139.8169  142.8688 H   0  0  0  0  0  0  0  0  0  0  0  0  # atno 7974 bound_to 7965
  155.3064  140.3388  155.4245 H   0  0  0  0  0  0  0  0  0  0  0  0  # atno 8008 bound_to 7997
  156.1977  140.1721  156.8003 H   0  0  0  0  0  0  0  0  0  0  0  0  # atno 8009 bound_to 7997
  154.5519  140.0704  156.8665 H   0  0  0  0  0  0  0  0  0  0  0  0  # atno 8010 bound_to 7997
  140.3223  144.2691  150.6181 H   0  0  0  0  0  0  0  0  0  0  0  0  # atno 10167 bound_to 10162
  157.6682  130.9785  150.1528 H   0  0  0  0  0  0  0  0  0  0  0  0  # atno 10718 bound_to 10713
  153.7851  135.6902  153.4881 H   0  0  0  0  0  0  0  0  0  0  0  0  # atno 10763 bound_to 10752
  153.1786  135.4515  154.9996 H   0  0  0  0  0  0  0  0  0  0  0  0  # atno 10764 bound_to 10752
  154.8066  135.3359  154.7351 H   0  0  0  0  0  0  0  0  0  0  0  0  # atno 10765 bound_to 10752
  139.8962  134.8310  156.2630 H   0  0  0  0  0  0  0  0  0  0  0  0  # atno 11005 bound_to 11000
  145.3137  141.0226  143.3540 LP  0  0  0  0  0  0  0  0  0  0  0  0  # atno 17320 bound_to 7965
  144.8917  139.4765  143.6674 LP  0  0  0  0  0  0  0  0  0  0  0  0  # atno 17321 bound_to 7965
  140.5473  143.2212  151.7986 LP  0  0  0  0  0  0  0  0  0  0  0  0  # atno 17342 bound_to 10162
  139.4872  144.4523  151.9639 LP  0  0  0  0  0  0  0  0  0  0  0  0  # atno 17343 bound_to 10162
  156.2323  130.3683  149.8430 LP  0  0  0  0  0  0  0  0  0  0  0  0  # atno 17370 bound_to 10713
  156.6253  130.8643  151.3484 LP  0  0  0  0  0  0  0  0  0  0  0  0  # atno 17371 bound_to 10713
  141.0150  133.7073  156.1174 LP  0  0  0  0  0  0  0  0  0  0  0  0  # atno 17394 bound_to 11000
  140.7314  134.4251  157.5565 LP  0  0  0  0  0  0  0  0  0  0  0  0  # atno 17395 bound_to 11000

$$$$
