AV-unprocessed.smi:1806|AV-procd|sdf|7300|dock7
  -GOLD-   22720 8553D 1   1.00000     0.00000
 Structure written by MMmdl.
 27 28  0  0  0  0  0  0  0  0  2 V2000
  152.1673  143.9143  161.5012 C   0  0  0  0  0  0  0  0  0  0  0  0
  152.8975  142.6188  161.2164 C   0  0  0  0  0  0  0  0  0  0  0  0
  153.7075  142.0171  162.1992 C   0  0  0  0  0  0  0  0  0  0  0  0
  154.3591  140.8147  161.8722 C   0  0  0  0  0  0  0  0  0  0  0  0
  154.1778  140.2718  160.5859 C   0  0  0  0  0  0  0  0  0  0  0  0
  153.3544  140.9442  159.6527 C   0  0  0  0  0  0  0  0  0  0  0  0
  153.1641  140.4292  158.4285 N   0  5  0  0  0  0  0  0  0  0  0  0
  152.0399  140.7124  157.7207 C   0  0  0  0  0  0  0  0  0  0  0  0
  151.1682  141.5035  158.0930 O   0  0  0  0  0  0  0  0  0  0  0  0
  151.9063  140.0115  156.4460 C   0  0  0  0  0  0  0  0  0  0  0  0
  150.9045  140.3359  155.5941 C   0  0  0  0  0  0  0  0  0  0  0  0
  150.6873  139.7054  154.3942 O   0  0  0  0  0  0  0  0  0  0  0  0
  151.4383  138.5122  154.2059 C   0  0  0  0  0  0  0  0  0  0  0  0
  152.8684  138.6906  154.7344 C   0  0  0  0  0  0  0  0  0  0  0  0
  152.8409  139.0568  156.1088 O   0  0  0  0  0  0  0  0  0  0  0  0
  152.7245  142.0975  159.9821 N   0  0  0  0  0  0  0  0  0  0  0  0
  152.0061  144.0435  162.5718 H   0  0  0  0  0  0  0  0  0  0  0  0
  151.1940  143.9278  161.0091 H   0  0  0  0  0  0  0  0  0  0  0  0
  152.7492  144.7610  161.1366 H   0  0  0  0  0  0  0  0  0  0  0  0
  153.8262  142.4618  163.1761 H   0  0  0  0  0  0  0  0  0  0  0  0
  154.9873  140.3154  162.5949 H   0  0  0  0  0  0  0  0  0  0  0  0
  154.6696  139.3484  160.3168 H   0  0  0  0  0  0  0  0  0  0  0  0
  150.1541  141.0903  155.7828 H   0  0  0  0  0  0  0  0  0  0  0  0
  150.9419  137.6898  154.7227 H   0  0  0  0  0  0  0  0  0  0  0  0
  151.4522  138.2630  153.1448 H   0  0  0  0  0  0  0  0  0  0  0  0
  153.4354  137.7663  154.6226 H   0  0  0  0  0  0  0  0  0  0  0  0
  153.3932  139.4607  154.1672 H   0  0  0  0  0  0  0  0  0  0  0  0
  1  2  1  0  0  0  0
  1 17  1  0  0  0  0
  1 18  1  0  0  0  0
  1 19  1  0  0  0  0
  2 16  1  0  0  0  0
  2  3  2  0  0  0  0
  3  4  1  0  0  0  0
  3 20  1  0  0  0  0
  4  5  2  0  0  0  0
  4 21  1  0  0  0  0
  5  6  1  0  0  0  0
  5 22  1  0  0  0  0
  6  7  1  0  0  0  0
  6 16  2  0  0  0  0
  7  8  1  0  0  0  0
  8  9  2  0  0  0  0
  8 10  1  0  0  0  0
 10 15  1  0  0  0  0
 10 11  2  0  0  0  0
 11 12  1  0  0  0  0
 11 23  1  0  0  0  0
 12 13  1  0  0  0  0
 13 14  1  0  0  0  0
 13 24  1  0  0  0  0
 13 25  1  0  0  0  0
 14 15  1  0  0  0  0
 14 26  1  0  0  0  0
 14 27  1  0  0  0  0
M  CHG  1   7  -1
M  END
> <s_m_source_file>
AV-unprocessed.smi

> <i_m_source_file_index>
1806

> <i_lp_mmshare_version>
43012

> <i_f3d_flags>
0

> <s_epik_input>
W0NIM11jMVtjSF1bY0hdW2NIXWMobjEpW05IXUMoPU8pQzI9W0NIXU9bQ0gyXVtDSDJdTzI=

> <s_epik_cmdline>
J2VwaWtfcHl0aG9uJywgJy1waCcsICc3LjAnLCAnLXRuJywgJzgnLCAnLW1hJywgJzIwMCcsICctbWV0YWxfYmluZGluZycsICctaW1hZScsICc8aW5maWxlLm1hZT4nLCAnLW9tYWUnLCAnPG91dGZpbGUubWFlPic=

> <r_lp_tautomer_probability>
1

> <r_epik_Ionization_Penalty>
11.2807

> <r_epik_Ionization_Penalty_Charging>
5.82682

> <r_epik_Ionization_Penalty_Neutral>
5.45386

> <r_epik_State_Penalty>
5.82679

> <r_epik_Charging_Adjusted_Penalty>
11.6536

> <i_epik_Tot_Q>
-1

> <i_epik_Tot_abs_Q>
1

> <r_epik_Metal_State_Penalty>
1.79445

> <b_epik_Metal_Only>
1

> <s_lp_Force_Field>
OPLS_2005

> <r_lp_Energy>
4.64637

> <b_lp_Chiralities_Consistent>
1

> <s_lp_Variant>
AV-unprocessed.smi:1806-2

> <Gold.Version>
5.8.1

> <Gold.Id.Protein>
6NUR|6NUR_protein|mol2

> <Gold.PLP.Fitness>
45.0939

> <Gold.PLP.PLP>
-38.1182

> <Gold.PLP.part.hbond>
-3.0000

> <Gold.PLP.part.metal>
0.0000

> <Gold.PLP.part.buried>
-4.0099

> <Gold.PLP.part.nonpolar>
-29.6622

> <Gold.PLP.part.repulsive>
0.1411

> <Gold.PLP.ligand.clash>
0.0000

> <Gold.PLP.ligand.torsion>
0.1602

> <Gold.PLP.Chemscore.Hbond>
2.3848

> <Gold.PLP.Chemscore.CHOScore>
0.0000

> <Gold.PLP.Chemscore.Metal>
0.0000

> <Gold.Chemscore.Hbonds>
donor molecule, donor type, donor heavy atom, donor atom, acceptor molecule, acceptor atom, score
      P1  H  7989  7998       L1    12  0.70
      P1  H  7997  8009       L1     7  1.66

> <Gold.PLP.Chemscore.Internal.Correction>
0.1418

> <Gold.Rescore>
     Score         DG    S(hbond)    S(metal)    S(lipo)     H(rot)  DE(clash)    DE(int)     intcor
     15.61     -17.53       0.74        0.00      81.80       0.00       0.01       1.91       ----

> <Gold.Chemscore.Fitness>
15.6130

> <Gold.Chemscore.DG>
-17.5338

> <Gold.Chemscore.ZeroCoef>
-5.4800

> <Gold.Chemscore.Hbond>
0.7435

> <Gold.Chemscore.Metal>
0.0000

> <Gold.Chemscore.Lipo>
81.8002

> <Gold.Chemscore.Internal_Hbond>
0.0000

> <Gold.Chemscore.DEClash>
0.0089

> <Gold.Chemscore.DEInternal>
1.9119

> <Gold.Chemscore.Rot>
0.0000

> <Gold.Chemscore.Internal.Correction>
   9.000000E+99

> <Gold.Chemscore.Hbonds>
donor molecule, donor type, donor heavy atom, donor atom, acceptor molecule, acceptor atom, score
      P1  H  7989  7998       L1    12  0.03
      P1  H  7997  8009       L1     7  0.39

> <Gold.Chemscore.Hbond.Weighted>
-2.4832

> <Gold.Chemscore.Metal.Weighted>
-0.0000

> <Gold.Chemscore.Lipo.Weighted>
-9.5706

> <Gold.Chemscore.Internal_Hbond.Weighted>
0.0000

> <Gold.Chemscore.DEClash.Weighted>
0.0089

> <Gold.Chemscore.DEInternal.Weighted>
1.9119

> <Gold.Chemscore.Rot.Weighted>
0.0000

> <Gold.Chemscore.Internal.Correction.Weighted>
   9.000000E+99

> <Gold.Protein.RotatedTorsions>
[ 6907 6896 6895 6894 ] final  -78.58 input  -60.11 | X-H torsion
[ 7974 7965 7964 7962 ] final    9.72 input  175.53 | X-H torsion
[ 8008 7997 7996 7995 ] final  154.58 input   59.86 | X-H torsion
[ 10167 10162 10161 10158 ] final   27.17 input  -65.29 | X-H torsion
[ 10718 10713 10712 10709 ] final -110.24 input   66.30 | X-H torsion
[ 10763 10752 10751 10750 ] final -166.44 input  -60.55 | X-H torsion
[ 11005 11000 10999 10996 ] final  124.15 input  -57.11 | X-H torsion

> <Gold.Protein.ActiveResidues>
 VAL166  LYS551  ARG553  GLY616  TRP617  ASP618  TYR619  PRO620  LYS621  CYS622 
 ASP623  PHE694  ASN695  SER759  ASP760  ASP761  ALA762  ILE779  LEU786  VAL792 
 PHE793  MET794  SER795  GLU796  ALA797  LYS798  CYS799  TRP800  GLU811  SER814 

> <Gold.Protein.RotatedAtoms>
  150.6969  134.4250  159.5221 H   0  0  0  0  0  0  0  0  0  0  0  0  # atno 6907 bound_to 6896
  152.1986  134.8605  160.0519 H   0  0  0  0  0  0  0  0  0  0  0  0  # atno 6908 bound_to 6896
  151.9534  133.3638  159.4045 H   0  0  0  0  0  0  0  0  0  0  0  0  # atno 6909 bound_to 6896
  146.2399  139.9741  142.8443 H   0  0  0  0  0  0  0  0  0  0  0  0  # atno 7974 bound_to 7965
  156.2523  140.1962  156.6669 H   0  0  0  0  0  0  0  0  0  0  0  0  # atno 8008 bound_to 7997
  154.6422  140.0582  156.9885 H   0  0  0  0  0  0  0  0  0  0  0  0  # atno 8009 bound_to 7997
  155.1545  140.3254  155.4427 H   0  0  0  0  0  0  0  0  0  0  0  0  # atno 8010 bound_to 7997
  140.4961  144.0390  150.6315 H   0  0  0  0  0  0  0  0  0  0  0  0  # atno 10167 bound_to 10162
  156.0580  130.5805  150.8210 H   0  0  0  0  0  0  0  0  0  0  0  0  # atno 10718 bound_to 10713
  154.6832  135.2958  154.9583 H   0  0  0  0  0  0  0  0  0  0  0  0  # atno 10763 bound_to 10752
  154.0571  135.6636  153.4811 H   0  0  0  0  0  0  0  0  0  0  0  0  # atno 10764 bound_to 10752
  153.0561  135.5143  154.7886 H   0  0  0  0  0  0  0  0  0  0  0  0  # atno 10765 bound_to 10752
  139.9345  134.9640  156.8366 H   0  0  0  0  0  0  0  0  0  0  0  0  # atno 11005 bound_to 11000
  145.1653  140.9693  143.4353 LP  0  0  0  0  0  0  0  0  0  0  0  0  # atno 17320 bound_to 7965
  145.0078  139.3538  143.6135 LP  0  0  0  0  0  0  0  0  0  0  0  0  # atno 17321 bound_to 7965
  140.3673  143.2874  152.0318 LP  0  0  0  0  0  0  0  0  0  0  0  0  # atno 17342 bound_to 10162
  139.4861  144.6257  151.7168 LP  0  0  0  0  0  0  0  0  0  0  0  0  # atno 17343 bound_to 10162
  157.5566  131.0945  150.9620 LP  0  0  0  0  0  0  0  0  0  0  0  0  # atno 17370 bound_to 10713
  156.9867  130.5548  149.5300 LP  0  0  0  0  0  0  0  0  0  0  0  0  # atno 17371 bound_to 10713
  140.6112  134.0080  155.7578 LP  0  0  0  0  0  0  0  0  0  0  0  0  # atno 17394 bound_to 11000
  141.0952  133.9855  157.3172 LP  0  0  0  0  0  0  0  0  0  0  0  0  # atno 17395 bound_to 11000

$$$$
