AV-unprocessed.smi:484|AV-procd|sdf|2688|dock5
  -GOLD-   2262023113D 1   1.00000     0.00000
 Structure written by MMmdl.
 46 48  0  0  0  0  0  0  0  0  1 V2000
  152.2963  144.0675  161.6283 C   0  0  0  0  0  0  0  0  0  0  0  0
  152.3768  144.1695  160.1012 C   0  0  0  0  0  0  0  0  0  0  0  0
  151.9286  142.8921  159.4170 C   0  0  0  0  0  0  0  0  0  0  0  0
  150.8385  142.9089  158.5243 C   0  0  0  0  0  0  0  0  0  0  0  0
  150.4310  141.7227  157.8847 C   0  0  0  0  0  0  0  0  0  0  0  0
  151.1015  140.5055  158.1226 C   0  0  0  0  0  0  0  0  0  0  0  0
  150.6381  139.3947  157.4505 O   0  0  0  0  0  0  0  0  0  0  0  0
  151.4681  138.2418  157.4068 C   0  0  0  0  0  0  0  0  0  0  0  0
  150.8539  137.1519  158.3046 C   0  0  1  0  0  0  0  0  0  0  0  0
  151.6780  136.9985  159.4414 O   0  0  0  0  0  0  0  0  0  0  0  0
  149.4373  137.4868  158.8170 C   0  0  0  0  0  0  0  0  0  0  0  0
  148.6995  136.3164  159.2759 N   0  0  0  0  0  0  0  0  0  0  0  0
  148.3905  135.1935  158.5786 C   0  0  0  0  0  0  0  0  0  0  0  0
  148.8036  135.0163  157.1448 C   0  0  0  0  0  0  0  0  0  0  0  0
  150.0750  134.4198  156.9887 O   0  0  0  0  0  0  0  0  0  0  0  0
  147.6884  134.2751  159.2468 N   0  0  0  0  0  0  0  0  0  0  0  0
  147.5377  134.8500  160.4930 C   0  0  0  0  0  0  0  0  0  0  0  0
  146.8841  134.3729  161.6517 C   0  0  0  0  0  0  0  0  0  0  0  0
  146.8549  135.1521  162.8267 C   0  0  0  0  0  0  0  0  0  0  0  0
  147.4776  136.4166  162.8601 C   0  0  0  0  0  0  0  0  0  0  0  0
  148.1358  136.9098  161.7173 C   0  0  0  0  0  0  0  0  0  0  0  0
  148.1619  136.1280  160.5464 C   0  0  0  0  0  0  0  0  0  0  0  0
  152.1963  140.4946  159.0236 C   0  0  0  0  0  0  0  0  0  0  0  0
  152.6044  141.6806  159.6645 C   0  0  0  0  0  0  0  0  0  0  0  0
  152.6226  144.9958  162.0974 H   0  0  0  0  0  0  0  0  0  0  0  0
  152.9313  143.2640  162.0026 H   0  0  0  0  0  0  0  0  0  0  0  0
  151.2756  143.8688  161.9565 H   0  0  0  0  0  0  0  0  0  0  0  0
  151.7595  144.9979  159.7520 H   0  0  0  0  0  0  0  0  0  0  0  0
  153.3992  144.4005  159.8000 H   0  0  0  0  0  0  0  0  0  0  0  0
  150.3136  143.8317  158.3245 H   0  0  0  0  0  0  0  0  0  0  0  0
  149.5953  141.7481  157.2009 H   0  0  0  0  0  0  0  0  0  0  0  0
  151.5963  137.8741  156.3871 H   0  0  0  0  0  0  0  0  0  0  0  0
  152.4492  138.5290  157.7842 H   0  0  0  0  0  0  0  0  0  0  0  0
  150.8280  136.2056  157.7647 H   0  0  0  0  0  0  0  0  0  0  0  0
  151.8724  137.8564  159.7873 H   0  0  0  0  0  0  0  0  0  0  0  0
  149.4874  138.2111  159.6301 H   0  0  0  0  0  0  0  0  0  0  0  0
  148.8601  137.9698  158.0277 H   0  0  0  0  0  0  0  0  0  0  0  0
  148.0648  134.3993  156.6340 H   0  0  0  0  0  0  0  0  0  0  0  0
  148.8266  135.9852  156.6465 H   0  0  0  0  0  0  0  0  0  0  0  0
  149.9570  133.5670  156.5983 H   0  0  0  0  0  0  0  0  0  0  0  0
  146.4027  133.4063  161.6360 H   0  0  0  0  0  0  0  0  0  0  0  0
  146.3514  134.7779  163.7060 H   0  0  0  0  0  0  0  0  0  0  0  0
  147.4489  137.0089  163.7632 H   0  0  0  0  0  0  0  0  0  0  0  0
  148.6098  137.8798  161.7399 H   0  0  0  0  0  0  0  0  0  0  0  0
  152.7422  139.5893  159.2411 H   0  0  0  0  0  0  0  0  0  0  0  0
  153.4421  141.6573  160.3462 H   0  0  0  0  0  0  0  0  0  0  0  0
  1  2  1  0  0  0  0
  1 25  1  0  0  0  0
  1 26  1  0  0  0  0
  1 27  1  0  0  0  0
  2  3  1  0  0  0  0
  2 28  1  0  0  0  0
  2 29  1  0  0  0  0
  3 24  1  0  0  0  0
  3  4  2  0  0  0  0
  4  5  1  0  0  0  0
  4 30  1  0  0  0  0
  5  6  2  0  0  0  0
  5 31  1  0  0  0  0
  6  7  1  0  0  0  0
  6 23  1  0  0  0  0
  7  8  1  0  0  0  0
  8  9  1  0  0  0  0
  8 32  1  0  0  0  0
  8 33  1  0  0  0  0
  9 10  1  0  0  0  0
  9 11  1  0  0  0  0
  9 34  1  0  0  0  0
 10 35  1  0  0  0  0
 11 12  1  0  0  0  0
 11 36  1  0  0  0  0
 11 37  1  0  0  0  0
 12 22  1  0  0  0  0
 12 13  1  0  0  0  0
 13 14  1  0  0  0  0
 13 16  2  0  0  0  0
 14 15  1  0  0  0  0
 14 38  1  0  0  0  0
 14 39  1  0  0  0  0
 15 40  1  0  0  0  0
 16 17  1  0  0  0  0
 17 22  2  0  0  0  0
 17 18  1  0  0  0  0
 18 19  2  0  0  0  0
 18 41  1  0  0  0  0
 19 20  1  0  0  0  0
 19 42  1  0  0  0  0
 20 21  2  0  0  0  0
 20 43  1  0  0  0  0
 21 22  1  0  0  0  0
 21 44  1  0  0  0  0
 23 24  2  0  0  0  0
 23 45  1  0  0  0  0
 24 46  1  0  0  0  0
M  END
> <s_m_source_file>
AV-unprocessed.smi

> <i_m_source_file_index>
484

> <i_lp_mmshare_version>
43012

> <i_f3d_flags>
0

> <s_epik_input>
W0NIM11bQ0gyXWMxW2NIXVtjSF1jKFtjSF1bY0hdMSlPW0NIMl1bQ0BIXShbT0hdKVtDSDJdbihjKG4yKVtDSDJdW09IXSljKGMyMylbY0hdW2NIXVtjSF1bY0hdMw==

> <s_epik_cmdline>
J2VwaWtfcHl0aG9uJywgJy1waCcsICc3LjAnLCAnLXRuJywgJzgnLCAnLW1hJywgJzIwMCcsICctbWV0YWxfYmluZGluZycsICctaW1hZScsICc8aW5maWxlLm1hZT4nLCAnLW9tYWUnLCAnPG91dGZpbGUubWFlPic=

> <r_lp_tautomer_probability>
1

> <r_epik_Ionization_Penalty>
0.0555463

> <r_epik_Ionization_Penalty_Charging>
0

> <r_epik_Ionization_Penalty_Neutral>
0.0555463

> <r_epik_State_Penalty>
0.0477854

> <r_epik_Charging_Adjusted_Penalty>
0.0477854

> <i_epik_Tot_Q>
0

> <i_epik_Tot_abs_Q>
0

> <r_epik_Metal_State_Penalty>
4.97632e-05

> <b_epik_Metal_Only>
0

> <s_lp_Force_Field>
OPLS_2005

> <r_lp_Energy>
17.3214

> <b_lp_Chiralities_Consistent>
1

> <s_lp_Variant>
AV-unprocessed.smi:484-2

> <Gold.Version>
5.8.1

> <Gold.Id.Protein>
6NUR|6NUR_protein|mol2

> <Gold.PLP.Fitness>
46.2531

> <Gold.PLP.PLP>
-45.7339

> <Gold.PLP.part.hbond>
-1.9671

> <Gold.PLP.part.metal>
0.0000

> <Gold.PLP.part.buried>
-1.9524

> <Gold.PLP.part.nonpolar>
-41.3151

> <Gold.PLP.part.repulsive>
0.0000

> <Gold.PLP.ligand.clash>
0.0000

> <Gold.PLP.ligand.torsion>
1.7850

> <Gold.PLP.Chemscore.Hbond>
1.3130

> <Gold.PLP.Chemscore.CHOScore>
0.0000

> <Gold.PLP.Chemscore.Metal>
0.0000

> <Gold.Chemscore.Hbonds>
donor molecule, donor type, donor heavy atom, donor atom, acceptor molecule, acceptor atom, score
      P1  H  6896  6907       L1    10  1.00

> <Gold.PLP.Chemscore.Internal.Correction>
0.1500

> <Gold.Rescore>
     Score         DG    S(hbond)    S(metal)    S(lipo)     H(rot)  DE(clash)    DE(int)     intcor
     12.84     -16.11       0.84        0.00     134.19       3.08       1.59       1.68       ----

> <Gold.Chemscore.Fitness>
12.8373

> <Gold.Chemscore.DG>
-16.1125

> <Gold.Chemscore.ZeroCoef>
-5.4800

> <Gold.Chemscore.Hbond>
0.8422

> <Gold.Chemscore.Metal>
0.0000

> <Gold.Chemscore.Lipo>
134.1889

> <Gold.Chemscore.Internal_Hbond>
0.0000

> <Gold.Chemscore.DEClash>
1.5918

> <Gold.Chemscore.DEInternal>
1.6835

> <Gold.Chemscore.Rot>
3.0783

> <Gold.Chemscore.Internal.Correction>
   9.000000E+99

> <Gold.Chemscore.Hbonds>
donor molecule, donor type, donor heavy atom, donor atom, acceptor molecule, acceptor atom, score
      P1  H  6896  6907       L1    10  0.73
      P1  H  6896  6909       L1    15  0.01

> <Gold.Chemscore.Hbond.Weighted>
-2.8130

> <Gold.Chemscore.Metal.Weighted>
-0.0000

> <Gold.Chemscore.Lipo.Weighted>
-15.7001

> <Gold.Chemscore.Internal_Hbond.Weighted>
0.0000

> <Gold.Chemscore.DEClash.Weighted>
1.5918

> <Gold.Chemscore.DEInternal.Weighted>
1.6835

> <Gold.Chemscore.Rot.Weighted>
7.8805

> <Gold.Chemscore.Internal.Correction.Weighted>
   9.000000E+99

> <Gold.Protein.RotatedTorsions>
[ 6907 6896 6895 6894 ] final    7.76 input  -60.11 | X-H torsion
[ 7974 7965 7964 7962 ] final   59.59 input  175.53 | X-H torsion
[ 8008 7997 7996 7995 ] final  110.00 input   59.86 | X-H torsion
[ 10167 10162 10161 10158 ] final    5.89 input  -65.29 | X-H torsion
[ 10718 10713 10712 10709 ] final -118.31 input   66.30 | X-H torsion
[ 10763 10752 10751 10750 ] final  114.92 input  -60.55 | X-H torsion
[ 11005 11000 10999 10996 ] final   76.28 input  -57.11 | X-H torsion

> <Gold.Protein.ActiveResidues>
 VAL166  LYS551  ARG553  GLY616  TRP617  ASP618  TYR619  PRO620  LYS621  CYS622 
 ASP623  PHE694  ASN695  SER759  ASP760  ASP761  ALA762  ILE779  LEU786  VAL792 
 PHE793  MET794  SER795  GLU796  ALA797  LYS798  CYS799  TRP800  GLU811  SER814 

> <Gold.Protein.RotatedAtoms>
  151.6950  135.0940  160.0240 H   0  0  0  0  0  0  0  0  0  0  0  0  # atno 6907 bound_to 6896
  152.3755  133.6471  159.6129 H   0  0  0  0  0  0  0  0  0  0  0  0  # atno 6908 bound_to 6896
  150.7706  133.9117  159.3412 H   0  0  0  0  0  0  0  0  0  0  0  0  # atno 6909 bound_to 6896
  145.9054  139.3613  143.0567 H   0  0  0  0  0  0  0  0  0  0  0  0  # atno 7974 bound_to 7965
  156.2021  140.3047  155.9548 H   0  0  0  0  0  0  0  0  0  0  0  0  # atno 8008 bound_to 7997
  155.2929  140.0443  157.3041 H   0  0  0  0  0  0  0  0  0  0  0  0  # atno 8009 bound_to 7997
  154.5584  140.2313  155.8382 H   0  0  0  0  0  0  0  0  0  0  0  0  # atno 8010 bound_to 7997
  140.6458  143.7666  150.7496 H   0  0  0  0  0  0  0  0  0  0  0  0  # atno 10167 bound_to 10162
  156.1097  130.6239  150.9275 H   0  0  0  0  0  0  0  0  0  0  0  0  # atno 10718 bound_to 10713
  153.5144  135.3611  155.2602 H   0  0  0  0  0  0  0  0  0  0  0  0  # atno 10763 bound_to 10752
  154.8739  135.4030  154.3331 H   0  0  0  0  0  0  0  0  0  0  0  0  # atno 10764 bound_to 10752
  153.3990  135.7074  153.6506 H   0  0  0  0  0  0  0  0  0  0  0  0  # atno 10765 bound_to 10752
  139.9305  134.7588  156.1376 H   0  0  0  0  0  0  0  0  0  0  0  0  # atno 11005 bound_to 11000
  145.8738  140.9404  143.0637 LP  0  0  0  0  0  0  0  0  0  0  0  0  # atno 17320 bound_to 7965
  144.6739  140.0690  143.7473 LP  0  0  0  0  0  0  0  0  0  0  0  0  # atno 17321 bound_to 7965
  140.1307  143.4529  152.2256 LP  0  0  0  0  0  0  0  0  0  0  0  0  # atno 17342 bound_to 10162
  139.5668  144.7440  151.4000 LP  0  0  0  0  0  0  0  0  0  0  0  0  # atno 17343 bound_to 10162
  157.6277  131.0924  150.8502 LP  0  0  0  0  0  0  0  0  0  0  0  0  # atno 17370 bound_to 10713
  156.8614  130.5114  149.5303 LP  0  0  0  0  0  0  0  0  0  0  0  0  # atno 17371 bound_to 10713
  141.0891  133.6722  156.2500 LP  0  0  0  0  0  0  0  0  0  0  0  0  # atno 17394 bound_to 11000
  140.6215  134.5356  157.5548 LP  0  0  0  0  0  0  0  0  0  0  0  0  # atno 17395 bound_to 11000

$$$$
