AV-unprocessed.smi:2253|AV-procd|sdf|9120|dock1
  -GOLD-   2272012323D 1   1.00000     0.00000
 Structure written by MMmdl.
 51 53  0  0  0  0  0  0  0  0  2 V2000
  145.8658  134.2534  155.8933 C   0  0  0  0  0  0  0  0  0  0  0  0
  145.3885  135.2529  154.9137 N   0  3  2  0  0  0  0  0  0  0  0  0
  146.4618  135.6916  153.9878 C   0  0  0  0  0  0  0  0  0  0  0  0
  145.9204  136.6752  152.9345 C   0  0  0  0  0  0  0  0  0  0  0  0
  145.2673  137.9202  153.5883 C   0  0  2  0  0  0  0  0  0  0  0  0
  146.2304  138.8089  154.2792 N   0  0  0  0  0  0  0  0  0  0  0  0
  145.5385  139.8475  155.0614 C   0  0  0  0  0  0  0  0  0  0  0  0
  146.5269  140.7180  155.8560 C   0  0  0  0  0  0  0  0  0  0  0  0
  147.5239  141.4116  154.9209 C   0  0  0  0  0  0  0  0  0  0  0  0
  148.5348  142.1431  155.6790 N   0  0  0  0  0  0  0  0  0  0  0  0
  149.4322  141.5861  156.5051 C   0  0  0  0  0  0  0  0  0  0  0  0
  149.5009  140.3744  156.7075 O   0  0  0  0  0  0  0  0  0  0  0  0
  150.2187  142.5223  157.0646 N   0  0  0  0  0  0  0  0  0  0  0  0
  151.2729  142.3802  158.0105 C   0  0  0  0  0  0  0  0  0  0  0  0
  151.6231  141.1695  158.6582 C   0  0  0  0  0  0  0  0  0  0  0  0
  152.6953  141.1780  159.5732 C   0  0  0  0  0  0  0  0  0  0  0  0
  153.4153  142.2810  159.8672 N   0  0  0  0  0  0  0  0  0  0  0  0
  153.0837  143.4314  159.2448 C   0  0  0  0  0  0  0  0  0  0  0  0
  152.0299  143.5321  158.3145 C   0  0  0  0  0  0  0  0  0  0  0  0
  151.7513  144.7205  157.7257 F   0  0  0  0  0  0  0  0  0  0  0  0
  148.1876  140.3397  154.0530 C   0  0  0  0  0  0  0  0  0  0  0  0
  147.1354  139.4800  153.3305 C   0  0  0  0  0  0  0  0  0  0  0  0
  144.1495  137.3816  154.5180 C   0  0  0  0  0  0  0  0  0  0  0  0
  144.7008  136.3957  155.5639 C   0  0  0  0  0  0  0  0  0  0  0  0
  146.6268  134.6800  156.5481 H   0  0  0  0  0  0  0  0  0  0  0  0
  146.2971  133.3907  155.3846 H   0  0  0  0  0  0  0  0  0  0  0  0
  145.0422  133.8969  156.5126 H   0  0  0  0  0  0  0  0  0  0  0  0
  147.2716  136.1539  154.5543 H   0  0  0  0  0  0  0  0  0  0  0  0
  146.8840  134.8195  153.4869 H   0  0  0  0  0  0  0  0  0  0  0  0
  146.6878  136.9258  152.2053 H   0  0  0  0  0  0  0  0  0  0  0  0
  145.1607  136.1583  152.3463 H   0  0  0  0  0  0  0  0  0  0  0  0
  144.7983  138.5081  152.7976 H   0  0  0  0  0  0  0  0  0  0  0  0
  144.9308  140.4696  154.4022 H   0  0  0  0  0  0  0  0  0  0  0  0
  144.8672  139.4085  155.7945 H   0  0  0  0  0  0  0  0  0  0  0  0
  145.9753  141.4603  156.4340 H   0  0  0  0  0  0  0  0  0  0  0  0
  147.0585  140.0968  156.5787 H   0  0  0  0  0  0  0  0  0  0  0  0
  146.9875  142.1035  154.2683 H   0  0  0  0  0  0  0  0  0  0  0  0
  148.5463  143.1466  155.5705 H   0  0  0  0  0  0  0  0  0  0  0  0
  150.0162  143.4756  156.8010 H   0  0  0  0  0  0  0  0  0  0  0  0
  151.1075  140.2400  158.4782 H   0  0  0  0  0  0  0  0  0  0  0  0
  152.9837  140.2701  160.0817 H   0  0  0  0  0  0  0  0  0  0  0  0
  153.6760  144.2990  159.4954 H   0  0  0  0  0  0  0  0  0  0  0  0
  148.8439  140.8089  153.3190 H   0  0  0  0  0  0  0  0  0  0  0  0
  148.8203  139.6967  154.6672 H   0  0  0  0  0  0  0  0  0  0  0  0
  147.6933  138.7559  152.7425 H   0  0  0  0  0  0  0  0  0  0  0  0
  146.5605  140.0896  152.6314 H   0  0  0  0  0  0  0  0  0  0  0  0
  143.5703  138.1680  154.9966 H   0  0  0  0  0  0  0  0  0  0  0  0
  143.4174  136.8535  153.9052 H   0  0  0  0  0  0  0  0  0  0  0  0
  143.8801  136.0208  156.1766 H   0  0  0  0  0  0  0  0  0  0  0  0
  145.3900  136.9068  156.2380 H   0  0  0  0  0  0  0  0  0  0  0  0
  144.6943  134.7888  154.3454 H   0  0  0  0  0  0  0  0  0  0  0  0
  1  2  1  0  0  0  0
  1 25  1  0  0  0  0
  1 26  1  0  0  0  0
  1 27  1  0  0  0  0
  2 24  1  0  0  0  0
  2  3  1  0  0  0  0
  2 51  1  0  0  0  0
  3  4  1  0  0  0  0
  3 28  1  0  0  0  0
  3 29  1  0  0  0  0
  4  5  1  0  0  0  0
  4 30  1  0  0  0  0
  4 31  1  0  0  0  0
  5  6  1  0  0  0  0
  5 23  1  0  0  0  0
  5 32  1  0  0  0  0
  6 22  1  0  0  0  0
  6  7  1  0  0  0  0
  7  8  1  0  0  0  0
  7 33  1  0  0  0  0
  7 34  1  0  0  0  0
  8  9  1  0  0  0  0
  8 35  1  0  0  0  0
  8 36  1  0  0  0  0
  9 10  1  0  0  0  0
  9 21  1  0  0  0  0
  9 37  1  0  0  0  0
 10 11  1  0  0  0  0
 10 38  1  0  0  0  0
 11 12  2  0  0  0  0
 11 13  1  0  0  0  0
 13 14  1  0  0  0  0
 13 39  1  0  0  0  0
 14 19  1  0  0  0  0
 14 15  2  0  0  0  0
 15 16  1  0  0  0  0
 15 40  1  0  0  0  0
 16 17  2  0  0  0  0
 16 41  1  0  0  0  0
 17 18  1  0  0  0  0
 18 19  2  0  0  0  0
 18 42  1  0  0  0  0
 19 20  1  0  0  0  0
 21 22  1  0  0  0  0
 21 43  1  0  0  0  0
 21 44  1  0  0  0  0
 22 45  1  0  0  0  0
 22 46  1  0  0  0  0
 23 24  1  0  0  0  0
 23 47  1  0  0  0  0
 23 48  1  0  0  0  0
 24 49  1  0  0  0  0
 24 50  1  0  0  0  0
M  CHG  1   2   1
M  END
> <s_m_source_file>
AV-unprocessed.smi

> <i_m_source_file_index>
2253

> <i_lp_mmshare_version>
43012

> <i_f3d_flags>
0

> <s_epik_input>
W0NIM11OMVtDSDJdW0NIMl1bQ0hdKFtDSDJdW0NIMl0xKU4yW0NIMl1bQ0gyXVtDSF0oW0NIMl1bQ0gyXTIpW05IXUMoPU8pW05IXWMzW2NIXVtjSF1uW2NIXWMzRg==

> <s_epik_cmdline>
J2VwaWtfcHl0aG9uJywgJy1waCcsICc3LjAnLCAnLXRuJywgJzgnLCAnLW1hJywgJzIwMCcsICctbWV0YWxfYmluZGluZycsICctaW1hZScsICc8aW5maWxlLm1hZT4nLCAnLW9tYWUnLCAnPG91dGZpbGUubWFlPic=

> <r_epik_Ionization_Penalty>
1.01315

> <r_epik_Ionization_Penalty_Charging>
0.000974969

> <r_epik_Ionization_Penalty_Neutral>
1.01217

> <r_epik_State_Penalty>
1.10286

> <r_epik_Charging_Adjusted_Penalty>
1.10383

> <i_epik_Tot_Q>
1

> <i_epik_Tot_abs_Q>
1

> <r_epik_Metal_State_Penalty>
1.10232

> <b_epik_Metal_Only>
0

> <s_lp_Force_Field>
OPLS_2005

> <r_lp_Energy>
40.3277

> <b_lp_Chiralities_Consistent>
1

> <s_lp_Variant>
AV-unprocessed.smi:2253-6

> <Gold.Version>
5.8.1

> <Gold.Id.Protein>
6NUR|6NUR_protein|mol2

> <Gold.PLP.Fitness>
36.9436

> <Gold.PLP.PLP>
-31.2922

> <Gold.PLP.part.hbond>
-2.0000

> <Gold.PLP.part.metal>
0.0000

> <Gold.PLP.part.buried>
-3.9456

> <Gold.PLP.part.nonpolar>
-25.7414

> <Gold.PLP.part.repulsive>
0.2553

> <Gold.PLP.ligand.clash>
0.0000

> <Gold.PLP.ligand.torsion>
0.1173

> <Gold.PLP.Chemscore.Hbond>
1.9600

> <Gold.PLP.Chemscore.CHOScore>
0.0000

> <Gold.PLP.Chemscore.Metal>
0.0000

> <Gold.Chemscore.Hbonds>
donor molecule, donor type, donor heavy atom, donor atom, acceptor molecule, acceptor atom, score
      L1  H    10    38       P1  8028  1.00
      L1  H    13    39       P1  8028  0.96

> <Gold.PLP.Chemscore.Internal.Correction>
0.0059

> <Gold.Rescore>
     Score         DG    S(hbond)    S(metal)    S(lipo)     H(rot)  DE(clash)    DE(int)     intcor
     15.83     -18.28       1.94        0.00      81.22       1.24       0.15       2.31       ----

> <Gold.Chemscore.Fitness>
15.8274

> <Gold.Chemscore.DG>
-18.2849

> <Gold.Chemscore.ZeroCoef>
-5.4800

> <Gold.Chemscore.Hbond>
1.9422

> <Gold.Chemscore.Metal>
0.0000

> <Gold.Chemscore.Lipo>
81.2192

> <Gold.Chemscore.Internal_Hbond>
0.0000

> <Gold.Chemscore.DEClash>
0.1453

> <Gold.Chemscore.DEInternal>
2.3122

> <Gold.Chemscore.Rot>
1.2440

> <Gold.Chemscore.Internal.Correction>
   9.000000E+99

> <Gold.Chemscore.Hbonds>
donor molecule, donor type, donor heavy atom, donor atom, acceptor molecule, acceptor atom, score
      L1  H    10    38       P1  8028  0.98
      L1  H    13    39       P1  8028  0.86

> <Gold.Chemscore.Hbond.Weighted>
-6.4869

> <Gold.Chemscore.Metal.Weighted>
-0.0000

> <Gold.Chemscore.Lipo.Weighted>
-9.5026

> <Gold.Chemscore.Internal_Hbond.Weighted>
0.0000

> <Gold.Chemscore.DEClash.Weighted>
0.1453

> <Gold.Chemscore.DEInternal.Weighted>
2.3122

> <Gold.Chemscore.Rot.Weighted>
3.1847

> <Gold.Chemscore.Internal.Correction.Weighted>
   9.000000E+99

> <Gold.Protein.RotatedTorsions>
[ 6907 6896 6895 6894 ] final  -44.59 input  -60.11 | X-H torsion
[ 7974 7965 7964 7962 ] final  151.52 input  175.53 | X-H torsion
[ 8008 7997 7996 7995 ] final  -39.54 input   59.86 | X-H torsion
[ 10167 10162 10161 10158 ] final -175.00 input  -65.29 | X-H torsion
[ 10718 10713 10712 10709 ] final  178.24 input   66.30 | X-H torsion
[ 10763 10752 10751 10750 ] final  -79.38 input  -60.55 | X-H torsion
[ 11005 11000 10999 10996 ] final  -50.46 input  -57.11 | X-H torsion

> <Gold.Protein.ActiveResidues>
 VAL166  LYS551  ARG553  GLY616  TRP617  ASP618  TYR619  PRO620  LYS621  CYS622 
 ASP623  PHE694  ASN695  SER759  ASP760  ASP761  ALA762  ILE779  LEU786  VAL792 
 PHE793  MET794  SER795  GLU796  ALA797  LYS798  CYS799  TRP800  GLU811  SER814 

> <Gold.Protein.RotatedAtoms>
  150.9312  134.8727  159.7552 H   0  0  0  0  0  0  0  0  0  0  0  0  # atno 6907 bound_to 6896
  152.5039  134.4076  159.9448 H   0  0  0  0  0  0  0  0  0  0  0  0  # atno 6908 bound_to 6896
  151.4103  133.3689  159.2778 H   0  0  0  0  0  0  0  0  0  0  0  0  # atno 6909 bound_to 6896
  144.8286  139.6549  143.6068 H   0  0  0  0  0  0  0  0  0  0  0  0  # atno 7974 bound_to 7965
  154.4022  140.1549  156.2881 H   0  0  0  0  0  0  0  0  0  0  0  0  # atno 8008 bound_to 7997
  155.8810  140.3444  155.5866 H   0  0  0  0  0  0  0  0  0  0  0  0  # atno 8009 bound_to 7997
  155.7667  140.0825  157.2119 H   0  0  0  0  0  0  0  0  0  0  0  0  # atno 8010 bound_to 7997
  139.5604  144.1884  152.1229 H   0  0  0  0  0  0  0  0  0  0  0  0  # atno 10167 bound_to 10162
  156.8935  130.9855  151.3046 H   0  0  0  0  0  0  0  0  0  0  0  0  # atno 10718 bound_to 10713
  154.5379  135.5697  153.6814 H   0  0  0  0  0  0  0  0  0  0  0  0  # atno 10763 bound_to 10752
  152.9956  135.6220  154.2541 H   0  0  0  0  0  0  0  0  0  0  0  0  # atno 10764 bound_to 10752
  154.2471  135.2860  155.2811 H   0  0  0  0  0  0  0  0  0  0  0  0  # atno 10765 bound_to 10752
  141.0817  133.6652  156.3734 H   0  0  0  0  0  0  0  0  0  0  0  0  # atno 11005 bound_to 11000
  146.2591  139.6368  142.9375 LP  0  0  0  0  0  0  0  0  0  0  0  0  # atno 17320 bound_to 7965
  145.4944  141.0438  143.2575 LP  0  0  0  0  0  0  0  0  0  0  0  0  # atno 17321 bound_to 7965
  140.1397  144.5214  150.6752 LP  0  0  0  0  0  0  0  0  0  0  0  0  # atno 17342 bound_to 10162
  140.6883  143.2362  151.5201 LP  0  0  0  0  0  0  0  0  0  0  0  0  # atno 17343 bound_to 10162
  157.6069  130.8554  149.8890 LP  0  0  0  0  0  0  0  0  0  0  0  0  # atno 17370 bound_to 10713
  156.0617  130.3699  150.0967 LP  0  0  0  0  0  0  0  0  0  0  0  0  # atno 17371 bound_to 10713
  140.5454  134.6080  157.5392 LP  0  0  0  0  0  0  0  0  0  0  0  0  # atno 17394 bound_to 11000
  139.9631  134.7418  156.0194 LP  0  0  0  0  0  0  0  0  0  0  0  0  # atno 17395 bound_to 11000

$$$$
