AV-unprocessed.smi:2352|AV-procd|sdf|9379|dock4
  -GOLD-   2272013 03D 1   1.00000     0.00000
 Structure written by MMmdl.
 37 38  0  0  0  0  0  0  0  0  1 V2000
  156.1429  134.3287  164.4618 C   0  0  0  0  0  0  0  0  0  0  0  0
  155.5054  135.3325  163.5171 C   0  0  0  0  0  0  0  0  0  0  0  0
  155.3583  136.6277  164.0222 N   0  0  0  0  0  0  0  0  0  0  0  0
  154.8278  137.5498  163.2876 C   0  0  0  0  0  0  0  0  0  0  0  0
  154.3900  137.2898  161.9786 N   0  0  0  0  0  0  0  0  0  0  0  0
  153.8060  138.4273  161.2477 C   0  0  0  0  0  0  0  0  0  0  0  0
  154.5870  139.7394  161.4825 C   0  0  1  0  0  0  0  0  0  0  0  0
  155.8159  139.6655  160.7865 O   0  0  0  0  0  0  0  0  0  0  0  0
  153.7716  140.9456  161.0406 C   0  0  0  0  0  0  0  0  0  0  0  0
  153.5618  142.0173  161.9336 C   0  0  0  0  0  0  0  0  0  0  0  0
  152.8035  143.1355  161.5365 C   0  0  0  0  0  0  0  0  0  0  0  0
  152.2462  143.1977  160.2412 C   0  0  0  0  0  0  0  0  0  0  0  0
  151.4216  144.4053  159.8200 C   0  0  0  0  0  0  0  0  0  0  0  0
  151.6452  145.4454  160.6243 F   0  0  0  0  0  0  0  0  0  0  0  0
  151.7506  144.7478  158.5751 F   0  0  0  0  0  0  0  0  0  0  0  0
  150.1192  144.1221  159.8580 F   0  0  0  0  0  0  0  0  0  0  0  0
  152.4455  142.1188  159.3526 C   0  0  0  0  0  0  0  0  0  0  0  0
  153.2036  141.0002  159.7493 C   0  0  0  0  0  0  0  0  0  0  0  0
  154.4869  136.0521  161.4123 C   0  0  0  0  0  0  0  0  0  0  0  0
  154.0852  135.8313  160.2680 O   0  0  0  0  0  0  0  0  0  0  0  0
  155.0963  135.0135  162.2587 C   0  0  0  0  0  0  0  0  0  0  0  0
  155.2309  133.6209  161.6554 C   0  0  0  0  0  0  0  0  0  0  0  0
  157.0608  133.9279  164.0311 H   0  0  0  0  0  0  0  0  0  0  0  0
  155.4595  133.5024  164.6594 H   0  0  0  0  0  0  0  0  0  0  0  0
  156.3956  134.7878  165.4183 H   0  0  0  0  0  0  0  0  0  0  0  0
  154.6857  138.5743  163.6359 H   0  0  0  0  0  0  0  0  0  0  0  0
  153.7033  138.2280  160.1788 H   0  0  0  0  0  0  0  0  0  0  0  0
  152.7788  138.5554  161.5955 H   0  0  0  0  0  0  0  0  0  0  0  0
  154.8178  139.8567  162.5420 H   0  0  0  0  0  0  0  0  0  0  0  0
  156.5174  139.8154  161.4017 H   0  0  0  0  0  0  0  0  0  0  0  0
  153.9794  141.9850  162.9295 H   0  0  0  0  0  0  0  0  0  0  0  0
  152.6488  143.9462  162.2333 H   0  0  0  0  0  0  0  0  0  0  0  0
  152.0157  142.1415  158.3620 H   0  0  0  0  0  0  0  0  0  0  0  0
  153.3443  140.1821  159.0578 H   0  0  0  0  0  0  0  0  0  0  0  0
  154.2477  133.2272  161.3954 H   0  0  0  0  0  0  0  0  0  0  0  0
  155.7036  132.9058  162.3267 H   0  0  0  0  0  0  0  0  0  0  0  0
  155.8307  133.6618  160.7454 H   0  0  0  0  0  0  0  0  0  0  0  0
  1  2  1  0  0  0  0
  1 23  1  0  0  0  0
  1 24  1  0  0  0  0
  1 25  1  0  0  0  0
  2 21  2  0  0  0  0
  2  3  1  0  0  0  0
  3  4  2  0  0  0  0
  4  5  1  0  0  0  0
  4 26  1  0  0  0  0
  5  6  1  0  0  0  0
  5 19  1  0  0  0  0
  6  7  1  0  0  0  0
  6 27  1  0  0  0  0
  6 28  1  0  0  0  0
  7  8  1  0  0  0  0
  7  9  1  0  0  0  0
  7 29  1  0  0  0  0
  8 30  1  0  0  0  0
  9 18  1  0  0  0  0
  9 10  2  0  0  0  0
 10 11  1  0  0  0  0
 10 31  1  0  0  0  0
 11 12  2  0  0  0  0
 11 32  1  0  0  0  0
 12 13  1  0  0  0  0
 12 17  1  0  0  0  0
 13 14  1  0  0  0  0
 13 15  1  0  0  0  0
 13 16  1  0  0  0  0
 17 18  2  0  0  0  0
 17 33  1  0  0  0  0
 18 34  1  0  0  0  0
 19 20  2  0  0  0  0
 19 21  1  0  0  0  0
 21 22  1  0  0  0  0
 22 35  1  0  0  0  0
 22 36  1  0  0  0  0
 22 37  1  0  0  0  0
M  END
> <s_m_source_file>
AV-unprocessed.smi

> <i_m_source_file_index>
2352

> <i_lp_mmshare_version>
43012

> <i_f3d_flags>
0

> <s_epik_input>
W0NIM11jMW5bY0hdbihjKD1PKWMxW0NIM10pW0NIMl1bQ0BIXShbT0hdKWMyW2NIXVtjSF1jKEMoRikoRilGKVtjSF1bY0hdMg==

> <s_epik_cmdline>
J2VwaWtfcHl0aG9uJywgJy1waCcsICc3LjAnLCAnLXRuJywgJzgnLCAnLW1hJywgJzIwMCcsICctbWV0YWxfYmluZGluZycsICctaW1hZScsICc8aW5maWxlLm1hZT4nLCAnLW9tYWUnLCAnPG91dGZpbGUubWFlPic=

> <r_lp_tautomer_probability>
1

> <r_epik_Ionization_Penalty>
5.07001e-05

> <r_epik_Ionization_Penalty_Charging>
7.56727e-08

> <r_epik_Ionization_Penalty_Neutral>
5.06244e-05

> <r_epik_State_Penalty>
-0

> <r_epik_Charging_Adjusted_Penalty>
7.56727e-08

> <i_epik_Tot_Q>
0

> <i_epik_Tot_abs_Q>
0

> <r_epik_Metal_State_Penalty>
-0

> <b_epik_Metal_Only>
0

> <s_lp_Force_Field>
OPLS_2005

> <r_lp_Energy>
21.4472

> <b_lp_Chiralities_Consistent>
1

> <s_lp_Variant>
AV-unprocessed.smi:2352-2

> <Gold.Version>
5.8.1

> <Gold.Id.Protein>
6NUR|6NUR_protein|mol2

> <Gold.PLP.Fitness>
56.2169

> <Gold.PLP.PLP>
-54.9177

> <Gold.PLP.part.hbond>
-0.9589

> <Gold.PLP.part.metal>
0.0000

> <Gold.PLP.part.buried>
-6.6813

> <Gold.PLP.part.nonpolar>
-48.6699

> <Gold.PLP.part.repulsive>
0.0726

> <Gold.PLP.ligand.clash>
0.3516

> <Gold.PLP.ligand.torsion>
1.1834

> <Gold.PLP.Chemscore.Hbond>
0.9913

> <Gold.PLP.Chemscore.CHOScore>
0.0000

> <Gold.PLP.Chemscore.Metal>
0.0000

> <Gold.Chemscore.Hbonds>
donor molecule, donor type, donor heavy atom, donor atom, acceptor molecule, acceptor atom, score
      P1  H  6896  6908       L1    20  1.00

> <Gold.PLP.Chemscore.Internal.Correction>
1.0440

> <Gold.Rescore>
     Score         DG    S(hbond)    S(metal)    S(lipo)     H(rot)  DE(clash)    DE(int)     intcor
     15.30     -16.72       0.99        0.00     114.41       2.13       0.05       1.37       ----

> <Gold.Chemscore.Fitness>
15.2994

> <Gold.Chemscore.DG>
-16.7186

> <Gold.Chemscore.ZeroCoef>
-5.4800

> <Gold.Chemscore.Hbond>
0.9933

> <Gold.Chemscore.Metal>
0.0000

> <Gold.Chemscore.Lipo>
114.4101

> <Gold.Chemscore.Internal_Hbond>
0.0000

> <Gold.Chemscore.DEClash>
0.0510

> <Gold.Chemscore.DEInternal>
1.3682

> <Gold.Chemscore.Rot>
2.1347

> <Gold.Chemscore.Internal.Correction>
   9.000000E+99

> <Gold.Chemscore.Hbonds>
donor molecule, donor type, donor heavy atom, donor atom, acceptor molecule, acceptor atom, score
      P1  H  6896  6908       L1    20  0.91

> <Gold.Chemscore.Hbond.Weighted>
-3.3175

> <Gold.Chemscore.Metal.Weighted>
-0.0000

> <Gold.Chemscore.Lipo.Weighted>
-13.3860

> <Gold.Chemscore.Internal_Hbond.Weighted>
0.0000

> <Gold.Chemscore.DEClash.Weighted>
0.0510

> <Gold.Chemscore.DEInternal.Weighted>
1.3682

> <Gold.Chemscore.Rot.Weighted>
5.4649

> <Gold.Chemscore.Internal.Correction.Weighted>
   9.000000E+99

> <Gold.Protein.RotatedTorsions>
[ 6907 6896 6895 6894 ] final  -55.66 input  -60.11 | X-H torsion
[ 7974 7965 7964 7962 ] final  104.95 input  175.53 | X-H torsion
[ 8008 7997 7996 7995 ] final   55.65 input   59.86 | X-H torsion
[ 10167 10162 10161 10158 ] final  134.67 input  -65.29 | X-H torsion
[ 10718 10713 10712 10709 ] final   67.33 input   66.30 | X-H torsion
[ 10763 10752 10751 10750 ] final  154.29 input  -60.55 | X-H torsion
[ 11005 11000 10999 10996 ] final   58.56 input  -57.11 | X-H torsion

> <Gold.Protein.ActiveResidues>
 VAL166  LYS551  ARG553  GLY616  TRP617  ASP618  TYR619  PRO620  LYS621  CYS622 
 ASP623  PHE694  ASN695  SER759  ASP760  ASP761  ALA762  ILE779  LEU786  VAL792 
 PHE793  MET794  SER795  GLU796  ALA797  LYS798  CYS799  TRP800  GLU811  SER814 

> <Gold.Protein.RotatedAtoms>
  150.8233  134.7451  159.6790 H   0  0  0  0  0  0  0  0  0  0  0  0  # atno 6907 bound_to 6896
  152.4346  134.5707  159.9930 H   0  0  0  0  0  0  0  0  0  0  0  0  # atno 6908 bound_to 6896
  151.5886  133.3331  159.3059 H   0  0  0  0  0  0  0  0  0  0  0  0  # atno 6909 bound_to 6896
  145.3261  139.2499  143.3686 H   0  0  0  0  0  0  0  0  0  0  0  0  # atno 7974 bound_to 7965
  155.5046  140.3475  155.4377 H   0  0  0  0  0  0  0  0  0  0  0  0  # atno 8008 bound_to 7997
  156.0890  140.1406  156.9643 H   0  0  0  0  0  0  0  0  0  0  0  0  # atno 8009 bound_to 7997
  154.4624  140.0930  156.6905 H   0  0  0  0  0  0  0  0  0  0  0  0  # atno 8010 bound_to 7997
  139.5247  144.6555  151.5173 H   0  0  0  0  0  0  0  0  0  0  0  0  # atno 10167 bound_to 10162
  157.6224  130.9315  150.0228 H   0  0  0  0  0  0  0  0  0  0  0  0  # atno 10718 bound_to 10713
  154.1500  135.2815  155.3138 H   0  0  0  0  0  0  0  0  0  0  0  0  # atno 10763 bound_to 10752
  154.6224  135.5463  153.7593 H   0  0  0  0  0  0  0  0  0  0  0  0  # atno 10764 bound_to 10752
  153.0224  135.6442  154.1644 H   0  0  0  0  0  0  0  0  0  0  0  0  # atno 10765 bound_to 10752
  140.0368  134.5931  155.9433 H   0  0  0  0  0  0  0  0  0  0  0  0  # atno 11005 bound_to 11000
  146.3064  140.3828  142.8686 LP  0  0  0  0  0  0  0  0  0  0  0  0  # atno 17320 bound_to 7965
  144.8901  140.7513  143.5932 LP  0  0  0  0  0  0  0  0  0  0  0  0  # atno 17321 bound_to 7965
  140.6379  143.8947  150.6665 LP  0  0  0  0  0  0  0  0  0  0  0  0  # atno 17342 bound_to 10162
  140.2272  143.3763  152.1595 LP  0  0  0  0  0  0  0  0  0  0  0  0  # atno 17343 bound_to 10162
  156.1376  130.3642  149.9632 LP  0  0  0  0  0  0  0  0  0  0  0  0  # atno 17370 bound_to 10713
  156.7680  130.9175  151.3643 LP  0  0  0  0  0  0  0  0  0  0  0  0  # atno 17371 bound_to 10713
  141.1862  133.6556  156.5228 LP  0  0  0  0  0  0  0  0  0  0  0  0  # atno 17394 bound_to 11000
  140.4134  134.7252  157.4849 LP  0  0  0  0  0  0  0  0  0  0  0  0  # atno 17395 bound_to 11000

$$$$
