AV-unprocessed.smi:3198|AV-procd|sdf|12228|dock10
  -GOLD-   2272018 63D 1   1.00000     0.00000
 Structure written by MMmdl.
 38 39  0  0  0  0  0  0  0  0  2 V2000
  153.1227  140.9285  160.4435 C   0  0  0  0  0  0  0  0  0  0  0  0
  152.5213  142.2177  159.9259 C   0  0  0  0  0  0  0  0  0  0  0  0
  152.5211  143.4068  160.6837 C   0  0  0  0  0  0  0  0  0  0  0  0
  151.9416  144.5674  160.1344 C   0  0  0  0  0  0  0  0  0  0  0  0
  151.3796  144.5160  158.8427 C   0  0  0  0  0  0  0  0  0  0  0  0
  151.4150  143.3011  158.1156 C   0  0  0  0  0  0  0  0  0  0  0  0
  150.9113  143.1359  156.8168 N   0  0  0  0  0  0  0  0  0  0  0  0
  150.9963  141.8401  156.1529 C   0  0  0  0  0  0  0  0  0  0  0  0
  149.6210  141.3167  155.7098 C   0  0  0  0  0  0  0  0  0  0  0  0
  149.0832  142.2011  154.7438 O   0  0  0  0  0  0  0  0  0  0  0  0
  148.2087  141.5783  153.8200 C   0  0  0  0  0  0  0  0  0  0  0  0
  146.7778  142.0722  154.0755 C   0  0  1  0  0  0  0  0  0  0  0  0
  146.1467  141.6175  155.3947 C   0  0  0  0  0  0  0  0  0  0  0  0
  145.2112  142.7617  155.7641 C   0  0  0  0  0  0  0  0  0  0  0  0
  145.4735  143.8305  154.7003 C   0  0  0  0  0  0  0  0  0  0  0  0
  146.7368  143.4884  154.1519 O   0  0  0  0  0  0  0  0  0  0  0  0
  151.9743  142.2123  158.6898 N   0  3  0  0  0  0  0  0  0  0  0  0
  153.3912  141.0160  161.4968 H   0  0  0  0  0  0  0  0  0  0  0  0
  154.0223  140.6779  159.8808 H   0  0  0  0  0  0  0  0  0  0  0  0
  152.4119  140.1078  160.3418 H   0  0  0  0  0  0  0  0  0  0  0  0
  152.9577  143.4322  161.6717 H   0  0  0  0  0  0  0  0  0  0  0  0
  151.9307  145.4895  160.6967 H   0  0  0  0  0  0  0  0  0  0  0  0
  150.9401  145.4100  158.4275 H   0  0  0  0  0  0  0  0  0  0  0  0
  150.1556  143.7419  156.5314 H   0  0  0  0  0  0  0  0  0  0  0  0
  151.6183  141.9799  155.2685 H   0  0  0  0  0  0  0  0  0  0  0  0
  151.5174  141.1091  156.7703 H   0  0  0  0  0  0  0  0  0  0  0  0
  149.7109  140.3051  155.3105 H   0  0  0  0  0  0  0  0  0  0  0  0
  148.9465  141.2726  156.5657 H   0  0  0  0  0  0  0  0  0  0  0  0
  148.5009  141.8204  152.7971 H   0  0  0  0  0  0  0  0  0  0  0  0
  148.2628  140.4943  153.9306 H   0  0  0  0  0  0  0  0  0  0  0  0
  146.1381  141.7639  153.2462 H   0  0  0  0  0  0  0  0  0  0  0  0
  145.6256  140.6655  155.2898 H   0  0  0  0  0  0  0  0  0  0  0  0
  146.8986  141.4992  156.1756 H   0  0  0  0  0  0  0  0  0  0  0  0
  144.1648  142.4552  155.7677 H   0  0  0  0  0  0  0  0  0  0  0  0
  145.4521  143.1378  156.7589 H   0  0  0  0  0  0  0  0  0  0  0  0
  144.7173  143.7836  153.9149 H   0  0  0  0  0  0  0  0  0  0  0  0
  145.4763  144.8405  155.1104 H   0  0  0  0  0  0  0  0  0  0  0  0
  151.9932  141.3404  158.1604 H   0  0  0  0  0  0  0  0  0  0  0  0
  1  2  1  0  0  0  0
  1 18  1  0  0  0  0
  1 19  1  0  0  0  0
  1 20  1  0  0  0  0
  2 17  1  0  0  0  0
  2  3  2  0  0  0  0
  3  4  1  0  0  0  0
  3 21  1  0  0  0  0
  4  5  2  0  0  0  0
  4 22  1  0  0  0  0
  5  6  1  0  0  0  0
  5 23  1  0  0  0  0
  6  7  1  0  0  0  0
  6 17  2  0  0  0  0
  7  8  1  0  0  0  0
  7 24  1  0  0  0  0
  8  9  1  0  0  0  0
  8 25  1  0  0  0  0
  8 26  1  0  0  0  0
  9 10  1  0  0  0  0
  9 27  1  0  0  0  0
  9 28  1  0  0  0  0
 10 11  1  0  0  0  0
 11 12  1  0  0  0  0
 11 29  1  0  0  0  0
 11 30  1  0  0  0  0
 12 16  1  0  0  0  0
 12 13  1  0  0  0  0
 12 31  1  0  0  0  0
 13 14  1  0  0  0  0
 13 32  1  0  0  0  0
 13 33  1  0  0  0  0
 14 15  1  0  0  0  0
 14 34  1  0  0  0  0
 14 35  1  0  0  0  0
 15 16  1  0  0  0  0
 15 36  1  0  0  0  0
 15 37  1  0  0  0  0
 17 38  1  0  0  0  0
M  CHG  1  17   1
M  END
> <s_m_source_file>
AV-unprocessed.smi

> <i_m_source_file_index>
3198

> <i_lp_mmshare_version>
43012

> <i_f3d_flags>
0

> <s_epik_input>
W0NIM11jMVtjSF1bY0hdW2NIXWMobjEpW05IXVtDSDJdW0NIMl1PW0NIMl1bQ0BASF0yW0NIMl1bQ0gyXVtDSDJdTzI=

> <s_epik_cmdline>
J2VwaWtfcHl0aG9uJywgJy1waCcsICc3LjAnLCAnLXRuJywgJzgnLCAnLW1hJywgJzIwMCcsICctbWV0YWxfYmluZGluZycsICctaW1hZScsICc8aW5maWxlLm1hZT4nLCAnLW9tYWUnLCAnPG91dGZpbGUubWFlPic=

> <r_lp_tautomer_probability>
0.999994

> <r_epik_Ionization_Penalty>
0.0710016

> <r_epik_Ionization_Penalty_Charging>
0.0710012

> <r_epik_Ionization_Penalty_Neutral>
3.47026e-07

> <r_epik_State_Penalty>
0.0622974

> <r_epik_Charging_Adjusted_Penalty>
0.133299

> <i_epik_Tot_Q>
1

> <i_epik_Tot_abs_Q>
1

> <r_epik_Metal_State_Penalty>
2.79497

> <b_epik_Metal_Only>
0

> <s_lp_Force_Field>
OPLS_2005

> <r_lp_Energy>
24.0011

> <b_lp_Chiralities_Consistent>
1

> <s_lp_Variant>
AV-unprocessed.smi:3198-2

> <Gold.Version>
5.8.1

> <Gold.Id.Protein>
6NUR|6NUR_protein|mol2

> <Gold.PLP.Fitness>
46.4256

> <Gold.PLP.PLP>
-41.5816

> <Gold.PLP.part.hbond>
-3.0000

> <Gold.PLP.part.metal>
0.0000

> <Gold.PLP.part.buried>
-5.4633

> <Gold.PLP.part.nonpolar>
-33.2864

> <Gold.PLP.part.repulsive>
1.9295

> <Gold.PLP.ligand.clash>
0.2098

> <Gold.PLP.ligand.torsion>
0.5816

> <Gold.PLP.Chemscore.Hbond>
2.0624

> <Gold.PLP.Chemscore.CHOScore>
0.0000

> <Gold.PLP.Chemscore.Metal>
0.0000

> <Gold.Chemscore.Hbonds>
donor molecule, donor type, donor heavy atom, donor atom, acceptor molecule, acceptor atom, score
      L1  H     7    24       P1  8028  2.00
      P1  H  8022  8030       L1    16  0.12

> <Gold.PLP.Chemscore.Internal.Correction>
0.0298

> <Gold.Rescore>
     Score         DG    S(hbond)    S(metal)    S(lipo)     H(rot)  DE(clash)    DE(int)     intcor
     14.58     -16.48       1.00        0.00     102.72       1.71       1.33       0.56       ----

> <Gold.Chemscore.Fitness>
14.5779

> <Gold.Chemscore.DG>
-16.4753

> <Gold.Chemscore.ZeroCoef>
-5.4800

> <Gold.Chemscore.Hbond>
1.0016

> <Gold.Chemscore.Metal>
0.0000

> <Gold.Chemscore.Lipo>
102.7175

> <Gold.Chemscore.Internal_Hbond>
0.0000

> <Gold.Chemscore.DEClash>
1.3328

> <Gold.Chemscore.DEInternal>
0.5646

> <Gold.Chemscore.Rot>
1.7063

> <Gold.Chemscore.Internal.Correction>
   9.000000E+99

> <Gold.Chemscore.Hbonds>
donor molecule, donor type, donor heavy atom, donor atom, acceptor molecule, acceptor atom, score
      L1  H     7    24       P1  8028  1.00
      P1  H  8022  8030       L1    16  0.12

> <Gold.Chemscore.Hbond.Weighted>
-3.3455

> <Gold.Chemscore.Metal.Weighted>
-0.0000

> <Gold.Chemscore.Lipo.Weighted>
-12.0179

> <Gold.Chemscore.Internal_Hbond.Weighted>
0.0000

> <Gold.Chemscore.DEClash.Weighted>
1.3328

> <Gold.Chemscore.DEInternal.Weighted>
0.5646

> <Gold.Chemscore.Rot.Weighted>
4.3681

> <Gold.Chemscore.Internal.Correction.Weighted>
   9.000000E+99

> <Gold.Protein.RotatedTorsions>
[ 6907 6896 6895 6894 ] final -168.19 input  -60.11 | X-H torsion
[ 7974 7965 7964 7962 ] final  127.21 input  175.53 | X-H torsion
[ 8008 7997 7996 7995 ] final -160.50 input   59.86 | X-H torsion
[ 10167 10162 10161 10158 ] final  119.77 input  -65.29 | X-H torsion
[ 10718 10713 10712 10709 ] final -127.14 input   66.30 | X-H torsion
[ 10763 10752 10751 10750 ] final   60.28 input  -60.55 | X-H torsion
[ 11005 11000 10999 10996 ] final   99.48 input  -57.11 | X-H torsion

> <Gold.Protein.ActiveResidues>
 VAL166  LYS551  ARG553  GLY616  TRP617  ASP618  TYR619  PRO620  LYS621  CYS622 
 ASP623  PHE694  ASN695  SER759  ASP760  ASP761  ALA762  ILE779  LEU786  VAL792 
 PHE793  MET794  SER795  GLU796  ALA797  LYS798  CYS799  TRP800  GLU811  SER814 

> <Gold.Protein.RotatedAtoms>
  151.4716  133.3568  159.2824 H   0  0  0  0  0  0  0  0  0  0  0  0  # atno 6907 bound_to 6896
  150.8957  134.8367  159.7336 H   0  0  0  0  0  0  0  0  0  0  0  0  # atno 6908 bound_to 6896
  152.4850  134.4630  159.9663 H   0  0  0  0  0  0  0  0  0  0  0  0  # atno 6909 bound_to 6896
  145.0531  139.3866  143.5044 H   0  0  0  0  0  0  0  0  0  0  0  0  # atno 7974 bound_to 7965
  155.7783  140.0861  157.2072 H   0  0  0  0  0  0  0  0  0  0  0  0  # atno 8008 bound_to 7997
  154.3991  140.1512  156.3080 H   0  0  0  0  0  0  0  0  0  0  0  0  # atno 8009 bound_to 7997
  155.8678  140.3427  155.5803 H   0  0  0  0  0  0  0  0  0  0  0  0  # atno 8010 bound_to 7997
  139.6025  144.7060  151.3030 H   0  0  0  0  0  0  0  0  0  0  0  0  # atno 10167 bound_to 10162
  156.1830  130.6744  151.0328 H   0  0  0  0  0  0  0  0  0  0  0  0  # atno 10718 bound_to 10713
  152.9917  135.5542  154.5849 H   0  0  0  0  0  0  0  0  0  0  0  0  # atno 10763 bound_to 10752
  154.5222  135.2808  155.1254 H   0  0  0  0  0  0  0  0  0  0  0  0  # atno 10764 bound_to 10752
  154.2603  135.6382  153.5325 H   0  0  0  0  0  0  0  0  0  0  0  0  # atno 10765 bound_to 10752
  139.8771  134.9097  156.4613 H   0  0  0  0  0  0  0  0  0  0  0  0  # atno 11005 bound_to 11000
  146.3519  140.0191  142.8660 LP  0  0  0  0  0  0  0  0  0  0  0  0  # atno 17320 bound_to 7965
  145.1502  140.9619  143.4437 LP  0  0  0  0  0  0  0  0  0  0  0  0  # atno 17321 bound_to 7965
  140.7260  143.7002  150.7851 LP  0  0  0  0  0  0  0  0  0  0  0  0  # atno 17342 bound_to 10162
  140.0581  143.5182  152.2641 LP  0  0  0  0  0  0  0  0  0  0  0  0  # atno 17343 bound_to 10162
  157.6880  131.0819  150.7187 LP  0  0  0  0  0  0  0  0  0  0  0  0  # atno 17370 bound_to 10713
  156.7244  130.4690  149.5515 LP  0  0  0  0  0  0  0  0  0  0  0  0  # atno 17371 bound_to 10713
  140.8862  133.7881  155.9521 LP  0  0  0  0  0  0  0  0  0  0  0  0  # atno 17394 bound_to 11000
  140.8802  134.2621  157.5148 LP  0  0  0  0  0  0  0  0  0  0  0  0  # atno 17395 bound_to 11000

$$$$
