AV-unprocessed.smi:1945|AV-procd|sdf|7859|dock3
  -GOLD-   2272010 03D 1   1.00000     0.00000
 Structure written by MMmdl.
 47 48  0  0  0  0  0  0  0  0  1 V2000
  143.7311  132.8410  149.0730 C   0  0  0  0  0  0  0  0  0  0  0  0
  144.6934  133.1695  150.1759 C   0  0  0  0  0  0  0  0  0  0  0  0
  144.9924  134.4484  150.7282 C   0  0  0  0  0  0  0  0  0  0  0  0
  145.9252  134.1532  151.6848 C   0  0  0  0  0  0  0  0  0  0  0  0
  146.5683  134.9976  152.5339 N   0  0  0  0  0  0  0  0  0  0  0  0
  146.1652  135.4363  153.7386 C   0  0  0  0  0  0  0  0  0  0  0  0
  145.1711  135.0385  154.3463 O   0  0  0  0  0  0  0  0  0  0  0  0
  146.9762  136.4006  154.1976 N   0  0  0  0  0  0  0  0  0  0  0  0
  146.7199  137.2115  155.3837 C   0  0  0  0  0  0  0  0  0  0  0  0
  147.2100  138.6526  155.1768 C   0  0  0  0  0  0  0  0  0  0  0  0
  148.5748  138.7336  155.5584 O   0  0  0  0  0  0  0  0  0  0  0  0
  149.3934  139.5274  154.7088 C   0  0  2  0  0  0  0  0  0  0  0  0
  150.8424  139.0319  154.8708 C   0  0  0  0  0  0  0  0  0  0  0  0
  151.3836  139.2929  156.2872 C   0  0  0  0  0  0  0  0  0  0  0  0
  151.2620  140.7763  156.6672 C   0  0  0  0  0  0  0  0  0  0  0  0
  149.8157  141.2742  156.5187 C   0  0  0  0  0  0  0  0  0  0  0  0
  149.2750  141.0225  155.0965 C   0  0  2  0  0  0  0  0  0  0  0  0
  147.8525  141.5768  154.9248 C   0  0  0  0  0  0  0  0  0  0  0  0
  146.1450  132.7923  151.6869 N   0  0  0  0  0  0  0  0  0  0  0  0
  147.0315  131.9871  152.5054 C   0  0  0  0  0  0  0  0  0  0  0  0
  145.3813  132.1896  150.7505 N   0  0  0  0  0  0  0  0  0  0  0  0
  143.2614  133.7422  148.6787 H   0  0  0  0  0  0  0  0  0  0  0  0
  142.9382  132.1821  149.4276 H   0  0  0  0  0  0  0  0  0  0  0  0
  144.2367  132.3420  148.2462 H   0  0  0  0  0  0  0  0  0  0  0  0
  144.5797  135.4079  150.4547 H   0  0  0  0  0  0  0  0  0  0  0  0
  147.4081  135.4193  152.1664 H   0  0  0  0  0  0  0  0  0  0  0  0
  147.7792  136.6532  153.6406 H   0  0  0  0  0  0  0  0  0  0  0  0
  145.6618  137.1968  155.6502 H   0  0  0  0  0  0  0  0  0  0  0  0
  147.2563  136.7607  156.2188 H   0  0  0  0  0  0  0  0  0  0  0  0
  147.1134  138.9397  154.1291 H   0  0  0  0  0  0  0  0  0  0  0  0
  146.5955  139.3401  155.7597 H   0  0  0  0  0  0  0  0  0  0  0  0
  149.1071  139.3962  153.6634 H   0  0  0  0  0  0  0  0  0  0  0  0
  150.8996  137.9675  154.6414 H   0  0  0  0  0  0  0  0  0  0  0  0
  151.4799  139.5361  154.1437 H   0  0  0  0  0  0  0  0  0  0  0  0
  150.8345  138.6859  157.0084 H   0  0  0  0  0  0  0  0  0  0  0  0
  152.4253  138.9778  156.3501 H   0  0  0  0  0  0  0  0  0  0  0  0
  151.6030  140.9263  157.6921 H   0  0  0  0  0  0  0  0  0  0  0  0
  151.9199  141.3711  156.0323 H   0  0  0  0  0  0  0  0  0  0  0  0
  149.1811  140.7766  157.2527 H   0  0  0  0  0  0  0  0  0  0  0  0
  149.7731  142.3387  156.7513 H   0  0  0  0  0  0  0  0  0  0  0  0
  149.9097  141.5815  154.4073 H   0  0  0  0  0  0  0  0  0  0  0  0
  147.1524  141.1048  155.6133 H   0  0  0  0  0  0  0  0  0  0  0  0
  147.4872  141.4145  153.9105 H   0  0  0  0  0  0  0  0  0  0  0  0
  147.8262  142.6496  155.1163 H   0  0  0  0  0  0  0  0  0  0  0  0
  147.6575  132.6198  153.1346 H   0  0  0  0  0  0  0  0  0  0  0  0
  147.6763  131.3839  151.8655 H   0  0  0  0  0  0  0  0  0  0  0  0
  146.4427  131.3268  153.1424 H   0  0  0  0  0  0  0  0  0  0  0  0
  1  2  1  0  0  0  0
  1 22  1  0  0  0  0
  1 23  1  0  0  0  0
  1 24  1  0  0  0  0
  2 21  2  0  0  0  0
  2  3  1  0  0  0  0
  3  4  2  0  0  0  0
  3 25  1  0  0  0  0
  4  5  1  0  0  0  0
  4 19  1  0  0  0  0
  5  6  1  0  0  0  0
  5 26  1  0  0  0  0
  6  7  2  0  0  0  0
  6  8  1  0  0  0  0
  8  9  1  0  0  0  0
  8 27  1  0  0  0  0
  9 10  1  0  0  0  0
  9 28  1  0  0  0  0
  9 29  1  0  0  0  0
 10 11  1  0  0  0  0
 10 30  1  0  0  0  0
 10 31  1  0  0  0  0
 11 12  1  0  0  0  0
 12 17  1  0  0  0  0
 12 13  1  0  0  0  0
 12 32  1  0  0  0  0
 13 14  1  0  0  0  0
 13 33  1  0  0  0  0
 13 34  1  0  0  0  0
 14 15  1  0  0  0  0
 14 35  1  0  0  0  0
 14 36  1  0  0  0  0
 15 16  1  0  0  0  0
 15 37  1  0  0  0  0
 15 38  1  0  0  0  0
 16 17  1  0  0  0  0
 16 39  1  0  0  0  0
 16 40  1  0  0  0  0
 17 18  1  0  0  0  0
 17 41  1  0  0  0  0
 18 42  1  0  0  0  0
 18 43  1  0  0  0  0
 18 44  1  0  0  0  0
 19 20  1  0  0  0  0
 19 21  1  0  0  0  0
 20 45  1  0  0  0  0
 20 46  1  0  0  0  0
 20 47  1  0  0  0  0
M  END
> <s_m_source_file>
AV-unprocessed.smi

> <i_m_source_file_index>
1945

> <i_lp_mmshare_version>
43012

> <i_f3d_flags>
0

> <s_epik_input>
W0NIM11jMVtjSF1jKG4objEpW0NIM10pW05IXUMoPU8pW05IXVtDSDJdW0NIMl1PW0NAQEhdMltDSDJdW0NIMl1bQ0gyXVtDSDJdW0NASF0yW0NIM10=

> <s_epik_cmdline>
J2VwaWtfcHl0aG9uJywgJy1waCcsICc3LjAnLCAnLXRuJywgJzgnLCAnLW1hJywgJzIwMCcsICctbWV0YWxfYmluZGluZycsICctaW1hZScsICc8aW5maWxlLm1hZT4nLCAnLW9tYWUnLCAnPG91dGZpbGUubWFlPic=

> <r_lp_tautomer_probability>
1

> <r_epik_Ionization_Penalty>
9.47735e-05

> <r_epik_Ionization_Penalty_Charging>
0

> <r_epik_Ionization_Penalty_Neutral>
9.47735e-05

> <r_epik_State_Penalty>
-0

> <r_epik_Charging_Adjusted_Penalty>
0

> <i_epik_Tot_Q>
0

> <i_epik_Tot_abs_Q>
0

> <r_epik_Metal_State_Penalty>
-0

> <b_epik_Metal_Only>
0

> <s_lp_Force_Field>
OPLS_2005

> <r_lp_Energy>
12.3815

> <b_lp_Chiralities_Consistent>
1

> <s_lp_Variant>
AV-unprocessed.smi:1945-3

> <Gold.Version>
5.8.1

> <Gold.Id.Protein>
6NUR|6NUR_protein|mol2

> <Gold.PLP.Fitness>
39.8685

> <Gold.PLP.PLP>
-37.1288

> <Gold.PLP.part.hbond>
-2.0000

> <Gold.PLP.part.metal>
0.0000

> <Gold.PLP.part.buried>
-0.9905

> <Gold.PLP.part.nonpolar>
-33.0821

> <Gold.PLP.part.repulsive>
0.2549

> <Gold.PLP.ligand.clash>
0.0000

> <Gold.PLP.ligand.torsion>
1.6239

> <Gold.PLP.Chemscore.Hbond>
1.9920

> <Gold.PLP.Chemscore.CHOScore>
0.0000

> <Gold.PLP.Chemscore.Metal>
0.0000

> <Gold.Chemscore.Hbonds>
donor molecule, donor type, donor heavy atom, donor atom, acceptor molecule, acceptor atom, score
      L1  H     5    26       P1  7948  1.00
      L1  H     8    27       P1  7948  0.60

> <Gold.PLP.Chemscore.Internal.Correction>
0.0115

> <Gold.Rescore>
     Score         DG    S(hbond)    S(metal)    S(lipo)     H(rot)  DE(clash)    DE(int)     intcor
     16.00     -17.65       1.97        0.00      83.64       1.63       0.04       1.61       ----

> <Gold.Chemscore.Fitness>
15.9964

> <Gold.Chemscore.DG>
-17.6547

> <Gold.Chemscore.ZeroCoef>
-5.4800

> <Gold.Chemscore.Hbond>
1.9656

> <Gold.Chemscore.Metal>
0.0000

> <Gold.Chemscore.Lipo>
83.6436

> <Gold.Chemscore.Internal_Hbond>
0.0000

> <Gold.Chemscore.DEClash>
0.0435

> <Gold.Chemscore.DEInternal>
1.6148

> <Gold.Chemscore.Rot>
1.6316

> <Gold.Chemscore.Internal.Correction>
   9.000000E+99

> <Gold.Chemscore.Hbonds>
donor molecule, donor type, donor heavy atom, donor atom, acceptor molecule, acceptor atom, score
      L1  H     5    26       P1  7948  1.00
      L1  H     8    27       P1  7948  0.58

> <Gold.Chemscore.Hbond.Weighted>
-6.5652

> <Gold.Chemscore.Metal.Weighted>
-0.0000

> <Gold.Chemscore.Lipo.Weighted>
-9.7863

> <Gold.Chemscore.Internal_Hbond.Weighted>
0.0000

> <Gold.Chemscore.DEClash.Weighted>
0.0435

> <Gold.Chemscore.DEInternal.Weighted>
1.6148

> <Gold.Chemscore.Rot.Weighted>
4.1768

> <Gold.Chemscore.Internal.Correction.Weighted>
   9.000000E+99

> <Gold.Protein.RotatedTorsions>
[ 6907 6896 6895 6894 ] final  -97.76 input  -60.11 | X-H torsion
[ 7974 7965 7964 7962 ] final   34.28 input  175.53 | X-H torsion
[ 8008 7997 7996 7995 ] final -117.83 input   59.86 | X-H torsion
[ 10167 10162 10161 10158 ] final  -43.17 input  -65.29 | X-H torsion
[ 10718 10713 10712 10709 ] final  -94.50 input   66.30 | X-H torsion
[ 10763 10752 10751 10750 ] final  125.14 input  -60.55 | X-H torsion
[ 11005 11000 10999 10996 ] final  -75.55 input  -57.11 | X-H torsion

> <Gold.Protein.ActiveResidues>
 VAL166  LYS551  ARG553  GLY616  TRP617  ASP618  TYR619  PRO620  LYS621  CYS622 
 ASP623  PHE694  ASN695  SER759  ASP760  ASP761  ALA762  ILE779  LEU786  VAL792 
 PHE793  MET794  SER795  GLU796  ALA797  LYS798  CYS799  TRP800  GLU811  SER814 

> <Gold.Protein.RotatedAtoms>
  150.7026  134.1299  159.4065 H   0  0  0  0  0  0  0  0  0  0  0  0  # atno 6907 bound_to 6896
  151.9284  135.0265  160.0536 H   0  0  0  0  0  0  0  0  0  0  0  0  # atno 6908 bound_to 6896
  152.2196  133.4938  159.5192 H   0  0  0  0  0  0  0  0  0  0  0  0  # atno 6909 bound_to 6896
  146.1364  139.6289  142.9192 H   0  0  0  0  0  0  0  0  0  0  0  0  # atno 7974 bound_to 7965
  155.0900  140.0395  157.2666 H   0  0  0  0  0  0  0  0  0  0  0  0  # atno 8008 bound_to 7997
  154.6839  140.2639  155.6855 H   0  0  0  0  0  0  0  0  0  0  0  0  # atno 8009 bound_to 7997
  156.2705  140.2773  156.1393 H   0  0  0  0  0  0  0  0  0  0  0  0  # atno 8010 bound_to 7997
  140.6943  143.2997  151.3314 H   0  0  0  0  0  0  0  0  0  0  0  0  # atno 10167 bound_to 10162
  156.0028  130.5070  150.5935 H   0  0  0  0  0  0  0  0  0  0  0  0  # atno 10718 bound_to 10713
  153.6726  135.3328  155.3157 H   0  0  0  0  0  0  0  0  0  0  0  0  # atno 10763 bound_to 10752
  154.8487  135.4390  154.1689 H   0  0  0  0  0  0  0  0  0  0  0  0  # atno 10764 bound_to 10752
  153.2685  135.6998  153.7581 H   0  0  0  0  0  0  0  0  0  0  0  0  # atno 10765 bound_to 10752
  141.1646  133.6951  156.7534 H   0  0  0  0  0  0  0  0  0  0  0  0  # atno 11005 bound_to 11000
  145.5147  141.0434  143.2468 LP  0  0  0  0  0  0  0  0  0  0  0  0  # atno 17320 bound_to 7965
  144.7744  139.6663  143.7181 LP  0  0  0  0  0  0  0  0  0  0  0  0  # atno 17321 bound_to 7965
  139.6381  144.0592  152.2532 LP  0  0  0  0  0  0  0  0  0  0  0  0  # atno 17342 bound_to 10162
  140.0089  144.6239  150.7665 LP  0  0  0  0  0  0  0  0  0  0  0  0  # atno 17343 bound_to 10162
  157.3796  131.0779  151.1488 LP  0  0  0  0  0  0  0  0  0  0  0  0  # atno 17370 bound_to 10713
  157.2215  130.6483  149.5813 LP  0  0  0  0  0  0  0  0  0  0  0  0  # atno 17371 bound_to 10713
  140.2587  134.8484  157.3737 LP  0  0  0  0  0  0  0  0  0  0  0  0  # atno 17394 bound_to 11000
  140.1632  134.4702  155.7880 LP  0  0  0  0  0  0  0  0  0  0  0  0  # atno 17395 bound_to 11000

$$$$
