AV-unprocessed.smi:1900|AV-procd|sdf|7709|dock9
  -GOLD-   22720 9443D 1   1.00000     0.00000
 Structure written by MMmdl.
 44 45  0  0  0  0  0  0  0  0  2 V2000
  150.6647  141.2577  157.1382 C   0  0  0  0  0  0  0  0  0  0  0  0
  150.6603  141.3088  155.6000 C   0  0  2  0  0  0  0  0  0  0  0  0
  149.2455  141.3439  154.9890 C   0  0  0  0  0  0  0  0  0  0  0  0
  148.5841  140.0208  155.0860 N   0  3  1  0  0  0  0  0  0  0  0  0
  147.1977  140.0450  154.5564 C   0  0  0  0  0  0  0  0  0  0  0  0
  147.0954  139.4556  153.1393 C   0  0  0  0  0  0  0  0  0  0  0  0
  145.9555  138.4299  153.0204 C   0  0  0  0  0  0  0  0  0  0  0  0
  146.3667  137.2412  152.2816 N   0  0  0  0  0  0  0  0  0  0  0  0
  145.5490  136.2420  151.9199 C   0  0  0  0  0  0  0  0  0  0  0  0
  144.3401  136.2357  152.1535 O   0  0  0  0  0  0  0  0  0  0  0  0
  146.2178  135.2676  151.2817 N   0  0  0  0  0  0  0  0  0  0  0  0
  145.6880  134.0596  150.7616 C   0  0  0  0  0  0  0  0  0  0  0  0
  146.4308  132.8613  150.5814 C   0  0  0  0  0  0  0  0  0  0  0  0
  145.6763  131.8954  150.0773 N   0  0  0  0  0  0  0  0  0  0  0  0
  144.4594  132.4663  149.9317 N   0  0  0  0  0  0  0  0  0  0  0  0
  144.4194  133.7826  150.3353 C   0  0  0  0  0  0  0  0  0  0  0  0
  149.4364  138.9754  154.4696 C   0  0  0  0  0  0  0  0  0  0  0  0
  150.8281  138.9578  155.1274 C   0  0  1  0  0  0  0  0  0  0  0  0
  151.7675  137.9511  154.4540 C   0  0  0  0  0  0  0  0  0  0  0  0
  151.4213  140.2492  155.0209 O   0  0  0  0  0  0  0  0  0  0  0  0
  143.6744  131.9501  149.5605 H   0  0  0  0  0  0  0  0  0  0  0  0
  150.1936  142.1482  157.5549 H   0  0  0  0  0  0  0  0  0  0  0  0
  151.6841  141.2155  157.5227 H   0  0  0  0  0  0  0  0  0  0  0  0
  150.1245  140.3950  157.5267 H   0  0  0  0  0  0  0  0  0  0  0  0
  151.1661  142.2319  155.3154 H   0  0  0  0  0  0  0  0  0  0  0  0
  148.6447  142.1041  155.4899 H   0  0  0  0  0  0  0  0  0  0  0  0
  149.3069  141.6324  153.9384 H   0  0  0  0  0  0  0  0  0  0  0  0
  146.5567  139.4544  155.2127 H   0  0  0  0  0  0  0  0  0  0  0  0
  146.8086  141.0640  154.5811 H   0  0  0  0  0  0  0  0  0  0  0  0
  146.9347  140.2525  152.4138 H   0  0  0  0  0  0  0  0  0  0  0  0
  148.0403  138.9805  152.8726 H   0  0  0  0  0  0  0  0  0  0  0  0
  145.6331  138.1150  154.0132 H   0  0  0  0  0  0  0  0  0  0  0  0
  145.0850  138.8800  152.5402 H   0  0  0  0  0  0  0  0  0  0  0  0
  147.3462  137.1631  152.0492 H   0  0  0  0  0  0  0  0  0  0  0  0
  147.2119  135.3973  151.1643 H   0  0  0  0  0  0  0  0  0  0  0  0
  147.4706  132.6644  150.7970 H   0  0  0  0  0  0  0  0  0  0  0  0
  143.5192  134.3765  150.2815 H   0  0  0  0  0  0  0  0  0  0  0  0
  148.9772  137.9941  154.5817 H   0  0  0  0  0  0  0  0  0  0  0  0
  149.5271  139.1638  153.3984 H   0  0  0  0  0  0  0  0  0  0  0  0
  150.7338  138.6806  156.1775 H   0  0  0  0  0  0  0  0  0  0  0  0
  151.3669  136.9388  154.5143 H   0  0  0  0  0  0  0  0  0  0  0  0
  152.7463  137.9493  154.9342 H   0  0  0  0  0  0  0  0  0  0  0  0
  151.9144  138.1908  153.4005 H   0  0  0  0  0  0  0  0  0  0  0  0
  148.5159  139.8082  156.0710 H   0  0  0  0  0  0  0  0  0  0  0  0
  1  2  1  0  0  0  0
  1 22  1  0  0  0  0
  1 23  1  0  0  0  0
  1 24  1  0  0  0  0
  2 20  1  0  0  0  0
  2  3  1  0  0  0  0
  2 25  1  0  0  0  0
  3  4  1  0  0  0  0
  3 26  1  0  0  0  0
  3 27  1  0  0  0  0
  4  5  1  0  0  0  0
  4 17  1  0  0  0  0
  4 44  1  0  0  0  0
  5  6  1  0  0  0  0
  5 28  1  0  0  0  0
  5 29  1  0  0  0  0
  6  7  1  0  0  0  0
  6 30  1  0  0  0  0
  6 31  1  0  0  0  0
  7  8  1  0  0  0  0
  7 32  1  0  0  0  0
  7 33  1  0  0  0  0
  8  9  1  0  0  0  0
  8 34  1  0  0  0  0
  9 10  2  0  0  0  0
  9 11  1  0  0  0  0
 11 12  1  0  0  0  0
 11 35  1  0  0  0  0
 12 16  2  0  0  0  0
 12 13  1  0  0  0  0
 13 14  2  0  0  0  0
 13 36  1  0  0  0  0
 14 15  1  0  0  0  0
 15 21  1  0  0  0  0
 15 16  1  0  0  0  0
 16 37  1  0  0  0  0
 17 18  1  0  0  0  0
 17 38  1  0  0  0  0
 17 39  1  0  0  0  0
 18 19  1  0  0  0  0
 18 20  1  0  0  0  0
 18 40  1  0  0  0  0
 19 41  1  0  0  0  0
 19 42  1  0  0  0  0
 19 43  1  0  0  0  0
M  CHG  1   4   1
M  END
> <s_m_source_file>
AV-unprocessed.smi

> <i_m_source_file_index>
1900

> <i_lp_mmshare_version>
43012

> <i_f3d_flags>
0

> <s_epik_input>
W0NIM11bQ0BASF0xW0NIMl1OKFtDSDJdW0NASF0oTzEpW0NIM10pW0NIMl1bQ0gyXVtDSDJdW05IXUMoPU8pW05IXWMyW2NIXW5bbkhdW2NIXTI=

> <s_epik_cmdline>
J2VwaWtfcHl0aG9uJywgJy1waCcsICc3LjAnLCAnLXRuJywgJzgnLCAnLW1hJywgJzIwMCcsICctbWV0YWxfYmluZGluZycsICctaW1hZScsICc8aW5maWxlLm1hZT4nLCAnLW9tYWUnLCAnPG91dGZpbGUubWFlPic=

> <r_lp_tautomer_probability>
0.5

> <r_epik_Ionization_Penalty>
0.270543

> <r_epik_Ionization_Penalty_Charging>
0.270496

> <r_epik_Ionization_Penalty_Neutral>
4.67091e-05

> <r_epik_State_Penalty>
0.262618

> <r_epik_Charging_Adjusted_Penalty>
0.533114

> <i_epik_Tot_Q>
1

> <i_epik_Tot_abs_Q>
1

> <r_epik_Metal_State_Penalty>
0.262618

> <b_epik_Metal_Only>
0

> <s_lp_Force_Field>
OPLS_2005

> <r_lp_Energy>
21.2497

> <b_lp_Chiralities_Consistent>
1

> <s_lp_Variant>
AV-unprocessed.smi:1900-1

> <Gold.Version>
5.8.1

> <Gold.Id.Protein>
6NUR|6NUR_protein|mol2

> <Gold.PLP.Fitness>
44.1398

> <Gold.PLP.PLP>
-32.6128

> <Gold.PLP.part.hbond>
-3.0000

> <Gold.PLP.part.metal>
0.0000

> <Gold.PLP.part.buried>
-2.7412

> <Gold.PLP.part.nonpolar>
-26.5587

> <Gold.PLP.part.repulsive>
0.6704

> <Gold.PLP.ligand.clash>
0.5415

> <Gold.PLP.ligand.torsion>
1.3527

> <Gold.PLP.Chemscore.Hbond>
2.9920

> <Gold.PLP.Chemscore.CHOScore>
1.9237

> <Gold.PLP.Chemscore.Metal>
0.0000

> <Gold.Chemscore.Hbonds>
donor molecule, donor type, donor heavy atom, donor atom, acceptor molecule, acceptor atom, score
      L1  H     8    34       P1  7948  1.00
      L1  H    11    35       P1  7948  0.99
      P1  H  7989  7998       L1    20  0.95
      L1  C    13    36       P1 10747  1.00
      L1  C    16    37       P1 10186  0.80

> <Gold.PLP.Chemscore.Internal.Correction>
0.0268

> <Gold.Rescore>
     Score         DG    S(hbond)    S(metal)    S(lipo)     H(rot)  DE(clash)    DE(int)     intcor
     15.41     -17.59       2.43        0.00      76.54       1.93       0.05       2.13       ----

> <Gold.Chemscore.Fitness>
15.4072

> <Gold.Chemscore.DG>
-17.5927

> <Gold.Chemscore.ZeroCoef>
-5.4800

> <Gold.Chemscore.Hbond>
2.4282

> <Gold.Chemscore.Metal>
0.0000

> <Gold.Chemscore.Lipo>
76.5402

> <Gold.Chemscore.Internal_Hbond>
0.0000

> <Gold.Chemscore.DEClash>
0.0512

> <Gold.Chemscore.DEInternal>
2.1342

> <Gold.Chemscore.Rot>
1.9347

> <Gold.Chemscore.Internal.Correction>
   9.000000E+99

> <Gold.Chemscore.Hbonds>
donor molecule, donor type, donor heavy atom, donor atom, acceptor molecule, acceptor atom, score
      L1  H     8    34       P1  7948  0.98
      L1  H    11    35       P1  7948  0.72
      P1  H  7989  7998       L1    20  0.20

> <Gold.Chemscore.Hbond.Weighted>
-8.1103

> <Gold.Chemscore.Metal.Weighted>
-0.0000

> <Gold.Chemscore.Lipo.Weighted>
-8.9552

> <Gold.Chemscore.Internal_Hbond.Weighted>
0.0000

> <Gold.Chemscore.DEClash.Weighted>
0.0512

> <Gold.Chemscore.DEInternal.Weighted>
2.1342

> <Gold.Chemscore.Rot.Weighted>
4.9528

> <Gold.Chemscore.Internal.Correction.Weighted>
   9.000000E+99

> <Gold.Protein.RotatedTorsions>
[ 6907 6896 6895 6894 ] final -177.02 input  -60.11 | X-H torsion
[ 7974 7965 7964 7962 ] final -173.00 input  175.53 | X-H torsion
[ 8008 7997 7996 7995 ] final   72.71 input   59.86 | X-H torsion
[ 10167 10162 10161 10158 ] final  -98.98 input  -65.29 | X-H torsion
[ 10718 10713 10712 10709 ] final  139.57 input   66.30 | X-H torsion
[ 10763 10752 10751 10750 ] final  -45.51 input  -60.55 | X-H torsion
[ 11005 11000 10999 10996 ] final   -0.99 input  -57.11 | X-H torsion

> <Gold.Protein.ActiveResidues>
 VAL166  LYS551  ARG553  GLY616  TRP617  ASP618  TYR619  PRO620  LYS621  CYS622 
 ASP623  PHE694  ASN695  SER759  ASP760  ASP761  ALA762  ILE779  LEU786  VAL792 
 PHE793  MET794  SER795  GLU796  ALA797  LYS798  CYS799  TRP800  GLU811  SER814 

> <Gold.Protein.RotatedAtoms>
  151.6142  133.3344  159.3073 H   0  0  0  0  0  0  0  0  0  0  0  0  # atno 6907 bound_to 6896
  150.8140  134.7315  159.6725 H   0  0  0  0  0  0  0  0  0  0  0  0  # atno 6908 bound_to 6896
  152.4237  134.5914  160.0026 H   0  0  0  0  0  0  0  0  0  0  0  0  # atno 6909 bound_to 6896
  144.7141  140.1687  143.6369 H   0  0  0  0  0  0  0  0  0  0  0  0  # atno 7974 bound_to 7965
  155.7729  140.3484  155.5256 H   0  0  0  0  0  0  0  0  0  0  0  0  # atno 8008 bound_to 7997
  155.8804  140.1001  157.1510 H   0  0  0  0  0  0  0  0  0  0  0  0  # atno 8009 bound_to 7997
  154.4024  140.1323  156.4177 H   0  0  0  0  0  0  0  0  0  0  0  0  # atno 8010 bound_to 7997
  140.2673  143.3367  152.0568 H   0  0  0  0  0  0  0  0  0  0  0  0  # atno 10167 bound_to 10162
  157.4129  131.1030  151.0435 H   0  0  0  0  0  0  0  0  0  0  0  0  # atno 10718 bound_to 10713
  154.0298  135.6658  153.4779 H   0  0  0  0  0  0  0  0  0  0  0  0  # atno 10763 bound_to 10752
  153.0545  135.5064  154.7944 H   0  0  0  0  0  0  0  0  0  0  0  0  # atno 10764 bound_to 10752
  154.6885  135.3057  154.9478 H   0  0  0  0  0  0  0  0  0  0  0  0  # atno 10765 bound_to 10752
  140.6424  133.9478  155.8333 H   0  0  0  0  0  0  0  0  0  0  0  0  # atno 11005 bound_to 11000
  145.8963  139.2404  143.1520 LP  0  0  0  0  0  0  0  0  0  0  0  0  # atno 17320 bound_to 7965
  145.9854  140.8647  143.0093 LP  0  0  0  0  0  0  0  0  0  0  0  0  # atno 17321 bound_to 7965
  139.4999  144.6679  151.6312 LP  0  0  0  0  0  0  0  0  0  0  0  0  # atno 17342 bound_to 10162
  140.5918  143.9766  150.6329 LP  0  0  0  0  0  0  0  0  0  0  0  0  # atno 17343 bound_to 10162
  157.1393  130.6136  149.5550 LP  0  0  0  0  0  0  0  0  0  0  0  0  # atno 17370 bound_to 10713
  155.9856  130.4887  150.7040 LP  0  0  0  0  0  0  0  0  0  0  0  0  # atno 17371 bound_to 10713
  141.0597  134.0364  157.3675 LP  0  0  0  0  0  0  0  0  0  0  0  0  # atno 17394 bound_to 11000
  139.9075  135.0183  156.7551 LP  0  0  0  0  0  0  0  0  0  0  0  0  # atno 17395 bound_to 11000

$$$$
