AV-unprocessed.smi:2695|AV-procd|sdf|10407|dock7
  -GOLD-   2272014443D 1   1.00000     0.00000
 Structure written by MMmdl.
 41 42  0  0  0  0  0  0  0  0  2 V2000
  151.0788  142.6669  157.9721 C   0  0  0  0  0  0  0  0  0  0  0  0
  150.9376  141.5586  156.9354 C   0  0  0  0  0  0  0  0  0  0  0  0
  151.9675  140.7210  156.6831 C   0  0  0  0  0  0  0  0  0  0  0  0
  151.8581  139.6833  155.7667 C   0  0  0  0  0  0  0  0  0  0  0  0
  152.8091  138.9071  155.5271 O   0  5  0  0  0  0  0  0  0  0  0  0
  150.6263  139.5578  155.1373 C   0  0  0  0  0  0  0  0  0  0  0  0
  149.4780  140.4247  155.3724 C   0  0  0  0  0  0  0  0  0  0  0  0
  148.4020  140.2579  154.7950 O   0  0  0  0  0  0  0  0  0  0  0  0
  149.6896  141.4281  156.2700 N   0  0  0  0  0  0  0  0  0  0  0  0
  148.5927  142.3887  156.5305 C   0  0  0  0  0  0  0  0  0  0  0  0
  148.0909  142.3727  157.9822 C   0  0  0  0  0  0  0  0  0  0  0  0
  148.0395  141.3235  158.6253 O   0  0  0  0  0  0  0  0  0  0  0  0
  147.7278  143.5638  158.4823 N   0  0  0  0  0  0  0  0  0  0  0  0
  147.1979  143.8119  159.8243 C   0  0  2  0  0  0  0  0  0  0  0  0
  145.6905  143.4494  159.8544 C   0  0  0  0  0  0  0  0  0  0  0  0
  144.9854  143.7065  161.1918 C   0  0  0  0  0  0  0  0  0  0  0  0
  143.7121  142.8551  161.1507 C   0  0  0  0  0  0  0  0  0  0  0  0
  143.9749  141.7355  160.1339 C   0  0  0  0  0  0  0  0  0  0  0  0
  145.3936  141.9638  159.6036 C   0  0  0  0  0  0  0  0  0  0  0  0
  147.4999  145.2765  160.2162 C   0  0  0  0  0  0  0  0  0  0  0  0
  146.6231  146.0908  159.6274 F   0  0  0  0  0  0  0  0  0  0  0  0
  147.4124  145.4388  161.5371 F   0  0  0  0  0  0  0  0  0  0  0  0
  148.7187  145.6368  159.8167 F   0  0  0  0  0  0  0  0  0  0  0  0
  151.9829  142.5277  158.5660 H   0  0  0  0  0  0  0  0  0  0  0  0
  150.2418  142.6765  158.6703 H   0  0  0  0  0  0  0  0  0  0  0  0
  151.1525  143.6402  157.4869 H   0  0  0  0  0  0  0  0  0  0  0  0
  152.8993  140.8610  157.2125 H   0  0  0  0  0  0  0  0  0  0  0  0
  150.4964  138.7615  154.4186 H   0  0  0  0  0  0  0  0  0  0  0  0
  148.8610  143.4090  156.2623 H   0  0  0  0  0  0  0  0  0  0  0  0
  147.7465  142.1741  155.8747 H   0  0  0  0  0  0  0  0  0  0  0  0
  147.8163  144.3691  157.8798 H   0  0  0  0  0  0  0  0  0  0  0  0
  147.7099  143.1712  160.5444 H   0  0  0  0  0  0  0  0  0  0  0  0
  145.1731  144.0246  159.0846 H   0  0  0  0  0  0  0  0  0  0  0  0
  145.6182  143.3723  162.0151 H   0  0  0  0  0  0  0  0  0  0  0  0
  144.7593  144.7605  161.3542 H   0  0  0  0  0  0  0  0  0  0  0  0
  143.4639  142.4622  162.1371 H   0  0  0  0  0  0  0  0  0  0  0  0
  142.8673  143.4607  160.8202 H   0  0  0  0  0  0  0  0  0  0  0  0
  143.8726  140.7458  160.5801 H   0  0  0  0  0  0  0  0  0  0  0  0
  143.2535  141.8017  159.3183 H   0  0  0  0  0  0  0  0  0  0  0  0
  145.4874  141.6872  158.5527 H   0  0  0  0  0  0  0  0  0  0  0  0
  146.0947  141.3466  160.1678 H   0  0  0  0  0  0  0  0  0  0  0  0
  1  2  1  0  0  0  0
  1 24  1  0  0  0  0
  1 25  1  0  0  0  0
  1 26  1  0  0  0  0
  2  9  1  0  0  0  0
  2  3  2  0  0  0  0
  3  4  1  0  0  0  0
  3 27  1  0  0  0  0
  4  5  1  0  0  0  0
  4  6  2  0  0  0  0
  6  7  1  0  0  0  0
  6 28  1  0  0  0  0
  7  8  2  0  0  0  0
  7  9  1  0  0  0  0
  9 10  1  0  0  0  0
 10 11  1  0  0  0  0
 10 29  1  0  0  0  0
 10 30  1  0  0  0  0
 11 12  2  0  0  0  0
 11 13  1  0  0  0  0
 13 14  1  0  0  0  0
 13 31  1  0  0  0  0
 14 15  1  0  0  0  0
 14 20  1  0  0  0  0
 14 32  1  0  0  0  0
 15 19  1  0  0  0  0
 15 16  1  0  0  0  0
 15 33  1  0  0  0  0
 16 17  1  0  0  0  0
 16 34  1  0  0  0  0
 16 35  1  0  0  0  0
 17 18  1  0  0  0  0
 17 36  1  0  0  0  0
 17 37  1  0  0  0  0
 18 19  1  0  0  0  0
 18 38  1  0  0  0  0
 18 39  1  0  0  0  0
 19 40  1  0  0  0  0
 19 41  1  0  0  0  0
 20 21  1  0  0  0  0
 20 22  1  0  0  0  0
 20 23  1  0  0  0  0
M  CHG  1   5  -1
M  END
> <s_m_source_file>
AV-unprocessed.smi

> <i_m_source_file_index>
2695

> <i_lp_mmshare_version>
43012

> <i_f3d_flags>
0

> <s_epik_input>
W0NIM11jMVtjSF1jKFtPSF0pW2NIXWMoPU8pbjFbQ0gyXUMoPU8pW05IXVtDQEBIXShDKEYpKEYpRilbQ0hdMltDSDJdW0NIMl1bQ0gyXVtDSDJdMg==

> <s_epik_cmdline>
J2VwaWtfcHl0aG9uJywgJy1waCcsICc3LjAnLCAnLXRuJywgJzgnLCAnLW1hJywgJzIwMCcsICctbWV0YWxfYmluZGluZycsICctaW1hZScsICc8aW5maWxlLm1hZT4nLCAnLW9tYWUnLCAnPG91dGZpbGUubWFlPic=

> <r_lp_tautomer_probability>
1

> <r_epik_Ionization_Penalty>
0.176977

> <r_epik_Ionization_Penalty_Charging>
0.176977

> <r_epik_Ionization_Penalty_Neutral>
1.44272e-07

> <r_epik_State_Penalty>
0.160849

> <r_epik_Charging_Adjusted_Penalty>
0.337826

> <i_epik_Tot_Q>
-1

> <i_epik_Tot_abs_Q>
1

> <r_epik_Metal_State_Penalty>
0.16085

> <b_epik_Metal_Only>
0

> <s_lp_Force_Field>
OPLS_2005

> <r_lp_Energy>
43.1089

> <b_lp_Chiralities_Consistent>
1

> <s_lp_Variant>
AV-unprocessed.smi:2695-1

> <Gold.Version>
5.8.1

> <Gold.Id.Protein>
6NUR|6NUR_protein|mol2

> <Gold.PLP.Fitness>
36.1499

> <Gold.PLP.PLP>
-29.2178

> <Gold.PLP.part.hbond>
-2.9301

> <Gold.PLP.part.metal>
0.0000

> <Gold.PLP.part.buried>
-0.5873

> <Gold.PLP.part.nonpolar>
-25.9177

> <Gold.PLP.part.repulsive>
0.2375

> <Gold.PLP.ligand.clash>
0.0000

> <Gold.PLP.ligand.torsion>
1.1490

> <Gold.PLP.Chemscore.Hbond>
2.9750

> <Gold.PLP.Chemscore.CHOScore>
0.0000

> <Gold.PLP.Chemscore.Metal>
0.0000

> <Gold.Chemscore.Hbonds>
donor molecule, donor type, donor heavy atom, donor atom, acceptor molecule, acceptor atom, score
      L1  H    13    31       P1  8029  0.85
      P1  H  7997  8009       L1     5  1.58

> <Gold.PLP.Chemscore.Internal.Correction>
0.3051

> <Gold.Rescore>
     Score         DG    S(hbond)    S(metal)    S(lipo)     H(rot)  DE(clash)    DE(int)     intcor
     10.21     -15.74       2.22        0.00      62.76       1.75       2.66       2.87       ----

> <Gold.Chemscore.Fitness>
10.2070

> <Gold.Chemscore.DG>
-15.7407

> <Gold.Chemscore.ZeroCoef>
-5.4800

> <Gold.Chemscore.Hbond>
2.2179

> <Gold.Chemscore.Metal>
0.0000

> <Gold.Chemscore.Lipo>
62.7585

> <Gold.Chemscore.Internal_Hbond>
0.0000

> <Gold.Chemscore.DEClash>
2.6599

> <Gold.Chemscore.DEInternal>
2.8738

> <Gold.Chemscore.Rot>
1.7539

> <Gold.Chemscore.Internal.Correction>
   9.000000E+99

> <Gold.Chemscore.Hbonds>
donor molecule, donor type, donor heavy atom, donor atom, acceptor molecule, acceptor atom, score
      L1  H    13    31       P1  8029  0.15
      P1  H  6934  6946       L1    12  0.01
      P1  H  7997  8009       L1     5  0.15

> <Gold.Chemscore.Hbond.Weighted>
-7.4079

> <Gold.Chemscore.Metal.Weighted>
-0.0000

> <Gold.Chemscore.Lipo.Weighted>
-7.3427

> <Gold.Chemscore.Internal_Hbond.Weighted>
0.0000

> <Gold.Chemscore.DEClash.Weighted>
2.6599

> <Gold.Chemscore.DEInternal.Weighted>
2.8738

> <Gold.Chemscore.Rot.Weighted>
4.4899

> <Gold.Chemscore.Internal.Correction.Weighted>
   9.000000E+99

> <Gold.Protein.RotatedTorsions>
[ 6907 6896 6895 6894 ] final  -57.19 input  -60.11 | X-H torsion
[ 7974 7965 7964 7962 ] final  -92.46 input  175.53 | X-H torsion
[ 8008 7997 7996 7995 ] final -154.34 input   59.86 | X-H torsion
[ 10167 10162 10161 10158 ] final  -40.27 input  -65.29 | X-H torsion
[ 10718 10713 10712 10709 ] final   81.54 input   66.30 | X-H torsion
[ 10763 10752 10751 10750 ] final  -63.62 input  -60.55 | X-H torsion
[ 11005 11000 10999 10996 ] final  104.71 input  -57.11 | X-H torsion

> <Gold.Protein.ActiveResidues>
 VAL166  LYS551  ARG553  GLY616  TRP617  ASP618  TYR619  PRO620  LYS621  CYS622 
 ASP623  PHE694  ASN695  SER759  ASP760  ASP761  ALA762  ILE779  LEU786  VAL792 
 PHE793  MET794  SER795  GLU796  ALA797  LYS798  CYS799  TRP800  GLU811  SER814 

> <Gold.Protein.RotatedAtoms>
  150.8106  134.7259  159.6684 H   0  0  0  0  0  0  0  0  0  0  0  0  # atno 6907 bound_to 6896
  152.4226  134.5924  159.9987 H   0  0  0  0  0  0  0  0  0  0  0  0  # atno 6908 bound_to 6896
  151.6135  133.3308  159.3108 H   0  0  0  0  0  0  0  0  0  0  0  0  # atno 6909 bound_to 6896
  145.3995  140.9536  143.2295 H   0  0  0  0  0  0  0  0  0  0  0  0  # atno 7974 bound_to 7965
  155.6849  140.0748  157.2470 H   0  0  0  0  0  0  0  0  0  0  0  0  # atno 8008 bound_to 7997
  154.4099  140.1675  156.2075 H   0  0  0  0  0  0  0  0  0  0  0  0  # atno 8009 bound_to 7997
  155.9502  140.3378  155.6404 H   0  0  0  0  0  0  0  0  0  0  0  0  # atno 8010 bound_to 7997
  140.7039  143.3163  151.2901 H   0  0  0  0  0  0  0  0  0  0  0  0  # atno 10167 bound_to 10162
  157.6835  131.0008  150.2241 H   0  0  0  0  0  0  0  0  0  0  0  0  # atno 10718 bound_to 10713
  154.3177  135.6202  153.5494 H   0  0  0  0  0  0  0  0  0  0  0  0  # atno 10763 bound_to 10752
  152.9823  135.5716  154.5105 H   0  0  0  0  0  0  0  0  0  0  0  0  # atno 10764 bound_to 10752
  154.4767  135.2861  155.1578 H   0  0  0  0  0  0  0  0  0  0  0  0  # atno 10765 bound_to 10752
  139.8794  134.9310  156.5403 H   0  0  0  0  0  0  0  0  0  0  0  0  # atno 11005 bound_to 11000
  144.8384  139.5513  143.6912 LP  0  0  0  0  0  0  0  0  0  0  0  0  # atno 17320 bound_to 7965
  146.2759  139.6750  142.9263 LP  0  0  0  0  0  0  0  0  0  0  0  0  # atno 17321 bound_to 7965
  139.6603  144.0201  152.2688 LP  0  0  0  0  0  0  0  0  0  0  0  0  # atno 17342 bound_to 10162
  139.9766  144.6457  150.7939 LP  0  0  0  0  0  0  0  0  0  0  0  0  # atno 17343 bound_to 10162
  156.2887  130.3743  149.7863 LP  0  0  0  0  0  0  0  0  0  0  0  0  # atno 17370 bound_to 10713
  156.5529  130.8350  151.3305 LP  0  0  0  0  0  0  0  0  0  0  0  0  # atno 17371 bound_to 10713
  140.8315  133.8275  155.8988 LP  0  0  0  0  0  0  0  0  0  0  0  0  # atno 17394 bound_to 11000
  140.9324  134.2005  157.4855 LP  0  0  0  0  0  0  0  0  0  0  0  0  # atno 17395 bound_to 11000

$$$$
