AV-unprocessed.smi:657|AV-procd|sdf|3227|dock6
  -GOLD-   22720 0163D 1   1.00000     0.00000
 Structure written by MMmdl.
 46 47  0  0  0  0  0  0  0  0  3 V2000
  146.9935  139.0474  151.4567 C   0  0  0  0  0  0  0  0  0  0  0  0
  146.9440  138.8254  152.9839 C   0  0  0  0  0  0  0  0  0  0  0  0
  146.1985  137.5016  153.2542 C   0  0  0  0  0  0  0  0  0  0  0  0
  146.3337  139.9864  153.7193 N   0  3  1  0  0  0  0  0  0  0  0  0
  145.6903  139.6147  155.0196 C   0  0  0  0  0  0  0  0  0  0  0  0
  144.9546  140.7955  155.6768 C   0  0  0  0  0  0  0  0  0  0  0  0
  145.8711  142.0072  155.8487 C   0  0  0  0  0  0  0  0  0  0  0  0
  146.4471  142.3865  154.4814 C   0  0  0  0  0  0  0  0  0  0  0  0
  147.2015  141.2123  153.8163 C   0  0  1  0  0  0  0  0  0  0  0  0
  148.5866  140.9893  154.4739 C   0  0  0  0  0  0  0  0  0  0  0  0
  149.6110  141.2503  153.8343 O   0  0  0  0  0  0  0  0  0  0  0  0
  148.4507  140.4796  155.7302 N   0  5  0  0  0  0  0  0  0  0  0  0
  149.4302  140.6765  156.8009 C   0  0  0  0  0  0  0  0  0  0  0  0
  149.2950  142.0888  157.4162 C   0  0  0  0  0  0  0  0  0  0  0  0
  150.5592  142.5972  158.0746 C   0  0  0  0  0  0  0  0  0  0  0  0
  151.2657  143.8116  157.8272 C   0  0  0  0  0  0  0  0  0  0  0  0
  152.3581  143.9332  158.5641 N   0  0  0  0  0  0  0  0  0  0  0  0
  152.3845  142.8111  159.3114 N   0  0  0  0  0  0  0  0  0  0  0  0
  153.4700  142.5982  160.2438 C   0  0  0  0  0  0  0  0  0  0  0  0
  151.3058  141.9958  159.0496 C   0  0  0  0  0  0  0  0  0  0  0  0
  147.3498  138.1546  150.9423 H   0  0  0  0  0  0  0  0  0  0  0  0
  147.6772  139.8480  151.1757 H   0  0  0  0  0  0  0  0  0  0  0  0
  146.0075  139.2855  151.0564 H   0  0  0  0  0  0  0  0  0  0  0  0
  147.9690  138.6949  153.3330 H   0  0  0  0  0  0  0  0  0  0  0  0
  146.5727  136.7030  152.6129 H   0  0  0  0  0  0  0  0  0  0  0  0
  145.1294  137.5998  153.0641 H   0  0  0  0  0  0  0  0  0  0  0  0
  146.3350  137.1511  154.2766 H   0  0  0  0  0  0  0  0  0  0  0  0
  144.9446  138.8374  154.8670 H   0  0  0  0  0  0  0  0  0  0  0  0
  146.4249  139.1966  155.7066 H   0  0  0  0  0  0  0  0  0  0  0  0
  144.0945  141.0736  155.0663 H   0  0  0  0  0  0  0  0  0  0  0  0
  144.5579  140.4913  156.6459 H   0  0  0  0  0  0  0  0  0  0  0  0
  145.3149  142.8456  156.2684 H   0  0  0  0  0  0  0  0  0  0  0  0
  146.6709  141.7800  156.5543 H   0  0  0  0  0  0  0  0  0  0  0  0
  145.6349  142.7062  153.8273 H   0  0  0  0  0  0  0  0  0  0  0  0
  147.1013  143.2530  154.5827 H   0  0  0  0  0  0  0  0  0  0  0  0
  147.3663  141.5461  152.7910 H   0  0  0  0  0  0  0  0  0  0  0  0
  149.3424  139.9313  157.5929 H   0  0  0  0  0  0  0  0  0  0  0  0
  150.4442  140.5643  156.4170 H   0  0  0  0  0  0  0  0  0  0  0  0
  148.9864  142.7765  156.6286 H   0  0  0  0  0  0  0  0  0  0  0  0
  148.4701  142.0853  158.1298 H   0  0  0  0  0  0  0  0  0  0  0  0
  151.0240  144.5961  157.1252 H   0  0  0  0  0  0  0  0  0  0  0  0
  153.4371  141.5780  160.6273 H   0  0  0  0  0  0  0  0  0  0  0  0
  153.3811  143.2958  161.0771 H   0  0  0  0  0  0  0  0  0  0  0  0
  154.4258  142.7553  159.7428 H   0  0  0  0  0  0  0  0  0  0  0  0
  151.1663  141.0539  159.5592 H   0  0  0  0  0  0  0  0  0  0  0  0
  145.5646  140.2804  153.1355 H   0  0  0  0  0  0  0  0  0  0  0  0
  1  2  1  0  0  0  0
  1 21  1  0  0  0  0
  1 22  1  0  0  0  0
  1 23  1  0  0  0  0
  2  3  1  0  0  0  0
  2  4  1  0  0  0  0
  2 24  1  0  0  0  0
  3 25  1  0  0  0  0
  3 26  1  0  0  0  0
  3 27  1  0  0  0  0
  4  9  1  0  0  0  0
  4  5  1  0  0  0  0
  4 46  1  0  0  0  0
  5  6  1  0  0  0  0
  5 28  1  0  0  0  0
  5 29  1  0  0  0  0
  6  7  1  0  0  0  0
  6 30  1  0  0  0  0
  6 31  1  0  0  0  0
  7  8  1  0  0  0  0
  7 32  1  0  0  0  0
  7 33  1  0  0  0  0
  8  9  1  0  0  0  0
  8 34  1  0  0  0  0
  8 35  1  0  0  0  0
  9 10  1  0  0  0  0
  9 36  1  0  0  0  0
 10 11  2  0  0  0  0
 10 12  1  0  0  0  0
 12 13  1  0  0  0  0
 13 14  1  0  0  0  0
 13 37  1  0  0  0  0
 13 38  1  0  0  0  0
 14 15  1  0  0  0  0
 14 39  1  0  0  0  0
 14 40  1  0  0  0  0
 15 20  2  0  0  0  0
 15 16  1  0  0  0  0
 16 17  2  0  0  0  0
 16 41  1  0  0  0  0
 17 18  1  0  0  0  0
 18 19  1  0  0  0  0
 18 20  1  0  0  0  0
 19 42  1  0  0  0  0
 19 43  1  0  0  0  0
 19 44  1  0  0  0  0
 20 45  1  0  0  0  0
M  CHG  1   4   1
M  CHG  1  12  -1
M  END
> <s_m_source_file>
AV-unprocessed.smi

> <i_m_source_file_index>
657

> <i_lp_mmshare_version>
43012

> <i_f3d_flags>
0

> <s_epik_input>
W0NIM11bQ0hdKFtDSDNdKU4xW0NIMl1bQ0gyXVtDSDJdW0NIMl1bQ0BIXTFDKD1PKVtOSF1bQ0gyXVtDSDJdYzJbY0hdbm4oW0NIM10pW2NIXTI=

> <s_epik_cmdline>
J2VwaWtfcHl0aG9uJywgJy1waCcsICc3LjAnLCAnLXRuJywgJzgnLCAnLW1hJywgJzIwMCcsICctbWV0YWxfYmluZGluZycsICctaW1hZScsICc8aW5maWxlLm1hZT4nLCAnLW9tYWUnLCAnPG91dGZpbGUubWFlPic=

> <r_lp_tautomer_probability>
1

> <r_epik_Ionization_Penalty>
6.1622

> <r_epik_Ionization_Penalty_Charging>
6.16146

> <r_epik_Ionization_Penalty_Neutral>
0.00073675

> <r_epik_State_Penalty>
6.18018

> <r_epik_Charging_Adjusted_Penalty>
12.3416

> <i_epik_Tot_Q>
0

> <i_epik_Tot_abs_Q>
2

> <r_epik_Metal_State_Penalty>
2.12232

> <b_epik_Metal_Only>
1

> <s_lp_Force_Field>
OPLS_2005

> <r_lp_Energy>
12.187

> <b_lp_Chiralities_Consistent>
1

> <s_lp_Variant>
AV-unprocessed.smi:657-8

> <Gold.Version>
5.8.1

> <Gold.Id.Protein>
6NUR|6NUR_protein|mol2

> <Gold.PLP.Fitness>
46.0194

> <Gold.PLP.PLP>
-36.2019

> <Gold.PLP.part.hbond>
-3.0000

> <Gold.PLP.part.metal>
0.0000

> <Gold.PLP.part.buried>
-2.5951

> <Gold.PLP.part.nonpolar>
-32.6852

> <Gold.PLP.part.repulsive>
2.2053

> <Gold.PLP.ligand.clash>
0.7078

> <Gold.PLP.ligand.torsion>
0.9880

> <Gold.PLP.Chemscore.Hbond>
3.1242

> <Gold.PLP.Chemscore.CHOScore>
0.9517

> <Gold.PLP.Chemscore.Metal>
0.0000

> <Gold.Chemscore.Hbonds>
donor molecule, donor type, donor heavy atom, donor atom, acceptor molecule, acceptor atom, score
      L1  H     4    46       P1 10175  2.00
      P1  H  7989  7998       L1    11  0.26
      P1  H  8011  8017       L1    11  0.83
      L1  C    16    41       P1  8028  0.88

> <Gold.PLP.Chemscore.Internal.Correction>
0.2737

> <Gold.Rescore>
     Score         DG    S(hbond)    S(metal)    S(lipo)     H(rot)  DE(clash)    DE(int)     intcor
     12.98     -17.88       1.96        0.00      84.35       1.57       2.21       2.69       ----

> <Gold.Chemscore.Fitness>
12.9787

> <Gold.Chemscore.DG>
-17.8783

> <Gold.Chemscore.ZeroCoef>
-5.4800

> <Gold.Chemscore.Hbond>
1.9637

> <Gold.Chemscore.Metal>
0.0000

> <Gold.Chemscore.Lipo>
84.3517

> <Gold.Chemscore.Internal_Hbond>
0.0000

> <Gold.Chemscore.DEClash>
2.2051

> <Gold.Chemscore.DEInternal>
2.6945

> <Gold.Chemscore.Rot>
1.5741

> <Gold.Chemscore.Internal.Correction>
   9.000000E+99

> <Gold.Chemscore.Hbonds>
donor molecule, donor type, donor heavy atom, donor atom, acceptor molecule, acceptor atom, score
      L1  H     4    46       P1 10175  0.93
      P1  H  7989  7998       L1    11  0.26
      P1  H  8011  8017       L1    11  0.83

> <Gold.Chemscore.Hbond.Weighted>
-6.5588

> <Gold.Chemscore.Metal.Weighted>
-0.0000

> <Gold.Chemscore.Lipo.Weighted>
-9.8691

> <Gold.Chemscore.Internal_Hbond.Weighted>
0.0000

> <Gold.Chemscore.DEClash.Weighted>
2.2051

> <Gold.Chemscore.DEInternal.Weighted>
2.6945

> <Gold.Chemscore.Rot.Weighted>
4.0297

> <Gold.Chemscore.Internal.Correction.Weighted>
   9.000000E+99

> <Gold.Protein.RotatedTorsions>
[ 6907 6896 6895 6894 ] final -136.97 input  -60.11 | X-H torsion
[ 7974 7965 7964 7962 ] final   38.94 input  175.53 | X-H torsion
[ 8008 7997 7996 7995 ] final  129.60 input   59.86 | X-H torsion
[ 10167 10162 10161 10158 ] final  -10.54 input  -65.29 | X-H torsion
[ 10718 10713 10712 10709 ] final  -70.79 input   66.30 | X-H torsion
[ 10763 10752 10751 10750 ] final -159.08 input  -60.55 | X-H torsion
[ 11005 11000 10999 10996 ] final  -87.44 input  -57.11 | X-H torsion

> <Gold.Protein.ActiveResidues>
 VAL166  LYS551  ARG553  GLY616  TRP617  ASP618  TYR619  PRO620  LYS621  CYS622 
 ASP623  PHE694  ASN695  SER759  ASP760  ASP761  ALA762  ILE779  LEU786  VAL792 
 PHE793  MET794  SER795  GLU796  ALA797  LYS798  CYS799  TRP800  GLU811  SER814 

> <Gold.Protein.RotatedAtoms>
  151.0166  133.5915  159.2675 H   0  0  0  0  0  0  0  0  0  0  0  0  # atno 6907 bound_to 6896
  151.3047  135.0777  159.9261 H   0  0  0  0  0  0  0  0  0  0  0  0  # atno 6908 bound_to 6896
  152.5313  133.9842  159.7874 H   0  0  0  0  0  0  0  0  0  0  0  0  # atno 6909 bound_to 6896
  146.1023  139.5712  142.9406 H   0  0  0  0  0  0  0  0  0  0  0  0  # atno 7974 bound_to 7965
  156.2939  140.2616  156.2625 H   0  0  0  0  0  0  0  0  0  0  0  0  # atno 8008 bound_to 7997
  154.9775  140.0390  157.2281 H   0  0  0  0  0  0  0  0  0  0  0  0  # atno 8009 bound_to 7997
  154.7802  140.2794  155.6074 H   0  0  0  0  0  0  0  0  0  0  0  0  # atno 8010 bound_to 7997
  140.7116  143.5737  150.9065 H   0  0  0  0  0  0  0  0  0  0  0  0  # atno 10167 bound_to 10162
  156.0392  130.4338  150.2347 H   0  0  0  0  0  0  0  0  0  0  0  0  # atno 10718 bound_to 10713
  154.7504  135.3091  154.8567 H   0  0  0  0  0  0  0  0  0  0  0  0  # atno 10763 bound_to 10752
  153.9356  135.6780  153.4749 H   0  0  0  0  0  0  0  0  0  0  0  0  # atno 10764 bound_to 10752
  153.1101  135.4871  154.8947 H   0  0  0  0  0  0  0  0  0  0  0  0  # atno 10765 bound_to 10752
  141.1617  133.7511  156.9307 H   0  0  0  0  0  0  0  0  0  0  0  0  # atno 11005 bound_to 11000
  145.5830  141.0380  143.2112 LP  0  0  0  0  0  0  0  0  0  0  0  0  # atno 17320 bound_to 7965
  144.7443  139.7364  143.7298 LP  0  0  0  0  0  0  0  0  0  0  0  0  # atno 17321 bound_to 7965
  139.9463  143.6324  152.3041 LP  0  0  0  0  0  0  0  0  0  0  0  0  # atno 17342 bound_to 10162
  139.6826  144.7654  151.1580 LP  0  0  0  0  0  0  0  0  0  0  0  0  # atno 17343 bound_to 10162
  157.0444  131.0044  151.3273 LP  0  0  0  0  0  0  0  0  0  0  0  0  # atno 17370 bound_to 10713
  157.5186  130.7984  149.7784 LP  0  0  0  0  0  0  0  0  0  0  0  0  # atno 17371 bound_to 10713
  140.1388  134.9307  157.2439 LP  0  0  0  0  0  0  0  0  0  0  0  0  # atno 17394 bound_to 11000
  140.2862  134.3293  155.7328 LP  0  0  0  0  0  0  0  0  0  0  0  0  # atno 17395 bound_to 11000

$$$$
