AV-unprocessed.smi:2186|AV-procd|sdf|8877|dock3
  -GOLD-   2272012 73D 1   1.00000     0.00000
 Structure written by MMmdl.
 44 45  0  0  0  0  0  0  0  0  2 V2000
  152.2499  144.0404  161.2410 C   0  0  0  0  0  0  0  0  0  0  0  0
  152.5652  143.8343  159.7526 C   0  0  0  0  0  0  0  0  0  0  0  0
  152.0603  144.9818  158.8647 C   0  0  0  0  0  0  0  0  0  0  0  0
  152.1001  142.5018  159.2567 C   0  0  0  0  0  0  0  0  0  0  0  0
  151.1622  142.3499  158.3180 N   0  0  0  0  0  0  0  0  0  0  0  0
  150.9327  141.0089  157.9881 C   0  0  0  0  0  0  0  0  0  0  0  0
  149.9413  140.6500  156.9142 C   0  0  0  0  0  0  0  0  0  0  0  0
  150.6327  139.9229  155.7560 C   0  0  0  0  0  0  0  0  0  0  0  0
  151.6836  140.3637  155.2911 O   0  0  0  0  0  0  0  0  0  0  0  0
  150.0502  138.7951  155.3178 N   0  0  0  0  0  0  0  0  0  0  0  0
  150.6364  137.8758  154.3517 C   0  0  0  0  0  0  0  0  0  0  0  0
  150.6907  136.4468  154.9268 C   0  0  0  0  0  0  0  0  0  0  0  0
  149.5220  135.6227  154.5314 N   0  3  0  0  0  0  0  0  0  0  0  0
  149.7719  134.1731  154.7182 C   0  0  0  0  0  0  0  0  0  0  0  0
  148.5587  133.3509  154.2526 C   0  0  0  0  0  0  0  0  0  0  0  0
  147.4024  133.7653  154.9686 O   0  0  0  0  0  0  0  0  0  0  0  0
  147.0931  135.1326  154.7306 C   0  0  0  0  0  0  0  0  0  0  0  0
  148.2586  136.0198  155.2019 C   0  0  0  0  0  0  0  0  0  0  0  0
  151.6977  140.1376  158.7236 C   0  0  0  0  0  0  0  0  0  0  0  0
  152.7488  140.9717  159.8355 S   0  0  0  0  0  0  0  0  0  0  0  0
  152.6893  143.2481  161.8481 H   0  0  0  0  0  0  0  0  0  0  0  0
  151.1747  144.0417  161.4228 H   0  0  0  0  0  0  0  0  0  0  0  0
  152.6480  144.9901  161.5991 H   0  0  0  0  0  0  0  0  0  0  0  0
  153.6524  143.8326  159.6656 H   0  0  0  0  0  0  0  0  0  0  0  0
  152.3733  144.8435  157.8293 H   0  0  0  0  0  0  0  0  0  0  0  0
  152.4508  145.9417  159.2033 H   0  0  0  0  0  0  0  0  0  0  0  0
  150.9714  145.0437  158.8774 H   0  0  0  0  0  0  0  0  0  0  0  0
  149.1541  140.0074  157.3103 H   0  0  0  0  0  0  0  0  0  0  0  0
  149.4485  141.5477  156.5386 H   0  0  0  0  0  0  0  0  0  0  0  0
  149.1815  138.5135  155.7494 H   0  0  0  0  0  0  0  0  0  0  0  0
  150.0192  137.9122  153.4549 H   0  0  0  0  0  0  0  0  0  0  0  0
  151.6324  138.2145  154.0612 H   0  0  0  0  0  0  0  0  0  0  0  0
  151.5971  135.9621  154.5605 H   0  0  0  0  0  0  0  0  0  0  0  0
  150.7757  136.4714  156.0147 H   0  0  0  0  0  0  0  0  0  0  0  0
  150.6553  133.8723  154.1537 H   0  0  0  0  0  0  0  0  0  0  0  0
  149.9786  133.9697  155.7702 H   0  0  0  0  0  0  0  0  0  0  0  0
  148.3986  133.4637  153.1789 H   0  0  0  0  0  0  0  0  0  0  0  0
  148.7290  132.2905  154.4395 H   0  0  0  0  0  0  0  0  0  0  0  0
  146.8840  135.2920  153.6715 H   0  0  0  0  0  0  0  0  0  0  0  0
  146.1841  135.3874  155.2759 H   0  0  0  0  0  0  0  0  0  0  0  0
  148.3758  135.9342  156.2834 H   0  0  0  0  0  0  0  0  0  0  0  0
  148.0219  137.0609  154.9867 H   0  0  0  0  0  0  0  0  0  0  0  0
  151.7137  139.0588  158.6731 H   0  0  0  0  0  0  0  0  0  0  0  0
  149.3906  135.7624  153.5397 H   0  0  0  0  0  0  0  0  0  0  0  0
  1  2  1  0  0  0  0
  1 21  1  0  0  0  0
  1 22  1  0  0  0  0
  1 23  1  0  0  0  0
  2  3  1  0  0  0  0
  2  4  1  0  0  0  0
  2 24  1  0  0  0  0
  3 25  1  0  0  0  0
  3 26  1  0  0  0  0
  3 27  1  0  0  0  0
  4 20  1  0  0  0  0
  4  5  2  0  0  0  0
  5  6  1  0  0  0  0
  6  7  1  0  0  0  0
  6 19  2  0  0  0  0
  7  8  1  0  0  0  0
  7 28  1  0  0  0  0
  7 29  1  0  0  0  0
  8  9  2  0  0  0  0
  8 10  1  0  0  0  0
 10 11  1  0  0  0  0
 10 30  1  0  0  0  0
 11 12  1  0  0  0  0
 11 31  1  0  0  0  0
 11 32  1  0  0  0  0
 12 13  1  0  0  0  0
 12 33  1  0  0  0  0
 12 34  1  0  0  0  0
 13 18  1  0  0  0  0
 13 14  1  0  0  0  0
 13 44  1  0  0  0  0
 14 15  1  0  0  0  0
 14 35  1  0  0  0  0
 14 36  1  0  0  0  0
 15 16  1  0  0  0  0
 15 37  1  0  0  0  0
 15 38  1  0  0  0  0
 16 17  1  0  0  0  0
 17 18  1  0  0  0  0
 17 39  1  0  0  0  0
 17 40  1  0  0  0  0
 18 41  1  0  0  0  0
 18 42  1  0  0  0  0
 19 20  1  0  0  0  0
 19 43  1  0  0  0  0
M  CHG  1  13   1
M  END
> <s_m_source_file>
AV-unprocessed.smi

> <i_m_source_file_index>
2186

> <i_lp_mmshare_version>
43012

> <i_f3d_flags>
0

> <s_epik_input>
W0NIM11bQ0hdKFtDSDNdKWMxbmMoW2NIXXMxKVtDSDJdQyg9TylbTkhdW0NIMl1bQ0gyXU4yW0NIMl1bQ0gyXU9bQ0gyXVtDSDJdMg==

> <s_epik_cmdline>
J2VwaWtfcHl0aG9uJywgJy1waCcsICc3LjAnLCAnLXRuJywgJzgnLCAnLW1hJywgJzIwMCcsICctbWV0YWxfYmluZGluZycsICctaW1hZScsICc8aW5maWxlLm1hZT4nLCAnLW9tYWUnLCAnPG91dGZpbGUubWFlPic=

> <r_epik_Ionization_Penalty>
0.678862

> <r_epik_Ionization_Penalty_Charging>
0.678842

> <r_epik_Ionization_Penalty_Neutral>
2.00527e-05

> <r_epik_State_Penalty>
0.699693

> <r_epik_Charging_Adjusted_Penalty>
1.37854

> <i_epik_Tot_Q>
1

> <i_epik_Tot_abs_Q>
1

> <r_epik_Metal_State_Penalty>
0.699708

> <b_epik_Metal_Only>
0

> <s_lp_Force_Field>
OPLS_2005

> <r_lp_Energy>
6.68048

> <b_lp_Chiralities_Consistent>
1

> <s_lp_Variant>
AV-unprocessed.smi:2186-2

> <Gold.Version>
5.8.1

> <Gold.Id.Protein>
6NUR|6NUR_protein|mol2

> <Gold.PLP.Fitness>
45.6581

> <Gold.PLP.PLP>
-38.3905

> <Gold.PLP.part.hbond>
-2.0000

> <Gold.PLP.part.metal>
0.0000

> <Gold.PLP.part.buried>
-4.5564

> <Gold.PLP.part.nonpolar>
-32.6256

> <Gold.PLP.part.repulsive>
0.1919

> <Gold.PLP.ligand.clash>
0.0000

> <Gold.PLP.ligand.torsion>
0.6518

> <Gold.PLP.Chemscore.Hbond>
2.8160

> <Gold.PLP.Chemscore.CHOScore>
0.0000

> <Gold.PLP.Chemscore.Metal>
0.0000

> <Gold.Chemscore.Hbonds>
donor molecule, donor type, donor heavy atom, donor atom, acceptor molecule, acceptor atom, score
      L1  H    13    44       P1  7948  2.00
      P1  H  7989  7998       L1     9  0.83

> <Gold.PLP.Chemscore.Internal.Correction>
0.1231

> <Gold.Rescore>
     Score         DG    S(hbond)    S(metal)    S(lipo)     H(rot)  DE(clash)    DE(int)     intcor
     17.76     -18.57       1.88        0.00      97.98       1.82       0.20       0.61       ----

> <Gold.Chemscore.Fitness>
17.7559

> <Gold.Chemscore.DG>
-18.5688

> <Gold.Chemscore.ZeroCoef>
-5.4800

> <Gold.Chemscore.Hbond>
1.8829

> <Gold.Chemscore.Metal>
0.0000

> <Gold.Chemscore.Lipo>
97.9780

> <Gold.Chemscore.Internal_Hbond>
0.0000

> <Gold.Chemscore.DEClash>
0.2003

> <Gold.Chemscore.DEInternal>
0.6125

> <Gold.Chemscore.Rot>
1.8217

> <Gold.Chemscore.Internal.Correction>
   9.000000E+99

> <Gold.Chemscore.Hbonds>
donor molecule, donor type, donor heavy atom, donor atom, acceptor molecule, acceptor atom, score
      L1  H    13    44       P1  7948  0.40
      P1  H  7989  7998       L1     9  0.78

> <Gold.Chemscore.Hbond.Weighted>
-6.2889

> <Gold.Chemscore.Metal.Weighted>
-0.0000

> <Gold.Chemscore.Lipo.Weighted>
-11.4634

> <Gold.Chemscore.Internal_Hbond.Weighted>
0.0000

> <Gold.Chemscore.DEClash.Weighted>
0.2003

> <Gold.Chemscore.DEInternal.Weighted>
0.6125

> <Gold.Chemscore.Rot.Weighted>
4.6635

> <Gold.Chemscore.Internal.Correction.Weighted>
   9.000000E+99

> <Gold.Protein.RotatedTorsions>
[ 6907 6896 6895 6894 ] final   85.04 input  -60.11 | X-H torsion
[ 7974 7965 7964 7962 ] final   23.11 input  175.53 | X-H torsion
[ 8008 7997 7996 7995 ] final -126.13 input   59.86 | X-H torsion
[ 10167 10162 10161 10158 ] final   23.97 input  -65.29 | X-H torsion
[ 10718 10713 10712 10709 ] final   34.05 input   66.30 | X-H torsion
[ 10763 10752 10751 10750 ] final  -37.42 input  -60.55 | X-H torsion
[ 11005 11000 10999 10996 ] final   17.64 input  -57.11 | X-H torsion

> <Gold.Protein.ActiveResidues>
 VAL166  LYS551  ARG553  GLY616  TRP617  ASP618  TYR619  PRO620  LYS621  CYS622 
 ASP623  PHE694  ASN695  SER759  ASP760  ASP761  ALA762  ILE779  LEU786  VAL792 
 PHE793  MET794  SER795  GLU796  ALA797  LYS798  CYS799  TRP800  GLU811  SER814 

> <Gold.Protein.RotatedAtoms>
  152.5366  134.2648  159.8948 H   0  0  0  0  0  0  0  0  0  0  0  0  # atno 6907 bound_to 6896
  151.2606  133.4297  159.2623 H   0  0  0  0  0  0  0  0  0  0  0  0  # atno 6908 bound_to 6896
  151.0456  134.9652  159.8241 H   0  0  0  0  0  0  0  0  0  0  0  0  # atno 6909 bound_to 6896
  146.1999  139.7790  142.8769 H   0  0  0  0  0  0  0  0  0  0  0  0  # atno 7974 bound_to 7965
  155.2246  140.0423  157.2953 H   0  0  0  0  0  0  0  0  0  0  0  0  # atno 8008 bound_to 7997
  154.5927  140.2431  155.7869 H   0  0  0  0  0  0  0  0  0  0  0  0  # atno 8009 bound_to 7997
  156.2270  140.2951  156.0100 H   0  0  0  0  0  0  0  0  0  0  0  0  # atno 8010 bound_to 7997
  140.5226  143.9977  150.6424 H   0  0  0  0  0  0  0  0  0  0  0  0  # atno 10167 bound_to 10162
  157.3055  130.7372  149.6692 H   0  0  0  0  0  0  0  0  0  0  0  0  # atno 10718 bound_to 10713
  153.8960  135.6807  153.4758 H   0  0  0  0  0  0  0  0  0  0  0  0  # atno 10763 bound_to 10752
  153.1155  135.4763  154.9106 H   0  0  0  0  0  0  0  0  0  0  0  0  # atno 10764 bound_to 10752
  154.7599  135.3208  154.8352 H   0  0  0  0  0  0  0  0  0  0  0  0  # atno 10765 bound_to 10752
  140.4336  134.1394  155.7683 H   0  0  0  0  0  0  0  0  0  0  0  0  # atno 11005 bound_to 11000
  145.3520  141.0309  143.3333 LP  0  0  0  0  0  0  0  0  0  0  0  0  # atno 17320 bound_to 7965
  144.8660  139.5107  143.6790 LP  0  0  0  0  0  0  0  0  0  0  0  0  # atno 17321 bound_to 7965
  140.3330  143.3066  152.0668 LP  0  0  0  0  0  0  0  0  0  0  0  0  # atno 17342 bound_to 10162
  139.4928  144.6496  151.6704 LP  0  0  0  0  0  0  0  0  0  0  0  0  # atno 17343 bound_to 10162
  155.9674  130.4267  150.4711 LP  0  0  0  0  0  0  0  0  0  0  0  0  # atno 17370 bound_to 10713
  157.2700  131.0585  151.2266 LP  0  0  0  0  0  0  0  0  0  0  0  0  # atno 17371 bound_to 10713
  141.1735  133.8561  157.1496 LP  0  0  0  0  0  0  0  0  0  0  0  0  # atno 17394 bound_to 11000
  140.0117  134.9985  157.0409 LP  0  0  0  0  0  0  0  0  0  0  0  0  # atno 17395 bound_to 11000

$$$$
