AV-unprocessed.smi:193|AV-procd|sdf|1509|dock5
  -GOLD-   2262019343D 1   1.00000     0.00000
 Structure written by MMmdl.
 62 66  0  0  0  0  0  0  0  0  2 V2000
  151.5611  145.2956  159.1434 C   0  0  0  0  0  0  0  0  0  0  0  0
  151.6282  143.7620  159.0745 C   0  0  1  0  0  0  0  0  0  0  0  0
  151.2392  143.2631  157.6689 C   0  0  0  0  0  0  0  0  0  0  0  0
  150.6425  141.9259  157.7083 N   0  0  0  0  0  0  0  0  0  0  0  0
  149.7208  141.6473  156.7538 C   0  0  0  0  0  0  0  0  0  0  0  0
  150.1216  141.3085  155.4994 N   0  0  0  0  0  0  0  0  0  0  0  0
  149.2158  141.0127  154.5620 C   0  0  0  0  0  0  0  0  0  0  0  0
  147.8852  140.9895  154.6648 N   0  0  0  0  0  0  0  0  0  0  0  0
  147.4795  141.3278  155.9222 C   0  0  0  0  0  0  0  0  0  0  0  0
  148.3236  141.6690  157.0157 C   0  0  0  0  0  0  0  0  0  0  0  0
  147.5566  141.9633  158.1362 N   0  0  0  0  0  0  0  0  0  0  0  0
  146.3272  141.7976  157.7301 C   0  0  0  0  0  0  0  0  0  0  0  0
  146.1895  141.4068  156.4170 N   0  0  0  0  0  0  0  0  0  0  0  0
  144.9427  141.1449  155.7146 C   0  0  0  0  0  0  0  0  0  0  0  0
  144.0513  142.3984  155.5345 C   0  0  0  0  0  0  0  0  0  0  0  0
  142.8411  141.9830  154.9243 O   0  0  0  0  0  0  0  0  0  0  0  0
  143.7145  143.0213  156.9039 C   0  0  0  0  0  0  0  0  0  0  0  0
  142.9708  144.3614  156.7639 C   0  0  0  0  0  0  0  0  0  0  0  0
  143.7313  145.2583  155.9637 O   0  0  0  0  0  0  0  0  0  0  0  0
  143.9138  144.7893  154.6332 C   0  0  0  0  0  0  0  0  0  0  0  0
  144.7083  143.4710  154.6380 C   0  0  0  0  0  0  0  0  0  0  0  0
  151.4706  140.7704  158.0490 C   0  0  0  0  0  0  0  0  0  0  0  0
  152.2206  140.9171  159.3814 C   0  0  0  0  0  0  0  0  0  0  0  0
  153.3502  141.8657  159.2382 N   0  3  2  0  0  0  0  0  0  0  0  0
  154.5608  141.4197  159.9638 C   0  0  1  0  0  0  0  0  0  0  0  0
  154.2555  140.7132  161.2640 C   0  0  0  0  0  0  0  0  0  0  0  0
  154.7007  139.9163  160.0564 C   0  0  2  0  0  0  0  0  0  0  0  0
  156.0664  139.2663  160.0343 C   0  0  0  0  0  0  0  0  0  0  0  0
  153.0212  143.2821  159.5449 C   0  0  0  0  0  0  0  0  0  0  0  0
  152.2551  145.7566  158.4397 H   0  0  0  0  0  0  0  0  0  0  0  0
  151.8096  145.6565  160.1420 H   0  0  0  0  0  0  0  0  0  0  0  0
  150.5598  145.6568  158.9068 H   0  0  0  0  0  0  0  0  0  0  0  0
  150.8787  143.3968  159.7787 H   0  0  0  0  0  0  0  0  0  0  0  0
  150.5078  143.9562  157.2495 H   0  0  0  0  0  0  0  0  0  0  0  0
  152.0988  143.2766  156.9975 H   0  0  0  0  0  0  0  0  0  0  0  0
  149.6137  140.7546  153.5914 H   0  0  0  0  0  0  0  0  0  0  0  0
  145.4798  141.9508  158.3826 H   0  0  0  0  0  0  0  0  0  0  0  0
  145.1853  140.7101  154.7439 H   0  0  0  0  0  0  0  0  0  0  0  0
  144.3996  140.3744  156.2633 H   0  0  0  0  0  0  0  0  0  0  0  0
  142.9139  142.1186  153.9919 H   0  0  0  0  0  0  0  0  0  0  0  0
  143.1258  142.3278  157.5054 H   0  0  0  0  0  0  0  0  0  0  0  0
  144.6379  143.1965  157.4574 H   0  0  0  0  0  0  0  0  0  0  0  0
  141.9797  144.2192  156.3304 H   0  0  0  0  0  0  0  0  0  0  0  0
  142.8223  144.8089  157.7468 H   0  0  0  0  0  0  0  0  0  0  0  0
  142.9466  144.6637  154.1441 H   0  0  0  0  0  0  0  0  0  0  0  0
  144.4560  145.5469  154.0672 H   0  0  0  0  0  0  0  0  0  0  0  0
  145.7152  143.6760  155.0035 H   0  0  0  0  0  0  0  0  0  0  0  0
  144.8213  143.1090  153.6154 H   0  0  0  0  0  0  0  0  0  0  0  0
  150.8461  139.8789  158.1133 H   0  0  0  0  0  0  0  0  0  0  0  0
  152.1777  140.5846  157.2392 H   0  0  0  0  0  0  0  0  0  0  0  0
  151.5587  141.1911  160.2038 H   0  0  0  0  0  0  0  0  0  0  0  0
  152.6146  139.9321  159.6358 H   0  0  0  0  0  0  0  0  0  0  0  0
  155.4395  142.0566  159.8755 H   0  0  0  0  0  0  0  0  0  0  0  0
  154.9671  140.8356  162.0784 H   0  0  0  0  0  0  0  0  0  0  0  0
  153.2146  140.6211  161.5690 H   0  0  0  0  0  0  0  0  0  0  0  0
  153.9290  139.3205  159.5715 H   0  0  0  0  0  0  0  0  0  0  0  0
  156.8015  139.8897  160.5442 H   0  0  0  0  0  0  0  0  0  0  0  0
  156.3922  139.1160  159.0051 H   0  0  0  0  0  0  0  0  0  0  0  0
  156.0275  138.2975  160.5325 H   0  0  0  0  0  0  0  0  0  0  0  0
  153.7960  143.9002  159.0895 H   0  0  0  0  0  0  0  0  0  0  0  0
  153.0974  143.4422  160.6216 H   0  0  0  0  0  0  0  0  0  0  0  0
  153.5939  141.8393  158.2582 H   0  0  0  0  0  0  0  0  0  0  0  0
  1  2  1  0  0  0  0
  1 30  1  0  0  0  0
  1 31  1  0  0  0  0
  1 32  1  0  0  0  0
  2 29  1  0  0  0  0
  2  3  1  0  0  0  0
  2 33  1  0  0  0  0
  3  4  1  0  0  0  0
  3 34  1  0  0  0  0
  3 35  1  0  0  0  0
  4  5  1  0  0  0  0
  4 22  1  0  0  0  0
  5 10  1  0  0  0  0
  5  6  2  0  0  0  0
  6  7  1  0  0  0  0
  7  8  2  0  0  0  0
  7 36  1  0  0  0  0
  8  9  1  0  0  0  0
  9 13  1  0  0  0  0
  9 10  2  0  0  0  0
 10 11  1  0  0  0  0
 11 12  2  0  0  0  0
 12 13  1  0  0  0  0
 12 37  1  0  0  0  0
 13 14  1  0  0  0  0
 14 15  1  0  0  0  0
 14 38  1  0  0  0  0
 14 39  1  0  0  0  0
 15 21  1  0  0  0  0
 15 16  1  0  0  0  0
 15 17  1  0  0  0  0
 16 40  1  0  0  0  0
 17 18  1  0  0  0  0
 17 41  1  0  0  0  0
 17 42  1  0  0  0  0
 18 19  1  0  0  0  0
 18 43  1  0  0  0  0
 18 44  1  0  0  0  0
 19 20  1  0  0  0  0
 20 21  1  0  0  0  0
 20 45  1  0  0  0  0
 20 46  1  0  0  0  0
 21 47  1  0  0  0  0
 21 48  1  0  0  0  0
 22 23  1  0  0  0  0
 22 49  1  0  0  0  0
 22 50  1  0  0  0  0
 23 24  1  0  0  0  0
 23 51  1  0  0  0  0
 23 52  1  0  0  0  0
 24 25  1  0  0  0  0
 24 29  1  0  0  0  0
 24 62  1  0  0  0  0
 25 27  1  0  0  0  0
 25 26  1  0  0  0  0
 25 53  1  0  0  0  0
 26 27  1  0  0  0  0
 26 54  1  0  0  0  0
 26 55  1  0  0  0  0
 27 28  1  0  0  0  0
 27 56  1  0  0  0  0
 28 57  1  0  0  0  0
 28 58  1  0  0  0  0
 28 59  1  0  0  0  0
 29 60  1  0  0  0  0
 29 61  1  0  0  0  0
M  CHG  1  24   1
M  END
> <s_m_source_file>
AV-unprocessed.smi

> <i_m_source_file_index>
193

> <i_lp_mmshare_version>
43012

> <i_f3d_flags>
0

> <s_epik_input>
W0NIM11bQ0BASF0xW0NIMl1bQ0BIXTFOKFtDSDJdMilbQ0gyXVtDSDJdTihbQ0gyXVtDQEhdMltDSDNdKWMobltjSF1uMyljKGMzNCluW2NIXW40W0NIMl1DNShbT0hdKVtDSDJdW0NIMl1PW0NIMl1bQ0gyXTU=

> <s_epik_cmdline>
J2VwaWtfcHl0aG9uJywgJy1waCcsICc3LjAnLCAnLXRuJywgJzgnLCAnLW1hJywgJzIwMCcsICctbWV0YWxfYmluZGluZycsICctaW1hZScsICc8aW5maWxlLm1hZT4nLCAnLW9tYWUnLCAnPG91dGZpbGUubWFlPic=

> <r_lp_tautomer_probability>
1

> <r_epik_Ionization_Penalty>
0.0540825

> <r_epik_Ionization_Penalty_Charging>
0.0538476

> <r_epik_Ionization_Penalty_Neutral>
0.000234891

> <r_epik_State_Penalty>
0.0200719

> <r_epik_Charging_Adjusted_Penalty>
0.0739194

> <i_epik_Tot_Q>
1

> <i_epik_Tot_abs_Q>
1

> <r_epik_Metal_State_Penalty>
0.0199414

> <b_epik_Metal_Only>
0

> <s_lp_Force_Field>
OPLS_2005

> <r_lp_Energy>
55.1026

> <b_lp_Chiralities_Consistent>
1

> <s_lp_Variant>
AV-unprocessed.smi:193-14

> <Gold.Version>
5.8.1

> <Gold.Id.Protein>
6NUR|6NUR_protein|mol2

> <Gold.PLP.Fitness>
51.9598

> <Gold.PLP.PLP>
-46.0866

> <Gold.PLP.part.hbond>
-2.1858

> <Gold.PLP.part.metal>
0.0000

> <Gold.PLP.part.buried>
-5.5043

> <Gold.PLP.part.nonpolar>
-39.6138

> <Gold.PLP.part.repulsive>
0.5457

> <Gold.PLP.ligand.clash>
0.0000

> <Gold.PLP.ligand.torsion>
0.9684

> <Gold.PLP.Chemscore.Hbond>
1.0000

> <Gold.PLP.Chemscore.CHOScore>
1.0000

> <Gold.PLP.Chemscore.Metal>
0.0000

> <Gold.Chemscore.Hbonds>
donor molecule, donor type, donor heavy atom, donor atom, acceptor molecule, acceptor atom, score
      L1  H    16    40       P1 10174  0.70
      L1  C     7    36       P1  7957  1.00

> <Gold.PLP.Chemscore.Internal.Correction>
1.8101

> <Gold.Rescore>
     Score         DG    S(hbond)    S(metal)    S(lipo)     H(rot)  DE(clash)    DE(int)     intcor
     14.99     -17.11       0.97        0.00     120.05       2.20       0.12       2.01       ----

> <Gold.Chemscore.Fitness>
14.9857

> <Gold.Chemscore.DG>
-17.1128

> <Gold.Chemscore.ZeroCoef>
-5.4800

> <Gold.Chemscore.Hbond>
0.9650

> <Gold.Chemscore.Metal>
0.0000

> <Gold.Chemscore.Lipo>
120.0525

> <Gold.Chemscore.Internal_Hbond>
0.0000

> <Gold.Chemscore.DEClash>
0.1169

> <Gold.Chemscore.DEInternal>
2.0103

> <Gold.Chemscore.Rot>
2.2018

> <Gold.Chemscore.Internal.Correction>
   9.000000E+99

> <Gold.Chemscore.Hbonds>
donor molecule, donor type, donor heavy atom, donor atom, acceptor molecule, acceptor atom, score
      L1  H    16    40       P1 10174  0.07

> <Gold.Chemscore.Hbond.Weighted>
-3.2232

> <Gold.Chemscore.Metal.Weighted>
-0.0000

> <Gold.Chemscore.Lipo.Weighted>
-14.0461

> <Gold.Chemscore.Internal_Hbond.Weighted>
0.0000

> <Gold.Chemscore.DEClash.Weighted>
0.1169

> <Gold.Chemscore.DEInternal.Weighted>
2.0103

> <Gold.Chemscore.Rot.Weighted>
5.6366

> <Gold.Chemscore.Internal.Correction.Weighted>
   9.000000E+99

> <Gold.Protein.RotatedTorsions>
[ 6907 6896 6895 6894 ] final  167.50 input  -60.11 | X-H torsion
[ 7974 7965 7964 7962 ] final  112.51 input  175.53 | X-H torsion
[ 8008 7997 7996 7995 ] final   92.14 input   59.86 | X-H torsion
[ 10167 10162 10161 10158 ] final   47.82 input  -65.29 | X-H torsion
[ 10718 10713 10712 10709 ] final -158.46 input   66.30 | X-H torsion
[ 10763 10752 10751 10750 ] final   82.45 input  -60.55 | X-H torsion
[ 11005 11000 10999 10996 ] final  117.27 input  -57.11 | X-H torsion

> <Gold.Protein.ActiveResidues>
 VAL166  LYS551  ARG553  GLY616  TRP617  ASP618  TYR619  PRO620  LYS621  CYS622 
 ASP623  PHE694  ASN695  SER759  ASP760  ASP761  ALA762  ILE779  LEU786  VAL792 
 PHE793  MET794  SER795  GLU796  ALA797  LYS798  CYS799  TRP800  GLU811  SER814 

> <Gold.Protein.RotatedAtoms>
  151.8624  133.3459  159.3707 H   0  0  0  0  0  0  0  0  0  0  0  0  # atno 6907 bound_to 6896
  150.7175  134.5193  159.5655 H   0  0  0  0  0  0  0  0  0  0  0  0  # atno 6908 bound_to 6896
  152.2709  134.7934  160.0465 H   0  0  0  0  0  0  0  0  0  0  0  0  # atno 6909 bound_to 6896
  145.2286  139.2829  143.4180 H   0  0  0  0  0  0  0  0  0  0  0  0  # atno 7974 bound_to 7965
  156.0319  140.3329  155.7149 H   0  0  0  0  0  0  0  0  0  0  0  0  # atno 8008 bound_to 7997
  155.5872  140.0642  157.2786 H   0  0  0  0  0  0  0  0  0  0  0  0  # atno 8009 bound_to 7997
  154.4357  140.1833  156.1025 H   0  0  0  0  0  0  0  0  0  0  0  0  # atno 8010 bound_to 7997
  140.2997  144.2949  150.6222 H   0  0  0  0  0  0  0  0  0  0  0  0  # atno 10167 bound_to 10162
  156.5545  130.8620  151.2790 H   0  0  0  0  0  0  0  0  0  0  0  0  # atno 10718 bound_to 10713
  153.1204  135.4727  154.9186 H   0  0  0  0  0  0  0  0  0  0  0  0  # atno 10763 bound_to 10752
  154.7570  135.3121  154.8453 H   0  0  0  0  0  0  0  0  0  0  0  0  # atno 10764 bound_to 10752
  153.9019  135.6874  153.4808 H   0  0  0  0  0  0  0  0  0  0  0  0  # atno 10765 bound_to 10752
  139.9069  134.9608  156.7325 H   0  0  0  0  0  0  0  0  0  0  0  0  # atno 11005 bound_to 11000
  146.3358  140.2615  142.8602 LP  0  0  0  0  0  0  0  0  0  0  0  0  # atno 17320 bound_to 7965
  144.9697  140.8357  143.5463 LP  0  0  0  0  0  0  0  0  0  0  0  0  # atno 17321 bound_to 7965
  140.5662  143.2186  151.7679 LP  0  0  0  0  0  0  0  0  0  0  0  0  # atno 17342 bound_to 10162
  139.4918  144.4280  151.9903 LP  0  0  0  0  0  0  0  0  0  0  0  0  # atno 17343 bound_to 10162
  157.7381  130.9807  150.2232 LP  0  0  0  0  0  0  0  0  0  0  0  0  # atno 17370 bound_to 10713
  156.2855  130.3739  149.7893 LP  0  0  0  0  0  0  0  0  0  0  0  0  # atno 17371 bound_to 10713
  140.6914  133.9387  155.7968 LP  0  0  0  0  0  0  0  0  0  0  0  0  # atno 17394 bound_to 11000
  141.0439  134.0582  157.3868 LP  0  0  0  0  0  0  0  0  0  0  0  0  # atno 17395 bound_to 11000

$$$$
