AV-unprocessed.smi:2753|AV-procd|sdf|10614|dock3
  -GOLD-   2272015 63D 1   1.00000     0.00000
 Structure written by MMmdl.
 27 28  0  0  0  0  0  0  0  0  3 V2000
  152.5211  145.0018  158.2963 F   0  0  0  0  0  0  0  0  0  0  0  0
  151.7386  144.1724  158.9864 C   0  0  0  0  0  0  0  0  0  0  0  0
  152.3113  143.9187  160.1629 F   0  0  0  0  0  0  0  0  0  0  0  0
  150.5611  144.7602  159.1987 F   0  0  0  0  0  0  0  0  0  0  0  0
  151.5422  142.8827  158.2144 C   0  0  0  0  0  0  0  0  0  0  0  0
  151.8598  141.6397  158.8376 C   0  0  0  0  0  0  0  0  0  0  0  0
  151.5850  140.7070  157.9191 N   0  5  0  0  0  0  0  0  0  0  0  0
  151.1255  141.2948  156.7943 C   0  0  0  0  0  0  0  0  0  0  0  0
  150.7143  140.5664  155.5315 C   0  0  1  0  0  0  0  0  0  0  0  0
  150.9922  139.0548  155.6171 C   0  0  0  0  0  0  0  0  0  0  0  0
  150.5407  138.3541  154.3264 C   0  0  0  0  0  0  0  0  0  0  0  0
  149.0726  138.6834  154.0065 C   0  0  0  0  0  0  0  0  0  0  0  0
  148.8710  140.1463  153.9179 N   0  3  0  0  0  0  0  0  0  0  0  0
  149.2490  140.8575  155.1582 C   0  0  0  0  0  0  0  0  0  0  0  0
  151.0988  142.6297  156.9678 N   0  0  0  0  0  0  0  0  0  0  0  0
  152.2411  141.3753  159.8160 H   0  0  0  0  0  0  0  0  0  0  0  0
  151.3394  140.9664  154.7313 H   0  0  0  0  0  0  0  0  0  0  0  0
  152.0537  138.8744  155.7909 H   0  0  0  0  0  0  0  0  0  0  0  0
  150.4591  138.6280  156.4679 H   0  0  0  0  0  0  0  0  0  0  0  0
  151.1761  138.6685  153.4974 H   0  0  0  0  0  0  0  0  0  0  0  0
  150.6698  137.2758  154.4235 H   0  0  0  0  0  0  0  0  0  0  0  0
  148.7795  138.2259  153.0614 H   0  0  0  0  0  0  0  0  0  0  0  0
  148.4156  138.2762  154.7764 H   0  0  0  0  0  0  0  0  0  0  0  0
  149.4366  140.5035  153.1611 H   0  0  0  0  0  0  0  0  0  0  0  0
  148.5812  140.5476  155.9634 H   0  0  0  0  0  0  0  0  0  0  0  0
  149.0991  141.9277  155.0131 H   0  0  0  0  0  0  0  0  0  0  0  0
  147.8992  140.3342  153.7176 H   0  0  0  0  0  0  0  0  0  0  0  0
  1  2  1  0  0  0  0
  2  3  1  0  0  0  0
  2  4  1  0  0  0  0
  2  5  1  0  0  0  0
  5 15  1  0  0  0  0
  5  6  2  0  0  0  0
  6  7  1  0  0  0  0
  6 16  1  0  0  0  0
  7  8  1  0  0  0  0
  8  9  1  0  0  0  0
  8 15  2  0  0  0  0
  9 14  1  0  0  0  0
  9 10  1  0  0  0  0
  9 17  1  0  0  0  0
 10 11  1  0  0  0  0
 10 18  1  0  0  0  0
 10 19  1  0  0  0  0
 11 12  1  0  0  0  0
 11 20  1  0  0  0  0
 11 21  1  0  0  0  0
 12 13  1  0  0  0  0
 12 22  1  0  0  0  0
 12 23  1  0  0  0  0
 13 14  1  0  0  0  0
 13 24  1  0  0  0  0
 13 27  1  0  0  0  0
 14 25  1  0  0  0  0
 14 26  1  0  0  0  0
M  CHG  1   7  -1
M  CHG  1  13   1
M  END
> <s_m_source_file>
AV-unprocessed.smi

> <i_m_source_file_index>
2753

> <i_lp_mmshare_version>
43012

> <i_f3d_flags>
0

> <s_epik_input>
RkMoRikoRiljMVtjSF1bbkhdYyhuMSlbQ0BASF0yW0NIMl1bQ0gyXVtDSDJdW05IXVtDSDJdMg==

> <s_epik_cmdline>
J2VwaWtfcHl0aG9uJywgJy1waCcsICc3LjAnLCAnLXRuJywgJzgnLCAnLW1hJywgJzIwMCcsICctbWV0YWxfYmluZGluZycsICctaW1hZScsICc8aW5maWxlLm1hZT4nLCAnLW9tYWUnLCAnPG91dGZpbGUubWFlPic=

> <r_lp_tautomer_probability>
0.5

> <r_epik_Ionization_Penalty>
6.42345

> <r_epik_Ionization_Penalty_Charging>
5.19935

> <r_epik_Ionization_Penalty_Neutral>
1.22411

> <r_epik_State_Penalty>
5.30226

> <r_epik_Charging_Adjusted_Penalty>
10.5016

> <i_epik_Tot_Q>
0

> <i_epik_Tot_abs_Q>
2

> <r_epik_Metal_State_Penalty>
1.35744

> <b_epik_Metal_Only>
1

> <s_lp_Force_Field>
OPLS_2005

> <r_lp_Energy>
18.3827

> <b_lp_Chiralities_Consistent>
1

> <s_lp_Variant>
AV-unprocessed.smi:2753-6

> <Gold.Version>
5.8.1

> <Gold.Id.Protein>
6NUR|6NUR_protein|mol2

> <Gold.PLP.Fitness>
33.0573

> <Gold.PLP.PLP>
-33.9899

> <Gold.PLP.part.hbond>
-1.0000

> <Gold.PLP.part.metal>
0.0000

> <Gold.PLP.part.buried>
-3.7573

> <Gold.PLP.part.nonpolar>
-30.0121

> <Gold.PLP.part.repulsive>
0.2422

> <Gold.PLP.ligand.clash>
2.7012

> <Gold.PLP.ligand.torsion>
0.1092

> <Gold.PLP.Chemscore.Hbond>
0.6484

> <Gold.PLP.Chemscore.CHOScore>
0.0000

> <Gold.PLP.Chemscore.Metal>
0.0000

> <Gold.Chemscore.Hbonds>
donor molecule, donor type, donor heavy atom, donor atom, acceptor molecule, acceptor atom, score
      L1  H    13    24       P1  7957  0.64

> <Gold.PLP.Chemscore.Internal.Correction>
0.0416

> <Gold.Rescore>
     Score         DG    S(hbond)    S(metal)    S(lipo)     H(rot)  DE(clash)    DE(int)     intcor
     12.55     -12.60       0.66        0.00      63.77       1.00       0.02       0.02       ----

> <Gold.Chemscore.Fitness>
12.5536

> <Gold.Chemscore.DG>
-12.5994

> <Gold.Chemscore.ZeroCoef>
-5.4800

> <Gold.Chemscore.Hbond>
0.6643

> <Gold.Chemscore.Metal>
0.0000

> <Gold.Chemscore.Lipo>
63.7664

> <Gold.Chemscore.Internal_Hbond>
0.0000

> <Gold.Chemscore.DEClash>
0.0243

> <Gold.Chemscore.DEInternal>
0.0215

> <Gold.Chemscore.Rot>
1.0000

> <Gold.Chemscore.Internal.Correction>
   9.000000E+99

> <Gold.Chemscore.Hbonds>
donor molecule, donor type, donor heavy atom, donor atom, acceptor molecule, acceptor atom, score
      L1  H    13    24       P1  7957  0.60

> <Gold.Chemscore.Hbond.Weighted>
-2.2188

> <Gold.Chemscore.Metal.Weighted>
-0.0000

> <Gold.Chemscore.Lipo.Weighted>
-7.4607

> <Gold.Chemscore.Internal_Hbond.Weighted>
0.0000

> <Gold.Chemscore.DEClash.Weighted>
0.0243

> <Gold.Chemscore.DEInternal.Weighted>
0.0215

> <Gold.Chemscore.Rot.Weighted>
2.5600

> <Gold.Chemscore.Internal.Correction.Weighted>
   9.000000E+99

> <Gold.Protein.RotatedTorsions>
[ 6907 6896 6895 6894 ] final   96.17 input  -60.11 | X-H torsion
[ 7974 7965 7964 7962 ] final    6.68 input  175.53 | X-H torsion
[ 8008 7997 7996 7995 ] final   27.73 input   59.86 | X-H torsion
[ 10167 10162 10161 10158 ] final   55.69 input  -65.29 | X-H torsion
[ 10718 10713 10712 10709 ] final   84.46 input   66.30 | X-H torsion
[ 10763 10752 10751 10750 ] final  -33.95 input  -60.55 | X-H torsion
[ 11005 11000 10999 10996 ] final  119.13 input  -57.11 | X-H torsion

> <Gold.Protein.ActiveResidues>
 VAL166  LYS551  ARG553  GLY616  TRP617  ASP618  TYR619  PRO620  LYS621  CYS622 
 ASP623  PHE694  ASN695  SER759  ASP760  ASP761  ALA762  ILE779  LEU786  VAL792 
 PHE793  MET794  SER795  GLU796  ALA797  LYS798  CYS799  TRP800  GLU811  SER814 

> <Gold.Protein.RotatedAtoms>
  152.5437  134.0927  159.8283 H   0  0  0  0  0  0  0  0  0  0  0  0  # atno 6907 bound_to 6896
  151.1015  133.5233  159.2617 H   0  0  0  0  0  0  0  0  0  0  0  0  # atno 6908 bound_to 6896
  151.1986  135.0442  159.8917 H   0  0  0  0  0  0  0  0  0  0  0  0  # atno 6909 bound_to 6896
  146.2433  140.0197  142.8399 H   0  0  0  0  0  0  0  0  0  0  0  0  # atno 7974 bound_to 7965
  155.0475  140.3176  155.4703 H   0  0  0  0  0  0  0  0  0  0  0  0  # atno 8008 bound_to 7997
  156.2841  140.2152  156.5544 H   0  0  0  0  0  0  0  0  0  0  0  0  # atno 8009 bound_to 7997
  154.7238  140.0487  157.0652 H   0  0  0  0  0  0  0  0  0  0  0  0  # atno 8010 bound_to 7997
  140.2167  144.3832  150.6467 H   0  0  0  0  0  0  0  0  0  0  0  0  # atno 10167 bound_to 10162
  157.6898  131.0134  150.2676 H   0  0  0  0  0  0  0  0  0  0  0  0  # atno 10718 bound_to 10713
  153.8386  135.6859  153.4805 H   0  0  0  0  0  0  0  0  0  0  0  0  # atno 10763 bound_to 10752
  153.1467  135.4635  154.9575 H   0  0  0  0  0  0  0  0  0  0  0  0  # atno 10764 bound_to 10752
  154.7855  135.3283  154.7842 H   0  0  0  0  0  0  0  0  0  0  0  0  # atno 10765 bound_to 10752
  139.9135  134.9626  156.7608 H   0  0  0  0  0  0  0  0  0  0  0  0  # atno 11005 bound_to 11000
  145.1252  140.9486  143.4577 LP  0  0  0  0  0  0  0  0  0  0  0  0  # atno 17320 bound_to 7965
  145.0442  139.3235  143.5961 LP  0  0  0  0  0  0  0  0  0  0  0  0  # atno 17321 bound_to 7965
  140.6284  143.2184  151.6547 LP  0  0  0  0  0  0  0  0  0  0  0  0  # atno 17342 bound_to 10162
  139.5159  144.3363  152.0781 LP  0  0  0  0  0  0  0  0  0  0  0  0  # atno 17343 bound_to 10162
  156.3244  130.3791  149.7546 LP  0  0  0  0  0  0  0  0  0  0  0  0  # atno 17370 bound_to 10713
  156.5106  130.8170  151.3167 LP  0  0  0  0  0  0  0  0  0  0  0  0  # atno 17371 bound_to 10713
  140.6699  133.9569  155.7850 LP  0  0  0  0  0  0  0  0  0  0  0  0  # atno 17394 bound_to 11000
  141.0585  134.0381  157.3690 LP  0  0  0  0  0  0  0  0  0  0  0  0  # atno 17395 bound_to 11000

$$$$
