AV-unprocessed.smi:157|AV-procd|sdf|1320|dock7
  -GOLD-   2262019 13D 1   1.00000     0.00000
 Structure written by MMmdl.
 36 38  0  0  0  0  0  0  0  0  2 V2000
  151.9388  137.0268  153.9099 O   0  0  0  0  0  0  0  0  0  0  0  0
  152.5258  138.2558  154.2812 C   0  0  0  0  0  0  0  0  0  0  0  0
  151.5918  139.0384  155.2180 C   0  0  2  0  0  0  0  0  0  0  0  0
  152.3500  140.0070  155.9401 O   0  0  0  0  0  0  0  0  0  0  0  0
  151.8558  140.1421  157.2400 C   0  0  1  0  0  0  0  0  0  0  0  0
  151.4818  141.5732  157.4551 N   0  0  0  0  0  0  0  0  0  0  0  0
  150.7066  142.3235  156.6439 C   0  0  0  0  0  0  0  0  0  0  0  0
  150.5267  143.5663  157.0579 N   0  3  0  0  0  0  0  0  0  0  0  0
  151.2270  143.6896  158.2392 C   0  0  0  0  0  0  0  0  0  0  0  0
  151.8031  142.4387  158.4760 C   0  0  0  0  0  0  0  0  0  0  0  0
  152.6051  142.0062  159.5437 N   0  0  0  0  0  0  0  0  0  0  0  0
  152.7184  142.6623  160.6527 C   0  0  0  0  0  0  0  0  0  0  0  0
  152.1954  143.8979  160.9963 N   0  0  0  0  0  0  0  0  0  0  0  0
  152.2499  145.0566  160.1228 C   0  0  0  0  0  0  0  0  0  0  0  0
  151.2483  144.9999  158.9623 C   0  0  2  0  0  0  0  0  0  0  0  0
  149.9742  145.3738  159.4447 O   0  0  0  0  0  0  0  0  0  0  0  0
  150.6233  139.2457  157.3571 C   0  0  0  0  0  0  0  0  0  0  0  0
  150.9212  138.1957  156.3086 C   0  0  1  0  0  0  0  0  0  0  0  0
  149.7272  137.5854  155.8641 O   0  0  0  0  0  0  0  0  0  0  0  0
  150.8396  139.5826  154.6434 H   0  0  0  0  0  0  0  0  0  0  0  0
  152.6379  139.9164  157.9654 H   0  0  0  0  0  0  0  0  0  0  0  0
  151.5340  145.7683  158.2430 H   0  0  0  0  0  0  0  0  0  0  0  0
  151.6091  137.4472  156.7051 H   0  0  0  0  0  0  0  0  0  0  0  0
  151.5229  137.1341  153.0677 H   0  0  0  0  0  0  0  0  0  0  0  0
  153.4923  138.0745  154.7530 H   0  0  0  0  0  0  0  0  0  0  0  0
  152.7126  138.8314  153.3744 H   0  0  0  0  0  0  0  0  0  0  0  0
  150.2755  141.9374  155.7375 H   0  0  0  0  0  0  0  0  0  0  0  0
  153.3047  142.2280  161.4638 H   0  0  0  0  0  0  0  0  0  0  0  0
  152.1937  144.1689  161.9696 H   0  0  0  0  0  0  0  0  0  0  0  0
  152.1103  145.9651  160.7098 H   0  0  0  0  0  0  0  0  0  0  0  0
  153.2605  145.1119  159.7158 H   0  0  0  0  0  0  0  0  0  0  0  0
  149.4150  145.5677  158.7083 H   0  0  0  0  0  0  0  0  0  0  0  0
  150.5158  138.8480  158.3666 H   0  0  0  0  0  0  0  0  0  0  0  0
  149.7257  139.8105  157.0976 H   0  0  0  0  0  0  0  0  0  0  0  0
  149.6936  137.6444  154.9208 H   0  0  0  0  0  0  0  0  0  0  0  0
  149.9866  144.2835  156.5905 H   0  0  0  0  0  0  0  0  0  0  0  0
  1  2  1  0  0  0  0
  1 24  1  0  0  0  0
  2  3  1  0  0  0  0
  2 25  1  0  0  0  0
  2 26  1  0  0  0  0
  3 20  1  0  0  0  0
  3 18  1  0  0  0  0
  3  4  1  0  0  0  0
  4  5  1  0  0  0  0
  5 21  1  0  0  0  0
  5  6  1  0  0  0  0
  5 17  1  0  0  0  0
  6 10  1  0  0  0  0
  6  7  1  0  0  0  0
  7  8  2  0  0  0  0
  7 27  1  0  0  0  0
  8  9  1  0  0  0  0
  8 36  1  0  0  0  0
  9 15  1  0  0  0  0
  9 10  2  0  0  0  0
 10 11  1  0  0  0  0
 11 12  2  0  0  0  0
 12 13  1  0  0  0  0
 12 28  1  0  0  0  0
 13 14  1  0  0  0  0
 13 29  1  0  0  0  0
 14 15  1  0  0  0  0
 14 30  1  0  0  0  0
 14 31  1  0  0  0  0
 15 22  1  0  0  0  0
 15 16  1  0  0  0  0
 16 32  1  0  0  0  0
 17 18  1  0  0  0  0
 17 33  1  0  0  0  0
 17 34  1  0  0  0  0
 18 23  1  0  0  0  0
 18 19  1  0  0  0  0
 19 35  1  0  0  0  0
M  CHG  1   8   1
M  END
> <s_m_source_file>
AV-unprocessed.smi

> <i_m_source_file_index>
157

> <i_lp_mmshare_version>
43012

> <i_f3d_flags>
0

> <s_epik_input>
W09IXVtDSDJdW0NASF0xT1tDQEhdKFtDSDJdW0NAQEhdMVtPSF0pbihbY0hdbjIpYyhjMjMpTj1bQ0hdW05IXVtDSDJdW0NASF0zW09IXQ==

> <s_epik_cmdline>
J2VwaWtfcHl0aG9uJywgJy1waCcsICc3LjAnLCAnLXRuJywgJzgnLCAnLW1hJywgJzIwMCcsICctbWV0YWxfYmluZGluZycsICctaW1hZScsICc8aW5maWxlLm1hZT4nLCAnLW9tYWUnLCAnPG91dGZpbGUubWFlPic=

> <r_epik_Ionization_Penalty>
1.68594

> <r_epik_Ionization_Penalty_Charging>
0

> <r_epik_Ionization_Penalty_Neutral>
1.68594

> <r_epik_State_Penalty>
1.79006

> <r_epik_Charging_Adjusted_Penalty>
1.79006

> <i_epik_Tot_Q>
1

> <i_epik_Tot_abs_Q>
1

> <r_epik_Metal_State_Penalty>
5.85324

> <b_epik_Metal_Only>
0

> <s_epik_Chemistry_Notes>
This compound has an imine and may undergo hydrolysis. This compound contains an acetal/aminal-like group ( X-CH(R)-Y where X, Y are N, S, or O) that may be acid/base labile, releasing an aldehyde.

> <s_lp_Force_Field>
OPLS_2005

> <r_lp_Energy>
53.8289

> <b_lp_Chiralities_Consistent>
1

> <s_lp_Variant>
AV-unprocessed.smi:157-30

> <Gold.Version>
5.8.1

> <Gold.Id.Protein>
6NUR|6NUR_protein|mol2

> <Gold.PLP.Fitness>
52.9423

> <Gold.PLP.PLP>
-36.5047

> <Gold.PLP.part.hbond>
-5.5703

> <Gold.PLP.part.metal>
0.0000

> <Gold.PLP.part.buried>
-5.6744

> <Gold.PLP.part.nonpolar>
-25.9402

> <Gold.PLP.part.repulsive>
0.0730

> <Gold.PLP.ligand.clash>
0.0000

> <Gold.PLP.ligand.torsion>
0.3050

> <Gold.PLP.Chemscore.Hbond>
5.6792

> <Gold.PLP.Chemscore.CHOScore>
0.0000

> <Gold.PLP.Chemscore.Metal>
0.0000

> <Gold.Chemscore.Hbonds>
donor molecule, donor type, donor heavy atom, donor atom, acceptor molecule, acceptor atom, score
      L1  H     1    24       P1  7949  0.72
      L1  H     8    36       P1  8028  1.76
      L1  H    16    32       P1  8029  0.80
      P1  H  7997  8008       L1     4  0.89
      P1  H 10752 10765       L1     1  1.00

> <Gold.PLP.Chemscore.Internal.Correction>
0.0100

> <Gold.Rescore>
     Score         DG    S(hbond)    S(metal)    S(lipo)     H(rot)  DE(clash)    DE(int)     intcor
     15.87     -16.14       3.94        0.00      58.97       3.67       0.10       0.17       ----

> <Gold.Chemscore.Fitness>
15.8709

> <Gold.Chemscore.DG>
-16.1391

> <Gold.Chemscore.ZeroCoef>
-5.4800

> <Gold.Chemscore.Hbond>
3.9356

> <Gold.Chemscore.Metal>
0.0000

> <Gold.Chemscore.Lipo>
58.9676

> <Gold.Chemscore.Internal_Hbond>
0.0000

> <Gold.Chemscore.DEClash>
0.0960

> <Gold.Chemscore.DEInternal>
0.1722

> <Gold.Chemscore.Rot>
3.6659

> <Gold.Chemscore.Internal.Correction>
   9.000000E+99

> <Gold.Chemscore.Hbonds>
donor molecule, donor type, donor heavy atom, donor atom, acceptor molecule, acceptor atom, score
      L1  H     1    24       P1  7949  0.64
      L1  H     8    36       P1  8028  0.82
      L1  H    16    32       P1  8029  0.77
      P1  H  7997  8008       L1     4  0.16
      P1  H 10752 10765       L1     1  0.73

> <Gold.Chemscore.Hbond.Weighted>
-13.1447

> <Gold.Chemscore.Metal.Weighted>
-0.0000

> <Gold.Chemscore.Lipo.Weighted>
-6.8992

> <Gold.Chemscore.Internal_Hbond.Weighted>
0.0000

> <Gold.Chemscore.DEClash.Weighted>
0.0960

> <Gold.Chemscore.DEInternal.Weighted>
0.1722

> <Gold.Chemscore.Rot.Weighted>
9.3848

> <Gold.Chemscore.Internal.Correction.Weighted>
   9.000000E+99

> <Gold.Protein.RotatedTorsions>
[ 6907 6896 6895 6894 ] final   21.14 input  -60.11 | X-H torsion
[ 7974 7965 7964 7962 ] final -140.39 input  175.53 | X-H torsion
[ 8008 7997 7996 7995 ] final  -46.15 input   59.86 | X-H torsion
[ 10167 10162 10161 10158 ] final -166.18 input  -65.29 | X-H torsion
[ 10718 10713 10712 10709 ] final -106.92 input   66.30 | X-H torsion
[ 10763 10752 10751 10750 ] final  143.62 input  -60.55 | X-H torsion
[ 11005 11000 10999 10996 ] final   39.92 input  -57.11 | X-H torsion

> <Gold.Protein.ActiveResidues>
 VAL166  LYS551  ARG553  GLY616  TRP617  ASP618  TYR619  PRO620  LYS621  CYS622 
 ASP623  PHE694  ASN695  SER759  ASP760  ASP761  ALA762  ILE779  LEU786  VAL792 
 PHE793  MET794  SER795  GLU796  ALA797  LYS798  CYS799  TRP800  GLU811  SER814 

> <Gold.Protein.RotatedAtoms>
  151.9072  135.0354  160.0511 H   0  0  0  0  0  0  0  0  0  0  0  0  # atno 6907 bound_to 6896
  152.2309  133.5053  159.5223 H   0  0  0  0  0  0  0  0  0  0  0  0  # atno 6908 bound_to 6896
  150.7025  134.1134  159.4051 H   0  0  0  0  0  0  0  0  0  0  0  0  # atno 6909 bound_to 6896
  144.8601  140.6205  143.5334 H   0  0  0  0  0  0  0  0  0  0  0  0  # atno 7974 bound_to 7965
  154.4005  140.1379  156.3964 H   0  0  0  0  0  0  0  0  0  0  0  0  # atno 8008 bound_to 7997
  155.7865  140.3480  155.5305 H   0  0  0  0  0  0  0  0  0  0  0  0  # atno 8009 bound_to 7997
  155.8621  140.0958  157.1596 H   0  0  0  0  0  0  0  0  0  0  0  0  # atno 8010 bound_to 7997
  139.6132  144.0772  152.1862 H   0  0  0  0  0  0  0  0  0  0  0  0  # atno 10167 bound_to 10162
  156.0412  130.5637  150.7749 H   0  0  0  0  0  0  0  0  0  0  0  0  # atno 10718 bound_to 10713
  153.9754  135.2946  155.3424 H   0  0  0  0  0  0  0  0  0  0  0  0  # atno 10763 bound_to 10752
  154.7299  135.5072  153.8949 H   0  0  0  0  0  0  0  0  0  0  0  0  # atno 10764 bound_to 10752
  153.0880  135.6699  154.0024 H   0  0  0  0  0  0  0  0  0  0  0  0  # atno 10765 bound_to 10752
  140.1980  134.3905  155.8111 H   0  0  0  0  0  0  0  0  0  0  0  0  # atno 11005 bound_to 11000
  145.4329  139.1546  143.4012 LP  0  0  0  0  0  0  0  0  0  0  0  0  # atno 17320 bound_to 7965
  146.2854  140.4446  142.8760 LP  0  0  0  0  0  0  0  0  0  0  0  0  # atno 17321 bound_to 7965
  140.0396  144.6018  150.7422 LP  0  0  0  0  0  0  0  0  0  0  0  0  # atno 17342 bound_to 10162
  140.7333  143.2716  151.3871 LP  0  0  0  0  0  0  0  0  0  0  0  0  # atno 17343 bound_to 10162
  157.5232  131.0932  151.0051 LP  0  0  0  0  0  0  0  0  0  0  0  0  # atno 17370 bound_to 10713
  157.0376  130.5736  149.5351 LP  0  0  0  0  0  0  0  0  0  0  0  0  # atno 17371 bound_to 10713
  141.2227  133.7080  156.8210 LP  0  0  0  0  0  0  0  0  0  0  0  0  # atno 17394 bound_to 11000
  140.2085  134.8845  157.3248 LP  0  0  0  0  0  0  0  0  0  0  0  0  # atno 17395 bound_to 11000

$$$$
