AV-unprocessed.smi:3303|AV-procd|sdf|12684|dock5
  -GOLD-   2272019 23D 1   1.00000     0.00000
 Structure written by MMmdl.
 44 45  0  0  0  0  0  0  0  0  2 V2000
  151.3664  138.2706  154.9578 C   0  0  0  0  0  0  0  0  0  0  0  0
  150.4185  139.3505  154.4069 C   0  0  1  0  0  0  0  0  0  0  0  0
  149.0123  138.7967  154.1053 C   0  0  0  0  0  0  0  0  0  0  0  0
  148.1545  139.8305  153.4744 N   0  3  1  0  0  0  0  0  0  0  0  0
  146.8849  139.2801  152.9478 C   0  0  0  0  0  0  0  0  0  0  0  0
  147.9905  141.0555  154.3079 C   0  0  1  0  0  0  0  0  0  0  0  0
  147.0652  140.8556  155.5284 C   0  0  0  0  0  0  0  0  0  0  0  0
  149.3690  141.6477  154.6811 C   0  0  0  0  0  0  0  0  0  0  0  0
  150.3592  140.6226  155.2842 C   0  0  1  0  0  0  0  0  0  0  0  0
  150.0483  140.2880  156.6718 N   0  0  0  0  0  0  0  0  0  0  0  0
  150.0160  141.4609  157.5340 C   0  0  0  0  0  0  0  0  0  0  0  0
  151.2860  142.2925  157.3115 C   0  0  0  0  0  0  0  0  0  0  0  0
  151.6564  143.1039  158.5382 C   0  0  0  0  0  0  0  0  0  0  0  0
  151.6969  144.5135  158.4835 C   0  0  0  0  0  0  0  0  0  0  0  0
  152.0561  145.2197  159.6479 C   0  0  0  0  0  0  0  0  0  0  0  0
  152.3604  144.4931  160.8151 C   0  0  0  0  0  0  0  0  0  0  0  0
  152.2925  143.0864  160.7658 C   0  0  0  0  0  0  0  0  0  0  0  0
  151.9496  142.3994  159.6546 N   0  0  0  0  0  0  0  0  0  0  0  0
  150.9947  137.8410  155.8886 H   0  0  0  0  0  0  0  0  0  0  0  0
  152.3583  138.6801  155.1510 H   0  0  0  0  0  0  0  0  0  0  0  0
  151.4825  137.4536  154.2451 H   0  0  0  0  0  0  0  0  0  0  0  0
  150.8414  139.6593  153.4494 H   0  0  0  0  0  0  0  0  0  0  0  0
  149.1010  137.9493  153.4242 H   0  0  0  0  0  0  0  0  0  0  0  0
  148.5420  138.4153  155.0121 H   0  0  0  0  0  0  0  0  0  0  0  0
  146.2902  138.8199  153.7376 H   0  0  0  0  0  0  0  0  0  0  0  0
  147.0861  138.5181  152.1943 H   0  0  0  0  0  0  0  0  0  0  0  0
  146.2887  140.0619  152.4761 H   0  0  0  0  0  0  0  0  0  0  0  0
  147.5014  141.7967  153.6742 H   0  0  0  0  0  0  0  0  0  0  0  0
  147.0192  141.7641  156.1296 H   0  0  0  0  0  0  0  0  0  0  0  0
  147.3994  140.0513  156.1818 H   0  0  0  0  0  0  0  0  0  0  0  0
  146.0437  140.6282  155.2246 H   0  0  0  0  0  0  0  0  0  0  0  0
  149.8202  142.0336  153.7659 H   0  0  0  0  0  0  0  0  0  0  0  0
  149.2474  142.5221  155.3194 H   0  0  0  0  0  0  0  0  0  0  0  0
  151.3572  141.0640  155.2787 H   0  0  0  0  0  0  0  0  0  0  0  0
  150.7553  139.6570  157.0226 H   0  0  0  0  0  0  0  0  0  0  0  0
  149.1344  142.0612  157.3061 H   0  0  0  0  0  0  0  0  0  0  0  0
  149.9529  141.1673  158.5810 H   0  0  0  0  0  0  0  0  0  0  0  0
  152.1198  141.6397  157.0494 H   0  0  0  0  0  0  0  0  0  0  0  0
  151.1495  142.9709  156.4679 H   0  0  0  0  0  0  0  0  0  0  0  0
  151.4605  145.0430  157.5723 H   0  0  0  0  0  0  0  0  0  0  0  0
  152.0981  146.2989  159.6452 H   0  0  0  0  0  0  0  0  0  0  0  0
  152.6397  145.0012  161.7262 H   0  0  0  0  0  0  0  0  0  0  0  0
  152.5204  142.4975  161.6419 H   0  0  0  0  0  0  0  0  0  0  0  0
  148.6669  140.1364  152.6595 H   0  0  0  0  0  0  0  0  0  0  0  0
  1  2  1  0  0  0  0
  1 19  1  0  0  0  0
  1 20  1  0  0  0  0
  1 21  1  0  0  0  0
  2  9  1  0  0  0  0
  2  3  1  0  0  0  0
  2 22  1  0  0  0  0
  3  4  1  0  0  0  0
  3 23  1  0  0  0  0
  3 24  1  0  0  0  0
  4  5  1  0  0  0  0
  4  6  1  0  0  0  0
  4 44  1  0  0  0  0
  5 25  1  0  0  0  0
  5 26  1  0  0  0  0
  5 27  1  0  0  0  0
  6  7  1  0  0  0  0
  6  8  1  0  0  0  0
  6 28  1  0  0  0  0
  7 29  1  0  0  0  0
  7 30  1  0  0  0  0
  7 31  1  0  0  0  0
  8  9  1  0  0  0  0
  8 32  1  0  0  0  0
  8 33  1  0  0  0  0
  9 10  1  0  0  0  0
  9 34  1  0  0  0  0
 10 11  1  0  0  0  0
 10 35  1  0  0  0  0
 11 12  1  0  0  0  0
 11 36  1  0  0  0  0
 11 37  1  0  0  0  0
 12 13  1  0  0  0  0
 12 38  1  0  0  0  0
 12 39  1  0  0  0  0
 13 18  1  0  0  0  0
 13 14  2  0  0  0  0
 14 15  1  0  0  0  0
 14 40  1  0  0  0  0
 15 16  2  0  0  0  0
 15 41  1  0  0  0  0
 16 17  1  0  0  0  0
 16 42  1  0  0  0  0
 17 18  2  0  0  0  0
 17 43  1  0  0  0  0
M  CHG  1   4   1
M  END
> <s_m_source_file>
AV-unprocessed.smi

> <i_m_source_file_index>
3303

> <i_lp_mmshare_version>
43012

> <i_f3d_flags>
0

> <s_epik_input>
W0NIM11bQ0BASF0xW0NIMl1OKFtDSDNdKVtDQEBIXShbQ0gzXSlbQ0gyXVtDQEhdMVtOSF1bQ0gyXVtDSDJdYzJbY0hdW2NIXVtjSF1bY0hdbjI=

> <s_epik_cmdline>
J2VwaWtfcHl0aG9uJywgJy1waCcsICc3LjAnLCAnLXRuJywgJzgnLCAnLW1hJywgJzIwMCcsICctbWV0YWxfYmluZGluZycsICctaW1hZScsICc8aW5maWxlLm1hZT4nLCAnLW9tYWUnLCAnPG91dGZpbGUubWFlPic=

> <r_epik_Ionization_Penalty>
2.31085

> <r_epik_Ionization_Penalty_Charging>
0.000313057

> <r_epik_Ionization_Penalty_Neutral>
2.31054

> <r_epik_State_Penalty>
2.4087

> <r_epik_Charging_Adjusted_Penalty>
2.40902

> <i_epik_Tot_Q>
1

> <i_epik_Tot_abs_Q>
1

> <r_epik_Metal_State_Penalty>
2.30979

> <b_epik_Metal_Only>
0

> <s_lp_Force_Field>
OPLS_2005

> <r_lp_Energy>
26.6876

> <b_lp_Chiralities_Consistent>
1

> <s_lp_Variant>
AV-unprocessed.smi:3303-28

> <Gold.Version>
5.8.1

> <Gold.Id.Protein>
6NUR|6NUR_protein|mol2

> <Gold.PLP.Fitness>
44.8551

> <Gold.PLP.PLP>
-42.2238

> <Gold.PLP.part.hbond>
-1.0000

> <Gold.PLP.part.metal>
0.0000

> <Gold.PLP.part.buried>
-2.5330

> <Gold.PLP.part.nonpolar>
-37.5505

> <Gold.PLP.part.repulsive>
0.0801

> <Gold.PLP.ligand.clash>
0.0000

> <Gold.PLP.ligand.torsion>
0.1902

> <Gold.PLP.Chemscore.Hbond>
1.0000

> <Gold.PLP.Chemscore.CHOScore>
0.0000

> <Gold.PLP.Chemscore.Metal>
0.0000

> <Gold.Chemscore.Hbonds>
donor molecule, donor type, donor heavy atom, donor atom, acceptor molecule, acceptor atom, score
      L1  H     4    44       P1  7957  1.00

> <Gold.PLP.Chemscore.Internal.Correction>
0.0117

> <Gold.Rescore>
     Score         DG    S(hbond)    S(metal)    S(lipo)     H(rot)  DE(clash)    DE(int)     intcor
     19.80     -20.13       1.00        0.00     125.73       1.33       0.14       0.19       ----

> <Gold.Chemscore.Fitness>
19.8027

> <Gold.Chemscore.DG>
-20.1322

> <Gold.Chemscore.ZeroCoef>
-5.4800

> <Gold.Chemscore.Hbond>
0.9997

> <Gold.Chemscore.Metal>
0.0000

> <Gold.Chemscore.Lipo>
125.7338

> <Gold.Chemscore.Internal_Hbond>
0.0000

> <Gold.Chemscore.DEClash>
0.1433

> <Gold.Chemscore.DEInternal>
0.1862

> <Gold.Chemscore.Rot>
1.3272

> <Gold.Chemscore.Internal.Correction>
   9.000000E+99

> <Gold.Chemscore.Hbonds>
donor molecule, donor type, donor heavy atom, donor atom, acceptor molecule, acceptor atom, score
      L1  H     4    44       P1  7957  0.99

> <Gold.Chemscore.Hbond.Weighted>
-3.3390

> <Gold.Chemscore.Metal.Weighted>
-0.0000

> <Gold.Chemscore.Lipo.Weighted>
-14.7109

> <Gold.Chemscore.Internal_Hbond.Weighted>
0.0000

> <Gold.Chemscore.DEClash.Weighted>
0.1433

> <Gold.Chemscore.DEInternal.Weighted>
0.1862

> <Gold.Chemscore.Rot.Weighted>
3.3976

> <Gold.Chemscore.Internal.Correction.Weighted>
   9.000000E+99

> <Gold.Protein.RotatedTorsions>
[ 6907 6896 6895 6894 ] final  -69.01 input  -60.11 | X-H torsion
[ 7974 7965 7964 7962 ] final  177.13 input  175.53 | X-H torsion
[ 8008 7997 7996 7995 ] final  -71.42 input   59.86 | X-H torsion
[ 10167 10162 10161 10158 ] final  -16.87 input  -65.29 | X-H torsion
[ 10718 10713 10712 10709 ] final -161.71 input   66.30 | X-H torsion
[ 10763 10752 10751 10750 ] final -102.30 input  -60.55 | X-H torsion
[ 11005 11000 10999 10996 ] final  116.35 input  -57.11 | X-H torsion

> <Gold.Protein.ActiveResidues>
 VAL166  LYS551  ARG553  GLY616  TRP617  ASP618  TYR619  PRO620  LYS621  CYS622 
 ASP623  PHE694  ASN695  SER759  ASP760  ASP761  ALA762  ILE779  LEU786  VAL792 
 PHE793  MET794  SER795  GLU796  ALA797  LYS798  CYS799  TRP800  GLU811  SER814 

> <Gold.Protein.RotatedAtoms>
  150.7327  134.5657  159.5864 H   0  0  0  0  0  0  0  0  0  0  0  0  # atno 6907 bound_to 6896
  152.3109  134.7495  160.0345 H   0  0  0  0  0  0  0  0  0  0  0  0  # atno 6908 bound_to 6896
  151.8043  133.3338  159.3573 H   0  0  0  0  0  0  0  0  0  0  0  0  # atno 6909 bound_to 6896
  144.7173  140.0201  143.6440 H   0  0  0  0  0  0  0  0  0  0  0  0  # atno 7974 bound_to 7965
  154.5087  140.0816  156.7945 H   0  0  0  0  0  0  0  0  0  0  0  0  # atno 8008 bound_to 7997
  155.3835  140.3429  155.4230 H   0  0  0  0  0  0  0  0  0  0  0  0  # atno 8009 bound_to 7997
  156.1546  140.1569  156.8701 H   0  0  0  0  0  0  0  0  0  0  0  0  # atno 8010 bound_to 7997
  140.7240  143.5072  150.9795 H   0  0  0  0  0  0  0  0  0  0  0  0  # atno 10167 bound_to 10162
  156.6001  130.8807  151.2911 H   0  0  0  0  0  0  0  0  0  0  0  0  # atno 10718 bound_to 10713
  154.7723  135.4866  153.9674 H   0  0  0  0  0  0  0  0  0  0  0  0  # atno 10763 bound_to 10752
  153.1384  135.6767  153.9074 H   0  0  0  0  0  0  0  0  0  0  0  0  # atno 10764 bound_to 10752
  153.8756  135.3138  155.3422 H   0  0  0  0  0  0  0  0  0  0  0  0  # atno 10765 bound_to 10752
  139.9038  134.9597  156.7185 H   0  0  0  0  0  0  0  0  0  0  0  0  # atno 11005 bound_to 11000
  146.0187  139.3232  143.0826 LP  0  0  0  0  0  0  0  0  0  0  0  0  # atno 17320 bound_to 7965
  145.8594  140.9484  143.0708 LP  0  0  0  0  0  0  0  0  0  0  0  0  # atno 17321 bound_to 7965
  139.8784  143.7103  152.3159 LP  0  0  0  0  0  0  0  0  0  0  0  0  # atno 17342 bound_to 10162
  139.7377  144.7567  151.0702 LP  0  0  0  0  0  0  0  0  0  0  0  0  # atno 17343 bound_to 10162
  157.7282  130.9653  150.1730 LP  0  0  0  0  0  0  0  0  0  0  0  0  # atno 17370 bound_to 10713
  156.2476  130.3697  149.8267 LP  0  0  0  0  0  0  0  0  0  0  0  0  # atno 17371 bound_to 10713
  140.7019  133.9299  155.8030 LP  0  0  0  0  0  0  0  0  0  0  0  0  # atno 17394 bound_to 11000
  141.0365  134.0682  157.3953 LP  0  0  0  0  0  0  0  0  0  0  0  0  # atno 17395 bound_to 11000

$$$$
