AV-unprocessed.smi:537|AV-procd|sdf|2864|dock1
  -GOLD-   2262023353D 1   1.00000     0.00000
 Structure written by MMmdl.
 33 34  0  0  0  0  0  0  0  0  1 V2000
  151.3724  143.4575  157.7621 C   0  0  0  0  0  0  0  0  0  0  0  0
  151.5120  142.1493  157.1545 N   0  0  0  0  0  0  0  0  0  0  0  0
  150.7198  141.4687  156.2387 C   0  0  0  0  0  0  0  0  0  0  0  0
  149.5909  141.9495  155.7117 N   0  0  0  0  0  0  0  0  0  0  0  0
  149.1867  140.9209  154.8721 C   0  0  0  0  0  0  0  0  0  0  0  0
  150.0584  139.8813  154.9185 C   0  0  0  0  0  0  0  0  0  0  0  0
  149.8741  138.6632  154.1197 C   0  0  0  0  0  0  0  0  0  0  0  0
  150.6526  137.7126  154.1405 O   0  0  0  0  0  0  0  0  0  0  0  0
  148.7553  138.6957  153.3553 N   0  0  0  0  0  0  0  0  0  0  0  0
  147.8380  139.7071  153.2625 C   0  0  0  0  0  0  0  0  0  0  0  0
  146.8686  139.5834  152.5144 O   0  0  0  0  0  0  0  0  0  0  0  0
  148.0498  140.8312  154.0222 N   0  0  0  0  0  0  0  0  0  0  0  0
  147.1339  141.9735  153.9899 C   0  0  0  0  0  0  0  0  0  0  0  0
  151.0700  140.2291  155.8141 N   0  0  0  0  0  0  0  0  0  0  0  0
  152.2433  139.4541  156.2054 C   0  0  0  0  0  0  0  0  0  0  0  0
  152.3310  139.2657  157.7270 C   0  0  0  0  0  0  0  0  0  0  0  0
  153.6336  138.8370  158.0886 O   0  0  0  0  0  0  0  0  0  0  0  0
  153.8099  138.7518  159.4914 C   0  0  0  0  0  0  0  0  0  0  0  0
  148.5792  137.8801  152.7870 H   0  0  0  0  0  0  0  0  0  0  0  0
  152.1942  143.6428  158.4535 H   0  0  0  0  0  0  0  0  0  0  0  0
  150.4336  143.5213  158.3129 H   0  0  0  0  0  0  0  0  0  0  0  0
  151.3797  144.2333  156.9963 H   0  0  0  0  0  0  0  0  0  0  0  0
  152.3310  141.6444  157.4605 H   0  0  0  0  0  0  0  0  0  0  0  0
  146.2783  141.8396  153.3271 H   0  0  0  0  0  0  0  0  0  0  0  0
  147.6659  142.8661  153.6592 H   0  0  0  0  0  0  0  0  0  0  0  0
  146.7445  142.1669  154.9899 H   0  0  0  0  0  0  0  0  0  0  0  0
  152.2087  138.4827  155.7114 H   0  0  0  0  0  0  0  0  0  0  0  0
  153.1421  139.9395  155.8284 H   0  0  0  0  0  0  0  0  0  0  0  0
  152.0960  140.2038  158.2322 H   0  0  0  0  0  0  0  0  0  0  0  0
  151.5930  138.5295  158.0487 H   0  0  0  0  0  0  0  0  0  0  0  0
  154.8228  138.4154  159.7123 H   0  0  0  0  0  0  0  0  0  0  0  0
  153.1141  138.0376  159.9332 H   0  0  0  0  0  0  0  0  0  0  0  0
  153.6659  139.7227  159.9673 H   0  0  0  0  0  0  0  0  0  0  0  0
  1  2  1  0  0  0  0
  1 20  1  0  0  0  0
  1 21  1  0  0  0  0
  1 22  1  0  0  0  0
  2  3  1  0  0  0  0
  2 23  1  0  0  0  0
  3 14  1  0  0  0  0
  3  4  2  0  0  0  0
  4  5  1  0  0  0  0
  5 12  1  0  0  0  0
  5  6  2  0  0  0  0
  6  7  1  0  0  0  0
  6 14  1  0  0  0  0
  7  8  2  0  0  0  0
  7  9  1  0  0  0  0
  9 19  1  0  0  0  0
  9 10  1  0  0  0  0
 10 11  2  0  0  0  0
 10 12  1  0  0  0  0
 12 13  1  0  0  0  0
 13 24  1  0  0  0  0
 13 25  1  0  0  0  0
 13 26  1  0  0  0  0
 14 15  1  0  0  0  0
 15 16  1  0  0  0  0
 15 27  1  0  0  0  0
 15 28  1  0  0  0  0
 16 17  1  0  0  0  0
 16 29  1  0  0  0  0
 16 30  1  0  0  0  0
 17 18  1  0  0  0  0
 18 31  1  0  0  0  0
 18 32  1  0  0  0  0
 18 33  1  0  0  0  0
M  END
> <s_m_source_file>
AV-unprocessed.smi

> <i_m_source_file_index>
537

> <i_lp_mmshare_version>
43012

> <i_f3d_flags>
0

> <s_epik_input>
W0NIM11PW0NIMl1bQ0gyXW4oYyhuMSlbTkhdW0NIM10pYyhjMTIpYyg9TylbbkhdYyg9TyluMltDSDNd

> <s_epik_cmdline>
J2VwaWtfcHl0aG9uJywgJy1waCcsICc3LjAnLCAnLXRuJywgJzgnLCAnLW1hJywgJzIwMCcsICctbWV0YWxfYmluZGluZycsICctaW1hZScsICc8aW5maWxlLm1hZT4nLCAnLW9tYWUnLCAnPG91dGZpbGUubWFlPic=

> <r_lp_tautomer_probability>
1

> <r_epik_Ionization_Penalty>
3.91196e-05

> <r_epik_Ionization_Penalty_Charging>
1.40857e-05

> <r_epik_Ionization_Penalty_Neutral>
2.50339e-05

> <r_epik_State_Penalty>
-0

> <r_epik_Charging_Adjusted_Penalty>
1.40857e-05

> <i_epik_Tot_Q>
0

> <i_epik_Tot_abs_Q>
0

> <r_epik_Metal_State_Penalty>
0.0136003

> <b_epik_Metal_Only>
0

> <s_lp_Force_Field>
OPLS_2005

> <r_lp_Energy>
19.747

> <b_lp_Chiralities_Consistent>
1

> <s_lp_Variant>
AV-unprocessed.smi:537-1

> <Gold.Version>
5.8.1

> <Gold.Id.Protein>
6NUR|6NUR_protein|mol2

> <Gold.PLP.Fitness>
35.6781

> <Gold.PLP.PLP>
-29.8483

> <Gold.PLP.part.hbond>
-3.0000

> <Gold.PLP.part.metal>
0.0000

> <Gold.PLP.part.buried>
-0.9227

> <Gold.PLP.part.nonpolar>
-28.6196

> <Gold.PLP.part.repulsive>
2.9311

> <Gold.PLP.ligand.clash>
0.0000

> <Gold.PLP.ligand.torsion>
0.0856

> <Gold.PLP.Chemscore.Hbond>
2.0000

> <Gold.PLP.Chemscore.CHOScore>
0.0000

> <Gold.PLP.Chemscore.Metal>
0.0000

> <Gold.Chemscore.Hbonds>
donor molecule, donor type, donor heavy atom, donor atom, acceptor molecule, acceptor atom, score
      L1  H     9    19       P1  7948  1.00
      P1  H  7997  8009       L1    17  1.00

> <Gold.PLP.Chemscore.Internal.Correction>
0.0011

> <Gold.Rescore>
     Score         DG    S(hbond)    S(metal)    S(lipo)     H(rot)  DE(clash)    DE(int)     intcor
     11.89     -11.97       1.97        0.00      35.51       1.66       0.03       0.05       ----

> <Gold.Chemscore.Fitness>
11.8919

> <Gold.Chemscore.DG>
-11.9697

> <Gold.Chemscore.ZeroCoef>
-5.4800

> <Gold.Chemscore.Hbond>
1.9742

> <Gold.Chemscore.Metal>
0.0000

> <Gold.Chemscore.Lipo>
35.5139

> <Gold.Chemscore.Internal_Hbond>
0.0000

> <Gold.Chemscore.DEClash>
0.0285

> <Gold.Chemscore.DEInternal>
0.0494

> <Gold.Chemscore.Rot>
1.6637

> <Gold.Chemscore.Internal.Correction>
   9.000000E+99

> <Gold.Chemscore.Hbonds>
donor molecule, donor type, donor heavy atom, donor atom, acceptor molecule, acceptor atom, score
      L1  H     9    19       P1  7948  0.99
      P1  H  7997  8009       L1    17  0.38

> <Gold.Chemscore.Hbond.Weighted>
-6.5937

> <Gold.Chemscore.Metal.Weighted>
-0.0000

> <Gold.Chemscore.Lipo.Weighted>
-4.1551

> <Gold.Chemscore.Internal_Hbond.Weighted>
0.0000

> <Gold.Chemscore.DEClash.Weighted>
0.0285

> <Gold.Chemscore.DEInternal.Weighted>
0.0494

> <Gold.Chemscore.Rot.Weighted>
4.2591

> <Gold.Chemscore.Internal.Correction.Weighted>
   9.000000E+99

> <Gold.Protein.RotatedTorsions>
[ 6907 6896 6895 6894 ] final  171.75 input  -60.11 | X-H torsion
[ 7974 7965 7964 7962 ] final  111.01 input  175.53 | X-H torsion
[ 8008 7997 7996 7995 ] final  144.42 input   59.86 | X-H torsion
[ 10167 10162 10161 10158 ] final    4.92 input  -65.29 | X-H torsion
[ 10718 10713 10712 10709 ] final -116.00 input   66.30 | X-H torsion
[ 10763 10752 10751 10750 ] final -171.15 input  -60.55 | X-H torsion
[ 11005 11000 10999 10996 ] final  101.36 input  -57.11 | X-H torsion

> <Gold.Protein.ActiveResidues>
 VAL166  LYS551  ARG553  GLY616  TRP617  ASP618  TYR619  PRO620  LYS621  CYS622 
 ASP623  PHE694  ASN695  SER759  ASP760  ASP761  ALA762  ILE779  LEU786  VAL792 
 PHE793  MET794  SER795  GLU796  ALA797  LYS798  CYS799  TRP800  GLU811  SER814 

> <Gold.Protein.RotatedAtoms>
  151.7953  133.3364  159.3510 H   0  0  0  0  0  0  0  0  0  0  0  0  # atno 6907 bound_to 6896
  150.7377  134.5805  159.5945 H   0  0  0  0  0  0  0  0  0  0  0  0  # atno 6908 bound_to 6896
  152.3181  134.7415  160.0371 H   0  0  0  0  0  0  0  0  0  0  0  0  # atno 6909 bound_to 6896
  145.2477  139.2752  143.4084 H   0  0  0  0  0  0  0  0  0  0  0  0  # atno 7974 bound_to 7965
  156.2908  140.2236  156.5050 H   0  0  0  0  0  0  0  0  0  0  0  0  # atno 8008 bound_to 7997
  154.7657  140.0470  157.1032 H   0  0  0  0  0  0  0  0  0  0  0  0  # atno 8009 bound_to 7997
  154.9936  140.3093  155.4899 H   0  0  0  0  0  0  0  0  0  0  0  0  # atno 8010 bound_to 7997
  140.6509  143.7546  150.7574 H   0  0  0  0  0  0  0  0  0  0  0  0  # atno 10167 bound_to 10162
  156.0933  130.6111  150.8979 H   0  0  0  0  0  0  0  0  0  0  0  0  # atno 10718 bound_to 10713
  154.6336  135.2889  155.0187 H   0  0  0  0  0  0  0  0  0  0  0  0  # atno 10763 bound_to 10752
  154.1338  135.6529  153.4931 H   0  0  0  0  0  0  0  0  0  0  0  0  # atno 10764 bound_to 10752
  153.0292  135.5317  154.7174 H   0  0  0  0  0  0  0  0  0  0  0  0  # atno 10765 bound_to 10752
  139.8773  134.9179  156.4895 H   0  0  0  0  0  0  0  0  0  0  0  0  # atno 11005 bound_to 11000
  146.3311  140.2859  142.8612 LP  0  0  0  0  0  0  0  0  0  0  0  0  # atno 17320 bound_to 7965
  144.9531  140.8199  143.5559 LP  0  0  0  0  0  0  0  0  0  0  0  0  # atno 17321 bound_to 7965
  140.1197  143.4623  152.2321 LP  0  0  0  0  0  0  0  0  0  0  0  0  # atno 17342 bound_to 10162
  139.5725  144.7470  151.3854 LP  0  0  0  0  0  0  0  0  0  0  0  0  # atno 17343 bound_to 10162
  157.6088  131.0937  150.8831 LP  0  0  0  0  0  0  0  0  0  0  0  0  # atno 17370 bound_to 10713
  156.8975  130.5234  149.5284 LP  0  0  0  0  0  0  0  0  0  0  0  0  # atno 17371 bound_to 10713
  140.8669  133.8018  155.9323 LP  0  0  0  0  0  0  0  0  0  0  0  0  # atno 17394 bound_to 11000
  140.8993  134.2399  157.5051 LP  0  0  0  0  0  0  0  0  0  0  0  0  # atno 17395 bound_to 11000

$$$$
