AV-unprocessed.smi:2244|AV-procd|sdf|9074|dock6
  -GOLD-   2272012283D 1   1.00000     0.00000
 Structure written by MMmdl.
 49 51  0  0  0  0  0  0  0  0  1 V2000
  150.7686  145.0196  158.7481 C   0  0  0  0  0  0  0  0  0  0  0  0
  151.8622  143.9276  158.7702 C   0  0  0  0  0  0  0  0  0  0  0  0
  153.1242  144.5237  158.1123 C   0  0  0  0  0  0  0  0  0  0  0  0
  152.1497  143.5889  160.2476 C   0  0  0  0  0  0  0  0  0  0  0  0
  151.4355  142.6533  158.0197 C   0  0  0  0  0  0  0  0  0  0  0  0
  151.1238  142.6342  156.6417 C   0  0  0  0  0  0  0  0  0  0  0  0
  150.7395  141.4074  156.0748 C   0  0  0  0  0  0  0  0  0  0  0  0
  150.6878  140.2673  156.9019 C   0  0  0  0  0  0  0  0  0  0  0  0
  150.2752  139.0705  156.2466 N   0  0  0  0  0  0  0  0  0  0  0  0
  150.1116  137.8119  156.7069 C   0  0  0  0  0  0  0  0  0  0  0  0
  150.3235  137.5375  157.8869 O   0  0  0  0  0  0  0  0  0  0  0  0
  149.7035  136.8984  155.8105 N   0  0  0  0  0  0  0  0  0  0  0  0
  149.4737  135.4831  156.0819 C   0  0  2  0  0  0  0  0  0  0  0  0
  150.7157  134.8479  156.7275 C   0  0  0  0  0  0  0  0  0  0  0  0
  150.5433  133.3260  156.8542 C   0  0  0  0  0  0  0  0  0  0  0  0
  150.2619  132.7580  155.5792 O   0  0  0  0  0  0  0  0  0  0  0  0
  149.0438  133.2313  155.0122 C   0  0  2  0  0  0  0  0  0  0  0  0
  148.7938  132.4724  153.7241 C   0  0  0  0  0  0  0  0  0  0  0  0
  147.5990  132.7959  152.8576 C   0  0  0  0  0  0  0  0  0  0  0  0
  147.6508  131.4906  153.6146 C   0  0  0  0  0  0  0  0  0  0  0  0
  149.1467  134.7488  154.7735 C   0  0  0  0  0  0  0  0  0  0  0  0
  151.0008  140.3618  158.2195 N   0  0  0  0  0  0  0  0  0  0  0  0
  151.3666  141.5243  158.7662 N   0  0  0  0  0  0  0  0  0  0  0  0
  151.0920  145.9134  159.2831 H   0  0  0  0  0  0  0  0  0  0  0  0
  149.8486  144.6795  159.2253 H   0  0  0  0  0  0  0  0  0  0  0  0
  150.5268  145.3282  157.7302 H   0  0  0  0  0  0  0  0  0  0  0  0
  152.9449  144.7680  157.0648 H   0  0  0  0  0  0  0  0  0  0  0  0
  153.9670  143.8327  158.1489 H   0  0  0  0  0  0  0  0  0  0  0  0
  153.4386  145.4395  158.6142 H   0  0  0  0  0  0  0  0  0  0  0  0
  152.4374  144.4776  160.8106 H   0  0  0  0  0  0  0  0  0  0  0  0
  152.9619  142.8681  160.3486 H   0  0  0  0  0  0  0  0  0  0  0  0
  151.2708  143.1629  160.7331 H   0  0  0  0  0  0  0  0  0  0  0  0
  151.1664  143.5145  156.0194 H   0  0  0  0  0  0  0  0  0  0  0  0
  150.4891  141.3479  155.0254 H   0  0  0  0  0  0  0  0  0  0  0  0
  150.0194  139.1951  155.2780 H   0  0  0  0  0  0  0  0  0  0  0  0
  149.5530  137.2084  154.8607 H   0  0  0  0  0  0  0  0  0  0  0  0
  148.6236  135.3702  156.7574 H   0  0  0  0  0  0  0  0  0  0  0  0
  151.5977  135.0584  156.1206 H   0  0  0  0  0  0  0  0  0  0  0  0
  150.9004  135.2851  157.7093 H   0  0  0  0  0  0  0  0  0  0  0  0
  151.4568  132.8774  157.2447 H   0  0  0  0  0  0  0  0  0  0  0  0
  149.7447  133.0827  157.5567 H   0  0  0  0  0  0  0  0  0  0  0  0
  148.2231  133.0218  155.7015 H   0  0  0  0  0  0  0  0  0  0  0  0
  149.7040  132.1996  153.1932 H   0  0  0  0  0  0  0  0  0  0  0  0
  146.9053  133.5553  153.2135 H   0  0  0  0  0  0  0  0  0  0  0  0
  147.7369  132.7587  151.7791 H   0  0  0  0  0  0  0  0  0  0  0  0
  147.8230  130.5825  153.0406 H   0  0  0  0  0  0  0  0  0  0  0  0
  146.9925  131.3813  154.4742 H   0  0  0  0  0  0  0  0  0  0  0  0
  148.2133  135.1271  154.3548 H   0  0  0  0  0  0  0  0  0  0  0  0
  149.9239  134.9475  154.0335 H   0  0  0  0  0  0  0  0  0  0  0  0
  1  2  1  0  0  0  0
  1 24  1  0  0  0  0
  1 25  1  0  0  0  0
  1 26  1  0  0  0  0
  2  3  1  0  0  0  0
  2  4  1  0  0  0  0
  2  5  1  0  0  0  0
  3 27  1  0  0  0  0
  3 28  1  0  0  0  0
  3 29  1  0  0  0  0
  4 30  1  0  0  0  0
  4 31  1  0  0  0  0
  4 32  1  0  0  0  0
  5 23  1  0  0  0  0
  5  6  2  0  0  0  0
  6  7  1  0  0  0  0
  6 33  1  0  0  0  0
  7  8  2  0  0  0  0
  7 34  1  0  0  0  0
  8  9  1  0  0  0  0
  8 22  1  0  0  0  0
  9 10  1  0  0  0  0
  9 35  1  0  0  0  0
 10 11  2  0  0  0  0
 10 12  1  0  0  0  0
 12 13  1  0  0  0  0
 12 36  1  0  0  0  0
 13 21  1  0  0  0  0
 13 14  1  0  0  0  0
 13 37  1  0  0  0  0
 14 15  1  0  0  0  0
 14 38  1  0  0  0  0
 14 39  1  0  0  0  0
 15 16  1  0  0  0  0
 15 40  1  0  0  0  0
 15 41  1  0  0  0  0
 16 17  1  0  0  0  0
 17 18  1  0  0  0  0
 17 21  1  0  0  0  0
 17 42  1  0  0  0  0
 18 20  1  0  0  0  0
 18 19  1  0  0  0  0
 18 43  1  0  0  0  0
 19 20  1  0  0  0  0
 19 44  1  0  0  0  0
 19 45  1  0  0  0  0
 20 46  1  0  0  0  0
 20 47  1  0  0  0  0
 21 48  1  0  0  0  0
 21 49  1  0  0  0  0
 22 23  2  0  0  0  0
M  END
> <s_m_source_file>
AV-unprocessed.smi

> <i_m_source_file_index>
2244

> <i_lp_mmshare_version>
43012

> <i_f3d_flags>
0

> <s_epik_input>
W0NIM11DKFtDSDNdKShbQ0gzXSljMVtjSF1bY0hdYyhubjEpW05IXUMoPU8pW05IXVtDQEBIXTJbQ0gyXVtDSDJdT1tDQEhdKFtDSDJdMilbQ0hdM1tDSDJdW0NIMl0z

> <s_epik_cmdline>
J2VwaWtfcHl0aG9uJywgJy1waCcsICc3LjAnLCAnLXRuJywgJzgnLCAnLW1hJywgJzIwMCcsICctbWV0YWxfYmluZGluZycsICctaW1hZScsICc8aW5maWxlLm1hZT4nLCAnLW9tYWUnLCAnPG91dGZpbGUubWFlPic=

> <r_lp_tautomer_probability>
1

> <r_epik_Ionization_Penalty>
0.011369

> <r_epik_Ionization_Penalty_Charging>
0

> <r_epik_Ionization_Penalty_Neutral>
0.011369

> <r_epik_State_Penalty>
0.00456331

> <r_epik_Charging_Adjusted_Penalty>
0.00456331

> <i_epik_Tot_Q>
0

> <i_epik_Tot_abs_Q>
0

> <r_epik_Metal_State_Penalty>
-0

> <b_epik_Metal_Only>
0

> <s_lp_Force_Field>
OPLS_2005

> <r_lp_Energy>
27.8211

> <b_lp_Chiralities_Consistent>
1

> <s_lp_Variant>
AV-unprocessed.smi:2244-3

> <Gold.Version>
5.8.1

> <Gold.Id.Protein>
6NUR|6NUR_protein|mol2

> <Gold.PLP.Fitness>
39.3699

> <Gold.PLP.PLP>
-39.8141

> <Gold.PLP.part.hbond>
0.0000

> <Gold.PLP.part.metal>
0.0000

> <Gold.PLP.part.buried>
-3.4504

> <Gold.PLP.part.nonpolar>
-36.1660

> <Gold.PLP.part.repulsive>
0.0473

> <Gold.PLP.ligand.clash>
0.0000

> <Gold.PLP.ligand.torsion>
0.7626

> <Gold.PLP.Chemscore.Hbond>
0.0000

> <Gold.PLP.Chemscore.CHOScore>
0.0000

> <Gold.PLP.Chemscore.Metal>
0.0000

> <Gold.PLP.Chemscore.Internal.Correction>
1.0810

> <Gold.Rescore>
     Score         DG    S(hbond)    S(metal)    S(lipo)     H(rot)  DE(clash)    DE(int)     intcor
     12.53     -15.67       0.00        0.00     115.53       1.30       0.06       3.07       ----

> <Gold.Chemscore.Fitness>
12.5341

> <Gold.Chemscore.DG>
-15.6684

> <Gold.Chemscore.ZeroCoef>
-5.4800

> <Gold.Chemscore.Hbond>
0.0000

> <Gold.Chemscore.Metal>
0.0000

> <Gold.Chemscore.Lipo>
115.5281

> <Gold.Chemscore.Internal_Hbond>
0.0000

> <Gold.Chemscore.DEClash>
0.0648

> <Gold.Chemscore.DEInternal>
3.0694

> <Gold.Chemscore.Rot>
1.3002

> <Gold.Chemscore.Internal.Correction>
   9.000000E+99

> <Gold.Chemscore.Hbond.Weighted>
-0.0000

> <Gold.Chemscore.Metal.Weighted>
-0.0000

> <Gold.Chemscore.Lipo.Weighted>
-13.5168

> <Gold.Chemscore.Internal_Hbond.Weighted>
0.0000

> <Gold.Chemscore.DEClash.Weighted>
0.0648

> <Gold.Chemscore.DEInternal.Weighted>
3.0694

> <Gold.Chemscore.Rot.Weighted>
3.3284

> <Gold.Chemscore.Internal.Correction.Weighted>
   9.000000E+99

> <Gold.Protein.RotatedTorsions>
[ 6907 6896 6895 6894 ] final  125.57 input  -60.11 | X-H torsion
[ 7974 7965 7964 7962 ] final   17.25 input  175.53 | X-H torsion
[ 8008 7997 7996 7995 ] final   97.02 input   59.86 | X-H torsion
[ 10167 10162 10161 10158 ] final -170.46 input  -65.29 | X-H torsion
[ 10718 10713 10712 10709 ] final  -19.68 input   66.30 | X-H torsion
[ 10763 10752 10751 10750 ] final -155.00 input  -60.55 | X-H torsion
[ 11005 11000 10999 10996 ] final  -44.76 input  -57.11 | X-H torsion

> <Gold.Protein.ActiveResidues>
 VAL166  LYS551  ARG553  GLY616  TRP617  ASP618  TYR619  PRO620  LYS621  CYS622 
 ASP623  PHE694  ASN695  SER759  ASP760  ASP761  ALA762  ILE779  LEU786  VAL792 
 PHE793  MET794  SER795  GLU796  ALA797  LYS798  CYS799  TRP800  GLU811  SER814 

> <Gold.Protein.RotatedAtoms>
  152.3981  133.6776  159.6292 H   0  0  0  0  0  0  0  0  0  0  0  0  # atno 6907 bound_to 6896
  150.7876  133.8839  159.3302 H   0  0  0  0  0  0  0  0  0  0  0  0  # atno 6908 bound_to 6896
  151.6611  135.0990  160.0231 H   0  0  0  0  0  0  0  0  0  0  0  0  # atno 6909 bound_to 6896
  146.2224  139.8630  142.8601 H   0  0  0  0  0  0  0  0  0  0  0  0  # atno 7974 bound_to 7965
  156.0857  140.3264  155.7751 H   0  0  0  0  0  0  0  0  0  0  0  0  # atno 8008 bound_to 7997
  155.5079  140.0574  157.2945 H   0  0  0  0  0  0  0  0  0  0  0  0  # atno 8009 bound_to 7997
  154.4608  140.1965  156.0267 H   0  0  0  0  0  0  0  0  0  0  0  0  # atno 8010 bound_to 7997
  139.5860  144.1317  152.1576 H   0  0  0  0  0  0  0  0  0  0  0  0  # atno 10167 bound_to 10162
  156.5423  130.4681  149.6493 H   0  0  0  0  0  0  0  0  0  0  0  0  # atno 10718 bound_to 10713
  154.7819  135.3177  154.7971 H   0  0  0  0  0  0  0  0  0  0  0  0  # atno 10763 bound_to 10752
  153.8681  135.6847  153.4781 H   0  0  0  0  0  0  0  0  0  0  0  0  # atno 10764 bound_to 10752
  153.1458  135.4720  154.9501 H   0  0  0  0  0  0  0  0  0  0  0  0  # atno 10765 bound_to 10752
  141.0472  133.6757  156.2918 H   0  0  0  0  0  0  0  0  0  0  0  0  # atno 11005 bound_to 11000
  145.2685  141.0101  143.3785 LP  0  0  0  0  0  0  0  0  0  0  0  0  # atno 17320 bound_to 7965
  144.9242  139.4375  143.6526 LP  0  0  0  0  0  0  0  0  0  0  0  0  # atno 17321 bound_to 7965
  140.0881  144.5644  150.7074 LP  0  0  0  0  0  0  0  0  0  0  0  0  # atno 17342 bound_to 10162
  140.7132  143.2522  151.4517 LP  0  0  0  0  0  0  0  0  0  0  0  0  # atno 17343 bound_to 10162
  156.2960  130.7151  151.2011 LP  0  0  0  0  0  0  0  0  0  0  0  0  # atno 17370 bound_to 10713
  157.7403  131.0518  150.5175 LP  0  0  0  0  0  0  0  0  0  0  0  0  # atno 17371 bound_to 10713
  140.6125  134.5444  157.5535 LP  0  0  0  0  0  0  0  0  0  0  0  0  # atno 17394 bound_to 11000
  139.9321  134.7944  156.0903 LP  0  0  0  0  0  0  0  0  0  0  0  0  # atno 17395 bound_to 11000

$$$$
