AV-unprocessed.smi:221|AV-procd|sdf|1690|dock7
  -GOLD-   2262020133D 1   1.00000     0.00000
 Structure written by MMmdl.
 50 53  0  0  0  0  0  0  0  0  1 V2000
  141.6811  134.5844  154.2338 N   0  0  0  0  0  0  0  0  0  0  0  0
  142.1087  135.6997  153.6374 C   0  0  0  0  0  0  0  0  0  0  0  0
  141.4850  136.7576  153.7059 O   0  0  0  0  0  0  0  0  0  0  0  0
  143.4370  135.6089  152.8724 C   0  0  2  0  0  0  0  0  0  0  0  0
  143.4064  134.5087  151.8030 C   0  0  0  0  0  0  0  0  0  0  0  0
  144.8808  134.1743  151.6081 C   0  0  1  0  0  0  0  0  0  0  0  0
  145.4339  135.0615  150.7794 F   0  0  0  0  0  0  0  0  0  0  0  0
  145.4688  134.3465  153.0106 C   0  0  0  0  0  0  0  0  0  0  0  0
  144.5542  135.2234  153.7375 N   0  0  0  0  0  0  0  0  0  0  0  0
  145.1346  136.2242  154.4358 C   0  0  0  0  0  0  0  0  0  0  0  0
  145.0010  136.1977  155.7839 N   0  0  0  0  0  0  0  0  0  0  0  0
  145.5527  137.1615  156.5280 C   0  0  0  0  0  0  0  0  0  0  0  0
  146.2642  138.2193  156.1314 N   0  0  0  0  0  0  0  0  0  0  0  0
  146.3988  138.2468  154.7743 C   0  0  0  0  0  0  0  0  0  0  0  0
  145.8698  137.2965  153.8570 C   0  0  0  0  0  0  0  0  0  0  0  0
  146.2070  137.6520  152.5566 N   0  0  0  0  0  0  0  0  0  0  0  0
  146.8967  138.7510  152.6967 C   0  0  0  0  0  0  0  0  0  0  0  0
  147.0561  139.1822  153.9940 N   0  0  0  0  0  0  0  0  0  0  0  0
  147.7736  140.3685  154.4272 C   0  0  0  0  0  0  0  0  0  0  0  0
  148.8236  140.0748  155.5272 C   0  0  1  0  0  0  0  0  0  0  0  0
  150.0551  139.3102  154.9836 C   0  0  0  0  0  0  0  0  0  0  0  0
  149.6710  138.2437  154.1402 O   0  0  0  0  0  0  0  0  0  0  0  0
  149.2185  141.3611  156.2964 C   0  0  2  0  0  0  0  0  0  0  0  0
  150.5305  141.2762  157.0566 C   0  0  0  0  0  0  0  0  0  0  0  0
  150.4076  142.4335  158.0412 C   0  0  0  0  0  0  0  0  0  0  0  0
  149.0218  142.5285  158.3492 O   0  0  0  0  0  0  0  0  0  0  0  0
  148.2642  141.7439  157.4330 C   0  0  0  0  0  0  0  0  0  0  0  0
  143.6471  136.5674  152.3939 H   0  0  0  0  0  0  0  0  0  0  0  0
  145.0501  133.1828  151.1878 H   0  0  0  0  0  0  0  0  0  0  0  0
  140.8124  134.5940  154.7483 H   0  0  0  0  0  0  0  0  0  0  0  0
  142.2254  133.7364  154.1684 H   0  0  0  0  0  0  0  0  0  0  0  0
  142.8795  133.6249  152.1679 H   0  0  0  0  0  0  0  0  0  0  0  0
  142.9223  134.8291  150.8800 H   0  0  0  0  0  0  0  0  0  0  0  0
  145.4815  133.3870  153.5285 H   0  0  0  0  0  0  0  0  0  0  0  0
  146.4984  134.7075  152.9772 H   0  0  0  0  0  0  0  0  0  0  0  0
  145.4025  137.0717  157.5937 H   0  0  0  0  0  0  0  0  0  0  0  0
  147.3082  139.2835  151.8516 H   0  0  0  0  0  0  0  0  0  0  0  0
  148.2496  140.8277  153.5602 H   0  0  0  0  0  0  0  0  0  0  0  0
  147.0331  141.0845  154.7837 H   0  0  0  0  0  0  0  0  0  0  0  0
  148.3454  139.4085  156.2468 H   0  0  0  0  0  0  0  0  0  0  0  0
  150.7111  139.9771  154.4244 H   0  0  0  0  0  0  0  0  0  0  0  0
  150.6601  138.9119  155.7982 H   0  0  0  0  0  0  0  0  0  0  0  0
  149.7863  138.5136  153.2419 H   0  0  0  0  0  0  0  0  0  0  0  0
  149.2777  142.2000  155.6010 H   0  0  0  0  0  0  0  0  0  0  0  0
  150.5995  140.3309  157.5969 H   0  0  0  0  0  0  0  0  0  0  0  0
  151.4075  141.3687  156.4152 H   0  0  0  0  0  0  0  0  0  0  0  0
  151.0078  142.2842  158.9388 H   0  0  0  0  0  0  0  0  0  0  0  0
  150.7240  143.3660  157.5724 H   0  0  0  0  0  0  0  0  0  0  0  0
  147.3923  142.2935  157.0776 H   0  0  0  0  0  0  0  0  0  0  0  0
  147.9103  140.8559  157.9582 H   0  0  0  0  0  0  0  0  0  0  0  0
  1  2  1  0  0  0  0
  1 30  1  0  0  0  0
  1 31  1  0  0  0  0
  2  3  2  0  0  0  0
  2  4  1  0  0  0  0
  4 28  1  0  0  0  0
  4  9  1  0  0  0  0
  4  5  1  0  0  0  0
  5  6  1  0  0  0  0
  5 32  1  0  0  0  0
  5 33  1  0  0  0  0
  6 29  1  0  0  0  0
  6  7  1  0  0  0  0
  6  8  1  0  0  0  0
  8  9  1  0  0  0  0
  8 34  1  0  0  0  0
  8 35  1  0  0  0  0
  9 10  1  0  0  0  0
 10 15  1  0  0  0  0
 10 11  2  0  0  0  0
 11 12  1  0  0  0  0
 12 13  2  0  0  0  0
 12 36  1  0  0  0  0
 13 14  1  0  0  0  0
 14 18  1  0  0  0  0
 14 15  2  0  0  0  0
 15 16  1  0  0  0  0
 16 17  2  0  0  0  0
 17 18  1  0  0  0  0
 17 37  1  0  0  0  0
 18 19  1  0  0  0  0
 19 20  1  0  0  0  0
 19 38  1  0  0  0  0
 19 39  1  0  0  0  0
 20 21  1  0  0  0  0
 20 23  1  0  0  0  0
 20 40  1  0  0  0  0
 21 22  1  0  0  0  0
 21 41  1  0  0  0  0
 21 42  1  0  0  0  0
 22 43  1  0  0  0  0
 23 27  1  0  0  0  0
 23 24  1  0  0  0  0
 23 44  1  0  0  0  0
 24 25  1  0  0  0  0
 24 45  1  0  0  0  0
 24 46  1  0  0  0  0
 25 26  1  0  0  0  0
 25 47  1  0  0  0  0
 25 48  1  0  0  0  0
 26 27  1  0  0  0  0
 27 49  1  0  0  0  0
 27 50  1  0  0  0  0
M  END
> <s_m_source_file>
AV-unprocessed.smi

> <i_m_source_file_index>
221

> <i_lp_mmshare_version>
43012

> <i_f3d_flags>
0

> <s_epik_input>
W05IMl1DKD1PKVtDQEBIXTFbQ0gyXVtDQEBIXShGKVtDSDJdTjFjKG5bY0hdbjIpYyhjMjMpbltjSF1uM1tDSDJdW0NASF0oW0NIMl1bT0hdKVtDQEBIXTRbQ0gyXVtDSDJdT1tDSDJdNA==

> <s_epik_cmdline>
J2VwaWtfcHl0aG9uJywgJy1waCcsICc3LjAnLCAnLXRuJywgJzgnLCAnLW1hJywgJzIwMCcsICctbWV0YWxfYmluZGluZycsICctaW1hZScsICc8aW5maWxlLm1hZT4nLCAnLW9tYWUnLCAnPG91dGZpbGUubWFlPic=

> <r_lp_tautomer_probability>
1

> <r_epik_Ionization_Penalty>
0.000818822

> <r_epik_Ionization_Penalty_Charging>
0

> <r_epik_Ionization_Penalty_Neutral>
0.000818822

> <r_epik_State_Penalty>
0.000440551

> <r_epik_Charging_Adjusted_Penalty>
0.000440551

> <i_epik_Tot_Q>
0

> <i_epik_Tot_abs_Q>
0

> <r_epik_Metal_State_Penalty>
-0

> <b_epik_Metal_Only>
0

> <s_lp_Force_Field>
OPLS_2005

> <r_lp_Energy>
51.1408

> <b_lp_Chiralities_Consistent>
1

> <s_lp_Variant>
AV-unprocessed.smi:221-5

> <Gold.Version>
5.8.1

> <Gold.Id.Protein>
6NUR|6NUR_protein|mol2

> <Gold.PLP.Fitness>
45.4854

> <Gold.PLP.PLP>
-35.7731

> <Gold.PLP.part.hbond>
-4.0000

> <Gold.PLP.part.metal>
0.0000

> <Gold.PLP.part.buried>
-5.4740

> <Gold.PLP.part.nonpolar>
-28.1308

> <Gold.PLP.part.repulsive>
0.6026

> <Gold.PLP.ligand.clash>
0.0000

> <Gold.PLP.ligand.torsion>
0.8975

> <Gold.PLP.Chemscore.Hbond>
2.8960

> <Gold.PLP.Chemscore.CHOScore>
0.8376

> <Gold.PLP.Chemscore.Metal>
0.0000

> <Gold.Chemscore.Hbonds>
donor molecule, donor type, donor heavy atom, donor atom, acceptor molecule, acceptor atom, score
      L1  H     1    30       P1 11000  0.67
      L1  H     1    31       P1 10957  0.83
      L1  C    17    37       P1  7957  1.00

> <Gold.PLP.Chemscore.Internal.Correction>
0.3063

> <Gold.Rescore>
     Score         DG    S(hbond)    S(metal)    S(lipo)     H(rot)  DE(clash)    DE(int)     intcor
      9.68     -11.53       2.77        0.00      53.96       3.72       0.03       1.82       ----

> <Gold.Chemscore.Fitness>
9.6808

> <Gold.Chemscore.DG>
-11.5343

> <Gold.Chemscore.ZeroCoef>
-5.4800

> <Gold.Chemscore.Hbond>
2.7737

> <Gold.Chemscore.Metal>
0.0000

> <Gold.Chemscore.Lipo>
53.9640

> <Gold.Chemscore.Internal_Hbond>
0.0000

> <Gold.Chemscore.DEClash>
0.0308

> <Gold.Chemscore.DEInternal>
1.8227

> <Gold.Chemscore.Rot>
3.7202

> <Gold.Chemscore.Internal.Correction>
   9.000000E+99

> <Gold.Chemscore.Hbonds>
donor molecule, donor type, donor heavy atom, donor atom, acceptor molecule, acceptor atom, score
      L1  H     1    30       P1 11000  0.59
      L1  H     1    31       P1 10957  0.78

> <Gold.Chemscore.Hbond.Weighted>
-9.2642

> <Gold.Chemscore.Metal.Weighted>
-0.0000

> <Gold.Chemscore.Lipo.Weighted>
-6.3138

> <Gold.Chemscore.Internal_Hbond.Weighted>
0.0000

> <Gold.Chemscore.DEClash.Weighted>
0.0308

> <Gold.Chemscore.DEInternal.Weighted>
1.8227

> <Gold.Chemscore.Rot.Weighted>
9.5237

> <Gold.Chemscore.Internal.Correction.Weighted>
   9.000000E+99

> <Gold.Protein.RotatedTorsions>
[ 6907 6896 6895 6894 ] final  -96.11 input  -60.11 | X-H torsion
[ 7974 7965 7964 7962 ] final -141.02 input  175.53 | X-H torsion
[ 8008 7997 7996 7995 ] final   41.80 input   59.86 | X-H torsion
[ 10167 10162 10161 10158 ] final  149.09 input  -65.29 | X-H torsion
[ 10718 10713 10712 10709 ] final   70.55 input   66.30 | X-H torsion
[ 10763 10752 10751 10750 ] final  100.12 input  -60.55 | X-H torsion
[ 11005 11000 10999 10996 ] final  161.01 input  -57.11 | X-H torsion

> <Gold.Protein.ActiveResidues>
 VAL166  LYS551  ARG553  GLY616  TRP617  ASP618  TYR619  PRO620  LYS621  CYS622 
 ASP623  PHE694  ASN695  SER759  ASP760  ASP761  ALA762  ILE779  LEU786  VAL792 
 PHE793  MET794  SER795  GLU796  ALA797  LYS798  CYS799  TRP800  GLU811  SER814 

> <Gold.Protein.RotatedAtoms>
  150.6980  134.1554  159.4155 H   0  0  0  0  0  0  0  0  0  0  0  0  # atno 6907 bound_to 6896
  151.9536  135.0155  160.0553 H   0  0  0  0  0  0  0  0  0  0  0  0  # atno 6908 bound_to 6896
  152.1989  133.4792  159.5085 H   0  0  0  0  0  0  0  0  0  0  0  0  # atno 6909 bound_to 6896
  144.8552  140.6131  143.5364 H   0  0  0  0  0  0  0  0  0  0  0  0  # atno 7974 bound_to 7965
  155.2756  140.3369  155.4262 H   0  0  0  0  0  0  0  0  0  0  0  0  # atno 8008 bound_to 7997
  156.2113  140.1771  156.7730 H   0  0  0  0  0  0  0  0  0  0  0  0  # atno 8009 bound_to 7997
  154.5690  140.0673  156.8920 H   0  0  0  0  0  0  0  0  0  0  0  0  # atno 8010 bound_to 7997
  139.4866  144.5629  151.7198 H   0  0  0  0  0  0  0  0  0  0  0  0  # atno 10167 bound_to 10162
  157.6405  130.9483  150.0666 H   0  0  0  0  0  0  0  0  0  0  0  0  # atno 10718 bound_to 10713
  153.3100  135.4090  155.1327 H   0  0  0  0  0  0  0  0  0  0  0  0  # atno 10763 bound_to 10752
  154.8573  135.3562  154.5736 H   0  0  0  0  0  0  0  0  0  0  0  0  # atno 10764 bound_to 10752
  153.6165  135.7066  153.5385 H   0  0  0  0  0  0  0  0  0  0  0  0  # atno 10765 bound_to 10752
  140.2116  134.8263  157.3126 H   0  0  0  0  0  0  0  0  0  0  0  0  # atno 11005 bound_to 11000
  145.4420  139.1534  143.3965 LP  0  0  0  0  0  0  0  0  0  0  0  0  # atno 17320 bound_to 7965
  146.2817  140.4542  142.8774 LP  0  0  0  0  0  0  0  0  0  0  0  0  # atno 17321 bound_to 7965
  140.5202  144.0891  150.6020 LP  0  0  0  0  0  0  0  0  0  0  0  0  # atno 17342 bound_to 10162
  140.3846  143.2784  152.0131 LP  0  0  0  0  0  0  0  0  0  0  0  0  # atno 17343 bound_to 10162
  156.1682  130.3645  149.9202 LP  0  0  0  0  0  0  0  0  0  0  0  0  # atno 17370 bound_to 10713
  156.7183  130.8997  151.3616 LP  0  0  0  0  0  0  0  0  0  0  0  0  # atno 17371 bound_to 10713
  140.1945  134.4331  155.7697 LP  0  0  0  0  0  0  0  0  0  0  0  0  # atno 17394 bound_to 11000
  141.2226  133.7043  156.8082 LP  0  0  0  0  0  0  0  0  0  0  0  0  # atno 17395 bound_to 11000

$$$$
