AV-unprocessed.smi:3354|AV-procd|sdf|12962|dock7
  -GOLD-   2272019403D 1   1.00000     0.00000
 Structure written by MMmdl.
 38 40  0  0  0  0  0  0  0  0  1 V2000
  150.2706  141.8328  157.7566 C   0  0  0  0  0  0  0  0  0  0  0  0
  149.9653  141.1634  156.4341 C   0  0  1  0  0  0  0  0  0  0  0  0
  150.6688  139.8804  156.0542 C   0  0  0  0  0  0  0  0  0  0  0  0
  149.1890  139.8660  156.3819 C   0  0  2  0  0  0  0  0  0  0  0  0
  148.2192  139.6848  155.3444 N   0  0  0  0  0  0  0  0  0  0  0  0
  147.5912  138.3828  155.1951 C   0  0  0  0  0  0  0  0  0  0  0  0
  146.6293  138.5272  154.0036 C   0  0  2  0  0  0  0  0  0  0  0  0
  146.6949  137.3559  153.1339 N   0  0  0  0  0  0  0  0  0  0  0  0
  145.6689  136.5305  152.8845 C   0  0  0  0  0  0  0  0  0  0  0  0
  144.5451  136.6832  153.3627 O   0  0  0  0  0  0  0  0  0  0  0  0
  146.0293  135.5487  152.0404 N   0  0  0  0  0  0  0  0  0  0  0  0
  145.2489  134.4609  151.5637 C   0  0  0  0  0  0  0  0  0  0  0  0
  145.6932  133.5238  150.5995 C   0  0  0  0  0  0  0  0  0  0  0  0
  144.8156  132.5013  150.1910 C   0  0  0  0  0  0  0  0  0  0  0  0
  143.5258  132.4563  150.7545 C   0  0  0  0  0  0  0  0  0  0  0  0
  143.0845  133.3498  151.6648 N   0  0  0  0  0  0  0  0  0  0  0  0
  143.9312  134.3279  152.0511 C   0  0  0  0  0  0  0  0  0  0  0  0
  147.0622  139.8178  153.2904 C   0  0  0  0  0  0  0  0  0  0  0  0
  148.0384  140.4566  154.2636 C   0  0  0  0  0  0  0  0  0  0  0  0
  148.5855  141.5345  154.0347 O   0  0  0  0  0  0  0  0  0  0  0  0
  150.4392  141.0905  158.5376 H   0  0  0  0  0  0  0  0  0  0  0  0
  149.4354  142.4665  158.0549 H   0  0  0  0  0  0  0  0  0  0  0  0
  151.1630  142.4522  157.6658 H   0  0  0  0  0  0  0  0  0  0  0  0
  149.7887  141.8648  155.6204 H   0  0  0  0  0  0  0  0  0  0  0  0
  150.9821  139.7864  155.0161 H   0  0  0  0  0  0  0  0  0  0  0  0
  151.3445  139.4359  156.7822 H   0  0  0  0  0  0  0  0  0  0  0  0
  148.9271  139.4229  157.3410 H   0  0  0  0  0  0  0  0  0  0  0  0
  148.3660  137.6380  155.0053 H   0  0  0  0  0  0  0  0  0  0  0  0
  147.0629  138.0943  156.1048 H   0  0  0  0  0  0  0  0  0  0  0  0
  145.6129  138.6499  154.3832 H   0  0  0  0  0  0  0  0  0  0  0  0
  147.5834  137.1605  152.6963 H   0  0  0  0  0  0  0  0  0  0  0  0
  146.9626  135.6095  151.6605 H   0  0  0  0  0  0  0  0  0  0  0  0
  146.6753  133.5759  150.1563 H   0  0  0  0  0  0  0  0  0  0  0  0
  145.1232  131.7706  149.4576 H   0  0  0  0  0  0  0  0  0  0  0  0
  142.8281  131.6857  150.4613 H   0  0  0  0  0  0  0  0  0  0  0  0
  143.5431  135.0267  152.7778 H   0  0  0  0  0  0  0  0  0  0  0  0
  147.5761  139.6200  152.3484 H   0  0  0  0  0  0  0  0  0  0  0  0
  146.2163  140.4770  153.0914 H   0  0  0  0  0  0  0  0  0  0  0  0
  1  2  1  0  0  0  0
  1 21  1  0  0  0  0
  1 22  1  0  0  0  0
  1 23  1  0  0  0  0
  2  4  1  0  0  0  0
  2  3  1  0  0  0  0
  2 24  1  0  0  0  0
  3  4  1  0  0  0  0
  3 25  1  0  0  0  0
  3 26  1  0  0  0  0
  4  5  1  0  0  0  0
  4 27  1  0  0  0  0
  5 19  1  0  0  0  0
  5  6  1  0  0  0  0
  6  7  1  0  0  0  0
  6 28  1  0  0  0  0
  6 29  1  0  0  0  0
  7  8  1  0  0  0  0
  7 18  1  0  0  0  0
  7 30  1  0  0  0  0
  8  9  1  0  0  0  0
  8 31  1  0  0  0  0
  9 10  2  0  0  0  0
  9 11  1  0  0  0  0
 11 12  1  0  0  0  0
 11 32  1  0  0  0  0
 12 17  1  0  0  0  0
 12 13  2  0  0  0  0
 13 14  1  0  0  0  0
 13 33  1  0  0  0  0
 14 15  2  0  0  0  0
 14 34  1  0  0  0  0
 15 16  1  0  0  0  0
 15 35  1  0  0  0  0
 16 17  2  0  0  0  0
 17 36  1  0  0  0  0
 18 19  1  0  0  0  0
 18 37  1  0  0  0  0
 18 38  1  0  0  0  0
 19 20  2  0  0  0  0
M  END
> <s_m_source_file>
AV-unprocessed.smi

> <i_m_source_file_index>
3354

> <i_lp_mmshare_version>
43012

> <i_f3d_flags>
0

> <s_epik_input>
W0NIM11bQ0BASF0xW0NIMl1bQ0BIXTFOMltDSDJdW0NASF0oW0NIMl1DMj1PKVtOSF1DKD1PKVtOSF1jM1tjSF1bY0hdW2NIXW5bY0hdMw==

> <s_epik_cmdline>
J2VwaWtfcHl0aG9uJywgJy1waCcsICc3LjAnLCAnLXRuJywgJzgnLCAnLW1hJywgJzIwMCcsICctbWV0YWxfYmluZGluZycsICctaW1hZScsICc8aW5maWxlLm1hZT4nLCAnLW9tYWUnLCAnPG91dGZpbGUubWFlPic=

> <r_epik_Ionization_Penalty>
0.00456191

> <r_epik_Ionization_Penalty_Charging>
0

> <r_epik_Ionization_Penalty_Neutral>
0.00456191

> <r_epik_State_Penalty>
0.00327094

> <r_epik_Charging_Adjusted_Penalty>
0.00327094

> <i_epik_Tot_Q>
0

> <i_epik_Tot_abs_Q>
0

> <r_epik_Metal_State_Penalty>
-0

> <b_epik_Metal_Only>
0

> <s_lp_Force_Field>
OPLS_2005

> <r_lp_Energy>
40.9267

> <b_lp_Chiralities_Consistent>
1

> <s_lp_Variant>
AV-unprocessed.smi:3354-8

> <Gold.Version>
5.8.1

> <Gold.Id.Protein>
6NUR|6NUR_protein|mol2

> <Gold.PLP.Fitness>
39.9992

> <Gold.PLP.PLP>
-29.7496

> <Gold.PLP.part.hbond>
-3.4919

> <Gold.PLP.part.metal>
0.0000

> <Gold.PLP.part.buried>
-4.2794

> <Gold.PLP.part.nonpolar>
-24.6016

> <Gold.PLP.part.repulsive>
1.3751

> <Gold.PLP.ligand.clash>
0.0000

> <Gold.PLP.ligand.torsion>
0.2131

> <Gold.PLP.Chemscore.Hbond>
2.6800

> <Gold.PLP.Chemscore.CHOScore>
0.7522

> <Gold.PLP.Chemscore.Metal>
0.0000

> <Gold.Chemscore.Hbonds>
donor molecule, donor type, donor heavy atom, donor atom, acceptor molecule, acceptor atom, score
      L1  H     8    31       P1  7948  1.00
      L1  H    11    32       P1  7948  0.93
      P1  H  8011  8017       L1    20  0.27
      L1  C    15    35       P1 10952  0.90

> <Gold.PLP.Chemscore.Internal.Correction>
0.3794

> <Gold.Rescore>
     Score         DG    S(hbond)    S(metal)    S(lipo)     H(rot)  DE(clash)    DE(int)     intcor
     15.92     -19.03       2.61        0.00      68.36       1.24       0.08       3.02       ----

> <Gold.Chemscore.Fitness>
15.9244

> <Gold.Chemscore.DG>
-19.0270

> <Gold.Chemscore.ZeroCoef>
-5.4800

> <Gold.Chemscore.Hbond>
2.6086

> <Gold.Chemscore.Metal>
0.0000

> <Gold.Chemscore.Lipo>
68.3631

> <Gold.Chemscore.Internal_Hbond>
0.0000

> <Gold.Chemscore.DEClash>
0.0807

> <Gold.Chemscore.DEInternal>
3.0219

> <Gold.Chemscore.Rot>
1.2361

> <Gold.Chemscore.Internal.Correction>
   9.000000E+99

> <Gold.Chemscore.Hbonds>
donor molecule, donor type, donor heavy atom, donor atom, acceptor molecule, acceptor atom, score
      L1  H     8    31       P1  7948  1.00
      L1  H    11    32       P1  7948  0.84
      P1  H  8011  8017       L1    20  0.26

> <Gold.Chemscore.Hbond.Weighted>
-8.7128

> <Gold.Chemscore.Metal.Weighted>
-0.0000

> <Gold.Chemscore.Lipo.Weighted>
-7.9985

> <Gold.Chemscore.Internal_Hbond.Weighted>
0.0000

> <Gold.Chemscore.DEClash.Weighted>
0.0807

> <Gold.Chemscore.DEInternal.Weighted>
3.0219

> <Gold.Chemscore.Rot.Weighted>
3.1643

> <Gold.Chemscore.Internal.Correction.Weighted>
   9.000000E+99

> <Gold.Protein.RotatedTorsions>
[ 6907 6896 6895 6894 ] final  157.11 input  -60.11 | X-H torsion
[ 7974 7965 7964 7962 ] final  -14.30 input  175.53 | X-H torsion
[ 8008 7997 7996 7995 ] final -145.65 input   59.86 | X-H torsion
[ 10167 10162 10161 10158 ] final  -75.43 input  -65.29 | X-H torsion
[ 10718 10713 10712 10709 ] final   86.54 input   66.30 | X-H torsion
[ 10763 10752 10751 10750 ] final   49.58 input  -60.55 | X-H torsion
[ 11005 11000 10999 10996 ] final    1.04 input  -57.11 | X-H torsion

> <Gold.Protein.ActiveResidues>
 VAL166  LYS551  ARG553  GLY616  TRP617  ASP618  TYR619  PRO620  LYS621  CYS622 
 ASP623  PHE694  ASN695  SER759  ASP760  ASP761  ALA762  ILE779  LEU786  VAL792 
 PHE793  MET794  SER795  GLU796  ALA797  LYS798  CYS799  TRP800  GLU811  SER814 

> <Gold.Protein.RotatedAtoms>
  152.0199  133.3894  159.4253 H   0  0  0  0  0  0  0  0  0  0  0  0  # atno 6907 bound_to 6896
  150.6891  134.3637  159.4971 H   0  0  0  0  0  0  0  0  0  0  0  0  # atno 6908 bound_to 6896
  152.1410  134.9062  160.0604 H   0  0  0  0  0  0  0  0  0  0  0  0  # atno 6909 bound_to 6896
  146.2080  140.3329  142.8400 H   0  0  0  0  0  0  0  0  0  0  0  0  # atno 7974 bound_to 7965
  155.5466  140.0613  157.2859 H   0  0  0  0  0  0  0  0  0  0  0  0  # atno 8008 bound_to 7997
  154.4434  140.1910  156.0689 H   0  0  0  0  0  0  0  0  0  0  0  0  # atno 8009 bound_to 7997
  156.0546  140.3280  155.7394 H   0  0  0  0  0  0  0  0  0  0  0  0  # atno 8010 bound_to 7997
  140.4943  143.2374  151.7856 H   0  0  0  0  0  0  0  0  0  0  0  0  # atno 10167 bound_to 10162
  157.6930  131.0220  150.2988 H   0  0  0  0  0  0  0  0  0  0  0  0  # atno 10718 bound_to 10713
  152.9786  135.5907  154.4112 H   0  0  0  0  0  0  0  0  0  0  0  0  # atno 10763 bound_to 10752
  154.3747  135.2767  155.2248 H   0  0  0  0  0  0  0  0  0  0  0  0  # atno 10764 bound_to 10752
  154.4187  135.6064  153.6051 H   0  0  0  0  0  0  0  0  0  0  0  0  # atno 10765 bound_to 10752
  140.6198  133.9672  155.8219 H   0  0  0  0  0  0  0  0  0  0  0  0  # atno 11005 bound_to 11000
  144.8840  140.7437  143.5969 LP  0  0  0  0  0  0  0  0  0  0  0  0  # atno 17320 bound_to 7965
  145.3249  139.1777  143.4568 LP  0  0  0  0  0  0  0  0  0  0  0  0  # atno 17321 bound_to 7965
  139.4858  144.4607  151.9544 LP  0  0  0  0  0  0  0  0  0  0  0  0  # atno 17342 bound_to 10162
  140.3695  144.2873  150.5922 LP  0  0  0  0  0  0  0  0  0  0  0  0  # atno 17343 bound_to 10162
  156.3508  130.3830  149.7331 LP  0  0  0  0  0  0  0  0  0  0  0  0  # atno 17370 bound_to 10713
  156.4809  130.8041  151.3055 LP  0  0  0  0  0  0  0  0  0  0  0  0  # atno 17371 bound_to 10713
  141.0750  134.0148  157.3471 LP  0  0  0  0  0  0  0  0  0  0  0  0  # atno 17394 bound_to 11000
  139.9158  135.0196  156.7874 LP  0  0  0  0  0  0  0  0  0  0  0  0  # atno 17395 bound_to 11000

$$$$
