AV-unprocessed.smi:2996|AV-procd|sdf|11410|dock3
  -GOLD-   2272016333D 1   1.00000     0.00000
 Structure written by MMmdl.
 46 47  0  0  0  0  0  0  0  0  1 V2000
  149.4421  131.8498  154.3262 C   0  0  0  0  0  0  0  0  0  0  0  0
  149.2539  132.4573  155.7207 C   0  0  0  0  0  0  0  0  0  0  0  0
  149.8455  133.8365  155.8197 C   0  0  0  0  0  0  0  0  0  0  0  0
  150.6966  134.1270  156.7907 N   0  0  0  0  0  0  0  0  0  0  0  0
  151.0425  135.4760  156.6202 O   0  0  0  0  0  0  0  0  0  0  0  0
  150.3810  135.9768  155.5418 C   0  0  0  0  0  0  0  0  0  0  0  0
  150.5918  137.4275  155.2575 C   0  0  0  0  0  0  0  0  0  0  0  0
  149.6324  134.9701  154.9923 C   0  0  0  0  0  0  0  0  0  0  0  0
  148.7469  134.9993  153.8849 N   0  0  0  0  0  0  0  0  0  0  0  0
  147.5621  134.3801  153.7723 C   0  0  0  0  0  0  0  0  0  0  0  0
  147.0406  133.6885  154.6458 O   0  0  0  0  0  0  0  0  0  0  0  0
  146.9935  134.6334  152.5862 N   0  0  0  0  0  0  0  0  0  0  0  0
  145.6835  134.1462  152.1592 C   0  0  2  0  0  0  0  0  0  0  0  0
  145.8093  132.9800  151.1989 C   0  0  0  0  0  0  0  0  0  0  0  0
  144.4824  133.0158  150.4304 C   0  0  0  0  0  0  0  0  0  0  0  0
  144.6533  132.6269  148.9539 C   0  0  0  0  0  0  0  0  0  0  0  0
  143.4041  132.1518  151.1061 C   0  0  0  0  0  0  0  0  0  0  0  0
  144.0408  134.3714  150.4938 O   0  0  0  0  0  0  0  0  0  0  0  0
  144.8734  135.1693  151.3341 C   0  0  0  0  0  0  0  0  0  0  0  0
  143.9593  136.0380  152.2128 C   0  0  0  0  0  0  0  0  0  0  0  0
  145.7273  136.0505  150.3982 C   0  0  0  0  0  0  0  0  0  0  0  0
  149.0067  130.8517  154.2752 H   0  0  0  0  0  0  0  0  0  0  0  0
  150.4996  131.7658  154.0743 H   0  0  0  0  0  0  0  0  0  0  0  0
  148.9626  132.4614  153.5613 H   0  0  0  0  0  0  0  0  0  0  0  0
  148.1907  132.4899  155.9604 H   0  0  0  0  0  0  0  0  0  0  0  0
  149.7079  131.8020  156.4645 H   0  0  0  0  0  0  0  0  0  0  0  0
  149.6739  137.8914  154.8964 H   0  0  0  0  0  0  0  0  0  0  0  0
  151.3660  137.5655  154.5029 H   0  0  0  0  0  0  0  0  0  0  0  0
  150.9012  137.9604  156.1570 H   0  0  0  0  0  0  0  0  0  0  0  0
  149.0005  135.6266  153.1359 H   0  0  0  0  0  0  0  0  0  0  0  0
  147.4941  135.2185  151.9336 H   0  0  0  0  0  0  0  0  0  0  0  0
  145.1021  133.8127  153.0212 H   0  0  0  0  0  0  0  0  0  0  0  0
  146.6459  133.1463  150.5181 H   0  0  0  0  0  0  0  0  0  0  0  0
  145.9867  132.0308  151.7059 H   0  0  0  0  0  0  0  0  0  0  0  0
  145.0105  131.6015  148.8555 H   0  0  0  0  0  0  0  0  0  0  0  0
  145.3696  133.2786  148.4527 H   0  0  0  0  0  0  0  0  0  0  0  0
  143.7087  132.7039  148.4149 H   0  0  0  0  0  0  0  0  0  0  0  0
  143.6849  131.0982  151.1041 H   0  0  0  0  0  0  0  0  0  0  0  0
  142.4484  132.2408  150.5887 H   0  0  0  0  0  0  0  0  0  0  0  0
  143.2431  132.4503  152.1424 H   0  0  0  0  0  0  0  0  0  0  0  0
  144.5397  136.6807  152.8748 H   0  0  0  0  0  0  0  0  0  0  0  0
  143.3068  135.4232  152.8331 H   0  0  0  0  0  0  0  0  0  0  0  0
  143.3224  136.6800  151.6038 H   0  0  0  0  0  0  0  0  0  0  0  0
  146.3679  136.7308  150.9600 H   0  0  0  0  0  0  0  0  0  0  0  0
  145.0936  136.6605  149.7537 H   0  0  0  0  0  0  0  0  0  0  0  0
  146.3660  135.4501  149.7501 H   0  0  0  0  0  0  0  0  0  0  0  0
  1  2  1  0  0  0  0
  1 22  1  0  0  0  0
  1 23  1  0  0  0  0
  1 24  1  0  0  0  0
  2  3  1  0  0  0  0
  2 25  1  0  0  0  0
  2 26  1  0  0  0  0
  3  8  1  0  0  0  0
  3  4  2  0  0  0  0
  4  5  1  0  0  0  0
  5  6  1  0  0  0  0
  6  7  1  0  0  0  0
  6  8  2  0  0  0  0
  7 27  1  0  0  0  0
  7 28  1  0  0  0  0
  7 29  1  0  0  0  0
  8  9  1  0  0  0  0
  9 10  1  0  0  0  0
  9 30  1  0  0  0  0
 10 11  2  0  0  0  0
 10 12  1  0  0  0  0
 12 13  1  0  0  0  0
 12 31  1  0  0  0  0
 13 19  1  0  0  0  0
 13 14  1  0  0  0  0
 13 32  1  0  0  0  0
 14 15  1  0  0  0  0
 14 33  1  0  0  0  0
 14 34  1  0  0  0  0
 15 16  1  0  0  0  0
 15 17  1  0  0  0  0
 15 18  1  0  0  0  0
 16 35  1  0  0  0  0
 16 36  1  0  0  0  0
 16 37  1  0  0  0  0
 17 38  1  0  0  0  0
 17 39  1  0  0  0  0
 17 40  1  0  0  0  0
 18 19  1  0  0  0  0
 19 20  1  0  0  0  0
 19 21  1  0  0  0  0
 20 41  1  0  0  0  0
 20 42  1  0  0  0  0
 20 43  1  0  0  0  0
 21 44  1  0  0  0  0
 21 45  1  0  0  0  0
 21 46  1  0  0  0  0
M  END
> <s_m_source_file>
AV-unprocessed.smi

> <i_m_source_file_index>
2996

> <i_lp_mmshare_version>
43012

> <i_f3d_flags>
0

> <s_epik_input>
W0NIM11bQ0gyXWMxbm9jKFtDSDNdKWMxW05IXUMoPU8pW05IXVtDQEBIXShDKE8yKShbQ0gzXSlbQ0gzXSlbQ0gyXUMyKFtDSDNdKVtDSDNd

> <s_epik_cmdline>
J2VwaWtfcHl0aG9uJywgJy1waCcsICc3LjAnLCAnLXRuJywgJzgnLCAnLW1hJywgJzIwMCcsICctbWV0YWxfYmluZGluZycsICctaW1hZScsICc8aW5maWxlLm1hZT4nLCAnLW9tYWUnLCAnPG91dGZpbGUubWFlPic=

> <r_lp_tautomer_probability>
1

> <r_epik_Ionization_Penalty>
3.17207e-05

> <r_epik_Ionization_Penalty_Charging>
0

> <r_epik_Ionization_Penalty_Neutral>
3.17207e-05

> <r_epik_State_Penalty>
-0

> <r_epik_Charging_Adjusted_Penalty>
0

> <i_epik_Tot_Q>
0

> <i_epik_Tot_abs_Q>
0

> <r_epik_Metal_State_Penalty>
-0

> <b_epik_Metal_Only>
0

> <s_lp_Force_Field>
OPLS_2005

> <r_lp_Energy>
17.7476

> <b_lp_Chiralities_Consistent>
1

> <s_lp_Variant>
AV-unprocessed.smi:2996-1

> <Gold.Version>
5.8.1

> <Gold.Id.Protein>
6NUR|6NUR_protein|mol2

> <Gold.PLP.Fitness>
37.0523

> <Gold.PLP.PLP>
-32.1087

> <Gold.PLP.part.hbond>
-2.5759

> <Gold.PLP.part.metal>
0.0000

> <Gold.PLP.part.buried>
-3.6069

> <Gold.PLP.part.nonpolar>
-26.0394

> <Gold.PLP.part.repulsive>
0.2309

> <Gold.PLP.ligand.clash>
0.0000

> <Gold.PLP.ligand.torsion>
0.6069

> <Gold.PLP.Chemscore.Hbond>
2.0000

> <Gold.PLP.Chemscore.CHOScore>
0.0000

> <Gold.PLP.Chemscore.Metal>
0.0000

> <Gold.Chemscore.Hbonds>
donor molecule, donor type, donor heavy atom, donor atom, acceptor molecule, acceptor atom, score
      L1  H     9    30       P1  7948  0.63
      L1  H    12    31       P1  7948  0.82

> <Gold.PLP.Chemscore.Internal.Correction>
0.1574

> <Gold.Rescore>
     Score         DG    S(hbond)    S(metal)    S(lipo)     H(rot)  DE(clash)    DE(int)     intcor
     15.51     -18.30       1.82        0.00      82.90       1.16       0.01       2.78       ----

> <Gold.Chemscore.Fitness>
15.5124

> <Gold.Chemscore.DG>
-18.3028

> <Gold.Chemscore.ZeroCoef>
-5.4800

> <Gold.Chemscore.Hbond>
1.8236

> <Gold.Chemscore.Metal>
0.0000

> <Gold.Chemscore.Lipo>
82.8986

> <Gold.Chemscore.Internal_Hbond>
0.0000

> <Gold.Chemscore.DEClash>
0.0130

> <Gold.Chemscore.DEInternal>
2.7774

> <Gold.Chemscore.Rot>
1.1590

> <Gold.Chemscore.Internal.Correction>
   9.000000E+99

> <Gold.Chemscore.Hbonds>
donor molecule, donor type, donor heavy atom, donor atom, acceptor molecule, acceptor atom, score
      L1  H     9    30       P1  7948  0.43
      L1  H    12    31       P1  7948  0.79

> <Gold.Chemscore.Hbond.Weighted>
-6.0908

> <Gold.Chemscore.Metal.Weighted>
-0.0000

> <Gold.Chemscore.Lipo.Weighted>
-9.6991

> <Gold.Chemscore.Internal_Hbond.Weighted>
0.0000

> <Gold.Chemscore.DEClash.Weighted>
0.0130

> <Gold.Chemscore.DEInternal.Weighted>
2.7774

> <Gold.Chemscore.Rot.Weighted>
2.9671

> <Gold.Chemscore.Internal.Correction.Weighted>
   9.000000E+99

> <Gold.Protein.RotatedTorsions>
[ 6907 6896 6895 6894 ] final -178.25 input  -60.11 | X-H torsion
[ 7974 7965 7964 7962 ] final   -4.58 input  175.53 | X-H torsion
[ 8008 7997 7996 7995 ] final   34.14 input   59.86 | X-H torsion
[ 10167 10162 10161 10158 ] final  -86.09 input  -65.29 | X-H torsion
[ 10718 10713 10712 10709 ] final -124.87 input   66.30 | X-H torsion
[ 10763 10752 10751 10750 ] final  -99.85 input  -60.55 | X-H torsion
[ 11005 11000 10999 10996 ] final  104.41 input  -57.11 | X-H torsion

> <Gold.Protein.ActiveResidues>
 VAL166  LYS551  ARG553  GLY616  TRP617  ASP618  TYR619  PRO620  LYS621  CYS622 
 ASP623  PHE694  ASN695  SER759  ASP760  ASP761  ALA762  ILE779  LEU786  VAL792 
 PHE793  MET794  SER795  GLU796  ALA797  LYS798  CYS799  TRP800  GLU811  SER814 

> <Gold.Protein.RotatedAtoms>
  151.6342  133.3330  159.3115 H   0  0  0  0  0  0  0  0  0  0  0  0  # atno 6907 bound_to 6896
  150.8041  134.7158  159.6639 H   0  0  0  0  0  0  0  0  0  0  0  0  # atno 6908 bound_to 6896
  152.4135  134.6087  160.0071 H   0  0  0  0  0  0  0  0  0  0  0  0  # atno 6909 bound_to 6896
  146.2369  140.1892  142.8332 H   0  0  0  0  0  0  0  0  0  0  0  0  # atno 7974 bound_to 7965
  155.1500  140.3274  155.4433 H   0  0  0  0  0  0  0  0  0  0  0  0  # atno 8008 bound_to 7997
  156.2577  140.1978  156.6562 H   0  0  0  0  0  0  0  0  0  0  0  0  # atno 8009 bound_to 7997
  154.6480  140.0562  156.9909 H   0  0  0  0  0  0  0  0  0  0  0  0  # atno 8010 bound_to 7997
  140.3975  143.2677  151.9185 H   0  0  0  0  0  0  0  0  0  0  0  0  # atno 10167 bound_to 10162
  156.1625  130.6612  151.0070 H   0  0  0  0  0  0  0  0  0  0  0  0  # atno 10718 bound_to 10713
  154.7532  135.4957  153.9327 H   0  0  0  0  0  0  0  0  0  0  0  0  # atno 10763 bound_to 10752
  153.1166  135.6722  153.9415 H   0  0  0  0  0  0  0  0  0  0  0  0  # atno 10764 bound_to 10752
  153.9159  135.3094  155.3427 H   0  0  0  0  0  0  0  0  0  0  0  0  # atno 10765 bound_to 10752
  139.8792  134.9299  156.5357 H   0  0  0  0  0  0  0  0  0  0  0  0  # atno 11005 bound_to 11000
  144.9871  140.8513  143.5362 LP  0  0  0  0  0  0  0  0  0  0  0  0  # atno 17320 bound_to 7965
  145.1893  139.2309  143.5251 LP  0  0  0  0  0  0  0  0  0  0  0  0  # atno 17321 bound_to 7965
  139.4786  144.5666  151.8154 LP  0  0  0  0  0  0  0  0  0  0  0  0  # atno 17342 bound_to 10162
  140.4775  144.1498  150.5927 LP  0  0  0  0  0  0  0  0  0  0  0  0  # atno 17343 bound_to 10162
  157.6743  131.0854  150.7533 LP  0  0  0  0  0  0  0  0  0  0  0  0  # atno 17370 bound_to 10713
  156.7595  130.4794  149.5440 LP  0  0  0  0  0  0  0  0  0  0  0  0  # atno 17371 bound_to 10713
  140.8347  133.8251  155.9017 LP  0  0  0  0  0  0  0  0  0  0  0  0  # atno 17394 bound_to 11000
  140.9295  134.2040  157.4873 LP  0  0  0  0  0  0  0  0  0  0  0  0  # atno 17395 bound_to 11000

$$$$
