AV-unprocessed.smi:2104|AV-procd|sdf|8588|dock8
  -GOLD-   2272011323D 1   1.00000     0.00000
 Structure written by MMmdl.
 42 43  0  0  0  0  0  0  0  0  2 V2000
  147.0533  132.9803  161.9353 C   0  0  0  0  0  0  0  0  0  0  0  0
  147.8428  134.0131  161.2066 C   0  0  0  0  0  0  0  0  0  0  0  0
  148.1671  135.3079  161.4961 C   0  0  0  0  0  0  0  0  0  0  0  0
  148.9353  135.7099  160.3694 C   0  0  0  0  0  0  0  0  0  0  0  0
  149.4995  136.9140  160.1913 N   0  5  0  0  0  0  0  0  0  0  0  0
  150.3296  137.1287  159.1449 C   0  0  0  0  0  0  0  0  0  0  0  0
  150.7930  136.2699  158.3909 O   0  0  0  0  0  0  0  0  0  0  0  0
  150.6285  138.4211  158.9516 N   0  0  0  0  0  0  0  0  0  0  0  0
  151.4267  138.9658  157.8571 C   0  0  0  0  0  0  0  0  0  0  0  0
  151.7510  140.4508  158.0802 C   0  0  0  0  0  0  0  0  0  0  0  0
  152.3365  140.6008  159.3657 O   0  0  0  0  0  0  0  0  0  0  0  0
  153.2725  141.6666  159.4731 C   0  0  1  0  0  0  0  0  0  0  0  0
  152.6364  142.9849  158.9764 C   0  0  0  0  0  0  0  0  0  0  0  0
  151.4561  143.4166  159.8619 C   0  0  0  0  0  0  0  0  0  0  0  0
  151.8795  143.5340  161.3335 C   0  0  0  0  0  0  0  0  0  0  0  0
  152.5155  142.2289  161.8384 C   0  0  0  0  0  0  0  0  0  0  0  0
  153.7012  141.7951  160.9521 C   0  0  1  0  0  0  0  0  0  0  0  0
  154.3659  140.5116  161.4740 C   0  0  0  0  0  0  0  0  0  0  0  0
  149.0789  134.7396  159.4825 N   0  0  0  0  0  0  0  0  0  0  0  0
  148.3763  133.6491  160.0095 O   0  0  0  0  0  0  0  0  0  0  0  0
  146.1584  133.4187  162.3771 H   0  0  0  0  0  0  0  0  0  0  0  0
  147.6454  132.5385  162.7365 H   0  0  0  0  0  0  0  0  0  0  0  0
  146.7406  132.1796  161.2647 H   0  0  0  0  0  0  0  0  0  0  0  0
  147.8962  135.8798  162.3708 H   0  0  0  0  0  0  0  0  0  0  0  0
  150.2268  139.0874  159.5947 H   0  0  0  0  0  0  0  0  0  0  0  0
  152.3506  138.3910  157.7901 H   0  0  0  0  0  0  0  0  0  0  0  0
  150.9020  138.8284  156.9105 H   0  0  0  0  0  0  0  0  0  0  0  0
  152.4507  140.8062  157.3231 H   0  0  0  0  0  0  0  0  0  0  0  0
  150.8452  141.0472  157.9750 H   0  0  0  0  0  0  0  0  0  0  0  0
  154.1561  141.4374  158.8744 H   0  0  0  0  0  0  0  0  0  0  0  0
  153.3923  143.7708  158.9814 H   0  0  0  0  0  0  0  0  0  0  0  0
  152.3048  142.8983  157.9422 H   0  0  0  0  0  0  0  0  0  0  0  0
  151.0578  144.3690  159.5118 H   0  0  0  0  0  0  0  0  0  0  0  0
  150.6446  142.6936  159.7703 H   0  0  0  0  0  0  0  0  0  0  0  0
  152.5906  144.3534  161.4439 H   0  0  0  0  0  0  0  0  0  0  0  0
  151.0160  143.7889  161.9485 H   0  0  0  0  0  0  0  0  0  0  0  0
  152.8490  142.3623  162.8679 H   0  0  0  0  0  0  0  0  0  0  0  0
  151.7611  141.4412  161.8599 H   0  0  0  0  0  0  0  0  0  0  0  0
  154.4531  142.5839  161.0051 H   0  0  0  0  0  0  0  0  0  0  0  0
  153.6687  139.6730  161.4751 H   0  0  0  0  0  0  0  0  0  0  0  0
  154.7252  140.6444  162.4948 H   0  0  0  0  0  0  0  0  0  0  0  0
  155.2204  140.2334  160.8568 H   0  0  0  0  0  0  0  0  0  0  0  0
  1  2  1  0  0  0  0
  1 21  1  0  0  0  0
  1 22  1  0  0  0  0
  1 23  1  0  0  0  0
  2 20  1  0  0  0  0
  2  3  2  0  0  0  0
  3  4  1  0  0  0  0
  3 24  1  0  0  0  0
  4  5  1  0  0  0  0
  4 19  2  0  0  0  0
  5  6  1  0  0  0  0
  6  7  2  0  0  0  0
  6  8  1  0  0  0  0
  8  9  1  0  0  0  0
  8 25  1  0  0  0  0
  9 10  1  0  0  0  0
  9 26  1  0  0  0  0
  9 27  1  0  0  0  0
 10 11  1  0  0  0  0
 10 28  1  0  0  0  0
 10 29  1  0  0  0  0
 11 12  1  0  0  0  0
 12 17  1  0  0  0  0
 12 13  1  0  0  0  0
 12 30  1  0  0  0  0
 13 14  1  0  0  0  0
 13 31  1  0  0  0  0
 13 32  1  0  0  0  0
 14 15  1  0  0  0  0
 14 33  1  0  0  0  0
 14 34  1  0  0  0  0
 15 16  1  0  0  0  0
 15 35  1  0  0  0  0
 15 36  1  0  0  0  0
 16 17  1  0  0  0  0
 16 37  1  0  0  0  0
 16 38  1  0  0  0  0
 17 18  1  0  0  0  0
 17 39  1  0  0  0  0
 18 40  1  0  0  0  0
 18 41  1  0  0  0  0
 18 42  1  0  0  0  0
 19 20  1  0  0  0  0
M  CHG  1   5  -1
M  END
> <s_m_source_file>
AV-unprocessed.smi

> <i_m_source_file_index>
2104

> <i_lp_mmshare_version>
43012

> <i_f3d_flags>
0

> <s_epik_input>
W0NIM11jMVtjSF1jKG5vMSlbTkhdQyg9TylbTkhdW0NIMl1bQ0gyXU9bQ0BASF0yW0NIMl1bQ0gyXVtDSDJdW0NIMl1bQ0BIXTJbQ0gzXQ==

> <s_epik_cmdline>
J2VwaWtfcHl0aG9uJywgJy1waCcsICc3LjAnLCAnLXRuJywgJzgnLCAnLW1hJywgJzIwMCcsICctbWV0YWxfYmluZGluZycsICctaW1hZScsICc8aW5maWxlLm1hZT4nLCAnLW9tYWUnLCAnPG91dGZpbGUubWFlPic=

> <r_lp_tautomer_probability>
1

> <r_epik_Ionization_Penalty>
6.47137

> <r_epik_Ionization_Penalty_Charging>
6.47125

> <r_epik_Ionization_Penalty_Neutral>
0.000118933

> <r_epik_State_Penalty>
6.47124

> <r_epik_Charging_Adjusted_Penalty>
12.9425

> <i_epik_Tot_Q>
-1

> <i_epik_Tot_abs_Q>
1

> <r_epik_Metal_State_Penalty>
2.3995

> <b_epik_Metal_Only>
1

> <s_lp_Force_Field>
OPLS_2005

> <r_lp_Energy>
3.93088

> <b_lp_Chiralities_Consistent>
1

> <s_lp_Variant>
AV-unprocessed.smi:2104-6

> <Gold.Version>
5.8.1

> <Gold.Id.Protein>
6NUR|6NUR_protein|mol2

> <Gold.PLP.Fitness>
47.7109

> <Gold.PLP.PLP>
-42.2758

> <Gold.PLP.part.hbond>
-2.9769

> <Gold.PLP.part.metal>
0.0000

> <Gold.PLP.part.buried>
-5.6874

> <Gold.PLP.part.nonpolar>
-35.7217

> <Gold.PLP.part.repulsive>
0.2201

> <Gold.PLP.ligand.clash>
0.0000

> <Gold.PLP.ligand.torsion>
0.3066

> <Gold.PLP.Chemscore.Hbond>
1.9920

> <Gold.PLP.Chemscore.CHOScore>
0.0000

> <Gold.PLP.Chemscore.Metal>
0.0000

> <Gold.Chemscore.Hbonds>
donor molecule, donor type, donor heavy atom, donor atom, acceptor molecule, acceptor atom, score
      P1  H  6896  6908       L1     7  0.58
      P1  H  6931  6943       L1     5  0.60

> <Gold.PLP.Chemscore.Internal.Correction>
0.0722

> <Gold.Rescore>
     Score         DG    S(hbond)    S(metal)    S(lipo)     H(rot)  DE(clash)    DE(int)     intcor
     16.11     -18.15       1.33        0.00     107.69       1.71       0.00       2.03       ----

> <Gold.Chemscore.Fitness>
16.1077

> <Gold.Chemscore.DG>
-18.1461

> <Gold.Chemscore.ZeroCoef>
-5.4800

> <Gold.Chemscore.Hbond>
1.3307

> <Gold.Chemscore.Metal>
0.0000

> <Gold.Chemscore.Lipo>
107.6910

> <Gold.Chemscore.Internal_Hbond>
0.0000

> <Gold.Chemscore.DEClash>
0.0038

> <Gold.Chemscore.DEInternal>
2.0346

> <Gold.Chemscore.Rot>
1.7103

> <Gold.Chemscore.Internal.Correction>
   9.000000E+99

> <Gold.Chemscore.Hbonds>
donor molecule, donor type, donor heavy atom, donor atom, acceptor molecule, acceptor atom, score
      P1  H  6896  6908       L1     7  0.07
      P1  H  6931  6943       L1     5  0.25

> <Gold.Chemscore.Hbond.Weighted>
-4.4447

> <Gold.Chemscore.Metal.Weighted>
-0.0000

> <Gold.Chemscore.Lipo.Weighted>
-12.5998

> <Gold.Chemscore.Internal_Hbond.Weighted>
0.0000

> <Gold.Chemscore.DEClash.Weighted>
0.0038

> <Gold.Chemscore.DEInternal.Weighted>
2.0346

> <Gold.Chemscore.Rot.Weighted>
4.3784

> <Gold.Chemscore.Internal.Correction.Weighted>
   9.000000E+99

> <Gold.Protein.RotatedTorsions>
[ 6907 6896 6895 6894 ] final -160.86 input  -60.11 | X-H torsion
[ 7974 7965 7964 7962 ] final   -5.27 input  175.53 | X-H torsion
[ 8008 7997 7996 7995 ] final  -94.55 input   59.86 | X-H torsion
[ 10167 10162 10161 10158 ] final  -42.18 input  -65.29 | X-H torsion
[ 10718 10713 10712 10709 ] final  -78.64 input   66.30 | X-H torsion
[ 10763 10752 10751 10750 ] final   10.71 input  -60.55 | X-H torsion
[ 11005 11000 10999 10996 ] final  -47.32 input  -57.11 | X-H torsion

> <Gold.Protein.ActiveResidues>
 VAL166  LYS551  ARG553  GLY616  TRP617  ASP618  TYR619  PRO620  LYS621  CYS622 
 ASP623  PHE694  ASN695  SER759  ASP760  ASP761  ALA762  ILE779  LEU786  VAL792 
 PHE793  MET794  SER795  GLU796  ALA797  LYS798  CYS799  TRP800  GLU811  SER814 

> <Gold.Protein.RotatedAtoms>
  151.3556  133.3908  159.2684 H   0  0  0  0  0  0  0  0  0  0  0  0  # atno 6907 bound_to 6896
  150.9766  134.9130  159.7830 H   0  0  0  0  0  0  0  0  0  0  0  0  # atno 6908 bound_to 6896
  152.5203  134.3519  159.9306 H   0  0  0  0  0  0  0  0  0  0  0  0  # atno 6909 bound_to 6896
  146.2356  140.1995  142.8333 H   0  0  0  0  0  0  0  0  0  0  0  0  # atno 7974 bound_to 7965
  154.7499  140.0488  157.0884 H   0  0  0  0  0  0  0  0  0  0  0  0  # atno 8008 bound_to 7997
  155.0071  140.3131  155.4825 H   0  0  0  0  0  0  0  0  0  0  0  0  # atno 8009 bound_to 7997
  156.2883  140.2191  156.5183 H   0  0  0  0  0  0  0  0  0  0  0  0  # atno 8010 bound_to 7997
  140.6978  143.3052  151.3173 H   0  0  0  0  0  0  0  0  0  0  0  0  # atno 10167 bound_to 10162
  156.0112  130.4523  150.3527 H   0  0  0  0  0  0  0  0  0  0  0  0  # atno 10718 bound_to 10713
  153.2004  135.6855  153.8239 H   0  0  0  0  0  0  0  0  0  0  0  0  # atno 10763 bound_to 10752
  153.7507  135.3224  155.3321 H   0  0  0  0  0  0  0  0  0  0  0  0  # atno 10764 bound_to 10752
  154.8168  135.4680  154.0767 H   0  0  0  0  0  0  0  0  0  0  0  0  # atno 10765 bound_to 10752
  141.0633  133.6702  156.3280 H   0  0  0  0  0  0  0  0  0  0  0  0  # atno 11005 bound_to 11000
  144.9793  140.8444  143.5407 LP  0  0  0  0  0  0  0  0  0  0  0  0  # atno 17320 bound_to 7965
  145.1986  139.2263  143.5204 LP  0  0  0  0  0  0  0  0  0  0  0  0  # atno 17321 bound_to 7965
  139.6455  144.0459  152.2587 LP  0  0  0  0  0  0  0  0  0  0  0  0  # atno 17342 bound_to 10162
  139.9979  144.6315  150.7756 LP  0  0  0  0  0  0  0  0  0  0  0  0  # atno 17343 bound_to 10162
  157.1619  131.0347  151.2837 LP  0  0  0  0  0  0  0  0  0  0  0  0  # atno 17370 bound_to 10713
  157.4304  130.7487  149.6985 LP  0  0  0  0  0  0  0  0  0  0  0  0  # atno 17371 bound_to 10713
  140.5824  134.5732  157.5482 LP  0  0  0  0  0  0  0  0  0  0  0  0  # atno 17394 bound_to 11000
  139.9453  134.7714  156.0578 LP  0  0  0  0  0  0  0  0  0  0  0  0  # atno 17395 bound_to 11000

$$$$
