AV-unprocessed.smi:100|AV-procd|sdf|912|dock1
  -GOLD-   2262017413D 1   1.00000     0.00000
 Structure written by MMmdl.
 31 33  0  0  0  0  0  0  0  0  1 V2000
  145.6657  142.9815  158.4521 N   0  0  0  0  0  0  0  0  0  0  0  0
  145.9856  142.4428  157.2671 C   0  0  0  0  0  0  0  0  0  0  0  0
  145.0091  142.3015  156.3413 N   0  0  0  0  0  0  0  0  0  0  0  0
  145.3015  141.7597  155.1551 C   0  0  0  0  0  0  0  0  0  0  0  0
  146.4777  141.3111  154.7093 N   0  0  0  0  0  0  0  0  0  0  0  0
  147.4675  141.4606  155.6397 C   0  0  0  0  0  0  0  0  0  0  0  0
  147.2964  142.0106  156.9415 C   0  0  0  0  0  0  0  0  0  0  0  0
  148.5016  141.9901  157.6278 N   0  0  0  0  0  0  0  0  0  0  0  0
  149.3343  141.4516  156.7791 C   0  0  0  0  0  0  0  0  0  0  0  0
  148.8086  141.1297  155.5442 N   0  0  0  0  0  0  0  0  0  0  0  0
  149.5249  140.4705  154.3952 C   0  0  1  0  0  0  0  0  0  0  0  0
  150.8748  140.3208  154.7162 O   0  0  0  0  0  0  0  0  0  0  0  0
  151.0688  139.0491  155.3168 C   0  0  2  0  0  0  0  0  0  0  0  0
  152.5624  138.6924  155.3209 C   0  0  0  0  0  0  0  0  0  0  0  0
  152.7492  137.3445  155.6965 O   0  0  0  0  0  0  0  0  0  0  0  0
  150.1958  138.1670  154.4274 C   0  0  1  0  0  0  0  0  0  0  0  0
  149.8545  137.0272  155.0296 F   0  0  0  0  0  0  0  0  0  0  0  0
  148.9772  139.0435  154.1672 C   0  0  2  0  0  0  0  0  0  0  0  0
  148.4967  138.8495  152.8528 O   0  0  0  0  0  0  0  0  0  0  0  0
  146.3762  143.0942  159.1610 H   0  0  0  0  0  0  0  0  0  0  0  0
  144.7159  143.2714  158.6342 H   0  0  0  0  0  0  0  0  0  0  0  0
  144.4761  141.6732  154.4641 H   0  0  0  0  0  0  0  0  0  0  0  0
  150.3693  141.2754  157.0340 H   0  0  0  0  0  0  0  0  0  0  0  0
  149.3842  141.1586  153.5606 H   0  0  0  0  0  0  0  0  0  0  0  0
  150.6778  139.0779  156.3360 H   0  0  0  0  0  0  0  0  0  0  0  0
  153.0094  138.8645  154.3414 H   0  0  0  0  0  0  0  0  0  0  0  0
  153.0938  139.3238  156.0333 H   0  0  0  0  0  0  0  0  0  0  0  0
  152.5439  137.2573  156.6147 H   0  0  0  0  0  0  0  0  0  0  0  0
  150.7179  137.9216  153.5011 H   0  0  0  0  0  0  0  0  0  0  0  0
  148.1896  138.8128  154.8852 H   0  0  0  0  0  0  0  0  0  0  0  0
  148.4802  137.9213  152.6752 H   0  0  0  0  0  0  0  0  0  0  0  0
  1  2  1  0  0  0  0
  1 20  1  0  0  0  0
  1 21  1  0  0  0  0
  2  7  1  0  0  0  0
  2  3  2  0  0  0  0
  3  4  1  0  0  0  0
  4  5  2  0  0  0  0
  4 22  1  0  0  0  0
  5  6  1  0  0  0  0
  6 10  1  0  0  0  0
  6  7  2  0  0  0  0
  7  8  1  0  0  0  0
  8  9  2  0  0  0  0
  9 10  1  0  0  0  0
  9 23  1  0  0  0  0
 10 11  1  0  0  0  0
 11 18  1  0  0  0  0
 11 12  1  0  0  0  0
 11 24  1  0  0  0  0
 12 13  1  0  0  0  0
 13 14  1  0  0  0  0
 13 16  1  0  0  0  0
 13 25  1  0  0  0  0
 14 15  1  0  0  0  0
 14 26  1  0  0  0  0
 14 27  1  0  0  0  0
 15 28  1  0  0  0  0
 16 17  1  0  0  0  0
 16 18  1  0  0  0  0
 16 29  1  0  0  0  0
 18 19  1  0  0  0  0
 18 30  1  0  0  0  0
 19 31  1  0  0  0  0
M  END
> <s_m_source_file>
AV-unprocessed.smi

> <i_m_source_file_index>
100

> <i_lp_mmshare_version>
43012

> <i_f3d_flags>
0

> <s_epik_input>
bjFbY0hdbmMoW05IMl0pYyhjMTIpbltjSF1uMltDQEBIXTNPW0NAQEhdKFtDSDJdW09IXSlbQ0BIXShGKVtDQEhdM1tPSF0=

> <s_epik_cmdline>
J2VwaWtfcHl0aG9uJywgJy1waCcsICc3LjAnLCAnLXRuJywgJzgnLCAnLW1hJywgJzIwMCcsICctbWV0YWxfYmluZGluZycsICctaW1hZScsICc8aW5maWxlLm1hZT4nLCAnLW9tYWUnLCAnPG91dGZpbGUubWFlPic=

> <r_lp_tautomer_probability>
1

> <r_epik_Ionization_Penalty>
0.000750324

> <r_epik_Ionization_Penalty_Charging>
0

> <r_epik_Ionization_Penalty_Neutral>
0.000750324

> <r_epik_State_Penalty>
-0

> <r_epik_Charging_Adjusted_Penalty>
0

> <i_epik_Tot_Q>
0

> <i_epik_Tot_abs_Q>
0

> <r_epik_Metal_State_Penalty>
-0

> <b_epik_Metal_Only>
0

> <s_epik_Chemistry_Notes>
This compound contains an acetal/aminal-like group ( X-CH(R)-Y where X, Y are N, S, or O) that may be acid/base labile, releasing an aldehyde.

> <s_lp_Force_Field>
OPLS_2005

> <r_lp_Energy>
30.8526

> <b_lp_Chiralities_Consistent>
1

> <s_lp_Variant>
AV-unprocessed.smi:100-16

> <Gold.Version>
5.8.1

> <Gold.Id.Protein>
6NUR|6NUR_protein|mol2

> <Gold.PLP.Fitness>
37.0336

> <Gold.PLP.PLP>
-26.3901

> <Gold.PLP.part.hbond>
-3.4957

> <Gold.PLP.part.metal>
0.0000

> <Gold.PLP.part.buried>
-4.2922

> <Gold.PLP.part.nonpolar>
-19.1879

> <Gold.PLP.part.repulsive>
0.4449

> <Gold.PLP.ligand.clash>
0.0000

> <Gold.PLP.ligand.torsion>
0.0829

> <Gold.PLP.Chemscore.Hbond>
2.5920

> <Gold.PLP.Chemscore.CHOScore>
0.9944

> <Gold.PLP.Chemscore.Metal>
0.0000

> <Gold.Chemscore.Hbonds>
donor molecule, donor type, donor heavy atom, donor atom, acceptor molecule, acceptor atom, score
      L1  H    19    31       P1  7948  1.00
      P1  H  7989  7998       L1    12  1.00
      P1  H 10752 10765       L1    15  0.58
      L1  C     4    22       P1 10175  1.00

> <Gold.PLP.Chemscore.Internal.Correction>
0.0501

> <Gold.Rescore>
     Score         DG    S(hbond)    S(metal)    S(lipo)     H(rot)  DE(clash)    DE(int)     intcor
      8.69      -9.51       2.68        0.00      27.72       3.19       0.02       0.80       ----

> <Gold.Chemscore.Fitness>
8.6943

> <Gold.Chemscore.DG>
-9.5081

> <Gold.Chemscore.ZeroCoef>
-5.4800

> <Gold.Chemscore.Hbond>
2.6801

> <Gold.Chemscore.Metal>
0.0000

> <Gold.Chemscore.Lipo>
27.7191

> <Gold.Chemscore.Internal_Hbond>
0.0000

> <Gold.Chemscore.DEClash>
0.0179

> <Gold.Chemscore.DEInternal>
0.7960

> <Gold.Chemscore.Rot>
3.1901

> <Gold.Chemscore.Internal.Correction>
   9.000000E+99

> <Gold.Chemscore.Hbonds>
donor molecule, donor type, donor heavy atom, donor atom, acceptor molecule, acceptor atom, score
      L1  H    19    31       P1  7948  0.99
      P1  H  7989  7998       L1    12  0.46
      P1  H 10752 10765       L1    15  0.44

> <Gold.Chemscore.Hbond.Weighted>
-8.9517

> <Gold.Chemscore.Metal.Weighted>
-0.0000

> <Gold.Chemscore.Lipo.Weighted>
-3.2431

> <Gold.Chemscore.Internal_Hbond.Weighted>
0.0000

> <Gold.Chemscore.DEClash.Weighted>
0.0179

> <Gold.Chemscore.DEInternal.Weighted>
0.7960

> <Gold.Chemscore.Rot.Weighted>
8.1667

> <Gold.Chemscore.Internal.Correction.Weighted>
   9.000000E+99

> <Gold.Protein.RotatedTorsions>
[ 6907 6896 6895 6894 ] final   43.98 input  -60.11 | X-H torsion
[ 7974 7965 7964 7962 ] final -114.72 input  175.53 | X-H torsion
[ 8008 7997 7996 7995 ] final -126.07 input   59.86 | X-H torsion
[ 10167 10162 10161 10158 ] final -137.39 input  -65.29 | X-H torsion
[ 10718 10713 10712 10709 ] final -174.99 input   66.30 | X-H torsion
[ 10763 10752 10751 10750 ] final -164.43 input  -60.55 | X-H torsion
[ 11005 11000 10999 10996 ] final  -52.10 input  -57.11 | X-H torsion

> <Gold.Protein.ActiveResidues>
 VAL166  LYS551  ARG553  GLY616  TRP617  ASP618  TYR619  PRO620  LYS621  CYS622 
 ASP623  PHE694  ASN695  SER759  ASP760  ASP761  ALA762  ILE779  LEU786  VAL792 
 PHE793  MET794  SER795  GLU796  ALA797  LYS798  CYS799  TRP800  GLU811  SER814 

> <Gold.Protein.RotatedAtoms>
  152.2269  134.8359  160.0478 H   0  0  0  0  0  0  0  0  0  0  0  0  # atno 6907 bound_to 6896
  151.9122  133.3559  159.3876 H   0  0  0  0  0  0  0  0  0  0  0  0  # atno 6908 bound_to 6896
  150.7015  134.4646  159.5440 H   0  0  0  0  0  0  0  0  0  0  0  0  # atno 6909 bound_to 6896
  145.1169  140.8645  143.3837 H   0  0  0  0  0  0  0  0  0  0  0  0  # atno 7974 bound_to 7965
  155.2236  140.0423  157.2952 H   0  0  0  0  0  0  0  0  0  0  0  0  # atno 8008 bound_to 7997
  154.5933  140.2432  155.7861 H   0  0  0  0  0  0  0  0  0  0  0  0  # atno 8009 bound_to 7997
  156.2274  140.2950  156.0110 H   0  0  0  0  0  0  0  0  0  0  0  0  # atno 8010 bound_to 7997
  139.8582  143.7111  152.2652 H   0  0  0  0  0  0  0  0  0  0  0  0  # atno 10167 bound_to 10162
  156.7932  130.9525  151.3120 H   0  0  0  0  0  0  0  0  0  0  0  0  # atno 10718 bound_to 10713
  154.7029  135.2991  154.9314 H   0  0  0  0  0  0  0  0  0  0  0  0  # atno 10763 bound_to 10752
  154.0241  135.6679  153.4779 H   0  0  0  0  0  0  0  0  0  0  0  0  # atno 10764 bound_to 10752
  153.0695  135.5069  154.8183 H   0  0  0  0  0  0  0  0  0  0  0  0  # atno 10765 bound_to 10752
  141.0906  133.6633  156.3974 H   0  0  0  0  0  0  0  0  0  0  0  0  # atno 11005 bound_to 11000
  145.0784  139.2978  143.5796 LP  0  0  0  0  0  0  0  0  0  0  0  0  # atno 17320 bound_to 7965
  146.3523  140.0282  142.8652 LP  0  0  0  0  0  0  0  0  0  0  0  0  # atno 17321 bound_to 7965
  139.7399  144.7562  151.0669 LP  0  0  0  0  0  0  0  0  0  0  0  0  # atno 17342 bound_to 10162
  140.7778  143.4985  150.9802 LP  0  0  0  0  0  0  0  0  0  0  0  0  # atno 17343 bound_to 10162
  157.6590  130.8950  149.9790 LP  0  0  0  0  0  0  0  0  0  0  0  0  # atno 17370 bound_to 10713
  156.1146  130.3648  149.9990 LP  0  0  0  0  0  0  0  0  0  0  0  0  # atno 17371 bound_to 10713
  140.5260  134.6258  157.5334 LP  0  0  0  0  0  0  0  0  0  0  0  0  # atno 17394 bound_to 11000
  139.9731  134.7259  156.0001 LP  0  0  0  0  0  0  0  0  0  0  0  0  # atno 17395 bound_to 11000

$$$$
