AV-unprocessed.smi:1809|AV-procd|sdf|7313|dock6
  -GOLD-   22720 8573D 1   1.00000     0.00000
 Structure written by MMmdl.
 40 42  0  0  0  0  0  0  0  0  2 V2000
  137.3300  137.2080  155.1850 C   0  0  0  0  0  0  0  0  0  0  0  0
  138.7585  137.1439  154.7649 C   0  0  0  0  0  0  0  0  0  0  0  0
  139.7137  136.6038  155.5315 N   0  0  0  0  0  0  0  0  0  0  0  0
  140.9634  136.6562  154.9301 N   0  0  0  0  0  0  0  0  0  0  0  0
  140.9132  137.2358  153.7229 C   0  0  0  0  0  0  0  0  0  0  0  0
  142.0466  137.4143  152.8860 N   0  0  0  0  0  0  0  0  0  0  0  0
  143.3240  137.0744  153.1317 C   0  0  0  0  0  0  0  0  0  0  0  0
  143.7371  136.5592  154.1709 O   0  0  0  0  0  0  0  0  0  0  0  0
  144.1144  137.3635  152.0878 N   0  0  0  0  0  0  0  0  0  0  0  0
  145.5573  137.1444  152.0365 C   0  0  0  0  0  0  0  0  0  0  0  0
  145.9321  135.8094  151.3645 C   0  0  2  0  0  0  0  0  0  0  0  0
  144.8061  135.2162  150.4955 C   0  0  0  0  0  0  0  0  0  0  0  0
  145.1765  133.8893  149.9419 N   0  3  2  0  0  0  0  0  0  0  0  0
  144.0111  133.1764  149.3741 C   0  0  0  0  0  0  0  0  0  0  0  0
  143.5059  132.2184  150.4685 C   0  0  0  0  0  0  0  0  0  0  0  0
  144.5228  132.3202  151.6119 C   0  0  0  0  0  0  0  0  0  0  0  0
  145.7400  132.9726  150.9559 C   0  0  2  0  0  0  0  0  0  0  0  0
  146.7363  133.6603  151.9096 C   0  0  0  0  0  0  0  0  0  0  0  0
  146.2095  134.8819  152.4058 O   0  0  0  0  0  0  0  0  0  0  0  0
  139.3179  137.7650  153.2165 S   0  0  0  0  0  0  0  0  0  0  0  0
  137.2562  137.3165  156.2675 H   0  0  0  0  0  0  0  0  0  0  0  0
  136.8136  136.2955  154.8870 H   0  0  0  0  0  0  0  0  0  0  0  0
  136.8366  138.0595  154.7159 H   0  0  0  0  0  0  0  0  0  0  0  0
  141.8603  137.8479  151.9937 H   0  0  0  0  0  0  0  0  0  0  0  0
  143.6913  137.7863  151.2744 H   0  0  0  0  0  0  0  0  0  0  0  0
  145.9877  137.9673  151.4649 H   0  0  0  0  0  0  0  0  0  0  0  0
  145.9982  137.2081  153.0329 H   0  0  0  0  0  0  0  0  0  0  0  0
  146.8301  135.9600  150.7621 H   0  0  0  0  0  0  0  0  0  0  0  0
  143.8978  135.1281  151.0945 H   0  0  0  0  0  0  0  0  0  0  0  0
  144.5722  135.8775  149.6612 H   0  0  0  0  0  0  0  0  0  0  0  0
  143.2345  133.8565  149.0203 H   0  0  0  0  0  0  0  0  0  0  0  0
  144.3508  132.5997  148.5128 H   0  0  0  0  0  0  0  0  0  0  0  0
  142.5077  132.4924  150.8118 H   0  0  0  0  0  0  0  0  0  0  0  0
  143.4526  131.1996  150.0830 H   0  0  0  0  0  0  0  0  0  0  0  0
  144.1288  132.9628  152.4009 H   0  0  0  0  0  0  0  0  0  0  0  0
  144.7549  131.3521  152.0572 H   0  0  0  0  0  0  0  0  0  0  0  0
  146.2755  132.1897  150.4156 H   0  0  0  0  0  0  0  0  0  0  0  0
  146.9712  133.0042  152.7481 H   0  0  0  0  0  0  0  0  0  0  0  0
  147.6784  133.8565  151.3953 H   0  0  0  0  0  0  0  0  0  0  0  0
  145.8655  134.0433  149.2196 H   0  0  0  0  0  0  0  0  0  0  0  0
  1  2  1  0  0  0  0
  1 21  1  0  0  0  0
  1 22  1  0  0  0  0
  1 23  1  0  0  0  0
  2 20  1  0  0  0  0
  2  3  2  0  0  0  0
  3  4  1  0  0  0  0
  4  5  2  0  0  0  0
  5  6  1  0  0  0  0
  5 20  1  0  0  0  0
  6  7  1  0  0  0  0
  6 24  1  0  0  0  0
  7  8  2  0  0  0  0
  7  9  1  0  0  0  0
  9 10  1  0  0  0  0
  9 25  1  0  0  0  0
 10 11  1  0  0  0  0
 10 26  1  0  0  0  0
 10 27  1  0  0  0  0
 11 19  1  0  0  0  0
 11 12  1  0  0  0  0
 11 28  1  0  0  0  0
 12 13  1  0  0  0  0
 12 29  1  0  0  0  0
 12 30  1  0  0  0  0
 13 17  1  0  0  0  0
 13 14  1  0  0  0  0
 13 40  1  0  0  0  0
 14 15  1  0  0  0  0
 14 31  1  0  0  0  0
 14 32  1  0  0  0  0
 15 16  1  0  0  0  0
 15 33  1  0  0  0  0
 15 34  1  0  0  0  0
 16 17  1  0  0  0  0
 16 35  1  0  0  0  0
 16 36  1  0  0  0  0
 17 18  1  0  0  0  0
 17 37  1  0  0  0  0
 18 19  1  0  0  0  0
 18 38  1  0  0  0  0
 18 39  1  0  0  0  0
M  CHG  1  13   1
M  END
> <s_m_source_file>
AV-unprocessed.smi

> <i_m_source_file_index>
1809

> <i_lp_mmshare_version>
43012

> <i_f3d_flags>
0

> <s_epik_input>
W0NIM11jMW5uYyhzMSlbTkhdQyg9TylbTkhdW0NIMl1bQ0BIXShbQ0gyXTIpT1tDSDJdW0NAQEhdKE4yMylbQ0gyXVtDSDJdW0NIMl0z

> <s_epik_cmdline>
J2VwaWtfcHl0aG9uJywgJy1waCcsICc3LjAnLCAnLXRuJywgJzgnLCAnLW1hJywgJzIwMCcsICctbWV0YWxfYmluZGluZycsICctaW1hZScsICc8aW5maWxlLm1hZT4nLCAnLW9tYWUnLCAnPG91dGZpbGUubWFlPic=

> <r_lp_tautomer_probability>
1

> <r_epik_Ionization_Penalty>
0.112474

> <r_epik_Ionization_Penalty_Charging>
0.108916

> <r_epik_Ionization_Penalty_Neutral>
0.00355844

> <r_epik_State_Penalty>
0.0565397

> <r_epik_Charging_Adjusted_Penalty>
0.165456

> <i_epik_Tot_Q>
1

> <i_epik_Tot_abs_Q>
1

> <r_epik_Metal_State_Penalty>
0.422831

> <b_epik_Metal_Only>
0

> <s_lp_Force_Field>
OPLS_2005

> <r_lp_Energy>
35.4297

> <b_lp_Chiralities_Consistent>
1

> <s_lp_Variant>
AV-unprocessed.smi:1809-5

> <Gold.Version>
5.8.1

> <Gold.Id.Protein>
6NUR|6NUR_protein|mol2

> <Gold.PLP.Fitness>
43.7310

> <Gold.PLP.PLP>
-36.5256

> <Gold.PLP.part.hbond>
-4.4277

> <Gold.PLP.part.metal>
0.0000

> <Gold.PLP.part.buried>
-2.5528

> <Gold.PLP.part.nonpolar>
-29.3540

> <Gold.PLP.part.repulsive>
0.7055

> <Gold.PLP.ligand.clash>
0.0000

> <Gold.PLP.ligand.torsion>
0.7416

> <Gold.PLP.Chemscore.Hbond>
2.8960

> <Gold.PLP.Chemscore.CHOScore>
0.0000

> <Gold.PLP.Chemscore.Metal>
0.0000

> <Gold.Chemscore.Hbonds>
donor molecule, donor type, donor heavy atom, donor atom, acceptor molecule, acceptor atom, score
      L1  H     9    25       P1 10171  1.00
      L1  H    13    40       P1  7921  0.90
      P1  H 11000 11005       L1     3  1.00

> <Gold.PLP.Chemscore.Internal.Correction>
0.0006

> <Gold.Rescore>
     Score         DG    S(hbond)    S(metal)    S(lipo)     H(rot)  DE(clash)    DE(int)     intcor
     16.43     -19.24       2.25        0.00      82.81       1.34       0.77       2.05       ----

> <Gold.Chemscore.Fitness>
16.4302

> <Gold.Chemscore.DG>
-19.2418

> <Gold.Chemscore.ZeroCoef>
-5.4800

> <Gold.Chemscore.Hbond>
2.2458

> <Gold.Chemscore.Metal>
0.0000

> <Gold.Chemscore.Lipo>
82.8104

> <Gold.Chemscore.Internal_Hbond>
0.0000

> <Gold.Chemscore.DEClash>
0.7663

> <Gold.Chemscore.DEInternal>
2.0454

> <Gold.Chemscore.Rot>
1.3391

> <Gold.Chemscore.Internal.Correction>
   9.000000E+99

> <Gold.Chemscore.Hbonds>
donor molecule, donor type, donor heavy atom, donor atom, acceptor molecule, acceptor atom, score
      L1  H     9    25       P1 10171  0.94
      L1  H    13    40       P1  7921  0.26
      P1  H 11000 11005       L1     3  0.25

> <Gold.Chemscore.Hbond.Weighted>
-7.5011

> <Gold.Chemscore.Metal.Weighted>
-0.0000

> <Gold.Chemscore.Lipo.Weighted>
-9.6888

> <Gold.Chemscore.Internal_Hbond.Weighted>
0.0000

> <Gold.Chemscore.DEClash.Weighted>
0.7663

> <Gold.Chemscore.DEInternal.Weighted>
2.0454

> <Gold.Chemscore.Rot.Weighted>
3.4281

> <Gold.Chemscore.Internal.Correction.Weighted>
   9.000000E+99

> <Gold.Protein.RotatedTorsions>
[ 6907 6896 6895 6894 ] final   68.49 input  -60.11 | X-H torsion
[ 7974 7965 7964 7962 ] final -171.85 input  175.53 | X-H torsion
[ 8008 7997 7996 7995 ] final  -17.10 input   59.86 | X-H torsion
[ 10167 10162 10161 10158 ] final  -20.84 input  -65.29 | X-H torsion
[ 10718 10713 10712 10709 ] final  -59.54 input   66.30 | X-H torsion
[ 10763 10752 10751 10750 ] final -126.18 input  -60.55 | X-H torsion
[ 11005 11000 10999 10996 ] final  100.68 input  -57.11 | X-H torsion

> <Gold.Protein.ActiveResidues>
 VAL166  LYS551  ARG553  GLY616  TRP617  ASP618  TYR619  PRO620  LYS621  CYS622 
 ASP623  PHE694  ASN695  SER759  ASP760  ASP761  ALA762  ILE779  LEU786  VAL792 
 PHE793  MET794  SER795  GLU796  ALA797  LYS798  CYS799  TRP800  GLU811  SER814 

> <Gold.Protein.RotatedAtoms>
  152.4623  134.5155  159.9766 H   0  0  0  0  0  0  0  0  0  0  0  0  # atno 6907 bound_to 6896
  151.5201  133.3462  159.2907 H   0  0  0  0  0  0  0  0  0  0  0  0  # atno 6908 bound_to 6896
  150.8592  134.7968  159.7132 H   0  0  0  0  0  0  0  0  0  0  0  0  # atno 6909 bound_to 6896
  144.7152  140.1861  143.6353 H   0  0  0  0  0  0  0  0  0  0  0  0  # atno 7974 bound_to 7965
  154.5003  140.2152  155.9360 H   0  0  0  0  0  0  0  0  0  0  0  0  # atno 8008 bound_to 7997
  156.1425  140.3177  155.8486 H   0  0  0  0  0  0  0  0  0  0  0  0  # atno 8009 bound_to 7997
  155.4093  140.0489  157.3023 H   0  0  0  0  0  0  0  0  0  0  0  0  # atno 8010 bound_to 7997
  140.7278  143.4684  151.0281 H   0  0  0  0  0  0  0  0  0  0  0  0  # atno 10167 bound_to 10162
  156.1054  130.4181  150.0729 H   0  0  0  0  0  0  0  0  0  0  0  0  # atno 10718 bound_to 10713
  154.8743  135.4004  154.3388 H   0  0  0  0  0  0  0  0  0  0  0  0  # atno 10763 bound_to 10752
  153.4190  135.7022  153.6312 H   0  0  0  0  0  0  0  0  0  0  0  0  # atno 10764 bound_to 10752
  153.4982  135.3733  155.2497 H   0  0  0  0  0  0  0  0  0  0  0  0  # atno 10765 bound_to 10752
  139.8771  134.9151  156.4792 H   0  0  0  0  0  0  0  0  0  0  0  0  # atno 11005 bound_to 11000
  145.8812  139.2324  143.1604 LP  0  0  0  0  0  0  0  0  0  0  0  0  # atno 17320 bound_to 7965
  145.9993  140.8534  143.0026 LP  0  0  0  0  0  0  0  0  0  0  0  0  # atno 17321 bound_to 7965
  139.8374  143.7609  152.3180 LP  0  0  0  0  0  0  0  0  0  0  0  0  # atno 17342 bound_to 10162
  139.7746  144.7465  151.0175 LP  0  0  0  0  0  0  0  0  0  0  0  0  # atno 17343 bound_to 10162
  156.8706  130.9523  151.3609 LP  0  0  0  0  0  0  0  0  0  0  0  0  # atno 17370 bound_to 10713
  157.6230  130.8670  149.9141 LP  0  0  0  0  0  0  0  0  0  0  0  0  # atno 17371 bound_to 10713
  140.8739  133.7968  155.9394 LP  0  0  0  0  0  0  0  0  0  0  0  0  # atno 17394 bound_to 11000
  140.8924  134.2479  157.5087 LP  0  0  0  0  0  0  0  0  0  0  0  0  # atno 17395 bound_to 11000

$$$$
