AV-unprocessed.smi:1962|AV-procd|sdf|7922|dock8
  -GOLD-   2272010 93D 1   1.00000     0.00000
 Structure written by MMmdl.
 36 37  0  0  0  0  0  0  0  0  1 V2000
  144.6601  135.1775  153.8046 C   0  0  0  0  0  0  0  0  0  0  0  0
  143.5512  135.0253  152.7547 C   0  0  2  0  0  0  0  0  0  0  0  0
  144.0956  135.2352  151.3260 C   0  0  0  0  0  0  0  0  0  0  0  0
  144.6667  134.0242  150.7622 N   0  0  0  0  0  0  0  0  0  0  0  0
  144.0133  132.9645  150.1692 C   0  0  0  0  0  0  0  0  0  0  0  0
  144.9658  132.0684  149.7770 C   0  0  0  0  0  0  0  0  0  0  0  0
  146.1879  132.6754  150.1806 C   0  0  0  0  0  0  0  0  0  0  0  0
  146.0057  133.8440  150.7734 N   0  0  0  0  0  0  0  0  0  0  0  0
  142.4844  135.9811  153.0483 N   0  0  0  0  0  0  0  0  0  0  0  0
  141.2639  135.6782  153.5298 C   0  0  0  0  0  0  0  0  0  0  0  0
  140.9194  134.5311  153.8160 O   0  0  0  0  0  0  0  0  0  0  0  0
  140.3248  136.8206  153.6841 C   0  0  0  0  0  0  0  0  0  0  0  0
  139.0886  136.6057  154.0102 N   0  0  0  0  0  0  0  0  0  0  0  0
  138.1868  137.6359  154.1834 N   0  0  0  0  0  0  0  0  0  0  0  0
  136.9269  137.2486  154.8146 C   0  0  0  0  0  0  0  0  0  0  0  0
  138.3959  138.9177  153.7922 C   0  0  0  0  0  0  0  0  0  0  0  0
  137.5863  139.8279  153.9688 O   0  0  0  0  0  0  0  0  0  0  0  0
  139.7137  139.2028  153.0660 C   0  0  0  0  0  0  0  0  0  0  0  0
  140.8356  138.2351  153.4923 C   0  0  0  0  0  0  0  0  0  0  0  0
  145.4651  134.4630  153.6311 H   0  0  0  0  0  0  0  0  0  0  0  0
  144.2758  135.0011  154.8098 H   0  0  0  0  0  0  0  0  0  0  0  0
  145.0932  136.1782  153.7838 H   0  0  0  0  0  0  0  0  0  0  0  0
  143.1707  134.0055  152.8343 H   0  0  0  0  0  0  0  0  0  0  0  0
  143.3085  135.6029  150.6653 H   0  0  0  0  0  0  0  0  0  0  0  0
  144.8754  135.9977  151.3328 H   0  0  0  0  0  0  0  0  0  0  0  0
  142.9379  132.9403  150.0715 H   0  0  0  0  0  0  0  0  0  0  0  0
  144.8133  131.1242  149.2757 H   0  0  0  0  0  0  0  0  0  0  0  0
  147.1950  132.3039  150.0622 H   0  0  0  0  0  0  0  0  0  0  0  0
  142.6744  136.9503  152.8371 H   0  0  0  0  0  0  0  0  0  0  0  0
  136.0827  137.4740  154.1612 H   0  0  0  0  0  0  0  0  0  0  0  0
  136.7875  137.7879  155.7527 H   0  0  0  0  0  0  0  0  0  0  0  0
  136.8928  136.1815  155.0404 H   0  0  0  0  0  0  0  0  0  0  0  0
  139.5270  139.0994  151.9965 H   0  0  0  0  0  0  0  0  0  0  0  0
  140.0194  140.2361  153.2335 H   0  0  0  0  0  0  0  0  0  0  0  0
  141.2925  138.5803  154.4204 H   0  0  0  0  0  0  0  0  0  0  0  0
  141.6200  138.2621  152.7348 H   0  0  0  0  0  0  0  0  0  0  0  0
  1  2  1  0  0  0  0
  1 20  1  0  0  0  0
  1 21  1  0  0  0  0
  1 22  1  0  0  0  0
  2  3  1  0  0  0  0
  2  9  1  0  0  0  0
  2 23  1  0  0  0  0
  3  4  1  0  0  0  0
  3 24  1  0  0  0  0
  3 25  1  0  0  0  0
  4  8  1  0  0  0  0
  4  5  1  0  0  0  0
  5  6  2  0  0  0  0
  5 26  1  0  0  0  0
  6  7  1  0  0  0  0
  6 27  1  0  0  0  0
  7  8  2  0  0  0  0
  7 28  1  0  0  0  0
  9 10  1  0  0  0  0
  9 29  1  0  0  0  0
 10 11  2  0  0  0  0
 10 12  1  0  0  0  0
 12 19  1  0  0  0  0
 12 13  2  0  0  0  0
 13 14  1  0  0  0  0
 14 15  1  0  0  0  0
 14 16  1  0  0  0  0
 15 30  1  0  0  0  0
 15 31  1  0  0  0  0
 15 32  1  0  0  0  0
 16 17  2  0  0  0  0
 16 18  1  0  0  0  0
 18 19  1  0  0  0  0
 18 33  1  0  0  0  0
 18 34  1  0  0  0  0
 19 35  1  0  0  0  0
 19 36  1  0  0  0  0
M  END
> <s_m_source_file>
AV-unprocessed.smi

> <i_m_source_file_index>
1962

> <i_lp_mmshare_version>
43012

> <i_f3d_flags>
0

> <s_epik_input>
bjFbY0hdW2NIXVtjSF1uMVtDSDJdW0NAQEhdKFtDSDNdKVtOSF1DKD1PKUMyPU5OKFtDSDNdKUMoPU8pW0NIMl1bQ0gyXTI=

> <s_epik_cmdline>
J2VwaWtfcHl0aG9uJywgJy1waCcsICc3LjAnLCAnLXRuJywgJzgnLCAnLW1hJywgJzIwMCcsICctbWV0YWxfYmluZGluZycsICctaW1hZScsICc8aW5maWxlLm1hZT4nLCAnLW9tYWUnLCAnPG91dGZpbGUubWFlPic=

> <r_lp_tautomer_probability>
1

> <r_epik_Ionization_Penalty>
9.43868e-05

> <r_epik_Ionization_Penalty_Charging>
0

> <r_epik_Ionization_Penalty_Neutral>
9.43868e-05

> <r_epik_State_Penalty>
-0

> <r_epik_Charging_Adjusted_Penalty>
0

> <i_epik_Tot_Q>
0

> <i_epik_Tot_abs_Q>
0

> <r_epik_Metal_State_Penalty>
0.0732556

> <b_epik_Metal_Only>
0

> <s_epik_Chemistry_Notes>
This compound has an imine and may undergo hydrolysis.

> <s_lp_Force_Field>
OPLS_2005

> <r_lp_Energy>
16.0967

> <b_lp_Chiralities_Consistent>
1

> <s_lp_Variant>
AV-unprocessed.smi:1962-1

> <Gold.Version>
5.8.1

> <Gold.Id.Protein>
6NUR|6NUR_protein|mol2

> <Gold.PLP.Fitness>
43.4988

> <Gold.PLP.PLP>
-35.8846

> <Gold.PLP.part.hbond>
-2.0000

> <Gold.PLP.part.metal>
0.0000

> <Gold.PLP.part.buried>
-4.8856

> <Gold.PLP.part.nonpolar>
-29.9966

> <Gold.PLP.part.repulsive>
0.5647

> <Gold.PLP.ligand.clash>
0.0000

> <Gold.PLP.ligand.torsion>
0.7057

> <Gold.PLP.Chemscore.Hbond>
1.0000

> <Gold.PLP.Chemscore.CHOScore>
2.0000

> <Gold.PLP.Chemscore.Metal>
0.0000

> <Gold.Chemscore.Hbonds>
donor molecule, donor type, donor heavy atom, donor atom, acceptor molecule, acceptor atom, score
      P1  H 11000 11005       L1    11  1.00
      L1  C     5    26       P1 10186  1.00
      L1  C     7    28       P1 10747  1.00

> <Gold.PLP.Chemscore.Internal.Correction>
0.0256

> <Gold.Rescore>
     Score         DG    S(hbond)    S(metal)    S(lipo)     H(rot)  DE(clash)    DE(int)     intcor
     11.42     -13.36       1.01        0.00      72.03       1.53       1.39       0.56       ----

> <Gold.Chemscore.Fitness>
11.4150

> <Gold.Chemscore.DG>
-13.3619

> <Gold.Chemscore.ZeroCoef>
-5.4800

> <Gold.Chemscore.Hbond>
1.0058

> <Gold.Chemscore.Metal>
0.0000

> <Gold.Chemscore.Lipo>
72.0298

> <Gold.Chemscore.Internal_Hbond>
0.0000

> <Gold.Chemscore.DEClash>
1.3874

> <Gold.Chemscore.DEInternal>
0.5595

> <Gold.Chemscore.Rot>
1.5254

> <Gold.Chemscore.Internal.Correction>
   9.000000E+99

> <Gold.Chemscore.Hbonds>
donor molecule, donor type, donor heavy atom, donor atom, acceptor molecule, acceptor atom, score
      P1  H 10995 11001       L1    11  0.01
      P1  H 11000 11005       L1    11  0.93

> <Gold.Chemscore.Hbond.Weighted>
-3.3595

> <Gold.Chemscore.Metal.Weighted>
-0.0000

> <Gold.Chemscore.Lipo.Weighted>
-8.4275

> <Gold.Chemscore.Internal_Hbond.Weighted>
0.0000

> <Gold.Chemscore.DEClash.Weighted>
1.3874

> <Gold.Chemscore.DEInternal.Weighted>
0.5595

> <Gold.Chemscore.Rot.Weighted>
3.9051

> <Gold.Chemscore.Internal.Correction.Weighted>
   9.000000E+99

> <Gold.Protein.RotatedTorsions>
[ 6907 6896 6895 6894 ] final  130.23 input  -60.11 | X-H torsion
[ 7974 7965 7964 7962 ] final  -66.76 input  175.53 | X-H torsion
[ 8008 7997 7996 7995 ] final   39.03 input   59.86 | X-H torsion
[ 10167 10162 10161 10158 ] final  -23.34 input  -65.29 | X-H torsion
[ 10718 10713 10712 10709 ] final  -71.79 input   66.30 | X-H torsion
[ 10763 10752 10751 10750 ] final   34.51 input  -60.55 | X-H torsion
[ 11005 11000 10999 10996 ] final   15.62 input  -57.11 | X-H torsion

> <Gold.Protein.ActiveResidues>
 VAL166  LYS551  ARG553  GLY616  TRP617  ASP618  TYR619  PRO620  LYS621  CYS622 
 ASP623  PHE694  ASN695  SER759  ASP760  ASP761  ALA762  ILE779  LEU786  VAL792 
 PHE793  MET794  SER795  GLU796  ALA797  LYS798  CYS799  TRP800  GLU811  SER814 

> <Gold.Protein.RotatedAtoms>
  152.3547  133.6222  159.5970 H   0  0  0  0  0  0  0  0  0  0  0  0  # atno 6907 bound_to 6896
  150.7560  133.9519  159.3497 H   0  0  0  0  0  0  0  0  0  0  0  0  # atno 6908 bound_to 6896
  151.7366  135.0864  160.0360 H   0  0  0  0  0  0  0  0  0  0  0  0  # atno 6909 bound_to 6896
  145.7377  140.8968  143.0546 H   0  0  0  0  0  0  0  0  0  0  0  0  # atno 7974 bound_to 7965
  155.2298  140.3337  155.4305 H   0  0  0  0  0  0  0  0  0  0  0  0  # atno 8008 bound_to 7997
  156.2299  140.1846  156.7314 H   0  0  0  0  0  0  0  0  0  0  0  0  # atno 8009 bound_to 7997
  154.5961  140.0630  156.9290 H   0  0  0  0  0  0  0  0  0  0  0  0  # atno 8010 bound_to 7997
  140.7288  143.4452  151.0598 H   0  0  0  0  0  0  0  0  0  0  0  0  # atno 10167 bound_to 10162
  156.0348  130.4358  150.2496 H   0  0  0  0  0  0  0  0  0  0  0  0  # atno 10718 bound_to 10713
  153.0161  135.6358  154.1680 H   0  0  0  0  0  0  0  0  0  0  0  0  # atno 10763 bound_to 10752
  154.1418  135.2834  155.3160 H   0  0  0  0  0  0  0  0  0  0  0  0  # atno 10764 bound_to 10752
  154.6118  135.5554  153.7543 H   0  0  0  0  0  0  0  0  0  0  0  0  # atno 10765 bound_to 10752
  140.4562  134.1173  155.7709 H   0  0  0  0  0  0  0  0  0  0  0  0  # atno 11005 bound_to 11000
  144.6878  139.9418  143.7475 LP  0  0  0  0  0  0  0  0  0  0  0  0  # atno 17320 bound_to 7965
  146.0477  139.3481  143.0658 LP  0  0  0  0  0  0  0  0  0  0  0  0  # atno 17321 bound_to 7965
  139.8123  143.7934  152.3172 LP  0  0  0  0  0  0  0  0  0  0  0  0  # atno 17342 bound_to 10162
  139.7988  144.7382  150.9853 LP  0  0  0  0  0  0  0  0  0  0  0  0  # atno 17343 bound_to 10162
  157.0596  131.0086  151.3227 LP  0  0  0  0  0  0  0  0  0  0  0  0  # atno 17370 bound_to 10713
  157.5080  130.7921  149.7675 LP  0  0  0  0  0  0  0  0  0  0  0  0  # atno 17371 bound_to 10713
  141.1642  133.8735  157.1763 LP  0  0  0  0  0  0  0  0  0  0  0  0  # atno 17394 bound_to 11000
  139.9974  135.0041  157.0114 LP  0  0  0  0  0  0  0  0  0  0  0  0  # atno 17395 bound_to 11000

$$$$
