AV-unprocessed.smi:1499|AV-procd|sdf|6061|dock2
  -GOLD-   22720 6173D 1   1.00000     0.00000
 Structure written by MMmdl.
 41 42  0  0  0  0  0  0  0  0  2 V2000
  150.9607  142.6511  157.2272 C   0  0  0  0  0  0  0  0  0  0  0  0
  150.0171  141.5752  156.6702 C   0  0  0  0  0  0  0  0  0  0  0  0
  150.7016  140.6351  155.7471 N   0  3  0  0  0  0  0  0  0  0  0  0
  149.7429  139.7231  155.0655 C   0  0  0  0  0  0  0  0  0  0  0  0
  150.4623  138.7551  154.1067 C   0  0  0  0  0  0  0  0  0  0  0  0
  151.4911  138.0187  154.8550 N   0  0  0  0  0  0  0  0  0  0  0  0
  151.3918  136.7357  155.2843 C   0  0  0  0  0  0  0  0  0  0  0  0
  152.1475  136.2598  156.1320 O   0  0  0  0  0  0  0  0  0  0  0  0
  150.4598  136.0106  154.6367 N   0  0  0  0  0  0  0  0  0  0  0  0
  150.0786  134.6679  154.8864 C   0  0  0  0  0  0  0  0  0  0  0  0
  150.5550  133.8801  155.9663 C   0  0  0  0  0  0  0  0  0  0  0  0
  150.0335  132.6632  155.9387 N   0  0  0  0  0  0  0  0  0  0  0  0
  149.2232  132.6515  154.8503 N   0  0  0  0  0  0  0  0  0  0  0  0
  148.4867  131.4461  154.5137 C   0  0  0  0  0  0  0  0  0  0  0  0
  147.2801  131.7650  153.6293 C   0  0  0  0  0  0  0  0  0  0  0  0
  147.3543  131.4063  152.3448 N   0  0  0  0  0  0  0  0  0  0  0  0
  146.2936  132.3270  154.1000 O   0  0  0  0  0  0  0  0  0  0  0  0
  149.2264  133.8621  154.1850 C   0  0  0  0  0  0  0  0  0  0  0  0
  152.5029  138.9366  155.3858 C   0  0  0  0  0  0  0  0  0  0  0  0
  151.8375  139.9073  156.3786 C   0  0  0  0  0  0  0  0  0  0  0  0
  150.4042  143.3792  157.8179 H   0  0  0  0  0  0  0  0  0  0  0  0
  151.4609  143.1918  156.4236 H   0  0  0  0  0  0  0  0  0  0  0  0
  151.7255  142.2283  157.8783 H   0  0  0  0  0  0  0  0  0  0  0  0
  149.5416  141.0228  157.4822 H   0  0  0  0  0  0  0  0  0  0  0  0
  149.2157  142.0823  156.1309 H   0  0  0  0  0  0  0  0  0  0  0  0
  149.1895  139.1555  155.8157 H   0  0  0  0  0  0  0  0  0  0  0  0
  149.0115  140.3103  154.5090 H   0  0  0  0  0  0  0  0  0  0  0  0
  149.7276  138.1147  153.6188 H   0  0  0  0  0  0  0  0  0  0  0  0
  150.9405  139.3150  153.3014 H   0  0  0  0  0  0  0  0  0  0  0  0
  149.9473  136.4825  153.9060 H   0  0  0  0  0  0  0  0  0  0  0  0
  151.2481  134.1435  156.7518 H   0  0  0  0  0  0  0  0  0  0  0  0
  149.1472  130.7390  154.0089 H   0  0  0  0  0  0  0  0  0  0  0  0
  148.1553  130.9707  155.4379 H   0  0  0  0  0  0  0  0  0  0  0  0
  146.5783  131.5902  151.7252 H   0  0  0  0  0  0  0  0  0  0  0  0
  148.1839  130.9457  151.9998 H   0  0  0  0  0  0  0  0  0  0  0  0
  148.6385  134.0255  153.2939 H   0  0  0  0  0  0  0  0  0  0  0  0
  153.3312  138.4143  155.8672 H   0  0  0  0  0  0  0  0  0  0  0  0
  152.9490  139.4935  154.5605 H   0  0  0  0  0  0  0  0  0  0  0  0
  152.5850  140.6135  156.7385 H   0  0  0  0  0  0  0  0  0  0  0  0
  151.4768  139.3555  157.2484 H   0  0  0  0  0  0  0  0  0  0  0  0
  151.1029  141.2008  155.0128 H   0  0  0  0  0  0  0  0  0  0  0  0
  1  2  1  0  0  0  0
  1 21  1  0  0  0  0
  1 22  1  0  0  0  0
  1 23  1  0  0  0  0
  2  3  1  0  0  0  0
  2 24  1  0  0  0  0
  2 25  1  0  0  0  0
  3 20  1  0  0  0  0
  3  4  1  0  0  0  0
  3 41  1  0  0  0  0
  4  5  1  0  0  0  0
  4 26  1  0  0  0  0
  4 27  1  0  0  0  0
  5  6  1  0  0  0  0
  5 28  1  0  0  0  0
  5 29  1  0  0  0  0
  6  7  1  0  0  0  0
  6 19  1  0  0  0  0
  7  8  2  0  0  0  0
  7  9  1  0  0  0  0
  9 10  1  0  0  0  0
  9 30  1  0  0  0  0
 10 18  2  0  0  0  0
 10 11  1  0  0  0  0
 11 12  2  0  0  0  0
 11 31  1  0  0  0  0
 12 13  1  0  0  0  0
 13 14  1  0  0  0  0
 13 18  1  0  0  0  0
 14 15  1  0  0  0  0
 14 32  1  0  0  0  0
 14 33  1  0  0  0  0
 15 16  1  0  0  0  0
 15 17  2  0  0  0  0
 16 34  1  0  0  0  0
 16 35  1  0  0  0  0
 18 36  1  0  0  0  0
 19 20  1  0  0  0  0
 19 37  1  0  0  0  0
 19 38  1  0  0  0  0
 20 39  1  0  0  0  0
 20 40  1  0  0  0  0
M  CHG  1   3   1
M  END
> <s_m_source_file>
AV-unprocessed.smi

> <i_m_source_file_index>
1499

> <i_lp_mmshare_version>
43012

> <i_f3d_flags>
0

> <s_epik_input>
W0NIM11bQ0gyXU4xW0NIMl1bQ0gyXU4oW0NIMl1bQ0gyXTEpQyg9TylbTkhdYzJbY0hdbm4oW2NIXTIpW0NIMl1DKD1PKVtOSDJd

> <s_epik_cmdline>
J2VwaWtfcHl0aG9uJywgJy1waCcsICc3LjAnLCAnLXRuJywgJzgnLCAnLW1hJywgJzIwMCcsICctbWV0YWxfYmluZGluZycsICctaW1hZScsICc8aW5maWxlLm1hZT4nLCAnLW9tYWUnLCAnPG91dGZpbGUubWFlPic=

> <r_lp_tautomer_probability>
1

> <r_epik_Ionization_Penalty>
0.390351

> <r_epik_Ionization_Penalty_Charging>
0.390326

> <r_epik_Ionization_Penalty_Neutral>
2.46507e-05

> <r_epik_State_Penalty>
0.388987

> <r_epik_Charging_Adjusted_Penalty>
0.779313

> <i_epik_Tot_Q>
1

> <i_epik_Tot_abs_Q>
1

> <r_epik_Metal_State_Penalty>
0.388988

> <b_epik_Metal_Only>
0

> <s_lp_Force_Field>
OPLS_2005

> <r_lp_Energy>
52.2824

> <b_lp_Chiralities_Consistent>
1

> <s_lp_Variant>
AV-unprocessed.smi:1499-1

> <Gold.Version>
5.8.1

> <Gold.Id.Protein>
6NUR|6NUR_protein|mol2

> <Gold.PLP.Fitness>
43.2700

> <Gold.PLP.PLP>
-34.4361

> <Gold.PLP.part.hbond>
-3.9812

> <Gold.PLP.part.metal>
0.0000

> <Gold.PLP.part.buried>
-1.1231

> <Gold.PLP.part.nonpolar>
-29.7822

> <Gold.PLP.part.repulsive>
0.3548

> <Gold.PLP.ligand.clash>
0.0000

> <Gold.PLP.ligand.torsion>
0.5412

> <Gold.PLP.Chemscore.Hbond>
2.6838

> <Gold.PLP.Chemscore.CHOScore>
0.5896

> <Gold.PLP.Chemscore.Metal>
0.0000

> <Gold.Chemscore.Hbonds>
donor molecule, donor type, donor heavy atom, donor atom, acceptor molecule, acceptor atom, score
      L1  H     9    30       P1  7948  0.40
      L1  H    16    35       P1 10747  0.67
      P1  H 10752 10765       L1     8  0.55
      L1  C    18    36       P1  7948  0.51

> <Gold.PLP.Chemscore.Internal.Correction>
0.0958

> <Gold.Rescore>
     Score         DG    S(hbond)    S(metal)    S(lipo)     H(rot)  DE(clash)    DE(int)     intcor
     11.86     -13.61       1.79        0.00      58.88       1.85       0.09       1.67       ----

> <Gold.Chemscore.Fitness>
11.8550

> <Gold.Chemscore.DG>
-13.6125

> <Gold.Chemscore.ZeroCoef>
-5.4800

> <Gold.Chemscore.Hbond>
1.7926

> <Gold.Chemscore.Metal>
0.0000

> <Gold.Chemscore.Lipo>
58.8814

> <Gold.Chemscore.Internal_Hbond>
0.0000

> <Gold.Chemscore.DEClash>
0.0860

> <Gold.Chemscore.DEInternal>
1.6714

> <Gold.Chemscore.Rot>
1.8532

> <Gold.Chemscore.Internal.Correction>
   9.000000E+99

> <Gold.Chemscore.Hbonds>
donor molecule, donor type, donor heavy atom, donor atom, acceptor molecule, acceptor atom, score
      L1  H     9    30       P1  7948  0.12
      L1  H    16    35       P1 10747  0.68
      P1  H 10752 10765       L1     8  0.03

> <Gold.Chemscore.Hbond.Weighted>
-5.9874

> <Gold.Chemscore.Metal.Weighted>
-0.0000

> <Gold.Chemscore.Lipo.Weighted>
-6.8891

> <Gold.Chemscore.Internal_Hbond.Weighted>
0.0000

> <Gold.Chemscore.DEClash.Weighted>
0.0860

> <Gold.Chemscore.DEInternal.Weighted>
1.6714

> <Gold.Chemscore.Rot.Weighted>
4.7441

> <Gold.Chemscore.Internal.Correction.Weighted>
   9.000000E+99

> <Gold.Protein.RotatedTorsions>
[ 6907 6896 6895 6894 ] final  -94.86 input  -60.11 | X-H torsion
[ 7974 7965 7964 7962 ] final  163.39 input  175.53 | X-H torsion
[ 8008 7997 7996 7995 ] final  -62.52 input   59.86 | X-H torsion
[ 10167 10162 10161 10158 ] final    1.85 input  -65.29 | X-H torsion
[ 10718 10713 10712 10709 ] final   18.70 input   66.30 | X-H torsion
[ 10763 10752 10751 10750 ] final -160.30 input  -60.55 | X-H torsion
[ 11005 11000 10999 10996 ] final -101.01 input  -57.11 | X-H torsion

> <Gold.Protein.ActiveResidues>
 VAL166  LYS551  ARG553  GLY616  TRP617  ASP618  TYR619  PRO620  LYS621  CYS622 
 ASP623  PHE694  ASN695  SER759  ASP760  ASP761  ALA762  ILE779  LEU786  VAL792 
 PHE793  MET794  SER795  GLU796  ALA797  LYS798  CYS799  TRP800  GLU811  SER814 

> <Gold.Protein.RotatedAtoms>
  150.6951  134.1747  159.4225 H   0  0  0  0  0  0  0  0  0  0  0  0  # atno 6907 bound_to 6896
  151.9723  135.0068  160.0562 H   0  0  0  0  0  0  0  0  0  0  0  0  # atno 6908 bound_to 6896
  152.1830  133.4685  159.5005 H   0  0  0  0  0  0  0  0  0  0  0  0  # atno 6909 bound_to 6896
  144.7592  139.8176  143.6339 H   0  0  0  0  0  0  0  0  0  0  0  0  # atno 7974 bound_to 7965
  154.4504  140.0994  156.6600 H   0  0  0  0  0  0  0  0  0  0  0  0  # atno 8008 bound_to 7997
  155.5303  140.3481  155.4406 H   0  0  0  0  0  0  0  0  0  0  0  0  # atno 8009 bound_to 7997
  156.0669  140.1340  156.9864 H   0  0  0  0  0  0  0  0  0  0  0  0  # atno 8010 bound_to 7997
  140.6663  143.7170  150.7834 H   0  0  0  0  0  0  0  0  0  0  0  0  # atno 10167 bound_to 10162
  157.1001  130.6464  149.5870 H   0  0  0  0  0  0  0  0  0  0  0  0  # atno 10718 bound_to 10713
  154.7402  135.3067  154.8742 H   0  0  0  0  0  0  0  0  0  0  0  0  # atno 10763 bound_to 10752
  153.9558  135.6758  153.4748 H   0  0  0  0  0  0  0  0  0  0  0  0  # atno 10764 bound_to 10752
  153.1001  135.4916  154.8776 H   0  0  0  0  0  0  0  0  0  0  0  0  # atno 10765 bound_to 10752
  141.1248  133.8444  157.1176 H   0  0  0  0  0  0  0  0  0  0  0  0  # atno 11005 bound_to 11000
  146.1636  139.4759  142.9972 LP  0  0  0  0  0  0  0  0  0  0  0  0  # atno 17320 bound_to 7965
  145.6677  141.0224  143.1675 LP  0  0  0  0  0  0  0  0  0  0  0  0  # atno 17321 bound_to 7965
  140.0848  143.4934  152.2511 LP  0  0  0  0  0  0  0  0  0  0  0  0  # atno 17342 bound_to 10162
  139.5913  144.7551  151.3394 LP  0  0  0  0  0  0  0  0  0  0  0  0  # atno 17343 bound_to 10162
  155.9876  130.4915  150.7131 LP  0  0  0  0  0  0  0  0  0  0  0  0  # atno 17370 bound_to 10713
  157.4648  131.0887  151.0706 LP  0  0  0  0  0  0  0  0  0  0  0  0  # atno 17371 bound_to 10713
  140.0237  134.9934  157.0642 LP  0  0  0  0  0  0  0  0  0  0  0  0  # atno 17394 bound_to 11000
  140.4398  134.1693  155.7173 LP  0  0  0  0  0  0  0  0  0  0  0  0  # atno 17395 bound_to 11000

$$$$
