AV-unprocessed.smi:1077|AV-procd|sdf|4701|dock5
  -GOLD-   22720 3223D 1   1.00000     0.00000
 Structure written by MMmdl.
 42 43  0  0  0  0  0  0  0  0  1 V2000
  154.6346  135.8991  165.4200 C   0  0  0  0  0  0  0  0  0  0  0  0
  154.2489  137.3192  165.8613 C   0  0  0  0  0  0  0  0  0  0  0  0
  155.0058  138.3435  165.1895 N   0  0  0  0  0  0  0  0  0  0  0  0
  155.7459  139.2752  165.8874 C   0  0  0  0  0  0  0  0  0  0  0  0
  156.4556  140.2451  165.2751 C   0  0  0  0  0  0  0  0  0  0  0  0
  157.2181  141.1974  166.0123 C   0  0  0  0  0  0  0  0  0  0  0  0
  157.8344  141.9571  166.6310 N   0  0  0  0  0  0  0  0  0  0  0  0
  156.4722  140.3618  163.8191 C   0  0  0  0  0  0  0  0  0  0  0  0
  157.1130  141.2231  163.2139 O   0  0  0  0  0  0  0  0  0  0  0  0
  155.6953  139.4031  163.1199 N   0  0  0  0  0  0  0  0  0  0  0  0
  155.6805  139.4555  161.6415 C   0  0  0  0  0  0  0  0  0  0  0  0
  154.3818  140.0437  161.0702 C   0  0  0  0  0  0  0  0  0  0  0  0
  153.5606  139.3264  160.4967 O   0  0  0  0  0  0  0  0  0  0  0  0
  154.2096  141.3624  161.2467 N   0  0  0  0  0  0  0  0  0  0  0  0
  153.0627  142.1361  160.7811 C   0  0  0  0  0  0  0  0  0  0  0  0
  153.0941  142.2862  159.2450 C   0  0  0  0  0  0  0  0  0  0  0  0
  151.9445  143.1732  158.7406 C   0  0  0  0  0  0  0  0  0  0  0  0
  151.9585  144.5474  159.4270 C   0  0  0  0  0  0  0  0  0  0  0  0
  151.9149  144.4017  160.9560 C   0  0  0  0  0  0  0  0  0  0  0  0
  153.0643  143.5168  161.4649 C   0  0  0  0  0  0  0  0  0  0  0  0
  154.9621  138.3850  163.7763 C   0  0  0  0  0  0  0  0  0  0  0  0
  154.3088  137.5597  163.1327 O   0  0  0  0  0  0  0  0  0  0  0  0
  154.0033  135.1586  165.9113 H   0  0  0  0  0  0  0  0  0  0  0  0
  155.6696  135.6666  165.6714 H   0  0  0  0  0  0  0  0  0  0  0  0
  154.5154  135.7754  164.3435 H   0  0  0  0  0  0  0  0  0  0  0  0
  153.2018  137.5207  165.6309 H   0  0  0  0  0  0  0  0  0  0  0  0
  154.3683  137.4735  166.9355 H   0  0  0  0  0  0  0  0  0  0  0  0
  155.7596  139.2269  166.9669 H   0  0  0  0  0  0  0  0  0  0  0  0
  156.5166  140.0371  161.2516 H   0  0  0  0  0  0  0  0  0  0  0  0
  155.8359  138.4590  161.2237 H   0  0  0  0  0  0  0  0  0  0  0  0
  154.9330  141.8717  161.7332 H   0  0  0  0  0  0  0  0  0  0  0  0
  152.1464  141.6162  161.0675 H   0  0  0  0  0  0  0  0  0  0  0  0
  154.0462  142.7206  158.9367 H   0  0  0  0  0  0  0  0  0  0  0  0
  153.0331  141.3077  158.7673 H   0  0  0  0  0  0  0  0  0  0  0  0
  152.0179  143.2967  157.6597 H   0  0  0  0  0  0  0  0  0  0  0  0
  150.9914  142.6785  158.9314 H   0  0  0  0  0  0  0  0  0  0  0  0
  152.8576  145.0922  159.1363 H   0  0  0  0  0  0  0  0  0  0  0  0
  151.1117  145.1433  159.0851 H   0  0  0  0  0  0  0  0  0  0  0  0
  151.9676  145.3849  161.4246 H   0  0  0  0  0  0  0  0  0  0  0  0
  150.9599  143.9676  161.2547 H   0  0  0  0  0  0  0  0  0  0  0  0
  152.9836  143.3983  162.5462 H   0  0  0  0  0  0  0  0  0  0  0  0
  154.0146  144.0201  161.2796 H   0  0  0  0  0  0  0  0  0  0  0  0
  1  2  1  0  0  0  0
  1 23  1  0  0  0  0
  1 24  1  0  0  0  0
  1 25  1  0  0  0  0
  2  3  1  0  0  0  0
  2 26  1  0  0  0  0
  2 27  1  0  0  0  0
  3 21  1  0  0  0  0
  3  4  1  0  0  0  0
  4  5  2  0  0  0  0
  4 28  1  0  0  0  0
  5  6  1  0  0  0  0
  5  8  1  0  0  0  0
  6  7  3  0  0  0  0
  8  9  2  0  0  0  0
  8 10  1  0  0  0  0
 10 11  1  0  0  0  0
 10 21  1  0  0  0  0
 11 12  1  0  0  0  0
 11 29  1  0  0  0  0
 11 30  1  0  0  0  0
 12 13  2  0  0  0  0
 12 14  1  0  0  0  0
 14 15  1  0  0  0  0
 14 31  1  0  0  0  0
 15 20  1  0  0  0  0
 15 16  1  0  0  0  0
 15 32  1  0  0  0  0
 16 17  1  0  0  0  0
 16 33  1  0  0  0  0
 16 34  1  0  0  0  0
 17 18  1  0  0  0  0
 17 35  1  0  0  0  0
 17 36  1  0  0  0  0
 18 19  1  0  0  0  0
 18 37  1  0  0  0  0
 18 38  1  0  0  0  0
 19 20  1  0  0  0  0
 19 39  1  0  0  0  0
 19 40  1  0  0  0  0
 20 41  1  0  0  0  0
 20 42  1  0  0  0  0
 21 22  2  0  0  0  0
M  END
> <s_m_source_file>
AV-unprocessed.smi

> <i_m_source_file_index>
1077

> <i_lp_mmshare_version>
43012

> <i_f3d_flags>
0

> <s_epik_input>
W0NIM11bQ0gyXW4xW2NIXWMoQyNOKWMoPU8pbihjMT1PKVtDSDJdQyg9TylbTkhdW0NIXTJbQ0gyXVtDSDJdW0NIMl1bQ0gyXVtDSDJdMg==

> <s_epik_cmdline>
J2VwaWtfcHl0aG9uJywgJy1waCcsICc3LjAnLCAnLXRuJywgJzgnLCAnLW1hJywgJzIwMCcsICctbWV0YWxfYmluZGluZycsICctaW1hZScsICc8aW5maWxlLm1hZT4nLCAnLW9tYWUnLCAnPG91dGZpbGUubWFlPic=

> <r_lp_tautomer_probability>
1

> <r_epik_Ionization_Penalty>
1.90876e-08

> <r_epik_Ionization_Penalty_Charging>
4.07395e-11

> <r_epik_Ionization_Penalty_Neutral>
1.90469e-08

> <r_epik_State_Penalty>
-0

> <r_epik_Charging_Adjusted_Penalty>
4.07395e-11

> <i_epik_Tot_Q>
0

> <i_epik_Tot_abs_Q>
0

> <r_epik_Metal_State_Penalty>
-0

> <b_epik_Metal_Only>
0

> <s_lp_Force_Field>
OPLS_2005

> <r_lp_Energy>
10.9803

> <b_lp_Chiralities_Consistent>
1

> <s_lp_Variant>
AV-unprocessed.smi:1077-1

> <Gold.Version>
5.8.1

> <Gold.Id.Protein>
6NUR|6NUR_protein|mol2

> <Gold.PLP.Fitness>
49.7024

> <Gold.PLP.PLP>
-50.6395

> <Gold.PLP.part.hbond>
-1.5421

> <Gold.PLP.part.metal>
0.0000

> <Gold.PLP.part.buried>
-6.5343

> <Gold.PLP.part.nonpolar>
-42.2384

> <Gold.PLP.part.repulsive>
0.0213

> <Gold.PLP.ligand.clash>
0.0000

> <Gold.PLP.ligand.torsion>
0.4816

> <Gold.PLP.Chemscore.Hbond>
0.0000

> <Gold.PLP.Chemscore.CHOScore>
0.0000

> <Gold.PLP.Chemscore.Metal>
0.0000

> <Gold.PLP.Chemscore.Internal.Correction>
0.0260

> <Gold.Rescore>
     Score         DG    S(hbond)    S(metal)    S(lipo)     H(rot)  DE(clash)    DE(int)     intcor
     11.12     -14.20       0.25        0.00     105.80       1.75       0.47       2.61       ----

> <Gold.Chemscore.Fitness>
11.1187

> <Gold.Chemscore.DG>
-14.1987

> <Gold.Chemscore.ZeroCoef>
-5.4800

> <Gold.Chemscore.Hbond>
0.2470

> <Gold.Chemscore.Metal>
0.0000

> <Gold.Chemscore.Lipo>
105.8015

> <Gold.Chemscore.Internal_Hbond>
0.0000

> <Gold.Chemscore.DEClash>
0.4704

> <Gold.Chemscore.DEInternal>
2.6097

> <Gold.Chemscore.Rot>
1.7520

> <Gold.Chemscore.Internal.Correction>
   9.000000E+99

> <Gold.Chemscore.Hbond.Weighted>
-0.8251

> <Gold.Chemscore.Metal.Weighted>
-0.0000

> <Gold.Chemscore.Lipo.Weighted>
-12.3788

> <Gold.Chemscore.Internal_Hbond.Weighted>
0.0000

> <Gold.Chemscore.DEClash.Weighted>
0.4704

> <Gold.Chemscore.DEInternal.Weighted>
2.6097

> <Gold.Chemscore.Rot.Weighted>
4.4852

> <Gold.Chemscore.Internal.Correction.Weighted>
   9.000000E+99

> <Gold.Protein.RotatedTorsions>
[ 6907 6896 6895 6894 ] final  124.11 input  -60.11 | X-H torsion
[ 7974 7965 7964 7962 ] final   90.89 input  175.53 | X-H torsion
[ 8008 7997 7996 7995 ] final  -96.14 input   59.86 | X-H torsion
[ 10167 10162 10161 10158 ] final   77.03 input  -65.29 | X-H torsion
[ 10718 10713 10712 10709 ] final  127.49 input   66.30 | X-H torsion
[ 10763 10752 10751 10750 ] final  -93.85 input  -60.55 | X-H torsion
[ 11005 11000 10999 10996 ] final   12.37 input  -57.11 | X-H torsion

> <Gold.Protein.ActiveResidues>
 VAL166  LYS551  ARG553  GLY616  TRP617  ASP618  TYR619  PRO620  LYS621  CYS622 
 ASP623  PHE694  ASN695  SER759  ASP760  ASP761  ALA762  ILE779  LEU786  VAL792 
 PHE793  MET794  SER795  GLU796  ALA797  LYS798  CYS799  TRP800  GLU811  SER814 

> <Gold.Protein.RotatedAtoms>
  152.4105  133.6956  159.6393 H   0  0  0  0  0  0  0  0  0  0  0  0  # atno 6907 bound_to 6896
  150.7986  133.8632  159.3246 H   0  0  0  0  0  0  0  0  0  0  0  0  # atno 6908 bound_to 6896
  151.6375  135.1018  160.0186 H   0  0  0  0  0  0  0  0  0  0  0  0  # atno 6909 bound_to 6896
  145.5130  139.2277  143.2714 H   0  0  0  0  0  0  0  0  0  0  0  0  # atno 7974 bound_to 7965
  154.7705  140.0474  157.1047 H   0  0  0  0  0  0  0  0  0  0  0  0  # atno 8008 bound_to 7997
  154.9826  140.3103  155.4920 H   0  0  0  0  0  0  0  0  0  0  0  0  # atno 8009 bound_to 7997
  156.2920  140.2233  156.4926 H   0  0  0  0  0  0  0  0  0  0  0  0  # atno 8010 bound_to 7997
  139.9859  144.5792  150.7859 H   0  0  0  0  0  0  0  0  0  0  0  0  # atno 10167 bound_to 10162
  157.5328  131.1098  150.8982 H   0  0  0  0  0  0  0  0  0  0  0  0  # atno 10718 bound_to 10713
  154.6999  135.5179  153.8512 H   0  0  0  0  0  0  0  0  0  0  0  0  # atno 10763 bound_to 10752
  153.0696  135.6596  154.0287 H   0  0  0  0  0  0  0  0  0  0  0  0  # atno 10764 bound_to 10752
  154.0147  135.2999  155.3368 H   0  0  0  0  0  0  0  0  0  0  0  0  # atno 10765 bound_to 10752
  140.4928  134.0824  155.7775 H   0  0  0  0  0  0  0  0  0  0  0  0  # atno 11005 bound_to 11000
  146.2154  140.5938  142.9041 LP  0  0  0  0  0  0  0  0  0  0  0  0  # atno 17320 bound_to 7965
  144.7717  140.5652  143.6665 LP  0  0  0  0  0  0  0  0  0  0  0  0  # atno 17321 bound_to 7965
  140.7472  143.2903  151.3349 LP  0  0  0  0  0  0  0  0  0  0  0  0  # atno 17342 bound_to 10162
  139.6375  144.0602  152.2528 LP  0  0  0  0  0  0  0  0  0  0  0  0  # atno 17343 bound_to 10162
  156.9558  130.5436  149.5284 LP  0  0  0  0  0  0  0  0  0  0  0  0  # atno 17370 bound_to 10713
  156.0436  130.5515  150.8828 LP  0  0  0  0  0  0  0  0  0  0  0  0  # atno 17371 bound_to 10713
  141.1475  133.9028  157.2179 LP  0  0  0  0  0  0  0  0  0  0  0  0  # atno 17394 bound_to 11000
  139.9759  135.0114  156.9630 LP  0  0  0  0  0  0  0  0  0  0  0  0  # atno 17395 bound_to 11000

$$$$
