AV-unprocessed.smi:682|AV-procd|sdf|3329|dock3
  -GOLD-   22720 0293D 1   1.00000     0.00000
 Structure written by MMmdl.
 41 42  0  0  0  0  0  0  0  0  1 V2000
  149.0834  140.7469  157.1486 C   0  0  0  0  0  0  0  0  0  0  0  0
  148.1253  139.7303  156.8846 O   0  0  0  0  0  0  0  0  0  0  0  0
  147.2145  139.9808  155.8129 C   0  0  2  0  0  0  0  0  0  0  0  0
  146.4383  141.2807  156.0752 C   0  0  0  0  0  0  0  0  0  0  0  0
  146.4086  138.7262  155.4298 C   0  0  0  0  0  0  0  0  0  0  0  0
  146.6754  139.1067  153.9753 C   0  0  2  0  0  0  0  0  0  0  0  0
  146.8882  137.9433  153.1209 N   0  0  0  0  0  0  0  0  0  0  0  0
  145.9092  137.1495  152.6669 C   0  0  0  0  0  0  0  0  0  0  0  0
  144.7193  137.3181  152.9331 O   0  0  0  0  0  0  0  0  0  0  0  0
  146.3972  136.1666  151.8935 N   0  0  0  0  0  0  0  0  0  0  0  0
  145.6623  135.1505  151.2333 C   0  0  0  0  0  0  0  0  0  0  0  0
  144.4677  135.2552  150.4658 C   0  0  0  0  0  0  0  0  0  0  0  0
  144.0908  134.0697  150.0100 N   0  0  0  0  0  0  0  0  0  0  0  0
  145.0237  133.2018  150.4712 N   0  0  0  0  0  0  0  0  0  0  0  0
  144.9064  131.7966  150.1449 C   0  0  0  0  0  0  0  0  0  0  0  0
  145.9979  133.8300  151.2210 C   0  0  0  0  0  0  0  0  0  0  0  0
  147.9703  139.8124  154.4546 C   0  0  0  0  0  0  0  0  0  0  0  0
  148.3463  141.0975  153.7101 C   0  0  0  0  0  0  0  0  0  0  0  0
  149.2537  138.9579  154.4927 C   0  0  0  0  0  0  0  0  0  0  0  0
  149.6451  140.4830  158.0446 H   0  0  0  0  0  0  0  0  0  0  0  0
  148.6138  141.7142  157.3279 H   0  0  0  0  0  0  0  0  0  0  0  0
  149.8014  140.8500  156.3355 H   0  0  0  0  0  0  0  0  0  0  0  0
  145.8419  141.5784  155.2132 H   0  0  0  0  0  0  0  0  0  0  0  0
  147.1129  142.1055  156.3054 H   0  0  0  0  0  0  0  0  0  0  0  0
  145.7425  141.1780  156.9073 H   0  0  0  0  0  0  0  0  0  0  0  0
  146.8827  137.7907  155.7331 H   0  0  0  0  0  0  0  0  0  0  0  0
  145.3573  138.7522  155.7178 H   0  0  0  0  0  0  0  0  0  0  0  0
  145.9241  139.8027  153.5946 H   0  0  0  0  0  0  0  0  0  0  0  0
  147.8397  137.7357  152.8558 H   0  0  0  0  0  0  0  0  0  0  0  0
  147.3977  136.1447  151.7609 H   0  0  0  0  0  0  0  0  0  0  0  0
  143.8707  136.1217  150.2241 H   0  0  0  0  0  0  0  0  0  0  0  0
  145.6835  131.2272  150.6556 H   0  0  0  0  0  0  0  0  0  0  0  0
  145.0147  131.6586  149.0688 H   0  0  0  0  0  0  0  0  0  0  0  0
  143.9308  131.4234  150.4584 H   0  0  0  0  0  0  0  0  0  0  0  0
  146.8232  133.2953  151.6680 H   0  0  0  0  0  0  0  0  0  0  0  0
  148.8002  140.8820  152.7423 H   0  0  0  0  0  0  0  0  0  0  0  0
  149.0568  141.6952  154.2816 H   0  0  0  0  0  0  0  0  0  0  0  0
  147.4778  141.7251  153.5124 H   0  0  0  0  0  0  0  0  0  0  0  0
  149.6151  138.7288  153.4897 H   0  0  0  0  0  0  0  0  0  0  0  0
  149.1029  138.0059  155.0017 H   0  0  0  0  0  0  0  0  0  0  0  0
  150.0600  139.4740  155.0149 H   0  0  0  0  0  0  0  0  0  0  0  0
  1  2  1  0  0  0  0
  1 20  1  0  0  0  0
  1 21  1  0  0  0  0
  1 22  1  0  0  0  0
  2  3  1  0  0  0  0
  3 17  1  0  0  0  0
  3  4  1  0  0  0  0
  3  5  1  0  0  0  0
  4 23  1  0  0  0  0
  4 24  1  0  0  0  0
  4 25  1  0  0  0  0
  5  6  1  0  0  0  0
  5 26  1  0  0  0  0
  5 27  1  0  0  0  0
  6  7  1  0  0  0  0
  6 17  1  0  0  0  0
  6 28  1  0  0  0  0
  7  8  1  0  0  0  0
  7 29  1  0  0  0  0
  8  9  2  0  0  0  0
  8 10  1  0  0  0  0
 10 11  1  0  0  0  0
 10 30  1  0  0  0  0
 11 16  2  0  0  0  0
 11 12  1  0  0  0  0
 12 13  2  0  0  0  0
 12 31  1  0  0  0  0
 13 14  1  0  0  0  0
 14 15  1  0  0  0  0
 14 16  1  0  0  0  0
 15 32  1  0  0  0  0
 15 33  1  0  0  0  0
 15 34  1  0  0  0  0
 16 35  1  0  0  0  0
 17 18  1  0  0  0  0
 17 19  1  0  0  0  0
 18 36  1  0  0  0  0
 18 37  1  0  0  0  0
 18 38  1  0  0  0  0
 19 39  1  0  0  0  0
 19 40  1  0  0  0  0
 19 41  1  0  0  0  0
M  END
> <s_m_source_file>
AV-unprocessed.smi

> <i_m_source_file_index>
682

> <i_lp_mmshare_version>
43012

> <i_f3d_flags>
0

> <s_epik_input>
W0NIM11PW0NAQF0xKFtDSDNdKVtDSDJdW0NASF0oQzEoW0NIM10pW0NIM10pW05IXUMoPU8pW05IXWMyW2NIXW5uKFtDSDNdKVtjSF0y

> <s_epik_cmdline>
J2VwaWtfcHl0aG9uJywgJy1waCcsICc3LjAnLCAnLXRuJywgJzgnLCAnLW1hJywgJzIwMCcsICctbWV0YWxfYmluZGluZycsICctaW1hZScsICc8aW5maWxlLm1hZT4nLCAnLW9tYWUnLCAnPG91dGZpbGUubWFlPic=

> <r_lp_tautomer_probability>
1

> <r_epik_Ionization_Penalty>
0.000192302

> <r_epik_Ionization_Penalty_Charging>
0

> <r_epik_Ionization_Penalty_Neutral>
0.000192302

> <r_epik_State_Penalty>
-0

> <r_epik_Charging_Adjusted_Penalty>
0

> <i_epik_Tot_Q>
0

> <i_epik_Tot_abs_Q>
0

> <r_epik_Metal_State_Penalty>
-0

> <b_epik_Metal_Only>
0

> <s_lp_Force_Field>
OPLS_2005

> <r_lp_Energy>
23.9348

> <b_lp_Chiralities_Consistent>
1

> <s_lp_Variant>
AV-unprocessed.smi:682-4

> <Gold.Version>
5.8.1

> <Gold.Id.Protein>
6NUR|6NUR_protein|mol2

> <Gold.PLP.Fitness>
31.8809

> <Gold.PLP.PLP>
-24.6908

> <Gold.PLP.part.hbond>
-2.0000

> <Gold.PLP.part.metal>
0.0000

> <Gold.PLP.part.buried>
-4.3726

> <Gold.PLP.part.nonpolar>
-19.9722

> <Gold.PLP.part.repulsive>
0.5007

> <Gold.PLP.ligand.clash>
0.0000

> <Gold.PLP.ligand.torsion>
0.5851

> <Gold.PLP.Chemscore.Hbond>
1.6630

> <Gold.PLP.Chemscore.CHOScore>
1.0000

> <Gold.PLP.Chemscore.Metal>
0.0000

> <Gold.Chemscore.Hbonds>
donor molecule, donor type, donor heavy atom, donor atom, acceptor molecule, acceptor atom, score
      L1  H     7    29       P1  7948  0.65
      L1  H    10    30       P1  7948  1.00
      L1  C    12    31       P1 10171  1.00

> <Gold.PLP.Chemscore.Internal.Correction>
0.3713

> <Gold.Rescore>
     Score         DG    S(hbond)    S(metal)    S(lipo)     H(rot)  DE(clash)    DE(int)     intcor
     13.95     -15.51       1.88        0.00      59.14       1.23       0.96       0.60       ----

> <Gold.Chemscore.Fitness>
13.9493

> <Gold.Chemscore.DG>
-15.5105

> <Gold.Chemscore.ZeroCoef>
-5.4800

> <Gold.Chemscore.Hbond>
1.8768

> <Gold.Chemscore.Metal>
0.0000

> <Gold.Chemscore.Lipo>
59.1448

> <Gold.Chemscore.Internal_Hbond>
0.0000

> <Gold.Chemscore.DEClash>
0.9646

> <Gold.Chemscore.DEInternal>
0.5966

> <Gold.Chemscore.Rot>
1.2336

> <Gold.Chemscore.Internal.Correction>
   9.000000E+99

> <Gold.Chemscore.Hbonds>
donor molecule, donor type, donor heavy atom, donor atom, acceptor molecule, acceptor atom, score
      L1  H     7    29       P1  7948  0.63
      L1  H    10    30       P1  7948  0.93

> <Gold.Chemscore.Hbond.Weighted>
-6.2687

> <Gold.Chemscore.Metal.Weighted>
-0.0000

> <Gold.Chemscore.Lipo.Weighted>
-6.9199

> <Gold.Chemscore.Internal_Hbond.Weighted>
0.0000

> <Gold.Chemscore.DEClash.Weighted>
0.9646

> <Gold.Chemscore.DEInternal.Weighted>
0.5966

> <Gold.Chemscore.Rot.Weighted>
3.1581

> <Gold.Chemscore.Internal.Correction.Weighted>
   9.000000E+99

> <Gold.Protein.RotatedTorsions>
[ 6907 6896 6895 6894 ] final -141.52 input  -60.11 | X-H torsion
[ 7974 7965 7964 7962 ] final  -44.98 input  175.53 | X-H torsion
[ 8008 7997 7996 7995 ] final  -79.99 input   59.86 | X-H torsion
[ 10167 10162 10161 10158 ] final  -39.27 input  -65.29 | X-H torsion
[ 10718 10713 10712 10709 ] final -145.15 input   66.30 | X-H torsion
[ 10763 10752 10751 10750 ] final   72.31 input  -60.55 | X-H torsion
[ 11005 11000 10999 10996 ] final  -25.64 input  -57.11 | X-H torsion

> <Gold.Protein.ActiveResidues>
 VAL166  LYS551  ARG553  GLY616  TRP617  ASP618  TYR619  PRO620  LYS621  CYS622 
 ASP623  PHE694  ASN695  SER759  ASP760  ASP761  ALA762  ILE779  LEU786  VAL792 
 PHE793  MET794  SER795  GLU796  ALA797  LYS798  CYS799  TRP800  GLU811  SER814 

> <Gold.Protein.RotatedAtoms>
  151.0749  133.5436  159.2624 H   0  0  0  0  0  0  0  0  0  0  0  0  # atno 6907 bound_to 6896
  151.2361  135.0571  159.9016 H   0  0  0  0  0  0  0  0  0  0  0  0  # atno 6908 bound_to 6896
  152.5416  134.0531  159.8172 H   0  0  0  0  0  0  0  0  0  0  0  0  # atno 6909 bound_to 6896
  145.9866  140.7226  142.9337 H   0  0  0  0  0  0  0  0  0  0  0  0  # atno 7974 bound_to 7965
  154.5839  140.0670  156.9144 H   0  0  0  0  0  0  0  0  0  0  0  0  # atno 8008 bound_to 7997
  155.2413  140.3345  155.4273 H   0  0  0  0  0  0  0  0  0  0  0  0  # atno 8009 bound_to 7997
  156.2209  140.1798  156.7464 H   0  0  0  0  0  0  0  0  0  0  0  0  # atno 8010 bound_to 7997
  140.7069  143.3225  151.2758 H   0  0  0  0  0  0  0  0  0  0  0  0  # atno 10167 bound_to 10162
  156.3789  130.7826  151.2016 H   0  0  0  0  0  0  0  0  0  0  0  0  # atno 10718 bound_to 10713
  153.0451  135.5104  154.7724 H   0  0  0  0  0  0  0  0  0  0  0  0  # atno 10763 bound_to 10752
  154.6631  135.2941  154.9843 H   0  0  0  0  0  0  0  0  0  0  0  0  # atno 10764 bound_to 10752
  154.0687  135.6680  153.4874 H   0  0  0  0  0  0  0  0  0  0  0  0  # atno 10765 bound_to 10752
  140.8956  133.7558  156.0477 H   0  0  0  0  0  0  0  0  0  0  0  0  # atno 11005 bound_to 11000
  144.6876  140.2998  143.7265 LP  0  0  0  0  0  0  0  0  0  0  0  0  # atno 17320 bound_to 7965
  145.7692  139.1851  143.2222 LP  0  0  0  0  0  0  0  0  0  0  0  0  # atno 17321 bound_to 7965
  139.6683  144.0065  152.2737 LP  0  0  0  0  0  0  0  0  0  0  0  0  # atno 17342 bound_to 10162
  139.9656  144.6529  150.8038 LP  0  0  0  0  0  0  0  0  0  0  0  0  # atno 17343 bound_to 10162
  157.7490  131.0350  150.4343 LP  0  0  0  0  0  0  0  0  0  0  0  0  # atno 17370 bound_to 10713
  156.4583  130.4026  149.6592 LP  0  0  0  0  0  0  0  0  0  0  0  0  # atno 17371 bound_to 10713
  140.8293  134.3197  157.5354 LP  0  0  0  0  0  0  0  0  0  0  0  0  # atno 17394 bound_to 11000
  139.8735  134.9354  156.3632 LP  0  0  0  0  0  0  0  0  0  0  0  0  # atno 17395 bound_to 11000

$$$$
