AV-unprocessed.smi:177|AV-procd|sdf|1443|dock10
  -GOLD-   2262019233D 1   1.00000     0.00000
 Structure written by MMmdl.
 61 65  0  0  0  0  0  0  0  0  1 V2000
  151.1377  139.1239  154.7266 C   0  0  0  0  0  0  0  0  0  0  0  0
  151.6748  139.6434  155.9335 O   0  0  0  0  0  0  0  0  0  0  0  0
  150.7356  139.7830  156.9952 C   0  0  2  0  0  0  0  0  0  0  0  0
  149.7947  140.9496  156.6405 C   0  0  0  0  0  0  0  0  0  0  0  0
  150.5220  142.3051  156.6670 C   0  0  0  0  0  0  0  0  0  0  0  0
  151.2173  142.5345  158.0177 C   0  0  2  0  0  0  0  0  0  0  0  0
  151.9251  143.7693  157.9738 O   0  0  0  0  0  0  0  0  0  0  0  0
  152.5311  144.0784  159.2244 C   0  0  0  0  0  0  0  0  0  0  0  0
  153.5455  142.9826  159.5889 C   0  0  0  0  0  0  0  0  0  0  0  0
  152.9029  141.6732  159.5860 N   0  0  0  0  0  0  0  0  0  0  0  0
  153.7385  140.7205  160.0594 C   0  0  0  0  0  0  0  0  0  0  0  0
  154.0208  139.6878  159.2277 N   0  0  0  0  0  0  0  0  0  0  0  0
  154.8496  138.7176  159.6238 C   0  0  0  0  0  0  0  0  0  0  0  0
  155.4848  138.5869  160.7901 N   0  0  0  0  0  0  0  0  0  0  0  0
  155.1878  139.6132  161.6382 C   0  0  0  0  0  0  0  0  0  0  0  0
  154.3305  140.7142  161.3557 C   0  0  0  0  0  0  0  0  0  0  0  0
  154.2728  141.5603  162.4560 N   0  0  0  0  0  0  0  0  0  0  0  0
  155.0615  141.0014  163.3312 C   0  0  0  0  0  0  0  0  0  0  0  0
  155.6386  139.8165  162.9323 N   0  0  0  0  0  0  0  0  0  0  0  0
  156.5551  138.9919  163.7087 C   0  0  0  0  0  0  0  0  0  0  0  0
  155.9338  138.3200  164.9753 C   0  0  0  0  0  0  0  0  0  0  0  0
  155.5904  139.3873  166.0480 C   0  0  0  0  0  0  0  0  0  0  0  0
  156.7258  140.1295  166.4468 O   0  0  0  0  0  0  0  0  0  0  0  0
  154.6494  137.5417  164.5931 C   0  0  0  0  0  0  0  0  0  0  0  0
  154.9406  136.2577  163.7927 C   0  0  0  0  0  0  0  0  0  0  0  0
  155.8358  135.4211  164.5141 O   0  0  0  0  0  0  0  0  0  0  0  0
  157.0936  136.0369  164.7585 C   0  0  0  0  0  0  0  0  0  0  0  0
  156.8958  137.2929  165.6253 C   0  0  0  0  0  0  0  0  0  0  0  0
  152.2042  141.3866  158.3299 C   0  0  1  0  0  0  0  0  0  0  0  0
  151.4375  140.0430  158.3454 C   0  0  0  0  0  0  0  0  0  0  0  0
  151.9137  139.1188  153.9615 H   0  0  0  0  0  0  0  0  0  0  0  0
  150.3144  139.7387  154.3614 H   0  0  0  0  0  0  0  0  0  0  0  0
  150.7870  138.0987  154.8412 H   0  0  0  0  0  0  0  0  0  0  0  0
  150.1374  138.8728  157.0627 H   0  0  0  0  0  0  0  0  0  0  0  0
  149.3477  140.7849  155.6597 H   0  0  0  0  0  0  0  0  0  0  0  0
  148.9688  140.9739  157.3525 H   0  0  0  0  0  0  0  0  0  0  0  0
  151.2584  142.3421  155.8632 H   0  0  0  0  0  0  0  0  0  0  0  0
  149.8120  143.1095  156.4727 H   0  0  0  0  0  0  0  0  0  0  0  0
  150.4549  142.5915  158.7974 H   0  0  0  0  0  0  0  0  0  0  0  0
  153.0311  145.0439  159.1479 H   0  0  0  0  0  0  0  0  0  0  0  0
  151.7681  144.1748  159.9983 H   0  0  0  0  0  0  0  0  0  0  0  0
  154.3681  142.9845  158.8718 H   0  0  0  0  0  0  0  0  0  0  0  0
  153.9743  143.1897  160.5706 H   0  0  0  0  0  0  0  0  0  0  0  0
  155.0307  137.9341  158.9029 H   0  0  0  0  0  0  0  0  0  0  0  0
  155.2381  141.4398  164.3023 H   0  0  0  0  0  0  0  0  0  0  0  0
  156.9687  138.2320  163.0446 H   0  0  0  0  0  0  0  0  0  0  0  0
  157.4012  139.6227  163.9768 H   0  0  0  0  0  0  0  0  0  0  0  0
  154.8524  140.0935  165.6658 H   0  0  0  0  0  0  0  0  0  0  0  0
  155.1428  138.9278  166.9294 H   0  0  0  0  0  0  0  0  0  0  0  0
  157.4417  139.9205  165.8663 H   0  0  0  0  0  0  0  0  0  0  0  0
  154.1118  137.2602  165.4997 H   0  0  0  0  0  0  0  0  0  0  0  0
  153.9697  138.1787  164.0258 H   0  0  0  0  0  0  0  0  0  0  0  0
  154.0133  135.7092  163.6260 H   0  0  0  0  0  0  0  0  0  0  0  0
  155.3472  136.4810  162.8061 H   0  0  0  0  0  0  0  0  0  0  0  0
  157.7328  135.3241  165.2797 H   0  0  0  0  0  0  0  0  0  0  0  0
  157.5896  136.2701  163.8161 H   0  0  0  0  0  0  0  0  0  0  0  0
  157.8578  137.7450  165.8629 H   0  0  0  0  0  0  0  0  0  0  0  0
  156.4861  136.9702  166.5838 H   0  0  0  0  0  0  0  0  0  0  0  0
  152.9419  141.3610  157.5280 H   0  0  0  0  0  0  0  0  0  0  0  0
  150.6908  140.0640  159.1402 H   0  0  0  0  0  0  0  0  0  0  0  0
  152.0962  139.2106  158.5870 H   0  0  0  0  0  0  0  0  0  0  0  0
  1  2  1  0  0  0  0
  1 31  1  0  0  0  0
  1 32  1  0  0  0  0
  1 33  1  0  0  0  0
  2  3  1  0  0  0  0
  3 30  1  0  0  0  0
  3  4  1  0  0  0  0
  3 34  1  0  0  0  0
  4  5  1  0  0  0  0
  4 35  1  0  0  0  0
  4 36  1  0  0  0  0
  5  6  1  0  0  0  0
  5 37  1  0  0  0  0
  5 38  1  0  0  0  0
  6 29  1  0  0  0  0
  6  7  1  0  0  0  0
  6 39  1  0  0  0  0
  7  8  1  0  0  0  0
  8  9  1  0  0  0  0
  8 40  1  0  0  0  0
  8 41  1  0  0  0  0
  9 10  1  0  0  0  0
  9 42  1  0  0  0  0
  9 43  1  0  0  0  0
 10 11  1  0  0  0  0
 10 29  1  0  0  0  0
 11 16  1  0  0  0  0
 11 12  2  0  0  0  0
 12 13  1  0  0  0  0
 13 14  2  0  0  0  0
 13 44  1  0  0  0  0
 14 15  1  0  0  0  0
 15 19  1  0  0  0  0
 15 16  2  0  0  0  0
 16 17  1  0  0  0  0
 17 18  2  0  0  0  0
 18 19  1  0  0  0  0
 18 45  1  0  0  0  0
 19 20  1  0  0  0  0
 20 21  1  0  0  0  0
 20 46  1  0  0  0  0
 20 47  1  0  0  0  0
 21 28  1  0  0  0  0
 21 22  1  0  0  0  0
 21 24  1  0  0  0  0
 22 23  1  0  0  0  0
 22 48  1  0  0  0  0
 22 49  1  0  0  0  0
 23 50  1  0  0  0  0
 24 25  1  0  0  0  0
 24 51  1  0  0  0  0
 24 52  1  0  0  0  0
 25 26  1  0  0  0  0
 25 53  1  0  0  0  0
 25 54  1  0  0  0  0
 26 27  1  0  0  0  0
 27 28  1  0  0  0  0
 27 55  1  0  0  0  0
 27 56  1  0  0  0  0
 28 57  1  0  0  0  0
 28 58  1  0  0  0  0
 29 30  1  0  0  0  0
 29 59  1  0  0  0  0
 30 60  1  0  0  0  0
 30 61  1  0  0  0  0
M  END
> <s_m_source_file>
AV-unprocessed.smi

> <i_m_source_file_index>
177

> <i_lp_mmshare_version>
43012

> <i_f3d_flags>
0

> <s_epik_input>
W0NIM11PW0NASF0oW0NIMl1bQ0gyXTEpW0NIMl1bQ0BIXShbQ0BASF0xMilOKFtDSDJdW0NIMl1PMiljKG5bY0hdbjMpYyhjMzQpbltjSF1uNFtDSDJdQzUoW0NIMl1bT0hdKVtDSDJdW0NIMl1PW0NIMl1bQ0gyXTU=

> <s_epik_cmdline>
J2VwaWtfcHl0aG9uJywgJy1waCcsICc3LjAnLCAnLXRuJywgJzgnLCAnLW1hJywgJzIwMCcsICctbWV0YWxfYmluZGluZycsICctaW1hZScsICc8aW5maWxlLm1hZT4nLCAnLW9tYWUnLCAnPG91dGZpbGUubWFlPic=

> <r_lp_tautomer_probability>
1

> <r_epik_Ionization_Penalty>
0.0065899

> <r_epik_Ionization_Penalty_Charging>
0

> <r_epik_Ionization_Penalty_Neutral>
0.0065899

> <r_epik_State_Penalty>
0.00470042

> <r_epik_Charging_Adjusted_Penalty>
0.00470042

> <i_epik_Tot_Q>
0

> <i_epik_Tot_abs_Q>
0

> <r_epik_Metal_State_Penalty>
-0

> <b_epik_Metal_Only>
0

> <s_lp_Force_Field>
OPLS_2005

> <r_lp_Energy>
42.7066

> <b_lp_Chiralities_Consistent>
1

> <s_lp_Variant>
AV-unprocessed.smi:177-7

> <Gold.Version>
5.8.1

> <Gold.Id.Protein>
6NUR|6NUR_protein|mol2

> <Gold.PLP.Fitness>
45.0856

> <Gold.PLP.PLP>
-45.4674

> <Gold.PLP.part.hbond>
-1.6042

> <Gold.PLP.part.metal>
0.0000

> <Gold.PLP.part.buried>
-4.4945

> <Gold.PLP.part.nonpolar>
-39.7953

> <Gold.PLP.part.repulsive>
0.1546

> <Gold.PLP.ligand.clash>
0.0000

> <Gold.PLP.ligand.torsion>
0.2714

> <Gold.PLP.Chemscore.Hbond>
0.0000

> <Gold.PLP.Chemscore.CHOScore>
0.0000

> <Gold.PLP.Chemscore.Metal>
0.0000

> <Gold.PLP.Chemscore.Internal.Correction>
0.1610

> <Gold.Rescore>
     Score         DG    S(hbond)    S(metal)    S(lipo)     H(rot)  DE(clash)    DE(int)     intcor
      9.77     -12.62       0.00        0.00     117.51       2.58       1.23       1.62       ----

> <Gold.Chemscore.Fitness>
9.7677

> <Gold.Chemscore.DG>
-12.6221

> <Gold.Chemscore.ZeroCoef>
-5.4800

> <Gold.Chemscore.Hbond>
0.0000

> <Gold.Chemscore.Metal>
0.0000

> <Gold.Chemscore.Lipo>
117.5070

> <Gold.Chemscore.Internal_Hbond>
0.0000

> <Gold.Chemscore.DEClash>
1.2301

> <Gold.Chemscore.DEInternal>
1.6242

> <Gold.Chemscore.Rot>
2.5806

> <Gold.Chemscore.Internal.Correction>
   9.000000E+99

> <Gold.Chemscore.Hbond.Weighted>
-0.0000

> <Gold.Chemscore.Metal.Weighted>
-0.0000

> <Gold.Chemscore.Lipo.Weighted>
-13.7483

> <Gold.Chemscore.Internal_Hbond.Weighted>
0.0000

> <Gold.Chemscore.DEClash.Weighted>
1.2301

> <Gold.Chemscore.DEInternal.Weighted>
1.6242

> <Gold.Chemscore.Rot.Weighted>
6.6062

> <Gold.Chemscore.Internal.Correction.Weighted>
   9.000000E+99

> <Gold.Protein.RotatedTorsions>
[ 6907 6896 6895 6894 ] final -111.06 input  -60.11 | X-H torsion
[ 7974 7965 7964 7962 ] final  175.63 input  175.53 | X-H torsion
[ 8008 7997 7996 7995 ] final   73.00 input   59.86 | X-H torsion
[ 10167 10162 10161 10158 ] final   91.72 input  -65.29 | X-H torsion
[ 10718 10713 10712 10709 ] final   -8.87 input   66.30 | X-H torsion
[ 10763 10752 10751 10750 ] final   19.41 input  -60.55 | X-H torsion
[ 11005 11000 10999 10996 ] final   -6.71 input  -57.11 | X-H torsion

> <Gold.Protein.ActiveResidues>
 VAL166  LYS551  ARG553  GLY616  TRP617  ASP618  TYR619  PRO620  LYS621  CYS622 
 ASP623  PHE694  ASN695  SER759  ASP760  ASP761  ALA762  ILE779  LEU786  VAL792 
 PHE793  MET794  SER795  GLU796  ALA797  LYS798  CYS799  TRP800  GLU811  SER814 

> <Gold.Protein.RotatedAtoms>
  150.7665  133.9291  159.3421 H   0  0  0  0  0  0  0  0  0  0  0  0  # atno 6907 bound_to 6896
  151.7187  135.0896  160.0290 H   0  0  0  0  0  0  0  0  0  0  0  0  # atno 6908 bound_to 6896
  152.3663  133.6323  159.6089 H   0  0  0  0  0  0  0  0  0  0  0  0  # atno 6909 bound_to 6896
  144.7198  139.9976  143.6440 H   0  0  0  0  0  0  0  0  0  0  0  0  # atno 7974 bound_to 7965
  155.7772  140.3483  155.5278 H   0  0  0  0  0  0  0  0  0  0  0  0  # atno 8008 bound_to 7997
  155.8764  140.0995  157.1536 H   0  0  0  0  0  0  0  0  0  0  0  0  # atno 8009 bound_to 7997
  154.4021  140.1330  156.4129 H   0  0  0  0  0  0  0  0  0  0  0  0  # atno 8010 bound_to 7997
  139.8346  144.6670  150.9357 H   0  0  0  0  0  0  0  0  0  0  0  0  # atno 10167 bound_to 10162
  156.6963  130.5080  149.5929 H   0  0  0  0  0  0  0  0  0  0  0  0  # atno 10718 bound_to 10713
  153.1164  135.6709  153.9410 H   0  0  0  0  0  0  0  0  0  0  0  0  # atno 10763 bound_to 10752
  153.8939  135.3044  155.3449 H   0  0  0  0  0  0  0  0  0  0  0  0  # atno 10764 bound_to 10752
  154.7580  135.5002  153.9489 H   0  0  0  0  0  0  0  0  0  0  0  0  # atno 10765 bound_to 10752
  140.7049  133.8958  155.8709 H   0  0  0  0  0  0  0  0  0  0  0  0  # atno 11005 bound_to 11000
  146.0361  139.3379  143.0725 LP  0  0  0  0  0  0  0  0  0  0  0  0  # atno 17320 bound_to 7965
  145.8392  140.9589  143.0808 LP  0  0  0  0  0  0  0  0  0  0  0  0  # atno 17321 bound_to 7965
  140.7804  143.3968  151.1215 LP  0  0  0  0  0  0  0  0  0  0  0  0  # atno 17342 bound_to 10162
  139.7619  143.8622  152.3102 LP  0  0  0  0  0  0  0  0  0  0  0  0  # atno 17343 bound_to 10162
  156.1761  130.6469  151.0896 LP  0  0  0  0  0  0  0  0  0  0  0  0  # atno 17370 bound_to 10713
  157.6990  131.0783  150.6880 LP  0  0  0  0  0  0  0  0  0  0  0  0  # atno 17371 bound_to 10713
  141.0133  134.0991  157.4199 LP  0  0  0  0  0  0  0  0  0  0  0  0  # atno 17394 bound_to 11000
  139.8887  135.0099  156.6634 LP  0  0  0  0  0  0  0  0  0  0  0  0  # atno 17395 bound_to 11000

$$$$
