AV-unprocessed.smi:2224|AV-procd|sdf|8992|dock10
  -GOLD-   2272012203D 1   1.00000     0.00000
 Structure written by MMmdl.
 44 46  0  0  0  0  0  0  0  0  1 V2000
  144.7745  132.3309  150.0224 C   0  0  0  0  0  0  0  0  0  0  0  0
  144.5013  133.3952  151.0644 C   0  0  0  0  0  0  0  0  0  0  0  0
  143.2112  133.5661  151.6016 C   0  0  0  0  0  0  0  0  0  0  0  0
  143.0216  134.5734  152.5678 C   0  0  0  0  0  0  0  0  0  0  0  0
  141.6598  134.8135  153.1851 C   0  0  0  0  0  0  0  0  0  0  0  0
  144.0167  135.3787  152.9977 N   0  0  0  0  0  0  0  0  0  0  0  0
  145.2637  135.2230  152.4878 C   0  0  0  0  0  0  0  0  0  0  0  0
  146.3764  136.0181  152.8714 N   0  0  0  0  0  0  0  0  0  0  0  0
  146.5031  136.8005  153.9577 C   0  0  0  0  0  0  0  0  0  0  0  0
  145.6520  136.9457  154.8359 O   0  0  0  0  0  0  0  0  0  0  0  0
  147.6888  137.4249  153.9718 N   0  0  0  0  0  0  0  0  0  0  0  0
  148.1240  138.3544  155.0201 C   0  0  1  0  0  0  0  0  0  0  0  0
  149.6373  138.3200  155.2505 C   0  0  1  0  0  0  0  0  0  0  0  0
  150.7439  137.3830  154.9253 C   0  0  0  0  0  0  0  0  0  0  0  0
  151.7849  138.4536  154.4983 C   0  0  0  0  0  0  0  0  0  0  0  0
  151.0575  139.7059  154.4101 O   0  0  0  0  0  0  0  0  0  0  0  0
  149.7342  139.3099  154.1084 C   0  0  2  0  0  0  0  0  0  0  0  0
  148.3562  139.8474  154.5554 C   0  0  0  0  0  0  0  0  0  0  0  0
  147.4636  140.3796  153.4286 C   0  0  0  0  0  0  0  0  0  0  0  0
  148.3464  140.9343  155.6456 C   0  0  0  0  0  0  0  0  0  0  0  0
  145.5395  134.2353  151.5155 C   0  0  0  0  0  0  0  0  0  0  0  0
  143.8568  131.8228  149.7244 H   0  0  0  0  0  0  0  0  0  0  0  0
  145.4649  131.5851  150.4169 H   0  0  0  0  0  0  0  0  0  0  0  0
  145.2205  132.7772  149.1334 H   0  0  0  0  0  0  0  0  0  0  0  0
  142.3891  132.9423  151.2819 H   0  0  0  0  0  0  0  0  0  0  0  0
  140.9655  134.0114  152.9332 H   0  0  0  0  0  0  0  0  0  0  0  0
  141.2424  135.7533  152.8229 H   0  0  0  0  0  0  0  0  0  0  0  0
  141.7360  134.8666  154.2717 H   0  0  0  0  0  0  0  0  0  0  0  0
  147.1628  135.9966  152.2392 H   0  0  0  0  0  0  0  0  0  0  0  0
  148.3336  137.2518  153.2149 H   0  0  0  0  0  0  0  0  0  0  0  0
  147.5541  138.2734  155.9474 H   0  0  0  0  0  0  0  0  0  0  0  0
  149.8448  138.7750  156.2221 H   0  0  0  0  0  0  0  0  0  0  0  0
  151.0713  136.7970  155.7845 H   0  0  0  0  0  0  0  0  0  0  0  0
  150.4891  136.7095  154.1060 H   0  0  0  0  0  0  0  0  0  0  0  0
  152.5913  138.5514  155.2256 H   0  0  0  0  0  0  0  0  0  0  0  0
  152.2279  138.2019  153.5339 H   0  0  0  0  0  0  0  0  0  0  0  0
  149.6926  138.8512  153.1151 H   0  0  0  0  0  0  0  0  0  0  0  0
  147.7687  141.3775  153.1128 H   0  0  0  0  0  0  0  0  0  0  0  0
  146.4204  140.4369  153.7406 H   0  0  0  0  0  0  0  0  0  0  0  0
  147.5012  139.7457  152.5425 H   0  0  0  0  0  0  0  0  0  0  0  0
  148.8361  141.8444  155.2984 H   0  0  0  0  0  0  0  0  0  0  0  0
  148.8511  140.6359  156.5628 H   0  0  0  0  0  0  0  0  0  0  0  0
  147.3277  141.2017  155.9286 H   0  0  0  0  0  0  0  0  0  0  0  0
  146.5373  134.1213  151.1167 H   0  0  0  0  0  0  0  0  0  0  0  0
  1  2  1  0  0  0  0
  1 22  1  0  0  0  0
  1 23  1  0  0  0  0
  1 24  1  0  0  0  0
  2 21  1  0  0  0  0
  2  3  2  0  0  0  0
  3  4  1  0  0  0  0
  3 25  1  0  0  0  0
  4  5  1  0  0  0  0
  4  6  2  0  0  0  0
  5 26  1  0  0  0  0
  5 27  1  0  0  0  0
  5 28  1  0  0  0  0
  6  7  1  0  0  0  0
  7  8  1  0  0  0  0
  7 21  2  0  0  0  0
  8  9  1  0  0  0  0
  8 29  1  0  0  0  0
  9 10  2  0  0  0  0
  9 11  1  0  0  0  0
 11 12  1  0  0  0  0
 11 30  1  0  0  0  0
 12 18  1  0  0  0  0
 12 13  1  0  0  0  0
 12 31  1  0  0  0  0
 13 17  1  0  0  0  0
 13 14  1  0  0  0  0
 13 32  1  0  0  0  0
 14 15  1  0  0  0  0
 14 33  1  0  0  0  0
 14 34  1  0  0  0  0
 15 16  1  0  0  0  0
 15 35  1  0  0  0  0
 15 36  1  0  0  0  0
 16 17  1  0  0  0  0
 17 18  1  0  0  0  0
 17 37  1  0  0  0  0
 18 19  1  0  0  0  0
 18 20  1  0  0  0  0
 19 38  1  0  0  0  0
 19 39  1  0  0  0  0
 19 40  1  0  0  0  0
 20 41  1  0  0  0  0
 20 42  1  0  0  0  0
 20 43  1  0  0  0  0
 21 44  1  0  0  0  0
M  END
> <s_m_source_file>
AV-unprocessed.smi

> <i_m_source_file_index>
2224

> <i_lp_mmshare_version>
43012

> <i_f3d_flags>
0

> <s_epik_input>
W0NIM11jMVtjSF1jKFtDSDNdKW5jKFtjSF0xKVtOSF1DKD1PKVtOSF1bQ0BIXTJDKFtDSDNdKShbQ0gzXSlbQ0BIXShbQ0BASF0yMylPW0NIMl1bQ0gyXTM=

> <s_epik_cmdline>
J2VwaWtfcHl0aG9uJywgJy1waCcsICc3LjAnLCAnLXRuJywgJzgnLCAnLW1hJywgJzIwMCcsICctbWV0YWxfYmluZGluZycsICctaW1hZScsICc8aW5maWxlLm1hZT4nLCAnLW9tYWUnLCAnPG91dGZpbGUubWFlPic=

> <r_lp_tautomer_probability>
1

> <r_epik_Ionization_Penalty>
0.000276544

> <r_epik_Ionization_Penalty_Charging>
0

> <r_epik_Ionization_Penalty_Neutral>
0.000276544

> <r_epik_State_Penalty>
-0

> <r_epik_Charging_Adjusted_Penalty>
0

> <i_epik_Tot_Q>
0

> <i_epik_Tot_abs_Q>
0

> <r_epik_Metal_State_Penalty>
-0

> <b_epik_Metal_Only>
0

> <s_lp_Force_Field>
OPLS_2005

> <r_lp_Energy>
64.3875

> <b_lp_Chiralities_Consistent>
1

> <s_lp_Variant>
AV-unprocessed.smi:2224-2

> <Gold.Version>
5.8.1

> <Gold.Id.Protein>
6NUR|6NUR_protein|mol2

> <Gold.PLP.Fitness>
42.0132

> <Gold.PLP.PLP>
-33.2690

> <Gold.PLP.part.hbond>
-3.0000

> <Gold.PLP.part.metal>
0.0000

> <Gold.PLP.part.buried>
-3.0611

> <Gold.PLP.part.nonpolar>
-26.5138

> <Gold.PLP.part.repulsive>
0.2355

> <Gold.PLP.ligand.clash>
0.0000

> <Gold.PLP.ligand.torsion>
0.2573

> <Gold.PLP.Chemscore.Hbond>
3.0000

> <Gold.PLP.Chemscore.CHOScore>
0.0000

> <Gold.PLP.Chemscore.Metal>
0.0000

> <Gold.Chemscore.Hbonds>
donor molecule, donor type, donor heavy atom, donor atom, acceptor molecule, acceptor atom, score
      L1  H     8    29       P1  7948  1.00
      L1  H    11    30       P1  7948  1.00
      P1  H  7989  7998       L1    16  1.00

> <Gold.PLP.Chemscore.Internal.Correction>
0.2588

> <Gold.Rescore>
     Score         DG    S(hbond)    S(metal)    S(lipo)     H(rot)  DE(clash)    DE(int)     intcor
     20.53     -22.08       2.88        0.00      81.49       1.00       0.05       1.50       ----

> <Gold.Chemscore.Fitness>
20.5310

> <Gold.Chemscore.DG>
-22.0802

> <Gold.Chemscore.ZeroCoef>
-5.4800

> <Gold.Chemscore.Hbond>
2.8820

> <Gold.Chemscore.Metal>
0.0000

> <Gold.Chemscore.Lipo>
81.4890

> <Gold.Chemscore.Internal_Hbond>
0.0000

> <Gold.Chemscore.DEClash>
0.0493

> <Gold.Chemscore.DEInternal>
1.4999

> <Gold.Chemscore.Rot>
1.0000

> <Gold.Chemscore.Internal.Correction>
   9.000000E+99

> <Gold.Chemscore.Hbonds>
donor molecule, donor type, donor heavy atom, donor atom, acceptor molecule, acceptor atom, score
      L1  H     8    29       P1  7948  0.97
      L1  H    11    30       P1  7948  0.96
      P1  H  7989  7998       L1    16  0.85

> <Gold.Chemscore.Hbond.Weighted>
-9.6260

> <Gold.Chemscore.Metal.Weighted>
-0.0000

> <Gold.Chemscore.Lipo.Weighted>
-9.5342

> <Gold.Chemscore.Internal_Hbond.Weighted>
0.0000

> <Gold.Chemscore.DEClash.Weighted>
0.0493

> <Gold.Chemscore.DEInternal.Weighted>
1.4999

> <Gold.Chemscore.Rot.Weighted>
2.5600

> <Gold.Chemscore.Internal.Correction.Weighted>
   9.000000E+99

> <Gold.Protein.RotatedTorsions>
[ 6907 6896 6895 6894 ] final  136.77 input  -60.11 | X-H torsion
[ 7974 7965 7964 7962 ] final -132.74 input  175.53 | X-H torsion
[ 8008 7997 7996 7995 ] final -157.91 input   59.86 | X-H torsion
[ 10167 10162 10161 10158 ] final -126.27 input  -65.29 | X-H torsion
[ 10718 10713 10712 10709 ] final -165.19 input   66.30 | X-H torsion
[ 10763 10752 10751 10750 ] final  125.27 input  -60.55 | X-H torsion
[ 11005 11000 10999 10996 ] final  -39.12 input  -57.11 | X-H torsion

> <Gold.Protein.ActiveResidues>
 VAL166  LYS551  ARG553  GLY616  TRP617  ASP618  TYR619  PRO620  LYS621  CYS622 
 ASP623  PHE694  ASN695  SER759  ASP760  ASP761  ALA762  ILE779  LEU786  VAL792 
 PHE793  MET794  SER795  GLU796  ALA797  LYS798  CYS799  TRP800  GLU811  SER814 

> <Gold.Protein.RotatedAtoms>
  152.2856  133.5512  159.5524 H   0  0  0  0  0  0  0  0  0  0  0  0  # atno 6907 bound_to 6896
  150.7214  134.0502  159.3804 H   0  0  0  0  0  0  0  0  0  0  0  0  # atno 6908 bound_to 6896
  151.8411  135.0590  160.0499 H   0  0  0  0  0  0  0  0  0  0  0  0  # atno 6909 bound_to 6896
  144.9258  140.7069  143.4937 H   0  0  0  0  0  0  0  0  0  0  0  0  # atno 7974 bound_to 7965
  155.7396  140.0812  157.2252 H   0  0  0  0  0  0  0  0  0  0  0  0  # atno 8008 bound_to 7997
  154.4023  140.1580  156.2656 H   0  0  0  0  0  0  0  0  0  0  0  0  # atno 8009 bound_to 7997
  155.9033  140.3408  155.6045 H   0  0  0  0  0  0  0  0  0  0  0  0  # atno 8010 bound_to 7997
  139.9733  143.5822  152.2405 H   0  0  0  0  0  0  0  0  0  0  0  0  # atno 10167 bound_to 10162
  156.6498  130.9003  151.3011 H   0  0  0  0  0  0  0  0  0  0  0  0  # atno 10718 bound_to 10713
  153.6746  135.3324  155.3162 H   0  0  0  0  0  0  0  0  0  0  0  0  # atno 10763 bound_to 10752
  154.8482  135.4394  154.1670 H   0  0  0  0  0  0  0  0  0  0  0  0  # atno 10764 bound_to 10752
  153.2670  135.6996  153.7596 H   0  0  0  0  0  0  0  0  0  0  0  0  # atno 10765 bound_to 10752
  141.0078  133.6923  156.2144 H   0  0  0  0  0  0  0  0  0  0  0  0  # atno 11005 bound_to 11000
  145.3222  139.1785  143.4581 LP  0  0  0  0  0  0  0  0  0  0  0  0  # atno 17320 bound_to 7965
  146.3225  140.3241  142.8635 LP  0  0  0  0  0  0  0  0  0  0  0  0  # atno 17321 bound_to 7965
  139.6465  144.7658  151.2234 LP  0  0  0  0  0  0  0  0  0  0  0  0  # atno 17342 bound_to 10162
  140.7514  143.6231  150.8494 LP  0  0  0  0  0  0  0  0  0  0  0  0  # atno 17343 bound_to 10162
  157.7144  130.9480  150.1204 LP  0  0  0  0  0  0  0  0  0  0  0  0  # atno 17370 bound_to 10713
  156.2093  130.3665  149.8690 LP  0  0  0  0  0  0  0  0  0  0  0  0  # atno 17371 bound_to 10713
  140.6783  134.4794  157.5588 LP  0  0  0  0  0  0  0  0  0  0  0  0  # atno 17394 bound_to 11000
  139.9073  134.8421  156.1658 LP  0  0  0  0  0  0  0  0  0  0  0  0  # atno 17395 bound_to 11000

$$$$
