AV-unprocessed.smi:565|AV-procd|sdf|2951|dock10
  -GOLD-   2262023453D 1   1.00000     0.00000
 Structure written by MMmdl.
 50 51  0  0  0  0  0  0  0  0  2 V2000
  152.6674  138.6837  154.6865 C   0  0  0  0  0  0  0  0  0  0  0  0
  152.0617  139.5421  155.7602 C   0  0  0  0  0  0  0  0  0  0  0  0
  152.6210  139.5646  156.9583 N   0  0  0  0  0  0  0  0  0  0  0  0
  151.8606  140.4132  157.6781 N   0  0  0  0  0  0  0  0  0  0  0  0
  152.2013  140.6740  159.0632 C   0  0  0  0  0  0  0  0  0  0  0  0
  150.8176  140.9282  156.9335 C   0  0  0  0  0  0  0  0  0  0  0  0
  149.8311  141.8919  157.5107 C   0  0  0  0  0  0  0  0  0  0  0  0
  150.9130  140.3842  155.6799 C   0  0  0  0  0  0  0  0  0  0  0  0
  150.0219  140.6059  154.4831 C   0  0  0  0  0  0  0  0  0  0  0  0
  148.8555  139.6185  154.5236 C   0  0  0  0  0  0  0  0  0  0  0  0
  148.4539  139.1812  155.6016 O   0  0  0  0  0  0  0  0  0  0  0  0
  148.3095  139.2855  153.3438 N   0  0  0  0  0  0  0  0  0  0  0  0
  147.1533  138.4147  153.1756 C   0  0  0  0  0  0  0  0  0  0  0  0
  146.6003  138.4976  151.7396 C   0  0  0  0  0  0  0  0  0  0  0  0
  145.5145  137.5167  151.4886 N   0  3  1  0  0  0  0  0  0  0  0  0
  146.0208  136.2773  150.8435 C   0  0  0  0  0  0  0  0  0  0  0  0
  144.8651  135.3384  150.4632 C   0  0  0  0  0  0  0  0  0  0  0  0
  144.0059  135.0018  151.6882 C   0  0  0  0  0  0  0  0  0  0  0  0
  143.5126  136.2921  152.3639 C   0  0  1  0  0  0  0  0  0  0  0  0
  142.6704  135.9853  153.6104 C   0  0  0  0  0  0  0  0  0  0  0  0
  144.7058  137.2097  152.6994 C   0  0  0  0  0  0  0  0  0  0  0  0
  151.9106  138.3370  153.9830 H   0  0  0  0  0  0  0  0  0  0  0  0
  153.1522  137.8010  155.1051 H   0  0  0  0  0  0  0  0  0  0  0  0
  153.4165  139.2384  154.1215 H   0  0  0  0  0  0  0  0  0  0  0  0
  151.3610  140.4070  159.7044 H   0  0  0  0  0  0  0  0  0  0  0  0
  152.4260  141.7329  159.1918 H   0  0  0  0  0  0  0  0  0  0  0  0
  153.0721  140.0895  159.3634 H   0  0  0  0  0  0  0  0  0  0  0  0
  149.0413  142.1280  156.7980 H   0  0  0  0  0  0  0  0  0  0  0  0
  150.3209  142.8255  157.7883 H   0  0  0  0  0  0  0  0  0  0  0  0
  149.3602  141.4776  158.4023 H   0  0  0  0  0  0  0  0  0  0  0  0
  149.6291  141.6227  154.4522 H   0  0  0  0  0  0  0  0  0  0  0  0
  150.5721  140.4702  153.5513 H   0  0  0  0  0  0  0  0  0  0  0  0
  148.7064  139.6894  152.5077 H   0  0  0  0  0  0  0  0  0  0  0  0
  147.4763  137.4020  153.4126 H   0  0  0  0  0  0  0  0  0  0  0  0
  146.3801  138.6730  153.9011 H   0  0  0  0  0  0  0  0  0  0  0  0
  146.2086  139.5037  151.5827 H   0  0  0  0  0  0  0  0  0  0  0  0
  147.3984  138.3628  151.0079 H   0  0  0  0  0  0  0  0  0  0  0  0
  146.5830  136.5304  149.9436 H   0  0  0  0  0  0  0  0  0  0  0  0
  146.7128  135.7706  151.5183 H   0  0  0  0  0  0  0  0  0  0  0  0
  144.2462  135.8090  149.6981 H   0  0  0  0  0  0  0  0  0  0  0  0
  145.2592  134.4224  150.0217 H   0  0  0  0  0  0  0  0  0  0  0  0
  143.1590  134.3833  151.3887 H   0  0  0  0  0  0  0  0  0  0  0  0
  144.5899  134.4098  152.3945 H   0  0  0  0  0  0  0  0  0  0  0  0
  142.8705  136.8198  151.6570 H   0  0  0  0  0  0  0  0  0  0  0  0
  143.2546  135.4575  154.3650 H   0  0  0  0  0  0  0  0  0  0  0  0
  141.8112  135.3623  153.3594 H   0  0  0  0  0  0  0  0  0  0  0  0
  142.2907  136.9013  154.0637 H   0  0  0  0  0  0  0  0  0  0  0  0
  145.3425  136.7415  153.4521 H   0  0  0  0  0  0  0  0  0  0  0  0
  144.3261  138.1311  153.1392 H   0  0  0  0  0  0  0  0  0  0  0  0
  144.8923  137.9461  150.8186 H   0  0  0  0  0  0  0  0  0  0  0  0
  1  2  1  0  0  0  0
  1 22  1  0  0  0  0
  1 23  1  0  0  0  0
  1 24  1  0  0  0  0
  2  8  1  0  0  0  0
  2  3  2  0  0  0  0
  3  4  1  0  0  0  0
  4  5  1  0  0  0  0
  4  6  1  0  0  0  0
  5 25  1  0  0  0  0
  5 26  1  0  0  0  0
  5 27  1  0  0  0  0
  6  7  1  0  0  0  0
  6  8  2  0  0  0  0
  7 28  1  0  0  0  0
  7 29  1  0  0  0  0
  7 30  1  0  0  0  0
  8  9  1  0  0  0  0
  9 10  1  0  0  0  0
  9 31  1  0  0  0  0
  9 32  1  0  0  0  0
 10 11  2  0  0  0  0
 10 12  1  0  0  0  0
 12 13  1  0  0  0  0
 12 33  1  0  0  0  0
 13 14  1  0  0  0  0
 13 34  1  0  0  0  0
 13 35  1  0  0  0  0
 14 15  1  0  0  0  0
 14 36  1  0  0  0  0
 14 37  1  0  0  0  0
 15 21  1  0  0  0  0
 15 16  1  0  0  0  0
 15 50  1  0  0  0  0
 16 17  1  0  0  0  0
 16 38  1  0  0  0  0
 16 39  1  0  0  0  0
 17 18  1  0  0  0  0
 17 40  1  0  0  0  0
 17 41  1  0  0  0  0
 18 19  1  0  0  0  0
 18 42  1  0  0  0  0
 18 43  1  0  0  0  0
 19 20  1  0  0  0  0
 19 21  1  0  0  0  0
 19 44  1  0  0  0  0
 20 45  1  0  0  0  0
 20 46  1  0  0  0  0
 20 47  1  0  0  0  0
 21 48  1  0  0  0  0
 21 49  1  0  0  0  0
M  CHG  1  15   1
M  END
> <s_m_source_file>
AV-unprocessed.smi

> <i_m_source_file_index>
565

> <i_lp_mmshare_version>
43012

> <i_f3d_flags>
0

> <s_epik_input>
W0NIM11jMW5uKFtDSDNdKWMoW0NIM10pYzFbQ0gyXUMoPU8pW05IXVtDSDJdW0NIMl1OMltDSDJdW0NIMl1bQ0gyXVtDQEBIXShbQ0gzXSlbQ0gyXTI=

> <s_epik_cmdline>
J2VwaWtfcHl0aG9uJywgJy1waCcsICc3LjAnLCAnLXRuJywgJzgnLCAnLW1hJywgJzIwMCcsICctbWV0YWxfYmluZGluZycsICctaW1hZScsICc8aW5maWxlLm1hZT4nLCAnLW9tYWUnLCAnPG91dGZpbGUubWFlPic=

> <r_lp_tautomer_probability>
1

> <r_epik_Ionization_Penalty>
0.00411138

> <r_epik_Ionization_Penalty_Charging>
0.0019503

> <r_epik_Ionization_Penalty_Neutral>
0.00216107

> <r_epik_State_Penalty>
-0

> <r_epik_Charging_Adjusted_Penalty>
0.0019503

> <i_epik_Tot_Q>
1

> <i_epik_Tot_abs_Q>
1

> <r_epik_Metal_State_Penalty>
-0

> <b_epik_Metal_Only>
0

> <s_lp_Force_Field>
OPLS_2005

> <r_lp_Energy>
10.3148

> <b_lp_Chiralities_Consistent>
1

> <s_lp_Variant>
AV-unprocessed.smi:565-1

> <Gold.Version>
5.8.1

> <Gold.Id.Protein>
6NUR|6NUR_protein|mol2

> <Gold.PLP.Fitness>
47.5980

> <Gold.PLP.PLP>
-41.0634

> <Gold.PLP.part.hbond>
-3.0000

> <Gold.PLP.part.metal>
0.0000

> <Gold.PLP.part.buried>
-1.8933

> <Gold.PLP.part.nonpolar>
-37.3593

> <Gold.PLP.part.repulsive>
0.1371

> <Gold.PLP.ligand.clash>
0.0000

> <Gold.PLP.ligand.torsion>
1.2465

> <Gold.PLP.Chemscore.Hbond>
3.0000

> <Gold.PLP.Chemscore.CHOScore>
0.0000

> <Gold.PLP.Chemscore.Metal>
0.0000

> <Gold.Chemscore.Hbonds>
donor molecule, donor type, donor heavy atom, donor atom, acceptor molecule, acceptor atom, score
      L1  H    12    33       P1  7957  1.00
      L1  H    15    50       P1 10171  1.00
      P1  H  7997  8009       L1     3  1.00

> <Gold.PLP.Chemscore.Internal.Correction>
0.0277

> <Gold.Rescore>
     Score         DG    S(hbond)    S(metal)    S(lipo)     H(rot)  DE(clash)    DE(int)     intcor
     19.24     -21.85       2.87        0.00      93.43       1.61       1.50       1.11       ----

> <Gold.Chemscore.Fitness>
19.2355

> <Gold.Chemscore.DG>
-21.8512

> <Gold.Chemscore.ZeroCoef>
-5.4800

> <Gold.Chemscore.Hbond>
2.8661

> <Gold.Chemscore.Metal>
0.0000

> <Gold.Chemscore.Lipo>
93.4252

> <Gold.Chemscore.Internal_Hbond>
0.0000

> <Gold.Chemscore.DEClash>
1.5013

> <Gold.Chemscore.DEInternal>
1.1144

> <Gold.Chemscore.Rot>
1.6142

> <Gold.Chemscore.Internal.Correction>
   9.000000E+99

> <Gold.Chemscore.Hbonds>
donor molecule, donor type, donor heavy atom, donor atom, acceptor molecule, acceptor atom, score
      L1  H    12    33       P1  7957  1.00
      L1  H    15    50       P1 10171  0.97
      P1  H  7997  8009       L1     3  0.29

> <Gold.Chemscore.Hbond.Weighted>
-9.5728

> <Gold.Chemscore.Metal.Weighted>
-0.0000

> <Gold.Chemscore.Lipo.Weighted>
-10.9307

> <Gold.Chemscore.Internal_Hbond.Weighted>
0.0000

> <Gold.Chemscore.DEClash.Weighted>
1.5013

> <Gold.Chemscore.DEInternal.Weighted>
1.1144

> <Gold.Chemscore.Rot.Weighted>
4.1324

> <Gold.Chemscore.Internal.Correction.Weighted>
   9.000000E+99

> <Gold.Protein.RotatedTorsions>
[ 6907 6896 6895 6894 ] final   53.17 input  -60.11 | X-H torsion
[ 7974 7965 7964 7962 ] final -159.44 input  175.53 | X-H torsion
[ 8008 7997 7996 7995 ] final -172.67 input   59.86 | X-H torsion
[ 10167 10162 10161 10158 ] final  -49.99 input  -65.29 | X-H torsion
[ 10718 10713 10712 10709 ] final   63.72 input   66.30 | X-H torsion
[ 10763 10752 10751 10750 ] final -139.82 input  -60.55 | X-H torsion
[ 11005 11000 10999 10996 ] final -168.11 input  -57.11 | X-H torsion

> <Gold.Protein.ActiveResidues>
 VAL166  LYS551  ARG553  GLY616  TRP617  ASP618  TYR619  PRO620  LYS621  CYS622 
 ASP623  PHE694  ASN695  SER759  ASP760  ASP761  ALA762  ILE779  LEU786  VAL792 
 PHE793  MET794  SER795  GLU796  ALA797  LYS798  CYS799  TRP800  GLU811  SER814 

> <Gold.Protein.RotatedAtoms>
  152.3309  134.7260  160.0289 H   0  0  0  0  0  0  0  0  0  0  0  0  # atno 6907 bound_to 6896
  151.7677  133.3333  159.3443 H   0  0  0  0  0  0  0  0  0  0  0  0  # atno 6908 bound_to 6896
  150.7423  134.5979  159.6066 H   0  0  0  0  0  0  0  0  0  0  0  0  # atno 6909 bound_to 6896
  144.7465  140.3685  143.6081 H   0  0  0  0  0  0  0  0  0  0  0  0  # atno 7974 bound_to 7965
  155.9476  140.1120  157.1004 H   0  0  0  0  0  0  0  0  0  0  0  0  # atno 8008 bound_to 7997
  154.4102  140.1207  156.5076 H   0  0  0  0  0  0  0  0  0  0  0  0  # atno 8009 bound_to 7997
  155.6883  140.3473  155.4885 H   0  0  0  0  0  0  0  0  0  0  0  0  # atno 8010 bound_to 7997
  140.6659  143.2675  151.4294 H   0  0  0  0  0  0  0  0  0  0  0  0  # atno 10167 bound_to 10162
  157.5991  130.9121  149.9752 H   0  0  0  0  0  0  0  0  0  0  0  0  # atno 10718 bound_to 10713
  154.8598  135.3571  154.5608 H   0  0  0  0  0  0  0  0  0  0  0  0  # atno 10763 bound_to 10752
  153.6223  135.7005  153.5310 H   0  0  0  0  0  0  0  0  0  0  0  0  # atno 10764 bound_to 10752
  153.3118  135.4176  155.1302 H   0  0  0  0  0  0  0  0  0  0  0  0  # atno 10765 bound_to 10752
  140.5456  134.5479  157.5110 H   0  0  0  0  0  0  0  0  0  0  0  0  # atno 11005 bound_to 11000
  145.7102  139.1683  143.2543 LP  0  0  0  0  0  0  0  0  0  0  0  0  # atno 17320 bound_to 7965
  146.1352  140.7132  142.9393 LP  0  0  0  0  0  0  0  0  0  0  0  0  # atno 17321 bound_to 7965
  139.5908  144.1504  152.2085 LP  0  0  0  0  0  0  0  0  0  0  0  0  # atno 17342 bound_to 10162
  140.0858  144.5663  150.7090 LP  0  0  0  0  0  0  0  0  0  0  0  0  # atno 17343 bound_to 10162
  156.1059  130.3652  150.0134 LP  0  0  0  0  0  0  0  0  0  0  0  0  # atno 17370 bound_to 10713
  156.8241  130.9369  151.3640 LP  0  0  0  0  0  0  0  0  0  0  0  0  # atno 17371 bound_to 10713
  139.9481  134.7665  156.0513 LP  0  0  0  0  0  0  0  0  0  0  0  0  # atno 17394 bound_to 11000
  141.1201  133.6615  156.3194 LP  0  0  0  0  0  0  0  0  0  0  0  0  # atno 17395 bound_to 11000

$$$$
