AV-unprocessed.smi:1746|AV-procd|sdf|7034|dock9
  -GOLD-   22720 8253D 1   1.00000     0.00000
 Structure written by MMmdl.
 35 36  0  0  0  0  0  0  0  0  1 V2000
  152.5895  143.1187  161.8686 C   0  0  0  0  0  0  0  0  0  0  0  0
  153.4186  142.5397  160.7158 C   0  0  0  0  0  0  0  0  0  0  0  0
  152.5866  142.1761  159.5855 N   0  0  0  0  0  0  0  0  0  0  0  0
  151.6983  142.9719  158.8898 C   0  0  0  0  0  0  0  0  0  0  0  0
  151.1680  142.1711  157.9180 C   0  0  0  0  0  0  0  0  0  0  0  0
  150.2064  142.4811  156.9232 N   0  0  0  0  0  0  0  0  0  0  0  0
  149.7135  141.6583  155.9830 C   0  0  0  0  0  0  0  0  0  0  0  0
  150.0270  140.4760  155.8419 O   0  0  0  0  0  0  0  0  0  0  0  0
  148.8246  142.2868  155.2015 N   0  0  0  0  0  0  0  0  0  0  0  0
  148.1189  141.6751  154.0811 C   0  0  0  0  0  0  0  0  0  0  0  0
  146.6002  141.8972  154.1782 C   0  0  1  0  0  0  0  0  0  0  0  0
  146.0105  141.5272  155.5366 C   0  0  0  0  0  0  0  0  0  0  0  0
  144.7403  142.3465  155.5450 C   0  0  0  0  0  0  0  0  0  0  0  0
  145.1889  143.6347  154.8589 C   0  0  0  0  0  0  0  0  0  0  0  0
  146.2810  143.2765  154.0144 O   0  0  0  0  0  0  0  0  0  0  0  0
  151.7803  140.9020  158.0854 C   0  0  0  0  0  0  0  0  0  0  0  0
  152.6369  140.9127  159.0955 N   0  0  0  0  0  0  0  0  0  0  0  0
  153.2269  143.3722  162.7156 H   0  0  0  0  0  0  0  0  0  0  0  0
  151.8441  142.4023  162.2154 H   0  0  0  0  0  0  0  0  0  0  0  0
  152.0666  144.0256  161.5631 H   0  0  0  0  0  0  0  0  0  0  0  0
  154.1672  143.2608  160.3846 H   0  0  0  0  0  0  0  0  0  0  0  0
  153.9586  141.6533  161.0505 H   0  0  0  0  0  0  0  0  0  0  0  0
  151.5343  144.0079  159.1468 H   0  0  0  0  0  0  0  0  0  0  0  0
  149.8591  143.4289  156.9267 H   0  0  0  0  0  0  0  0  0  0  0  0
  148.6294  143.2599  155.3853 H   0  0  0  0  0  0  0  0  0  0  0  0
  148.5005  142.0785  153.1418 H   0  0  0  0  0  0  0  0  0  0  0  0
  148.3424  140.6080  154.0730 H   0  0  0  0  0  0  0  0  0  0  0  0
  146.0773  141.3342  153.4031 H   0  0  0  0  0  0  0  0  0  0  0  0
  145.8303  140.4572  155.6444 H   0  0  0  0  0  0  0  0  0  0  0  0
  146.6684  141.8490  156.3451 H   0  0  0  0  0  0  0  0  0  0  0  0
  143.9734  141.8502  154.9484 H   0  0  0  0  0  0  0  0  0  0  0  0
  144.3406  142.5121  156.5458 H   0  0  0  0  0  0  0  0  0  0  0  0
  144.3834  144.0999  154.2901 H   0  0  0  0  0  0  0  0  0  0  0  0
  145.5443  144.3568  155.5947 H   0  0  0  0  0  0  0  0  0  0  0  0
  151.6361  139.9928  157.5204 H   0  0  0  0  0  0  0  0  0  0  0  0
  1  2  1  0  0  0  0
  1 18  1  0  0  0  0
  1 19  1  0  0  0  0
  1 20  1  0  0  0  0
  2  3  1  0  0  0  0
  2 21  1  0  0  0  0
  2 22  1  0  0  0  0
  3 17  1  0  0  0  0
  3  4  1  0  0  0  0
  4  5  2  0  0  0  0
  4 23  1  0  0  0  0
  5  6  1  0  0  0  0
  5 16  1  0  0  0  0
  6  7  1  0  0  0  0
  6 24  1  0  0  0  0
  7  8  2  0  0  0  0
  7  9  1  0  0  0  0
  9 10  1  0  0  0  0
  9 25  1  0  0  0  0
 10 11  1  0  0  0  0
 10 26  1  0  0  0  0
 10 27  1  0  0  0  0
 11 15  1  0  0  0  0
 11 12  1  0  0  0  0
 11 28  1  0  0  0  0
 12 13  1  0  0  0  0
 12 29  1  0  0  0  0
 12 30  1  0  0  0  0
 13 14  1  0  0  0  0
 13 31  1  0  0  0  0
 13 32  1  0  0  0  0
 14 15  1  0  0  0  0
 14 33  1  0  0  0  0
 14 34  1  0  0  0  0
 16 17  2  0  0  0  0
 16 35  1  0  0  0  0
M  END
> <s_m_source_file>
AV-unprocessed.smi

> <i_m_source_file_index>
1746

> <i_lp_mmshare_version>
43012

> <i_f3d_flags>
0

> <s_epik_input>
W0NIM11bQ0gyXW4xW2NIXWMoW2NIXW4xKVtOSF1DKD1PKVtOSF1bQ0gyXVtDQEBIXTJbQ0gyXVtDSDJdW0NIMl1PMg==

> <s_epik_cmdline>
J2VwaWtfcHl0aG9uJywgJy1waCcsICc3LjAnLCAnLXRuJywgJzgnLCAnLW1hJywgJzIwMCcsICctbWV0YWxfYmluZGluZycsICctaW1hZScsICc8aW5maWxlLm1hZT4nLCAnLW9tYWUnLCAnPG91dGZpbGUubWFlPic=

> <r_lp_tautomer_probability>
1

> <r_epik_Ionization_Penalty>
0.000176839

> <r_epik_Ionization_Penalty_Charging>
0

> <r_epik_Ionization_Penalty_Neutral>
0.000176839

> <r_epik_State_Penalty>
-0

> <r_epik_Charging_Adjusted_Penalty>
0

> <i_epik_Tot_Q>
0

> <i_epik_Tot_abs_Q>
0

> <r_epik_Metal_State_Penalty>
-0

> <b_epik_Metal_Only>
0

> <s_lp_Force_Field>
OPLS_2005

> <r_lp_Energy>
20.4125

> <b_lp_Chiralities_Consistent>
1

> <s_lp_Variant>
AV-unprocessed.smi:1746-2

> <Gold.Version>
5.8.1

> <Gold.Id.Protein>
6NUR|6NUR_protein|mol2

> <Gold.PLP.Fitness>
41.1230

> <Gold.PLP.PLP>
-35.7101

> <Gold.PLP.part.hbond>
-2.5627

> <Gold.PLP.part.metal>
0.0000

> <Gold.PLP.part.buried>
-4.4664

> <Gold.PLP.part.nonpolar>
-28.9356

> <Gold.PLP.part.repulsive>
0.4924

> <Gold.PLP.ligand.clash>
0.0000

> <Gold.PLP.ligand.torsion>
0.0920

> <Gold.PLP.Chemscore.Hbond>
1.8640

> <Gold.PLP.Chemscore.CHOScore>
0.0000

> <Gold.PLP.Chemscore.Metal>
0.0000

> <Gold.Chemscore.Hbonds>
donor molecule, donor type, donor heavy atom, donor atom, acceptor molecule, acceptor atom, score
      L1  H     6    24       P1  8028  0.75
      L1  H     9    25       P1  8028  0.91

> <Gold.PLP.Chemscore.Internal.Correction>
0.0048

> <Gold.Rescore>
     Score         DG    S(hbond)    S(metal)    S(lipo)     H(rot)  DE(clash)    DE(int)     intcor
     15.38     -17.14       1.90        0.00      76.25       1.41       0.18       1.58       ----

> <Gold.Chemscore.Fitness>
15.3781

> <Gold.Chemscore.DG>
-17.1376

> <Gold.Chemscore.ZeroCoef>
-5.4800

> <Gold.Chemscore.Hbond>
1.8973

> <Gold.Chemscore.Metal>
0.0000

> <Gold.Chemscore.Lipo>
76.2490

> <Gold.Chemscore.Internal_Hbond>
0.0000

> <Gold.Chemscore.DEClash>
0.1837

> <Gold.Chemscore.DEInternal>
1.5758

> <Gold.Chemscore.Rot>
1.4064

> <Gold.Chemscore.Internal.Correction>
   9.000000E+99

> <Gold.Chemscore.Hbonds>
donor molecule, donor type, donor heavy atom, donor atom, acceptor molecule, acceptor atom, score
      L1  H     6    24       P1  8028  0.72
      L1  H     9    25       P1  8028  0.87

> <Gold.Chemscore.Hbond.Weighted>
-6.3369

> <Gold.Chemscore.Metal.Weighted>
-0.0000

> <Gold.Chemscore.Lipo.Weighted>
-8.9211

> <Gold.Chemscore.Internal_Hbond.Weighted>
0.0000

> <Gold.Chemscore.DEClash.Weighted>
0.1837

> <Gold.Chemscore.DEInternal.Weighted>
1.5758

> <Gold.Chemscore.Rot.Weighted>
3.6004

> <Gold.Chemscore.Internal.Correction.Weighted>
   9.000000E+99

> <Gold.Protein.RotatedTorsions>
[ 6907 6896 6895 6894 ] final   -7.36 input  -60.11 | X-H torsion
[ 7974 7965 7964 7962 ] final   34.77 input  175.53 | X-H torsion
[ 8008 7997 7996 7995 ] final -118.11 input   59.86 | X-H torsion
[ 10167 10162 10161 10158 ] final  -91.04 input  -65.29 | X-H torsion
[ 10718 10713 10712 10709 ] final  -29.30 input   66.30 | X-H torsion
[ 10763 10752 10751 10750 ] final -178.49 input  -60.55 | X-H torsion
[ 11005 11000 10999 10996 ] final -111.44 input  -57.11 | X-H torsion

> <Gold.Protein.ActiveResidues>
 VAL166  LYS551  ARG553  GLY616  TRP617  ASP618  TYR619  PRO620  LYS621  CYS622 
 ASP623  PHE694  ASN695  SER759  ASP760  ASP761  ALA762  ILE779  LEU786  VAL792 
 PHE793  MET794  SER795  GLU796  ALA797  LYS798  CYS799  TRP800  GLU811  SER814 

> <Gold.Protein.RotatedAtoms>
  151.4508  135.1029  159.9696 H   0  0  0  0  0  0  0  0  0  0  0  0  # atno 6907 bound_to 6896
  152.4889  133.8442  159.7179 H   0  0  0  0  0  0  0  0  0  0  0  0  # atno 6908 bound_to 6896
  150.9023  133.7043  159.2903 H   0  0  0  0  0  0  0  0  0  0  0  0  # atno 6909 bound_to 6896
  146.1330  139.6227  142.9214 H   0  0  0  0  0  0  0  0  0  0  0  0  # atno 7974 bound_to 7965
  155.0944  140.0395  157.2678 H   0  0  0  0  0  0  0  0  0  0  0  0  # atno 8008 bound_to 7997
  154.6807  140.2632  155.6886 H   0  0  0  0  0  0  0  0  0  0  0  0  # atno 8009 bound_to 7997
  156.2693  140.2779  156.1350 H   0  0  0  0  0  0  0  0  0  0  0  0  # atno 8010 bound_to 7997
  140.3489  143.2902  151.9749 H   0  0  0  0  0  0  0  0  0  0  0  0  # atno 10167 bound_to 10162
  156.4142  130.4414  149.7230 H   0  0  0  0  0  0  0  0  0  0  0  0  # atno 10718 bound_to 10713
  154.5471  135.2810  155.1043 H   0  0  0  0  0  0  0  0  0  0  0  0  # atno 10763 bound_to 10752
  154.2503  135.6340  153.5241 H   0  0  0  0  0  0  0  0  0  0  0  0  # atno 10764 bound_to 10752
  152.9993  135.5581  154.6026 H   0  0  0  0  0  0  0  0  0  0  0  0  # atno 10765 bound_to 10752
  141.0734  133.9342  157.2439 H   0  0  0  0  0  0  0  0  0  0  0  0  # atno 11005 bound_to 11000
  145.5219  141.0431  143.2431 LP  0  0  0  0  0  0  0  0  0  0  0  0  # atno 17320 bound_to 7965
  144.7710  139.6735  143.7195 LP  0  0  0  0  0  0  0  0  0  0  0  0  # atno 17321 bound_to 7965
  139.4829  144.6093  151.7463 LP  0  0  0  0  0  0  0  0  0  0  0  0  # atno 17342 bound_to 10162
  140.5238  144.0838  150.6031 LP  0  0  0  0  0  0  0  0  0  0  0  0  # atno 17343 bound_to 10162
  156.4197  130.7762  151.2779 LP  0  0  0  0  0  0  0  0  0  0  0  0  # atno 17370 bound_to 10713
  157.7507  131.0186  150.3635 LP  0  0  0  0  0  0  0  0  0  0  0  0  # atno 17371 bound_to 10713
  139.9546  135.0168  156.9093 LP  0  0  0  0  0  0  0  0  0  0  0  0  # atno 17394 bound_to 11000
  140.5625  134.0521  155.7403 LP  0  0  0  0  0  0  0  0  0  0  0  0  # atno 17395 bound_to 11000

$$$$
