AV-unprocessed.smi:2655|AV-procd|sdf|10301|dock6
  -GOLD-   2272014313D 1   1.00000     0.00000
 Structure written by MMmdl.
 32 33  0  0  0  0  0  0  0  0  3 V2000
  151.0674  139.1857  154.6431 C   0  0  0  0  0  0  0  0  0  0  0  0
  150.6973  140.2089  155.6776 C   0  0  0  0  0  0  0  0  0  0  0  0
  150.1401  141.3500  155.2845 N   0  0  0  0  0  0  0  0  0  0  0  0
  149.9362  142.0302  156.4283 N   0  0  0  0  0  0  0  0  0  0  0  0
  150.3620  141.3250  157.5240 C   0  0  0  0  0  0  0  0  0  0  0  0
  150.2463  141.8295  158.7660 O   0  5  0  0  0  0  0  0  0  0  0  0
  150.8693  140.1322  157.0950 C   0  0  0  0  0  0  0  0  0  0  0  0
  151.4618  139.0069  157.9007 C   0  0  0  0  0  0  0  0  0  0  0  0
  150.5746  137.7521  157.8547 C   0  0  0  0  0  0  0  0  0  0  0  0
  149.5118  137.8050  158.8533 N   0  0  0  0  0  0  0  0  0  0  0  0
  149.0038  136.7587  159.5202 C   0  0  0  0  0  0  0  0  0  0  0  0
  149.4435  135.6251  159.3145 O   0  0  0  0  0  0  0  0  0  0  0  0
  148.0143  137.0905  160.3826 N   0  5  0  0  0  0  0  0  0  0  0  0
  147.3403  136.1319  161.0365 C   0  0  0  0  0  0  0  0  0  0  0  0
  147.1465  134.7959  160.5906 C   0  0  0  0  0  0  0  0  0  0  0  0
  146.3993  134.2386  161.5890 C   0  0  0  0  0  0  0  0  0  0  0  0
  145.8386  132.8723  161.7903 C   0  0  0  0  0  0  0  0  0  0  0  0
  146.1468  135.1583  162.5590 O   0  0  0  0  0  0  0  0  0  0  0  0
  146.7472  136.3695  162.1946 N   0  0  0  0  0  0  0  0  0  0  0  0
  151.1131  138.1858  155.0744 H   0  0  0  0  0  0  0  0  0  0  0  0
  152.0430  139.4056  154.2100 H   0  0  0  0  0  0  0  0  0  0  0  0
  150.3396  139.1595  153.8320 H   0  0  0  0  0  0  0  0  0  0  0  0
  149.5167  142.9485  156.4425 H   0  0  0  0  0  0  0  0  0  0  0  0
  151.6026  139.3142  158.9375 H   0  0  0  0  0  0  0  0  0  0  0  0
  152.4573  138.7589  157.5311 H   0  0  0  0  0  0  0  0  0  0  0  0
  150.1524  137.6161  156.8576 H   0  0  0  0  0  0  0  0  0  0  0  0
  151.1758  136.8660  158.0596 H   0  0  0  0  0  0  0  0  0  0  0  0
  149.1225  138.7143  159.0538 H   0  0  0  0  0  0  0  0  0  0  0  0
  147.5031  134.3238  159.6875 H   0  0  0  0  0  0  0  0  0  0  0  0
  145.1027  132.6410  161.0202 H   0  0  0  0  0  0  0  0  0  0  0  0
  145.3499  132.7862  162.7610 H   0  0  0  0  0  0  0  0  0  0  0  0
  146.6270  132.1214  161.7416 H   0  0  0  0  0  0  0  0  0  0  0  0
  1 20  1  0  0  0  0
  1 21  1  0  0  0  0
  1 22  1  0  0  0  0
  1  2  1  0  0  0  0
  2  7  1  0  0  0  0
  2  3  2  0  0  0  0
  3  4  1  0  0  0  0
  4 23  1  0  0  0  0
  4  5  1  0  0  0  0
  5  7  2  0  0  0  0
  5  6  1  0  0  0  0
  7  8  1  0  0  0  0
  8  9  1  0  0  0  0
  8 24  1  0  0  0  0
  8 25  1  0  0  0  0
  9 10  1  0  0  0  0
  9 26  1  0  0  0  0
  9 27  1  0  0  0  0
 10 11  1  0  0  0  0
 10 28  1  0  0  0  0
 11 12  2  0  0  0  0
 11 13  1  0  0  0  0
 13 14  1  0  0  0  0
 14 19  2  0  0  0  0
 14 15  1  0  0  0  0
 15 16  2  0  0  0  0
 15 29  1  0  0  0  0
 16 17  1  0  0  0  0
 16 18  1  0  0  0  0
 17 30  1  0  0  0  0
 17 31  1  0  0  0  0
 17 32  1  0  0  0  0
 18 19  1  0  0  0  0
M  CHG  1   6  -1
M  CHG  1  13  -1
M  END
> <s_m_source_file>
AV-unprocessed.smi

> <i_m_source_file_index>
2655

> <i_lp_mmshare_version>
43012

> <i_f3d_flags>
0

> <s_epik_input>
W0NIM11DMT1OW05IXUMoPU8pW0NASF0xW0NIMl1bQ0gyXVtOSF1DKD1PKVtOSF1jMltjSF1jKFtDSDNdKW9uMg==

> <s_epik_cmdline>
J2VwaWtfcHl0aG9uJywgJy1waCcsICc3LjAnLCAnLXRuJywgJzgnLCAnLW1hJywgJzIwMCcsICctbWV0YWxfYmluZGluZycsICctaW1hZScsICc8aW5maWxlLm1hZT4nLCAnLW9tYWUnLCAnPG91dGZpbGUubWFlPic=

> <r_lp_tautomer_probability>
0.99495

> <r_epik_Ionization_Penalty>
8.09923

> <r_epik_Ionization_Penalty_Charging>
6.55729

> <r_epik_Ionization_Penalty_Neutral>
1.54195

> <r_epik_State_Penalty>
6.87174

> <r_epik_Charging_Adjusted_Penalty>
13.429

> <i_epik_Tot_Q>
-2

> <i_epik_Tot_abs_Q>
2

> <r_epik_Metal_State_Penalty>
4.19188

> <b_epik_Metal_Only>
1

> <s_lp_Force_Field>
OPLS_2005

> <r_lp_Energy>
-4.19881

> <b_lp_Chiralities_Consistent>
1

> <s_lp_Variant>
AV-unprocessed.smi:2655-4

> <Gold.Version>
5.8.1

> <Gold.Id.Protein>
6NUR|6NUR_protein|mol2

> <Gold.PLP.Fitness>
40.8319

> <Gold.PLP.PLP>
-27.4111

> <Gold.PLP.part.hbond>
-5.0000

> <Gold.PLP.part.metal>
0.0000

> <Gold.PLP.part.buried>
-3.6616

> <Gold.PLP.part.nonpolar>
-19.8272

> <Gold.PLP.part.repulsive>
0.4593

> <Gold.PLP.ligand.clash>
0.0000

> <Gold.PLP.ligand.torsion>
0.5162

> <Gold.PLP.Chemscore.Hbond>
4.8015

> <Gold.PLP.Chemscore.CHOScore>
0.0000

> <Gold.PLP.Chemscore.Metal>
0.0000

> <Gold.Chemscore.Hbonds>
donor molecule, donor type, donor heavy atom, donor atom, acceptor molecule, acceptor atom, score
      L1  H     4    23       P1  8028  0.99
      P1  H  6896  6907       L1    12  1.00
      P1  H  6931  6943       L1    13  1.02
      P1  H  6934  6947       L1    13  1.02

> <Gold.PLP.Chemscore.Internal.Correction>
0.0486

> <Gold.Rescore>
     Score         DG    S(hbond)    S(metal)    S(lipo)     H(rot)  DE(clash)    DE(int)     intcor
     13.45     -15.43       2.71        0.00      47.52       1.82       0.01       1.97       ----

> <Gold.Chemscore.Fitness>
13.4519

> <Gold.Chemscore.DG>
-15.4303

> <Gold.Chemscore.ZeroCoef>
-5.4800

> <Gold.Chemscore.Hbond>
2.7106

> <Gold.Chemscore.Metal>
0.0000

> <Gold.Chemscore.Lipo>
47.5197

> <Gold.Chemscore.Internal_Hbond>
0.0000

> <Gold.Chemscore.DEClash>
0.0073

> <Gold.Chemscore.DEInternal>
1.9711

> <Gold.Chemscore.Rot>
1.8215

> <Gold.Chemscore.Internal.Correction>
   9.000000E+99

> <Gold.Chemscore.Hbonds>
donor molecule, donor type, donor heavy atom, donor atom, acceptor molecule, acceptor atom, score
      L1  H     4    23       P1  8028  0.91
      P1  H  6896  6907       L1    12  0.99
      P1  H  6931  6943       L1    13  0.12
      P1  H  6934  6947       L1    13  0.36

> <Gold.Chemscore.Hbond.Weighted>
-9.0535

> <Gold.Chemscore.Metal.Weighted>
-0.0000

> <Gold.Chemscore.Lipo.Weighted>
-5.5598

> <Gold.Chemscore.Internal_Hbond.Weighted>
0.0000

> <Gold.Chemscore.DEClash.Weighted>
0.0073

> <Gold.Chemscore.DEInternal.Weighted>
1.9711

> <Gold.Chemscore.Rot.Weighted>
4.6631

> <Gold.Chemscore.Internal.Correction.Weighted>
   9.000000E+99

> <Gold.Protein.RotatedTorsions>
[ 6907 6896 6895 6894 ] final  -53.94 input  -60.11 | X-H torsion
[ 7974 7965 7964 7962 ] final  165.06 input  175.53 | X-H torsion
[ 8008 7997 7996 7995 ] final  -59.53 input   59.86 | X-H torsion
[ 10167 10162 10161 10158 ] final -102.37 input  -65.29 | X-H torsion
[ 10718 10713 10712 10709 ] final    8.72 input   66.30 | X-H torsion
[ 10763 10752 10751 10750 ] final  -72.26 input  -60.55 | X-H torsion
[ 11005 11000 10999 10996 ] final  -46.34 input  -57.11 | X-H torsion

> <Gold.Protein.ActiveResidues>
 VAL166  LYS551  ARG553  GLY616  TRP617  ASP618  TYR619  PRO620  LYS621  CYS622 
 ASP623  PHE694  ASN695  SER759  ASP760  ASP761  ALA762  ILE779  LEU786  VAL792 
 PHE793  MET794  SER795  GLU796  ALA797  LYS798  CYS799  TRP800  GLU811  SER814 

> <Gold.Protein.RotatedAtoms>
  150.8381  134.7663  159.6909 H   0  0  0  0  0  0  0  0  0  0  0  0  # atno 6907 bound_to 6896
  152.4474  134.5462  159.9863 H   0  0  0  0  0  0  0  0  0  0  0  0  # atno 6908 bound_to 6896
  151.5608  133.3366  159.3006 H   0  0  0  0  0  0  0  0  0  0  0  0  # atno 6909 bound_to 6896
  144.7518  139.8416  143.6363 H   0  0  0  0  0  0  0  0  0  0  0  0  # atno 7974 bound_to 7965
  154.4356  140.1060  156.6130 H   0  0  0  0  0  0  0  0  0  0  0  0  # atno 8008 bound_to 7997
  155.5789  140.3490  155.4516 H   0  0  0  0  0  0  0  0  0  0  0  0  # atno 8009 bound_to 7997
  156.0333  140.1265  157.0224 H   0  0  0  0  0  0  0  0  0  0  0  0  # atno 8010 bound_to 7997
  140.2314  143.3604  152.0883 H   0  0  0  0  0  0  0  0  0  0  0  0  # atno 10167 bound_to 10162
  156.9558  130.5914  149.5659 H   0  0  0  0  0  0  0  0  0  0  0  0  # atno 10718 bound_to 10713
  154.4432  135.5935  153.6143 H   0  0  0  0  0  0  0  0  0  0  0  0  # atno 10763 bound_to 10752
  152.9807  135.6003  154.3696 H   0  0  0  0  0  0  0  0  0  0  0  0  # atno 10764 bound_to 10752
  154.3548  135.2841  155.2331 H   0  0  0  0  0  0  0  0  0  0  0  0  # atno 10765 bound_to 10752
  141.0573  133.6721  156.3141 H   0  0  0  0  0  0  0  0  0  0  0  0  # atno 11005 bound_to 11000
  146.1479  139.4553  143.0067 LP  0  0  0  0  0  0  0  0  0  0  0  0  # atno 17320 bound_to 7965
  145.6916  141.0162  143.1552 LP  0  0  0  0  0  0  0  0  0  0  0  0  # atno 17321 bound_to 7965
  139.5109  144.6891  151.5807 LP  0  0  0  0  0  0  0  0  0  0  0  0  # atno 17342 bound_to 10162
  140.6182  143.9308  150.6505 LP  0  0  0  0  0  0  0  0  0  0  0  0  # atno 17343 bound_to 10162
  156.0343  130.5432  150.8614 LP  0  0  0  0  0  0  0  0  0  0  0  0  # atno 17370 bound_to 10713
  157.5691  131.0946  150.9445 LP  0  0  0  0  0  0  0  0  0  0  0  0  # atno 17371 bound_to 10713
  140.5939  134.5622  157.5505 LP  0  0  0  0  0  0  0  0  0  0  0  0  # atno 17394 bound_to 11000
  139.9401  134.7803  156.0701 LP  0  0  0  0  0  0  0  0  0  0  0  0  # atno 17395 bound_to 11000

$$$$
