AV-unprocessed.smi:1209|AV-procd|sdf|5074|dock10
  -GOLD-   22720 4123D 1   1.00000     0.00000
 Structure written by MMmdl.
 49 51  0  0  0  0  0  0  0  0  2 V2000
  144.5394  134.7436  150.5159 C   0  0  0  0  0  0  0  0  0  0  0  0
  145.1159  135.8331  151.3536 C   0  0  0  0  0  0  0  0  0  0  0  0
  145.9224  136.8988  151.0716 C   0  0  0  0  0  0  0  0  0  0  0  0
  146.0904  137.5355  152.3320 C   0  0  0  0  0  0  0  0  0  0  0  0
  146.8831  138.7730  152.6513 C   0  0  0  0  0  0  0  0  0  0  0  0
  148.0241  138.4705  153.5539 N   0  3  2  0  0  0  0  0  0  0  0  0
  147.5855  137.9981  154.8887 C   0  0  0  0  0  0  0  0  0  0  0  0
  149.0007  139.5854  153.6532 C   0  0  0  0  0  0  0  0  0  0  0  0
  148.5953  140.6252  154.7165 C   0  0  2  0  0  0  0  0  0  0  0  0
  147.4984  141.3724  154.2272 O   0  0  0  0  0  0  0  0  0  0  0  0
  149.7531  141.5841  155.0527 C   0  0  0  0  0  0  0  0  0  0  0  0
  150.6637  141.0235  156.0346 N   0  0  0  0  0  0  0  0  0  0  0  0
  151.1554  139.7699  156.0714 C   0  0  0  0  0  0  0  0  0  0  0  0
  151.9863  139.4717  157.0661 N   0  0  0  0  0  0  0  0  0  0  0  0
  152.0331  140.6685  157.7604 C   0  0  0  0  0  0  0  0  0  0  0  0
  152.7423  141.0255  158.9280 C   0  0  0  0  0  0  0  0  0  0  0  0
  152.6406  142.3276  159.4679 C   0  0  0  0  0  0  0  0  0  0  0  0
  153.4236  142.6696  160.7231 C   0  0  0  0  0  0  0  0  0  0  0  0
  151.8159  143.2955  158.8398 C   0  0  0  0  0  0  0  0  0  0  0  0
  151.6903  144.7000  159.4025 C   0  0  0  0  0  0  0  0  0  0  0  0
  151.0998  142.9551  157.6734 C   0  0  0  0  0  0  0  0  0  0  0  0
  151.2130  141.6577  157.1434 C   0  0  0  0  0  0  0  0  0  0  0  0
  145.4329  136.9057  153.2917 N   0  0  0  0  0  0  0  0  0  0  0  0
  144.8087  135.8152  152.6761 O   0  0  0  0  0  0  0  0  0  0  0  0
  145.0260  134.7024  149.5412 H   0  0  0  0  0  0  0  0  0  0  0  0
  143.4731  134.9038  150.3558 H   0  0  0  0  0  0  0  0  0  0  0  0
  144.6676  133.7743  150.9980 H   0  0  0  0  0  0  0  0  0  0  0  0
  146.3296  137.1787  150.1113 H   0  0  0  0  0  0  0  0  0  0  0  0
  147.2428  139.2012  151.7168 H   0  0  0  0  0  0  0  0  0  0  0  0
  146.2524  139.5400  153.1046 H   0  0  0  0  0  0  0  0  0  0  0  0
  147.0406  138.7802  155.4193 H   0  0  0  0  0  0  0  0  0  0  0  0
  148.4434  137.7076  155.4960 H   0  0  0  0  0  0  0  0  0  0  0  0
  146.9387  137.1243  154.8101 H   0  0  0  0  0  0  0  0  0  0  0  0
  149.9890  139.1765  153.8693 H   0  0  0  0  0  0  0  0  0  0  0  0
  149.0890  140.0937  152.6913 H   0  0  0  0  0  0  0  0  0  0  0  0
  148.2791  140.1278  155.6327 H   0  0  0  0  0  0  0  0  0  0  0  0
  147.2751  141.0501  153.3665 H   0  0  0  0  0  0  0  0  0  0  0  0
  150.3271  141.8118  154.1537 H   0  0  0  0  0  0  0  0  0  0  0  0
  149.3695  142.5340  155.4281 H   0  0  0  0  0  0  0  0  0  0  0  0
  150.8936  139.0358  155.3231 H   0  0  0  0  0  0  0  0  0  0  0  0
  153.3688  140.2878  159.4074 H   0  0  0  0  0  0  0  0  0  0  0  0
  152.7479  142.9616  161.5274 H   0  0  0  0  0  0  0  0  0  0  0  0
  154.1120  143.4931  160.5318 H   0  0  0  0  0  0  0  0  0  0  0  0
  154.0098  141.8185  161.0711 H   0  0  0  0  0  0  0  0  0  0  0  0
  151.0124  145.3094  158.8041 H   0  0  0  0  0  0  0  0  0  0  0  0
  152.6620  145.1940  159.4147 H   0  0  0  0  0  0  0  0  0  0  0  0
  151.3027  144.6713  160.4210 H   0  0  0  0  0  0  0  0  0  0  0  0
  150.4678  143.6823  157.1859 H   0  0  0  0  0  0  0  0  0  0  0  0
  148.5298  137.7017  153.1365 H   0  0  0  0  0  0  0  0  0  0  0  0
  1  2  1  0  0  0  0
  1 25  1  0  0  0  0
  1 26  1  0  0  0  0
  1 27  1  0  0  0  0
  2 24  1  0  0  0  0
  2  3  2  0  0  0  0
  3  4  1  0  0  0  0
  3 28  1  0  0  0  0
  4  5  1  0  0  0  0
  4 23  2  0  0  0  0
  5  6  1  0  0  0  0
  5 29  1  0  0  0  0
  5 30  1  0  0  0  0
  6  7  1  0  0  0  0
  6  8  1  0  0  0  0
  6 49  1  0  0  0  0
  7 31  1  0  0  0  0
  7 32  1  0  0  0  0
  7 33  1  0  0  0  0
  8  9  1  0  0  0  0
  8 34  1  0  0  0  0
  8 35  1  0  0  0  0
  9 10  1  0  0  0  0
  9 11  1  0  0  0  0
  9 36  1  0  0  0  0
 10 37  1  0  0  0  0
 11 12  1  0  0  0  0
 11 38  1  0  0  0  0
 11 39  1  0  0  0  0
 12 22  1  0  0  0  0
 12 13  1  0  0  0  0
 13 14  2  0  0  0  0
 13 40  1  0  0  0  0
 14 15  1  0  0  0  0
 15 22  2  0  0  0  0
 15 16  1  0  0  0  0
 16 17  2  0  0  0  0
 16 41  1  0  0  0  0
 17 18  1  0  0  0  0
 17 19  1  0  0  0  0
 18 42  1  0  0  0  0
 18 43  1  0  0  0  0
 18 44  1  0  0  0  0
 19 20  1  0  0  0  0
 19 21  2  0  0  0  0
 20 45  1  0  0  0  0
 20 46  1  0  0  0  0
 20 47  1  0  0  0  0
 21 22  1  0  0  0  0
 21 48  1  0  0  0  0
 23 24  1  0  0  0  0
M  CHG  1   6   1
M  END
> <s_m_source_file>
AV-unprocessed.smi

> <i_m_source_file_index>
1209

> <i_lp_mmshare_version>
43012

> <i_f3d_flags>
0

> <s_epik_input>
W0NIM11jMVtjSF1jKG5vMSlbQ0gyXU4oW0NIM10pW0NIMl1bQ0BIXShbT0hdKVtDSDJdbihbY0hdbjIpYyhjMjMpW2NIXWMoW0NIM10pYyhbY0hdMylbQ0gzXQ==

> <s_epik_cmdline>
J2VwaWtfcHl0aG9uJywgJy1waCcsICc3LjAnLCAnLXRuJywgJzgnLCAnLW1hJywgJzIwMCcsICctbWV0YWxfYmluZGluZycsICctaW1hZScsICc8aW5maWxlLm1hZT4nLCAnLW9tYWUnLCAnPG91dGZpbGUubWFlPic=

> <r_epik_Ionization_Penalty>
2.05249

> <r_epik_Ionization_Penalty_Charging>
1.96618

> <r_epik_Ionization_Penalty_Neutral>
0.0863156

> <r_epik_State_Penalty>
2.19215

> <r_epik_Charging_Adjusted_Penalty>
4.15833

> <i_epik_Tot_Q>
1

> <i_epik_Tot_abs_Q>
1

> <r_epik_Metal_State_Penalty>
2.17654

> <b_epik_Metal_Only>
0

> <s_lp_Force_Field>
OPLS_2005

> <r_lp_Energy>
8.61119

> <b_lp_Chiralities_Consistent>
1

> <s_lp_Variant>
AV-unprocessed.smi:1209-6

> <Gold.Version>
5.8.1

> <Gold.Id.Protein>
6NUR|6NUR_protein|mol2

> <Gold.PLP.Fitness>
50.2696

> <Gold.PLP.PLP>
-45.8530

> <Gold.PLP.part.hbond>
-1.4908

> <Gold.PLP.part.metal>
0.0000

> <Gold.PLP.part.buried>
3.6766

> <Gold.PLP.part.nonpolar>
-48.6868

> <Gold.PLP.part.repulsive>
0.3067

> <Gold.PLP.ligand.clash>
0.0000

> <Gold.PLP.ligand.torsion>
0.8241

> <Gold.PLP.Chemscore.Hbond>
2.0000

> <Gold.PLP.Chemscore.CHOScore>
0.0000

> <Gold.PLP.Chemscore.Metal>
0.0000

> <Gold.Chemscore.Hbonds>
donor molecule, donor type, donor heavy atom, donor atom, acceptor molecule, acceptor atom, score
      L1  H     6    49       P1  7948  2.00

> <Gold.PLP.Chemscore.Internal.Correction>
0.0648

> <Gold.Rescore>
     Score         DG    S(hbond)    S(metal)    S(lipo)     H(rot)  DE(clash)    DE(int)     intcor
     13.87     -17.80       0.99        0.00     132.52       2.53       1.82       2.10       ----

> <Gold.Chemscore.Fitness>
13.8679

> <Gold.Chemscore.DG>
-17.7975

> <Gold.Chemscore.ZeroCoef>
-5.4800

> <Gold.Chemscore.Hbond>
0.9875

> <Gold.Chemscore.Metal>
0.0000

> <Gold.Chemscore.Lipo>
132.5155

> <Gold.Chemscore.Internal_Hbond>
0.0000

> <Gold.Chemscore.DEClash>
1.8247

> <Gold.Chemscore.DEInternal>
2.1049

> <Gold.Chemscore.Rot>
2.5332

> <Gold.Chemscore.Internal.Correction>
   9.000000E+99

> <Gold.Chemscore.Hbonds>
donor molecule, donor type, donor heavy atom, donor atom, acceptor molecule, acceptor atom, score
      L1  H     6    49       P1  7948  0.97

> <Gold.Chemscore.Hbond.Weighted>
-3.2983

> <Gold.Chemscore.Metal.Weighted>
-0.0000

> <Gold.Chemscore.Lipo.Weighted>
-15.5043

> <Gold.Chemscore.Internal_Hbond.Weighted>
0.0000

> <Gold.Chemscore.DEClash.Weighted>
1.8247

> <Gold.Chemscore.DEInternal.Weighted>
2.1049

> <Gold.Chemscore.Rot.Weighted>
6.4851

> <Gold.Chemscore.Internal.Correction.Weighted>
   9.000000E+99

> <Gold.Protein.RotatedTorsions>
[ 6907 6896 6895 6894 ] final  144.98 input  -60.11 | X-H torsion
[ 7974 7965 7964 7962 ] final    1.59 input  175.53 | X-H torsion
[ 8008 7997 7996 7995 ] final -127.68 input   59.86 | X-H torsion
[ 10167 10162 10161 10158 ] final    6.73 input  -65.29 | X-H torsion
[ 10718 10713 10712 10709 ] final  143.57 input   66.30 | X-H torsion
[ 10763 10752 10751 10750 ] final -129.80 input  -60.55 | X-H torsion
[ 11005 11000 10999 10996 ] final  150.84 input  -57.11 | X-H torsion

> <Gold.Protein.ActiveResidues>
 VAL166  LYS551  ARG553  GLY616  TRP617  ASP618  TYR619  PRO620  LYS621  CYS622 
 ASP623  PHE694  ASN695  SER759  ASP760  ASP761  ALA762  ILE779  LEU786  VAL792 
 PHE793  MET794  SER795  GLU796  ALA797  LYS798  CYS799  TRP800  GLU811  SER814 

> <Gold.Protein.RotatedAtoms>
  152.1868  133.4745  159.4986 H   0  0  0  0  0  0  0  0  0  0  0  0  # atno 6907 bound_to 6896
  150.6944  134.1764  159.4241 H   0  0  0  0  0  0  0  0  0  0  0  0  # atno 6908 bound_to 6896
  151.9677  135.0092  160.0602 H   0  0  0  0  0  0  0  0  0  0  0  0  # atno 6909 bound_to 6896
  146.2441  140.0965  142.8349 H   0  0  0  0  0  0  0  0  0  0  0  0  # atno 7974 bound_to 7965
  155.2501  140.0432  157.2985 H   0  0  0  0  0  0  0  0  0  0  0  0  # atno 8008 bound_to 7997
  154.5774  140.2391  155.8072 H   0  0  0  0  0  0  0  0  0  0  0  0  # atno 8009 bound_to 7997
  156.2168  140.2982  155.9866 H   0  0  0  0  0  0  0  0  0  0  0  0  # atno 8010 bound_to 7997
  140.6412  143.7770  150.7430 H   0  0  0  0  0  0  0  0  0  0  0  0  # atno 10167 bound_to 10162
  157.3674  131.0974  151.0860 H   0  0  0  0  0  0  0  0  0  0  0  0  # atno 10718 bound_to 10713
  154.8757  135.3883  154.3979 H   0  0  0  0  0  0  0  0  0  0  0  0  # atno 10763 bound_to 10752
  153.4707  135.7030  153.6000 H   0  0  0  0  0  0  0  0  0  0  0  0  # atno 10764 bound_to 10752
  153.4459  135.3845  155.2223 H   0  0  0  0  0  0  0  0  0  0  0  0  # atno 10765 bound_to 10752
  140.1167  134.8890  157.2013 H   0  0  0  0  0  0  0  0  0  0  0  0  # atno 11005 bound_to 11000
  145.0606  140.9084  143.4941 LP  0  0  0  0  0  0  0  0  0  0  0  0  # atno 17320 bound_to 7965
  145.1079  139.2777  143.5652 LP  0  0  0  0  0  0  0  0  0  0  0  0  # atno 17321 bound_to 7965
  140.1402  143.4448  152.2198 LP  0  0  0  0  0  0  0  0  0  0  0  0  # atno 17342 bound_to 10162
  139.5621  144.7412  151.4126 LP  0  0  0  0  0  0  0  0  0  0  0  0  # atno 17343 bound_to 10162
  157.1977  130.6380  149.5727 LP  0  0  0  0  0  0  0  0  0  0  0  0  # atno 17370 bound_to 10713
  155.9749  130.4701  150.6418 LP  0  0  0  0  0  0  0  0  0  0  0  0  # atno 17371 bound_to 10713
  140.3019  134.3121  155.7287 LP  0  0  0  0  0  0  0  0  0  0  0  0  # atno 17394 bound_to 11000
  141.2142  133.7597  156.9653 LP  0  0  0  0  0  0  0  0  0  0  0  0  # atno 17395 bound_to 11000

$$$$
