AV-unprocessed.smi:1543|AV-procd|sdf|6206|dock2
  -GOLD-   22720 6373D 1   1.00000     0.00000
 Structure written by MMmdl.
 48 49  0  0  0  0  0  0  0  0  1 V2000
  150.3910  134.4594  155.9056 C   0  0  0  0  0  0  0  0  0  0  0  0
  150.3467  135.7217  155.0383 C   0  0  1  0  0  0  0  0  0  0  0  0
  149.1044  136.5840  155.3287 C   0  0  0  0  0  0  0  0  0  0  0  0
  149.0972  137.8233  154.5439 N   0  0  0  0  0  0  0  0  0  0  0  0
  147.8603  138.6440  154.6798 C   0  0  0  0  0  0  0  0  0  0  0  0
  147.7521  139.3531  156.0515 C   0  0  0  0  0  0  0  0  0  0  0  0
  147.8019  139.7462  153.5915 C   0  0  0  0  0  0  0  0  0  0  0  0
  146.5738  137.7829  154.5078 C   0  0  0  0  0  0  0  0  0  0  0  0
  146.6969  136.7791  153.4507 N   0  0  0  0  0  0  0  0  0  0  0  0
  145.7063  136.0095  152.9785 C   0  0  0  0  0  0  0  0  0  0  0  0
  144.5490  136.0575  153.3942 O   0  0  0  0  0  0  0  0  0  0  0  0
  146.1468  135.2114  151.9908 N   0  0  0  0  0  0  0  0  0  0  0  0
  145.4270  134.2422  151.2407 C   0  0  0  0  0  0  0  0  0  0  0  0
  145.9996  133.4092  150.2484 C   0  0  0  0  0  0  0  0  0  0  0  0
  145.1700  132.5011  149.5625 C   0  0  0  0  0  0  0  0  0  0  0  0
  143.8002  132.4626  149.8876 C   0  0  0  0  0  0  0  0  0  0  0  0
  143.2390  133.2582  150.8221 N   0  0  0  0  0  0  0  0  0  0  0  0
  144.0402  134.1267  151.4753 C   0  0  0  0  0  0  0  0  0  0  0  0
  150.3483  138.5449  154.8015 C   0  0  0  0  0  0  0  0  0  0  0  0
  151.5903  137.6775  154.5223 C   0  0  1  0  0  0  0  0  0  0  0  0
  152.8935  138.4029  154.8742 C   0  0  0  0  0  0  0  0  0  0  0  0
  151.5169  136.4881  155.3013 O   0  0  0  0  0  0  0  0  0  0  0  0
  149.5180  133.8310  155.7278 H   0  0  0  0  0  0  0  0  0  0  0  0
  150.4131  134.7100  156.9665 H   0  0  0  0  0  0  0  0  0  0  0  0
  151.2784  133.8658  155.6844 H   0  0  0  0  0  0  0  0  0  0  0  0
  150.3467  135.4236  153.9884 H   0  0  0  0  0  0  0  0  0  0  0  0
  148.2250  135.9813  155.1098 H   0  0  0  0  0  0  0  0  0  0  0  0
  149.0733  136.8138  156.3939 H   0  0  0  0  0  0  0  0  0  0  0  0
  146.8397  139.9474  156.1125 H   0  0  0  0  0  0  0  0  0  0  0  0
  148.5820  140.0366  156.2301 H   0  0  0  0  0  0  0  0  0  0  0  0
  147.7210  138.6456  156.8798 H   0  0  0  0  0  0  0  0  0  0  0  0
  146.8260  140.2324  153.5664 H   0  0  0  0  0  0  0  0  0  0  0  0
  147.9880  139.3410  152.5963 H   0  0  0  0  0  0  0  0  0  0  0  0
  148.5302  140.5383  153.7647 H   0  0  0  0  0  0  0  0  0  0  0  0
  146.3283  137.2605  155.4321 H   0  0  0  0  0  0  0  0  0  0  0  0
  145.7108  138.4263  154.3266 H   0  0  0  0  0  0  0  0  0  0  0  0
  147.6112  136.6776  153.0353 H   0  0  0  0  0  0  0  0  0  0  0  0
  147.1069  135.3467  151.7096 H   0  0  0  0  0  0  0  0  0  0  0  0
  147.0457  133.4551  149.9897 H   0  0  0  0  0  0  0  0  0  0  0  0
  145.5742  131.8509  148.8009 H   0  0  0  0  0  0  0  0  0  0  0  0
  143.1368  131.7785  149.3796 H   0  0  0  0  0  0  0  0  0  0  0  0
  143.5560  134.7486  152.2142 H   0  0  0  0  0  0  0  0  0  0  0  0
  150.4183  139.4332  154.1761 H   0  0  0  0  0  0  0  0  0  0  0  0
  150.3795  138.8837  155.8373 H   0  0  0  0  0  0  0  0  0  0  0  0
  151.6155  137.4067  153.4654 H   0  0  0  0  0  0  0  0  0  0  0  0
  153.0031  139.3182  154.2921 H   0  0  0  0  0  0  0  0  0  0  0  0
  153.7583  137.7721  154.6674 H   0  0  0  0  0  0  0  0  0  0  0  0
  152.9226  138.6725  155.9305 H   0  0  0  0  0  0  0  0  0  0  0  0
  1  2  1  0  0  0  0
  1 23  1  0  0  0  0
  1 24  1  0  0  0  0
  1 25  1  0  0  0  0
  2 22  1  0  0  0  0
  2  3  1  0  0  0  0
  2 26  1  0  0  0  0
  3  4  1  0  0  0  0
  3 27  1  0  0  0  0
  3 28  1  0  0  0  0
  4  5  1  0  0  0  0
  4 19  1  0  0  0  0
  5  6  1  0  0  0  0
  5  7  1  0  0  0  0
  5  8  1  0  0  0  0
  6 29  1  0  0  0  0
  6 30  1  0  0  0  0
  6 31  1  0  0  0  0
  7 32  1  0  0  0  0
  7 33  1  0  0  0  0
  7 34  1  0  0  0  0
  8  9  1  0  0  0  0
  8 35  1  0  0  0  0
  8 36  1  0  0  0  0
  9 10  1  0  0  0  0
  9 37  1  0  0  0  0
 10 11  2  0  0  0  0
 10 12  1  0  0  0  0
 12 13  1  0  0  0  0
 12 38  1  0  0  0  0
 13 18  1  0  0  0  0
 13 14  2  0  0  0  0
 14 15  1  0  0  0  0
 14 39  1  0  0  0  0
 15 16  2  0  0  0  0
 15 40  1  0  0  0  0
 16 17  1  0  0  0  0
 16 41  1  0  0  0  0
 17 18  2  0  0  0  0
 18 42  1  0  0  0  0
 19 20  1  0  0  0  0
 19 43  1  0  0  0  0
 19 44  1  0  0  0  0
 20 21  1  0  0  0  0
 20 22  1  0  0  0  0
 20 45  1  0  0  0  0
 21 46  1  0  0  0  0
 21 47  1  0  0  0  0
 21 48  1  0  0  0  0
M  END
> <s_m_source_file>
AV-unprocessed.smi

> <i_m_source_file_index>
1543

> <i_lp_mmshare_version>
43012

> <i_f3d_flags>
0

> <s_epik_input>
W0NIM11bQ0BASF0xW0NIMl1OKFtDSDJdW0NASF0oTzEpW0NIM10pQyhbQ0gzXSkoW0NIM10pW0NIMl1bTkhdQyg9TylbTkhdYzJbY0hdW2NIXVtjSF1uW2NIXTI=

> <s_epik_cmdline>
J2VwaWtfcHl0aG9uJywgJy1waCcsICc3LjAnLCAnLXRuJywgJzgnLCAnLW1hJywgJzIwMCcsICctbWV0YWxfYmluZGluZycsICctaW1hZScsICc8aW5maWxlLm1hZT4nLCAnLW9tYWUnLCAnPG91dGZpbGUubWFlPic=

> <r_epik_Ionization_Penalty>
0.270794

> <r_epik_Ionization_Penalty_Charging>
0

> <r_epik_Ionization_Penalty_Neutral>
0.270794

> <r_epik_State_Penalty>
0.268291

> <r_epik_Charging_Adjusted_Penalty>
0.268291

> <i_epik_Tot_Q>
0

> <i_epik_Tot_abs_Q>
0

> <r_epik_Metal_State_Penalty>
0.264827

> <b_epik_Metal_Only>
0

> <s_lp_Force_Field>
OPLS_2005

> <r_lp_Energy>
43.3582

> <b_lp_Chiralities_Consistent>
1

> <s_lp_Variant>
AV-unprocessed.smi:1543-2

> <Gold.Version>
5.8.1

> <Gold.Id.Protein>
6NUR|6NUR_protein|mol2

> <Gold.PLP.Fitness>
43.9432

> <Gold.PLP.PLP>
-33.8075

> <Gold.PLP.part.hbond>
-3.0000

> <Gold.PLP.part.metal>
0.0000

> <Gold.PLP.part.buried>
-5.7809

> <Gold.PLP.part.nonpolar>
-26.9872

> <Gold.PLP.part.repulsive>
0.7960

> <Gold.PLP.ligand.clash>
0.0000

> <Gold.PLP.ligand.torsion>
0.4367

> <Gold.PLP.Chemscore.Hbond>
2.9913

> <Gold.PLP.Chemscore.CHOScore>
0.6333

> <Gold.PLP.Chemscore.Metal>
0.0000

> <Gold.Chemscore.Hbonds>
donor molecule, donor type, donor heavy atom, donor atom, acceptor molecule, acceptor atom, score
      L1  H     9    37       P1  7948  1.00
      L1  H    12    38       P1  7948  1.00
      P1  H 10752 10765       L1    22  1.00
      L1  C    16    41       P1 10952  0.50

> <Gold.PLP.Chemscore.Internal.Correction>
0.1355

> <Gold.Rescore>
     Score         DG    S(hbond)    S(metal)    S(lipo)     H(rot)  DE(clash)    DE(int)     intcor
     16.99     -18.90       1.99        0.00      89.15       1.43       0.09       1.83       ----

> <Gold.Chemscore.Fitness>
16.9875

> <Gold.Chemscore.DG>
-18.9018

> <Gold.Chemscore.ZeroCoef>
-5.4800

> <Gold.Chemscore.Hbond>
1.9911

> <Gold.Chemscore.Metal>
0.0000

> <Gold.Chemscore.Lipo>
89.1462

> <Gold.Chemscore.Internal_Hbond>
0.0000

> <Gold.Chemscore.DEClash>
0.0865

> <Gold.Chemscore.DEInternal>
1.8277

> <Gold.Chemscore.Rot>
1.4291

> <Gold.Chemscore.Internal.Correction>
   9.000000E+99

> <Gold.Chemscore.Hbonds>
donor molecule, donor type, donor heavy atom, donor atom, acceptor molecule, acceptor atom, score
      L1  H     9    37       P1  7948  1.00
      L1  H    12    38       P1  7948  0.92
      P1  H 10752 10765       L1    22  0.28

> <Gold.Chemscore.Hbond.Weighted>
-6.6502

> <Gold.Chemscore.Metal.Weighted>
-0.0000

> <Gold.Chemscore.Lipo.Weighted>
-10.4301

> <Gold.Chemscore.Internal_Hbond.Weighted>
0.0000

> <Gold.Chemscore.DEClash.Weighted>
0.0865

> <Gold.Chemscore.DEInternal.Weighted>
1.8277

> <Gold.Chemscore.Rot.Weighted>
3.6586

> <Gold.Chemscore.Internal.Correction.Weighted>
   9.000000E+99

> <Gold.Protein.RotatedTorsions>
[ 6907 6896 6895 6894 ] final  -49.93 input  -60.11 | X-H torsion
[ 7974 7965 7964 7962 ] final  -91.23 input  175.53 | X-H torsion
[ 8008 7997 7996 7995 ] final  130.75 input   59.86 | X-H torsion
[ 10167 10162 10161 10158 ] final   97.00 input  -65.29 | X-H torsion
[ 10718 10713 10712 10709 ] final  -29.29 input   66.30 | X-H torsion
[ 10763 10752 10751 10750 ] final -170.16 input  -60.55 | X-H torsion
[ 11005 11000 10999 10996 ] final -172.50 input  -57.11 | X-H torsion

> <Gold.Protein.ActiveResidues>
 VAL166  LYS551  ARG553  GLY616  TRP617  ASP618  TYR619  PRO620  LYS621  CYS622 
 ASP623  PHE694  ASN695  SER759  ASP760  ASP761  ALA762  ILE779  LEU786  VAL792 
 PHE793  MET794  SER795  GLU796  ALA797  LYS798  CYS799  TRP800  GLU811  SER814 

> <Gold.Protein.RotatedAtoms>
  150.8756  134.8139  159.7187 H   0  0  0  0  0  0  0  0  0  0  0  0  # atno 6907 bound_to 6896
  152.4744  134.4876  159.9695 H   0  0  0  0  0  0  0  0  0  0  0  0  # atno 6908 bound_to 6896
  151.4958  133.3476  159.2896 H   0  0  0  0  0  0  0  0  0  0  0  0  # atno 6909 bound_to 6896
  145.4160  140.9548  143.2208 H   0  0  0  0  0  0  0  0  0  0  0  0  # atno 7974 bound_to 7965
  156.2959  140.2588  156.2813 H   0  0  0  0  0  0  0  0  0  0  0  0  # atno 8008 bound_to 7997
  154.9599  140.0393  157.2203 H   0  0  0  0  0  0  0  0  0  0  0  0  # atno 8009 bound_to 7997
  154.7957  140.2819  155.5963 H   0  0  0  0  0  0  0  0  0  0  0  0  # atno 8010 bound_to 7997
  139.7842  144.6877  150.9981 H   0  0  0  0  0  0  0  0  0  0  0  0  # atno 10167 bound_to 10162
  156.4144  130.4414  149.7229 H   0  0  0  0  0  0  0  0  0  0  0  0  # atno 10718 bound_to 10713
  154.6446  135.2903  155.0062 H   0  0  0  0  0  0  0  0  0  0  0  0  # atno 10763 bound_to 10752
  154.1177  135.6553  153.4901 H   0  0  0  0  0  0  0  0  0  0  0  0  # atno 10764 bound_to 10752
  153.0344  135.5280  154.7327 H   0  0  0  0  0  0  0  0  0  0  0  0  # atno 10765 bound_to 10752
  140.4963  134.5936  157.4972 H   0  0  0  0  0  0  0  0  0  0  0  0  # atno 11005 bound_to 11000
  144.8277  139.5681  143.6958 LP  0  0  0  0  0  0  0  0  0  0  0  0  # atno 17320 bound_to 7965
  146.2681  139.6568  142.9315 LP  0  0  0  0  0  0  0  0  0  0  0  0  # atno 17321 bound_to 7965
  140.7819  143.4450  151.0495 LP  0  0  0  0  0  0  0  0  0  0  0  0  # atno 17342 bound_to 10162
  139.8130  143.7925  152.3172 LP  0  0  0  0  0  0  0  0  0  0  0  0  # atno 17343 bound_to 10162
  156.4194  130.7761  151.2778 LP  0  0  0  0  0  0  0  0  0  0  0  0  # atno 17370 bound_to 10713
  157.7507  131.0187  150.3638 LP  0  0  0  0  0  0  0  0  0  0  0  0  # atno 17371 bound_to 10713
  139.9739  134.7247  155.9987 LP  0  0  0  0  0  0  0  0  0  0  0  0  # atno 17394 bound_to 11000
  141.1458  133.6556  156.3864 LP  0  0  0  0  0  0  0  0  0  0  0  0  # atno 17395 bound_to 11000

$$$$
