AV-unprocessed.smi:1586|AV-procd|sdf|6385|dock6
  -GOLD-   22720 7 23D 1   1.00000     0.00000
 Structure written by MMmdl.
 45 46  0  0  0  0  0  0  0  0  2 V2000
  153.1305  142.5203  160.5504 C   0  0  0  0  0  0  0  0  0  0  0  0
  152.0663  142.8225  159.4856 C   0  0  0  0  0  0  0  0  0  0  0  0
  152.0680  141.9176  158.3375 N   0  0  0  0  0  0  0  0  0  0  0  0
  151.9465  140.5277  158.7712 C   0  0  0  0  0  0  0  0  0  0  0  0
  151.9597  139.5533  157.5795 C   0  0  0  0  0  0  0  0  0  0  0  0
  150.8678  139.8206  156.6332 N   0  0  0  0  0  0  0  0  0  0  0  0
  150.8638  138.8808  155.4911 C   0  0  2  0  0  0  0  0  0  0  0  0
  149.7587  139.1790  154.4525 C   0  0  0  0  0  0  0  0  0  0  0  0
  150.7475  137.3913  155.9019 C   0  0  0  0  0  0  0  0  0  0  0  0
  149.5472  137.1425  156.6937 N   0  0  0  0  0  0  0  0  0  0  0  0
  149.5301  136.6687  157.9460 C   0  0  0  0  0  0  0  0  0  0  0  0
  150.5917  136.4089  158.5177 O   0  0  0  0  0  0  0  0  0  0  0  0
  148.2856  136.5231  158.4568 N   0  5  0  0  0  0  0  0  0  0  0  0
  148.1158  136.2802  159.7655 C   0  0  0  0  0  0  0  0  0  0  0  0
  148.0142  134.9984  160.3725 C   0  0  0  0  0  0  0  0  0  0  0  0
  147.8383  135.2922  161.6948 C   0  0  0  0  0  0  0  0  0  0  0  0
  147.6668  134.4412  162.9067 C   0  0  0  0  0  0  0  0  0  0  0  0
  147.8213  136.6395  161.8807 O   0  0  0  0  0  0  0  0  0  0  0  0
  147.9941  137.2649  160.6402 N   0  0  0  0  0  0  0  0  0  0  0  0
  150.9835  141.2228  156.2111 C   0  0  0  0  0  0  0  0  0  0  0  0
  150.9738  142.1941  157.4063 C   0  0  0  0  0  0  0  0  0  0  0  0
  152.9975  143.1676  161.4174 H   0  0  0  0  0  0  0  0  0  0  0  0
  154.1405  142.6859  160.1765 H   0  0  0  0  0  0  0  0  0  0  0  0
  153.0608  141.4878  160.8942 H   0  0  0  0  0  0  0  0  0  0  0  0
  151.0922  142.7681  159.9735 H   0  0  0  0  0  0  0  0  0  0  0  0
  152.1739  143.8537  159.1460 H   0  0  0  0  0  0  0  0  0  0  0  0
  152.7689  140.2786  159.4427 H   0  0  0  0  0  0  0  0  0  0  0  0
  151.0266  140.3917  159.3426 H   0  0  0  0  0  0  0  0  0  0  0  0
  152.9218  139.6080  157.0677 H   0  0  0  0  0  0  0  0  0  0  0  0
  151.8754  138.5467  157.9853 H   0  0  0  0  0  0  0  0  0  0  0  0
  151.8166  138.9830  154.9696 H   0  0  0  0  0  0  0  0  0  0  0  0
  149.7175  138.4047  153.6860 H   0  0  0  0  0  0  0  0  0  0  0  0
  149.9318  140.1169  153.9259 H   0  0  0  0  0  0  0  0  0  0  0  0
  148.7747  139.2305  154.9197 H   0  0  0  0  0  0  0  0  0  0  0  0
  150.7135  136.7625  155.0110 H   0  0  0  0  0  0  0  0  0  0  0  0
  151.6296  137.0617  156.4510 H   0  0  0  0  0  0  0  0  0  0  0  0
  148.6608  137.3523  156.2586 H   0  0  0  0  0  0  0  0  0  0  0  0
  148.0673  134.0235  159.9119 H   0  0  0  0  0  0  0  0  0  0  0  0
  148.5023  133.7494  163.0131 H   0  0  0  0  0  0  0  0  0  0  0  0
  146.7491  133.8567  162.8399 H   0  0  0  0  0  0  0  0  0  0  0  0
  147.6150  135.0486  163.8107 H   0  0  0  0  0  0  0  0  0  0  0  0
  151.8940  141.3647  155.6270 H   0  0  0  0  0  0  0  0  0  0  0  0
  150.1495  141.4959  155.5665 H   0  0  0  0  0  0  0  0  0  0  0  0
  150.0152  142.1284  157.9236 H   0  0  0  0  0  0  0  0  0  0  0  0
  151.0538  143.2112  157.0236 H   0  0  0  0  0  0  0  0  0  0  0  0
  1  2  1  0  0  0  0
  1 22  1  0  0  0  0
  1 23  1  0  0  0  0
  1 24  1  0  0  0  0
  2  3  1  0  0  0  0
  2 25  1  0  0  0  0
  2 26  1  0  0  0  0
  3 21  1  0  0  0  0
  3  4  1  0  0  0  0
  4  5  1  0  0  0  0
  4 27  1  0  0  0  0
  4 28  1  0  0  0  0
  5  6  1  0  0  0  0
  5 29  1  0  0  0  0
  5 30  1  0  0  0  0
  6  7  1  0  0  0  0
  6 20  1  0  0  0  0
  7  8  1  0  0  0  0
  7  9  1  0  0  0  0
  7 31  1  0  0  0  0
  8 32  1  0  0  0  0
  8 33  1  0  0  0  0
  8 34  1  0  0  0  0
  9 10  1  0  0  0  0
  9 35  1  0  0  0  0
  9 36  1  0  0  0  0
 10 11  1  0  0  0  0
 10 37  1  0  0  0  0
 11 12  2  0  0  0  0
 11 13  1  0  0  0  0
 13 14  1  0  0  0  0
 14 19  2  0  0  0  0
 14 15  1  0  0  0  0
 15 16  2  0  0  0  0
 15 38  1  0  0  0  0
 16 17  1  0  0  0  0
 16 18  1  0  0  0  0
 17 39  1  0  0  0  0
 17 40  1  0  0  0  0
 17 41  1  0  0  0  0
 18 19  1  0  0  0  0
 20 21  1  0  0  0  0
 20 42  1  0  0  0  0
 20 43  1  0  0  0  0
 21 44  1  0  0  0  0
 21 45  1  0  0  0  0
M  CHG  1  13  -1
M  END
> <s_m_source_file>
AV-unprocessed.smi

> <i_m_source_file_index>
1586

> <i_lp_mmshare_version>
43012

> <i_f3d_flags>
0

> <s_epik_input>
W0NIM11bQ0gyXU4xW0NIMl1bQ0gyXU4oW0NIMl1bQ0gyXTEpW0NASF0oW0NIM10pW0NIMl1bTkhdQyg9TylbTkhdYzJbY0hdYyhbQ0gzXSlvbjI=

> <s_epik_cmdline>
J2VwaWtfcHl0aG9uJywgJy1waCcsICc3LjAnLCAnLXRuJywgJzgnLCAnLW1hJywgJzIwMCcsICctbWV0YWxfYmluZGluZycsICctaW1hZScsICc8aW5maWxlLm1hZT4nLCAnLW9tYWUnLCAnPG91dGZpbGUubWFlPic=

> <r_epik_Ionization_Penalty>
9.09031

> <r_epik_Ionization_Penalty_Charging>
6.65437

> <r_epik_Ionization_Penalty_Neutral>
2.43594

> <r_epik_State_Penalty>
8.41762

> <r_epik_Charging_Adjusted_Penalty>
15.072

> <i_epik_Tot_Q>
-1

> <i_epik_Tot_abs_Q>
1

> <r_epik_Metal_State_Penalty>
4.3436

> <b_epik_Metal_Only>
1

> <s_lp_Force_Field>
OPLS_2005

> <r_lp_Energy>
37.6489

> <b_lp_Chiralities_Consistent>
1

> <s_lp_Variant>
AV-unprocessed.smi:1586-13

> <Gold.Version>
5.8.1

> <Gold.Id.Protein>
6NUR|6NUR_protein|mol2

> <Gold.PLP.Fitness>
40.9425

> <Gold.PLP.PLP>
-37.2183

> <Gold.PLP.part.hbond>
-3.9949

> <Gold.PLP.part.metal>
0.0000

> <Gold.PLP.part.buried>
-5.4764

> <Gold.PLP.part.nonpolar>
-28.6723

> <Gold.PLP.part.repulsive>
0.0015

> <Gold.PLP.ligand.clash>
0.0000

> <Gold.PLP.ligand.torsion>
0.8229

> <Gold.PLP.Chemscore.Hbond>
1.7600

> <Gold.PLP.Chemscore.CHOScore>
0.0000

> <Gold.PLP.Chemscore.Metal>
0.0000

> <Gold.Chemscore.Hbonds>
donor molecule, donor type, donor heavy atom, donor atom, acceptor molecule, acceptor atom, score
      P1  H  6896  6908       L1    12  0.90
      P1  H  6934  6947       L1    19  0.75

> <Gold.PLP.Chemscore.Internal.Correction>
0.0901

> <Gold.Rescore>
     Score         DG    S(hbond)    S(metal)    S(lipo)     H(rot)  DE(clash)    DE(int)     intcor
     16.38     -17.19       1.82        0.00      84.74       1.68       0.01       0.80       ----

> <Gold.Chemscore.Fitness>
16.3817

> <Gold.Chemscore.DG>
-17.1873

> <Gold.Chemscore.ZeroCoef>
-5.4800

> <Gold.Chemscore.Hbond>
1.8236

> <Gold.Chemscore.Metal>
0.0000

> <Gold.Chemscore.Lipo>
84.7362

> <Gold.Chemscore.Internal_Hbond>
0.0000

> <Gold.Chemscore.DEClash>
0.0060

> <Gold.Chemscore.DEInternal>
0.7995

> <Gold.Chemscore.Rot>
1.6788

> <Gold.Chemscore.Internal.Correction>
   9.000000E+99

> <Gold.Chemscore.Hbonds>
donor molecule, donor type, donor heavy atom, donor atom, acceptor molecule, acceptor atom, score
      P1  H  6896  6908       L1    12  0.87
      P1  H  6934  6947       L1    19  0.29

> <Gold.Chemscore.Hbond.Weighted>
-6.0910

> <Gold.Chemscore.Metal.Weighted>
-0.0000

> <Gold.Chemscore.Lipo.Weighted>
-9.9141

> <Gold.Chemscore.Internal_Hbond.Weighted>
0.0000

> <Gold.Chemscore.DEClash.Weighted>
0.0060

> <Gold.Chemscore.DEInternal.Weighted>
0.7995

> <Gold.Chemscore.Rot.Weighted>
4.2978

> <Gold.Chemscore.Internal.Correction.Weighted>
   9.000000E+99

> <Gold.Protein.RotatedTorsions>
[ 6907 6896 6895 6894 ] final -165.60 input  -60.11 | X-H torsion
[ 7974 7965 7964 7962 ] final -176.42 input  175.53 | X-H torsion
[ 8008 7997 7996 7995 ] final   29.47 input   59.86 | X-H torsion
[ 10167 10162 10161 10158 ] final  -60.81 input  -65.29 | X-H torsion
[ 10718 10713 10712 10709 ] final  -14.45 input   66.30 | X-H torsion
[ 10763 10752 10751 10750 ] final  -38.65 input  -60.55 | X-H torsion
[ 11005 11000 10999 10996 ] final  160.39 input  -57.11 | X-H torsion

> <Gold.Protein.ActiveResidues>
 VAL166  LYS551  ARG553  GLY616  TRP617  ASP618  TYR619  PRO620  LYS621  CYS622 
 ASP623  PHE694  ASN695  SER759  ASP760  ASP761  ALA762  ILE779  LEU786  VAL792 
 PHE793  MET794  SER795  GLU796  ALA797  LYS798  CYS799  TRP800  GLU811  SER814 

> <Gold.Protein.RotatedAtoms>
  151.4303  133.3672  159.2767 H   0  0  0  0  0  0  0  0  0  0  0  0  # atno 6907 bound_to 6896
  150.9230  134.8648  159.7512 H   0  0  0  0  0  0  0  0  0  0  0  0  # atno 6908 bound_to 6896
  152.4991  134.4242  159.9543 H   0  0  0  0  0  0  0  0  0  0  0  0  # atno 6909 bound_to 6896
  144.7127  140.1173  143.6407 H   0  0  0  0  0  0  0  0  0  0  0  0  # atno 7974 bound_to 7965
  155.0750  140.3204  155.4619 H   0  0  0  0  0  0  0  0  0  0  0  0  # atno 8008 bound_to 7997
  156.2781  140.2105  156.5823 H   0  0  0  0  0  0  0  0  0  0  0  0  # atno 8009 bound_to 7997
  154.7024  140.0506  157.0458 H   0  0  0  0  0  0  0  0  0  0  0  0  # atno 8010 bound_to 7997
  140.6047  143.2370  151.5849 H   0  0  0  0  0  0  0  0  0  0  0  0  # atno 10167 bound_to 10162
  156.6158  130.4862  149.6184 H   0  0  0  0  0  0  0  0  0  0  0  0  # atno 10718 bound_to 10713
  153.9163  135.6787  153.4749 H   0  0  0  0  0  0  0  0  0  0  0  0  # atno 10763 bound_to 10752
  153.1052  135.4809  154.8935 H   0  0  0  0  0  0  0  0  0  0  0  0  # atno 10764 bound_to 10752
  154.7501  135.3182  154.8529 H   0  0  0  0  0  0  0  0  0  0  0  0  # atno 10765 bound_to 10752
  140.2055  134.8306  157.3064 H   0  0  0  0  0  0  0  0  0  0  0  0  # atno 11005 bound_to 11000
  145.9402  139.2664  143.1273 LP  0  0  0  0  0  0  0  0  0  0  0  0  # atno 17320 bound_to 7965
  145.9432  140.8964  143.0297 LP  0  0  0  0  0  0  0  0  0  0  0  0  # atno 17321 bound_to 7965
  139.5316  144.2900  152.1160 LP  0  0  0  0  0  0  0  0  0  0  0  0  # atno 17342 bound_to 10162
  140.2087  144.4585  150.6396 LP  0  0  0  0  0  0  0  0  0  0  0  0  # atno 17343 bound_to 10162
  156.2352  130.6818  151.1503 LP  0  0  0  0  0  0  0  0  0  0  0  0  # atno 17370 bound_to 10713
  157.7242  131.0661  150.6007 LP  0  0  0  0  0  0  0  0  0  0  0  0  # atno 17371 bound_to 10713
  140.2008  134.4257  155.7664 LP  0  0  0  0  0  0  0  0  0  0  0  0  # atno 17394 bound_to 11000
  141.2227  133.7071  156.8180 LP  0  0  0  0  0  0  0  0  0  0  0  0  # atno 17395 bound_to 11000

$$$$
