AV-unprocessed.smi:858|AV-procd|sdf|3962|dock6
  -GOLD-   22720 1433D 1   1.00000     0.00000
 Structure written by MMmdl.
 44 45  0  0  0  0  0  0  0  0  1 V2000
  145.9147  137.0607  151.6779 C   0  0  0  0  0  0  0  0  0  0  0  0
  146.4284  138.5031  151.7092 C   0  0  0  0  0  0  0  0  0  0  0  0
  146.4376  139.1383  150.6540 O   0  0  0  0  0  0  0  0  0  0  0  0
  146.8546  139.0325  152.8822 N   0  0  0  0  0  0  0  0  0  0  0  0
  147.3316  140.4178  152.9265 C   0  0  0  0  0  0  0  0  0  0  0  0
  146.8740  138.2957  154.1568 C   0  0  0  0  0  0  0  0  0  0  0  0
  148.2869  137.9191  154.6244 C   0  0  0  0  0  0  0  0  0  0  0  0
  148.4639  137.3287  155.6908 O   0  0  0  0  0  0  0  0  0  0  0  0
  149.2899  138.2860  153.8122 N   0  0  0  0  0  0  0  0  0  0  0  0
  150.7069  138.0599  154.0720 C   0  0  0  0  0  0  0  0  0  0  0  0
  151.1810  138.7575  155.3334 C   0  0  0  0  0  0  0  0  0  0  0  0
  150.5540  139.9326  155.7906 C   0  0  0  0  0  0  0  0  0  0  0  0
  151.0181  140.5359  156.9750 C   0  0  0  0  0  0  0  0  0  0  0  0
  152.0973  139.9445  157.6742 C   0  0  0  0  0  0  0  0  0  0  0  0
  152.5736  140.5301  158.8666 N   0  0  0  0  0  0  0  0  0  0  0  0
  152.6947  139.6271  160.0081 C   0  0  0  0  0  0  0  0  0  0  0  0
  153.5019  140.2947  161.1351 C   0  0  0  0  0  0  0  0  0  0  0  0
  152.9126  141.5451  161.4768 O   0  0  0  0  0  0  0  0  0  0  0  0
  152.9081  142.4473  160.3754 C   0  0  0  0  0  0  0  0  0  0  0  0
  152.0748  141.8561  159.2259 C   0  0  0  0  0  0  0  0  0  0  0  0
  152.6929  138.8090  157.2323 N   0  0  0  0  0  0  0  0  0  0  0  0
  152.2470  138.2371  156.0940 C   0  0  0  0  0  0  0  0  0  0  0  0
  146.7162  136.3588  151.9084 H   0  0  0  0  0  0  0  0  0  0  0  0
  145.5327  136.8127  150.6868 H   0  0  0  0  0  0  0  0  0  0  0  0
  145.1023  136.9166  152.3900 H   0  0  0  0  0  0  0  0  0  0  0  0
  148.3002  140.5023  152.4320 H   0  0  0  0  0  0  0  0  0  0  0  0
  147.4452  140.7797  153.9492 H   0  0  0  0  0  0  0  0  0  0  0  0
  146.6326  141.0921  152.4286 H   0  0  0  0  0  0  0  0  0  0  0  0
  146.3661  138.8583  154.9409 H   0  0  0  0  0  0  0  0  0  0  0  0
  146.2976  137.3750  154.0570 H   0  0  0  0  0  0  0  0  0  0  0  0
  149.0552  138.7691  152.9570 H   0  0  0  0  0  0  0  0  0  0  0  0
  150.9242  136.9921  154.1358 H   0  0  0  0  0  0  0  0  0  0  0  0
  151.2753  138.4346  153.2202 H   0  0  0  0  0  0  0  0  0  0  0  0
  149.7264  140.3642  155.2470 H   0  0  0  0  0  0  0  0  0  0  0  0
  150.5335  141.4288  157.3410 H   0  0  0  0  0  0  0  0  0  0  0  0
  151.6948  139.3764  160.3645 H   0  0  0  0  0  0  0  0  0  0  0  0
  153.1768  138.6902  159.7323 H   0  0  0  0  0  0  0  0  0  0  0  0
  153.5124  139.6554  162.0180 H   0  0  0  0  0  0  0  0  0  0  0  0
  154.5409  140.4401  160.8353 H   0  0  0  0  0  0  0  0  0  0  0  0
  152.4833  143.3984  160.6964 H   0  0  0  0  0  0  0  0  0  0  0  0
  153.9306  142.6483  160.0512 H   0  0  0  0  0  0  0  0  0  0  0  0
  152.1220  142.5231  158.3643 H   0  0  0  0  0  0  0  0  0  0  0  0
  151.0282  141.7804  159.5244 H   0  0  0  0  0  0  0  0  0  0  0  0
  152.7531  137.3340  155.7859 H   0  0  0  0  0  0  0  0  0  0  0  0
  1  2  1  0  0  0  0
  1 23  1  0  0  0  0
  1 24  1  0  0  0  0
  1 25  1  0  0  0  0
  2  3  2  0  0  0  0
  2  4  1  0  0  0  0
  4  5  1  0  0  0  0
  4  6  1  0  0  0  0
  5 26  1  0  0  0  0
  5 27  1  0  0  0  0
  5 28  1  0  0  0  0
  6  7  1  0  0  0  0
  6 29  1  0  0  0  0
  6 30  1  0  0  0  0
  7  8  2  0  0  0  0
  7  9  1  0  0  0  0
  9 10  1  0  0  0  0
  9 31  1  0  0  0  0
 10 11  1  0  0  0  0
 10 32  1  0  0  0  0
 10 33  1  0  0  0  0
 11 22  1  0  0  0  0
 11 12  2  0  0  0  0
 12 13  1  0  0  0  0
 12 34  1  0  0  0  0
 13 14  2  0  0  0  0
 13 35  1  0  0  0  0
 14 15  1  0  0  0  0
 14 21  1  0  0  0  0
 15 20  1  0  0  0  0
 15 16  1  0  0  0  0
 16 17  1  0  0  0  0
 16 36  1  0  0  0  0
 16 37  1  0  0  0  0
 17 18  1  0  0  0  0
 17 38  1  0  0  0  0
 17 39  1  0  0  0  0
 18 19  1  0  0  0  0
 19 20  1  0  0  0  0
 19 40  1  0  0  0  0
 19 41  1  0  0  0  0
 20 42  1  0  0  0  0
 20 43  1  0  0  0  0
 21 22  2  0  0  0  0
 22 44  1  0  0  0  0
M  END
> <s_m_source_file>
AV-unprocessed.smi

> <i_m_source_file_index>
858

> <i_lp_mmshare_version>
43012

> <i_f3d_flags>
0

> <s_epik_input>
W0NIM11DKD1PKU4oW0NIM10pW0NIMl1DKD1PKVtOSF1bQ0gyXWMxW2NIXVtjSF1jKG5bY0hdMSlOMltDSDJdW0NIMl1PW0NIMl1bQ0gyXTI=

> <s_epik_cmdline>
J2VwaWtfcHl0aG9uJywgJy1waCcsICc3LjAnLCAnLXRuJywgJzgnLCAnLW1hJywgJzIwMCcsICctbWV0YWxfYmluZGluZycsICctaW1hZScsICc8aW5maWxlLm1hZT4nLCAnLW9tYWUnLCAnPG91dGZpbGUubWFlPic=

> <r_lp_tautomer_probability>
1

> <r_epik_Ionization_Penalty>
0.00462928

> <r_epik_Ionization_Penalty_Charging>
0

> <r_epik_Ionization_Penalty_Neutral>
0.00462928

> <r_epik_State_Penalty>
0.00334737

> <r_epik_Charging_Adjusted_Penalty>
0.00334737

> <i_epik_Tot_Q>
0

> <i_epik_Tot_abs_Q>
0

> <r_epik_Metal_State_Penalty>
-0

> <b_epik_Metal_Only>
0

> <s_lp_Force_Field>
OPLS_2005

> <r_lp_Energy>
20.1823

> <b_lp_Chiralities_Consistent>
1

> <s_lp_Variant>
AV-unprocessed.smi:858-1

> <Gold.Version>
5.8.1

> <Gold.Id.Protein>
6NUR|6NUR_protein|mol2

> <Gold.PLP.Fitness>
44.8997

> <Gold.PLP.PLP>
-38.3351

> <Gold.PLP.part.hbond>
-3.7450

> <Gold.PLP.part.metal>
0.0000

> <Gold.PLP.part.buried>
1.3383

> <Gold.PLP.part.nonpolar>
-38.1731

> <Gold.PLP.part.repulsive>
3.2390

> <Gold.PLP.ligand.clash>
0.0000

> <Gold.PLP.ligand.torsion>
0.6723

> <Gold.PLP.Chemscore.Hbond>
2.5131

> <Gold.PLP.Chemscore.CHOScore>
0.0000

> <Gold.PLP.Chemscore.Metal>
0.0000

> <Gold.Chemscore.Hbonds>
donor molecule, donor type, donor heavy atom, donor atom, acceptor molecule, acceptor atom, score
      L1  H     9    31       P1  7957  0.42
      P1  H  7954  7966       L1     3  0.15
      P1  H  7997  8009       L1    21  0.20

> <Gold.PLP.Chemscore.Internal.Correction>
0.3697

> <Gold.Rescore>
     Score         DG    S(hbond)    S(metal)    S(lipo)     H(rot)  DE(clash)    DE(int)     intcor
     11.09     -15.98       1.25        0.00      97.85       2.00       2.93       1.97       ----

> <Gold.Chemscore.Fitness>
11.0863

> <Gold.Chemscore.DG>
-15.9842

> <Gold.Chemscore.ZeroCoef>
-5.4800

> <Gold.Chemscore.Hbond>
1.2468

> <Gold.Chemscore.Metal>
0.0000

> <Gold.Chemscore.Lipo>
97.8515

> <Gold.Chemscore.Internal_Hbond>
0.0000

> <Gold.Chemscore.DEClash>
2.9294

> <Gold.Chemscore.DEInternal>
1.9685

> <Gold.Chemscore.Rot>
1.9956

> <Gold.Chemscore.Internal.Correction>
   9.000000E+99

> <Gold.Chemscore.Hbonds>
donor molecule, donor type, donor heavy atom, donor atom, acceptor molecule, acceptor atom, score
      L1  H     9    31       P1  7957  0.41
      P1  H  7954  7966       L1     3  0.01

> <Gold.Chemscore.Hbond.Weighted>
-4.1643

> <Gold.Chemscore.Metal.Weighted>
-0.0000

> <Gold.Chemscore.Lipo.Weighted>
-11.4486

> <Gold.Chemscore.Internal_Hbond.Weighted>
0.0000

> <Gold.Chemscore.DEClash.Weighted>
2.9294

> <Gold.Chemscore.DEInternal.Weighted>
1.9685

> <Gold.Chemscore.Rot.Weighted>
5.1087

> <Gold.Chemscore.Internal.Correction.Weighted>
   9.000000E+99

> <Gold.Protein.RotatedTorsions>
[ 6907 6896 6895 6894 ] final  -35.12 input  -60.11 | X-H torsion
[ 7974 7965 7964 7962 ] final   67.10 input  175.53 | X-H torsion
[ 8008 7997 7996 7995 ] final  166.22 input   59.86 | X-H torsion
[ 10167 10162 10161 10158 ] final -153.31 input  -65.29 | X-H torsion
[ 10718 10713 10712 10709 ] final  126.14 input   66.30 | X-H torsion
[ 10763 10752 10751 10750 ] final   10.51 input  -60.55 | X-H torsion
[ 11005 11000 10999 10996 ] final -164.71 input  -57.11 | X-H torsion

> <Gold.Protein.ActiveResidues>
 VAL166  LYS551  ARG553  GLY616  TRP617  ASP618  TYR619  PRO620  LYS621  CYS622 
 ASP623  PHE694  ASN695  SER759  ASP760  ASP761  ALA762  ILE779  LEU786  VAL792 
 PHE793  MET794  SER795  GLU796  ALA797  LYS798  CYS799  TRP800  GLU811  SER814 

> <Gold.Protein.RotatedAtoms>
  151.0438  134.9626  159.8175 H   0  0  0  0  0  0  0  0  0  0  0  0  # atno 6907 bound_to 6896
  152.5369  134.2624  159.8950 H   0  0  0  0  0  0  0  0  0  0  0  0  # atno 6908 bound_to 6896
  151.2637  133.4246  159.2651 H   0  0  0  0  0  0  0  0  0  0  0  0  # atno 6909 bound_to 6896
  145.8187  139.3072  143.1056 H   0  0  0  0  0  0  0  0  0  0  0  0  # atno 7974 bound_to 7965
  156.1737  140.1649  156.8402 H   0  0  0  0  0  0  0  0  0  0  0  0  # atno 8008 bound_to 7997
  154.5284  140.0762  156.8334 H   0  0  0  0  0  0  0  0  0  0  0  0  # atno 8009 bound_to 7997
  155.3459  140.3387  155.4241 H   0  0  0  0  0  0  0  0  0  0  0  0  # atno 8010 bound_to 7997
  139.7108  143.9112  152.2467 H   0  0  0  0  0  0  0  0  0  0  0  0  # atno 10167 bound_to 10162
  157.5444  131.1096  150.8806 H   0  0  0  0  0  0  0  0  0  0  0  0  # atno 10718 bound_to 10713
  153.2024  135.6858  153.8214 H   0  0  0  0  0  0  0  0  0  0  0  0  # atno 10763 bound_to 10752
  153.7475  135.3229  155.3316 H   0  0  0  0  0  0  0  0  0  0  0  0  # atno 10764 bound_to 10752
  154.8179  135.4673  154.0797 H   0  0  0  0  0  0  0  0  0  0  0  0  # atno 10765 bound_to 10752
  140.5839  134.5114  157.5182 H   0  0  0  0  0  0  0  0  0  0  0  0  # atno 11005 bound_to 11000
  145.9699  140.8768  143.0168 LP  0  0  0  0  0  0  0  0  0  0  0  0  # atno 17320 bound_to 7965
  144.6750  140.1931  143.7394 LP  0  0  0  0  0  0  0  0  0  0  0  0  # atno 17321 bound_to 7965
  139.8980  144.6928  150.8696 LP  0  0  0  0  0  0  0  0  0  0  0  0  # atno 17342 bound_to 10162
  140.7732  143.3535  151.1967 LP  0  0  0  0  0  0  0  0  0  0  0  0  # atno 17343 bound_to 10162
  156.9349  130.5363  149.5279 LP  0  0  0  0  0  0  0  0  0  0  0  0  # atno 17370 bound_to 10713
  156.0523  130.5591  150.9017 LP  0  0  0  0  0  0  0  0  0  0  0  0  # atno 17371 bound_to 10713
  139.9305  134.7973  156.0945 LP  0  0  0  0  0  0  0  0  0  0  0  0  # atno 17394 bound_to 11000
  141.0979  133.6688  156.2686 LP  0  0  0  0  0  0  0  0  0  0  0  0  # atno 17395 bound_to 11000

$$$$
