AV-unprocessed.smi:2087|AV-procd|sdf|8524|dock7
  -GOLD-   2272011243D 1   1.00000     0.00000
 Structure written by MMmdl.
 50 51  0  0  0  0  0  0  0  0  1 V2000
  152.0886  143.3799  159.8506 C   0  0  0  0  0  0  0  0  0  0  0  0
  152.1305  141.8992  160.2557 C   0  0  0  0  0  0  0  0  0  0  0  0
  153.0455  141.7016  161.4752 C   0  0  0  0  0  0  0  0  0  0  0  0
  152.5704  141.0264  159.0604 C   0  0  0  0  0  0  0  0  0  0  0  0
  151.5758  140.8463  158.0015 N   0  0  0  0  0  0  0  0  0  0  0  0
  151.3291  142.0689  157.2402 C   0  0  0  0  0  0  0  0  0  0  0  0
  150.2930  141.8492  156.1246 C   0  0  0  0  0  0  0  0  0  0  0  0
  150.7185  140.7927  155.2707 O   0  0  0  0  0  0  0  0  0  0  0  0
  150.9374  139.5663  155.9641 C   0  0  1  0  0  0  0  0  0  0  0  0
  151.3372  138.4728  154.9545 C   0  0  0  0  0  0  0  0  0  0  0  0
  150.2920  137.4706  154.7646 N   0  0  0  0  0  0  0  0  0  0  0  0
  150.4281  136.1562  154.9961 C   0  0  0  0  0  0  0  0  0  0  0  0
  151.4741  135.6456  155.3996 O   0  0  0  0  0  0  0  0  0  0  0  0
  149.1787  135.2982  154.7538 C   0  0  0  0  0  0  0  0  0  0  0  0
  149.4605  133.8569  154.7615 N   0  0  0  0  0  0  0  0  0  0  0  0
  149.2430  133.1098  153.6182 C   0  0  0  0  0  0  0  0  0  0  0  0
  149.4649  131.7791  153.5446 C   0  0  0  0  0  0  0  0  0  0  0  0
  149.9601  131.0363  154.6977 C   0  0  0  0  0  0  0  0  0  0  0  0
  150.1766  129.8243  154.6700 O   0  0  0  0  0  0  0  0  0  0  0  0
  150.1724  131.8254  155.8544 N   0  0  0  0  0  0  0  0  0  0  0  0
  150.6621  131.1945  157.0625 C   0  0  0  0  0  0  0  0  0  0  0  0
  149.9368  133.2159  155.9250 C   0  0  0  0  0  0  0  0  0  0  0  0
  150.1361  133.8558  156.9608 O   0  0  0  0  0  0  0  0  0  0  0  0
  151.9810  139.7915  157.0793 C   0  0  0  0  0  0  0  0  0  0  0  0
  153.0751  143.7383  159.5542 H   0  0  0  0  0  0  0  0  0  0  0  0
  151.7423  144.0037  160.6751 H   0  0  0  0  0  0  0  0  0  0  0  0
  151.4103  143.5396  159.0119 H   0  0  0  0  0  0  0  0  0  0  0  0
  151.1161  141.6276  160.5461 H   0  0  0  0  0  0  0  0  0  0  0  0
  154.0788  141.9588  161.2410 H   0  0  0  0  0  0  0  0  0  0  0  0
  153.0300  140.6672  161.8196 H   0  0  0  0  0  0  0  0  0  0  0  0
  152.7276  142.3261  162.3105 H   0  0  0  0  0  0  0  0  0  0  0  0
  153.4822  141.4413  158.6279 H   0  0  0  0  0  0  0  0  0  0  0  0
  152.8499  140.0472  159.4521 H   0  0  0  0  0  0  0  0  0  0  0  0
  150.9662  142.8598  157.8952 H   0  0  0  0  0  0  0  0  0  0  0  0
  152.2618  142.4275  156.8020 H   0  0  0  0  0  0  0  0  0  0  0  0
  149.3161  141.6110  156.5481 H   0  0  0  0  0  0  0  0  0  0  0  0
  150.1733  142.7575  155.5338 H   0  0  0  0  0  0  0  0  0  0  0  0
  149.9933  139.2654  156.4220 H   0  0  0  0  0  0  0  0  0  0  0  0
  151.5320  138.9314  153.9849 H   0  0  0  0  0  0  0  0  0  0  0  0
  152.2737  138.0021  155.2586 H   0  0  0  0  0  0  0  0  0  0  0  0
  149.3963  137.8034  154.4382 H   0  0  0  0  0  0  0  0  0  0  0  0
  148.4482  135.5370  155.5281 H   0  0  0  0  0  0  0  0  0  0  0  0
  148.7110  135.5844  153.8100 H   0  0  0  0  0  0  0  0  0  0  0  0
  148.8723  133.6133  152.7371 H   0  0  0  0  0  0  0  0  0  0  0  0
  149.2721  131.2564  152.6193 H   0  0  0  0  0  0  0  0  0  0  0  0
  151.6107  131.6723  157.3143 H   0  0  0  0  0  0  0  0  0  0  0  0
  150.8146  130.1253  156.9203 H   0  0  0  0  0  0  0  0  0  0  0  0
  149.9136  131.3605  157.8395 H   0  0  0  0  0  0  0  0  0  0  0  0
  152.9458  140.0462  156.6379 H   0  0  0  0  0  0  0  0  0  0  0  0
  152.1262  138.8597  157.6273 H   0  0  0  0  0  0  0  0  0  0  0  0
  1  2  1  0  0  0  0
  1 25  1  0  0  0  0
  1 26  1  0  0  0  0
  1 27  1  0  0  0  0
  2  3  1  0  0  0  0
  2  4  1  0  0  0  0
  2 28  1  0  0  0  0
  3 29  1  0  0  0  0
  3 30  1  0  0  0  0
  3 31  1  0  0  0  0
  4  5  1  0  0  0  0
  4 32  1  0  0  0  0
  4 33  1  0  0  0  0
  5 24  1  0  0  0  0
  5  6  1  0  0  0  0
  6  7  1  0  0  0  0
  6 34  1  0  0  0  0
  6 35  1  0  0  0  0
  7  8  1  0  0  0  0
  7 36  1  0  0  0  0
  7 37  1  0  0  0  0
  8  9  1  0  0  0  0
  9 10  1  0  0  0  0
  9 24  1  0  0  0  0
  9 38  1  0  0  0  0
 10 11  1  0  0  0  0
 10 39  1  0  0  0  0
 10 40  1  0  0  0  0
 11 12  1  0  0  0  0
 11 41  1  0  0  0  0
 12 13  2  0  0  0  0
 12 14  1  0  0  0  0
 14 15  1  0  0  0  0
 14 42  1  0  0  0  0
 14 43  1  0  0  0  0
 15 22  1  0  0  0  0
 15 16  1  0  0  0  0
 16 17  2  0  0  0  0
 16 44  1  0  0  0  0
 17 18  1  0  0  0  0
 17 45  1  0  0  0  0
 18 19  2  0  0  0  0
 18 20  1  0  0  0  0
 20 21  1  0  0  0  0
 20 22  1  0  0  0  0
 21 46  1  0  0  0  0
 21 47  1  0  0  0  0
 21 48  1  0  0  0  0
 22 23  2  0  0  0  0
 24 49  1  0  0  0  0
 24 50  1  0  0  0  0
M  END
> <s_m_source_file>
AV-unprocessed.smi

> <i_m_source_file_index>
2087

> <i_lp_mmshare_version>
43012

> <i_f3d_flags>
0

> <s_epik_input>
W0NIM11bQ0hdKFtDSDNdKVtDSDJdTjFbQ0gyXVtDSDJdT1tDQEhdKFtDSDJdMSlbQ0gyXVtOSF1DKD1PKVtDSDJdbjJbY0hdW2NIXWMoPU8pbihbQ0gzXSljMj1P

> <s_epik_cmdline>
J2VwaWtfcHl0aG9uJywgJy1waCcsICc3LjAnLCAnLXRuJywgJzgnLCAnLW1hJywgJzIwMCcsICctbWV0YWxfYmluZGluZycsICctaW1hZScsICc8aW5maWxlLm1hZT4nLCAnLW9tYWUnLCAnPG91dGZpbGUubWFlPic=

> <r_lp_tautomer_probability>
1

> <r_epik_Ionization_Penalty>
1.11669

> <r_epik_Ionization_Penalty_Charging>
1.16423e-08

> <r_epik_Ionization_Penalty_Neutral>
1.11669

> <r_epik_State_Penalty>
1.17516

> <r_epik_Charging_Adjusted_Penalty>
1.17516

> <i_epik_Tot_Q>
0

> <i_epik_Tot_abs_Q>
0

> <r_epik_Metal_State_Penalty>
1.17513

> <b_epik_Metal_Only>
0

> <s_lp_Force_Field>
OPLS_2005

> <r_lp_Energy>
34.2639

> <b_lp_Chiralities_Consistent>
1

> <s_lp_Variant>
AV-unprocessed.smi:2087-5

> <Gold.Version>
5.8.1

> <Gold.Id.Protein>
6NUR|6NUR_protein|mol2

> <Gold.PLP.Fitness>
49.3526

> <Gold.PLP.PLP>
-43.3077

> <Gold.PLP.part.hbond>
-3.0000

> <Gold.PLP.part.metal>
0.0000

> <Gold.PLP.part.buried>
-4.8512

> <Gold.PLP.part.nonpolar>
-36.3693

> <Gold.PLP.part.repulsive>
0.2232

> <Gold.PLP.ligand.clash>
0.0000

> <Gold.PLP.ligand.torsion>
1.0173

> <Gold.PLP.Chemscore.Hbond>
2.6480

> <Gold.PLP.Chemscore.CHOScore>
0.0000

> <Gold.PLP.Chemscore.Metal>
0.0000

> <Gold.Chemscore.Hbonds>
donor molecule, donor type, donor heavy atom, donor atom, acceptor molecule, acceptor atom, score
      P1  H  6896  6907       L1    23  0.12
      P1  H  7989  7998       L1     8  0.83
      P1  H 10752 10763       L1    13  1.00
      L1  C    16    44       P1  7948  0.07

> <Gold.PLP.Chemscore.Internal.Correction>
0.1355

> <Gold.Rescore>
     Score         DG    S(hbond)    S(metal)    S(lipo)     H(rot)  DE(clash)    DE(int)     intcor
     17.32     -19.27       2.64        0.00      89.94       2.16       0.01       1.94       ----

> <Gold.Chemscore.Fitness>
17.3202

> <Gold.Chemscore.DG>
-19.2670

> <Gold.Chemscore.ZeroCoef>
-5.4800

> <Gold.Chemscore.Hbond>
2.6356

> <Gold.Chemscore.Metal>
0.0000

> <Gold.Chemscore.Lipo>
89.9431

> <Gold.Chemscore.Internal_Hbond>
0.0000

> <Gold.Chemscore.DEClash>
0.0082

> <Gold.Chemscore.DEInternal>
1.9387

> <Gold.Chemscore.Rot>
2.1638

> <Gold.Chemscore.Internal.Correction>
   9.000000E+99

> <Gold.Chemscore.Hbonds>
donor molecule, donor type, donor heavy atom, donor atom, acceptor molecule, acceptor atom, score
      P1  H  6896  6907       L1    23  0.13
      P1  H  7989  7998       L1     8  0.71
      P1  H 10752 10763       L1    13  0.97

> <Gold.Chemscore.Hbond.Weighted>
-8.8030

> <Gold.Chemscore.Metal.Weighted>
-0.0000

> <Gold.Chemscore.Lipo.Weighted>
-10.5233

> <Gold.Chemscore.Internal_Hbond.Weighted>
0.0000

> <Gold.Chemscore.DEClash.Weighted>
0.0082

> <Gold.Chemscore.DEInternal.Weighted>
1.9387

> <Gold.Chemscore.Rot.Weighted>
5.5393

> <Gold.Chemscore.Internal.Correction.Weighted>
   9.000000E+99

> <Gold.Protein.RotatedTorsions>
[ 6907 6896 6895 6894 ] final -122.40 input  -60.11 | X-H torsion
[ 7974 7965 7964 7962 ] final -169.41 input  175.53 | X-H torsion
[ 8008 7997 7996 7995 ] final  118.69 input   59.86 | X-H torsion
[ 10167 10162 10161 10158 ] final  -91.26 input  -65.29 | X-H torsion
[ 10718 10713 10712 10709 ] final  -73.74 input   66.30 | X-H torsion
[ 10763 10752 10751 10750 ] final   57.25 input  -60.55 | X-H torsion
[ 11005 11000 10999 10996 ] final    2.34 input  -57.11 | X-H torsion

> <Gold.Protein.ActiveResidues>
 VAL166  LYS551  ARG553  GLY616  TRP617  ASP618  TYR619  PRO620  LYS621  CYS622 
 ASP623  PHE694  ASN695  SER759  ASP760  ASP761  ALA762  ILE779  LEU786  VAL792 
 PHE793  MET794  SER795  GLU796  ALA797  LYS798  CYS799  TRP800  GLU811  SER814 

> <Gold.Protein.RotatedAtoms>
  150.8573  133.7697  159.3004 H   0  0  0  0  0  0  0  0  0  0  0  0  # atno 6907 bound_to 6896
  151.5350  135.1067  159.9922 H   0  0  0  0  0  0  0  0  0  0  0  0  # atno 6908 bound_to 6896
  152.4599  133.7757  159.6879 H   0  0  0  0  0  0  0  0  0  0  0  0  # atno 6909 bound_to 6896
  144.7186  140.2224  143.6314 H   0  0  0  0  0  0  0  0  0  0  0  0  # atno 7974 bound_to 7965
  156.2559  140.2869  156.0874 H   0  0  0  0  0  0  0  0  0  0  0  0  # atno 8008 bound_to 7997
  155.1500  140.0397  157.2836 H   0  0  0  0  0  0  0  0  0  0  0  0  # atno 8009 bound_to 7997
  154.6468  140.2535  155.7266 H   0  0  0  0  0  0  0  0  0  0  0  0  # atno 8010 bound_to 7997
  140.3467  143.2913  151.9773 H   0  0  0  0  0  0  0  0  0  0  0  0  # atno 10167 bound_to 10162
  156.0269  130.4401  150.2787 H   0  0  0  0  0  0  0  0  0  0  0  0  # atno 10718 bound_to 10713
  152.9846  135.5648  154.5360 H   0  0  0  0  0  0  0  0  0  0  0  0  # atno 10763 bound_to 10752
  154.4823  135.2789  155.1563 H   0  0  0  0  0  0  0  0  0  0  0  0  # atno 10764 bound_to 10752
  154.3067  135.6296  153.5501 H   0  0  0  0  0  0  0  0  0  0  0  0  # atno 10765 bound_to 10752
  140.6053  133.9798  155.8151 H   0  0  0  0  0  0  0  0  0  0  0  0  # atno 11005 bound_to 11000
  145.8488  139.2165  143.1784 LP  0  0  0  0  0  0  0  0  0  0  0  0  # atno 17320 bound_to 7965
  146.0280  140.8285  142.9890 LP  0  0  0  0  0  0  0  0  0  0  0  0  # atno 17321 bound_to 7965
  139.4832  144.6111  151.7432 LP  0  0  0  0  0  0  0  0  0  0  0  0  # atno 17342 bound_to 10162
  140.5258  144.0808  150.6037 LP  0  0  0  0  0  0  0  0  0  0  0  0  # atno 17343 bound_to 10162
  157.0890  131.0164  151.3128 LP  0  0  0  0  0  0  0  0  0  0  0  0  # atno 17370 bound_to 10713
  157.4868  130.7798  149.7468 LP  0  0  0  0  0  0  0  0  0  0  0  0  # atno 17371 bound_to 10713
  141.0844  134.0012  157.3336 LP  0  0  0  0  0  0  0  0  0  0  0  0  # atno 17394 bound_to 11000
  139.9215  135.0200  156.8080 LP  0  0  0  0  0  0  0  0  0  0  0  0  # atno 17395 bound_to 11000

$$$$
