AV-unprocessed.smi:265|AV-procd|sdf|2028|dock1
  -GOLD-   2262021233D 1   1.00000     0.00000
 Structure written by MMmdl.
 52 56  0  0  0  0  0  0  0  0  1 V2000
  140.6571  142.7939  155.3711 C   0  0  0  0  0  0  0  0  0  0  0  0
  139.5983  141.8047  154.8598 C   0  0  1  0  0  0  0  0  0  0  0  0
  138.7048  142.4327  153.9415 O   0  0  0  0  0  0  0  0  0  0  0  0
  138.4987  141.6050  152.8027 C   0  0  0  0  0  0  0  0  0  0  0  0
  138.9676  140.2163  153.2235 C   0  0  0  0  0  0  0  0  0  0  0  0
  140.1244  140.5289  154.1627 C   0  0  1  0  0  0  0  0  0  0  0  0
  141.2692  140.8292  153.3815 O   0  0  0  0  0  0  0  0  0  0  0  0
  140.5402  139.3675  155.1028 C   0  0  0  0  0  0  0  0  0  0  0  0
  141.3445  138.3283  154.4787 N   0  0  0  0  0  0  0  0  0  0  0  0
  141.0405  137.6197  153.3382 C   0  0  0  0  0  0  0  0  0  0  0  0
  141.9333  136.7406  152.9738 N   0  0  0  0  0  0  0  0  0  0  0  0
  142.9364  136.8582  153.9290 C   0  0  0  0  0  0  0  0  0  0  0  0
  144.1902  136.2157  154.1353 C   0  0  0  0  0  0  0  0  0  0  0  0
  144.6527  135.2298  153.3249 N   0  0  0  0  0  0  0  0  0  0  0  0
  146.1099  135.0724  153.3238 C   0  0  0  0  0  0  0  0  0  0  0  0
  146.5285  133.7291  152.6974 C   0  0  0  0  0  0  0  0  0  0  0  0
  145.9015  133.5826  151.3050 C   0  0  1  0  0  0  0  0  0  0  0  0
  146.1751  132.3146  150.7285 O   0  0  0  0  0  0  0  0  0  0  0  0
  145.7393  132.2025  149.3692 C   0  0  0  0  0  0  0  0  0  0  0  0
  144.3013  132.7223  149.1559 C   0  0  0  0  0  0  0  0  0  0  0  0
  143.7100  132.4741  148.1077 O   0  0  0  0  0  0  0  0  0  0  0  0
  143.7494  133.4761  150.1210 N   0  0  0  0  0  0  0  0  0  0  0  0
  144.3734  133.6926  151.4196 C   0  0  2  0  0  0  0  0  0  0  0  0
  143.9900  135.0503  152.0291 C   0  0  0  0  0  0  0  0  0  0  0  0
  144.9348  136.6261  155.1972 N   0  0  0  0  0  0  0  0  0  0  0  0
  144.4846  137.5894  156.0065 C   0  0  0  0  0  0  0  0  0  0  0  0
  143.3380  138.2678  155.9382 N   0  0  0  0  0  0  0  0  0  0  0  0
  142.5878  137.8649  154.8732 C   0  0  0  0  0  0  0  0  0  0  0  0
  146.2975  134.3680  150.6571 H   0  0  0  0  0  0  0  0  0  0  0  0
  144.0084  132.9020  152.0780 H   0  0  0  0  0  0  0  0  0  0  0  0
  141.3414  142.3086  156.0674 H   0  0  0  0  0  0  0  0  0  0  0  0
  140.1857  143.6254  155.8952 H   0  0  0  0  0  0  0  0  0  0  0  0
  141.2453  143.2133  154.5547 H   0  0  0  0  0  0  0  0  0  0  0  0
  138.9664  141.5211  155.7001 H   0  0  0  0  0  0  0  0  0  0  0  0
  137.4562  141.6166  152.4842 H   0  0  0  0  0  0  0  0  0  0  0  0
  139.1080  141.9819  151.9804 H   0  0  0  0  0  0  0  0  0  0  0  0
  138.1539  139.7255  153.7561 H   0  0  0  0  0  0  0  0  0  0  0  0
  139.2449  139.5829  152.3799 H   0  0  0  0  0  0  0  0  0  0  0  0
  140.9915  141.0096  152.4966 H   0  0  0  0  0  0  0  0  0  0  0  0
  141.1011  139.7597  155.9522 H   0  0  0  0  0  0  0  0  0  0  0  0
  139.6508  138.8954  155.5225 H   0  0  0  0  0  0  0  0  0  0  0  0
  140.1264  137.7729  152.7829 H   0  0  0  0  0  0  0  0  0  0  0  0
  146.5459  135.8953  152.7558 H   0  0  0  0  0  0  0  0  0  0  0  0
  146.5202  135.1402  154.3305 H   0  0  0  0  0  0  0  0  0  0  0  0
  147.6151  133.6692  152.6307 H   0  0  0  0  0  0  0  0  0  0  0  0
  146.2070  132.9078  153.3392 H   0  0  0  0  0  0  0  0  0  0  0  0
  146.4148  132.7704  148.7283 H   0  0  0  0  0  0  0  0  0  0  0  0
  145.8033  131.1588  149.0605 H   0  0  0  0  0  0  0  0  0  0  0  0
  142.8220  133.8486  149.9765 H   0  0  0  0  0  0  0  0  0  0  0  0
  142.9074  135.1003  152.1556 H   0  0  0  0  0  0  0  0  0  0  0  0
  144.2782  135.8609  151.3579 H   0  0  0  0  0  0  0  0  0  0  0  0
  145.1356  137.8533  156.8268 H   0  0  0  0  0  0  0  0  0  0  0  0
  1  2  1  0  0  0  0
  1 31  1  0  0  0  0
  1 32  1  0  0  0  0
  1 33  1  0  0  0  0
  2  6  1  0  0  0  0
  2  3  1  0  0  0  0
  2 34  1  0  0  0  0
  3  4  1  0  0  0  0
  4  5  1  0  0  0  0
  4 35  1  0  0  0  0
  4 36  1  0  0  0  0
  5  6  1  0  0  0  0
  5 37  1  0  0  0  0
  5 38  1  0  0  0  0
  6  7  1  0  0  0  0
  6  8  1  0  0  0  0
  7 39  1  0  0  0  0
  8  9  1  0  0  0  0
  8 40  1  0  0  0  0
  8 41  1  0  0  0  0
  9 28  1  0  0  0  0
  9 10  1  0  0  0  0
 10 11  2  0  0  0  0
 10 42  1  0  0  0  0
 11 12  1  0  0  0  0
 12 28  2  0  0  0  0
 12 13  1  0  0  0  0
 13 14  1  0  0  0  0
 13 25  2  0  0  0  0
 14 24  1  0  0  0  0
 14 15  1  0  0  0  0
 15 16  1  0  0  0  0
 15 43  1  0  0  0  0
 15 44  1  0  0  0  0
 16 17  1  0  0  0  0
 16 45  1  0  0  0  0
 16 46  1  0  0  0  0
 17 29  1  0  0  0  0
 17 23  1  0  0  0  0
 17 18  1  0  0  0  0
 18 19  1  0  0  0  0
 19 20  1  0  0  0  0
 19 47  1  0  0  0  0
 19 48  1  0  0  0  0
 20 21  2  0  0  0  0
 20 22  1  0  0  0  0
 22 23  1  0  0  0  0
 22 49  1  0  0  0  0
 23 30  1  0  0  0  0
 23 24  1  0  0  0  0
 24 50  1  0  0  0  0
 24 51  1  0  0  0  0
 25 26  1  0  0  0  0
 26 27  2  0  0  0  0
 26 52  1  0  0  0  0
 27 28  1  0  0  0  0
M  END
> <s_m_source_file>
AV-unprocessed.smi

> <i_m_source_file_index>
265

> <i_lp_mmshare_version>
43012

> <i_f3d_flags>
0

> <s_epik_input>
W0NIMl0xW0NIMl1PW0NAQEhdKFtDSDNdKVtDQEBdMShbT0hdKVtDSDJdbihbY0hdbjIpYyhjMjMpbltjSF1uYzNOKFtDSDJdW0NIMl00KVtDSDJdW0NAQEhdKFtDQEhdNDUpW05IXUMoPU8pW0NIMl1PNQ==

> <s_epik_cmdline>
J2VwaWtfcHl0aG9uJywgJy1waCcsICc3LjAnLCAnLXRuJywgJzgnLCAnLW1hJywgJzIwMCcsICctbWV0YWxfYmluZGluZycsICctaW1hZScsICc8aW5maWxlLm1hZT4nLCAnLW9tYWUnLCAnPG91dGZpbGUubWFlPic=

> <r_lp_tautomer_probability>
1

> <r_epik_Ionization_Penalty>
0.00221504

> <r_epik_Ionization_Penalty_Charging>
0

> <r_epik_Ionization_Penalty_Neutral>
0.00221504

> <r_epik_State_Penalty>
-0

> <r_epik_Charging_Adjusted_Penalty>
0

> <i_epik_Tot_Q>
0

> <i_epik_Tot_abs_Q>
0

> <r_epik_Metal_State_Penalty>
-0

> <b_epik_Metal_Only>
0

> <s_lp_Force_Field>
OPLS_2005

> <r_lp_Energy>
47.2889

> <b_lp_Chiralities_Consistent>
1

> <s_lp_Variant>
AV-unprocessed.smi:265-14

> <Gold.Version>
5.8.1

> <Gold.Id.Protein>
6NUR|6NUR_protein|mol2

> <Gold.PLP.Fitness>
41.8193

> <Gold.PLP.PLP>
-34.8483

> <Gold.PLP.part.hbond>
-5.0000

> <Gold.PLP.part.metal>
0.0000

> <Gold.PLP.part.buried>
-7.8246

> <Gold.PLP.part.nonpolar>
-22.4785

> <Gold.PLP.part.repulsive>
0.8098

> <Gold.PLP.ligand.clash>
0.0000

> <Gold.PLP.ligand.torsion>
0.7655

> <Gold.PLP.Chemscore.Hbond>
2.6880

> <Gold.PLP.Chemscore.CHOScore>
0.0000

> <Gold.PLP.Chemscore.Metal>
0.0000

> <Gold.Chemscore.Hbonds>
donor molecule, donor type, donor heavy atom, donor atom, acceptor molecule, acceptor atom, score
      L1  H     7    39       P1 10160  1.00
      L1  H    22    49       P1 10186  1.00

> <Gold.PLP.Chemscore.Internal.Correction>
0.4379

> <Gold.Rescore>
     Score         DG    S(hbond)    S(metal)    S(lipo)     H(rot)  DE(clash)    DE(int)     intcor
     11.96     -14.16       1.99        0.00      66.58       2.25       0.15       2.05       ----

> <Gold.Chemscore.Fitness>
11.9574

> <Gold.Chemscore.DG>
-14.1610

> <Gold.Chemscore.ZeroCoef>
-5.4800

> <Gold.Chemscore.Hbond>
1.9878

> <Gold.Chemscore.Metal>
0.0000

> <Gold.Chemscore.Lipo>
66.5790

> <Gold.Chemscore.Internal_Hbond>
0.0000

> <Gold.Chemscore.DEClash>
0.1502

> <Gold.Chemscore.DEInternal>
2.0535

> <Gold.Chemscore.Rot>
2.2453

> <Gold.Chemscore.Internal.Correction>
   9.000000E+99

> <Gold.Chemscore.Hbonds>
donor molecule, donor type, donor heavy atom, donor atom, acceptor molecule, acceptor atom, score
      L1  H     7    39       P1 10160  0.96
      L1  H    22    49       P1 10186  0.99

> <Gold.Chemscore.Hbond.Weighted>
-6.6392

> <Gold.Chemscore.Metal.Weighted>
-0.0000

> <Gold.Chemscore.Lipo.Weighted>
-7.7897

> <Gold.Chemscore.Internal_Hbond.Weighted>
0.0000

> <Gold.Chemscore.DEClash.Weighted>
0.1502

> <Gold.Chemscore.DEInternal.Weighted>
2.0535

> <Gold.Chemscore.Rot.Weighted>
5.7479

> <Gold.Chemscore.Internal.Correction.Weighted>
   9.000000E+99

> <Gold.Protein.RotatedTorsions>
[ 6907 6896 6895 6894 ] final  162.34 input  -60.11 | X-H torsion
[ 7974 7965 7964 7962 ] final   99.95 input  175.53 | X-H torsion
[ 8008 7997 7996 7995 ] final -170.68 input   59.86 | X-H torsion
[ 10167 10162 10161 10158 ] final -156.37 input  -65.29 | X-H torsion
[ 10718 10713 10712 10709 ] final   60.44 input   66.30 | X-H torsion
[ 10763 10752 10751 10750 ] final  -38.18 input  -60.55 | X-H torsion
[ 11005 11000 10999 10996 ] final   60.34 input  -57.11 | X-H torsion

> <Gold.Protein.ActiveResidues>
 VAL166  LYS551  ARG553  GLY616  TRP617  ASP618  TYR619  PRO620  LYS621  CYS622 
 ASP623  PHE694  ASN695  SER759  ASP760  ASP761  ALA762  ILE779  LEU786  VAL792 
 PHE793  MET794  SER795  GLU796  ALA797  LYS798  CYS799  TRP800  GLU811  SER814 

> <Gold.Protein.RotatedAtoms>
  151.9419  133.3640  159.3967 H   0  0  0  0  0  0  0  0  0  0  0  0  # atno 6907 bound_to 6896
  150.6997  134.4430  159.5310 H   0  0  0  0  0  0  0  0  0  0  0  0  # atno 6908 bound_to 6896
  152.2089  134.8520  160.0550 H   0  0  0  0  0  0  0  0  0  0  0  0  # atno 6909 bound_to 6896
  145.3920  139.2361  143.3346 H   0  0  0  0  0  0  0  0  0  0  0  0  # atno 7974 bound_to 7965
  155.9216  140.1075  157.1203 H   0  0  0  0  0  0  0  0  0  0  0  0  # atno 8008 bound_to 7997
  154.4055  140.1255  156.4751 H   0  0  0  0  0  0  0  0  0  0  0  0  # atno 8009 bound_to 7997
  155.7189  140.3470  155.5009 H   0  0  0  0  0  0  0  0  0  0  0  0  # atno 8010 bound_to 7997
  139.6856  143.9507  152.2359 H   0  0  0  0  0  0  0  0  0  0  0  0  # atno 10167 bound_to 10162
  157.5753  130.8939  149.9337 H   0  0  0  0  0  0  0  0  0  0  0  0  # atno 10718 bound_to 10713
  153.9086  135.6795  153.4752 H   0  0  0  0  0  0  0  0  0  0  0  0  # atno 10763 bound_to 10752
  153.1091  135.4792  154.9000 H   0  0  0  0  0  0  0  0  0  0  0  0  # atno 10764 bound_to 10752
  154.7539  135.3192  154.8462 H   0  0  0  0  0  0  0  0  0  0  0  0  # atno 10765 bound_to 10752
  140.0239  134.6112  155.9601 H   0  0  0  0  0  0  0  0  0  0  0  0  # atno 11005 bound_to 11000
  146.2793  140.4605  142.8783 LP  0  0  0  0  0  0  0  0  0  0  0  0  # atno 17320 bound_to 7965
  144.8433  140.6891  143.6215 LP  0  0  0  0  0  0  0  0  0  0  0  0  # atno 17321 bound_to 7965
  139.9309  144.6742  150.8364 LP  0  0  0  0  0  0  0  0  0  0  0  0  # atno 17342 bound_to 10162
  140.7666  143.3309  151.2412 LP  0  0  0  0  0  0  0  0  0  0  0  0  # atno 17343 bound_to 10162
  156.0798  130.3674  150.0604 LP  0  0  0  0  0  0  0  0  0  0  0  0  # atno 17370 bound_to 10713
  156.8751  130.9537  151.3605 LP  0  0  0  0  0  0  0  0  0  0  0  0  # atno 17371 bound_to 10713
  141.1791  133.6544  156.4945 LP  0  0  0  0  0  0  0  0  0  0  0  0  # atno 17394 bound_to 11000
  140.4340  134.7076  157.4957 LP  0  0  0  0  0  0  0  0  0  0  0  0  # atno 17395 bound_to 11000

$$$$
