AV-unprocessed.smi:1711|AV-procd|sdf|6900|dock1
  -GOLD-   22720 8103D 1   1.00000     0.00000
 Structure written by MMmdl.
 37 38  0  0  0  0  0  0  0  0  2 V2000
  147.4098  137.9022  153.1405 O   0  0  0  0  0  0  0  0  0  0  0  0
  146.3719  138.5284  152.9244 C   0  0  0  0  0  0  0  0  0  0  0  0
  145.2500  137.9590  152.4611 N   0  0  0  0  0  0  0  0  0  0  0  0
  145.0992  136.5390  152.1652 C   0  0  0  0  0  0  0  0  0  0  0  0
  145.5812  136.2028  150.7404 C   0  0  0  0  0  0  0  0  0  0  0  0
  145.4242  134.7622  150.4174 N   0  3  0  0  0  0  0  0  0  0  0  0
  146.4969  133.9299  151.0224 C   0  0  0  0  0  0  0  0  0  0  0  0
  146.3930  132.4661  150.5612 C   0  0  0  0  0  0  0  0  0  0  0  0
  145.0106  131.8848  150.8835 C   0  0  0  0  0  0  0  0  0  0  0  0
  143.9161  132.7760  150.2826 C   0  0  0  0  0  0  0  0  0  0  0  0
  144.0729  134.2339  150.7476 C   0  0  0  0  0  0  0  0  0  0  0  0
  146.2110  139.8486  153.1117 N   0  0  0  0  0  0  0  0  0  0  0  0
  147.1695  140.7713  153.6024 C   0  0  0  0  0  0  0  0  0  0  0  0
  148.5777  140.5945  153.5221 C   0  0  0  0  0  0  0  0  0  0  0  0
  149.2252  141.6188  154.0587 N   0  0  0  0  0  0  0  0  0  0  0  0
  148.2439  142.4484  154.4798 N   0  0  0  0  0  0  0  0  0  0  0  0
  146.9766  141.9735  154.2236 C   0  0  0  0  0  0  0  0  0  0  0  0
  148.4531  143.3260  154.9344 H   0  0  0  0  0  0  0  0  0  0  0  0
  144.4416  138.5464  152.3148 H   0  0  0  0  0  0  0  0  0  0  0  0
  145.6347  135.9596  152.9177 H   0  0  0  0  0  0  0  0  0  0  0  0
  144.0449  136.2817  152.2701 H   0  0  0  0  0  0  0  0  0  0  0  0
  144.9928  136.7969  150.0395 H   0  0  0  0  0  0  0  0  0  0  0  0
  146.6214  136.4979  150.5939 H   0  0  0  0  0  0  0  0  0  0  0  0
  147.4743  134.3228  150.7392 H   0  0  0  0  0  0  0  0  0  0  0  0
  146.4341  133.9882  152.1103 H   0  0  0  0  0  0  0  0  0  0  0  0
  146.5748  132.4064  149.4870 H   0  0  0  0  0  0  0  0  0  0  0  0
  147.1689  131.8679  151.0396 H   0  0  0  0  0  0  0  0  0  0  0  0
  144.9275  130.8695  150.4942 H   0  0  0  0  0  0  0  0  0  0  0  0
  144.8808  131.8177  151.9644 H   0  0  0  0  0  0  0  0  0  0  0  0
  143.9639  132.7317  149.1936 H   0  0  0  0  0  0  0  0  0  0  0  0
  142.9328  132.3985  150.5648 H   0  0  0  0  0  0  0  0  0  0  0  0
  143.9072  134.3026  151.8239 H   0  0  0  0  0  0  0  0  0  0  0  0
  143.3012  134.8387  150.2727 H   0  0  0  0  0  0  0  0  0  0  0  0
  145.3065  140.2354  152.8849 H   0  0  0  0  0  0  0  0  0  0  0  0
  149.1399  139.7744  153.1002 H   0  0  0  0  0  0  0  0  0  0  0  0
  146.0875  142.5216  154.4983 H   0  0  0  0  0  0  0  0  0  0  0  0
  145.5378  134.6798  149.4172 H   0  0  0  0  0  0  0  0  0  0  0  0
  1  2  2  0  0  0  0
  2  3  1  0  0  0  0
  2 12  1  0  0  0  0
  3  4  1  0  0  0  0
  3 19  1  0  0  0  0
  4  5  1  0  0  0  0
  4 20  1  0  0  0  0
  4 21  1  0  0  0  0
  5  6  1  0  0  0  0
  5 22  1  0  0  0  0
  5 23  1  0  0  0  0
  6 11  1  0  0  0  0
  6  7  1  0  0  0  0
  6 37  1  0  0  0  0
  7  8  1  0  0  0  0
  7 24  1  0  0  0  0
  7 25  1  0  0  0  0
  8  9  1  0  0  0  0
  8 26  1  0  0  0  0
  8 27  1  0  0  0  0
  9 10  1  0  0  0  0
  9 28  1  0  0  0  0
  9 29  1  0  0  0  0
 10 11  1  0  0  0  0
 10 30  1  0  0  0  0
 10 31  1  0  0  0  0
 11 32  1  0  0  0  0
 11 33  1  0  0  0  0
 12 13  1  0  0  0  0
 12 34  1  0  0  0  0
 13 17  2  0  0  0  0
 13 14  1  0  0  0  0
 14 15  2  0  0  0  0
 14 35  1  0  0  0  0
 15 16  1  0  0  0  0
 16 18  1  0  0  0  0
 16 17  1  0  0  0  0
 17 36  1  0  0  0  0
M  CHG  1   6   1
M  END
> <s_m_source_file>
AV-unprocessed.smi

> <i_m_source_file_index>
1711

> <i_lp_mmshare_version>
43012

> <i_f3d_flags>
0

> <s_epik_input>
W2NIXTFbbkhdbltjSF1jMVtOSF1DKD1PKVtOSF1bQ0gyXVtDSDJdTjJbQ0gyXVtDSDJdW0NIMl1bQ0gyXVtDSDJdMg==

> <s_epik_cmdline>
J2VwaWtfcHl0aG9uJywgJy1waCcsICc3LjAnLCAnLXRuJywgJzgnLCAnLW1hJywgJzIwMCcsICctbWV0YWxfYmluZGluZycsICctaW1hZScsICc8aW5maWxlLm1hZT4nLCAnLW9tYWUnLCAnPG91dGZpbGUubWFlPic=

> <r_lp_tautomer_probability>
0.5

> <r_epik_Ionization_Penalty>
0.00236021

> <r_epik_Ionization_Penalty_Charging>
0.00232067

> <r_epik_Ionization_Penalty_Neutral>
3.95492e-05

> <r_epik_State_Penalty>
0.00160128

> <r_epik_Charging_Adjusted_Penalty>
0.00392194

> <i_epik_Tot_Q>
1

> <i_epik_Tot_abs_Q>
1

> <r_epik_Metal_State_Penalty>
-0

> <b_epik_Metal_Only>
0

> <s_lp_Force_Field>
OPLS_2005

> <r_lp_Energy>
18.9048

> <b_lp_Chiralities_Consistent>
1

> <s_lp_Variant>
AV-unprocessed.smi:1711-1

> <Gold.Version>
5.8.1

> <Gold.Id.Protein>
6NUR|6NUR_protein|mol2

> <Gold.PLP.Fitness>
44.7140

> <Gold.PLP.PLP>
-30.2745

> <Gold.PLP.part.hbond>
-6.9050

> <Gold.PLP.part.metal>
0.0000

> <Gold.PLP.part.buried>
-1.3113

> <Gold.PLP.part.nonpolar>
-27.1043

> <Gold.PLP.part.repulsive>
3.9722

> <Gold.PLP.ligand.clash>
0.0000

> <Gold.PLP.ligand.torsion>
0.4179

> <Gold.PLP.Chemscore.Hbond>
4.4584

> <Gold.PLP.Chemscore.CHOScore>
0.6156

> <Gold.PLP.Chemscore.Metal>
0.0000

> <Gold.Chemscore.Hbonds>
donor molecule, donor type, donor heavy atom, donor atom, acceptor molecule, acceptor atom, score
      L1  H     3    19       P1 10175  0.87
      L1  H     6    37       P1  7921  1.00
      L1  H    12    34       P1 10175  1.00
      L1  H    16    18       P1  8028  1.00
      P1  H  8011  8017       L1    15  0.49
      L1  C    14    35       P1  7957  0.64

> <Gold.PLP.Chemscore.Internal.Correction>
0.0533

> <Gold.Rescore>
     Score         DG    S(hbond)    S(metal)    S(lipo)     H(rot)  DE(clash)    DE(int)     intcor
     19.51     -22.80       3.84        0.00      74.38       1.64       1.64       1.65       ----

> <Gold.Chemscore.Fitness>
19.5103

> <Gold.Chemscore.DG>
-22.7999

> <Gold.Chemscore.ZeroCoef>
-5.4800

> <Gold.Chemscore.Hbond>
3.8387

> <Gold.Chemscore.Metal>
0.0000

> <Gold.Chemscore.Lipo>
74.3834

> <Gold.Chemscore.Internal_Hbond>
0.0000

> <Gold.Chemscore.DEClash>
1.6404

> <Gold.Chemscore.DEInternal>
1.6491

> <Gold.Chemscore.Rot>
1.6423

> <Gold.Chemscore.Internal.Correction>
   9.000000E+99

> <Gold.Chemscore.Hbonds>
donor molecule, donor type, donor heavy atom, donor atom, acceptor molecule, acceptor atom, score
      L1  H     3    19       P1 10175  0.82
      L1  H     6    37       P1  7921  0.98
      L1  H    12    34       P1 10175  0.98
      L1  H    16    18       P1  8028  0.98
      P1  H  8011  8017       L1    15  0.03

> <Gold.Chemscore.Hbond.Weighted>
-12.8213

> <Gold.Chemscore.Metal.Weighted>
-0.0000

> <Gold.Chemscore.Lipo.Weighted>
-8.7029

> <Gold.Chemscore.Internal_Hbond.Weighted>
0.0000

> <Gold.Chemscore.DEClash.Weighted>
1.6404

> <Gold.Chemscore.DEInternal.Weighted>
1.6491

> <Gold.Chemscore.Rot.Weighted>
4.2043

> <Gold.Chemscore.Internal.Correction.Weighted>
   9.000000E+99

> <Gold.Protein.RotatedTorsions>
[ 6907 6896 6895 6894 ] final  115.15 input  -60.11 | X-H torsion
[ 7974 7965 7964 7962 ] final -172.32 input  175.53 | X-H torsion
[ 8008 7997 7996 7995 ] final -162.51 input   59.86 | X-H torsion
[ 10167 10162 10161 10158 ] final  -65.59 input  -65.29 | X-H torsion
[ 10718 10713 10712 10709 ] final  -64.91 input   66.30 | X-H torsion
[ 10763 10752 10751 10750 ] final   53.15 input  -60.55 | X-H torsion
[ 11005 11000 10999 10996 ] final  -46.06 input  -57.11 | X-H torsion

> <Gold.Protein.ActiveResidues>
 VAL166  LYS551  ARG553  GLY616  TRP617  ASP618  TYR619  PRO620  LYS621  CYS622 
 ASP623  PHE694  ASN695  SER759  ASP760  ASP761  ALA762  ILE779  LEU786  VAL792 
 PHE793  MET794  SER795  GLU796  ALA797  LYS798  CYS799  TRP800  GLU811  SER814 

> <Gold.Protein.RotatedAtoms>
  152.4759  133.8138  159.7016 H   0  0  0  0  0  0  0  0  0  0  0  0  # atno 6907 bound_to 6896
  150.8776  133.7407  159.2948 H   0  0  0  0  0  0  0  0  0  0  0  0  # atno 6908 bound_to 6896
  151.4922  135.1061  159.9858 H   0  0  0  0  0  0  0  0  0  0  0  0  # atno 6909 bound_to 6896
  144.7147  140.1790  143.6360 H   0  0  0  0  0  0  0  0  0  0  0  0  # atno 7974 bound_to 7965
  155.8079  140.0901  157.1920 H   0  0  0  0  0  0  0  0  0  0  0  0  # atno 8008 bound_to 7997
  154.3980  140.1460  156.3411 H   0  0  0  0  0  0  0  0  0  0  0  0  # atno 8009 bound_to 7997
  155.8395  140.3439  155.5626 H   0  0  0  0  0  0  0  0  0  0  0  0  # atno 8010 bound_to 7997
  140.5719  143.2318  151.6521 H   0  0  0  0  0  0  0  0  0  0  0  0  # atno 10167 bound_to 10162
  156.0701  130.4240  150.1487 H   0  0  0  0  0  0  0  0  0  0  0  0  # atno 10718 bound_to 10713
  152.9793  135.5788  154.4695 H   0  0  0  0  0  0  0  0  0  0  0  0  # atno 10763 bound_to 10752
  154.4259  135.2772  155.1946 H   0  0  0  0  0  0  0  0  0  0  0  0  # atno 10764 bound_to 10752
  154.3675  135.6175  153.5776 H   0  0  0  0  0  0  0  0  0  0  0  0  # atno 10765 bound_to 10752
  141.0555  133.6727  156.3102 H   0  0  0  0  0  0  0  0  0  0  0  0  # atno 11005 bound_to 11000
  145.8874  139.2356  143.1570 LP  0  0  0  0  0  0  0  0  0  0  0  0  # atno 17320 bound_to 7965
  145.9937  140.8581  143.0053 LP  0  0  0  0  0  0  0  0  0  0  0  0  # atno 17321 bound_to 7965
  139.5122  144.3484  152.0675 LP  0  0  0  0  0  0  0  0  0  0  0  0  # atno 17342 bound_to 10162
  140.2623  144.4054  150.6181 LP  0  0  0  0  0  0  0  0  0  0  0  0  # atno 17343 bound_to 10162
  156.9540  130.9784  151.3492 LP  0  0  0  0  0  0  0  0  0  0  0  0  # atno 17370 bound_to 10713
  157.5767  130.8347  149.8465 LP  0  0  0  0  0  0  0  0  0  0  0  0  # atno 17371 bound_to 10713
  140.5972  134.5591  157.5511 LP  0  0  0  0  0  0  0  0  0  0  0  0  # atno 17394 bound_to 11000
  139.9387  134.7828  156.0736 LP  0  0  0  0  0  0  0  0  0  0  0  0  # atno 17395 bound_to 11000

$$$$
