AV-unprocessed.smi:290|AV-procd|sdf|2235|dock9
  -GOLD-   2262022103D 1   1.00000     0.00000
 Structure written by MMmdl.
 59 62  0  0  0  0  0  0  0  0  2 V2000
  152.8268  137.9596  158.5040 C   0  0  0  0  0  0  0  0  0  0  0  0
  152.7897  137.9946  156.9692 C   0  0  2  0  0  0  0  0  0  0  0  0
  152.7049  139.3366  156.4968 O   0  0  0  0  0  0  0  0  0  0  0  0
  151.9363  139.3883  155.2981 C   0  0  0  0  0  0  0  0  0  0  0  0
  151.6483  137.9362  154.9282 C   0  0  0  0  0  0  0  0  0  0  0  0
  151.6311  137.2437  156.2855 C   0  0  1  0  0  0  0  0  0  0  0  0
  151.9654  135.8805  156.1071 O   0  0  0  0  0  0  0  0  0  0  0  0
  150.2750  137.3566  157.0357 C   0  0  0  0  0  0  0  0  0  0  0  0
  149.1466  136.7909  156.3131 N   0  0  0  0  0  0  0  0  0  0  0  0
  148.5686  135.5599  156.5244 C   0  0  0  0  0  0  0  0  0  0  0  0
  147.5641  135.2751  155.7418 N   0  0  0  0  0  0  0  0  0  0  0  0
  147.4521  136.3860  154.9136 C   0  0  0  0  0  0  0  0  0  0  0  0
  146.5875  136.7498  153.8413 C   0  0  0  0  0  0  0  0  0  0  0  0
  145.5666  136.0007  153.3682 N   0  0  0  0  0  0  0  0  0  0  0  0
  144.5316  136.6757  152.5875 C   0  0  0  0  0  0  0  0  0  0  0  0
  144.3487  135.8592  151.3028 C   0  0  0  0  0  0  0  0  0  0  0  0
  145.6543  135.0614  151.1932 C   0  0  2  0  0  0  0  0  0  0  0  0
  145.6081  133.8530  150.3180 N   0  3  1  0  0  0  0  0  0  0  0  0
  146.7036  132.8923  150.6073 C   0  0  0  0  0  0  0  0  0  0  0  0
  144.2717  133.1955  150.3371 C   0  0  0  0  0  0  0  0  0  0  0  0
  143.9218  132.4890  149.0149 C   0  0  0  0  0  0  0  0  0  0  0  0
  142.6769  131.8335  149.1245 O   0  0  0  0  0  0  0  0  0  0  0  0
  145.9761  134.7831  152.6771 C   0  0  2  0  0  0  0  0  0  0  0  0
  145.2335  133.5723  153.2740 C   0  0  0  0  0  0  0  0  0  0  0  0
  146.7660  137.9633  153.2654 N   0  0  0  0  0  0  0  0  0  0  0  0
  147.7438  138.7687  153.6908 C   0  0  0  0  0  0  0  0  0  0  0  0
  148.6306  138.5621  154.6667 N   0  0  0  0  0  0  0  0  0  0  0  0
  148.4412  137.3491  155.2613 C   0  0  0  0  0  0  0  0  0  0  0  0
  146.4163  135.7287  150.7881 H   0  0  0  0  0  0  0  0  0  0  0  0
  147.0485  134.6217  152.7994 H   0  0  0  0  0  0  0  0  0  0  0  0
  152.8536  136.9339  158.8725 H   0  0  0  0  0  0  0  0  0  0  0  0
  151.9598  138.4549  158.9413 H   0  0  0  0  0  0  0  0  0  0  0  0
  153.7150  138.4694  158.8779 H   0  0  0  0  0  0  0  0  0  0  0  0
  153.7353  137.6000  156.5919 H   0  0  0  0  0  0  0  0  0  0  0  0
  151.0089  139.9246  155.5007 H   0  0  0  0  0  0  0  0  0  0  0  0
  152.4680  139.9182  154.5075 H   0  0  0  0  0  0  0  0  0  0  0  0
  150.7408  137.8136  154.3387 H   0  0  0  0  0  0  0  0  0  0  0  0
  152.4756  137.5585  154.3245 H   0  0  0  0  0  0  0  0  0  0  0  0
  151.2318  135.4424  155.7029 H   0  0  0  0  0  0  0  0  0  0  0  0
  150.3333  136.8574  158.0035 H   0  0  0  0  0  0  0  0  0  0  0  0
  150.0458  138.4015  157.2487 H   0  0  0  0  0  0  0  0  0  0  0  0
  148.9136  134.8791  157.2890 H   0  0  0  0  0  0  0  0  0  0  0  0
  143.6028  136.7163  153.1571 H   0  0  0  0  0  0  0  0  0  0  0  0
  144.8049  137.7046  152.3535 H   0  0  0  0  0  0  0  0  0  0  0  0
  143.4974  135.1869  151.4164 H   0  0  0  0  0  0  0  0  0  0  0  0
  144.1629  136.4956  150.4369 H   0  0  0  0  0  0  0  0  0  0  0  0
  146.6553  132.5482  151.6412 H   0  0  0  0  0  0  0  0  0  0  0  0
  147.6826  133.3413  150.4417 H   0  0  0  0  0  0  0  0  0  0  0  0
  146.6590  132.0185  149.9597 H   0  0  0  0  0  0  0  0  0  0  0  0
  144.2355  132.4833  151.1627 H   0  0  0  0  0  0  0  0  0  0  0  0
  143.4880  133.9249  150.5406 H   0  0  0  0  0  0  0  0  0  0  0  0
  143.9050  133.1710  148.1662 H   0  0  0  0  0  0  0  0  0  0  0  0
  144.6796  131.7373  148.7930 H   0  0  0  0  0  0  0  0  0  0  0  0
  142.0716  132.4070  149.5702 H   0  0  0  0  0  0  0  0  0  0  0  0
  145.5412  132.6405  152.8018 H   0  0  0  0  0  0  0  0  0  0  0  0
  144.1524  133.6607  153.1668 H   0  0  0  0  0  0  0  0  0  0  0  0
  145.4495  133.4767  154.3386 H   0  0  0  0  0  0  0  0  0  0  0  0
  147.8260  139.7153  153.1770 H   0  0  0  0  0  0  0  0  0  0  0  0
  145.7521  134.1838  149.3742 H   0  0  0  0  0  0  0  0  0  0  0  0
  1  2  1  0  0  0  0
  1 31  1  0  0  0  0
  1 32  1  0  0  0  0
  1 33  1  0  0  0  0
  2  6  1  0  0  0  0
  2  3  1  0  0  0  0
  2 34  1  0  0  0  0
  3  4  1  0  0  0  0
  4  5  1  0  0  0  0
  4 35  1  0  0  0  0
  4 36  1  0  0  0  0
  5  6  1  0  0  0  0
  5 37  1  0  0  0  0
  5 38  1  0  0  0  0
  6  7  1  0  0  0  0
  6  8  1  0  0  0  0
  7 39  1  0  0  0  0
  8  9  1  0  0  0  0
  8 40  1  0  0  0  0
  8 41  1  0  0  0  0
  9 28  1  0  0  0  0
  9 10  1  0  0  0  0
 10 11  2  0  0  0  0
 10 42  1  0  0  0  0
 11 12  1  0  0  0  0
 12 28  2  0  0  0  0
 12 13  1  0  0  0  0
 13 14  1  0  0  0  0
 13 25  2  0  0  0  0
 14 23  1  0  0  0  0
 14 15  1  0  0  0  0
 15 16  1  0  0  0  0
 15 43  1  0  0  0  0
 15 44  1  0  0  0  0
 16 17  1  0  0  0  0
 16 45  1  0  0  0  0
 16 46  1  0  0  0  0
 17 29  1  0  0  0  0
 17 18  1  0  0  0  0
 17 23  1  0  0  0  0
 18 19  1  0  0  0  0
 18 20  1  0  0  0  0
 18 59  1  0  0  0  0
 19 47  1  0  0  0  0
 19 48  1  0  0  0  0
 19 49  1  0  0  0  0
 20 21  1  0  0  0  0
 20 50  1  0  0  0  0
 20 51  1  0  0  0  0
 21 22  1  0  0  0  0
 21 52  1  0  0  0  0
 21 53  1  0  0  0  0
 22 54  1  0  0  0  0
 23 30  1  0  0  0  0
 23 24  1  0  0  0  0
 24 55  1  0  0  0  0
 24 56  1  0  0  0  0
 24 57  1  0  0  0  0
 25 26  1  0  0  0  0
 26 27  2  0  0  0  0
 26 58  1  0  0  0  0
 27 28  1  0  0  0  0
M  CHG  1  18   1
M  END
> <s_m_source_file>
AV-unprocessed.smi

> <i_m_source_file_index>
290

> <i_lp_mmshare_version>
43012

> <i_f3d_flags>
0

> <s_epik_input>
W0NIMl0xW0NIMl1PW0NAQEhdKFtDSDNdKVtDQEBdMShbT0hdKVtDSDJdbihbY0hdbjIpYyhjMjMpbltjSF1uYzNONFtDSDJdW0NIMl1bQ0BIXShbQ0BIXTRbQ0gzXSlOKFtDSDNdKVtDSDJdW0NIMl1bT0hd

> <s_epik_cmdline>
J2VwaWtfcHl0aG9uJywgJy1waCcsICc3LjAnLCAnLXRuJywgJzgnLCAnLW1hJywgJzIwMCcsICctbWV0YWxfYmluZGluZycsICctaW1hZScsICc8aW5maWxlLm1hZT4nLCAnLW9tYWUnLCAnPG91dGZpbGUubWFlPic=

> <r_lp_tautomer_probability>
1

> <r_epik_Ionization_Penalty>
0.0036983

> <r_epik_Ionization_Penalty_Charging>
0.0032725

> <r_epik_Ionization_Penalty_Neutral>
0.000425798

> <r_epik_State_Penalty>
-0

> <r_epik_Charging_Adjusted_Penalty>
0.0032725

> <i_epik_Tot_Q>
1

> <i_epik_Tot_abs_Q>
1

> <r_epik_Metal_State_Penalty>
-0

> <b_epik_Metal_Only>
0

> <s_lp_Force_Field>
OPLS_2005

> <r_lp_Energy>
64.7341

> <b_lp_Chiralities_Consistent>
1

> <s_lp_Variant>
AV-unprocessed.smi:290-21

> <Gold.Version>
5.8.1

> <Gold.Id.Protein>
6NUR|6NUR_protein|mol2

> <Gold.PLP.Fitness>
49.1677

> <Gold.PLP.PLP>
-34.2436

> <Gold.PLP.part.hbond>
-6.0000

> <Gold.PLP.part.metal>
0.0000

> <Gold.PLP.part.buried>
-2.0136

> <Gold.PLP.part.nonpolar>
-27.0129

> <Gold.PLP.part.repulsive>
1.0259

> <Gold.PLP.ligand.clash>
0.0000

> <Gold.PLP.ligand.torsion>
1.3712

> <Gold.PLP.Chemscore.Hbond>
4.9913

> <Gold.PLP.Chemscore.CHOScore>
0.8075

> <Gold.PLP.Chemscore.Metal>
0.0000

> <Gold.Chemscore.Hbonds>
donor molecule, donor type, donor heavy atom, donor atom, acceptor molecule, acceptor atom, score
      L1  H    18    59       P1  7921  1.00
      L1  H    22    54       P1 10186  0.39
      P1  H  7997  8008       L1     3  1.00
      P1  H 10752 10764       L1     7  1.00
      P1  H 10785 10796       L1    22  1.00
      L1  C    26    58       P1  7957  0.46

> <Gold.PLP.Chemscore.Internal.Correction>
0.2702

> <Gold.Rescore>
     Score         DG    S(hbond)    S(metal)    S(lipo)     H(rot)  DE(clash)    DE(int)     intcor
     16.37     -17.99       3.60        0.00      84.21       3.67       0.28       1.34       ----

> <Gold.Chemscore.Fitness>
16.3728

> <Gold.Chemscore.DG>
-17.9879

> <Gold.Chemscore.ZeroCoef>
-5.4800

> <Gold.Chemscore.Hbond>
3.6049

> <Gold.Chemscore.Metal>
0.0000

> <Gold.Chemscore.Lipo>
84.2059

> <Gold.Chemscore.Internal_Hbond>
0.0000

> <Gold.Chemscore.DEClash>
0.2755

> <Gold.Chemscore.DEInternal>
1.3397

> <Gold.Chemscore.Rot>
3.6658

> <Gold.Chemscore.Internal.Correction>
   9.000000E+99

> <Gold.Chemscore.Hbonds>
donor molecule, donor type, donor heavy atom, donor atom, acceptor molecule, acceptor atom, score
      L1  H    18    59       P1  7921  0.60
      L1  H    22    54       P1 10186  0.37
      P1  H  7997  8008       L1     3  0.72
      P1  H 10752 10764       L1     7  0.34
      P1  H 10785 10796       L1    22  0.26

> <Gold.Chemscore.Hbond.Weighted>
-12.0403

> <Gold.Chemscore.Metal.Weighted>
-0.0000

> <Gold.Chemscore.Lipo.Weighted>
-9.8521

> <Gold.Chemscore.Internal_Hbond.Weighted>
0.0000

> <Gold.Chemscore.DEClash.Weighted>
0.2755

> <Gold.Chemscore.DEInternal.Weighted>
1.3397

> <Gold.Chemscore.Rot.Weighted>
9.3844

> <Gold.Chemscore.Internal.Correction.Weighted>
   9.000000E+99

> <Gold.Protein.RotatedTorsions>
[ 6907 6896 6895 6894 ] final -111.47 input  -60.11 | X-H torsion
[ 7974 7965 7964 7962 ] final   69.88 input  175.53 | X-H torsion
[ 8008 7997 7996 7995 ] final  -44.36 input   59.86 | X-H torsion
[ 10167 10162 10161 10158 ] final   53.30 input  -65.29 | X-H torsion
[ 10718 10713 10712 10709 ] final  158.80 input   66.30 | X-H torsion
[ 10763 10752 10751 10750 ] final  -22.67 input  -60.55 | X-H torsion
[ 11005 11000 10999 10996 ] final  -86.51 input  -57.11 | X-H torsion

> <Gold.Protein.ActiveResidues>
 VAL166  LYS551  ARG553  GLY616  TRP617  ASP618  TYR619  PRO620  LYS621  CYS622 
 ASP623  PHE694  ASN695  SER759  ASP760  ASP761  ALA762  ILE779  LEU786  VAL792 
 PHE793  MET794  SER795  GLU796  ALA797  LYS798  CYS799  TRP800  GLU811  SER814 

> <Gold.Protein.RotatedAtoms>
  150.7693  133.9230  159.3403 H   0  0  0  0  0  0  0  0  0  0  0  0  # atno 6907 bound_to 6896
  151.7120  135.0909  160.0279 H   0  0  0  0  0  0  0  0  0  0  0  0  # atno 6908 bound_to 6896
  152.3703  133.6372  159.6118 H   0  0  0  0  0  0  0  0  0  0  0  0  # atno 6909 bound_to 6896
  145.7851  139.2906  143.1243 H   0  0  0  0  0  0  0  0  0  0  0  0  # atno 7974 bound_to 7965
  154.3997  140.1424  156.3671 H   0  0  0  0  0  0  0  0  0  0  0  0  # atno 8008 bound_to 7997
  155.8127  140.3472  155.5446 H   0  0  0  0  0  0  0  0  0  0  0  0  # atno 8009 bound_to 7997
  155.8370  140.0921  157.1748 H   0  0  0  0  0  0  0  0  0  0  0  0  # atno 8010 bound_to 7997
  140.2423  144.3570  150.6376 H   0  0  0  0  0  0  0  0  0  0  0  0  # atno 10167 bound_to 10162
  157.1730  131.0614  151.2173 H   0  0  0  0  0  0  0  0  0  0  0  0  # atno 10718 bound_to 10713
  153.6556  135.6979  153.5194 H   0  0  0  0  0  0  0  0  0  0  0  0  # atno 10763 bound_to 10752
  153.2672  135.4226  155.0951 H   0  0  0  0  0  0  0  0  0  0  0  0  # atno 10764 bound_to 10752
  154.8465  135.3569  154.6101 H   0  0  0  0  0  0  0  0  0  0  0  0  # atno 10765 bound_to 10752
  141.1629  133.7458  156.9172 H   0  0  0  0  0  0  0  0  0  0  0  0  # atno 11005 bound_to 11000
  146.0035  140.8499  143.0007 LP  0  0  0  0  0  0  0  0  0  0  0  0  # atno 17320 bound_to 7965
  144.6790  140.2386  143.7346 LP  0  0  0  0  0  0  0  0  0  0  0  0  # atno 17321 bound_to 7965
  140.6104  143.2169  151.6897 LP  0  0  0  0  0  0  0  0  0  0  0  0  # atno 17342 bound_to 10162
  139.5073  144.3650  152.0526 LP  0  0  0  0  0  0  0  0  0  0  0  0  # atno 17343 bound_to 10162
  157.4025  130.7341  149.6778 LP  0  0  0  0  0  0  0  0  0  0  0  0  # atno 17370 bound_to 10713
  155.9735  130.4117  150.3993 LP  0  0  0  0  0  0  0  0  0  0  0  0  # atno 17371 bound_to 10713
  140.1476  134.9251  157.2550 LP  0  0  0  0  0  0  0  0  0  0  0  0  # atno 17394 bound_to 11000
  140.2761  134.3404  155.7358 LP  0  0  0  0  0  0  0  0  0  0  0  0  # atno 17395 bound_to 11000

$$$$
