AV-unprocessed.smi:67|AV-procd|sdf|638|dock8
  -GOLD-   2262016533D 1   1.00000     0.00000
 Structure written by MMmdl.
 48 50  0  0  0  0  0  0  0  0  2 V2000
  146.7942  135.4038  152.7298 O   0  0  0  0  0  0  0  0  0  0  0  0
  145.9731  136.4187  153.2748 C   0  0  2  0  0  0  0  0  0  0  0  0
  146.6120  136.9480  154.5866 C   0  0  0  0  0  0  0  0  0  0  0  0
  147.9568  137.5711  154.4249 N   0  3  2  0  0  0  0  0  0  0  0  0
  148.8095  137.3510  155.6235 C   0  0  0  0  0  0  0  0  0  0  0  0
  150.2407  137.8732  155.4105 C   0  0  0  0  0  0  0  0  0  0  0  0
  150.2485  139.3622  155.0152 C   0  0  2  0  0  0  0  0  0  0  0  0
  149.7475  140.1828  156.0686 O   0  0  0  0  0  0  0  0  0  0  0  0
  150.5902  140.6084  157.0753 C   0  0  0  0  0  0  0  0  0  0  0  0
  151.2723  139.6042  157.7914 C   0  0  0  0  0  0  0  0  0  0  0  0
  152.1520  139.9362  158.8380 C   0  0  0  0  0  0  0  0  0  0  0  0
  152.3581  141.2839  159.1840 C   0  0  0  0  0  0  0  0  0  0  0  0
  151.6814  142.3057  158.4844 C   0  0  0  0  0  0  0  0  0  0  0  0
  151.8961  143.7697  158.8387 C   0  0  0  0  0  0  0  0  0  0  0  0
  150.7550  144.3088  159.2687 F   0  0  0  0  0  0  0  0  0  0  0  0
  152.8142  143.9167  159.7945 F   0  0  0  0  0  0  0  0  0  0  0  0
  152.2995  144.4284  157.7529 F   0  0  0  0  0  0  0  0  0  0  0  0
  150.8049  141.9640  157.4318 C   0  0  0  0  0  0  0  0  0  0  0  0
  149.3360  139.5612  153.7975 C   0  0  0  0  0  0  0  0  0  0  0  0
  147.9213  139.0085  154.0428 C   0  0  0  0  0  0  0  0  0  0  0  0
  144.5159  135.9385  153.4324 C   0  0  0  0  0  0  0  0  0  0  0  0
  143.7417  136.6665  152.3355 C   0  0  0  0  0  0  0  0  0  0  0  0
  144.4814  137.8958  152.1084 N   0  0  0  0  0  0  0  0  0  0  0  0
  145.8853  137.5251  152.2021 C   0  0  0  0  0  0  0  0  0  0  0  0
  147.6720  135.7417  152.6355 H   0  0  0  0  0  0  0  0  0  0  0  0
  145.9391  137.6333  155.1049 H   0  0  0  0  0  0  0  0  0  0  0  0
  146.7275  136.0897  155.2505 H   0  0  0  0  0  0  0  0  0  0  0  0
  148.3557  137.8396  156.4874 H   0  0  0  0  0  0  0  0  0  0  0  0
  148.8566  136.2858  155.8531 H   0  0  0  0  0  0  0  0  0  0  0  0
  150.8291  137.7055  156.3120 H   0  0  0  0  0  0  0  0  0  0  0  0
  150.7220  137.2901  154.6241 H   0  0  0  0  0  0  0  0  0  0  0  0
  151.2497  139.6815  154.7253 H   0  0  0  0  0  0  0  0  0  0  0  0
  151.1200  138.5660  157.5346 H   0  0  0  0  0  0  0  0  0  0  0  0
  152.6696  139.1557  159.3760 H   0  0  0  0  0  0  0  0  0  0  0  0
  153.0388  141.5243  159.9870 H   0  0  0  0  0  0  0  0  0  0  0  0
  150.3102  142.7676  156.9095 H   0  0  0  0  0  0  0  0  0  0  0  0
  149.2834  140.6199  153.5407 H   0  0  0  0  0  0  0  0  0  0  0  0
  149.7726  139.0594  152.9327 H   0  0  0  0  0  0  0  0  0  0  0  0
  147.3517  139.1481  153.1269 H   0  0  0  0  0  0  0  0  0  0  0  0
  147.4177  139.5835  154.8215 H   0  0  0  0  0  0  0  0  0  0  0  0
  144.4098  134.8551  153.3616 H   0  0  0  0  0  0  0  0  0  0  0  0
  144.1092  136.2407  154.3980 H   0  0  0  0  0  0  0  0  0  0  0  0
  143.7392  136.0648  151.4255 H   0  0  0  0  0  0  0  0  0  0  0  0
  142.7044  136.8583  152.6107 H   0  0  0  0  0  0  0  0  0  0  0  0
  144.2674  138.5427  152.8605 H   0  0  0  0  0  0  0  0  0  0  0  0
  146.5127  138.3875  152.4289 H   0  0  0  0  0  0  0  0  0  0  0  0
  146.2114  137.1453  151.2321 H   0  0  0  0  0  0  0  0  0  0  0  0
  148.4066  137.0794  153.6658 H   0  0  0  0  0  0  0  0  0  0  0  0
  1  2  1  0  0  0  0
  1 25  1  0  0  0  0
  2 24  1  0  0  0  0
  2  3  1  0  0  0  0
  2 21  1  0  0  0  0
  3  4  1  0  0  0  0
  3 26  1  0  0  0  0
  3 27  1  0  0  0  0
  4 20  1  0  0  0  0
  4  5  1  0  0  0  0
  4 48  1  0  0  0  0
  5  6  1  0  0  0  0
  5 28  1  0  0  0  0
  5 29  1  0  0  0  0
  6  7  1  0  0  0  0
  6 30  1  0  0  0  0
  6 31  1  0  0  0  0
  7  8  1  0  0  0  0
  7 19  1  0  0  0  0
  7 32  1  0  0  0  0
  8  9  1  0  0  0  0
  9 18  1  0  0  0  0
  9 10  2  0  0  0  0
 10 11  1  0  0  0  0
 10 33  1  0  0  0  0
 11 12  2  0  0  0  0
 11 34  1  0  0  0  0
 12 13  1  0  0  0  0
 12 35  1  0  0  0  0
 13 14  1  0  0  0  0
 13 18  2  0  0  0  0
 14 15  1  0  0  0  0
 14 16  1  0  0  0  0
 14 17  1  0  0  0  0
 18 36  1  0  0  0  0
 19 20  1  0  0  0  0
 19 37  1  0  0  0  0
 19 38  1  0  0  0  0
 20 39  1  0  0  0  0
 20 40  1  0  0  0  0
 21 22  1  0  0  0  0
 21 41  1  0  0  0  0
 21 42  1  0  0  0  0
 22 23  1  0  0  0  0
 22 43  1  0  0  0  0
 22 44  1  0  0  0  0
 23 24  1  0  0  0  0
 23 45  1  0  0  0  0
 24 46  1  0  0  0  0
 24 47  1  0  0  0  0
M  CHG  1   4   1
M  END
> <s_m_source_file>
AV-unprocessed.smi

> <i_m_source_file_index>
67

> <i_lp_mmshare_version>
43012

> <i_f3d_flags>
0

> <s_epik_input>
W0NIMl0xW05IXVtDSDJdW0NIMl1bQ0BAXTEoW09IXSlbQ0gyXU4yW0NIMl1bQ0gyXVtDSF0oW0NIMl1bQ0gyXTIpT2MzW2NIXVtjSF1bY0hdYyhDKEYpKEYpRilbY0hdMw==

> <s_epik_cmdline>
J2VwaWtfcHl0aG9uJywgJy1waCcsICc3LjAnLCAnLXRuJywgJzgnLCAnLW1hJywgJzIwMCcsICctbWV0YWxfYmluZGluZycsICctaW1hZScsICc8aW5maWxlLm1hZT4nLCAnLW9tYWUnLCAnPG91dGZpbGUubWFlPic=

> <r_epik_Ionization_Penalty>
2.37709

> <r_epik_Ionization_Penalty_Charging>
0.0305656

> <r_epik_Ionization_Penalty_Neutral>
2.34653

> <r_epik_State_Penalty>
2.56959

> <r_epik_Charging_Adjusted_Penalty>
2.60016

> <i_epik_Tot_Q>
1

> <i_epik_Tot_abs_Q>
1

> <r_epik_Metal_State_Penalty>
2.56925

> <b_epik_Metal_Only>
0

> <s_lp_Force_Field>
OPLS_2005

> <r_lp_Energy>
52.4549

> <b_lp_Chiralities_Consistent>
1

> <s_lp_Variant>
AV-unprocessed.smi:67-10

> <Gold.Version>
5.8.1

> <Gold.Id.Protein>
6NUR|6NUR_protein|mol2

> <Gold.PLP.Fitness>
49.4661

> <Gold.PLP.PLP>
-40.2758

> <Gold.PLP.part.hbond>
-3.4241

> <Gold.PLP.part.metal>
0.0000

> <Gold.PLP.part.buried>
-2.1687

> <Gold.PLP.part.nonpolar>
-34.8549

> <Gold.PLP.part.repulsive>
0.0194

> <Gold.PLP.ligand.clash>
0.3316

> <Gold.PLP.ligand.torsion>
0.6981

> <Gold.PLP.Chemscore.Hbond>
3.4222

> <Gold.PLP.Chemscore.CHOScore>
0.0000

> <Gold.PLP.Chemscore.Metal>
0.0000

> <Gold.Chemscore.Hbonds>
donor molecule, donor type, donor heavy atom, donor atom, acceptor molecule, acceptor atom, score
      L1  H     1    25       P1  7948  1.00
      L1  H     4    48       P1  7948  1.85
      L1  H    23    45       P1 10175  0.41

> <Gold.PLP.Chemscore.Internal.Correction>
0.6513

> <Gold.Rescore>
     Score         DG    S(hbond)    S(metal)    S(lipo)     H(rot)  DE(clash)    DE(int)     intcor
     16.70     -19.13       2.54        0.00      91.83       2.17       1.61       0.82       ----

> <Gold.Chemscore.Fitness>
16.6959

> <Gold.Chemscore.DG>
-19.1324

> <Gold.Chemscore.ZeroCoef>
-5.4800

> <Gold.Chemscore.Hbond>
2.5367

> <Gold.Chemscore.Metal>
0.0000

> <Gold.Chemscore.Lipo>
91.8262

> <Gold.Chemscore.Internal_Hbond>
0.0000

> <Gold.Chemscore.DEClash>
1.6140

> <Gold.Chemscore.DEInternal>
0.8224

> <Gold.Chemscore.Rot>
2.1734

> <Gold.Chemscore.Internal.Correction>
   9.000000E+99

> <Gold.Chemscore.Hbonds>
donor molecule, donor type, donor heavy atom, donor atom, acceptor molecule, acceptor atom, score
      L1  H     1    25       P1  7948  0.94
      L1  H     4    48       P1  7948  0.89
      L1  H    23    45       P1 10175  0.39

> <Gold.Chemscore.Hbond.Weighted>
-8.4727

> <Gold.Chemscore.Metal.Weighted>
-0.0000

> <Gold.Chemscore.Lipo.Weighted>
-10.7437

> <Gold.Chemscore.Internal_Hbond.Weighted>
0.0000

> <Gold.Chemscore.DEClash.Weighted>
1.6140

> <Gold.Chemscore.DEInternal.Weighted>
0.8224

> <Gold.Chemscore.Rot.Weighted>
5.5640

> <Gold.Chemscore.Internal.Correction.Weighted>
   9.000000E+99

> <Gold.Protein.RotatedTorsions>
[ 6907 6896 6895 6894 ] final  -92.79 input  -60.11 | X-H torsion
[ 7974 7965 7964 7962 ] final -166.47 input  175.53 | X-H torsion
[ 8008 7997 7996 7995 ] final   71.72 input   59.86 | X-H torsion
[ 10167 10162 10161 10158 ] final  171.97 input  -65.29 | X-H torsion
[ 10718 10713 10712 10709 ] final -152.08 input   66.30 | X-H torsion
[ 10763 10752 10751 10750 ] final   68.71 input  -60.55 | X-H torsion
[ 11005 11000 10999 10996 ] final  -49.63 input  -57.11 | X-H torsion

> <Gold.Protein.ActiveResidues>
 VAL166  LYS551  ARG553  GLY616  TRP617  ASP618  TYR619  PRO620  LYS621  CYS622 
 ASP623  PHE694  ASN695  SER759  ASP760  ASP761  ALA762  ILE779  LEU786  VAL792 
 PHE793  MET794  SER795  GLU796  ALA797  LYS798  CYS799  TRP800  GLU811  SER814 

> <Gold.Protein.RotatedAtoms>
  150.6912  134.2067  159.4342 H   0  0  0  0  0  0  0  0  0  0  0  0  # atno 6907 bound_to 6896
  152.0031  134.9915  160.0575 H   0  0  0  0  0  0  0  0  0  0  0  0  # atno 6908 bound_to 6896
  152.1560  133.4517  159.4874 H   0  0  0  0  0  0  0  0  0  0  0  0  # atno 6909 bound_to 6896
  144.7244  140.2661  143.6257 H   0  0  0  0  0  0  0  0  0  0  0  0  # atno 7974 bound_to 7965
  155.7581  140.3487  155.5184 H   0  0  0  0  0  0  0  0  0  0  0  0  # atno 8008 bound_to 7997
  155.8941  140.1023  157.1419 H   0  0  0  0  0  0  0  0  0  0  0  0  # atno 8009 bound_to 7997
  154.4036  140.1299  156.4339 H   0  0  0  0  0  0  0  0  0  0  0  0  # atno 8010 bound_to 7997
  139.5062  144.3426  152.0003 H   0  0  0  0  0  0  0  0  0  0  0  0  # atno 10167 bound_to 10162
  156.4678  130.8244  151.2474 H   0  0  0  0  0  0  0  0  0  0  0  0  # atno 10718 bound_to 10713
  153.0249  135.5237  154.7176 H   0  0  0  0  0  0  0  0  0  0  0  0  # atno 10763 bound_to 10752
  154.6240  135.2892  155.0295 H   0  0  0  0  0  0  0  0  0  0  0  0  # atno 10764 bound_to 10752
  154.1271  135.6598  153.4967 H   0  0  0  0  0  0  0  0  0  0  0  0  # atno 10765 bound_to 10752
  141.0770  133.6663  156.3614 H   0  0  0  0  0  0  0  0  0  0  0  0  # atno 11005 bound_to 11000
  145.8088  139.1994  143.2005 LP  0  0  0  0  0  0  0  0  0  0  0  0  # atno 17320 bound_to 7965
  146.0614  140.7967  142.9733 LP  0  0  0  0  0  0  0  0  0  0  0  0  # atno 17321 bound_to 7965
  140.2864  144.3803  150.6102 LP  0  0  0  0  0  0  0  0  0  0  0  0  # atno 17342 bound_to 10162
  140.5980  143.2167  151.7127 LP  0  0  0  0  0  0  0  0  0  0  0  0  # atno 17343 bound_to 10162
  157.7493  131.0086  150.3235 LP  0  0  0  0  0  0  0  0  0  0  0  0  # atno 17370 bound_to 10713
  156.3650  130.3853  149.7221 LP  0  0  0  0  0  0  0  0  0  0  0  0  # atno 17371 bound_to 10713
  140.5551  134.5989  157.5418 LP  0  0  0  0  0  0  0  0  0  0  0  0  # atno 17394 bound_to 11000
  139.9583  134.7497  156.0293 LP  0  0  0  0  0  0  0  0  0  0  0  0  # atno 17395 bound_to 11000

$$$$
