AV-unprocessed.smi:1933|AV-procd|sdf|7822|dock4
  -GOLD-   22720 9563D 1   1.00000     0.00000
 Structure written by MMmdl.
 48 50  0  0  0  0  0  0  0  0  2 V2000
  144.6256  136.7435  152.2886 O   0  0  0  0  0  0  0  0  0  0  0  0
  145.8154  136.5329  152.0522 C   0  0  0  0  0  0  0  0  0  0  0  0
  146.7945  137.3979  152.3547 N   0  0  0  0  0  0  0  0  0  0  0  0
  146.6081  138.6990  152.9896 C   0  0  0  0  0  0  0  0  0  0  0  0
  147.9513  139.4220  153.2799 C   0  0  1  0  0  0  0  0  0  0  0  0
  147.8045  140.6831  154.1790 C   0  0  1  0  0  0  0  0  0  0  0  0
  146.8336  141.7228  153.6397 C   0  0  0  0  0  0  0  0  0  0  0  0
  146.5437  142.5624  154.8756 C   0  0  0  0  0  0  0  0  0  0  0  0
  146.5053  141.6266  155.9425 O   0  0  0  0  0  0  0  0  0  0  0  0
  147.2131  140.4454  155.5774 C   0  0  0  0  0  0  0  0  0  0  0  0
  148.9644  138.4950  153.8700 N   0  3  0  0  0  0  0  0  0  0  0  0
  150.2763  139.0957  154.2237 C   0  0  0  0  0  0  0  0  0  0  0  0
  151.2622  137.9919  154.6399 C   0  0  0  0  0  0  0  0  0  0  0  0
  150.7194  137.2567  155.7304 O   0  0  0  0  0  0  0  0  0  0  0  0
  149.4975  136.6127  155.3880 C   0  0  0  0  0  0  0  0  0  0  0  0
  148.4500  137.6653  154.9867 C   0  0  0  0  0  0  0  0  0  0  0  0
  146.3078  135.4289  151.4633 N   0  0  0  0  0  0  0  0  0  0  0  0
  145.5933  134.3010  150.9780 C   0  0  0  0  0  0  0  0  0  0  0  0
  146.3974  133.2569  150.4674 C   0  0  0  0  0  0  0  0  0  0  0  0
  145.7842  132.0940  149.9621 C   0  0  0  0  0  0  0  0  0  0  0  0
  144.3809  132.0047  149.9803 C   0  0  0  0  0  0  0  0  0  0  0  0
  143.6547  133.0899  150.5045 C   0  0  0  0  0  0  0  0  0  0  0  0
  144.2403  134.2052  150.9892 N   0  0  0  0  0  0  0  0  0  0  0  0
  147.7424  137.1358  152.1266 H   0  0  0  0  0  0  0  0  0  0  0  0
  145.9760  139.3352  152.3685 H   0  0  0  0  0  0  0  0  0  0  0  0
  146.0574  138.5237  153.9133 H   0  0  0  0  0  0  0  0  0  0  0  0
  148.3595  139.7629  152.3269 H   0  0  0  0  0  0  0  0  0  0  0  0
  148.7773  141.1610  154.3032 H   0  0  0  0  0  0  0  0  0  0  0  0
  147.2470  142.3165  152.8237 H   0  0  0  0  0  0  0  0  0  0  0  0
  145.9165  141.2472  153.2881 H   0  0  0  0  0  0  0  0  0  0  0  0
  147.3535  143.2708  155.0555 H   0  0  0  0  0  0  0  0  0  0  0  0
  145.6106  143.1211  154.7976 H   0  0  0  0  0  0  0  0  0  0  0  0
  146.5033  139.6175  155.5711 H   0  0  0  0  0  0  0  0  0  0  0  0
  147.9840  140.2237  156.3153 H   0  0  0  0  0  0  0  0  0  0  0  0
  150.6850  139.6494  153.3789 H   0  0  0  0  0  0  0  0  0  0  0  0
  150.1619  139.8002  155.0482 H   0  0  0  0  0  0  0  0  0  0  0  0
  151.4767  137.3238  153.8039 H   0  0  0  0  0  0  0  0  0  0  0  0
  152.2109  138.4320  154.9477 H   0  0  0  0  0  0  0  0  0  0  0  0
  149.6632  135.8997  154.5786 H   0  0  0  0  0  0  0  0  0  0  0  0
  149.1458  136.0419  156.2477 H   0  0  0  0  0  0  0  0  0  0  0  0
  148.2127  138.2946  155.8449 H   0  0  0  0  0  0  0  0  0  0  0  0
  147.5278  137.1650  154.6892 H   0  0  0  0  0  0  0  0  0  0  0  0
  147.3091  135.3910  151.3427 H   0  0  0  0  0  0  0  0  0  0  0  0
  147.4744  133.3410  150.4608 H   0  0  0  0  0  0  0  0  0  0  0  0
  146.3810  131.2849  149.5681 H   0  0  0  0  0  0  0  0  0  0  0  0
  143.8745  131.1289  149.6024 H   0  0  0  0  0  0  0  0  0  0  0  0
  142.5756  133.0623  150.5356 H   0  0  0  0  0  0  0  0  0  0  0  0
  149.1618  137.8350  153.1314 H   0  0  0  0  0  0  0  0  0  0  0  0
  1  2  2  0  0  0  0
  2  3  1  0  0  0  0
  2 17  1  0  0  0  0
  3  4  1  0  0  0  0
  3 24  1  0  0  0  0
  4  5  1  0  0  0  0
  4 25  1  0  0  0  0
  4 26  1  0  0  0  0
  5  6  1  0  0  0  0
  5 11  1  0  0  0  0
  5 27  1  0  0  0  0
  6 10  1  0  0  0  0
  6  7  1  0  0  0  0
  6 28  1  0  0  0  0
  7  8  1  0  0  0  0
  7 29  1  0  0  0  0
  7 30  1  0  0  0  0
  8  9  1  0  0  0  0
  8 31  1  0  0  0  0
  8 32  1  0  0  0  0
  9 10  1  0  0  0  0
 10 33  1  0  0  0  0
 10 34  1  0  0  0  0
 11 16  1  0  0  0  0
 11 12  1  0  0  0  0
 11 48  1  0  0  0  0
 12 13  1  0  0  0  0
 12 35  1  0  0  0  0
 12 36  1  0  0  0  0
 13 14  1  0  0  0  0
 13 37  1  0  0  0  0
 13 38  1  0  0  0  0
 14 15  1  0  0  0  0
 15 16  1  0  0  0  0
 15 39  1  0  0  0  0
 15 40  1  0  0  0  0
 16 41  1  0  0  0  0
 16 42  1  0  0  0  0
 17 18  1  0  0  0  0
 17 43  1  0  0  0  0
 18 23  1  0  0  0  0
 18 19  2  0  0  0  0
 19 20  1  0  0  0  0
 19 44  1  0  0  0  0
 20 21  2  0  0  0  0
 20 45  1  0  0  0  0
 21 22  1  0  0  0  0
 21 46  1  0  0  0  0
 22 23  2  0  0  0  0
 22 47  1  0  0  0  0
M  CHG  1  11   1
M  END
> <s_m_source_file>
AV-unprocessed.smi

> <i_m_source_file_index>
1933

> <i_lp_mmshare_version>
43012

> <i_f3d_flags>
0

> <s_epik_input>
bjFbY0hdW2NIXVtjSF1bY0hdYzFbTkhdQyg9TylbTkhdW0NIMl1bQ0BIXShbQ0BASF0yW0NIMl1bQ0gyXU9bQ0gyXTIpTjNbQ0gyXVtDSDJdT1tDSDJdW0NIMl0z

> <s_epik_cmdline>
J2VwaWtfcHl0aG9uJywgJy1waCcsICc3LjAnLCAnLXRuJywgJzgnLCAnLW1hJywgJzIwMCcsICctbWV0YWxfYmluZGluZycsICctaW1hZScsICc8aW5maWxlLm1hZT4nLCAnLW9tYWUnLCAnPG91dGZpbGUubWFlPic=

> <r_epik_Ionization_Penalty>
0.983294

> <r_epik_Ionization_Penalty_Charging>
0.98326

> <r_epik_Ionization_Penalty_Neutral>
3.39688e-05

> <r_epik_State_Penalty>
1.0303

> <r_epik_Charging_Adjusted_Penalty>
2.01356

> <i_epik_Tot_Q>
1

> <i_epik_Tot_abs_Q>
1

> <r_epik_Metal_State_Penalty>
1.0303

> <b_epik_Metal_Only>
0

> <s_lp_Force_Field>
OPLS_2005

> <r_lp_Energy>
40.1163

> <b_lp_Chiralities_Consistent>
1

> <s_lp_Variant>
AV-unprocessed.smi:1933-8

> <Gold.Version>
5.8.1

> <Gold.Id.Protein>
6NUR|6NUR_protein|mol2

> <Gold.PLP.Fitness>
51.5794

> <Gold.PLP.PLP>
-37.1817

> <Gold.PLP.part.hbond>
-3.7374

> <Gold.PLP.part.metal>
0.0000

> <Gold.PLP.part.buried>
-1.4163

> <Gold.PLP.part.nonpolar>
-32.6256

> <Gold.PLP.part.repulsive>
0.6931

> <Gold.PLP.ligand.clash>
0.0000

> <Gold.PLP.ligand.torsion>
0.2593

> <Gold.PLP.Chemscore.Hbond>
3.9120

> <Gold.PLP.Chemscore.CHOScore>
0.9740

> <Gold.PLP.Chemscore.Metal>
0.0000

> <Gold.Chemscore.Hbonds>
donor molecule, donor type, donor heavy atom, donor atom, acceptor molecule, acceptor atom, score
      L1  H     3    24       P1  7948  0.98
      L1  H    11    48       P1  7948  2.00
      L1  H    17    43       P1  7948  0.90
      L1  C    22    47       P1 10186  1.00

> <Gold.PLP.Chemscore.Internal.Correction>
0.2584

> <Gold.Rescore>
     Score         DG    S(hbond)    S(metal)    S(lipo)     H(rot)  DE(clash)    DE(int)     intcor
     18.32     -21.32       2.65        0.00      98.35       1.77       1.42       1.58       ----

> <Gold.Chemscore.Fitness>
18.3213

> <Gold.Chemscore.DG>
-21.3193

> <Gold.Chemscore.ZeroCoef>
-5.4800

> <Gold.Chemscore.Hbond>
2.6516

> <Gold.Chemscore.Metal>
0.0000

> <Gold.Chemscore.Lipo>
98.3481

> <Gold.Chemscore.Internal_Hbond>
0.0000

> <Gold.Chemscore.DEClash>
1.4194

> <Gold.Chemscore.DEInternal>
1.5786

> <Gold.Chemscore.Rot>
1.7671

> <Gold.Chemscore.Internal.Correction>
   9.000000E+99

> <Gold.Chemscore.Hbonds>
donor molecule, donor type, donor heavy atom, donor atom, acceptor molecule, acceptor atom, score
      L1  H     3    24       P1  7948  0.91
      L1  H    11    48       P1  7948  0.93
      L1  H    17    43       P1  7948  0.75

> <Gold.Chemscore.Hbond.Weighted>
-8.8564

> <Gold.Chemscore.Metal.Weighted>
-0.0000

> <Gold.Chemscore.Lipo.Weighted>
-11.5067

> <Gold.Chemscore.Internal_Hbond.Weighted>
0.0000

> <Gold.Chemscore.DEClash.Weighted>
1.4194

> <Gold.Chemscore.DEInternal.Weighted>
1.5786

> <Gold.Chemscore.Rot.Weighted>
4.5238

> <Gold.Chemscore.Internal.Correction.Weighted>
   9.000000E+99

> <Gold.Protein.RotatedTorsions>
[ 6907 6896 6895 6894 ] final  -50.34 input  -60.11 | X-H torsion
[ 7974 7965 7964 7962 ] final  -12.55 input  175.53 | X-H torsion
[ 8008 7997 7996 7995 ] final   66.44 input   59.86 | X-H torsion
[ 10167 10162 10161 10158 ] final  -88.56 input  -65.29 | X-H torsion
[ 10718 10713 10712 10709 ] final   77.84 input   66.30 | X-H torsion
[ 10763 10752 10751 10750 ] final   77.52 input  -60.55 | X-H torsion
[ 11005 11000 10999 10996 ] final   98.89 input  -57.11 | X-H torsion

> <Gold.Protein.ActiveResidues>
 VAL166  LYS551  ARG553  GLY616  TRP617  ASP618  TYR619  PRO620  LYS621  CYS622 
 ASP623  PHE694  ASN695  SER759  ASP760  ASP761  ALA762  ILE779  LEU786  VAL792 
 PHE793  MET794  SER795  GLU796  ALA797  LYS798  CYS799  TRP800  GLU811  SER814 

> <Gold.Protein.RotatedAtoms>
  150.8716  134.8091  159.7158 H   0  0  0  0  0  0  0  0  0  0  0  0  # atno 6907 bound_to 6896
  152.4718  134.4937  159.9713 H   0  0  0  0  0  0  0  0  0  0  0  0  # atno 6908 bound_to 6896
  151.5025  133.3463  159.2907 H   0  0  0  0  0  0  0  0  0  0  0  0  # atno 6909 bound_to 6896
  146.2147  140.3074  142.8380 H   0  0  0  0  0  0  0  0  0  0  0  0  # atno 7974 bound_to 7965
  155.6774  140.3496  155.4842 H   0  0  0  0  0  0  0  0  0  0  0  0  # atno 8008 bound_to 7997
  155.9636  140.1142  157.0896 H   0  0  0  0  0  0  0  0  0  0  0  0  # atno 8009 bound_to 7997
  154.4149  140.1170  156.5199 H   0  0  0  0  0  0  0  0  0  0  0  0  # atno 8010 bound_to 7997
  140.3735  143.2783  151.9472 H   0  0  0  0  0  0  0  0  0  0  0  0  # atno 10167 bound_to 10162
  157.6724  130.9840  150.1700 H   0  0  0  0  0  0  0  0  0  0  0  0  # atno 10718 bound_to 10713
  153.0804  135.4911  154.8492 H   0  0  0  0  0  0  0  0  0  0  0  0  # atno 10763 bound_to 10752
  154.7144  135.3026  154.9149 H   0  0  0  0  0  0  0  0  0  0  0  0  # atno 10764 bound_to 10752
  153.9833  135.6787  153.4804 H   0  0  0  0  0  0  0  0  0  0  0  0  # atno 10765 bound_to 10752
  139.8771  134.9070  156.4523 H   0  0  0  0  0  0  0  0  0  0  0  0  # atno 11005 bound_to 11000
  144.9013  140.7645  143.5865 LP  0  0  0  0  0  0  0  0  0  0  0  0  # atno 17320 bound_to 7965
  145.3001  139.1853  143.4694 LP  0  0  0  0  0  0  0  0  0  0  0  0  # atno 17321 bound_to 7965
  139.4801  144.5885  151.7812 LP  0  0  0  0  0  0  0  0  0  0  0  0  # atno 17342 bound_to 10162
  140.5010  144.1169  150.5971 LP  0  0  0  0  0  0  0  0  0  0  0  0  # atno 17343 bound_to 10162
  156.2456  130.3695  149.8289 LP  0  0  0  0  0  0  0  0  0  0  0  0  # atno 17370 bound_to 10713
  156.6076  130.8573  151.3447 LP  0  0  0  0  0  0  0  0  0  0  0  0  # atno 17371 bound_to 10713
  140.8923  133.7839  155.9585 LP  0  0  0  0  0  0  0  0  0  0  0  0  # atno 17394 bound_to 11000
  140.8740  134.2691  157.5177 LP  0  0  0  0  0  0  0  0  0  0  0  0  # atno 17395 bound_to 11000

$$$$
