AV-unprocessed.smi:125|AV-procd|sdf|1149|dock4
  -GOLD-   2262018283D 1   1.00000     0.00000
 Structure written by MMmdl.
 59 62  0  0  0  0  0  0  0  0  1 V2000
  147.1572  132.5791  156.4021 C   0  0  0  0  0  0  0  0  0  0  0  0
  148.1327  133.7443  156.4090 C   0  0  0  0  0  0  0  0  0  0  0  0
  149.2998  133.6457  155.6229 C   0  0  0  0  0  0  0  0  0  0  0  0
  150.2400  134.6922  155.5908 C   0  0  0  0  0  0  0  0  0  0  0  0
  150.0318  135.8603  156.3601 C   0  0  0  0  0  0  0  0  0  0  0  0
  150.9216  136.9685  156.3689 N   0  0  0  0  0  0  0  0  0  0  0  0
  151.7174  137.4208  155.3825 C   0  0  0  0  0  0  0  0  0  0  0  0
  151.8528  136.8741  154.2874 O   0  0  0  0  0  0  0  0  0  0  0  0
  152.5291  138.6802  155.7219 C   0  0  0  0  0  0  0  0  0  0  0  0
  151.6800  139.8386  156.0763 N   0  0  0  0  0  0  0  0  0  0  0  0
  150.6318  140.1985  155.1931 C   0  0  0  0  0  0  0  0  0  0  0  0
  150.4236  139.5634  154.1579 O   0  0  0  0  0  0  0  0  0  0  0  0
  149.8385  141.3548  155.5939 C   0  0  0  0  0  0  0  0  0  0  0  0
  148.8102  141.7549  154.8268 F   0  0  0  0  0  0  0  0  0  0  0  0
  150.1181  142.0288  156.7280 C   0  0  0  0  0  0  0  0  0  0  0  0
  151.1570  141.6788  157.5706 N   0  0  0  0  0  0  0  0  0  0  0  0
  151.4390  142.4587  158.8357 C   0  0  2  0  0  0  0  0  0  0  0  0
  150.4690  143.6392  158.9570 C   0  0  0  0  0  0  0  0  0  0  0  0
  151.2727  144.7670  158.3469 C   0  0  0  0  0  0  0  0  0  0  0  0
  152.6870  144.4065  158.7863 C   0  0  0  0  0  0  0  0  0  0  0  0
  152.7346  142.9821  158.7701 O   0  0  0  0  0  0  0  0  0  0  0  0
  151.9601  140.5591  157.2622 C   0  0  0  0  0  0  0  0  0  0  0  0
  152.8799  140.2195  158.0093 O   0  0  0  0  0  0  0  0  0  0  0  0
  148.8599  135.9711  157.1341 C   0  0  0  0  0  0  0  0  0  0  0  0
  147.9144  134.9243  157.1671 C   0  0  0  0  0  0  0  0  0  0  0  0
  146.4621  135.1450  158.2095 S   0  0  0  0  0  0  0  0  0  0  0  0
  146.2533  136.5803  158.4576 O   0  0  0  0  0  0  0  0  0  0  0  0
  145.3719  134.3335  157.6464 O   0  0  0  0  0  0  0  0  0  0  0  0
  146.9578  134.4327  159.7079 N   0  0  0  0  0  0  0  0  0  0  0  0
  147.2046  135.2911  160.8776 C   0  0  0  0  0  0  0  0  0  0  0  0
  147.2079  134.4653  162.1749 C   0  0  0  0  0  0  0  0  0  0  0  0
  148.0983  133.3654  162.0596 O   0  0  0  0  0  0  0  0  0  0  0  0
  147.6900  132.4722  161.0343 C   0  0  0  0  0  0  0  0  0  0  0  0
  147.7279  133.1808  159.6715 C   0  0  0  0  0  0  0  0  0  0  0  0
  147.4590  131.8194  155.6805 H   0  0  0  0  0  0  0  0  0  0  0  0
  146.1551  132.9030  156.1259 H   0  0  0  0  0  0  0  0  0  0  0  0
  147.1189  132.0993  157.3788 H   0  0  0  0  0  0  0  0  0  0  0  0
  149.4811  132.7612  155.0300 H   0  0  0  0  0  0  0  0  0  0  0  0
  151.1054  134.5791  154.9567 H   0  0  0  0  0  0  0  0  0  0  0  0
  150.9915  137.4587  157.2489 H   0  0  0  0  0  0  0  0  0  0  0  0
  153.2223  138.4555  156.5347 H   0  0  0  0  0  0  0  0  0  0  0  0
  153.1799  138.9013  154.8748 H   0  0  0  0  0  0  0  0  0  0  0  0
  149.4938  142.8738  156.9775 H   0  0  0  0  0  0  0  0  0  0  0  0
  151.3747  141.7451  159.6585 H   0  0  0  0  0  0  0  0  0  0  0  0
  149.5168  143.4498  158.4603 H   0  0  0  0  0  0  0  0  0  0  0  0
  150.2847  143.8307  160.0149 H   0  0  0  0  0  0  0  0  0  0  0  0
  151.1952  144.7420  157.2595 H   0  0  0  0  0  0  0  0  0  0  0  0
  150.9573  145.7527  158.6899 H   0  0  0  0  0  0  0  0  0  0  0  0
  153.4514  144.8399  158.1412 H   0  0  0  0  0  0  0  0  0  0  0  0
  152.8665  144.7508  159.8055 H   0  0  0  0  0  0  0  0  0  0  0  0
  148.6942  136.8694  157.7102 H   0  0  0  0  0  0  0  0  0  0  0  0
  148.1635  135.7933  160.7460 H   0  0  0  0  0  0  0  0  0  0  0  0
  146.4408  136.0656  160.9422 H   0  0  0  0  0  0  0  0  0  0  0  0
  147.5218  135.0884  163.0125 H   0  0  0  0  0  0  0  0  0  0  0  0
  146.2032  134.1090  162.4077 H   0  0  0  0  0  0  0  0  0  0  0  0
  148.3606  131.6130  161.0261 H   0  0  0  0  0  0  0  0  0  0  0  0
  146.6897  132.0901  161.2445 H   0  0  0  0  0  0  0  0  0  0  0  0
  147.3277  132.5250  158.8981 H   0  0  0  0  0  0  0  0  0  0  0  0
  148.7577  133.4108  159.3964 H   0  0  0  0  0  0  0  0  0  0  0  0
  1  2  1  0  0  0  0
  1 35  1  0  0  0  0
  1 36  1  0  0  0  0
  1 37  1  0  0  0  0
  2 25  1  0  0  0  0
  2  3  2  0  0  0  0
  3  4  1  0  0  0  0
  3 38  1  0  0  0  0
  4  5  2  0  0  0  0
  4 39  1  0  0  0  0
  5  6  1  0  0  0  0
  5 24  1  0  0  0  0
  6  7  1  0  0  0  0
  6 40  1  0  0  0  0
  7  8  2  0  0  0  0
  7  9  1  0  0  0  0
  9 10  1  0  0  0  0
  9 41  1  0  0  0  0
  9 42  1  0  0  0  0
 10 22  1  0  0  0  0
 10 11  1  0  0  0  0
 11 12  2  0  0  0  0
 11 13  1  0  0  0  0
 13 14  1  0  0  0  0
 13 15  2  0  0  0  0
 15 16  1  0  0  0  0
 15 43  1  0  0  0  0
 16 17  1  0  0  0  0
 16 22  1  0  0  0  0
 17 21  1  0  0  0  0
 17 18  1  0  0  0  0
 17 44  1  0  0  0  0
 18 19  1  0  0  0  0
 18 45  1  0  0  0  0
 18 46  1  0  0  0  0
 19 20  1  0  0  0  0
 19 47  1  0  0  0  0
 19 48  1  0  0  0  0
 20 21  1  0  0  0  0
 20 49  1  0  0  0  0
 20 50  1  0  0  0  0
 22 23  2  0  0  0  0
 24 25  2  0  0  0  0
 24 51  1  0  0  0  0
 25 26  1  0  0  0  0
 26 27  2  0  0  0  0
 26 28  2  0  0  0  0
 26 29  1  0  0  0  0
 29 34  1  0  0  0  0
 29 30  1  0  0  0  0
 30 31  1  0  0  0  0
 30 52  1  0  0  0  0
 30 53  1  0  0  0  0
 31 32  1  0  0  0  0
 31 54  1  0  0  0  0
 31 55  1  0  0  0  0
 32 33  1  0  0  0  0
 33 34  1  0  0  0  0
 33 56  1  0  0  0  0
 33 57  1  0  0  0  0
 34 58  1  0  0  0  0
 34 59  1  0  0  0  0
M  END
> <s_m_source_file>
AV-unprocessed.smi

> <i_m_source_file_index>
125

> <i_lp_mmshare_version>
43012

> <i_f3d_flags>
0

> <s_epik_input>
W0NIMl0xW0NIMl1PW0NIMl1bQ0gyXU4xUyg9TykoPU8pYzJbY0hdYyhbY0hdW2NIXWMyW0NIM10pW05IXUMoPU8pW0NIMl1uM2MoPU8pYyhGKVtjSF1uKGMzPU8pW0NAQEhdNFtDSDJdW0NIMl1bQ0gyXU80

> <s_epik_cmdline>
J2VwaWtfcHl0aG9uJywgJy1waCcsICc3LjAnLCAnLXRuJywgJzgnLCAnLW1hJywgJzIwMCcsICctbWV0YWxfYmluZGluZycsICctaW1hZScsICc8aW5maWxlLm1hZT4nLCAnLW9tYWUnLCAnPG91dGZpbGUubWFlPic=

> <r_lp_tautomer_probability>
1

> <r_epik_Ionization_Penalty>
4.12263e-06

> <r_epik_Ionization_Penalty_Charging>
3.88729e-08

> <r_epik_Ionization_Penalty_Neutral>
4.08376e-06

> <r_epik_State_Penalty>
-0

> <r_epik_Charging_Adjusted_Penalty>
3.88729e-08

> <i_epik_Tot_Q>
0

> <i_epik_Tot_abs_Q>
0

> <r_epik_Metal_State_Penalty>
-0

> <b_epik_Metal_Only>
0

> <s_epik_Chemistry_Notes>
This compound contains an acetal/aminal-like group ( X-CH(R)-Y where X, Y are N, S, or O) that may be acid/base labile, releasing an aldehyde.

> <s_lp_Force_Field>
OPLS_2005

> <r_lp_Energy>
38.613

> <b_lp_Chiralities_Consistent>
1

> <s_lp_Variant>
AV-unprocessed.smi:125-1

> <Gold.Version>
5.8.1

> <Gold.Id.Protein>
6NUR|6NUR_protein|mol2

> <Gold.PLP.Fitness>
56.5150

> <Gold.PLP.PLP>
-47.8011

> <Gold.PLP.part.hbond>
-3.0000

> <Gold.PLP.part.metal>
0.0000

> <Gold.PLP.part.buried>
-2.8882

> <Gold.PLP.part.nonpolar>
-42.4523

> <Gold.PLP.part.repulsive>
1.2506

> <Gold.PLP.ligand.clash>
0.0000

> <Gold.PLP.ligand.torsion>
2.3782

> <Gold.PLP.Chemscore.Hbond>
2.1500

> <Gold.PLP.Chemscore.CHOScore>
0.9824

> <Gold.PLP.Chemscore.Metal>
0.0000

> <Gold.Chemscore.Hbonds>
donor molecule, donor type, donor heavy atom, donor atom, acceptor molecule, acceptor atom, score
      P1  H  7989  7998       L1    12  0.05
      P1  H  7997  8009       L1    23  0.98
      P1  H 10752 10765       L1     8  0.99
      L1  C    15    43       P1  8028  1.00

> <Gold.PLP.Chemscore.Internal.Correction>
4.0732

> <Gold.Rescore>
     Score         DG    S(hbond)    S(metal)    S(lipo)     H(rot)  DE(clash)    DE(int)     intcor
     10.74     -18.22       1.81        0.00      93.29       1.65       0.20       7.27       ----

> <Gold.Chemscore.Fitness>
10.7444

> <Gold.Chemscore.DG>
-18.2165

> <Gold.Chemscore.ZeroCoef>
-5.4800

> <Gold.Chemscore.Hbond>
1.8106

> <Gold.Chemscore.Metal>
0.0000

> <Gold.Chemscore.Lipo>
93.2950

> <Gold.Chemscore.Internal_Hbond>
0.0000

> <Gold.Chemscore.DEClash>
0.2004

> <Gold.Chemscore.DEInternal>
7.2717

> <Gold.Chemscore.Rot>
1.6510

> <Gold.Chemscore.Internal.Correction>
   9.000000E+99

> <Gold.Chemscore.Hbonds>
donor molecule, donor type, donor heavy atom, donor atom, acceptor molecule, acceptor atom, score
      P1  H  7997  8009       L1    23  0.56
      P1  H 10752 10765       L1     8  0.93

> <Gold.Chemscore.Hbond.Weighted>
-6.0475

> <Gold.Chemscore.Metal.Weighted>
-0.0000

> <Gold.Chemscore.Lipo.Weighted>
-10.9155

> <Gold.Chemscore.Internal_Hbond.Weighted>
0.0000

> <Gold.Chemscore.DEClash.Weighted>
0.2004

> <Gold.Chemscore.DEInternal.Weighted>
7.2717

> <Gold.Chemscore.Rot.Weighted>
4.2265

> <Gold.Chemscore.Internal.Correction.Weighted>
   9.000000E+99

> <Gold.Protein.RotatedTorsions>
[ 6907 6896 6895 6894 ] final  -98.11 input  -60.11 | X-H torsion
[ 7974 7965 7964 7962 ] final  103.36 input  175.53 | X-H torsion
[ 8008 7997 7996 7995 ] final  164.27 input   59.86 | X-H torsion
[ 10167 10162 10161 10158 ] final  115.77 input  -65.29 | X-H torsion
[ 10718 10713 10712 10709 ] final  -31.74 input   66.30 | X-H torsion
[ 10763 10752 10751 10750 ] final  145.12 input  -60.55 | X-H torsion
[ 11005 11000 10999 10996 ] final  -14.60 input  -57.11 | X-H torsion

> <Gold.Protein.ActiveResidues>
 VAL166  LYS551  ARG553  GLY616  TRP617  ASP618  TYR619  PRO620  LYS621  CYS622 
 ASP623  PHE694  ASN695  SER759  ASP760  ASP761  ALA762  ILE779  LEU786  VAL792 
 PHE793  MET794  SER795  GLU796  ALA797  LYS798  CYS799  TRP800  GLU811  SER814 

> <Gold.Protein.RotatedAtoms>
  150.7036  134.1245  159.4046 H   0  0  0  0  0  0  0  0  0  0  0  0  # atno 6907 bound_to 6896
  151.9231  135.0287  160.0533 H   0  0  0  0  0  0  0  0  0  0  0  0  # atno 6908 bound_to 6896
  152.2239  133.4970  159.5215 H   0  0  0  0  0  0  0  0  0  0  0  0  # atno 6909 bound_to 6896
  145.3469  139.2448  143.3579 H   0  0  0  0  0  0  0  0  0  0  0  0  # atno 7974 bound_to 7965
  156.1892  140.1701  156.8124 H   0  0  0  0  0  0  0  0  0  0  0  0  # atno 8008 bound_to 7997
  154.5451  140.0729  156.8608 H   0  0  0  0  0  0  0  0  0  0  0  0  # atno 8009 bound_to 7997
  155.3137  140.3369  155.4245 H   0  0  0  0  0  0  0  0  0  0  0  0  # atno 8010 bound_to 7997
  139.6293  144.7113  151.2465 H   0  0  0  0  0  0  0  0  0  0  0  0  # atno 10167 bound_to 10162
  156.3836  130.4360  149.7450 H   0  0  0  0  0  0  0  0  0  0  0  0  # atno 10718 bound_to 10713
  154.0002  135.2924  155.3403 H   0  0  0  0  0  0  0  0  0  0  0  0  # atno 10763 bound_to 10752
  154.7164  135.5128  153.8747 H   0  0  0  0  0  0  0  0  0  0  0  0  # atno 10764 bound_to 10752
  153.0769  135.6666  154.0244 H   0  0  0  0  0  0  0  0  0  0  0  0  # atno 10765 bound_to 10752
  140.7881  133.8310  155.9354 H   0  0  0  0  0  0  0  0  0  0  0  0  # atno 11005 bound_to 11000
  146.2984  140.4077  142.8713 LP  0  0  0  0  0  0  0  0  0  0  0  0  # atno 17320 bound_to 7965
  144.8747  140.7321  143.6024 LP  0  0  0  0  0  0  0  0  0  0  0  0  # atno 17321 bound_to 7965
  140.7430  143.6509  150.8250 LP  0  0  0  0  0  0  0  0  0  0  0  0  # atno 17342 bound_to 10162
  140.0131  143.5621  152.2831 LP  0  0  0  0  0  0  0  0  0  0  0  0  # atno 17343 bound_to 10162
  156.4531  130.7916  151.2937 LP  0  0  0  0  0  0  0  0  0  0  0  0  # atno 17370 bound_to 10713
  157.7494  131.0089  150.3247 LP  0  0  0  0  0  0  0  0  0  0  0  0  # atno 17371 bound_to 10713
  140.9417  134.1892  157.4793 LP  0  0  0  0  0  0  0  0  0  0  0  0  # atno 17394 bound_to 11000
  139.8734  134.9874  156.5367 LP  0  0  0  0  0  0  0  0  0  0  0  0  # atno 17395 bound_to 11000

$$$$
