AV-unprocessed.smi:2121|AV-procd|sdf|8641|dock6
  -GOLD-   2272011393D 1   1.00000     0.00000
 Structure written by MMmdl.
 49 50  0  0  0  0  0  0  0  0  1 V2000
  154.1382  141.7797  161.4526 C   0  0  0  0  0  0  0  0  0  0  0  0
  152.9448  142.0347  160.5260 C   0  0  2  0  0  0  0  0  0  0  0  0
  153.0688  141.2637  159.1982 C   0  0  0  0  0  0  0  0  0  0  0  0
  151.9770  141.6211  158.2965 N   0  0  0  0  0  0  0  0  0  0  0  0
  151.8193  140.7855  157.1696 C   0  0  0  0  0  0  0  0  0  0  0  0
  150.6738  140.9084  156.3481 C   0  0  0  0  0  0  0  0  0  0  0  0
  150.5332  140.0607  155.2331 C   0  0  0  0  0  0  0  0  0  0  0  0
  151.5385  139.1078  154.9658 C   0  0  0  0  0  0  0  0  0  0  0  0
  151.4571  138.1572  153.7795 C   0  0  0  0  0  0  0  0  0  0  0  0
  150.7142  136.9294  154.0439 N   0  0  0  0  0  0  0  0  0  0  0  0
  150.9726  136.0770  155.0473 C   0  0  0  0  0  0  0  0  0  0  0  0
  151.8811  136.2498  155.8618 O   0  0  0  0  0  0  0  0  0  0  0  0
  150.0415  134.8592  155.1570 C   0  0  2  0  0  0  0  0  0  0  0  0
  150.8982  133.5913  155.0029 C   0  0  0  0  0  0  0  0  0  0  0  0
  149.0471  134.8688  154.0851 N   0  0  0  0  0  0  0  0  0  0  0  0
  147.8484  134.2703  154.1422 C   0  0  0  0  0  0  0  0  0  0  0  0
  147.1341  134.4579  153.0323 N   0  0  0  0  0  0  0  0  0  0  0  0
  147.4387  133.6199  155.1018 O   0  0  0  0  0  0  0  0  0  0  0  0
  152.6502  139.0672  155.8304 C   0  0  0  0  0  0  0  0  0  0  0  0
  152.7910  139.8788  156.8994 N   0  0  0  0  0  0  0  0  0  0  0  0
  151.8369  143.0630  158.1053 C   0  0  0  0  0  0  0  0  0  0  0  0
  151.7457  143.7803  159.4649 C   0  0  2  0  0  0  0  0  0  0  0  0
  151.7164  145.3043  159.3104 C   0  0  0  0  0  0  0  0  0  0  0  0
  152.8801  143.4320  160.2537 O   0  0  0  0  0  0  0  0  0  0  0  0
  154.2236  140.7213  161.6999 H   0  0  0  0  0  0  0  0  0  0  0  0
  154.0308  142.3314  162.3868 H   0  0  0  0  0  0  0  0  0  0  0  0
  155.0733  142.0917  160.9869 H   0  0  0  0  0  0  0  0  0  0  0  0
  152.0336  141.7290  161.0437 H   0  0  0  0  0  0  0  0  0  0  0  0
  154.0155  141.5028  158.7116 H   0  0  0  0  0  0  0  0  0  0  0  0
  153.0832  140.1953  159.4085 H   0  0  0  0  0  0  0  0  0  0  0  0
  149.9131  141.6474  156.5503 H   0  0  0  0  0  0  0  0  0  0  0  0
  149.6653  140.1491  154.5964 H   0  0  0  0  0  0  0  0  0  0  0  0
  150.9689  138.6794  152.9566 H   0  0  0  0  0  0  0  0  0  0  0  0
  152.4623  137.9085  153.4344 H   0  0  0  0  0  0  0  0  0  0  0  0
  149.9495  136.7130  153.4209 H   0  0  0  0  0  0  0  0  0  0  0  0
  149.5429  134.8497  156.1282 H   0  0  0  0  0  0  0  0  0  0  0  0
  151.6578  133.5295  155.7834 H   0  0  0  0  0  0  0  0  0  0  0  0
  151.4087  133.5595  154.0390 H   0  0  0  0  0  0  0  0  0  0  0  0
  150.2828  132.6944  155.0789 H   0  0  0  0  0  0  0  0  0  0  0  0
  149.2840  135.3857  153.2512 H   0  0  0  0  0  0  0  0  0  0  0  0
  146.2120  134.0568  152.9467 H   0  0  0  0  0  0  0  0  0  0  0  0
  147.5238  135.0031  152.2770 H   0  0  0  0  0  0  0  0  0  0  0  0
  153.4511  138.3625  155.6630 H   0  0  0  0  0  0  0  0  0  0  0  0
  152.6924  143.4349  157.5395 H   0  0  0  0  0  0  0  0  0  0  0  0
  150.9404  143.2785  157.5223 H   0  0  0  0  0  0  0  0  0  0  0  0
  150.8384  143.4677  159.9849 H   0  0  0  0  0  0  0  0  0  0  0  0
  150.8553  145.6224  158.7221 H   0  0  0  0  0  0  0  0  0  0  0  0
  152.6155  145.6681  158.8125 H   0  0  0  0  0  0  0  0  0  0  0  0
  151.6533  145.7931  160.2829 H   0  0  0  0  0  0  0  0  0  0  0  0
  1  2  1  0  0  0  0
  1 25  1  0  0  0  0
  1 26  1  0  0  0  0
  1 27  1  0  0  0  0
  2 24  1  0  0  0  0
  2  3  1  0  0  0  0
  2 28  1  0  0  0  0
  3  4  1  0  0  0  0
  3 29  1  0  0  0  0
  3 30  1  0  0  0  0
  4  5  1  0  0  0  0
  4 21  1  0  0  0  0
  5 20  1  0  0  0  0
  5  6  2  0  0  0  0
  6  7  1  0  0  0  0
  6 31  1  0  0  0  0
  7  8  2  0  0  0  0
  7 32  1  0  0  0  0
  8  9  1  0  0  0  0
  8 19  1  0  0  0  0
  9 10  1  0  0  0  0
  9 33  1  0  0  0  0
  9 34  1  0  0  0  0
 10 11  1  0  0  0  0
 10 35  1  0  0  0  0
 11 12  2  0  0  0  0
 11 13  1  0  0  0  0
 13 14  1  0  0  0  0
 13 15  1  0  0  0  0
 13 36  1  0  0  0  0
 14 37  1  0  0  0  0
 14 38  1  0  0  0  0
 14 39  1  0  0  0  0
 15 16  1  0  0  0  0
 15 40  1  0  0  0  0
 16 17  1  0  0  0  0
 16 18  2  0  0  0  0
 17 41  1  0  0  0  0
 17 42  1  0  0  0  0
 19 20  2  0  0  0  0
 19 43  1  0  0  0  0
 21 22  1  0  0  0  0
 21 44  1  0  0  0  0
 21 45  1  0  0  0  0
 22 23  1  0  0  0  0
 22 24  1  0  0  0  0
 22 46  1  0  0  0  0
 23 47  1  0  0  0  0
 23 48  1  0  0  0  0
 23 49  1  0  0  0  0
M  END
> <s_m_source_file>
AV-unprocessed.smi

> <i_m_source_file_index>
2121

> <i_lp_mmshare_version>
43012

> <i_f3d_flags>
0

> <s_epik_input>
W0NIM11bQ0BASF0xW0NIMl1OKFtDSDJdW0NASF0oTzEpW0NIM10pYzJbY0hdW2NIXWMoW2NIXW4yKVtDSDJdW05IXUMoPU8pW0NASF0oW0NIM10pW05IXUMoPU8pW05IMl0=

> <s_epik_cmdline>
J2VwaWtfcHl0aG9uJywgJy1waCcsICc3LjAnLCAnLXRuJywgJzgnLCAnLW1hJywgJzIwMCcsICctbWV0YWxfYmluZGluZycsICctaW1hZScsICc8aW5maWxlLm1hZT4nLCAnLW9tYWUnLCAnPG91dGZpbGUubWFlPic=

> <r_lp_tautomer_probability>
1

> <r_epik_Ionization_Penalty>
0.0063713

> <r_epik_Ionization_Penalty_Charging>
0

> <r_epik_Ionization_Penalty_Neutral>
0.0063713

> <r_epik_State_Penalty>
0.00467069

> <r_epik_Charging_Adjusted_Penalty>
0.00467069

> <i_epik_Tot_Q>
0

> <i_epik_Tot_abs_Q>
0

> <r_epik_Metal_State_Penalty>
-0

> <b_epik_Metal_Only>
0

> <s_lp_Force_Field>
OPLS_2005

> <r_lp_Energy>
8.04486

> <b_lp_Chiralities_Consistent>
1

> <s_lp_Variant>
AV-unprocessed.smi:2121-2

> <Gold.Version>
5.8.1

> <Gold.Id.Protein>
6NUR|6NUR_protein|mol2

> <Gold.PLP.Fitness>
59.5669

> <Gold.PLP.PLP>
-46.5088

> <Gold.PLP.part.hbond>
-6.0000

> <Gold.PLP.part.metal>
0.0000

> <Gold.PLP.part.buried>
-2.8839

> <Gold.PLP.part.nonpolar>
-36.7928

> <Gold.PLP.part.repulsive>
0.1262

> <Gold.PLP.ligand.clash>
0.0000

> <Gold.PLP.ligand.torsion>
0.8941

> <Gold.PLP.Chemscore.Hbond>
4.8300

> <Gold.PLP.Chemscore.CHOScore>
0.0000

> <Gold.PLP.Chemscore.Metal>
0.0000

> <Gold.Chemscore.Hbonds>
donor molecule, donor type, donor heavy atom, donor atom, acceptor molecule, acceptor atom, score
      L1  H    10    35       P1  7948  0.90
      L1  H    15    40       P1  7948  0.90
      L1  H    17    42       P1  7948  0.86
      P1  H  7997  8010       L1    20  0.84
      P1  H 10752 10763       L1    12  1.00

> <Gold.PLP.Chemscore.Internal.Correction>
0.3564

> <Gold.Rescore>
     Score         DG    S(hbond)    S(metal)    S(lipo)     H(rot)  DE(clash)    DE(int)     intcor
     17.19     -20.77       2.64        0.00     111.72       2.58       0.33       3.25       ----

> <Gold.Chemscore.Fitness>
17.1867

> <Gold.Chemscore.DG>
-20.7693

> <Gold.Chemscore.ZeroCoef>
-5.4800

> <Gold.Chemscore.Hbond>
2.6445

> <Gold.Chemscore.Metal>
0.0000

> <Gold.Chemscore.Lipo>
111.7196

> <Gold.Chemscore.Internal_Hbond>
0.0000

> <Gold.Chemscore.DEClash>
0.3308

> <Gold.Chemscore.DEInternal>
3.2517

> <Gold.Chemscore.Rot>
2.5838

> <Gold.Chemscore.Internal.Correction>
   9.000000E+99

> <Gold.Chemscore.Hbonds>
donor molecule, donor type, donor heavy atom, donor atom, acceptor molecule, acceptor atom, score
      L1  H    10    35       P1  7948  0.18
      L1  H    15    40       P1  7948  0.18
      L1  H    17    42       P1  7948  0.82
      P1  H  7997  8010       L1    20  0.19
      P1  H 10752 10763       L1    12  0.26

> <Gold.Chemscore.Hbond.Weighted>
-8.8325

> <Gold.Chemscore.Metal.Weighted>
-0.0000

> <Gold.Chemscore.Lipo.Weighted>
-13.0712

> <Gold.Chemscore.Internal_Hbond.Weighted>
0.0000

> <Gold.Chemscore.DEClash.Weighted>
0.3308

> <Gold.Chemscore.DEInternal.Weighted>
3.2517

> <Gold.Chemscore.Rot.Weighted>
6.6145

> <Gold.Chemscore.Internal.Correction.Weighted>
   9.000000E+99

> <Gold.Protein.RotatedTorsions>
[ 6907 6896 6895 6894 ] final  113.79 input  -60.11 | X-H torsion
[ 7974 7965 7964 7962 ] final -141.19 input  175.53 | X-H torsion
[ 8008 7997 7996 7995 ] final   42.32 input   59.86 | X-H torsion
[ 10167 10162 10161 10158 ] final -131.13 input  -65.29 | X-H torsion
[ 10718 10713 10712 10709 ] final -105.27 input   66.30 | X-H torsion
[ 10763 10752 10751 10750 ] final   90.04 input  -60.55 | X-H torsion
[ 11005 11000 10999 10996 ] final   56.19 input  -57.11 | X-H torsion

> <Gold.Protein.ActiveResidues>
 VAL166  LYS551  ARG553  GLY616  TRP617  ASP618  TYR619  PRO620  LYS621  CYS622 
 ASP623  PHE694  ASN695  SER759  ASP760  ASP761  ALA762  ILE779  LEU786  VAL792 
 PHE793  MET794  SER795  GLU796  ALA797  LYS798  CYS799  TRP800  GLU811  SER814 

> <Gold.Protein.RotatedAtoms>
  152.4840  133.8327  159.7111 H   0  0  0  0  0  0  0  0  0  0  0  0  # atno 6907 bound_to 6896
  150.8912  133.7231  159.2910 H   0  0  0  0  0  0  0  0  0  0  0  0  # atno 6908 bound_to 6896
  151.4703  135.1049  159.9802 H   0  0  0  0  0  0  0  0  0  0  0  0  # atno 6909 bound_to 6896
  144.8538  140.6110  143.5372 H   0  0  0  0  0  0  0  0  0  0  0  0  # atno 7974 bound_to 7965
  155.2842  140.3374  155.4256 H   0  0  0  0  0  0  0  0  0  0  0  0  # atno 8008 bound_to 7997
  156.2076  140.1757  156.7807 H   0  0  0  0  0  0  0  0  0  0  0  0  # atno 8009 bound_to 7997
  154.5641  140.0682  156.8849 H   0  0  0  0  0  0  0  0  0  0  0  0  # atno 8010 bound_to 7997
  139.9221  143.6370  152.2551 H   0  0  0  0  0  0  0  0  0  0  0  0  # atno 10167 bound_to 10162
  156.0339  130.5555  150.7515 H   0  0  0  0  0  0  0  0  0  0  0  0  # atno 10718 bound_to 10713
  153.1934  135.4448  155.0178 H   0  0  0  0  0  0  0  0  0  0  0  0  # atno 10763 bound_to 10752
  154.8104  135.3292  154.7322 H   0  0  0  0  0  0  0  0  0  0  0  0  # atno 10764 bound_to 10752
  153.7774  135.6980  153.4950 H   0  0  0  0  0  0  0  0  0  0  0  0  # atno 10765 bound_to 10752
  140.0548  134.5686  155.9221 H   0  0  0  0  0  0  0  0  0  0  0  0  # atno 11005 bound_to 11000
  145.4446  139.1531  143.3952 LP  0  0  0  0  0  0  0  0  0  0  0  0  # atno 17320 bound_to 7965
  146.2807  140.4569  142.8777 LP  0  0  0  0  0  0  0  0  0  0  0  0  # atno 17321 bound_to 7965
  139.6852  144.7652  151.1536 LP  0  0  0  0  0  0  0  0  0  0  0  0  # atno 17342 bound_to 10162
  140.7659  143.5667  150.9040 LP  0  0  0  0  0  0  0  0  0  0  0  0  # atno 17343 bound_to 10162
  157.5058  131.0922  151.0259 LP  0  0  0  0  0  0  0  0  0  0  0  0  # atno 17370 bound_to 10713
  157.0628  130.5832  149.5388 LP  0  0  0  0  0  0  0  0  0  0  0  0  # atno 17371 bound_to 10713
  141.1947  133.6584  156.5607 LP  0  0  0  0  0  0  0  0  0  0  0  0  # atno 17394 bound_to 11000
  140.3861  134.7481  157.4692 LP  0  0  0  0  0  0  0  0  0  0  0  0  # atno 17395 bound_to 11000

$$$$
