AV-unprocessed.smi:36|AV-procd|sdf|302|dock4
  -GOLD-   2262016103D 1   1.00000     0.00000
 Structure written by MMmdl.
 63 66  0  0  0  0  0  0  0  0  2 V2000
  147.6467  136.0981  161.4612 C   0  0  0  0  0  0  0  0  0  0  0  0
  146.7984  134.8623  161.8036 C   0  0  0  0  0  0  0  0  0  0  0  0
  147.5736  133.9433  162.7625 C   0  0  0  0  0  0  0  0  0  0  0  0
  145.4790  135.3008  162.4599 C   0  0  0  0  0  0  0  0  0  0  0  0
  146.4069  133.8977  160.2018 Si  0  0  0  0  0  0  0  0  0  0  0  0
  145.3364  132.3700  160.5626 C   0  0  0  0  0  0  0  0  0  0  0  0
  145.5358  135.0093  158.9305 C   0  0  0  0  0  0  0  0  0  0  0  0
  147.8729  133.3739  159.5403 O   0  0  0  0  0  0  0  0  0  0  0  0
  148.0165  132.9400  158.2044 C   0  0  0  0  0  0  0  0  0  0  0  0
  148.4809  134.1169  157.3375 C   0  0  1  0  0  0  0  0  0  0  0  0
  149.8109  134.4847  157.6891 O   0  0  0  0  0  0  0  0  0  0  0  0
  150.4598  135.0472  156.5858 C   0  0  2  0  0  0  0  0  0  0  0  0
  150.7129  136.4911  156.8746 N   0  0  0  0  0  0  0  0  0  0  0  0
  150.9609  137.0820  158.0618 C   0  0  0  0  0  0  0  0  0  0  0  0
  151.1546  138.3992  158.0623 N   0  0  0  0  0  0  0  0  0  0  0  0
  151.0154  138.7035  156.7161 C   0  0  0  0  0  0  0  0  0  0  0  0
  151.0929  139.9281  155.9978 C   0  0  0  0  0  0  0  0  0  0  0  0
  151.3537  141.1011  156.5950 N   0  5  0  0  0  0  0  0  0  0  0  0
  152.1689  141.1419  157.6791 C   0  0  0  0  0  0  0  0  0  0  0  0
  152.8788  140.2385  158.1266 O   0  0  0  0  0  0  0  0  0  0  0  0
  152.1140  142.4531  158.4162 C   0  0  0  0  0  0  0  0  0  0  0  0
  151.4684  143.5628  157.8248 C   0  0  0  0  0  0  0  0  0  0  0  0
  151.3793  144.7894  158.5114 C   0  0  0  0  0  0  0  0  0  0  0  0
  151.9271  144.9170  159.8016 C   0  0  0  0  0  0  0  0  0  0  0  0
  152.5612  143.8155  160.4060 C   0  0  0  0  0  0  0  0  0  0  0  0
  152.6506  142.5886  159.7202 C   0  0  0  0  0  0  0  0  0  0  0  0
  150.9109  139.8648  154.6539 N   0  0  0  0  0  0  0  0  0  0  0  0
  150.6558  138.6926  154.0600 C   0  0  0  0  0  0  0  0  0  0  0  0
  150.5475  137.4778  154.6082 N   0  0  0  0  0  0  0  0  0  0  0  0
  150.7402  137.5282  155.9586 C   0  0  0  0  0  0  0  0  0  0  0  0
  149.5247  134.9045  155.3794 C   0  0  0  0  0  0  0  0  0  0  0  0
  148.5846  133.8097  155.8430 C   0  0  2  0  0  0  0  0  0  0  0  0
  147.3384  133.8950  155.1822 O   0  0  0  0  0  0  0  0  0  0  0  0
  147.8878  136.6723  162.3565 H   0  0  0  0  0  0  0  0  0  0  0  0
  147.1202  136.7636  160.7766 H   0  0  0  0  0  0  0  0  0  0  0  0
  148.5879  135.8166  160.9884 H   0  0  0  0  0  0  0  0  0  0  0  0
  148.5219  133.6249  162.3292 H   0  0  0  0  0  0  0  0  0  0  0  0
  147.0019  133.0446  162.9974 H   0  0  0  0  0  0  0  0  0  0  0  0
  147.7958  134.4480  163.7032 H   0  0  0  0  0  0  0  0  0  0  0  0
  145.6593  135.8408  163.3903 H   0  0  0  0  0  0  0  0  0  0  0  0
  144.8486  134.4423  162.6937 H   0  0  0  0  0  0  0  0  0  0  0  0
  144.9087  135.9595  161.8045 H   0  0  0  0  0  0  0  0  0  0  0  0
  144.3892  132.6438  161.0265 H   0  0  0  0  0  0  0  0  0  0  0  0
  145.8409  131.6772  161.2357 H   0  0  0  0  0  0  0  0  0  0  0  0
  145.1038  131.8221  159.6499 H   0  0  0  0  0  0  0  0  0  0  0  0
  144.5984  135.4052  159.3202 H   0  0  0  0  0  0  0  0  0  0  0  0
  145.3009  134.4646  158.0167 H   0  0  0  0  0  0  0  0  0  0  0  0
  146.1566  135.8597  158.6498 H   0  0  0  0  0  0  0  0  0  0  0  0
  148.7596  132.1426  158.1792 H   0  0  0  0  0  0  0  0  0  0  0  0
  147.0803  132.5239  157.8313 H   0  0  0  0  0  0  0  0  0  0  0  0
  147.8404  134.9848  157.5047 H   0  0  0  0  0  0  0  0  0  0  0  0
  151.4412  134.5926  156.4466 H   0  0  0  0  0  0  0  0  0  0  0  0
  151.0014  136.5148  158.9797 H   0  0  0  0  0  0  0  0  0  0  0  0
  151.0401  143.4806  156.8362 H   0  0  0  0  0  0  0  0  0  0  0  0
  150.8877  145.6317  158.0480 H   0  0  0  0  0  0  0  0  0  0  0  0
  151.8570  145.8567  160.3288 H   0  0  0  0  0  0  0  0  0  0  0  0
  152.9762  143.9095  161.3987 H   0  0  0  0  0  0  0  0  0  0  0  0
  153.1306  141.7519  160.2071 H   0  0  0  0  0  0  0  0  0  0  0  0
  150.5201  138.7341  152.9896 H   0  0  0  0  0  0  0  0  0  0  0  0
  148.9846  135.8390  155.2141 H   0  0  0  0  0  0  0  0  0  0  0  0
  150.0812  134.6529  154.4761 H   0  0  0  0  0  0  0  0  0  0  0  0
  149.0349  132.8300  155.6770 H   0  0  0  0  0  0  0  0  0  0  0  0
  147.4123  134.5263  154.4828 H   0  0  0  0  0  0  0  0  0  0  0  0
  1  2  1  0  0  0  0
  1 34  1  0  0  0  0
  1 35  1  0  0  0  0
  1 36  1  0  0  0  0
  2  3  1  0  0  0  0
  2  4  1  0  0  0  0
  2  5  1  0  0  0  0
  3 37  1  0  0  0  0
  3 38  1  0  0  0  0
  3 39  1  0  0  0  0
  4 40  1  0  0  0  0
  4 41  1  0  0  0  0
  4 42  1  0  0  0  0
  5  6  1  0  0  0  0
  5  7  1  0  0  0  0
  5  8  1  0  0  0  0
  6 43  1  0  0  0  0
  6 44  1  0  0  0  0
  6 45  1  0  0  0  0
  7 46  1  0  0  0  0
  7 47  1  0  0  0  0
  7 48  1  0  0  0  0
  8  9  1  0  0  0  0
  9 10  1  0  0  0  0
  9 49  1  0  0  0  0
  9 50  1  0  0  0  0
 10 32  1  0  0  0  0
 10 11  1  0  0  0  0
 10 51  1  0  0  0  0
 11 12  1  0  0  0  0
 12 13  1  0  0  0  0
 12 31  1  0  0  0  0
 12 52  1  0  0  0  0
 13 30  1  0  0  0  0
 13 14  1  0  0  0  0
 14 15  2  0  0  0  0
 14 53  1  0  0  0  0
 15 16  1  0  0  0  0
 16 30  2  0  0  0  0
 16 17  1  0  0  0  0
 17 18  1  0  0  0  0
 17 27  2  0  0  0  0
 18 19  1  0  0  0  0
 19 20  2  0  0  0  0
 19 21  1  0  0  0  0
 21 26  1  0  0  0  0
 21 22  2  0  0  0  0
 22 23  1  0  0  0  0
 22 54  1  0  0  0  0
 23 24  2  0  0  0  0
 23 55  1  0  0  0  0
 24 25  1  0  0  0  0
 24 56  1  0  0  0  0
 25 26  2  0  0  0  0
 25 57  1  0  0  0  0
 26 58  1  0  0  0  0
 27 28  1  0  0  0  0
 28 29  2  0  0  0  0
 28 59  1  0  0  0  0
 29 30  1  0  0  0  0
 31 32  1  0  0  0  0
 31 60  1  0  0  0  0
 31 61  1  0  0  0  0
 32 33  1  0  0  0  0
 32 62  1  0  0  0  0
 33 63  1  0  0  0  0
M  CHG  1  18  -1
M  END
> <s_m_source_file>
AV-unprocessed.smi

> <i_m_source_file_index>
36

> <i_lp_mmshare_version>
43012

> <i_f3d_flags>
0

> <s_epik_input>
W0NIM11DKFtDSDNdKShbQ0gzXSlbU2ldKFtDSDNdKShbQ0gzXSlPW0NIMl1bQ0BASF0xT1tDQEhdKFtDSDJdW0NASF0xW09IXSluKFtjSF1uMiljKGMyMyluW2NIXW5jM1tOSF1DKD1PKWM0W2NIXVtjSF1bY0hdW2NIXVtjSF00

> <s_epik_cmdline>
J2VwaWtfcHl0aG9uJywgJy1waCcsICc3LjAnLCAnLXRuJywgJzgnLCAnLW1hJywgJzIwMCcsICctbWV0YWxfYmluZGluZycsICctaW1hZScsICc8aW5maWxlLm1hZT4nLCAnLW9tYWUnLCAnPG91dGZpbGUubWFlPic=

> <r_lp_tautomer_probability>
1

> <r_epik_Ionization_Penalty>
4.75685

> <r_epik_Ionization_Penalty_Charging>
3.55822

> <r_epik_Ionization_Penalty_Neutral>
1.19863

> <r_epik_State_Penalty>
3.564

> <r_epik_Charging_Adjusted_Penalty>
7.12222

> <i_epik_Tot_Q>
-1

> <i_epik_Tot_abs_Q>
1

> <r_epik_Metal_State_Penalty>
0.523258

> <b_epik_Metal_Only>
1

> <s_epik_Chemistry_Notes>
This compound contains an acetal/aminal-like group ( X-CH(R)-Y where X, Y are N, S, or O) that may be acid/base labile, releasing an aldehyde.

> <s_lp_Force_Field>
OPLS_2005

> <r_lp_Energy>
39.042

> <b_lp_Chiralities_Consistent>
1

> <s_lp_Variant>
AV-unprocessed.smi:36-24

> <Gold.Version>
5.8.1

> <Gold.Id.Protein>
6NUR|6NUR_protein|mol2

> <Gold.PLP.Fitness>
58.7355

> <Gold.PLP.PLP>
-49.4449

> <Gold.PLP.part.hbond>
-3.0000

> <Gold.PLP.part.metal>
0.0000

> <Gold.PLP.part.buried>
-8.3131

> <Gold.PLP.part.nonpolar>
-37.8508

> <Gold.PLP.part.repulsive>
0.2919

> <Gold.PLP.ligand.clash>
0.0000

> <Gold.PLP.ligand.torsion>
1.5456

> <Gold.PLP.Chemscore.Hbond>
2.9436

> <Gold.PLP.Chemscore.CHOScore>
1.0000

> <Gold.PLP.Chemscore.Metal>
0.0000

> <Gold.Chemscore.Hbonds>
donor molecule, donor type, donor heavy atom, donor atom, acceptor molecule, acceptor atom, score
      P1  H  6896  6908       L1    11  0.99
      P1  H  7989  7998       L1    27  1.00
      P1  H  7997  8010       L1    20  0.95
      L1  C    28    59       P1  7957  1.00

> <Gold.PLP.Chemscore.Internal.Correction>
0.5510

> <Gold.Rescore>
     Score         DG    S(hbond)    S(metal)    S(lipo)     H(rot)  DE(clash)    DE(int)     intcor
     14.64     -21.71       2.57        0.00     123.93       2.67       0.15       6.92       ----

> <Gold.Chemscore.Fitness>
14.6388

> <Gold.Chemscore.DG>
-21.7129

> <Gold.Chemscore.ZeroCoef>
-5.4800

> <Gold.Chemscore.Hbond>
2.5656

> <Gold.Chemscore.Metal>
0.0000

> <Gold.Chemscore.Lipo>
123.9275

> <Gold.Chemscore.Internal_Hbond>
0.0000

> <Gold.Chemscore.DEClash>
0.1499

> <Gold.Chemscore.DEInternal>
6.9242

> <Gold.Chemscore.Rot>
2.6702

> <Gold.Chemscore.Internal.Correction>
   9.000000E+99

> <Gold.Chemscore.Hbonds>
donor molecule, donor type, donor heavy atom, donor atom, acceptor molecule, acceptor atom, score
      P1  H  6896  6908       L1    11  0.94
      P1  H  7989  7998       L1    27  0.60
      P1  H  7997  8010       L1    20  0.56

> <Gold.Chemscore.Hbond.Weighted>
-8.5691

> <Gold.Chemscore.Metal.Weighted>
-0.0000

> <Gold.Chemscore.Lipo.Weighted>
-14.4995

> <Gold.Chemscore.Internal_Hbond.Weighted>
0.0000

> <Gold.Chemscore.DEClash.Weighted>
0.1499

> <Gold.Chemscore.DEInternal.Weighted>
6.9242

> <Gold.Chemscore.Rot.Weighted>
6.8358

> <Gold.Chemscore.Internal.Correction.Weighted>
   9.000000E+99

> <Gold.Protein.RotatedTorsions>
[ 6907 6896 6895 6894 ] final  138.10 input  -60.11 | X-H torsion
[ 7974 7965 7964 7962 ] final   19.04 input  175.53 | X-H torsion
[ 8008 7997 7996 7995 ] final   43.13 input   59.86 | X-H torsion
[ 10167 10162 10161 10158 ] final   90.75 input  -65.29 | X-H torsion
[ 10718 10713 10712 10709 ] final   62.34 input   66.30 | X-H torsion
[ 10763 10752 10751 10750 ] final  -54.92 input  -60.55 | X-H torsion
[ 11005 11000 10999 10996 ] final -147.57 input  -57.11 | X-H torsion

> <Gold.Protein.ActiveResidues>
 VAL166  LYS551  ARG553  GLY616  TRP617  ASP618  TYR619  PRO620  LYS621  CYS622 
 ASP623  PHE694  ASN695  SER759  ASP760  ASP761  ALA762  ILE779  LEU786  VAL792 
 PHE793  MET794  SER795  GLU796  ALA797  LYS798  CYS799  TRP800  GLU811  SER814 

> <Gold.Protein.RotatedAtoms>
  152.2705  133.5378  159.5435 H   0  0  0  0  0  0  0  0  0  0  0  0  # atno 6907 bound_to 6896
  150.7157  134.0704  159.3871 H   0  0  0  0  0  0  0  0  0  0  0  0  # atno 6908 bound_to 6896
  151.8619  135.0521  160.0521 H   0  0  0  0  0  0  0  0  0  0  0  0  # atno 6909 bound_to 6896
  146.2163  139.8370  142.8648 H   0  0  0  0  0  0  0  0  0  0  0  0  # atno 7974 bound_to 7965
  155.2977  140.3383  155.4249 H   0  0  0  0  0  0  0  0  0  0  0  0  # atno 8008 bound_to 7997
  156.2016  140.1735  156.7926 H   0  0  0  0  0  0  0  0  0  0  0  0  # atno 8009 bound_to 7997
  154.5567  140.0695  156.8738 H   0  0  0  0  0  0  0  0  0  0  0  0  # atno 8010 bound_to 7997
  139.8442  144.6626  150.9247 H   0  0  0  0  0  0  0  0  0  0  0  0  # atno 10167 bound_to 10162
  157.5894  130.9045  149.9575 H   0  0  0  0  0  0  0  0  0  0  0  0  # atno 10718 bound_to 10713
  154.1825  135.6441  153.5038 H   0  0  0  0  0  0  0  0  0  0  0  0  # atno 10763 bound_to 10752
  153.0055  135.5409  154.6499 H   0  0  0  0  0  0  0  0  0  0  0  0  # atno 10764 bound_to 10752
  154.5867  135.2930  155.0650 H   0  0  0  0  0  0  0  0  0  0  0  0  # atno 10765 bound_to 10752
  140.7703  134.3197  157.5077 H   0  0  0  0  0  0  0  0  0  0  0  0  # atno 11005 bound_to 11000
  145.2938  141.0175  143.3647 LP  0  0  0  0  0  0  0  0  0  0  0  0  # atno 17320 bound_to 7965
  144.9057  139.4592  143.6611 LP  0  0  0  0  0  0  0  0  0  0  0  0  # atno 17321 bound_to 7965
  140.7795  143.3885  151.1351 LP  0  0  0  0  0  0  0  0  0  0  0  0  # atno 17342 bound_to 10162
  139.7529  143.8751  152.3081 LP  0  0  0  0  0  0  0  0  0  0  0  0  # atno 17343 bound_to 10162
  156.0946  130.3660  150.0330 LP  0  0  0  0  0  0  0  0  0  0  0  0  # atno 17370 bound_to 10713
  156.8456  130.9441  151.3629 LP  0  0  0  0  0  0  0  0  0  0  0  0  # atno 17371 bound_to 10713
  139.8757  134.9256  156.3380 LP  0  0  0  0  0  0  0  0  0  0  0  0  # atno 17394 bound_to 11000
  140.9580  133.7407  156.0362 LP  0  0  0  0  0  0  0  0  0  0  0  0  # atno 17395 bound_to 11000

$$$$
