AV-unprocessed.smi:496|AV-procd|sdf|2721|dock6
  -GOLD-   2262023163D 1   1.00000     0.00000
 Structure written by MMmdl.
 41 43  0  0  0  0  0  0  0  0  2 V2000
  150.0984  141.1876  154.8984 C   0  0  0  0  0  0  0  0  0  0  0  0
  150.8875  140.0289  154.6777 O   0  0  0  0  0  0  0  0  0  0  0  0
  151.6915  139.6623  155.7897 C   0  0  0  0  0  0  0  0  0  0  0  0
  150.8371  139.1628  156.9682 C   0  0  0  0  0  0  0  0  0  0  0  0
  151.5527  138.1725  157.7746 N   0  0  0  0  0  0  0  0  0  0  0  0
  151.2424  136.8701  158.0623 C   0  0  0  0  0  0  0  0  0  0  0  0
  149.9951  136.1534  157.5715 C   0  0  1  0  0  0  0  0  0  0  0  0
  150.3271  135.1005  156.5038 C   0  0  0  0  0  0  0  0  0  0  0  0
  149.2560  135.5204  158.6655 N   0  5  0  0  0  0  0  0  0  0  0  0
  148.6368  136.2085  159.6667 C   0  0  0  0  0  0  0  0  0  0  0  0
  148.5574  137.4280  159.8526 O   0  0  0  0  0  0  0  0  0  0  0  0
  147.9817  135.3106  160.6467 C   0  0  0  0  0  0  0  0  0  0  0  0
  147.6926  135.5144  161.9701 C   0  0  0  0  0  0  0  0  0  0  0  0
  147.0650  134.3285  162.4423 C   0  0  0  0  0  0  0  0  0  0  0  0
  147.0136  133.4805  161.3739 C   0  0  0  0  0  0  0  0  0  0  0  0
  147.5647  134.0610  160.2742 O   0  0  0  0  0  0  0  0  0  0  0  0
  152.1167  136.2444  158.8579 N   0  0  0  0  0  0  0  0  0  0  0  0
  153.0786  137.2039  159.0920 C   0  0  0  0  0  0  0  0  0  0  0  0
  154.2662  137.1440  159.8555 C   0  0  0  0  0  0  0  0  0  0  0  0
  155.1114  138.2687  159.9502 C   0  0  0  0  0  0  0  0  0  0  0  0
  154.7811  139.4659  159.2835 C   0  0  0  0  0  0  0  0  0  0  0  0
  153.6017  139.5453  158.5181 C   0  0  0  0  0  0  0  0  0  0  0  0
  152.7595  138.4197  158.4273 C   0  0  0  0  0  0  0  0  0  0  0  0
  149.4873  141.3834  154.0175 H   0  0  0  0  0  0  0  0  0  0  0  0
  150.7108  142.0709  155.0784 H   0  0  0  0  0  0  0  0  0  0  0  0
  149.4262  141.0506  155.7465 H   0  0  0  0  0  0  0  0  0  0  0  0
  152.4416  138.9261  155.4969 H   0  0  0  0  0  0  0  0  0  0  0  0
  152.2405  140.5507  156.1028 H   0  0  0  0  0  0  0  0  0  0  0  0
  150.5708  140.0050  157.6069 H   0  0  0  0  0  0  0  0  0  0  0  0
  149.8878  138.7444  156.6366 H   0  0  0  0  0  0  0  0  0  0  0  0
  149.3653  136.8877  157.0690 H   0  0  0  0  0  0  0  0  0  0  0  0
  150.8428  135.5551  155.6576 H   0  0  0  0  0  0  0  0  0  0  0  0
  149.4220  134.6275  156.1216 H   0  0  0  0  0  0  0  0  0  0  0  0
  150.9701  134.3141  156.9009 H   0  0  0  0  0  0  0  0  0  0  0  0
  147.9088  136.4116  162.5311 H   0  0  0  0  0  0  0  0  0  0  0  0
  146.6991  134.1221  163.4368 H   0  0  0  0  0  0  0  0  0  0  0  0
  146.6385  132.4786  161.2266 H   0  0  0  0  0  0  0  0  0  0  0  0
  154.5258  136.2299  160.3686 H   0  0  0  0  0  0  0  0  0  0  0  0
  156.0168  138.2120  160.5363 H   0  0  0  0  0  0  0  0  0  0  0  0
  155.4330  140.3235  159.3602 H   0  0  0  0  0  0  0  0  0  0  0  0
  153.3486  140.4622  158.0072 H   0  0  0  0  0  0  0  0  0  0  0  0
  1  2  1  0  0  0  0
  1 24  1  0  0  0  0
  1 25  1  0  0  0  0
  1 26  1  0  0  0  0
  2  3  1  0  0  0  0
  3  4  1  0  0  0  0
  3 27  1  0  0  0  0
  3 28  1  0  0  0  0
  4  5  1  0  0  0  0
  4 29  1  0  0  0  0
  4 30  1  0  0  0  0
  5 23  1  0  0  0  0
  5  6  1  0  0  0  0
  6  7  1  0  0  0  0
  6 17  2  0  0  0  0
  7  8  1  0  0  0  0
  7  9  1  0  0  0  0
  7 31  1  0  0  0  0
  8 32  1  0  0  0  0
  8 33  1  0  0  0  0
  8 34  1  0  0  0  0
  9 10  1  0  0  0  0
 10 11  2  0  0  0  0
 10 12  1  0  0  0  0
 12 16  1  0  0  0  0
 12 13  2  0  0  0  0
 13 14  1  0  0  0  0
 13 35  1  0  0  0  0
 14 15  2  0  0  0  0
 14 36  1  0  0  0  0
 15 16  1  0  0  0  0
 15 37  1  0  0  0  0
 17 18  1  0  0  0  0
 18 23  2  0  0  0  0
 18 19  1  0  0  0  0
 19 20  2  0  0  0  0
 19 38  1  0  0  0  0
 20 21  1  0  0  0  0
 20 39  1  0  0  0  0
 21 22  2  0  0  0  0
 21 40  1  0  0  0  0
 22 23  1  0  0  0  0
 22 41  1  0  0  0  0
M  CHG  1   9  -1
M  END
> <s_m_source_file>
AV-unprocessed.smi

> <i_m_source_file_index>
496

> <i_lp_mmshare_version>
43012

> <i_f3d_flags>
0

> <s_epik_input>
W2NIXTFbY0hdW2NIXVtjSF1jKGMxMiluKFtDSDJdW0NIMl1PW0NIM10pYyhuMilbQ0BIXShbQ0gzXSlbTkhdQyg9TyljM1tjSF1bY0hdW2NIXW8z

> <s_epik_cmdline>
J2VwaWtfcHl0aG9uJywgJy1waCcsICc3LjAnLCAnLXRuJywgJzgnLCAnLW1hJywgJzIwMCcsICctbWV0YWxfYmluZGluZycsICctaW1hZScsICc8aW5maWxlLm1hZT4nLCAnLW9tYWUnLCAnPG91dGZpbGUubWFlPic=

> <r_epik_Ionization_Penalty>
7.3423

> <r_epik_Ionization_Penalty_Charging>
6.43826

> <r_epik_Ionization_Penalty_Neutral>
0.90404

> <r_epik_State_Penalty>
6.54438

> <r_epik_Charging_Adjusted_Penalty>
12.9826

> <i_epik_Tot_Q>
-1

> <i_epik_Tot_abs_Q>
1

> <r_epik_Metal_State_Penalty>
2.56942

> <b_epik_Metal_Only>
1

> <s_lp_Force_Field>
OPLS_2005

> <r_lp_Energy>
16.0483

> <b_lp_Chiralities_Consistent>
1

> <s_lp_Variant>
AV-unprocessed.smi:496-6

> <Gold.Version>
5.8.1

> <Gold.Id.Protein>
6NUR|6NUR_protein|mol2

> <Gold.PLP.Fitness>
52.4509

> <Gold.PLP.PLP>
-42.8786

> <Gold.PLP.part.hbond>
-4.3055

> <Gold.PLP.part.metal>
0.0000

> <Gold.PLP.part.buried>
-6.0134

> <Gold.PLP.part.nonpolar>
-33.2005

> <Gold.PLP.part.repulsive>
0.0887

> <Gold.PLP.ligand.clash>
0.0000

> <Gold.PLP.ligand.torsion>
0.7721

> <Gold.PLP.Chemscore.Hbond>
3.6515

> <Gold.PLP.Chemscore.CHOScore>
0.0000

> <Gold.PLP.Chemscore.Metal>
0.0000

> <Gold.Chemscore.Hbonds>
donor molecule, donor type, donor heavy atom, donor atom, acceptor molecule, acceptor atom, score
      P1  H  6896  6908       L1     9  2.00
      P1  H  6896  6909       L1    17  0.26
      P1  H  6931  6943       L1    11  0.20
      P1  H  6934  6947       L1    11  0.09
      P1  H  7989  7998       L1     2  0.35

> <Gold.PLP.Chemscore.Internal.Correction>
0.1620

> <Gold.Rescore>
     Score         DG    S(hbond)    S(metal)    S(lipo)     H(rot)  DE(clash)    DE(int)     intcor
     19.67     -20.69       2.49        0.00      97.99       1.78       0.07       0.95       ----

> <Gold.Chemscore.Fitness>
19.6750

> <Gold.Chemscore.DG>
-20.6897

> <Gold.Chemscore.ZeroCoef>
-5.4800

> <Gold.Chemscore.Hbond>
2.4868

> <Gold.Chemscore.Metal>
0.0000

> <Gold.Chemscore.Lipo>
97.9943

> <Gold.Chemscore.Internal_Hbond>
0.0000

> <Gold.Chemscore.DEClash>
0.0677

> <Gold.Chemscore.DEInternal>
0.9471

> <Gold.Chemscore.Rot>
1.7819

> <Gold.Chemscore.Internal.Correction>
   9.000000E+99

> <Gold.Chemscore.Hbonds>
donor molecule, donor type, donor heavy atom, donor atom, acceptor molecule, acceptor atom, score
      P1  H  6896  6908       L1     9  0.11
      P1  H  6896  6909       L1    17  0.21
      P1  H  6931  6943       L1    11  0.20
      P1  H  6934  6947       L1    11  0.10
      P1  H  7989  7998       L1     2  0.01

> <Gold.Chemscore.Hbond.Weighted>
-8.3060

> <Gold.Chemscore.Metal.Weighted>
-0.0000

> <Gold.Chemscore.Lipo.Weighted>
-11.4653

> <Gold.Chemscore.Internal_Hbond.Weighted>
0.0000

> <Gold.Chemscore.DEClash.Weighted>
0.0677

> <Gold.Chemscore.DEInternal.Weighted>
0.9471

> <Gold.Chemscore.Rot.Weighted>
4.5617

> <Gold.Chemscore.Internal.Correction.Weighted>
   9.000000E+99

> <Gold.Protein.RotatedTorsions>
[ 6907 6896 6895 6894 ] final  171.03 input  -60.11 | X-H torsion
[ 7974 7965 7964 7962 ] final  -85.28 input  175.53 | X-H torsion
[ 8008 7997 7996 7995 ] final -144.56 input   59.86 | X-H torsion
[ 10167 10162 10161 10158 ] final -112.86 input  -65.29 | X-H torsion
[ 10718 10713 10712 10709 ] final   33.41 input   66.30 | X-H torsion
[ 10763 10752 10751 10750 ] final   47.59 input  -60.55 | X-H torsion
[ 11005 11000 10999 10996 ] final -171.20 input  -57.11 | X-H torsion

> <Gold.Protein.ActiveResidues>
 VAL166  LYS551  ARG553  GLY616  TRP617  ASP618  TYR619  PRO620  LYS621  CYS622 
 ASP623  PHE694  ASN695  SER759  ASP760  ASP761  ALA762  ILE779  LEU786  VAL792 
 PHE793  MET794  SER795  GLU796  ALA797  LYS798  CYS799  TRP800  GLU811  SER814 

> <Gold.Protein.RotatedAtoms>
  151.8067  133.3376  159.3542 H   0  0  0  0  0  0  0  0  0  0  0  0  # atno 6907 bound_to 6896
  150.7340  134.5703  159.5896 H   0  0  0  0  0  0  0  0  0  0  0  0  # atno 6908 bound_to 6896
  152.3104  134.7505  160.0389 H   0  0  0  0  0  0  0  0  0  0  0  0  # atno 6909 bound_to 6896
  145.4953  140.9550  143.1789 H   0  0  0  0  0  0  0  0  0  0  0  0  # atno 7974 bound_to 7965
  155.5289  140.0598  157.2893 H   0  0  0  0  0  0  0  0  0  0  0  0  # atno 8008 bound_to 7997
  154.4491  140.1939  156.0519 H   0  0  0  0  0  0  0  0  0  0  0  0  # atno 8009 bound_to 7997
  156.0666  140.3265  155.7529 H   0  0  0  0  0  0  0  0  0  0  0  0  # atno 8010 bound_to 7997
  140.1181  143.4467  152.1709 H   0  0  0  0  0  0  0  0  0  0  0  0  # atno 10167 bound_to 10162
  157.2976  130.7334  149.6647 H   0  0  0  0  0  0  0  0  0  0  0  0  # atno 10718 bound_to 10713
  152.9798  135.5971  154.3788 H   0  0  0  0  0  0  0  0  0  0  0  0  # atno 10763 bound_to 10752
  154.3454  135.2767  155.2402 H   0  0  0  0  0  0  0  0  0  0  0  0  # atno 10764 bound_to 10752
  154.4465  135.6000  153.6218 H   0  0  0  0  0  0  0  0  0  0  0  0  # atno 10765 bound_to 10752
  140.5109  134.5802  157.5018 H   0  0  0  0  0  0  0  0  0  0  0  0  # atno 11005 bound_to 11000
  144.7810  139.6525  143.7154 LP  0  0  0  0  0  0  0  0  0  0  0  0  # atno 17320 bound_to 7965
  146.2259  139.5722  142.9587 LP  0  0  0  0  0  0  0  0  0  0  0  0  # atno 17321 bound_to 7965
  139.5583  144.7388  151.4229 LP  0  0  0  0  0  0  0  0  0  0  0  0  # atno 17342 bound_to 10162
  140.6887  143.7912  150.7224 LP  0  0  0  0  0  0  0  0  0  0  0  0  # atno 17343 bound_to 10162
  155.9670  130.4290  150.4812 LP  0  0  0  0  0  0  0  0  0  0  0  0  # atno 17370 bound_to 10713
  157.2787  131.0602  151.2212 LP  0  0  0  0  0  0  0  0  0  0  0  0  # atno 17371 bound_to 10713
  139.9659  134.7374  156.0139 LP  0  0  0  0  0  0  0  0  0  0  0  0  # atno 17394 bound_to 11000
  141.1386  133.6569  156.3664 LP  0  0  0  0  0  0  0  0  0  0  0  0  # atno 17395 bound_to 11000

$$$$
