AV-unprocessed.smi:290|AV-procd|sdf|2244|dock7
  -GOLD-   2262022123D 1   1.00000     0.00000
 Structure written by MMmdl.
 59 62  0  0  0  0  0  0  0  0  2 V2000
  150.0140  138.3051  154.1542 C   0  0  0  0  0  0  0  0  0  0  0  0
  149.7366  139.3857  155.2142 C   0  0  1  0  0  0  0  0  0  0  0  0
  150.9099  139.6270  155.9898 O   0  0  0  0  0  0  0  0  0  0  0  0
  151.2889  140.9917  155.8891 C   0  0  0  0  0  0  0  0  0  0  0  0
  149.9797  141.7231  155.6248 C   0  0  0  0  0  0  0  0  0  0  0  0
  149.2471  140.7634  154.6999 C   0  0  1  0  0  0  0  0  0  0  0  0
  149.6984  140.9992  153.3755 O   0  0  0  0  0  0  0  0  0  0  0  0
  147.7120  140.9595  154.7397 C   0  0  0  0  0  0  0  0  0  0  0  0
  146.9729  139.8560  154.1470 N   0  0  0  0  0  0  0  0  0  0  0  0
  147.0854  139.3905  152.8579 C   0  0  0  0  0  0  0  0  0  0  0  0
  146.3257  138.3706  152.5696 N   0  0  0  0  0  0  0  0  0  0  0  0
  145.6247  138.1142  153.7436 C   0  0  0  0  0  0  0  0  0  0  0  0
  144.6476  137.1511  154.1397 C   0  0  0  0  0  0  0  0  0  0  0  0
  144.1674  136.1583  153.3416 N   0  0  0  0  0  0  0  0  0  0  0  0
  142.7878  135.6934  153.4446 C   0  0  0  0  0  0  0  0  0  0  0  0
  142.7239  134.3871  152.6419 C   0  0  0  0  0  0  0  0  0  0  0  0
  144.0261  134.3828  151.8220 C   0  0  2  0  0  0  0  0  0  0  0  0
  144.4995  133.0466  151.3521 N   0  3  2  0  0  0  0  0  0  0  0  0
  145.8415  133.1249  150.7195 C   0  0  0  0  0  0  0  0  0  0  0  0
  143.5281  132.3216  150.4860 C   0  0  0  0  0  0  0  0  0  0  0  0
  143.7305  132.6356  148.9934 C   0  0  0  0  0  0  0  0  0  0  0  0
  142.5756  132.2735  148.2658 O   0  0  0  0  0  0  0  0  0  0  0  0
  145.0025  135.1101  152.7705 C   0  0  2  0  0  0  0  0  0  0  0  0
  145.5896  134.2007  153.8770 C   0  0  0  0  0  0  0  0  0  0  0  0
  144.1642  137.2483  155.4067 N   0  0  0  0  0  0  0  0  0  0  0  0
  144.6110  138.1932  156.2379 C   0  0  0  0  0  0  0  0  0  0  0  0
  145.5269  139.1347  156.0119 N   0  0  0  0  0  0  0  0  0  0  0  0
  146.0099  139.0582  154.7399 C   0  0  0  0  0  0  0  0  0  0  0  0
  143.8649  135.0116  150.9437 H   0  0  0  0  0  0  0  0  0  0  0  0
  145.8052  135.5471  152.1790 H   0  0  0  0  0  0  0  0  0  0  0  0
  149.1329  138.1087  153.5438 H   0  0  0  0  0  0  0  0  0  0  0  0
  150.2998  137.3665  154.6290 H   0  0  0  0  0  0  0  0  0  0  0  0
  150.8282  138.5947  153.4891 H   0  0  0  0  0  0  0  0  0  0  0  0
  149.0049  138.9933  155.9206 H   0  0  0  0  0  0  0  0  0  0  0  0
  151.7908  141.3365  156.7932 H   0  0  0  0  0  0  0  0  0  0  0  0
  151.9751  141.1121  155.0497 H   0  0  0  0  0  0  0  0  0  0  0  0
  149.4364  141.8335  156.5643 H   0  0  0  0  0  0  0  0  0  0  0  0
  150.1216  142.7188  155.2024 H   0  0  0  0  0  0  0  0  0  0  0  0
  149.3687  140.3083  152.8216 H   0  0  0  0  0  0  0  0  0  0  0  0
  147.3737  141.0838  155.7691 H   0  0  0  0  0  0  0  0  0  0  0  0
  147.4349  141.8758  154.2168 H   0  0  0  0  0  0  0  0  0  0  0  0
  147.7608  139.8278  152.1368 H   0  0  0  0  0  0  0  0  0  0  0  0
  142.4899  135.5278  154.4808 H   0  0  0  0  0  0  0  0  0  0  0  0
  142.1251  136.4446  153.0131 H   0  0  0  0  0  0  0  0  0  0  0  0
  142.6979  133.5365  153.3246 H   0  0  0  0  0  0  0  0  0  0  0  0
  141.8287  134.3458  152.0206 H   0  0  0  0  0  0  0  0  0  0  0  0
  145.8097  133.7349  149.8157 H   0  0  0  0  0  0  0  0  0  0  0  0
  146.2154  132.1394  150.4464 H   0  0  0  0  0  0  0  0  0  0  0  0
  146.5803  133.5614  151.3903 H   0  0  0  0  0  0  0  0  0  0  0  0
  143.6119  131.2424  150.5977 H   0  0  0  0  0  0  0  0  0  0  0  0
  142.5115  132.5723  150.7922 H   0  0  0  0  0  0  0  0  0  0  0  0
  143.8943  133.7055  148.8612 H   0  0  0  0  0  0  0  0  0  0  0  0
  144.6008  132.1312  148.5754 H   0  0  0  0  0  0  0  0  0  0  0  0
  141.8914  132.8986  148.4536 H   0  0  0  0  0  0  0  0  0  0  0  0
  146.2063  133.4045  153.4616 H   0  0  0  0  0  0  0  0  0  0  0  0
  144.8091  133.7332  154.4773 H   0  0  0  0  0  0  0  0  0  0  0  0
  146.2256  134.7649  154.5589 H   0  0  0  0  0  0  0  0  0  0  0  0
  144.1745  138.1921  157.2258 H   0  0  0  0  0  0  0  0  0  0  0  0
  144.5957  132.4836  152.1854 H   0  0  0  0  0  0  0  0  0  0  0  0
  1  2  1  0  0  0  0
  1 31  1  0  0  0  0
  1 32  1  0  0  0  0
  1 33  1  0  0  0  0
  2  6  1  0  0  0  0
  2  3  1  0  0  0  0
  2 34  1  0  0  0  0
  3  4  1  0  0  0  0
  4  5  1  0  0  0  0
  4 35  1  0  0  0  0
  4 36  1  0  0  0  0
  5  6  1  0  0  0  0
  5 37  1  0  0  0  0
  5 38  1  0  0  0  0
  6  7  1  0  0  0  0
  6  8  1  0  0  0  0
  7 39  1  0  0  0  0
  8  9  1  0  0  0  0
  8 40  1  0  0  0  0
  8 41  1  0  0  0  0
  9 28  1  0  0  0  0
  9 10  1  0  0  0  0
 10 11  2  0  0  0  0
 10 42  1  0  0  0  0
 11 12  1  0  0  0  0
 12 28  2  0  0  0  0
 12 13  1  0  0  0  0
 13 14  1  0  0  0  0
 13 25  2  0  0  0  0
 14 23  1  0  0  0  0
 14 15  1  0  0  0  0
 15 16  1  0  0  0  0
 15 43  1  0  0  0  0
 15 44  1  0  0  0  0
 16 17  1  0  0  0  0
 16 45  1  0  0  0  0
 16 46  1  0  0  0  0
 17 29  1  0  0  0  0
 17 18  1  0  0  0  0
 17 23  1  0  0  0  0
 18 19  1  0  0  0  0
 18 20  1  0  0  0  0
 18 59  1  0  0  0  0
 19 47  1  0  0  0  0
 19 48  1  0  0  0  0
 19 49  1  0  0  0  0
 20 21  1  0  0  0  0
 20 50  1  0  0  0  0
 20 51  1  0  0  0  0
 21 22  1  0  0  0  0
 21 52  1  0  0  0  0
 21 53  1  0  0  0  0
 22 54  1  0  0  0  0
 23 30  1  0  0  0  0
 23 24  1  0  0  0  0
 24 55  1  0  0  0  0
 24 56  1  0  0  0  0
 24 57  1  0  0  0  0
 25 26  1  0  0  0  0
 26 27  2  0  0  0  0
 26 58  1  0  0  0  0
 27 28  1  0  0  0  0
M  CHG  1  18   1
M  END
> <s_m_source_file>
AV-unprocessed.smi

> <i_m_source_file_index>
290

> <i_lp_mmshare_version>
43012

> <i_f3d_flags>
0

> <s_epik_input>
W0NIMl0xW0NIMl1PW0NAQEhdKFtDSDNdKVtDQEBdMShbT0hdKVtDSDJdbihbY0hdbjIpYyhjMjMpbltjSF1uYzNONFtDSDJdW0NIMl1bQ0BIXShbQ0BIXTRbQ0gzXSlOKFtDSDNdKVtDSDJdW0NIMl1bT0hd

> <s_epik_cmdline>
J2VwaWtfcHl0aG9uJywgJy1waCcsICc3LjAnLCAnLXRuJywgJzgnLCAnLW1hJywgJzIwMCcsICctbWV0YWxfYmluZGluZycsICctaW1hZScsICc8aW5maWxlLm1hZT4nLCAnLW9tYWUnLCAnPG91dGZpbGUubWFlPic=

> <r_lp_tautomer_probability>
1

> <r_epik_Ionization_Penalty>
0.0036983

> <r_epik_Ionization_Penalty_Charging>
0.0032725

> <r_epik_Ionization_Penalty_Neutral>
0.000425798

> <r_epik_State_Penalty>
-0

> <r_epik_Charging_Adjusted_Penalty>
0.0032725

> <i_epik_Tot_Q>
1

> <i_epik_Tot_abs_Q>
1

> <r_epik_Metal_State_Penalty>
-0

> <b_epik_Metal_Only>
0

> <s_lp_Force_Field>
OPLS_2005

> <r_lp_Energy>
62.044

> <b_lp_Chiralities_Consistent>
1

> <s_lp_Variant>
AV-unprocessed.smi:290-30

> <Gold.Version>
5.8.1

> <Gold.Id.Protein>
6NUR|6NUR_protein|mol2

> <Gold.PLP.Fitness>
53.0772

> <Gold.PLP.PLP>
-43.5987

> <Gold.PLP.part.hbond>
-6.0501

> <Gold.PLP.part.metal>
0.0000

> <Gold.PLP.part.buried>
-6.3586

> <Gold.PLP.part.nonpolar>
-31.2940

> <Gold.PLP.part.repulsive>
0.3701

> <Gold.PLP.ligand.clash>
0.0000

> <Gold.PLP.ligand.torsion>
1.3480

> <Gold.PLP.Chemscore.Hbond>
2.9397

> <Gold.PLP.Chemscore.CHOScore>
1.0000

> <Gold.PLP.Chemscore.Metal>
0.0000

> <Gold.Chemscore.Hbonds>
donor molecule, donor type, donor heavy atom, donor atom, acceptor molecule, acceptor atom, score
      L1  H     7    39       P1  7957  0.59
      L1  H    22    54       P1 10186  0.96
      P1  H  7989  7998       L1     7  0.21
      P1  H  8011  8017       L1     7  1.00
      P1  H 10785 10796       L1    22  0.11
      L1  C    10    42       P1  7957  1.00

> <Gold.PLP.Chemscore.Internal.Correction>
0.3555

> <Gold.Rescore>
     Score         DG    S(hbond)    S(metal)    S(lipo)     H(rot)  DE(clash)    DE(int)     intcor
     13.67     -15.43       2.38        0.00      90.55       3.35       0.37       1.39       ----

> <Gold.Chemscore.Fitness>
13.6689

> <Gold.Chemscore.DG>
-15.4291

> <Gold.Chemscore.ZeroCoef>
-5.4800

> <Gold.Chemscore.Hbond>
2.3760

> <Gold.Chemscore.Metal>
0.0000

> <Gold.Chemscore.Lipo>
90.5461

> <Gold.Chemscore.Internal_Hbond>
0.0000

> <Gold.Chemscore.DEClash>
0.3705

> <Gold.Chemscore.DEInternal>
1.3896

> <Gold.Chemscore.Rot>
3.3518

> <Gold.Chemscore.Internal.Correction>
   9.000000E+99

> <Gold.Chemscore.Hbonds>
donor molecule, donor type, donor heavy atom, donor atom, acceptor molecule, acceptor atom, score
      L1  H     7    39       P1  7957  0.58
      L1  H    22    54       P1 10186  0.90
      P1  H  7989  7998       L1     7  0.09
      P1  H  8011  8017       L1     7  0.49

> <Gold.Chemscore.Hbond.Weighted>
-7.9357

> <Gold.Chemscore.Metal.Weighted>
-0.0000

> <Gold.Chemscore.Lipo.Weighted>
-10.5939

> <Gold.Chemscore.Internal_Hbond.Weighted>
0.0000

> <Gold.Chemscore.DEClash.Weighted>
0.3705

> <Gold.Chemscore.DEInternal.Weighted>
1.3896

> <Gold.Chemscore.Rot.Weighted>
8.5806

> <Gold.Chemscore.Internal.Correction.Weighted>
   9.000000E+99

> <Gold.Protein.RotatedTorsions>
[ 6907 6896 6895 6894 ] final  -79.89 input  -60.11 | X-H torsion
[ 7974 7965 7964 7962 ] final -115.60 input  175.53 | X-H torsion
[ 8008 7997 7996 7995 ] final  165.16 input   59.86 | X-H torsion
[ 10167 10162 10161 10158 ] final   15.35 input  -65.29 | X-H torsion
[ 10718 10713 10712 10709 ] final  142.37 input   66.30 | X-H torsion
[ 10763 10752 10751 10750 ] final   85.72 input  -60.55 | X-H torsion
[ 11005 11000 10999 10996 ] final   35.40 input  -57.11 | X-H torsion

> <Gold.Protein.ActiveResidues>
 VAL166  LYS551  ARG553  GLY616  TRP617  ASP618  TYR619  PRO620  LYS621  CYS622 
 ASP623  PHE694  ASN695  SER759  ASP760  ASP761  ALA762  ILE779  LEU786  VAL792 
 PHE793  MET794  SER795  GLU796  ALA797  LYS798  CYS799  TRP800  GLU811  SER814 

> <Gold.Protein.RotatedAtoms>
  150.6940  134.4053  159.5136 H   0  0  0  0  0  0  0  0  0  0  0  0  # atno 6907 bound_to 6896
  152.1820  134.8743  160.0534 H   0  0  0  0  0  0  0  0  0  0  0  0  # atno 6908 bound_to 6896
  151.9730  133.3697  159.4115 H   0  0  0  0  0  0  0  0  0  0  0  0  # atno 6909 bound_to 6896
  145.1065  140.8585  143.3895 H   0  0  0  0  0  0  0  0  0  0  0  0  # atno 7974 bound_to 7965
  156.1822  140.1677  156.8252 H   0  0  0  0  0  0  0  0  0  0  0  0  # atno 8008 bound_to 7997
  154.5373  140.0744  156.8483 H   0  0  0  0  0  0  0  0  0  0  0  0  # atno 8009 bound_to 7997
  155.3284  140.3377  155.4242 H   0  0  0  0  0  0  0  0  0  0  0  0  # atno 8010 bound_to 7997
  140.5873  143.8864  150.6842 H   0  0  0  0  0  0  0  0  0  0  0  0  # atno 10167 bound_to 10162
  157.3813  131.0992  151.0736 H   0  0  0  0  0  0  0  0  0  0  0  0  # atno 10718 bound_to 10713
  153.1502  135.4607  154.9625 H   0  0  0  0  0  0  0  0  0  0  0  0  # atno 10763 bound_to 10752
  154.7818  135.3191  154.7975 H   0  0  0  0  0  0  0  0  0  0  0  0  # atno 10764 bound_to 10752
  153.8482  135.6924  153.4849 H   0  0  0  0  0  0  0  0  0  0  0  0  # atno 10765 bound_to 10752
  140.2430  134.3392  155.7918 H   0  0  0  0  0  0  0  0  0  0  0  0  # atno 11005 bound_to 11000
  145.0895  139.2900  143.5742 LP  0  0  0  0  0  0  0  0  0  0  0  0  # atno 17320 bound_to 7965
  146.3528  140.0428  142.8641 LP  0  0  0  0  0  0  0  0  0  0  0  0  # atno 17321 bound_to 7965
  140.2379  143.3686  152.1512 LP  0  0  0  0  0  0  0  0  0  0  0  0  # atno 17342 bound_to 10162
  139.5205  144.7034  151.5426 LP  0  0  0  0  0  0  0  0  0  0  0  0  # atno 17343 bound_to 10162
  157.1803  130.6306  149.5670 LP  0  0  0  0  0  0  0  0  0  0  0  0  # atno 17370 bound_to 10713
  155.9776  130.4756  150.6606 LP  0  0  0  0  0  0  0  0  0  0  0  0  # atno 17371 bound_to 10713
  141.2209  133.7310  156.8916 LP  0  0  0  0  0  0  0  0  0  0  0  0  # atno 17394 bound_to 11000
  140.1634  134.9150  157.2743 LP  0  0  0  0  0  0  0  0  0  0  0  0  # atno 17395 bound_to 11000

$$$$
