AV-unprocessed.smi:136|AV-procd|sdf|1173|dock7
  -GOLD-   2262018323D 1   1.00000     0.00000
 Structure written by MMmdl.
 54 58  0  0  0  0  0  0  0  0  1 V2000
  150.9136  137.9425  155.4622 O   0  0  0  0  0  0  0  0  0  0  0  0
  151.0820  138.2936  156.6316 C   0  0  0  0  0  0  0  0  0  0  0  0
  151.2462  137.2291  157.7370 C   0  0  0  0  0  0  0  0  0  0  0  0
  150.0468  136.3834  157.9238 N   0  0  0  0  0  0  0  0  0  0  0  0
  149.7636  135.3819  156.9625 C   0  0  0  0  0  0  0  0  0  0  0  0
  150.5001  135.2010  155.9918 O   0  0  0  0  0  0  0  0  0  0  0  0
  148.5526  134.6051  157.2011 C   0  0  0  0  0  0  0  0  0  0  0  0
  148.2065  133.6324  156.3408 F   0  0  0  0  0  0  0  0  0  0  0  0
  147.7700  134.8478  158.2726 C   0  0  0  0  0  0  0  0  0  0  0  0
  148.0578  135.8305  159.2031 N   0  0  0  0  0  0  0  0  0  0  0  0
  147.1585  136.1030  160.3908 C   0  0  2  0  0  0  0  0  0  0  0  0
  147.9769  136.1365  161.6959 C   0  0  0  0  0  0  0  0  0  0  0  0
  147.2244  135.1703  162.5891 C   0  0  0  0  0  0  0  0  0  0  0  0
  146.6244  134.2071  161.5763 C   0  0  0  0  0  0  0  0  0  0  0  0
  146.2203  135.0731  160.5243 O   0  0  0  0  0  0  0  0  0  0  0  0
  149.2081  136.6322  159.0362 C   0  0  0  0  0  0  0  0  0  0  0  0
  149.4694  137.5297  159.8407 O   0  0  0  0  0  0  0  0  0  0  0  0
  151.1346  139.5972  156.9851 N   0  0  0  0  0  0  0  0  0  0  0  0
  151.4668  140.0137  158.2331 N   0  0  0  0  0  0  0  0  0  0  0  0
  151.6006  141.2884  158.2436 C   0  0  0  0  0  0  0  0  0  0  0  0
  151.9637  142.0831  159.4382 C   0  0  0  0  0  0  0  0  0  0  0  0
  152.6958  141.4730  160.4824 C   0  0  0  0  0  0  0  0  0  0  0  0
  153.0399  142.2281  161.6206 C   0  0  0  0  0  0  0  0  0  0  0  0
  152.6568  143.5811  161.7154 C   0  0  0  0  0  0  0  0  0  0  0  0
  153.0799  144.5002  163.1128 Cl  0  0  0  0  0  0  0  0  0  0  0  0
  151.9286  144.1848  160.6707 C   0  0  0  0  0  0  0  0  0  0  0  0
  151.5788  143.4401  159.5273 C   0  0  0  0  0  0  0  0  0  0  0  0
  151.3534  141.9306  156.9202 C   0  0  0  0  0  0  0  0  0  0  0  0
  150.9806  140.7238  156.0555 C   0  0  2  0  0  0  0  0  0  0  0  0
  149.6070  140.8394  155.4579 C   0  0  0  0  0  0  0  0  0  0  0  0
  148.3962  140.2553  155.7197 C   0  0  0  0  0  0  0  0  0  0  0  0
  147.4717  140.8062  154.7904 C   0  0  0  0  0  0  0  0  0  0  0  0
  148.1837  141.6912  154.0329 C   0  0  0  0  0  0  0  0  0  0  0  0
  149.4850  141.7254  154.4289 O   0  0  0  0  0  0  0  0  0  0  0  0
  152.1219  136.6199  157.5078 H   0  0  0  0  0  0  0  0  0  0  0  0
  151.5067  137.7290  158.6716 H   0  0  0  0  0  0  0  0  0  0  0  0
  146.8860  134.2394  158.3865 H   0  0  0  0  0  0  0  0  0  0  0  0
  146.6417  137.0368  160.1616 H   0  0  0  0  0  0  0  0  0  0  0  0
  148.9911  135.7757  161.5164 H   0  0  0  0  0  0  0  0  0  0  0  0
  148.0265  137.1474  162.1013 H   0  0  0  0  0  0  0  0  0  0  0  0
  147.8650  134.6775  163.3209 H   0  0  0  0  0  0  0  0  0  0  0  0
  146.4302  135.6929  163.1235 H   0  0  0  0  0  0  0  0  0  0  0  0
  147.3760  133.5024  161.2181 H   0  0  0  0  0  0  0  0  0  0  0  0
  145.7829  133.6413  161.9763 H   0  0  0  0  0  0  0  0  0  0  0  0
  152.9984  140.4372  160.4291 H   0  0  0  0  0  0  0  0  0  0  0  0
  153.5982  141.7670  162.4223 H   0  0  0  0  0  0  0  0  0  0  0  0
  151.6366  145.2221  160.7456 H   0  0  0  0  0  0  0  0  0  0  0  0
  151.0215  143.9268  158.7409 H   0  0  0  0  0  0  0  0  0  0  0  0
  150.5447  142.6603  156.9832 H   0  0  0  0  0  0  0  0  0  0  0  0
  152.2488  142.4297  156.5483 H   0  0  0  0  0  0  0  0  0  0  0  0
  151.7134  140.6147  155.2539 H   0  0  0  0  0  0  0  0  0  0  0  0
  148.2003  139.5193  156.4855 H   0  0  0  0  0  0  0  0  0  0  0  0
  146.4198  140.5843  154.6900 H   0  0  0  0  0  0  0  0  0  0  0  0
  147.9336  142.3471  153.2121 H   0  0  0  0  0  0  0  0  0  0  0  0
  1  2  2  0  0  0  0
  2  3  1  0  0  0  0
  2 18  1  0  0  0  0
  3  4  1  0  0  0  0
  3 35  1  0  0  0  0
  3 36  1  0  0  0  0
  4 16  1  0  0  0  0
  4  5  1  0  0  0  0
  5  6  2  0  0  0  0
  5  7  1  0  0  0  0
  7  8  1  0  0  0  0
  7  9  2  0  0  0  0
  9 10  1  0  0  0  0
  9 37  1  0  0  0  0
 10 11  1  0  0  0  0
 10 16  1  0  0  0  0
 11 15  1  0  0  0  0
 11 12  1  0  0  0  0
 11 38  1  0  0  0  0
 12 13  1  0  0  0  0
 12 39  1  0  0  0  0
 12 40  1  0  0  0  0
 13 14  1  0  0  0  0
 13 41  1  0  0  0  0
 13 42  1  0  0  0  0
 14 15  1  0  0  0  0
 14 43  1  0  0  0  0
 14 44  1  0  0  0  0
 16 17  2  0  0  0  0
 18 29  1  0  0  0  0
 18 19  1  0  0  0  0
 19 20  2  0  0  0  0
 20 21  1  0  0  0  0
 20 28  1  0  0  0  0
 21 27  1  0  0  0  0
 21 22  2  0  0  0  0
 22 23  1  0  0  0  0
 22 45  1  0  0  0  0
 23 24  2  0  0  0  0
 23 46  1  0  0  0  0
 24 25  1  0  0  0  0
 24 26  1  0  0  0  0
 26 27  2  0  0  0  0
 26 47  1  0  0  0  0
 27 48  1  0  0  0  0
 28 29  1  0  0  0  0
 28 49  1  0  0  0  0
 28 50  1  0  0  0  0
 29 30  1  0  0  0  0
 29 51  1  0  0  0  0
 30 34  1  0  0  0  0
 30 31  2  0  0  0  0
 31 32  1  0  0  0  0
 31 52  1  0  0  0  0
 32 33  2  0  0  0  0
 32 53  1  0  0  0  0
 33 34  1  0  0  0  0
 33 54  1  0  0  0  0
M  END
> <s_m_source_file>
AV-unprocessed.smi

> <i_m_source_file_index>
136

> <i_lp_mmshare_version>
43012

> <i_f3d_flags>
0

> <s_epik_input>
bzFbY0hdW2NIXVtjSF1jMVtDQEBIXTJbQ0gyXUMoYzNbY0hdW2NIXWMoQ2wpW2NIXVtjSF0zKT1OTjJDKD1PKVtDSDJdbjRjKD1PKWMoRilbY0hdbihjND1PKVtDQEBIXTVbQ0gyXVtDSDJdW0NIMl1PNQ==

> <s_epik_cmdline>
J2VwaWtfcHl0aG9uJywgJy1waCcsICc3LjAnLCAnLXRuJywgJzgnLCAnLW1hJywgJzIwMCcsICctbWV0YWxfYmluZGluZycsICctaW1hZScsICc8aW5maWxlLm1hZT4nLCAnLW9tYWUnLCAnPG91dGZpbGUubWFlPic=

> <r_lp_tautomer_probability>
1

> <r_epik_Ionization_Penalty>
2.55467e-08

> <r_epik_Ionization_Penalty_Charging>
4.85705e-09

> <r_epik_Ionization_Penalty_Neutral>
2.06897e-08

> <r_epik_State_Penalty>
-0

> <r_epik_Charging_Adjusted_Penalty>
4.85705e-09

> <i_epik_Tot_Q>
0

> <i_epik_Tot_abs_Q>
0

> <r_epik_Metal_State_Penalty>
-0

> <b_epik_Metal_Only>
0

> <s_epik_Chemistry_Notes>
This compound has an imine and may undergo hydrolysis. This compound contains an acetal/aminal-like group ( X-CH(R)-Y where X, Y are N, S, or O) that may be acid/base labile, releasing an aldehyde.

> <s_lp_Force_Field>
OPLS_2005

> <r_lp_Energy>
40.0267

> <b_lp_Chiralities_Consistent>
1

> <s_lp_Variant>
AV-unprocessed.smi:136-3

> <Gold.Version>
5.8.1

> <Gold.Id.Protein>
6NUR|6NUR_protein|mol2

> <Gold.PLP.Fitness>
52.8627

> <Gold.PLP.PLP>
-54.1688

> <Gold.PLP.part.hbond>
-3.0194

> <Gold.PLP.part.metal>
0.0000

> <Gold.PLP.part.buried>
-6.8419

> <Gold.PLP.part.nonpolar>
-44.1779

> <Gold.PLP.part.repulsive>
0.2726

> <Gold.PLP.ligand.clash>
0.0000

> <Gold.PLP.ligand.torsion>
0.9814

> <Gold.PLP.Chemscore.Hbond>
0.1930

> <Gold.PLP.Chemscore.CHOScore>
0.0000

> <Gold.PLP.Chemscore.Metal>
0.0000

> <Gold.Chemscore.Hbonds>
donor molecule, donor type, donor heavy atom, donor atom, acceptor molecule, acceptor atom, score
      P1  H  6931  6943       L1    17  0.12
      P1  H  8011  8017       L1    34  0.04

> <Gold.PLP.Chemscore.Internal.Correction>
0.0778

> <Gold.Rescore>
     Score         DG    S(hbond)    S(metal)    S(lipo)     H(rot)  DE(clash)    DE(int)     intcor
     14.19     -19.44       0.10        0.00     155.93       1.81       1.94       3.32       ----

> <Gold.Chemscore.Fitness>
14.1864

> <Gold.Chemscore.DG>
-19.4394

> <Gold.Chemscore.ZeroCoef>
-5.4800

> <Gold.Chemscore.Hbond>
0.1010

> <Gold.Chemscore.Metal>
0.0000

> <Gold.Chemscore.Lipo>
155.9341

> <Gold.Chemscore.Internal_Hbond>
0.0000

> <Gold.Chemscore.DEClash>
1.9375

> <Gold.Chemscore.DEInternal>
3.3155

> <Gold.Chemscore.Rot>
1.8056

> <Gold.Chemscore.Internal.Correction>
   9.000000E+99

> <Gold.Chemscore.Hbonds>
donor molecule, donor type, donor heavy atom, donor atom, acceptor molecule, acceptor atom, score
      P1  H  6931  6943       L1    17  0.12

> <Gold.Chemscore.Hbond.Weighted>
-0.3375

> <Gold.Chemscore.Metal.Weighted>
-0.0000

> <Gold.Chemscore.Lipo.Weighted>
-18.2443

> <Gold.Chemscore.Internal_Hbond.Weighted>
0.0000

> <Gold.Chemscore.DEClash.Weighted>
1.9375

> <Gold.Chemscore.DEInternal.Weighted>
3.3155

> <Gold.Chemscore.Rot.Weighted>
4.6223

> <Gold.Chemscore.Internal.Correction.Weighted>
   9.000000E+99

> <Gold.Protein.RotatedTorsions>
[ 6907 6896 6895 6894 ] final  127.95 input  -60.11 | X-H torsion
[ 7974 7965 7964 7962 ] final   36.17 input  175.53 | X-H torsion
[ 8008 7997 7996 7995 ] final -109.13 input   59.86 | X-H torsion
[ 10167 10162 10161 10158 ] final -124.55 input  -65.29 | X-H torsion
[ 10718 10713 10712 10709 ] final -148.33 input   66.30 | X-H torsion
[ 10763 10752 10751 10750 ] final  165.93 input  -60.55 | X-H torsion
[ 11005 11000 10999 10996 ] final -169.15 input  -57.11 | X-H torsion

> <Gold.Protein.ActiveResidues>
 VAL166  LYS551  ARG553  GLY616  TRP617  ASP618  TYR619  PRO620  LYS621  CYS622 
 ASP623  PHE694  ASN695  SER759  ASP760  ASP761  ALA762  ILE779  LEU786  VAL792 
 PHE793  MET794  SER795  GLU796  ALA797  LYS798  CYS799  TRP800  GLU811  SER814 

> <Gold.Protein.RotatedAtoms>
  152.3764  133.6487  159.6126 H   0  0  0  0  0  0  0  0  0  0  0  0  # atno 6907 bound_to 6896
  150.7707  133.9185  159.3400 H   0  0  0  0  0  0  0  0  0  0  0  0  # atno 6908 bound_to 6896
  151.6999  135.0933  160.0300 H   0  0  0  0  0  0  0  0  0  0  0  0  # atno 6909 bound_to 6896
  146.1230  139.6051  142.9277 H   0  0  0  0  0  0  0  0  0  0  0  0  # atno 7974 bound_to 7965
  154.9547  140.0400  157.2161 H   0  0  0  0  0  0  0  0  0  0  0  0  # atno 8008 bound_to 7997
  154.7945  140.2841  155.5945 H   0  0  0  0  0  0  0  0  0  0  0  0  # atno 8009 bound_to 7997
  156.2954  140.2567  156.2800 H   0  0  0  0  0  0  0  0  0  0  0  0  # atno 8010 bound_to 7997
  139.9915  143.5635  152.2340 H   0  0  0  0  0  0  0  0  0  0  0  0  # atno 10167 bound_to 10162
  156.4189  130.8018  151.2240 H   0  0  0  0  0  0  0  0  0  0  0  0  # atno 10718 bound_to 10713
  154.3314  135.2754  155.2470 H   0  0  0  0  0  0  0  0  0  0  0  0  # atno 10763 bound_to 10752
  154.4780  135.5866  153.6372 H   0  0  0  0  0  0  0  0  0  0  0  0  # atno 10764 bound_to 10752
  152.9866  135.6104  154.3507 H   0  0  0  0  0  0  0  0  0  0  0  0  # atno 10765 bound_to 10752
  140.5340  134.5588  157.5082 H   0  0  0  0  0  0  0  0  0  0  0  0  # atno 11005 bound_to 11000
  145.5424  141.0420  143.2323 LP  0  0  0  0  0  0  0  0  0  0  0  0  # atno 17320 bound_to 7965
  144.7616  139.6944  143.7232 LP  0  0  0  0  0  0  0  0  0  0  0  0  # atno 17321 bound_to 7965
  139.6336  144.7647  151.2484 LP  0  0  0  0  0  0  0  0  0  0  0  0  # atno 17342 bound_to 10162
  140.7453  143.6436  150.8312 LP  0  0  0  0  0  0  0  0  0  0  0  0  # atno 17343 bound_to 10162
  157.7508  131.0234  150.3834 LP  0  0  0  0  0  0  0  0  0  0  0  0  # atno 17370 bound_to 10713
  156.4147  130.3941  149.6866 LP  0  0  0  0  0  0  0  0  0  0  0  0  # atno 17371 bound_to 10713
  139.9539  134.7569  156.0385 LP  0  0  0  0  0  0  0  0  0  0  0  0  # atno 17394 bound_to 11000
  141.1265  133.6598  156.3351 LP  0  0  0  0  0  0  0  0  0  0  0  0  # atno 17395 bound_to 11000

$$$$
