AV-unprocessed.smi:1613|AV-procd|sdf|6478|dock2
  -GOLD-   22720 7143D 1   1.00000     0.00000
 Structure written by MMmdl.
 53 55  0  0  0  0  0  0  0  0  2 V2000
  147.9149  140.2001  155.6821 O   0  0  0  0  0  0  0  0  0  0  0  0
  148.4827  140.6067  154.6675 C   0  0  0  0  0  0  0  0  0  0  0  0
  149.6663  141.5799  154.7629 C   0  0  0  0  0  0  0  0  0  0  0  0
  150.5907  141.2628  155.8635 N   0  0  0  0  0  0  0  0  0  0  0  0
  150.4531  141.9902  157.0576 C   0  0  0  0  0  0  0  0  0  0  0  0
  151.2542  141.7507  158.1057 C   0  0  0  0  0  0  0  0  0  0  0  0
  152.2649  140.7002  157.9279 C   0  0  0  0  0  0  0  0  0  0  0  0
  152.3911  140.0332  156.8418 N   0  0  0  0  0  0  0  0  0  0  0  0
  151.5457  140.2835  155.7444 C   0  0  0  0  0  0  0  0  0  0  0  0
  151.6556  139.6409  154.6998 O   0  0  0  0  0  0  0  0  0  0  0  0
  148.1120  140.2505  153.4284 N   0  0  0  0  0  0  0  0  0  0  0  0
  147.0209  139.3345  153.1111 C   0  0  2  0  0  0  0  0  0  0  0  0
  147.1730  138.0117  153.8819 C   0  0  0  0  0  0  0  0  0  0  0  0
  146.0765  137.0113  153.4837 C   0  0  0  0  0  0  0  0  0  0  0  0
  146.0732  136.7572  152.0188 N   0  3  1  0  0  0  0  0  0  0  0  0
  145.0977  135.6965  151.6503 C   0  0  0  0  0  0  0  0  0  0  0  0
  145.7538  134.3302  151.3331 C   0  0  0  0  0  0  0  0  0  0  0  0
  144.8387  133.4361  150.4653 C   0  0  0  0  0  0  0  0  0  0  0  0
  145.5050  132.0896  150.1408 C   0  0  0  0  0  0  0  0  0  0  0  0
  145.9018  131.3442  151.4236 C   0  0  0  0  0  0  0  0  0  0  0  0
  146.7947  132.2182  152.3172 C   0  0  0  0  0  0  0  0  0  0  0  0
  146.1281  133.5698  152.6240 C   0  0  0  0  0  0  0  0  0  0  0  0
  145.9105  138.0184  151.2466 C   0  0  0  0  0  0  0  0  0  0  0  0
  147.0009  139.0429  151.6037 C   0  0  0  0  0  0  0  0  0  0  0  0
  150.2076  141.5900  153.8150 H   0  0  0  0  0  0  0  0  0  0  0  0
  149.2680  142.5890  154.8766 H   0  0  0  0  0  0  0  0  0  0  0  0
  149.6676  142.7318  157.0656 H   0  0  0  0  0  0  0  0  0  0  0  0
  151.1998  142.2691  159.0514 H   0  0  0  0  0  0  0  0  0  0  0  0
  152.9095  140.5215  158.7923 H   0  0  0  0  0  0  0  0  0  0  0  0
  148.6273  140.6378  152.6512 H   0  0  0  0  0  0  0  0  0  0  0  0
  146.0718  139.8013  153.3826 H   0  0  0  0  0  0  0  0  0  0  0  0
  148.1532  137.5751  153.6838 H   0  0  0  0  0  0  0  0  0  0  0  0
  147.1269  138.1926  154.9565 H   0  0  0  0  0  0  0  0  0  0  0  0
  146.2383  136.0761  154.0213 H   0  0  0  0  0  0  0  0  0  0  0  0
  145.0987  137.3870  153.7899 H   0  0  0  0  0  0  0  0  0  0  0  0
  144.4207  135.5696  152.4965 H   0  0  0  0  0  0  0  0  0  0  0  0
  144.4712  136.0355  150.8234 H   0  0  0  0  0  0  0  0  0  0  0  0
  146.6842  134.5056  150.7904 H   0  0  0  0  0  0  0  0  0  0  0  0
  143.8994  133.2536  150.9894 H   0  0  0  0  0  0  0  0  0  0  0  0
  144.5707  133.9363  149.5358 H   0  0  0  0  0  0  0  0  0  0  0  0
  144.8285  131.4730  149.5480 H   0  0  0  0  0  0  0  0  0  0  0  0
  146.3896  132.2581  149.5256 H   0  0  0  0  0  0  0  0  0  0  0  0
  145.0037  131.0580  151.9724 H   0  0  0  0  0  0  0  0  0  0  0  0
  146.4191  130.4178  151.1717 H   0  0  0  0  0  0  0  0  0  0  0  0
  147.0151  131.6929  153.2470 H   0  0  0  0  0  0  0  0  0  0  0  0
  147.7529  132.3868  151.8241 H   0  0  0  0  0  0  0  0  0  0  0  0
  146.8051  134.1721  153.2308 H   0  0  0  0  0  0  0  0  0  0  0  0
  145.2353  133.4058  153.2294 H   0  0  0  0  0  0  0  0  0  0  0  0
  145.9757  137.8172  150.1787 H   0  0  0  0  0  0  0  0  0  0  0  0
  144.9210  138.4382  151.4349 H   0  0  0  0  0  0  0  0  0  0  0  0
  146.8344  139.9655  151.0464 H   0  0  0  0  0  0  0  0  0  0  0  0
  147.9727  138.6615  151.2857 H   0  0  0  0  0  0  0  0  0  0  0  0
  146.9879  136.3933  151.7924 H   0  0  0  0  0  0  0  0  0  0  0  0
  1  2  2  0  0  0  0
  2  3  1  0  0  0  0
  2 11  1  0  0  0  0
  3  4  1  0  0  0  0
  3 25  1  0  0  0  0
  3 26  1  0  0  0  0
  4  9  1  0  0  0  0
  4  5  1  0  0  0  0
  5  6  2  0  0  0  0
  5 27  1  0  0  0  0
  6  7  1  0  0  0  0
  6 28  1  0  0  0  0
  7  8  2  0  0  0  0
  7 29  1  0  0  0  0
  8  9  1  0  0  0  0
  9 10  2  0  0  0  0
 11 12  1  0  0  0  0
 11 30  1  0  0  0  0
 12 24  1  0  0  0  0
 12 13  1  0  0  0  0
 12 31  1  0  0  0  0
 13 14  1  0  0  0  0
 13 32  1  0  0  0  0
 13 33  1  0  0  0  0
 14 15  1  0  0  0  0
 14 34  1  0  0  0  0
 14 35  1  0  0  0  0
 15 16  1  0  0  0  0
 15 23  1  0  0  0  0
 15 53  1  0  0  0  0
 16 17  1  0  0  0  0
 16 36  1  0  0  0  0
 16 37  1  0  0  0  0
 17 22  1  0  0  0  0
 17 18  1  0  0  0  0
 17 38  1  0  0  0  0
 18 19  1  0  0  0  0
 18 39  1  0  0  0  0
 18 40  1  0  0  0  0
 19 20  1  0  0  0  0
 19 41  1  0  0  0  0
 19 42  1  0  0  0  0
 20 21  1  0  0  0  0
 20 43  1  0  0  0  0
 20 44  1  0  0  0  0
 21 22  1  0  0  0  0
 21 45  1  0  0  0  0
 21 46  1  0  0  0  0
 22 47  1  0  0  0  0
 22 48  1  0  0  0  0
 23 24  1  0  0  0  0
 23 49  1  0  0  0  0
 23 50  1  0  0  0  0
 24 51  1  0  0  0  0
 24 52  1  0  0  0  0
M  CHG  1  15   1
M  END
> <s_m_source_file>
AV-unprocessed.smi

> <i_m_source_file_index>
1613

> <i_lp_mmshare_version>
43012

> <i_f3d_flags>
0

> <s_epik_input>
Tz1jMW5bY0hdW2NIXVtjSF1uMVtDSDJdQyg9TylbTkhdW0NIXTJbQ0gyXVtDSDJdTihbQ0gyXVtDSDJdMilbQ0gyXVtDSF0zW0NIMl1bQ0gyXVtDSDJdW0NIMl1bQ0gyXTM=

> <s_epik_cmdline>
J2VwaWtfcHl0aG9uJywgJy1waCcsICc3LjAnLCAnLXRuJywgJzgnLCAnLW1hJywgJzIwMCcsICctbWV0YWxfYmluZGluZycsICctaW1hZScsICc8aW5maWxlLm1hZT4nLCAnLW9tYWUnLCAnPG91dGZpbGUubWFlPic=

> <r_lp_tautomer_probability>
1

> <r_epik_Ionization_Penalty>
0.00530026

> <r_epik_Ionization_Penalty_Charging>
0.00529416

> <r_epik_Ionization_Penalty_Neutral>
6.10215e-06

> <r_epik_State_Penalty>
0.00386377

> <r_epik_Charging_Adjusted_Penalty>
0.00915793

> <i_epik_Tot_Q>
1

> <i_epik_Tot_abs_Q>
1

> <r_epik_Metal_State_Penalty>
-0

> <b_epik_Metal_Only>
0

> <s_lp_Force_Field>
OPLS_2005

> <r_lp_Energy>
30.7073

> <b_lp_Chiralities_Consistent>
1

> <s_lp_Variant>
AV-unprocessed.smi:1613-1

> <Gold.Version>
5.8.1

> <Gold.Id.Protein>
6NUR|6NUR_protein|mol2

> <Gold.PLP.Fitness>
57.1697

> <Gold.PLP.PLP>
-42.8367

> <Gold.PLP.part.hbond>
-4.0000

> <Gold.PLP.part.metal>
0.0000

> <Gold.PLP.part.buried>
2.8232

> <Gold.PLP.part.nonpolar>
-41.8306

> <Gold.PLP.part.repulsive>
0.2287

> <Gold.PLP.ligand.clash>
0.0000

> <Gold.PLP.ligand.torsion>
1.4853

> <Gold.PLP.Chemscore.Hbond>
4.7425

> <Gold.PLP.Chemscore.CHOScore>
0.9961

> <Gold.PLP.Chemscore.Metal>
0.0000

> <Gold.Chemscore.Hbonds>
donor molecule, donor type, donor heavy atom, donor atom, acceptor molecule, acceptor atom, score
      L1  H    11    30       P1  7957  0.78
      L1  H    15    53       P1  7948  2.00
      P1  H  7989  7998       L1    10  1.00
      P1  H  7997  8008       L1     8  0.90
      L1  C     5    27       P1  8028  0.94

> <Gold.PLP.Chemscore.Internal.Correction>
0.0878

> <Gold.Rescore>
     Score         DG    S(hbond)    S(metal)    S(lipo)     H(rot)  DE(clash)    DE(int)     intcor
     18.28     -23.82       2.98        0.00     112.03       1.84       3.37       2.17       ----

> <Gold.Chemscore.Fitness>
18.2768

> <Gold.Chemscore.DG>
-23.8212

> <Gold.Chemscore.ZeroCoef>
-5.4800

> <Gold.Chemscore.Hbond>
2.9787

> <Gold.Chemscore.Metal>
0.0000

> <Gold.Chemscore.Lipo>
112.0263

> <Gold.Chemscore.Internal_Hbond>
0.0000

> <Gold.Chemscore.DEClash>
3.3726

> <Gold.Chemscore.DEInternal>
2.1718

> <Gold.Chemscore.Rot>
1.8417

> <Gold.Chemscore.Internal.Correction>
   9.000000E+99

> <Gold.Chemscore.Hbonds>
donor molecule, donor type, donor heavy atom, donor atom, acceptor molecule, acceptor atom, score
      L1  H    11    30       P1  7957  0.80
      L1  H    15    53       P1  7948  0.98
      P1  H  7989  7998       L1    10  0.39
      P1  H  7997  8008       L1     8  0.16

> <Gold.Chemscore.Hbond.Weighted>
-9.9488

> <Gold.Chemscore.Metal.Weighted>
-0.0000

> <Gold.Chemscore.Lipo.Weighted>
-13.1071

> <Gold.Chemscore.Internal_Hbond.Weighted>
0.0000

> <Gold.Chemscore.DEClash.Weighted>
3.3726

> <Gold.Chemscore.DEInternal.Weighted>
2.1718

> <Gold.Chemscore.Rot.Weighted>
4.7147

> <Gold.Chemscore.Internal.Correction.Weighted>
   9.000000E+99

> <Gold.Protein.RotatedTorsions>
[ 6907 6896 6895 6894 ] final -137.53 input  -60.11 | X-H torsion
[ 7974 7965 7964 7962 ] final   -4.90 input  175.53 | X-H torsion
[ 8008 7997 7996 7995 ] final  -64.51 input   59.86 | X-H torsion
[ 10167 10162 10161 10158 ] final  142.47 input  -65.29 | X-H torsion
[ 10718 10713 10712 10709 ] final -142.60 input   66.30 | X-H torsion
[ 10763 10752 10751 10750 ] final   88.42 input  -60.55 | X-H torsion
[ 11005 11000 10999 10996 ] final   -4.91 input  -57.11 | X-H torsion

> <Gold.Protein.ActiveResidues>
 VAL166  LYS551  ARG553  GLY616  TRP617  ASP618  TYR619  PRO620  LYS621  CYS622 
 ASP623  PHE694  ASN695  SER759  ASP760  ASP761  ALA762  ILE779  LEU786  VAL792 
 PHE793  MET794  SER795  GLU796  ALA797  LYS798  CYS799  TRP800  GLU811  SER814 

> <Gold.Protein.RotatedAtoms>
  151.0236  133.5854  159.2668 H   0  0  0  0  0  0  0  0  0  0  0  0  # atno 6907 bound_to 6896
  151.2962  135.0755  159.9232 H   0  0  0  0  0  0  0  0  0  0  0  0  # atno 6908 bound_to 6896
  152.5329  133.9926  159.7912 H   0  0  0  0  0  0  0  0  0  0  0  0  # atno 6909 bound_to 6896
  146.2363  140.1940  142.8333 H   0  0  0  0  0  0  0  0  0  0  0  0  # atno 7974 bound_to 7965
  154.4616  140.0952  156.6907 H   0  0  0  0  0  0  0  0  0  0  0  0  # atno 8008 bound_to 7997
  155.4979  140.3472  155.4347 H   0  0  0  0  0  0  0  0  0  0  0  0  # atno 8009 bound_to 7997
  156.0880  140.1390  156.9617 H   0  0  0  0  0  0  0  0  0  0  0  0  # atno 8010 bound_to 7997
  139.4993  144.6105  151.6283 H   0  0  0  0  0  0  0  0  0  0  0  0  # atno 10167 bound_to 10162
  156.3479  130.7672  151.1820 H   0  0  0  0  0  0  0  0  0  0  0  0  # atno 10718 bound_to 10713
  153.1767  135.4507  154.9974 H   0  0  0  0  0  0  0  0  0  0  0  0  # atno 10763 bound_to 10752
  154.8003  135.3253  154.7570 H   0  0  0  0  0  0  0  0  0  0  0  0  # atno 10764 bound_to 10752
  153.8039  135.6960  153.4906 H   0  0  0  0  0  0  0  0  0  0  0  0  # atno 10765 bound_to 10752
  140.6854  133.9117  155.8582 H   0  0  0  0  0  0  0  0  0  0  0  0  # atno 11005 bound_to 11000
  144.9835  140.8481  143.5383 LP  0  0  0  0  0  0  0  0  0  0  0  0  # atno 17320 bound_to 7965
  145.1937  139.2288  143.5229 LP  0  0  0  0  0  0  0  0  0  0  0  0  # atno 17321 bound_to 7965
  140.5778  143.9999  150.6251 LP  0  0  0  0  0  0  0  0  0  0  0  0  # atno 17342 bound_to 10162
  140.3138  143.3181  152.0853 LP  0  0  0  0  0  0  0  0  0  0  0  0  # atno 17343 bound_to 10162
  157.7457  131.0436  150.4751 LP  0  0  0  0  0  0  0  0  0  0  0  0  # atno 17370 bound_to 10713
  156.4941  130.4102  149.6390 LP  0  0  0  0  0  0  0  0  0  0  0  0  # atno 17371 bound_to 10713
  141.0284  134.0791  157.4042 LP  0  0  0  0  0  0  0  0  0  0  0  0  # atno 17394 bound_to 11000
  139.8939  135.0133  156.6923 LP  0  0  0  0  0  0  0  0  0  0  0  0  # atno 17395 bound_to 11000

$$$$
