AV-unprocessed.smi:2623|AV-procd|sdf|10229|dock1
  -GOLD-   2272014233D 1   1.00000     0.00000
 Structure written by MMmdl.
 40 42  0  0  0  0  0  0  0  0  1 V2000
  153.7803  135.7657  159.2260 O   0  0  0  0  0  0  0  0  0  0  0  0
  153.3608  136.6714  158.2291 C   0  0  0  0  0  0  0  0  0  0  0  0
  153.2089  138.0724  158.7397 C   0  0  0  0  0  0  0  0  0  0  0  0
  154.1082  138.6169  159.5604 N   0  0  0  0  0  0  0  0  0  0  0  0
  153.6085  139.8881  159.7611 C   0  0  0  0  0  0  0  0  0  0  0  0
  154.1101  140.9605  160.5328 C   0  0  0  0  0  0  0  0  0  0  0  0
  153.4194  142.1891  160.5819 C   0  0  0  0  0  0  0  0  0  0  0  0
  152.2209  142.3632  159.8601 C   0  0  0  0  0  0  0  0  0  0  0  0
  151.7037  141.3072  159.0854 C   0  0  0  0  0  0  0  0  0  0  0  0
  152.3948  140.0812  159.0430 C   0  0  0  0  0  0  0  0  0  0  0  0
  152.1618  138.8687  158.4003 N   0  0  0  0  0  0  0  0  0  0  0  0
  151.0269  138.5689  157.5352 C   0  0  0  0  0  0  0  0  0  0  0  0
  150.4197  137.1773  157.8081 C   0  0  2  0  0  0  0  0  0  0  0  0
  149.5664  136.8054  156.7450 O   0  0  0  0  0  0  0  0  0  0  0  0
  149.6140  137.1370  159.1143 C   0  0  0  0  0  0  0  0  0  0  0  0
  149.0730  135.8326  159.2796 O   0  0  0  0  0  0  0  0  0  0  0  0
  148.2630  135.5941  160.3689 C   0  0  0  0  0  0  0  0  0  0  0  0
  147.8324  134.2656  160.5664 C   0  0  0  0  0  0  0  0  0  0  0  0
  147.0012  133.9311  161.6527 C   0  0  0  0  0  0  0  0  0  0  0  0
  146.5916  134.9273  162.5578 C   0  0  0  0  0  0  0  0  0  0  0  0
  147.0140  136.2569  162.3733 C   0  0  0  0  0  0  0  0  0  0  0  0
  147.8443  136.5918  161.2858 C   0  0  0  0  0  0  0  0  0  0  0  0
  154.3668  135.1374  158.8333 H   0  0  0  0  0  0  0  0  0  0  0  0
  154.0962  136.6602  157.4237 H   0  0  0  0  0  0  0  0  0  0  0  0
  152.4218  136.3317  157.7924 H   0  0  0  0  0  0  0  0  0  0  0  0
  155.0291  140.8379  161.0868 H   0  0  0  0  0  0  0  0  0  0  0  0
  153.8120  143.0021  161.1749 H   0  0  0  0  0  0  0  0  0  0  0  0
  151.6989  143.3080  159.9013 H   0  0  0  0  0  0  0  0  0  0  0  0
  150.7866  141.4389  158.5306 H   0  0  0  0  0  0  0  0  0  0  0  0
  150.2744  139.3413  157.6987 H   0  0  0  0  0  0  0  0  0  0  0  0
  151.3199  138.6520  156.4895 H   0  0  0  0  0  0  0  0  0  0  0  0
  151.2129  136.4313  157.8625 H   0  0  0  0  0  0  0  0  0  0  0  0
  148.8454  137.4157  156.7110 H   0  0  0  0  0  0  0  0  0  0  0  0
  150.2543  137.4022  159.9575 H   0  0  0  0  0  0  0  0  0  0  0  0
  148.7994  137.8619  159.0658 H   0  0  0  0  0  0  0  0  0  0  0  0
  148.1426  133.4945  159.8767 H   0  0  0  0  0  0  0  0  0  0  0  0
  146.6780  132.9098  161.7912 H   0  0  0  0  0  0  0  0  0  0  0  0
  145.9538  134.6722  163.3913 H   0  0  0  0  0  0  0  0  0  0  0  0
  146.7003  137.0230  163.0669 H   0  0  0  0  0  0  0  0  0  0  0  0
  148.1456  137.6224  161.1767 H   0  0  0  0  0  0  0  0  0  0  0  0
  1  2  1  0  0  0  0
  1 23  1  0  0  0  0
  2  3  1  0  0  0  0
  2 24  1  0  0  0  0
  2 25  1  0  0  0  0
  3 11  1  0  0  0  0
  3  4  2  0  0  0  0
  4  5  1  0  0  0  0
  5 10  2  0  0  0  0
  5  6  1  0  0  0  0
  6  7  2  0  0  0  0
  6 26  1  0  0  0  0
  7  8  1  0  0  0  0
  7 27  1  0  0  0  0
  8  9  2  0  0  0  0
  8 28  1  0  0  0  0
  9 10  1  0  0  0  0
  9 29  1  0  0  0  0
 10 11  1  0  0  0  0
 11 12  1  0  0  0  0
 12 13  1  0  0  0  0
 12 30  1  0  0  0  0
 12 31  1  0  0  0  0
 13 14  1  0  0  0  0
 13 15  1  0  0  0  0
 13 32  1  0  0  0  0
 14 33  1  0  0  0  0
 15 16  1  0  0  0  0
 15 34  1  0  0  0  0
 15 35  1  0  0  0  0
 16 17  1  0  0  0  0
 17 22  1  0  0  0  0
 17 18  2  0  0  0  0
 18 19  1  0  0  0  0
 18 36  1  0  0  0  0
 19 20  2  0  0  0  0
 19 37  1  0  0  0  0
 20 21  1  0  0  0  0
 20 38  1  0  0  0  0
 21 22  2  0  0  0  0
 21 39  1  0  0  0  0
 22 40  1  0  0  0  0
M  END
> <s_m_source_file>
AV-unprocessed.smi

> <i_m_source_file_index>
2623

> <i_lp_mmshare_version>
43012

> <i_f3d_flags>
0

> <s_epik_input>
W2NIXTFbY0hdW2NIXVtjSF1jKGMxMiluKGMobjIpW0NIMl1bT0hdKVtDSDJdW0NASF0oW09IXSlbQ0gyXU9jM1tjSF1bY0hdW2NIXVtjSF1bY0hdMw==

> <s_epik_cmdline>
J2VwaWtfcHl0aG9uJywgJy1waCcsICc3LjAnLCAnLXRuJywgJzgnLCAnLW1hJywgJzIwMCcsICctbWV0YWxfYmluZGluZycsICctaW1hZScsICc8aW5maWxlLm1hZT4nLCAnLW9tYWUnLCAnPG91dGZpbGUubWFlPic=

> <r_lp_tautomer_probability>
1

> <r_epik_Ionization_Penalty>
0.0583159

> <r_epik_Ionization_Penalty_Charging>
0

> <r_epik_Ionization_Penalty_Neutral>
0.0583159

> <r_epik_State_Penalty>
0.0503525

> <r_epik_Charging_Adjusted_Penalty>
0.0503525

> <i_epik_Tot_Q>
0

> <i_epik_Tot_abs_Q>
0

> <r_epik_Metal_State_Penalty>
5.25517e-05

> <b_epik_Metal_Only>
0

> <s_lp_Force_Field>
OPLS_2005

> <r_lp_Energy>
14.6276

> <b_lp_Chiralities_Consistent>
1

> <s_lp_Variant>
AV-unprocessed.smi:2623-1

> <Gold.Version>
5.8.1

> <Gold.Id.Protein>
6NUR|6NUR_protein|mol2

> <Gold.PLP.Fitness>
46.9482

> <Gold.PLP.PLP>
-41.9016

> <Gold.PLP.part.hbond>
-2.0000

> <Gold.PLP.part.metal>
0.0000

> <Gold.PLP.part.buried>
-4.2658

> <Gold.PLP.part.nonpolar>
-35.5227

> <Gold.PLP.part.repulsive>
0.0000

> <Gold.PLP.ligand.clash>
0.0000

> <Gold.PLP.ligand.torsion>
0.5688

> <Gold.PLP.Chemscore.Hbond>
2.0000

> <Gold.PLP.Chemscore.CHOScore>
0.0000

> <Gold.PLP.Chemscore.Metal>
0.0000

> <Gold.Chemscore.Hbonds>
donor molecule, donor type, donor heavy atom, donor atom, acceptor molecule, acceptor atom, score
      P1  H  6896  6907       L1    16  1.00
      P1  H  6896  6908       L1     1  1.00

> <Gold.PLP.Chemscore.Internal.Correction>
0.1843

> <Gold.Rescore>
     Score         DG    S(hbond)    S(metal)    S(lipo)     H(rot)  DE(clash)    DE(int)     intcor
     16.19     -16.58       1.79        0.00     110.29       3.04       0.00       0.38       ----

> <Gold.Chemscore.Fitness>
16.1945

> <Gold.Chemscore.DG>
-16.5767

> <Gold.Chemscore.ZeroCoef>
-5.4800

> <Gold.Chemscore.Hbond>
1.7857

> <Gold.Chemscore.Metal>
0.0000

> <Gold.Chemscore.Lipo>
110.2901

> <Gold.Chemscore.Internal_Hbond>
0.0000

> <Gold.Chemscore.DEClash>
0.0038

> <Gold.Chemscore.DEInternal>
0.3784

> <Gold.Chemscore.Rot>
3.0358

> <Gold.Chemscore.Internal.Correction>
   9.000000E+99

> <Gold.Chemscore.Hbonds>
donor molecule, donor type, donor heavy atom, donor atom, acceptor molecule, acceptor atom, score
      P1  H  6896  6907       L1    16  0.15
      P1  H  6896  6908       L1     1  0.32

> <Gold.Chemscore.Hbond.Weighted>
-5.9643

> <Gold.Chemscore.Metal.Weighted>
-0.0000

> <Gold.Chemscore.Lipo.Weighted>
-12.9039

> <Gold.Chemscore.Internal_Hbond.Weighted>
0.0000

> <Gold.Chemscore.DEClash.Weighted>
0.0038

> <Gold.Chemscore.DEInternal.Weighted>
0.3784

> <Gold.Chemscore.Rot.Weighted>
7.7716

> <Gold.Chemscore.Internal.Correction.Weighted>
   9.000000E+99

> <Gold.Protein.RotatedTorsions>
[ 6907 6896 6895 6894 ] final  -59.14 input  -60.11 | X-H torsion
[ 7974 7965 7964 7962 ] final -170.91 input  175.53 | X-H torsion
[ 8008 7997 7996 7995 ] final  169.66 input   59.86 | X-H torsion
[ 10167 10162 10161 10158 ] final   49.93 input  -65.29 | X-H torsion
[ 10718 10713 10712 10709 ] final -141.83 input   66.30 | X-H torsion
[ 10763 10752 10751 10750 ] final  155.20 input  -60.55 | X-H torsion
[ 11005 11000 10999 10996 ] final  123.67 input  -57.11 | X-H torsion

> <Gold.Protein.ActiveResidues>
 VAL166  LYS551  ARG553  GLY616  TRP617  ASP618  TYR619  PRO620  LYS621  CYS622 
 ASP623  PHE694  ASN695  SER759  ASP760  ASP761  ALA762  ILE779  LEU786  VAL792 
 PHE793  MET794  SER795  GLU796  ALA797  LYS798  CYS799  TRP800  GLU811  SER814 

> <Gold.Protein.RotatedAtoms>
  150.7953  134.7007  159.6548 H   0  0  0  0  0  0  0  0  0  0  0  0  # atno 6907 bound_to 6896
  152.4064  134.6196  160.0057 H   0  0  0  0  0  0  0  0  0  0  0  0  # atno 6908 bound_to 6896
  151.6452  133.3287  159.3175 H   0  0  0  0  0  0  0  0  0  0  0  0  # atno 6909 bound_to 6896
  144.7163  140.2000  143.6339 H   0  0  0  0  0  0  0  0  0  0  0  0  # atno 7974 bound_to 7965
  156.1436  140.1558  156.8881 H   0  0  0  0  0  0  0  0  0  0  0  0  # atno 8008 bound_to 7997
  154.5009  140.0825  156.7834 H   0  0  0  0  0  0  0  0  0  0  0  0  # atno 8009 bound_to 7997
  155.4031  140.3415  155.4260 H   0  0  0  0  0  0  0  0  0  0  0  0  # atno 8010 bound_to 7997
  140.2777  144.3193  150.6272 H   0  0  0  0  0  0  0  0  0  0  0  0  # atno 10167 bound_to 10162
  156.3387  130.7625  151.1758 H   0  0  0  0  0  0  0  0  0  0  0  0  # atno 10718 bound_to 10713
  154.1645  135.2808  155.3099 H   0  0  0  0  0  0  0  0  0  0  0  0  # atno 10763 bound_to 10752
  154.6122  135.5495  153.7488 H   0  0  0  0  0  0  0  0  0  0  0  0  # atno 10764 bound_to 10752
  153.0182  135.6418  154.1786 H   0  0  0  0  0  0  0  0  0  0  0  0  # atno 10765 bound_to 10752
  139.9323  134.9641  156.8293 H   0  0  0  0  0  0  0  0  0  0  0  0  # atno 11005 bound_to 11000
  145.8688  139.2261  143.1673 LP  0  0  0  0  0  0  0  0  0  0  0  0  # atno 17320 bound_to 7965
  146.0104  140.8440  142.9974 LP  0  0  0  0  0  0  0  0  0  0  0  0  # atno 17321 bound_to 7965
  140.5838  143.2171  151.7380 LP  0  0  0  0  0  0  0  0  0  0  0  0  # atno 17342 bound_to 10162
  139.4971  144.4042  152.0150 LP  0  0  0  0  0  0  0  0  0  0  0  0  # atno 17343 bound_to 10162
  157.7443  131.0460  150.4874 LP  0  0  0  0  0  0  0  0  0  0  0  0  # atno 17370 bound_to 10713
  156.5051  130.4126  149.6331 LP  0  0  0  0  0  0  0  0  0  0  0  0  # atno 17371 bound_to 10713
  140.6169  134.0030  155.7601 LP  0  0  0  0  0  0  0  0  0  0  0  0  # atno 17394 bound_to 11000
  141.0918  133.9904  157.3224 LP  0  0  0  0  0  0  0  0  0  0  0  0  # atno 17395 bound_to 11000

$$$$
