AV-unprocessed.smi:479|AV-procd|sdf|2673|dock4
  -GOLD-   2262023 93D 1   1.00000     0.00000
 Structure written by MMmdl.
 45 47  0  0  0  0  0  0  0  0  1 V2000
  147.0407  137.3899  163.5946 C   0  0  0  0  0  0  0  0  0  0  0  0
  147.7074  137.3305  162.3420 O   0  0  0  0  0  0  0  0  0  0  0  0
  147.3836  136.3097  161.4713 C   0  0  0  0  0  0  0  0  0  0  0  0
  146.4195  135.3092  161.7570 C   0  0  0  0  0  0  0  0  0  0  0  0
  146.1319  134.2866  160.8235 C   0  0  0  0  0  0  0  0  0  0  0  0
  145.1254  133.2227  161.1045 C   0  0  0  0  0  0  0  0  0  0  0  0
  145.1002  132.0006  160.1875 C   0  0  0  0  0  0  0  0  0  0  0  0
  144.3170  133.2815  162.0305 O   0  0  0  0  0  0  0  0  0  0  0  0
  146.8189  134.2786  159.5914 C   0  0  0  0  0  0  0  0  0  0  0  0
  147.7768  135.2653  159.2992 C   0  0  0  0  0  0  0  0  0  0  0  0
  148.0702  136.2852  160.2367 C   0  0  0  0  0  0  0  0  0  0  0  0
  149.0018  137.2796  160.0191 O   0  0  0  0  0  0  0  0  0  0  0  0
  149.7647  137.2446  158.8201 C   0  0  0  0  0  0  0  0  0  0  0  0
  151.1316  137.8954  159.0831 C   0  0  1  0  0  0  0  0  0  0  0  0
  151.8439  137.0785  159.9919 O   0  0  0  0  0  0  0  0  0  0  0  0
  151.9561  138.0400  157.7887 C   0  0  0  0  0  0  0  0  0  0  0  0
  151.6089  139.2320  157.0348 N   0  0  0  0  0  0  0  0  0  0  0  0
  151.2781  139.3016  155.7308 C   0  0  0  0  0  0  0  0  0  0  0  0
  150.9891  140.5028  155.2381 N   0  0  0  0  0  0  0  0  0  0  0  0
  151.1530  141.3079  156.3523 C   0  0  0  0  0  0  0  0  0  0  0  0
  150.9973  142.7041  156.5055 C   0  0  0  0  0  0  0  0  0  0  0  0
  151.2227  143.3149  157.7567 C   0  0  0  0  0  0  0  0  0  0  0  0
  151.6058  142.5412  158.8717 C   0  0  0  0  0  0  0  0  0  0  0  0
  151.7659  141.1479  158.7440 C   0  0  0  0  0  0  0  0  0  0  0  0
  151.5405  140.5426  157.4937 C   0  0  0  0  0  0  0  0  0  0  0  0
  147.4116  138.2460  164.1579 H   0  0  0  0  0  0  0  0  0  0  0  0
  147.2308  136.4969  164.1918 H   0  0  0  0  0  0  0  0  0  0  0  0
  145.9651  137.5195  163.4676 H   0  0  0  0  0  0  0  0  0  0  0  0
  145.8955  135.3232  162.6992 H   0  0  0  0  0  0  0  0  0  0  0  0
  144.9183  132.3003  159.1552 H   0  0  0  0  0  0  0  0  0  0  0  0
  144.3070  131.3152  160.4870 H   0  0  0  0  0  0  0  0  0  0  0  0
  146.0487  131.4656  160.2372 H   0  0  0  0  0  0  0  0  0  0  0  0
  146.6205  133.5131  158.8549 H   0  0  0  0  0  0  0  0  0  0  0  0
  148.2737  135.2162  158.3424 H   0  0  0  0  0  0  0  0  0  0  0  0
  149.8910  136.2259  158.4489 H   0  0  0  0  0  0  0  0  0  0  0  0
  149.2316  137.8153  158.0580 H   0  0  0  0  0  0  0  0  0  0  0  0
  150.9899  138.8815  159.5280 H   0  0  0  0  0  0  0  0  0  0  0  0
  151.8566  137.5095  160.8330 H   0  0  0  0  0  0  0  0  0  0  0  0
  153.0226  138.0700  158.0175 H   0  0  0  0  0  0  0  0  0  0  0  0
  151.8010  137.1748  157.1432 H   0  0  0  0  0  0  0  0  0  0  0  0
  151.2496  138.4197  155.1076 H   0  0  0  0  0  0  0  0  0  0  0  0
  150.7043  143.3064  155.6583 H   0  0  0  0  0  0  0  0  0  0  0  0
  151.1013  144.3832  157.8610 H   0  0  0  0  0  0  0  0  0  0  0  0
  151.7770  143.0185  159.8254 H   0  0  0  0  0  0  0  0  0  0  0  0
  152.0598  140.5516  159.5949 H   0  0  0  0  0  0  0  0  0  0  0  0
  1  2  1  0  0  0  0
  1 26  1  0  0  0  0
  1 27  1  0  0  0  0
  1 28  1  0  0  0  0
  2  3  1  0  0  0  0
  3 11  1  0  0  0  0
  3  4  2  0  0  0  0
  4  5  1  0  0  0  0
  4 29  1  0  0  0  0
  5  6  1  0  0  0  0
  5  9  2  0  0  0  0
  6  7  1  0  0  0  0
  6  8  2  0  0  0  0
  7 30  1  0  0  0  0
  7 31  1  0  0  0  0
  7 32  1  0  0  0  0
  9 10  1  0  0  0  0
  9 33  1  0  0  0  0
 10 11  2  0  0  0  0
 10 34  1  0  0  0  0
 11 12  1  0  0  0  0
 12 13  1  0  0  0  0
 13 14  1  0  0  0  0
 13 35  1  0  0  0  0
 13 36  1  0  0  0  0
 14 15  1  0  0  0  0
 14 16  1  0  0  0  0
 14 37  1  0  0  0  0
 15 38  1  0  0  0  0
 16 17  1  0  0  0  0
 16 39  1  0  0  0  0
 16 40  1  0  0  0  0
 17 25  1  0  0  0  0
 17 18  1  0  0  0  0
 18 19  2  0  0  0  0
 18 41  1  0  0  0  0
 19 20  1  0  0  0  0
 20 25  2  0  0  0  0
 20 21  1  0  0  0  0
 21 22  2  0  0  0  0
 21 42  1  0  0  0  0
 22 23  1  0  0  0  0
 22 43  1  0  0  0  0
 23 24  2  0  0  0  0
 23 44  1  0  0  0  0
 24 25  1  0  0  0  0
 24 45  1  0  0  0  0
M  END
> <s_m_source_file>
AV-unprocessed.smi

> <i_m_source_file_index>
479

> <i_lp_mmshare_version>
43012

> <i_f3d_flags>
0

> <s_epik_input>
W0NIM11PYzFbY0hdYyhDKD1PKVtDSDNdKVtjSF1bY0hdYzFPW0NIMl1bQ0BIXShbT0hdKVtDSDJdbihbY0hdbjIpYyhjMjMpW2NIXVtjSF1bY0hdW2NIXTM=

> <s_epik_cmdline>
J2VwaWtfcHl0aG9uJywgJy1waCcsICc3LjAnLCAnLXRuJywgJzgnLCAnLW1hJywgJzIwMCcsICctbWV0YWxfYmluZGluZycsICctaW1hZScsICc8aW5maWxlLm1hZT4nLCAnLW9tYWUnLCAnPG91dGZpbGUubWFlPic=

> <r_lp_tautomer_probability>
0.99995

> <r_epik_Ionization_Penalty>
0.061028

> <r_epik_Ionization_Penalty_Charging>
0

> <r_epik_Ionization_Penalty_Neutral>
0.061028

> <r_epik_State_Penalty>
0.052945

> <r_epik_Charging_Adjusted_Penalty>
0.052945

> <i_epik_Tot_Q>
0

> <i_epik_Tot_abs_Q>
0

> <r_epik_Metal_State_Penalty>
5.53801e-05

> <b_epik_Metal_Only>
0

> <s_lp_Force_Field>
OPLS_2005

> <r_lp_Energy>
24.9927

> <b_lp_Chiralities_Consistent>
1

> <s_lp_Variant>
AV-unprocessed.smi:479-2

> <Gold.Version>
5.8.1

> <Gold.Id.Protein>
6NUR|6NUR_protein|mol2

> <Gold.PLP.Fitness>
49.0838

> <Gold.PLP.PLP>
-41.9177

> <Gold.PLP.part.hbond>
-3.6508

> <Gold.PLP.part.metal>
0.0000

> <Gold.PLP.part.buried>
-4.3679

> <Gold.PLP.part.nonpolar>
-33.5376

> <Gold.PLP.part.repulsive>
0.1314

> <Gold.PLP.ligand.clash>
0.0000

> <Gold.PLP.ligand.torsion>
0.6035

> <Gold.PLP.Chemscore.Hbond>
2.7309

> <Gold.PLP.Chemscore.CHOScore>
0.0000

> <Gold.PLP.Chemscore.Metal>
0.0000

> <Gold.Chemscore.Hbonds>
donor molecule, donor type, donor heavy atom, donor atom, acceptor molecule, acceptor atom, score
      P1  H  6896  6908       L1    15  1.00
      P1  H  6931  6943       L1     2  0.85
      P1  H  6934  6947       L1     2  0.19
      P1  H  7989  7998       L1    19  0.98

> <Gold.PLP.Chemscore.Internal.Correction>
0.1804

> <Gold.Rescore>
     Score         DG    S(hbond)    S(metal)    S(lipo)     H(rot)  DE(clash)    DE(int)     intcor
     19.80     -20.84       2.61        0.00     114.87       2.66       0.45       0.59       ----

> <Gold.Chemscore.Fitness>
19.7951

> <Gold.Chemscore.DG>
-20.8351

> <Gold.Chemscore.ZeroCoef>
-5.4800

> <Gold.Chemscore.Hbond>
2.6088

> <Gold.Chemscore.Metal>
0.0000

> <Gold.Chemscore.Lipo>
114.8691

> <Gold.Chemscore.Internal_Hbond>
0.0000

> <Gold.Chemscore.DEClash>
0.4505

> <Gold.Chemscore.DEInternal>
0.5895

> <Gold.Chemscore.Rot>
2.6555

> <Gold.Chemscore.Internal.Correction>
   9.000000E+99

> <Gold.Chemscore.Hbonds>
donor molecule, donor type, donor heavy atom, donor atom, acceptor molecule, acceptor atom, score
      P1  H  6896  6908       L1    15  0.91
      P1  H  6931  6943       L1     2  0.78
      P1  H  6934  6947       L1     2  0.03
      P1  H  7989  7998       L1    19  0.88

> <Gold.Chemscore.Hbond.Weighted>
-8.7134

> <Gold.Chemscore.Metal.Weighted>
-0.0000

> <Gold.Chemscore.Lipo.Weighted>
-13.4397

> <Gold.Chemscore.Internal_Hbond.Weighted>
0.0000

> <Gold.Chemscore.DEClash.Weighted>
0.4505

> <Gold.Chemscore.DEInternal.Weighted>
0.5895

> <Gold.Chemscore.Rot.Weighted>
6.7980

> <Gold.Chemscore.Internal.Correction.Weighted>
   9.000000E+99

> <Gold.Protein.RotatedTorsions>
[ 6907 6896 6895 6894 ] final -115.19 input  -60.11 | X-H torsion
[ 7974 7965 7964 7962 ] final  173.79 input  175.53 | X-H torsion
[ 8008 7997 7996 7995 ] final  131.36 input   59.86 | X-H torsion
[ 10167 10162 10161 10158 ] final   17.66 input  -65.29 | X-H torsion
[ 10718 10713 10712 10709 ] final   26.83 input   66.30 | X-H torsion
[ 10763 10752 10751 10750 ] final  150.14 input  -60.55 | X-H torsion
[ 11005 11000 10999 10996 ] final  -16.90 input  -57.11 | X-H torsion

> <Gold.Protein.ActiveResidues>
 VAL166  LYS551  ARG553  GLY616  TRP617  ASP618  TYR619  PRO620  LYS621  CYS622 
 ASP623  PHE694  ASN695  SER759  ASP760  ASP761  ALA762  ILE779  LEU786  VAL792 
 PHE793  MET794  SER795  GLU796  ALA797  LYS798  CYS799  TRP800  GLU811  SER814 

> <Gold.Protein.RotatedAtoms>
  150.7959  133.8693  159.3253 H   0  0  0  0  0  0  0  0  0  0  0  0  # atno 6907 bound_to 6896
  151.6518  135.0998  160.0172 H   0  0  0  0  0  0  0  0  0  0  0  0  # atno 6908 bound_to 6896
  152.4041  133.6822  159.6376 H   0  0  0  0  0  0  0  0  0  0  0  0  # atno 6909 bound_to 6896
  144.7235  139.9700  143.6437 H   0  0  0  0  0  0  0  0  0  0  0  0  # atno 7974 bound_to 7965
  156.2969  140.2573  156.2912 H   0  0  0  0  0  0  0  0  0  0  0  0  # atno 8008 bound_to 7997
  154.9507  140.0394  157.2161 H   0  0  0  0  0  0  0  0  0  0  0  0  # atno 8009 bound_to 7997
  154.8038  140.2833  155.5906 H   0  0  0  0  0  0  0  0  0  0  0  0  # atno 8010 bound_to 7997
  140.5710  143.9162  150.6713 H   0  0  0  0  0  0  0  0  0  0  0  0  # atno 10167 bound_to 10162
  157.2121  130.6939  149.6233 H   0  0  0  0  0  0  0  0  0  0  0  0  # atno 10718 bound_to 10713
  154.0826  135.2858  155.3287 H   0  0  0  0  0  0  0  0  0  0  0  0  # atno 10763 bound_to 10752
  154.6673  135.5312  153.8097 H   0  0  0  0  0  0  0  0  0  0  0  0  # atno 10764 bound_to 10752
  153.0443  135.6549  154.1000 H   0  0  0  0  0  0  0  0  0  0  0  0  # atno 10765 bound_to 10752
  140.8114  133.8137  155.9567 H   0  0  0  0  0  0  0  0  0  0  0  0  # atno 11005 bound_to 11000
  146.0570  139.3566  143.0605 LP  0  0  0  0  0  0  0  0  0  0  0  0  # atno 17320 bound_to 7965
  145.8142  140.9711  143.0933 LP  0  0  0  0  0  0  0  0  0  0  0  0  # atno 17321 bound_to 7965
  140.2637  143.3506  152.1300 LP  0  0  0  0  0  0  0  0  0  0  0  0  # atno 17342 bound_to 10162
  139.5117  144.6905  151.5771 LP  0  0  0  0  0  0  0  0  0  0  0  0  # atno 17343 bound_to 10162
  155.9690  130.4548  150.5862 LP  0  0  0  0  0  0  0  0  0  0  0  0  # atno 17370 bound_to 10713
  157.3662  131.0758  151.1596 LP  0  0  0  0  0  0  0  0  0  0  0  0  # atno 17371 bound_to 10713
  140.9193  134.2161  157.4936 LP  0  0  0  0  0  0  0  0  0  0  0  0  # atno 17394 bound_to 11000
  139.8714  134.9785  156.5001 LP  0  0  0  0  0  0  0  0  0  0  0  0  # atno 17395 bound_to 11000

$$$$
