AV-unprocessed.smi:14|AV-procd|sdf|78|dock5
  -GOLD-   2262015203D 1   1.00000     0.00000
 Structure written by MMmdl.
 57 60  0  0  0  0  0  0  0  0  1 V2000
  149.6276  134.8610  157.9235 N   0  0  0  0  0  0  0  0  0  0  0  0
  149.2549  135.8895  158.3004 C   0  0  0  0  0  0  0  0  0  0  0  0
  148.7805  137.1961  158.7790 C   0  0  0  0  0  0  0  0  0  0  0  0
  147.3510  137.5048  158.3077 C   0  0  0  0  0  0  0  0  0  0  0  0
  146.3855  136.4769  158.7037 N   0  0  0  0  0  0  0  0  0  0  0  0
  145.9399  136.4885  160.0988 C   0  0  0  0  0  0  0  0  0  0  0  0
  146.9917  135.9626  161.0984 C   0  0  1  0  0  0  0  0  0  0  0  0
  147.0637  136.7112  162.4173 C   0  0  0  0  0  0  0  0  0  0  0  0
  147.7420  135.6966  163.3328 C   0  0  0  0  0  0  0  0  0  0  0  0
  147.3902  134.4127  162.8263 O   0  0  0  0  0  0  0  0  0  0  0  0
  146.6829  134.5521  161.5991 C   0  0  0  0  0  0  0  0  0  0  0  0
  145.4716  136.0538  157.7883 C   0  0  0  0  0  0  0  0  0  0  0  0
  144.2091  135.7482  158.1932 N   0  0  0  0  0  0  0  0  0  0  0  0
  143.3064  135.2958  157.3194 C   0  0  0  0  0  0  0  0  0  0  0  0
  143.4495  135.0780  156.0120 N   0  0  0  0  0  0  0  0  0  0  0  0
  144.7065  135.3953  155.5914 C   0  0  0  0  0  0  0  0  0  0  0  0
  145.7695  135.8827  156.4050 C   0  0  0  0  0  0  0  0  0  0  0  0
  146.8996  136.0907  155.6231 N   0  0  0  0  0  0  0  0  0  0  0  0
  146.5326  135.7295  154.4246 C   0  0  0  0  0  0  0  0  0  0  0  0
  145.2247  135.3153  154.3095 N   0  0  0  0  0  0  0  0  0  0  0  0
  144.5620  134.8563  153.0958 C   0  0  0  0  0  0  0  0  0  0  0  0
  145.2738  135.2384  151.7587 C   0  0  0  0  0  0  0  0  0  0  0  0
  145.5821  136.7623  151.7718 C   0  0  0  0  0  0  0  0  0  0  0  0
  146.2251  137.2187  150.5981 O   0  0  0  0  0  0  0  0  0  0  0  0
  146.5922  134.4290  151.6438 C   0  0  0  0  0  0  0  0  0  0  0  0
  146.3500  132.9353  151.3572 C   0  0  0  0  0  0  0  0  0  0  0  0
  145.5656  132.7877  150.1803 O   0  0  0  0  0  0  0  0  0  0  0  0
  144.2746  133.3720  150.3000 C   0  0  0  0  0  0  0  0  0  0  0  0
  144.4037  134.8904  150.5230 C   0  0  0  0  0  0  0  0  0  0  0  0
  148.8539  137.1908  159.8658 H   0  0  0  0  0  0  0  0  0  0  0  0
  149.4721  137.9551  158.4122 H   0  0  0  0  0  0  0  0  0  0  0  0
  147.0413  138.4617  158.7292 H   0  0  0  0  0  0  0  0  0  0  0  0
  147.3313  137.6332  157.2246 H   0  0  0  0  0  0  0  0  0  0  0  0
  145.6013  137.4777  160.4009 H   0  0  0  0  0  0  0  0  0  0  0  0
  145.0532  135.8567  160.1600 H   0  0  0  0  0  0  0  0  0  0  0  0
  147.9803  135.9528  160.6370 H   0  0  0  0  0  0  0  0  0  0  0  0
  147.6190  137.6468  162.3552 H   0  0  0  0  0  0  0  0  0  0  0  0
  146.0602  136.9346  162.7834 H   0  0  0  0  0  0  0  0  0  0  0  0
  148.8262  135.8028  163.2817 H   0  0  0  0  0  0  0  0  0  0  0  0
  147.4388  135.8111  164.3738 H   0  0  0  0  0  0  0  0  0  0  0  0
  145.6168  134.4396  161.8026 H   0  0  0  0  0  0  0  0  0  0  0  0
  146.9725  133.7814  160.8844 H   0  0  0  0  0  0  0  0  0  0  0  0
  142.3313  135.0727  157.7266 H   0  0  0  0  0  0  0  0  0  0  0  0
  147.2088  135.7636  153.5827 H   0  0  0  0  0  0  0  0  0  0  0  0
  144.4770  133.7708  153.1648 H   0  0  0  0  0  0  0  0  0  0  0  0
  143.5379  135.2251  153.1235 H   0  0  0  0  0  0  0  0  0  0  0  0
  144.6661  137.3433  151.8778 H   0  0  0  0  0  0  0  0  0  0  0  0
  146.2176  137.0132  152.6218 H   0  0  0  0  0  0  0  0  0  0  0  0
  145.6015  137.7103  150.0854 H   0  0  0  0  0  0  0  0  0  0  0  0
  147.2064  134.8172  150.8311 H   0  0  0  0  0  0  0  0  0  0  0  0
  147.1901  134.5425  152.5488 H   0  0  0  0  0  0  0  0  0  0  0  0
  147.3038  132.4309  151.2024 H   0  0  0  0  0  0  0  0  0  0  0  0
  145.8693  132.4339  152.1975 H   0  0  0  0  0  0  0  0  0  0  0  0
  143.7206  133.1794  149.3813 H   0  0  0  0  0  0  0  0  0  0  0  0
  143.7189  132.8892  151.1036 H   0  0  0  0  0  0  0  0  0  0  0  0
  143.4175  135.3476  150.5967 H   0  0  0  0  0  0  0  0  0  0  0  0
  144.8536  135.3119  149.6238 H   0  0  0  0  0  0  0  0  0  0  0  0
  1  2  3  0  0  0  0
  2  3  1  0  0  0  0
  3  4  1  0  0  0  0
  3 30  1  0  0  0  0
  3 31  1  0  0  0  0
  4  5  1  0  0  0  0
  4 32  1  0  0  0  0
  4 33  1  0  0  0  0
  5  6  1  0  0  0  0
  5 12  1  0  0  0  0
  6  7  1  0  0  0  0
  6 34  1  0  0  0  0
  6 35  1  0  0  0  0
  7 11  1  0  0  0  0
  7  8  1  0  0  0  0
  7 36  1  0  0  0  0
  8  9  1  0  0  0  0
  8 37  1  0  0  0  0
  8 38  1  0  0  0  0
  9 10  1  0  0  0  0
  9 39  1  0  0  0  0
  9 40  1  0  0  0  0
 10 11  1  0  0  0  0
 11 41  1  0  0  0  0
 11 42  1  0  0  0  0
 12 17  1  0  0  0  0
 12 13  2  0  0  0  0
 13 14  1  0  0  0  0
 14 15  2  0  0  0  0
 14 43  1  0  0  0  0
 15 16  1  0  0  0  0
 16 20  1  0  0  0  0
 16 17  2  0  0  0  0
 17 18  1  0  0  0  0
 18 19  2  0  0  0  0
 19 20  1  0  0  0  0
 19 44  1  0  0  0  0
 20 21  1  0  0  0  0
 21 22  1  0  0  0  0
 21 45  1  0  0  0  0
 21 46  1  0  0  0  0
 22 29  1  0  0  0  0
 22 23  1  0  0  0  0
 22 25  1  0  0  0  0
 23 24  1  0  0  0  0
 23 47  1  0  0  0  0
 23 48  1  0  0  0  0
 24 49  1  0  0  0  0
 25 26  1  0  0  0  0
 25 50  1  0  0  0  0
 25 51  1  0  0  0  0
 26 27  1  0  0  0  0
 26 52  1  0  0  0  0
 26 53  1  0  0  0  0
 27 28  1  0  0  0  0
 28 29  1  0  0  0  0
 28 54  1  0  0  0  0
 28 55  1  0  0  0  0
 29 56  1  0  0  0  0
 29 57  1  0  0  0  0
M  END
> <s_m_source_file>
AV-unprocessed.smi

> <i_m_source_file_index>
14

> <i_lp_mmshare_version>
43012

> <i_f3d_flags>
0

> <s_epik_input>
W0NIMl0xT1tDSDJdW0NIMl1bQ0BIXTFbQ0gyXU4oW0NIMl1bQ0gyXUMjTiljKG5bY0hdbjIpYyhjMjMpbltjSF1uM1tDSDJdQzQoW0NIMl1bT0hdKVtDSDJdW0NIMl1PW0NIMl1bQ0gyXTQ=

> <s_epik_cmdline>
J2VwaWtfcHl0aG9uJywgJy1waCcsICc3LjAnLCAnLXRuJywgJzgnLCAnLW1hJywgJzIwMCcsICctbWV0YWxfYmluZGluZycsICctaW1hZScsICc8aW5maWxlLm1hZT4nLCAnLW9tYWUnLCAnPG91dGZpbGUubWFlPic=

> <r_lp_tautomer_probability>
1

> <r_epik_Ionization_Penalty>
0.000542547

> <r_epik_Ionization_Penalty_Charging>
0

> <r_epik_Ionization_Penalty_Neutral>
0.000542547

> <r_epik_State_Penalty>
0.000265709

> <r_epik_Charging_Adjusted_Penalty>
0.000265709

> <i_epik_Tot_Q>
0

> <i_epik_Tot_abs_Q>
0

> <r_epik_Metal_State_Penalty>
-0

> <b_epik_Metal_Only>
0

> <s_lp_Force_Field>
OPLS_2005

> <r_lp_Energy>
43.0361

> <b_lp_Chiralities_Consistent>
1

> <s_lp_Variant>
AV-unprocessed.smi:14-2

> <Gold.Version>
5.8.1

> <Gold.Id.Protein>
6NUR|6NUR_protein|mol2

> <Gold.PLP.Fitness>
45.9060

> <Gold.PLP.PLP>
-33.5445

> <Gold.PLP.part.hbond>
-3.8897

> <Gold.PLP.part.metal>
0.0000

> <Gold.PLP.part.buried>
-4.0887

> <Gold.PLP.part.nonpolar>
-26.4115

> <Gold.PLP.part.repulsive>
0.2492

> <Gold.PLP.ligand.clash>
0.0000

> <Gold.PLP.ligand.torsion>
1.5839

> <Gold.PLP.Chemscore.Hbond>
2.8154

> <Gold.PLP.Chemscore.CHOScore>
2.0000

> <Gold.PLP.Chemscore.Metal>
0.0000

> <Gold.Chemscore.Hbonds>
donor molecule, donor type, donor heavy atom, donor atom, acceptor molecule, acceptor atom, score
      L1  H    24    49       P1 10171  1.00
      P1  H  6896  6908       L1     1  0.99
      P1  H  7954  7966       L1    24  0.64
      L1  C    14    43       P1 11000  1.00
      L1  C    19    44       P1  7948  1.00

> <Gold.PLP.Chemscore.Internal.Correction>
1.0831

> <Gold.Rescore>
     Score         DG    S(hbond)    S(metal)    S(lipo)     H(rot)  DE(clash)    DE(int)     intcor
     11.32     -14.82       2.50        0.00      79.63       3.26       0.28       3.22       ----

> <Gold.Chemscore.Fitness>
11.3213

> <Gold.Chemscore.DG>
-14.8175

> <Gold.Chemscore.ZeroCoef>
-5.4800

> <Gold.Chemscore.Hbond>
2.5013

> <Gold.Chemscore.Metal>
0.0000

> <Gold.Chemscore.Lipo>
79.6294

> <Gold.Chemscore.Internal_Hbond>
0.0000

> <Gold.Chemscore.DEClash>
0.2794

> <Gold.Chemscore.DEInternal>
3.2168

> <Gold.Chemscore.Rot>
3.2553

> <Gold.Chemscore.Internal.Correction>
   9.000000E+99

> <Gold.Chemscore.Hbonds>
donor molecule, donor type, donor heavy atom, donor atom, acceptor molecule, acceptor atom, score
      L1  H    24    49       P1 10171  0.97
      P1  H  6896  6908       L1     1  0.52
      P1  H  7954  7966       L1    24  0.31

> <Gold.Chemscore.Hbond.Weighted>
-8.3544

> <Gold.Chemscore.Metal.Weighted>
-0.0000

> <Gold.Chemscore.Lipo.Weighted>
-9.3166

> <Gold.Chemscore.Internal_Hbond.Weighted>
0.0000

> <Gold.Chemscore.DEClash.Weighted>
0.2794

> <Gold.Chemscore.DEInternal.Weighted>
3.2168

> <Gold.Chemscore.Rot.Weighted>
8.3336

> <Gold.Chemscore.Internal.Correction.Weighted>
   9.000000E+99

> <Gold.Protein.RotatedTorsions>
[ 6907 6896 6895 6894 ] final  139.04 input  -60.11 | X-H torsion
[ 7974 7965 7964 7962 ] final   70.61 input  175.53 | X-H torsion
[ 8008 7997 7996 7995 ] final  138.50 input   59.86 | X-H torsion
[ 10167 10162 10161 10158 ] final   98.25 input  -65.29 | X-H torsion
[ 10718 10713 10712 10709 ] final  178.89 input   66.30 | X-H torsion
[ 10763 10752 10751 10750 ] final   -0.14 input  -60.55 | X-H torsion
[ 11005 11000 10999 10996 ] final   10.44 input  -57.11 | X-H torsion

> <Gold.Protein.ActiveResidues>
 VAL166  LYS551  ARG553  GLY616  TRP617  ASP618  TYR619  PRO620  LYS621  CYS622 
 ASP623  PHE694  ASN695  SER759  ASP760  ASP761  ALA762  ILE779  LEU786  VAL792 
 PHE793  MET794  SER795  GLU796  ALA797  LYS798  CYS799  TRP800  GLU811  SER814 

> <Gold.Protein.RotatedAtoms>
  152.2595  133.5285  159.5372 H   0  0  0  0  0  0  0  0  0  0  0  0  # atno 6907 bound_to 6896
  150.7120  134.0849  159.3920 H   0  0  0  0  0  0  0  0  0  0  0  0  # atno 6908 bound_to 6896
  151.8767  135.0469  160.0535 H   0  0  0  0  0  0  0  0  0  0  0  0  # atno 6909 bound_to 6896
  145.7760  139.2865  143.1293 H   0  0  0  0  0  0  0  0  0  0  0  0  # atno 7974 bound_to 7965
  156.2997  140.2392  156.4083 H   0  0  0  0  0  0  0  0  0  0  0  0  # atno 8008 bound_to 7997
  154.8464  140.0426  157.1595 H   0  0  0  0  0  0  0  0  0  0  0  0  # atno 8009 bound_to 7997
  154.9046  140.2982  155.5302 H   0  0  0  0  0  0  0  0  0  0  0  0  # atno 8010 bound_to 7997
  139.7726  144.6917  151.0134 H   0  0  0  0  0  0  0  0  0  0  0  0  # atno 10167 bound_to 10162
  156.8839  130.9825  151.3058 H   0  0  0  0  0  0  0  0  0  0  0  0  # atno 10718 bound_to 10713
  153.3281  135.6973  153.6972 H   0  0  0  0  0  0  0  0  0  0  0  0  # atno 10763 bound_to 10752
  153.5785  135.3502  155.2866 H   0  0  0  0  0  0  0  0  0  0  0  0  # atno 10764 bound_to 10752
  154.8612  135.4289  154.2462 H   0  0  0  0  0  0  0  0  0  0  0  0  # atno 10765 bound_to 10752
  140.5145  134.0620  155.7827 H   0  0  0  0  0  0  0  0  0  0  0  0  # atno 11005 bound_to 11000
  146.0122  140.8425  142.9965 LP  0  0  0  0  0  0  0  0  0  0  0  0  # atno 17320 bound_to 7965
  144.6804  140.2507  143.7332 LP  0  0  0  0  0  0  0  0  0  0  0  0  # atno 17321 bound_to 7965
  140.7815  143.4571  151.0329 LP  0  0  0  0  0  0  0  0  0  0  0  0  # atno 17342 bound_to 10162
  139.8255  143.7762  152.3178 LP  0  0  0  0  0  0  0  0  0  0  0  0  # atno 17343 bound_to 10162
  157.6124  130.8593  149.8973 LP  0  0  0  0  0  0  0  0  0  0  0  0  # atno 17370 bound_to 10713
  156.0663  130.3691  150.0871 LP  0  0  0  0  0  0  0  0  0  0  0  0  # atno 17371 bound_to 10713
  141.1368  133.9208  157.2416 LP  0  0  0  0  0  0  0  0  0  0  0  0  # atno 17394 bound_to 11000
  139.9640  135.0147  156.9338 LP  0  0  0  0  0  0  0  0  0  0  0  0  # atno 17395 bound_to 11000

$$$$
