AV-unprocessed.smi:710|AV-procd|sdf|3463|dock10
  -GOLD-   22720 0453D 1   1.00000     0.00000
 Structure written by MMmdl.
 40 41  0  0  0  0  0  0  0  0  1 V2000
  153.3269  140.2698  159.2695 C   0  0  0  0  0  0  0  0  0  0  0  0
  152.9213  141.6014  159.8343 C   0  0  0  0  0  0  0  0  0  0  0  0
  153.2195  141.8802  161.0916 N   0  0  0  0  0  0  0  0  0  0  0  0
  152.7356  143.1208  161.2963 N   0  0  0  0  0  0  0  0  0  0  0  0
  152.9120  143.7255  162.6031 C   0  0  0  0  0  0  0  0  0  0  0  0
  152.1270  143.6286  160.1628 C   0  0  0  0  0  0  0  0  0  0  0  0
  151.5118  144.9911  160.1229 C   0  0  0  0  0  0  0  0  0  0  0  0
  152.2269  142.6684  159.1905 C   0  0  0  0  0  0  0  0  0  0  0  0
  151.7299  142.7118  157.7673 C   0  0  0  0  0  0  0  0  0  0  0  0
  150.9692  141.4246  157.4495 C   0  0  0  0  0  0  0  0  0  0  0  0
  150.4265  140.7918  158.3545 O   0  0  0  0  0  0  0  0  0  0  0  0
  150.9440  141.0482  156.1621 N   0  0  0  0  0  0  0  0  0  0  0  0
  150.2876  139.8509  155.6444 C   0  0  0  0  0  0  0  0  0  0  0  0
  149.1384  140.1640  154.6552 C   0  0  2  0  0  0  0  0  0  0  0  0
  149.7040  140.7503  153.4962 O   0  0  0  0  0  0  0  0  0  0  0  0
  148.1494  141.1911  155.2326 C   0  0  0  0  0  0  0  0  0  0  0  0
  146.9152  141.2204  154.3245 C   0  0  0  0  0  0  0  0  0  0  0  0
  146.6756  139.5486  153.6716 S   0  0  0  0  0  0  0  0  0  0  0  0
  148.2844  138.9474  154.2532 C   0  0  0  0  0  0  0  0  0  0  0  0
  153.3136  140.2769  158.1798 H   0  0  0  0  0  0  0  0  0  0  0  0
  152.6518  139.4822  159.6042 H   0  0  0  0  0  0  0  0  0  0  0  0
  154.3359  139.9986  159.5811 H   0  0  0  0  0  0  0  0  0  0  0  0
  152.3894  144.6794  162.6644 H   0  0  0  0  0  0  0  0  0  0  0  0
  153.9732  143.8932  162.7885 H   0  0  0  0  0  0  0  0  0  0  0  0
  152.5170  143.0612  163.3725 H   0  0  0  0  0  0  0  0  0  0  0  0
  151.0877  145.2077  159.1431 H   0  0  0  0  0  0  0  0  0  0  0  0
  152.2559  145.7579  160.3391 H   0  0  0  0  0  0  0  0  0  0  0  0
  150.7112  145.0767  160.8577 H   0  0  0  0  0  0  0  0  0  0  0  0
  151.0673  143.5626  157.6046 H   0  0  0  0  0  0  0  0  0  0  0  0
  152.5481  142.8348  157.0570 H   0  0  0  0  0  0  0  0  0  0  0  0
  151.4226  141.6310  155.4910 H   0  0  0  0  0  0  0  0  0  0  0  0
  151.0659  139.2907  155.1255 H   0  0  0  0  0  0  0  0  0  0  0  0
  149.9481  139.2031  156.4549 H   0  0  0  0  0  0  0  0  0  0  0  0
  149.5849  140.1564  152.7708 H   0  0  0  0  0  0  0  0  0  0  0  0
  147.8375  140.8724  156.2284 H   0  0  0  0  0  0  0  0  0  0  0  0
  148.5943  142.1809  155.3438 H   0  0  0  0  0  0  0  0  0  0  0  0
  146.0265  141.5667  154.8523 H   0  0  0  0  0  0  0  0  0  0  0  0
  147.0828  141.8932  153.4830 H   0  0  0  0  0  0  0  0  0  0  0  0
  148.7660  138.3244  153.4984 H   0  0  0  0  0  0  0  0  0  0  0  0
  148.0983  138.3193  155.1251 H   0  0  0  0  0  0  0  0  0  0  0  0
  1  2  1  0  0  0  0
  1 20  1  0  0  0  0
  1 21  1  0  0  0  0
  1 22  1  0  0  0  0
  2  8  1  0  0  0  0
  2  3  2  0  0  0  0
  3  4  1  0  0  0  0
  4  5  1  0  0  0  0
  4  6  1  0  0  0  0
  5 23  1  0  0  0  0
  5 24  1  0  0  0  0
  5 25  1  0  0  0  0
  6  7  1  0  0  0  0
  6  8  2  0  0  0  0
  7 26  1  0  0  0  0
  7 27  1  0  0  0  0
  7 28  1  0  0  0  0
  8  9  1  0  0  0  0
  9 10  1  0  0  0  0
  9 29  1  0  0  0  0
  9 30  1  0  0  0  0
 10 11  2  0  0  0  0
 10 12  1  0  0  0  0
 12 13  1  0  0  0  0
 12 31  1  0  0  0  0
 13 14  1  0  0  0  0
 13 32  1  0  0  0  0
 13 33  1  0  0  0  0
 14 19  1  0  0  0  0
 14 15  1  0  0  0  0
 14 16  1  0  0  0  0
 15 34  1  0  0  0  0
 16 17  1  0  0  0  0
 16 35  1  0  0  0  0
 16 36  1  0  0  0  0
 17 18  1  0  0  0  0
 17 37  1  0  0  0  0
 17 38  1  0  0  0  0
 18 19  1  0  0  0  0
 19 39  1  0  0  0  0
 19 40  1  0  0  0  0
M  END
> <s_m_source_file>
AV-unprocessed.smi

> <i_m_source_file_index>
710

> <i_lp_mmshare_version>
43012

> <i_f3d_flags>
0

> <s_epik_input>
W0NIM11jMW5uKFtDSDNdKWMoW0NIM10pYzFbQ0gyXUMoPU8pW05IXVtDSDJdW0NAQF0yKFtPSF0pW0NIMl1bQ0gyXVNbQ0gyXTI=

> <s_epik_cmdline>
J2VwaWtfcHl0aG9uJywgJy1waCcsICc3LjAnLCAnLXRuJywgJzgnLCAnLW1hJywgJzIwMCcsICctbWV0YWxfYmluZGluZycsICctaW1hZScsICc8aW5maWxlLm1hZT4nLCAnLW9tYWUnLCAnPG91dGZpbGUubWFlPic=

> <r_lp_tautomer_probability>
1

> <r_epik_Ionization_Penalty>
0.00343686

> <r_epik_Ionization_Penalty_Charging>
0

> <r_epik_Ionization_Penalty_Neutral>
0.00343686

> <r_epik_State_Penalty>
0.00243544

> <r_epik_Charging_Adjusted_Penalty>
0.00243544

> <i_epik_Tot_Q>
0

> <i_epik_Tot_abs_Q>
0

> <r_epik_Metal_State_Penalty>
-0

> <b_epik_Metal_Only>
0

> <s_lp_Force_Field>
OPLS_2005

> <r_lp_Energy>
11.3483

> <b_lp_Chiralities_Consistent>
1

> <s_lp_Variant>
AV-unprocessed.smi:710-2

> <Gold.Version>
5.8.1

> <Gold.Id.Protein>
6NUR|6NUR_protein|mol2

> <Gold.PLP.Fitness>
46.8328

> <Gold.PLP.PLP>
-41.8871

> <Gold.PLP.part.hbond>
-2.0054

> <Gold.PLP.part.metal>
0.0000

> <Gold.PLP.part.buried>
-6.1100

> <Gold.PLP.part.nonpolar>
-34.1591

> <Gold.PLP.part.repulsive>
0.1395

> <Gold.PLP.ligand.clash>
0.0000

> <Gold.PLP.ligand.torsion>
0.5433

> <Gold.PLP.Chemscore.Hbond>
2.0056

> <Gold.PLP.Chemscore.CHOScore>
0.0000

> <Gold.PLP.Chemscore.Metal>
0.0000

> <Gold.Chemscore.Hbonds>
donor molecule, donor type, donor heavy atom, donor atom, acceptor molecule, acceptor atom, score
      L1  H    15    34       P1  7957  0.88
      P1  H  7989  7998       L1    15  0.35
      P1  H  8011  8017       L1    15  0.70

> <Gold.PLP.Chemscore.Internal.Correction>
0.0155

> <Gold.Rescore>
     Score         DG    S(hbond)    S(metal)    S(lipo)     H(rot)  DE(clash)    DE(int)     intcor
     15.85     -16.48       1.11        0.00     107.85       2.07       0.19       0.44       ----

> <Gold.Chemscore.Fitness>
15.8515

> <Gold.Chemscore.DG>
-16.4825

> <Gold.Chemscore.ZeroCoef>
-5.4800

> <Gold.Chemscore.Hbond>
1.1066

> <Gold.Chemscore.Metal>
0.0000

> <Gold.Chemscore.Lipo>
107.8488

> <Gold.Chemscore.Internal_Hbond>
0.0000

> <Gold.Chemscore.DEClash>
0.1916

> <Gold.Chemscore.DEInternal>
0.4394

> <Gold.Chemscore.Rot>
2.0750

> <Gold.Chemscore.Internal.Correction>
   9.000000E+99

> <Gold.Chemscore.Hbonds>
donor molecule, donor type, donor heavy atom, donor atom, acceptor molecule, acceptor atom, score
      L1  H    15    34       P1  7957  0.86
      P1  H  7989  7998       L1    15  0.07
      P1  H  8011  8017       L1    15  0.07

> <Gold.Chemscore.Hbond.Weighted>
-3.6962

> <Gold.Chemscore.Metal.Weighted>
-0.0000

> <Gold.Chemscore.Lipo.Weighted>
-12.6183

> <Gold.Chemscore.Internal_Hbond.Weighted>
0.0000

> <Gold.Chemscore.DEClash.Weighted>
0.1916

> <Gold.Chemscore.DEInternal.Weighted>
0.4394

> <Gold.Chemscore.Rot.Weighted>
5.3120

> <Gold.Chemscore.Internal.Correction.Weighted>
   9.000000E+99

> <Gold.Protein.RotatedTorsions>
[ 6907 6896 6895 6894 ] final  -58.53 input  -60.11 | X-H torsion
[ 7974 7965 7964 7962 ] final   79.47 input  175.53 | X-H torsion
[ 8008 7997 7996 7995 ] final  -88.77 input   59.86 | X-H torsion
[ 10167 10162 10161 10158 ] final  -35.40 input  -65.29 | X-H torsion
[ 10718 10713 10712 10709 ] final  -24.45 input   66.30 | X-H torsion
[ 10763 10752 10751 10750 ] final  173.54 input  -60.55 | X-H torsion
[ 11005 11000 10999 10996 ] final -105.29 input  -57.11 | X-H torsion

> <Gold.Protein.ActiveResidues>
 VAL166  LYS551  ARG553  GLY616  TRP617  ASP618  TYR619  PRO620  LYS621  CYS622 
 ASP623  PHE694  ASN695  SER759  ASP760  ASP761  ALA762  ILE779  LEU786  VAL792 
 PHE793  MET794  SER795  GLU796  ALA797  LYS798  CYS799  TRP800  GLU811  SER814 

> <Gold.Protein.RotatedAtoms>
  150.8000  134.7086  159.6590 H   0  0  0  0  0  0  0  0  0  0  0  0  # atno 6907 bound_to 6896
  152.4116  134.6112  160.0036 H   0  0  0  0  0  0  0  0  0  0  0  0  # atno 6908 bound_to 6896
  151.6353  133.3292  159.3154 H   0  0  0  0  0  0  0  0  0  0  0  0  # atno 6909 bound_to 6896
  145.6638  139.2478  143.1907 H   0  0  0  0  0  0  0  0  0  0  0  0  # atno 7974 bound_to 7965
  154.6787  140.0549  157.0243 H   0  0  0  0  0  0  0  0  0  0  0  0  # atno 8008 bound_to 7997
  155.0983  140.3226  155.4535 H   0  0  0  0  0  0  0  0  0  0  0  0  # atno 8009 bound_to 7997
  156.2686  140.2036  156.6109 H   0  0  0  0  0  0  0  0  0  0  0  0  # atno 8010 bound_to 7997
  140.7166  143.3480  151.2216 H   0  0  0  0  0  0  0  0  0  0  0  0  # atno 10167 bound_to 10162
  156.4774  130.4537  149.6832 H   0  0  0  0  0  0  0  0  0  0  0  0  # atno 10718 bound_to 10713
  154.4414  135.2762  155.1844 H   0  0  0  0  0  0  0  0  0  0  0  0  # atno 10763 bound_to 10752
  154.3709  135.6109  153.5743 H   0  0  0  0  0  0  0  0  0  0  0  0  # atno 10764 bound_to 10752
  152.9841  135.5857  154.4743 H   0  0  0  0  0  0  0  0  0  0  0  0  # atno 10765 bound_to 10752
  141.1060  133.8795  157.1716 H   0  0  0  0  0  0  0  0  0  0  0  0  # atno 11005 bound_to 11000
  146.1103  140.7437  142.9506 LP  0  0  0  0  0  0  0  0  0  0  0  0  # atno 17320 bound_to 7965
  144.7080  140.3928  143.7103 LP  0  0  0  0  0  0  0  0  0  0  0  0  # atno 17321 bound_to 7965
  139.7004  143.9543  152.2902 LP  0  0  0  0  0  0  0  0  0  0  0  0  # atno 17342 bound_to 10162
  139.9234  144.6786  150.8437 LP  0  0  0  0  0  0  0  0  0  0  0  0  # atno 17343 bound_to 10162
  156.3556  130.7455  151.2420 LP  0  0  0  0  0  0  0  0  0  0  0  0  # atno 17370 bound_to 10713
  157.7486  131.0365  150.4411 LP  0  0  0  0  0  0  0  0  0  0  0  0  # atno 17371 bound_to 10713
  139.9931  135.0057  157.0021 LP  0  0  0  0  0  0  0  0  0  0  0  0  # atno 17394 bound_to 11000
  140.4900  134.1203  155.7231 LP  0  0  0  0  0  0  0  0  0  0  0  0  # atno 17395 bound_to 11000

$$$$
