AV-unprocessed.smi:3219|AV-procd|sdf|12296|dock9
  -GOLD-   2272018143D 1   1.00000     0.00000
 Structure written by MMmdl.
 41 42  0  0  0  0  0  0  0  0  2 V2000
  152.9441  141.4444  159.9205 C   0  0  0  0  0  0  0  0  0  0  0  0
  152.5459  142.8420  160.2721 C   0  0  0  0  0  0  0  0  0  0  0  0
  152.0795  143.8658  159.4905 C   0  0  0  0  0  0  0  0  0  0  0  0
  151.8131  143.8895  158.0074 C   0  0  0  0  0  0  0  0  0  0  0  0
  151.1967  142.5716  157.5143 C   0  0  0  0  0  0  0  0  0  0  0  0
  150.6073  142.7251  156.1695 N   0  3  0  0  0  0  0  0  0  0  0  0
  149.9364  141.5159  155.6555 C   0  0  0  0  0  0  0  0  0  0  0  0
  150.8901  140.3076  155.6523 C   0  0  1  0  0  0  0  0  0  0  0  0
  150.9528  139.6180  157.0365 C   0  0  0  0  0  0  0  0  0  0  0  0
  151.6511  138.2706  156.9887 C   0  0  0  0  0  0  0  0  0  0  0  0
  151.9020  137.6070  155.8479 C   0  0  0  0  0  0  0  0  0  0  0  0
  151.5087  138.1273  154.4780 C   0  0  0  0  0  0  0  0  0  0  0  0
  150.5013  139.2890  154.5635 C   0  0  0  0  0  0  0  0  0  0  0  0
  151.8846  144.9319  160.4136 C   0  0  0  0  0  0  0  0  0  0  0  0
  152.1933  144.5997  161.6538 N   0  0  0  0  0  0  0  0  0  0  0  0
  152.6022  143.3174  161.5686 N   0  0  0  0  0  0  0  0  0  0  0  0
  153.0244  142.6242  162.7704 C   0  0  0  0  0  0  0  0  0  0  0  0
  152.6894  141.2062  158.8882 H   0  0  0  0  0  0  0  0  0  0  0  0
  152.4383  140.7221  160.5617 H   0  0  0  0  0  0  0  0  0  0  0  0
  154.0190  141.3085  160.0398 H   0  0  0  0  0  0  0  0  0  0  0  0
  151.1342  144.7062  157.7601 H   0  0  0  0  0  0  0  0  0  0  0  0
  152.7265  144.0949  157.4481 H   0  0  0  0  0  0  0  0  0  0  0  0
  151.9603  141.7925  157.4906 H   0  0  0  0  0  0  0  0  0  0  0  0
  150.4221  142.2404  158.2071 H   0  0  0  0  0  0  0  0  0  0  0  0
  149.9401  143.4829  156.1909 H   0  0  0  0  0  0  0  0  0  0  0  0
  149.0552  141.2996  156.2614 H   0  0  0  0  0  0  0  0  0  0  0  0
  149.5862  141.7192  154.6426 H   0  0  0  0  0  0  0  0  0  0  0  0
  151.8905  140.6696  155.4084 H   0  0  0  0  0  0  0  0  0  0  0  0
  151.4754  140.2555  157.7506 H   0  0  0  0  0  0  0  0  0  0  0  0
  149.9488  139.4571  157.4312 H   0  0  0  0  0  0  0  0  0  0  0  0
  151.9411  137.8381  157.9352 H   0  0  0  0  0  0  0  0  0  0  0  0
  152.4152  136.6571  155.8798 H   0  0  0  0  0  0  0  0  0  0  0  0
  152.4157  138.4499  153.9658 H   0  0  0  0  0  0  0  0  0  0  0  0
  151.0857  137.3116  153.8909 H   0  0  0  0  0  0  0  0  0  0  0  0
  149.5093  138.8909  154.7823 H   0  0  0  0  0  0  0  0  0  0  0  0
  150.4278  139.7761  153.5904 H   0  0  0  0  0  0  0  0  0  0  0  0
  151.5230  145.9311  160.2194 H   0  0  0  0  0  0  0  0  0  0  0  0
  154.0396  142.2489  162.6399 H   0  0  0  0  0  0  0  0  0  0  0  0
  152.3557  141.7850  162.9631 H   0  0  0  0  0  0  0  0  0  0  0  0
  153.0047  143.2955  163.6304 H   0  0  0  0  0  0  0  0  0  0  0  0
  151.3503  142.9680  155.5293 H   0  0  0  0  0  0  0  0  0  0  0  0
  1  2  1  0  0  0  0
  1 18  1  0  0  0  0
  1 19  1  0  0  0  0
  1 20  1  0  0  0  0
  2 16  1  0  0  0  0
  2  3  2  0  0  0  0
  3  4  1  0  0  0  0
  3 14  1  0  0  0  0
  4  5  1  0  0  0  0
  4 21  1  0  0  0  0
  4 22  1  0  0  0  0
  5  6  1  0  0  0  0
  5 23  1  0  0  0  0
  5 24  1  0  0  0  0
  6  7  1  0  0  0  0
  6 25  1  0  0  0  0
  6 41  1  0  0  0  0
  7  8  1  0  0  0  0
  7 26  1  0  0  0  0
  7 27  1  0  0  0  0
  8 13  1  0  0  0  0
  8  9  1  0  0  0  0
  8 28  1  0  0  0  0
  9 10  1  0  0  0  0
  9 29  1  0  0  0  0
  9 30  1  0  0  0  0
 10 11  2  0  0  0  0
 10 31  1  0  0  0  0
 11 12  1  0  0  0  0
 11 32  1  0  0  0  0
 12 13  1  0  0  0  0
 12 33  1  0  0  0  0
 12 34  1  0  0  0  0
 13 35  1  0  0  0  0
 13 36  1  0  0  0  0
 14 15  2  0  0  0  0
 14 37  1  0  0  0  0
 15 16  1  0  0  0  0
 16 17  1  0  0  0  0
 17 38  1  0  0  0  0
 17 39  1  0  0  0  0
 17 40  1  0  0  0  0
M  CHG  1   6   1
M  END
> <s_m_source_file>
AV-unprocessed.smi

> <i_m_source_file_index>
3219

> <i_lp_mmshare_version>
43012

> <i_f3d_flags>
0

> <s_epik_input>
W0NIM11uMW5bY0hdYyhjMVtDSDNdKVtDSDJdW0NIMl1bTkhdW0NIMl1bQ0BASF0yW0NIMl1bQ0hdPVtDSF1bQ0gyXVtDSDJdMg==

> <s_epik_cmdline>
J2VwaWtfcHl0aG9uJywgJy1waCcsICc3LjAnLCAnLXRuJywgJzgnLCAnLW1hJywgJzIwMCcsICctbWV0YWxfYmluZGluZycsICctaW1hZScsICc8aW5maWxlLm1hZT4nLCAnLW9tYWUnLCAnPG91dGZpbGUubWFlPic=

> <r_lp_tautomer_probability>
1

> <r_epik_Ionization_Penalty>
0.000661401

> <r_epik_Ionization_Penalty_Charging>
0.00057791

> <r_epik_Ionization_Penalty_Neutral>
8.34914e-05

> <r_epik_State_Penalty>
-0

> <r_epik_Charging_Adjusted_Penalty>
0.00057791

> <i_epik_Tot_Q>
1

> <i_epik_Tot_abs_Q>
1

> <r_epik_Metal_State_Penalty>
-0

> <b_epik_Metal_Only>
0

> <s_lp_Force_Field>
OPLS_2005

> <r_lp_Energy>
9.67125

> <b_lp_Chiralities_Consistent>
1

> <s_lp_Variant>
AV-unprocessed.smi:3219-2

> <Gold.Version>
5.8.1

> <Gold.Id.Protein>
6NUR|6NUR_protein|mol2

> <Gold.PLP.Fitness>
50.9136

> <Gold.PLP.PLP>
-46.1647

> <Gold.PLP.part.hbond>
-1.0000

> <Gold.PLP.part.metal>
0.0000

> <Gold.PLP.part.buried>
-3.3652

> <Gold.PLP.part.nonpolar>
-42.2812

> <Gold.PLP.part.repulsive>
1.1610

> <Gold.PLP.ligand.clash>
0.0000

> <Gold.PLP.ligand.torsion>
0.6417

> <Gold.PLP.Chemscore.Hbond>
2.0000

> <Gold.PLP.Chemscore.CHOScore>
0.0000

> <Gold.PLP.Chemscore.Metal>
0.0000

> <Gold.Chemscore.Hbonds>
donor molecule, donor type, donor heavy atom, donor atom, acceptor molecule, acceptor atom, score
      L1  H     6    25       P1  8028  2.00

> <Gold.PLP.Chemscore.Internal.Correction>
0.0323

> <Gold.Rescore>
     Score         DG    S(hbond)    S(metal)    S(lipo)     H(rot)  DE(clash)    DE(int)     intcor
     18.46     -19.67       1.00        0.00     124.68       1.46       0.39       0.82       ----

> <Gold.Chemscore.Fitness>
18.4585

> <Gold.Chemscore.DG>
-19.6677

> <Gold.Chemscore.ZeroCoef>
-5.4800

> <Gold.Chemscore.Hbond>
0.9991

> <Gold.Chemscore.Metal>
0.0000

> <Gold.Chemscore.Lipo>
124.6796

> <Gold.Chemscore.Internal_Hbond>
0.0000

> <Gold.Chemscore.DEClash>
0.3941

> <Gold.Chemscore.DEInternal>
0.8150

> <Gold.Chemscore.Rot>
1.4597

> <Gold.Chemscore.Internal.Correction>
   9.000000E+99

> <Gold.Chemscore.Hbonds>
donor molecule, donor type, donor heavy atom, donor atom, acceptor molecule, acceptor atom, score
      L1  H     6    25       P1  8028  1.00

> <Gold.Chemscore.Hbond.Weighted>
-3.3369

> <Gold.Chemscore.Metal.Weighted>
-0.0000

> <Gold.Chemscore.Lipo.Weighted>
-14.5875

> <Gold.Chemscore.Internal_Hbond.Weighted>
0.0000

> <Gold.Chemscore.DEClash.Weighted>
0.3941

> <Gold.Chemscore.DEInternal.Weighted>
0.8150

> <Gold.Chemscore.Rot.Weighted>
3.7368

> <Gold.Chemscore.Internal.Correction.Weighted>
   9.000000E+99

> <Gold.Protein.RotatedTorsions>
[ 6907 6896 6895 6894 ] final -131.36 input  -60.11 | X-H torsion
[ 7974 7965 7964 7962 ] final  113.36 input  175.53 | X-H torsion
[ 8008 7997 7996 7995 ] final   -2.90 input   59.86 | X-H torsion
[ 10167 10162 10161 10158 ] final  156.01 input  -65.29 | X-H torsion
[ 10718 10713 10712 10709 ] final  -42.94 input   66.30 | X-H torsion
[ 10763 10752 10751 10750 ] final -110.38 input  -60.55 | X-H torsion
[ 11005 11000 10999 10996 ] final   43.69 input  -57.11 | X-H torsion

> <Gold.Protein.ActiveResidues>
 VAL166  LYS551  ARG553  GLY616  TRP617  ASP618  TYR619  PRO620  LYS621  CYS622 
 ASP623  PHE694  ASN695  SER759  ASP760  ASP761  ALA762  ILE779  LEU786  VAL792 
 PHE793  MET794  SER795  GLU796  ALA797  LYS798  CYS799  TRP800  GLU811  SER814 

> <Gold.Protein.RotatedAtoms>
  150.9501  133.6559  159.2773 H   0  0  0  0  0  0  0  0  0  0  0  0  # atno 6907 bound_to 6896
  151.3918  135.0956  159.9538 H   0  0  0  0  0  0  0  0  0  0  0  0  # atno 6908 bound_to 6896
  152.5106  133.9013  159.7497 H   0  0  0  0  0  0  0  0  0  0  0  0  # atno 6909 bound_to 6896
  145.2179  139.2876  143.4234 H   0  0  0  0  0  0  0  0  0  0  0  0  # atno 7974 bound_to 7965
  154.6308  140.2523  155.7437 H   0  0  0  0  0  0  0  0  0  0  0  0  # atno 8008 bound_to 7997
  156.2478  140.2907  156.0578 H   0  0  0  0  0  0  0  0  0  0  0  0  # atno 8009 bound_to 7997
  155.1749  140.0387  157.2861 H   0  0  0  0  0  0  0  0  0  0  0  0  # atno 8010 bound_to 7997
  139.4821  144.5047  151.8115 H   0  0  0  0  0  0  0  0  0  0  0  0  # atno 10167 bound_to 10162
  156.2542  130.4191  149.8615 H   0  0  0  0  0  0  0  0  0  0  0  0  # atno 10718 bound_to 10713
  154.8245  135.4566  154.0876 H   0  0  0  0  0  0  0  0  0  0  0  0  # atno 10763 bound_to 10752
  153.2202  135.6893  153.8015 H   0  0  0  0  0  0  0  0  0  0  0  0  # atno 10764 bound_to 10752
  153.7435  135.3309  155.3285 H   0  0  0  0  0  0  0  0  0  0  0  0  # atno 10765 bound_to 10752
  140.1621  134.4328  155.8311 H   0  0  0  0  0  0  0  0  0  0  0  0  # atno 11005 bound_to 11000
  146.3383  140.2475  142.8597 LP  0  0  0  0  0  0  0  0  0  0  0  0  # atno 17320 bound_to 7965
  144.9793  140.8444  143.5407 LP  0  0  0  0  0  0  0  0  0  0  0  0  # atno 17321 bound_to 7965
  140.4544  144.1810  150.5900 LP  0  0  0  0  0  0  0  0  0  0  0  0  # atno 17342 bound_to 10162
  140.4551  143.2471  151.9296 LP  0  0  0  0  0  0  0  0  0  0  0  0  # atno 17343 bound_to 10162
  156.6153  130.8603  151.3463 LP  0  0  0  0  0  0  0  0  0  0  0  0  # atno 17370 bound_to 10713
  157.7226  130.9579  150.1501 LP  0  0  0  0  0  0  0  0  0  0  0  0  # atno 17371 bound_to 10713
  141.2210  133.6918  156.7613 LP  0  0  0  0  0  0  0  0  0  0  0  0  # atno 17394 bound_to 11000
  140.2477  134.8565  157.3636 LP  0  0  0  0  0  0  0  0  0  0  0  0  # atno 17395 bound_to 11000

$$$$
