AV-unprocessed.smi:1033|AV-procd|sdf|4509|dock4
  -GOLD-   22720 2513D 1   1.00000     0.00000
 Structure written by MMmdl.
 57 59  0  0  0  0  0  0  0  0  3 V2000
  152.9986  142.7934  160.7583 C   0  0  0  0  0  0  0  0  0  0  0  0
  152.2851  142.4318  159.4675 C   0  0  0  0  0  0  0  0  0  0  0  0
  152.7111  141.2966  158.7417 C   0  0  0  0  0  0  0  0  0  0  0  0
  152.0739  140.9258  157.5374 C   0  0  0  0  0  0  0  0  0  0  0  0
  152.3194  139.8684  156.6785 N   0  0  0  0  0  0  0  0  0  0  0  0
  151.3948  140.0620  155.7428 C   0  0  0  0  0  0  0  0  0  0  0  0
  150.5739  141.1188  155.8959 N   0  0  0  0  0  0  0  0  0  0  0  0
  149.4944  141.5222  155.0119 C   0  0  0  0  0  0  0  0  0  0  0  0
  148.4484  140.4082  154.8110 C   0  0  1  0  0  0  0  0  0  0  0  0
  148.0446  139.9087  156.0720 O   0  0  0  0  0  0  0  0  0  0  0  0
  147.2007  140.9251  154.0673 C   0  0  0  0  0  0  0  0  0  0  0  0
  146.5411  139.8705  153.2541 N   0  3  2  0  0  0  0  0  0  0  0  0
  146.3291  138.5957  153.9856 C   0  0  0  0  0  0  0  0  0  0  0  0
  145.5528  137.5846  153.1221 C   0  0  0  0  0  0  0  0  0  0  0  0
  146.2340  137.3471  151.8228 N   0  3  1  0  0  0  0  0  0  0  0  0
  145.5558  136.3325  150.9749 C   0  0  0  0  0  0  0  0  0  0  0  0
  145.4758  134.9484  151.6487 C   0  0  1  0  0  0  0  0  0  0  0  0
  144.8029  133.9099  150.7420 C   0  0  0  0  0  0  0  0  0  0  0  0
  146.7852  134.5013  151.9350 O   0  0  0  0  0  0  0  0  0  0  0  0
  146.4597  138.6224  151.0983 C   0  0  0  0  0  0  0  0  0  0  0  0
  147.2349  139.6301  151.9654 C   0  0  0  0  0  0  0  0  0  0  0  0
  150.9898  141.7283  157.0752 C   0  0  0  0  0  0  0  0  0  0  0  0
  150.5577  142.8608  157.7879 C   0  0  0  0  0  0  0  0  0  0  0  0
  151.2057  143.2173  158.9890 C   0  0  0  0  0  0  0  0  0  0  0  0
  150.7311  144.4418  159.7513 C   0  0  0  0  0  0  0  0  0  0  0  0
  153.7634  142.0581  161.0107 H   0  0  0  0  0  0  0  0  0  0  0  0
  152.2924  142.8374  161.5876 H   0  0  0  0  0  0  0  0  0  0  0  0
  153.4855  143.7643  160.6649 H   0  0  0  0  0  0  0  0  0  0  0  0
  153.5336  140.6982  159.1057 H   0  0  0  0  0  0  0  0  0  0  0  0
  151.3068  139.3941  154.8981 H   0  0  0  0  0  0  0  0  0  0  0  0
  149.0279  142.4201  155.4197 H   0  0  0  0  0  0  0  0  0  0  0  0
  149.9284  141.8073  154.0525 H   0  0  0  0  0  0  0  0  0  0  0  0
  148.9133  139.5943  154.2550 H   0  0  0  0  0  0  0  0  0  0  0  0
  147.3141  139.3213  155.9430 H   0  0  0  0  0  0  0  0  0  0  0  0
  146.4964  141.3072  154.8083 H   0  0  0  0  0  0  0  0  0  0  0  0
  147.4565  141.7713  153.4278 H   0  0  0  0  0  0  0  0  0  0  0  0
  147.2942  138.1759  154.2741 H   0  0  0  0  0  0  0  0  0  0  0  0
  145.7753  138.7730  154.9068 H   0  0  0  0  0  0  0  0  0  0  0  0
  145.4525  136.6513  153.6751 H   0  0  0  0  0  0  0  0  0  0  0  0
  144.5417  137.9531  152.9402 H   0  0  0  0  0  0  0  0  0  0  0  0
  144.5584  136.6896  150.7136 H   0  0  0  0  0  0  0  0  0  0  0  0
  146.0944  136.2240  150.0318 H   0  0  0  0  0  0  0  0  0  0  0  0
  144.9175  135.0010  152.5827 H   0  0  0  0  0  0  0  0  0  0  0  0
  143.7795  134.2024  150.5057 H   0  0  0  0  0  0  0  0  0  0  0  0
  144.7613  132.9328  151.2243 H   0  0  0  0  0  0  0  0  0  0  0  0
  145.3405  133.7934  149.8002 H   0  0  0  0  0  0  0  0  0  0  0  0
  147.3762  135.2371  151.8723 H   0  0  0  0  0  0  0  0  0  0  0  0
  147.0204  138.4314  150.1824 H   0  0  0  0  0  0  0  0  0  0  0  0
  145.4991  139.0461  150.8001 H   0  0  0  0  0  0  0  0  0  0  0  0
  147.3361  140.5691  151.4194 H   0  0  0  0  0  0  0  0  0  0  0  0
  148.2448  139.2635  152.1580 H   0  0  0  0  0  0  0  0  0  0  0  0
  149.7328  143.4493  157.4143 H   0  0  0  0  0  0  0  0  0  0  0  0
  149.9240  144.9511  159.2240 H   0  0  0  0  0  0  0  0  0  0  0  0
  151.5469  145.1534  159.8796 H   0  0  0  0  0  0  0  0  0  0  0  0
  150.3606  144.1578  160.7364 H   0  0  0  0  0  0  0  0  0  0  0  0
  147.1495  136.9711  152.0280 H   0  0  0  0  0  0  0  0  0  0  0  0
  145.6280  140.2354  153.0197 H   0  0  0  0  0  0  0  0  0  0  0  0
  1  2  1  0  0  0  0
  1 26  1  0  0  0  0
  1 27  1  0  0  0  0
  1 28  1  0  0  0  0
  2 24  1  0  0  0  0
  2  3  2  0  0  0  0
  3  4  1  0  0  0  0
  3 29  1  0  0  0  0
  4 22  2  0  0  0  0
  4  5  1  0  0  0  0
  5  6  2  0  0  0  0
  6  7  1  0  0  0  0
  6 30  1  0  0  0  0
  7  8  1  0  0  0  0
  7 22  1  0  0  0  0
  8  9  1  0  0  0  0
  8 31  1  0  0  0  0
  8 32  1  0  0  0  0
  9 10  1  0  0  0  0
  9 11  1  0  0  0  0
  9 33  1  0  0  0  0
 10 34  1  0  0  0  0
 11 12  1  0  0  0  0
 11 35  1  0  0  0  0
 11 36  1  0  0  0  0
 12 21  1  0  0  0  0
 12 13  1  0  0  0  0
 12 57  1  0  0  0  0
 13 14  1  0  0  0  0
 13 37  1  0  0  0  0
 13 38  1  0  0  0  0
 14 15  1  0  0  0  0
 14 39  1  0  0  0  0
 14 40  1  0  0  0  0
 15 16  1  0  0  0  0
 15 20  1  0  0  0  0
 15 56  1  0  0  0  0
 16 17  1  0  0  0  0
 16 41  1  0  0  0  0
 16 42  1  0  0  0  0
 17 18  1  0  0  0  0
 17 19  1  0  0  0  0
 17 43  1  0  0  0  0
 18 44  1  0  0  0  0
 18 45  1  0  0  0  0
 18 46  1  0  0  0  0
 19 47  1  0  0  0  0
 20 21  1  0  0  0  0
 20 48  1  0  0  0  0
 20 49  1  0  0  0  0
 21 50  1  0  0  0  0
 21 51  1  0  0  0  0
 22 23  1  0  0  0  0
 23 24  2  0  0  0  0
 23 52  1  0  0  0  0
 24 25  1  0  0  0  0
 25 53  1  0  0  0  0
 25 54  1  0  0  0  0
 25 55  1  0  0  0  0
M  CHG  1  12   1
M  CHG  1  15   1
M  END
> <s_m_source_file>
AV-unprocessed.smi

> <i_m_source_file_index>
1033

> <i_lp_mmshare_version>
43012

> <i_f3d_flags>
0

> <s_epik_input>
W0NIM11jKFtjSF0xKWMoW0NIM10pW2NIXWMoYzEyKW4oW2NIXW4yKVtDSDJdW0NASF0oW09IXSlbQ0gyXU4zW0NIMl1bQ0gyXU4oW0NIMl1bQ0gyXTMpW0NIMl1bQ0BIXShbQ0gzXSlbT0hd

> <s_epik_cmdline>
J2VwaWtfcHl0aG9uJywgJy1waCcsICc3LjAnLCAnLXRuJywgJzgnLCAnLW1hJywgJzIwMCcsICctbWV0YWxfYmluZGluZycsICctaW1hZScsICc8aW5maWxlLm1hZT4nLCAnLW9tYWUnLCAnPG91dGZpbGUubWFlPic=

> <r_epik_Ionization_Penalty>
3.16016

> <r_epik_Ionization_Penalty_Charging>
3.07679

> <r_epik_Ionization_Penalty_Neutral>
0.083365

> <r_epik_State_Penalty>
2.09701

> <r_epik_Charging_Adjusted_Penalty>
5.1738

> <i_epik_Tot_Q>
2

> <i_epik_Tot_abs_Q>
2

> <r_epik_Metal_State_Penalty>
2.02534

> <b_epik_Metal_Only>
0

> <s_lp_Force_Field>
OPLS_2005

> <r_lp_Energy>
27.8385

> <b_lp_Chiralities_Consistent>
1

> <s_lp_Variant>
AV-unprocessed.smi:1033-20

> <Gold.Version>
5.8.1

> <Gold.Id.Protein>
6NUR|6NUR_protein|mol2

> <Gold.PLP.Fitness>
64.3179

> <Gold.PLP.PLP>
-47.0923

> <Gold.PLP.part.hbond>
-4.0000

> <Gold.PLP.part.metal>
0.0000

> <Gold.PLP.part.buried>
2.2949

> <Gold.PLP.part.nonpolar>
-45.5355

> <Gold.PLP.part.repulsive>
0.0646

> <Gold.PLP.ligand.clash>
0.0000

> <Gold.PLP.ligand.torsion>
0.5558

> <Gold.PLP.Chemscore.Hbond>
6.0000

> <Gold.PLP.Chemscore.CHOScore>
0.0000

> <Gold.PLP.Chemscore.Metal>
0.0000

> <Gold.Chemscore.Hbonds>
donor molecule, donor type, donor heavy atom, donor atom, acceptor molecule, acceptor atom, score
      L1  H    12    57       P1 10175  1.98
      L1  H    15    56       P1  7948  2.00
      L1  H    19    47       P1  7948  1.00
      P1  H  7997  8008       L1     5  0.94

> <Gold.PLP.Chemscore.Internal.Correction>
0.3373

> <Gold.Rescore>
     Score         DG    S(hbond)    S(metal)    S(lipo)     H(rot)  DE(clash)    DE(int)     intcor
     21.42     -25.45       3.44        0.00     141.18       3.14       2.46       1.58       ----

> <Gold.Chemscore.Fitness>
21.4160

> <Gold.Chemscore.DG>
-25.4518

> <Gold.Chemscore.ZeroCoef>
-5.4800

> <Gold.Chemscore.Hbond>
3.4392

> <Gold.Chemscore.Metal>
0.0000

> <Gold.Chemscore.Lipo>
141.1795

> <Gold.Chemscore.Internal_Hbond>
0.0000

> <Gold.Chemscore.DEClash>
2.4561

> <Gold.Chemscore.DEInternal>
1.5796

> <Gold.Chemscore.Rot>
3.1380

> <Gold.Chemscore.Internal.Correction>
   9.000000E+99

> <Gold.Chemscore.Hbonds>
donor molecule, donor type, donor heavy atom, donor atom, acceptor molecule, acceptor atom, score
      L1  H    12    57       P1 10175  0.89
      L1  H    15    56       P1  7948  0.99
      L1  H    19    47       P1  7948  0.96
      P1  H  7997  8008       L1     5  0.23

> <Gold.Chemscore.Hbond.Weighted>
-11.4870

> <Gold.Chemscore.Metal.Weighted>
-0.0000

> <Gold.Chemscore.Lipo.Weighted>
-16.5180

> <Gold.Chemscore.Internal_Hbond.Weighted>
0.0000

> <Gold.Chemscore.DEClash.Weighted>
2.4561

> <Gold.Chemscore.DEInternal.Weighted>
1.5796

> <Gold.Chemscore.Rot.Weighted>
8.0332

> <Gold.Chemscore.Internal.Correction.Weighted>
   9.000000E+99

> <Gold.Protein.RotatedTorsions>
[ 6907 6896 6895 6894 ] final  -25.08 input  -60.11 | X-H torsion
[ 7974 7965 7964 7962 ] final  122.19 input  175.53 | X-H torsion
[ 8008 7997 7996 7995 ] final  -43.81 input   59.86 | X-H torsion
[ 10167 10162 10161 10158 ] final  105.36 input  -65.29 | X-H torsion
[ 10718 10713 10712 10709 ] final   10.32 input   66.30 | X-H torsion
[ 10763 10752 10751 10750 ] final   63.38 input  -60.55 | X-H torsion
[ 11005 11000 10999 10996 ] final   10.30 input  -57.11 | X-H torsion

> <Gold.Protein.ActiveResidues>
 VAL166  LYS551  ARG553  GLY616  TRP617  ASP618  TYR619  PRO620  LYS621  CYS622 
 ASP623  PHE694  ASN695  SER759  ASP760  ASP761  ALA762  ILE779  LEU786  VAL792 
 PHE793  MET794  SER795  GLU796  ALA797  LYS798  CYS799  TRP800  GLU811  SER814 

> <Gold.Protein.RotatedAtoms>
  151.1803  135.0358  159.8789 H   0  0  0  0  0  0  0  0  0  0  0  0  # atno 6907 bound_to 6896
  152.5445  134.1070  159.8352 H   0  0  0  0  0  0  0  0  0  0  0  0  # atno 6908 bound_to 6896
  151.1187  133.5073  159.2635 H   0  0  0  0  0  0  0  0  0  0  0  0  # atno 6909 bound_to 6896
  145.1104  139.3456  143.4766 H   0  0  0  0  0  0  0  0  0  0  0  0  # atno 7974 bound_to 7965
  154.3997  140.1438  156.3580 H   0  0  0  0  0  0  0  0  0  0  0  0  # atno 8008 bound_to 7997
  155.8207  140.3469  155.5492 H   0  0  0  0  0  0  0  0  0  0  0  0  # atno 8009 bound_to 7997
  155.8290  140.0909  157.1794 H   0  0  0  0  0  0  0  0  0  0  0  0  # atno 8010 bound_to 7997
  139.7099  144.7079  151.1044 H   0  0  0  0  0  0  0  0  0  0  0  0  # atno 10167 bound_to 10162
  156.9793  130.5999  149.5675 H   0  0  0  0  0  0  0  0  0  0  0  0  # atno 10718 bound_to 10713
  153.0016  135.5431  154.6343 H   0  0  0  0  0  0  0  0  0  0  0  0  # atno 10763 bound_to 10752
  154.5613  135.2834  155.0918 H   0  0  0  0  0  0  0  0  0  0  0  0  # atno 10764 bound_to 10752
  154.2120  135.6466  153.5171 H   0  0  0  0  0  0  0  0  0  0  0  0  # atno 10765 bound_to 10752
  140.5160  134.0606  155.7831 H   0  0  0  0  0  0  0  0  0  0  0  0  # atno 11005 bound_to 11000
  146.3526  140.1021  142.8607 LP  0  0  0  0  0  0  0  0  0  0  0  0  # atno 17320 bound_to 7965
  145.0853  140.9248  143.4801 LP  0  0  0  0  0  0  0  0  0  0  0  0  # atno 17321 bound_to 7965
  140.7730  143.5307  150.9426 LP  0  0  0  0  0  0  0  0  0  0  0  0  # atno 17342 bound_to 10162
  139.8992  143.6857  152.3134 LP  0  0  0  0  0  0  0  0  0  0  0  0  # atno 17343 bound_to 10162
  156.0251  130.5345  150.8384 LP  0  0  0  0  0  0  0  0  0  0  0  0  # atno 17370 bound_to 10713
  157.5538  131.0944  150.9658 LP  0  0  0  0  0  0  0  0  0  0  0  0  # atno 17371 bound_to 10713
  141.1360  133.9221  157.2432 LP  0  0  0  0  0  0  0  0  0  0  0  0  # atno 17394 bound_to 11000
  139.9632  135.0149  156.9318 LP  0  0  0  0  0  0  0  0  0  0  0  0  # atno 17395 bound_to 11000

$$$$
