AV-unprocessed.smi:625|AV-procd|sdf|3106|dock9
  -GOLD-   22720 0 33D 1   1.00000     0.00000
 Structure written by MMmdl.
 49 51  0  0  0  0  0  0  0  0  1 V2000
  145.6800  135.5281  150.8605 C   0  0  0  0  0  0  0  0  0  0  0  0
  146.5518  134.6457  151.6214 N   0  0  0  0  0  0  0  0  0  0  0  0
  146.3444  133.3280  151.7886 C   0  0  0  0  0  0  0  0  0  0  0  0
  145.3709  132.7603  151.2914 O   0  0  0  0  0  0  0  0  0  0  0  0
  147.3626  132.6555  152.6010 C   0  0  0  0  0  0  0  0  0  0  0  0
  147.2726  131.2221  152.8031 C   0  0  0  0  0  0  0  0  0  0  0  0
  148.1802  130.5731  153.5584 C   0  0  0  0  0  0  0  0  0  0  0  0
  149.2906  131.2786  154.2033 C   0  0  0  0  0  0  0  0  0  0  0  0
  150.1109  130.6956  154.9124 O   0  0  0  0  0  0  0  0  0  0  0  0
  149.3504  132.6264  153.9762 N   0  0  0  0  0  0  0  0  0  0  0  0
  150.4130  133.4482  154.5855 C   0  0  0  0  0  0  0  0  0  0  0  0
  149.9052  134.6544  155.3946 C   0  0  0  0  0  0  0  0  0  0  0  0
  149.9899  134.6324  156.6216 O   0  0  0  0  0  0  0  0  0  0  0  0
  149.3768  135.6879  154.7175 N   0  0  0  0  0  0  0  0  0  0  0  0
  148.7732  136.8823  155.2989 C   0  0  1  0  0  0  0  0  0  0  0  0
  147.7366  136.4633  156.3565 C   0  0  0  0  0  0  0  0  0  0  0  0
  149.8861  137.7815  155.8902 C   0  0  2  0  0  0  0  0  0  0  0  0
  149.3508  138.9240  156.7869 C   0  0  0  0  0  0  0  0  0  0  0  0
  149.9907  140.1835  156.1762 C   0  0  1  0  0  0  0  0  0  0  0  0
  151.5071  140.1750  156.4431 C   0  0  0  0  0  0  0  0  0  0  0  0
  152.0111  139.0724  155.4936 C   0  0  0  0  0  0  0  0  0  0  0  0
  150.7110  138.5694  154.8378 C   0  0  2  0  0  0  0  0  0  0  0  0
  149.9258  139.8680  154.6879 C   0  0  0  0  0  0  0  0  0  0  0  0
  148.3945  133.2998  153.1895 C   0  0  0  0  0  0  0  0  0  0  0  0
  146.0620  136.5483  150.8950 H   0  0  0  0  0  0  0  0  0  0  0  0
  144.6704  135.5281  151.2739 H   0  0  0  0  0  0  0  0  0  0  0  0
  145.6296  135.2177  149.8160 H   0  0  0  0  0  0  0  0  0  0  0  0
  147.3659  135.0602  152.0518 H   0  0  0  0  0  0  0  0  0  0  0  0
  146.4726  130.6549  152.3490 H   0  0  0  0  0  0  0  0  0  0  0  0
  148.0883  129.5054  153.6933 H   0  0  0  0  0  0  0  0  0  0  0  0
  151.0413  132.8356  155.2347 H   0  0  0  0  0  0  0  0  0  0  0  0
  151.0890  133.8209  153.8148 H   0  0  0  0  0  0  0  0  0  0  0  0
  149.3553  135.6221  153.7101 H   0  0  0  0  0  0  0  0  0  0  0  0
  148.2603  137.4374  154.5117 H   0  0  0  0  0  0  0  0  0  0  0  0
  147.2376  137.3279  156.7936 H   0  0  0  0  0  0  0  0  0  0  0  0
  148.2027  135.9043  157.1687 H   0  0  0  0  0  0  0  0  0  0  0  0
  146.9623  135.8316  155.9202 H   0  0  0  0  0  0  0  0  0  0  0  0
  150.5589  137.1456  156.4684 H   0  0  0  0  0  0  0  0  0  0  0  0
  148.2641  139.0007  156.7314 H   0  0  0  0  0  0  0  0  0  0  0  0
  149.6181  138.7880  157.8354 H   0  0  0  0  0  0  0  0  0  0  0  0
  149.4989  141.1105  156.4726 H   0  0  0  0  0  0  0  0  0  0  0  0
  151.9542  141.1360  156.1858 H   0  0  0  0  0  0  0  0  0  0  0  0
  151.7409  139.9644  157.4874 H   0  0  0  0  0  0  0  0  0  0  0  0
  152.6835  139.4913  154.7438 H   0  0  0  0  0  0  0  0  0  0  0  0
  152.5497  138.2818  156.0175 H   0  0  0  0  0  0  0  0  0  0  0  0
  150.8919  138.0383  153.9032 H   0  0  0  0  0  0  0  0  0  0  0  0
  148.9095  139.7242  154.3178 H   0  0  0  0  0  0  0  0  0  0  0  0
  150.4299  140.6097  154.0657 H   0  0  0  0  0  0  0  0  0  0  0  0
  148.5639  134.3647  153.1191 H   0  0  0  0  0  0  0  0  0  0  0  0
  1  2  1  0  0  0  0
  1 25  1  0  0  0  0
  1 26  1  0  0  0  0
  1 27  1  0  0  0  0
  2  3  1  0  0  0  0
  2 28  1  0  0  0  0
  3  4  2  0  0  0  0
  3  5  1  0  0  0  0
  5 24  2  0  0  0  0
  5  6  1  0  0  0  0
  6  7  2  0  0  0  0
  6 29  1  0  0  0  0
  7  8  1  0  0  0  0
  7 30  1  0  0  0  0
  8  9  2  0  0  0  0
  8 10  1  0  0  0  0
 10 11  1  0  0  0  0
 10 24  1  0  0  0  0
 11 12  1  0  0  0  0
 11 31  1  0  0  0  0
 11 32  1  0  0  0  0
 12 13  2  0  0  0  0
 12 14  1  0  0  0  0
 14 15  1  0  0  0  0
 14 33  1  0  0  0  0
 15 16  1  0  0  0  0
 15 17  1  0  0  0  0
 15 34  1  0  0  0  0
 16 35  1  0  0  0  0
 16 36  1  0  0  0  0
 16 37  1  0  0  0  0
 17 22  1  0  0  0  0
 17 18  1  0  0  0  0
 17 38  1  0  0  0  0
 18 19  1  0  0  0  0
 18 39  1  0  0  0  0
 18 40  1  0  0  0  0
 19 23  1  0  0  0  0
 19 20  1  0  0  0  0
 19 41  1  0  0  0  0
 20 21  1  0  0  0  0
 20 42  1  0  0  0  0
 20 43  1  0  0  0  0
 21 22  1  0  0  0  0
 21 44  1  0  0  0  0
 21 45  1  0  0  0  0
 22 23  1  0  0  0  0
 22 46  1  0  0  0  0
 23 47  1  0  0  0  0
 23 48  1  0  0  0  0
 24 49  1  0  0  0  0
M  END
> <s_m_source_file>
AV-unprocessed.smi

> <i_m_source_file_index>
625

> <i_lp_mmshare_version>
43012

> <i_f3d_flags>
0

> <s_epik_input>
W0NIM11bTkhdQyg9TyljMVtjSF1bY0hdYyg9TyluKFtjSF0xKVtDSDJdQyg9TylbTkhdW0NASF0oW0NIM10pW0NASF0oW0NIMl1bQ0BIXTIzKVtDQEhdKFtDSDJdMylbQ0gyXVtDSDJdMg==

> <s_epik_cmdline>
J2VwaWtfcHl0aG9uJywgJy1waCcsICc3LjAnLCAnLXRuJywgJzgnLCAnLW1hJywgJzIwMCcsICctbWV0YWxfYmluZGluZycsICctaW1hZScsICc8aW5maWxlLm1hZT4nLCAnLW9tYWUnLCAnPG91dGZpbGUubWFlPic=

> <r_lp_tautomer_probability>
1

> <r_epik_Ionization_Penalty>
3.7129e-07

> <r_epik_Ionization_Penalty_Charging>
5.04114e-08

> <r_epik_Ionization_Penalty_Neutral>
3.20879e-07

> <r_epik_State_Penalty>
-0

> <r_epik_Charging_Adjusted_Penalty>
5.04114e-08

> <i_epik_Tot_Q>
0

> <i_epik_Tot_abs_Q>
0

> <r_epik_Metal_State_Penalty>
-0

> <b_epik_Metal_Only>
0

> <s_lp_Force_Field>
OPLS_2005

> <r_lp_Energy>
63.073

> <b_lp_Chiralities_Consistent>
1

> <s_lp_Variant>
AV-unprocessed.smi:625-6

> <Gold.Version>
5.8.1

> <Gold.Id.Protein>
6NUR|6NUR_protein|mol2

> <Gold.PLP.Fitness>
45.8551

> <Gold.PLP.PLP>
-37.8318

> <Gold.PLP.part.hbond>
-2.0000

> <Gold.PLP.part.metal>
0.0000

> <Gold.PLP.part.buried>
-3.8406

> <Gold.PLP.part.nonpolar>
-31.9437

> <Gold.PLP.part.repulsive>
0.1694

> <Gold.PLP.ligand.clash>
0.0000

> <Gold.PLP.ligand.torsion>
0.4916

> <Gold.PLP.Chemscore.Hbond>
1.9920

> <Gold.PLP.Chemscore.CHOScore>
1.0000

> <Gold.PLP.Chemscore.Metal>
0.0000

> <Gold.Chemscore.Hbonds>
donor molecule, donor type, donor heavy atom, donor atom, acceptor molecule, acceptor atom, score
      L1  H     2    28       P1  7948  0.94
      L1  H    14    33       P1  7948  1.00
      L1  C    24    49       P1  7948  0.92

> <Gold.PLP.Chemscore.Internal.Correction>
0.0305

> <Gold.Rescore>
     Score         DG    S(hbond)    S(metal)    S(lipo)     H(rot)  DE(clash)    DE(int)     intcor
     11.40     -12.72       0.99        0.00      70.28       1.67       0.00       1.33       ----

> <Gold.Chemscore.Fitness>
11.3970

> <Gold.Chemscore.DG>
-12.7229

> <Gold.Chemscore.ZeroCoef>
-5.4800

> <Gold.Chemscore.Hbond>
0.9871

> <Gold.Chemscore.Metal>
0.0000

> <Gold.Chemscore.Lipo>
70.2842

> <Gold.Chemscore.Internal_Hbond>
0.0000

> <Gold.Chemscore.DEClash>
0.0000

> <Gold.Chemscore.DEInternal>
1.3259

> <Gold.Chemscore.Rot>
1.6709

> <Gold.Chemscore.Internal.Correction>
   9.000000E+99

> <Gold.Chemscore.Hbonds>
donor molecule, donor type, donor heavy atom, donor atom, acceptor molecule, acceptor atom, score
      L1  H     2    28       P1  7948  0.87
      L1  H    14    33       P1  7948  0.44

> <Gold.Chemscore.Hbond.Weighted>
-3.2970

> <Gold.Chemscore.Metal.Weighted>
-0.0000

> <Gold.Chemscore.Lipo.Weighted>
-8.2233

> <Gold.Chemscore.Internal_Hbond.Weighted>
0.0000

> <Gold.Chemscore.DEClash.Weighted>
0.0000

> <Gold.Chemscore.DEInternal.Weighted>
1.3259

> <Gold.Chemscore.Rot.Weighted>
4.2774

> <Gold.Chemscore.Internal.Correction.Weighted>
   9.000000E+99

> <Gold.Protein.RotatedTorsions>
[ 6907 6896 6895 6894 ] final  153.57 input  -60.11 | X-H torsion
[ 7974 7965 7964 7962 ] final  -59.59 input  175.53 | X-H torsion
[ 8008 7997 7996 7995 ] final   21.30 input   59.86 | X-H torsion
[ 10167 10162 10161 10158 ] final -176.33 input  -65.29 | X-H torsion
[ 10718 10713 10712 10709 ] final  172.60 input   66.30 | X-H torsion
[ 10763 10752 10751 10750 ] final -165.17 input  -60.55 | X-H torsion
[ 11005 11000 10999 10996 ] final  -74.15 input  -57.11 | X-H torsion

> <Gold.Protein.ActiveResidues>
 VAL166  LYS551  ARG553  GLY616  TRP617  ASP618  TYR619  PRO620  LYS621  CYS622 
 ASP623  PHE694  ASN695  SER759  ASP760  ASP761  ALA762  ILE779  LEU786  VAL792 
 PHE793  MET794  SER795  GLU796  ALA797  LYS798  CYS799  TRP800  GLU811  SER814 

> <Gold.Protein.RotatedAtoms>
  152.0708  133.4106  159.4458 H   0  0  0  0  0  0  0  0  0  0  0  0  # atno 6907 bound_to 6896
  150.6863  134.3094  159.4749 H   0  0  0  0  0  0  0  0  0  0  0  0  # atno 6908 bound_to 6896
  152.0925  134.9397  160.0622 H   0  0  0  0  0  0  0  0  0  0  0  0  # atno 6909 bound_to 6896
  145.8257  140.8512  143.0110 H   0  0  0  0  0  0  0  0  0  0  0  0  # atno 7974 bound_to 7965
  154.9485  140.3062  155.5086 H   0  0  0  0  0  0  0  0  0  0  0  0  # atno 8008 bound_to 7997
  156.2989  140.2323  156.4498 H   0  0  0  0  0  0  0  0  0  0  0  0  # atno 8009 bound_to 7997
  154.8077  140.0430  157.1308 H   0  0  0  0  0  0  0  0  0  0  0  0  # atno 8010 bound_to 7997
  139.5535  144.2049  152.1118 H   0  0  0  0  0  0  0  0  0  0  0  0  # atno 10167 bound_to 10162
  156.9765  131.0106  151.2892 H   0  0  0  0  0  0  0  0  0  0  0  0  # atno 10718 bound_to 10713
  154.6958  135.2979  154.9414 H   0  0  0  0  0  0  0  0  0  0  0  0  # atno 10763 bound_to 10752
  154.0362  135.6663  153.4789 H   0  0  0  0  0  0  0  0  0  0  0  0  # atno 10764 bound_to 10752
  153.0645  135.5096  154.8075 H   0  0  0  0  0  0  0  0  0  0  0  0  # atno 10765 bound_to 10752
  141.1631  133.6902  156.7320 H   0  0  0  0  0  0  0  0  0  0  0  0  # atno 11005 bound_to 11000
  144.6744  140.0598  143.7476 LP  0  0  0  0  0  0  0  0  0  0  0  0  # atno 17320 bound_to 7965
  145.9627  139.2812  143.1146 LP  0  0  0  0  0  0  0  0  0  0  0  0  # atno 17321 bound_to 7965
  140.1549  144.5080  150.6666 LP  0  0  0  0  0  0  0  0  0  0  0  0  # atno 17342 bound_to 10162
  140.6803  143.2323  151.5402 LP  0  0  0  0  0  0  0  0  0  0  0  0  # atno 17343 bound_to 10162
  157.5556  130.8211  149.8200 LP  0  0  0  0  0  0  0  0  0  0  0  0  # atno 17370 bound_to 10713
  156.0261  130.3779  150.1818 LP  0  0  0  0  0  0  0  0  0  0  0  0  # atno 17371 bound_to 10713
  140.2738  134.8371  157.3871 LP  0  0  0  0  0  0  0  0  0  0  0  0  # atno 17394 bound_to 11000
  140.1497  134.4866  155.7970 LP  0  0  0  0  0  0  0  0  0  0  0  0  # atno 17395 bound_to 11000

$$$$
