AV-unprocessed.smi:3116|AV-procd|sdf|11870|dock6
  -GOLD-   2272017253D 1   1.00000     0.00000
 Structure written by MMmdl.
 33 33  0  0  0  0  0  0  0  0  1 V2000
  153.2144  138.7775  155.1703 C   0  0  0  0  0  0  0  0  0  0  0  0
  151.7118  139.0164  154.9141 C   0  0  2  0  0  0  0  0  0  0  0  0
  151.0042  139.4017  156.1457 N   0  0  0  0  0  0  0  0  0  0  0  0
  151.7286  140.3572  156.9811 C   0  0  2  0  0  0  0  0  0  0  0  0
  152.0597  139.6536  158.3119 C   0  0  0  0  0  0  0  0  0  0  0  0
  150.8534  141.6277  157.1522 C   0  0  2  0  0  0  0  0  0  0  0  0
  150.2494  142.1114  155.8191 C   0  0  0  0  0  0  0  0  0  0  0  0
  151.5821  142.7132  157.7978 N   0  0  0  0  0  0  0  0  0  0  0  0
  151.7437  144.0108  157.3575 C   0  0  0  0  0  0  0  0  0  0  0  0
  152.4903  144.6702  158.2914 C   0  0  0  0  0  0  0  0  0  0  0  0
  152.7437  143.6804  159.2813 C   0  0  0  0  0  0  0  0  0  0  0  0
  152.1988  142.5119  158.9849 N   0  0  0  0  0  0  0  0  0  0  0  0
  151.0354  137.7849  154.2955 C   0  0  0  0  0  0  0  0  0  0  0  0
  150.2467  138.0011  153.2395 N   0  0  0  0  0  0  0  0  0  0  0  0
  151.2032  136.6591  154.7615 O   0  0  0  0  0  0  0  0  0  0  0  0
  153.7174  138.4205  154.2707 H   0  0  0  0  0  0  0  0  0  0  0  0
  153.3758  138.0390  155.9570 H   0  0  0  0  0  0  0  0  0  0  0  0
  153.7196  139.6955  155.4706 H   0  0  0  0  0  0  0  0  0  0  0  0
  151.6108  139.8204  154.1826 H   0  0  0  0  0  0  0  0  0  0  0  0
  150.7380  138.5962  156.6938 H   0  0  0  0  0  0  0  0  0  0  0  0
  152.6683  140.6517  156.5109 H   0  0  0  0  0  0  0  0  0  0  0  0
  152.6764  140.2816  158.9548 H   0  0  0  0  0  0  0  0  0  0  0  0
  152.6151  138.7299  158.1483 H   0  0  0  0  0  0  0  0  0  0  0  0
  151.1540  139.4017  158.8647 H   0  0  0  0  0  0  0  0  0  0  0  0
  150.0235  141.3802  157.8166 H   0  0  0  0  0  0  0  0  0  0  0  0
  149.5936  141.3578  155.3831 H   0  0  0  0  0  0  0  0  0  0  0  0
  151.0247  142.3368  155.0862 H   0  0  0  0  0  0  0  0  0  0  0  0
  149.6546  143.0139  155.9631 H   0  0  0  0  0  0  0  0  0  0  0  0
  151.3164  144.3542  156.4270 H   0  0  0  0  0  0  0  0  0  0  0  0
  152.8067  145.7026  158.2708 H   0  0  0  0  0  0  0  0  0  0  0  0
  153.3023  143.7757  160.2006 H   0  0  0  0  0  0  0  0  0  0  0  0
  149.7808  137.2243  152.7936 H   0  0  0  0  0  0  0  0  0  0  0  0
  150.1226  138.9400  152.8899 H   0  0  0  0  0  0  0  0  0  0  0  0
  1  2  1  0  0  0  0
  1 16  1  0  0  0  0
  1 17  1  0  0  0  0
  1 18  1  0  0  0  0
  2  3  1  0  0  0  0
  2 13  1  0  0  0  0
  2 19  1  0  0  0  0
  3  4  1  0  0  0  0
  3 20  1  0  0  0  0
  4  5  1  0  0  0  0
  4  6  1  0  0  0  0
  4 21  1  0  0  0  0
  5 22  1  0  0  0  0
  5 23  1  0  0  0  0
  5 24  1  0  0  0  0
  6  7  1  0  0  0  0
  6  8  1  0  0  0  0
  6 25  1  0  0  0  0
  7 26  1  0  0  0  0
  7 27  1  0  0  0  0
  7 28  1  0  0  0  0
  8 12  1  0  0  0  0
  8  9  1  0  0  0  0
  9 10  2  0  0  0  0
  9 29  1  0  0  0  0
 10 11  1  0  0  0  0
 10 30  1  0  0  0  0
 11 12  2  0  0  0  0
 11 31  1  0  0  0  0
 13 14  1  0  0  0  0
 13 15  2  0  0  0  0
 14 32  1  0  0  0  0
 14 33  1  0  0  0  0
M  END
> <s_m_source_file>
AV-unprocessed.smi

> <i_m_source_file_index>
3116

> <i_lp_mmshare_version>
43012

> <i_f3d_flags>
0

> <s_epik_input>
W05IMl1DKD1PKVtDQEhdKFtDSDNdKVtOSF1bQ0BIXShbQ0gzXSlbQ0BIXShbQ0gzXSluMVtjSF1bY0hdW2NIXW4x

> <s_epik_cmdline>
J2VwaWtfcHl0aG9uJywgJy1waCcsICc3LjAnLCAnLXRuJywgJzgnLCAnLW1hJywgJzIwMCcsICctbWV0YWxfYmluZGluZycsICctaW1hZScsICc8aW5maWxlLm1hZT4nLCAnLW9tYWUnLCAnPG91dGZpbGUubWFlPic=

> <r_lp_tautomer_probability>
1

> <r_epik_Ionization_Penalty>
0.865977

> <r_epik_Ionization_Penalty_Charging>
0

> <r_epik_Ionization_Penalty_Neutral>
0.865977

> <r_epik_State_Penalty>
0.901888

> <r_epik_Charging_Adjusted_Penalty>
0.901888

> <i_epik_Tot_Q>
0

> <i_epik_Tot_abs_Q>
0

> <r_epik_Metal_State_Penalty>
0.901181

> <b_epik_Metal_Only>
0

> <s_lp_Force_Field>
OPLS_2005

> <r_lp_Energy>
9.43225

> <b_lp_Chiralities_Consistent>
1

> <s_lp_Variant>
AV-unprocessed.smi:3116-9

> <Gold.Version>
5.8.1

> <Gold.Id.Protein>
6NUR|6NUR_protein|mol2

> <Gold.PLP.Fitness>
41.7836

> <Gold.PLP.PLP>
-33.1848

> <Gold.PLP.part.hbond>
-4.0000

> <Gold.PLP.part.metal>
0.0000

> <Gold.PLP.part.buried>
2.8835

> <Gold.PLP.part.nonpolar>
-31.7655

> <Gold.PLP.part.repulsive>
0.2653

> <Gold.PLP.ligand.clash>
0.0000

> <Gold.PLP.ligand.torsion>
1.4067

> <Gold.PLP.Chemscore.Hbond>
2.7520

> <Gold.PLP.Chemscore.CHOScore>
1.0000

> <Gold.PLP.Chemscore.Metal>
0.0000

> <Gold.Chemscore.Hbonds>
donor molecule, donor type, donor heavy atom, donor atom, acceptor molecule, acceptor atom, score
      L1  H    14    32       P1  7948  1.00
      L1  H    14    33       P1  7957  0.70
      P1  H 10752 10763       L1    15  0.99
      L1  C     9    29       P1  8028  0.97

> <Gold.PLP.Chemscore.Internal.Correction>
0.1562

> <Gold.Rescore>
     Score         DG    S(hbond)    S(metal)    S(lipo)     H(rot)  DE(clash)    DE(int)     intcor
     12.72     -16.42       2.12        0.00      85.11       2.38       1.19       2.51       ----

> <Gold.Chemscore.Fitness>
12.7150

> <Gold.Chemscore.DG>
-16.4153

> <Gold.Chemscore.ZeroCoef>
-5.4800

> <Gold.Chemscore.Hbond>
2.1195

> <Gold.Chemscore.Metal>
0.0000

> <Gold.Chemscore.Lipo>
85.1136

> <Gold.Chemscore.Internal_Hbond>
0.0000

> <Gold.Chemscore.DEClash>
1.1921

> <Gold.Chemscore.DEInternal>
2.5082

> <Gold.Chemscore.Rot>
2.3836

> <Gold.Chemscore.Internal.Correction>
   9.000000E+99

> <Gold.Chemscore.Hbonds>
donor molecule, donor type, donor heavy atom, donor atom, acceptor molecule, acceptor atom, score
      L1  H    14    32       P1  7948  0.24
      L1  H    14    33       P1  7957  0.48
      P1  H 10752 10763       L1    15  0.91

> <Gold.Chemscore.Hbond.Weighted>
-7.0790

> <Gold.Chemscore.Metal.Weighted>
-0.0000

> <Gold.Chemscore.Lipo.Weighted>
-9.9583

> <Gold.Chemscore.Internal_Hbond.Weighted>
0.0000

> <Gold.Chemscore.DEClash.Weighted>
1.1921

> <Gold.Chemscore.DEInternal.Weighted>
2.5082

> <Gold.Chemscore.Rot.Weighted>
6.1020

> <Gold.Chemscore.Internal.Correction.Weighted>
   9.000000E+99

> <Gold.Protein.RotatedTorsions>
[ 6907 6896 6895 6894 ] final -171.17 input  -60.11 | X-H torsion
[ 7974 7965 7964 7962 ] final -176.90 input  175.53 | X-H torsion
[ 8008 7997 7996 7995 ] final   89.52 input   59.86 | X-H torsion
[ 10167 10162 10161 10158 ] final  119.93 input  -65.29 | X-H torsion
[ 10718 10713 10712 10709 ] final    6.09 input   66.30 | X-H torsion
[ 10763 10752 10751 10750 ] final   50.06 input  -60.55 | X-H torsion
[ 11005 11000 10999 10996 ] final   55.64 input  -57.11 | X-H torsion

> <Gold.Protein.ActiveResidues>
 VAL166  LYS551  ARG553  GLY616  TRP617  ASP618  TYR619  PRO620  LYS621  CYS622 
 ASP623  PHE694  ASN695  SER759  ASP760  ASP761  ALA762  ILE779  LEU786  VAL792 
 PHE793  MET794  SER795  GLU796  ALA797  LYS798  CYS799  TRP800  GLU811  SER814 

> <Gold.Protein.RotatedAtoms>
  151.5195  133.3469  159.2898 H   0  0  0  0  0  0  0  0  0  0  0  0  # atno 6907 bound_to 6896
  150.8661  134.8027  159.7131 H   0  0  0  0  0  0  0  0  0  0  0  0  # atno 6908 bound_to 6896
  152.4665  134.5072  159.9794 H   0  0  0  0  0  0  0  0  0  0  0  0  # atno 6909 bound_to 6896
  144.7127  140.1101  143.6411 H   0  0  0  0  0  0  0  0  0  0  0  0  # atno 7974 bound_to 7965
  156.0009  140.3360  155.6845 H   0  0  0  0  0  0  0  0  0  0  0  0  # atno 8008 bound_to 7997
  155.6291  140.0683  157.2672 H   0  0  0  0  0  0  0  0  0  0  0  0  # atno 8009 bound_to 7997
  154.4249  140.1763  156.1441 H   0  0  0  0  0  0  0  0  0  0  0  0  # atno 8010 bound_to 7997
  139.6014  144.7058  151.3054 H   0  0  0  0  0  0  0  0  0  0  0  0  # atno 10167 bound_to 10162
  156.9170  130.5777  149.5647 H   0  0  0  0  0  0  0  0  0  0  0  0  # atno 10718 bound_to 10713
  152.9785  135.5891  154.4190 H   0  0  0  0  0  0  0  0  0  0  0  0  # atno 10763 bound_to 10752
  154.3817  135.2767  155.2209 H   0  0  0  0  0  0  0  0  0  0  0  0  # atno 10764 bound_to 10752
  154.4120  135.6079  153.6013 H   0  0  0  0  0  0  0  0  0  0  0  0  # atno 10765 bound_to 10752
  140.0591  134.5627  155.9173 H   0  0  0  0  0  0  0  0  0  0  0  0  # atno 11005 bound_to 11000
  145.9462  139.2702  143.1239 LP  0  0  0  0  0  0  0  0  0  0  0  0  # atno 17320 bound_to 7965
  145.9371  140.9006  143.0326 LP  0  0  0  0  0  0  0  0  0  0  0  0  # atno 17321 bound_to 7965
  140.7252  143.7023  150.7835 LP  0  0  0  0  0  0  0  0  0  0  0  0  # atno 17342 bound_to 10162
  140.0600  143.5164  152.2632 LP  0  0  0  0  0  0  0  0  0  0  0  0  # atno 17343 bound_to 10162
  156.0509  130.5578  150.8986 LP  0  0  0  0  0  0  0  0  0  0  0  0  # atno 17370 bound_to 10713
  157.5931  131.0944  150.9085 LP  0  0  0  0  0  0  0  0  0  0  0  0  # atno 17371 bound_to 10713
  141.1965  133.6592  156.5696 LP  0  0  0  0  0  0  0  0  0  0  0  0  # atno 17394 bound_to 11000
  140.3798  134.7534  157.4653 LP  0  0  0  0  0  0  0  0  0  0  0  0  # atno 17395 bound_to 11000

$$$$
