AV-unprocessed.smi:2448|AV-procd|sdf|9658|dock2
  -GOLD-   2272013293D 1   1.00000     0.00000
 Structure written by MMmdl.
 38 39  0  0  0  0  0  0  0  0  2 V2000
  151.3062  141.8189  158.7043 O   0  0  0  0  0  0  0  0  0  0  0  0
  151.1761  143.1276  158.1753 C   0  0  2  0  0  0  0  0  0  0  0  0
  150.7838  143.0060  156.6900 C   0  0  0  0  0  0  0  0  0  0  0  0
  149.4084  142.4843  156.5250 N   0  3  0  0  0  0  0  0  0  0  0  0
  149.2812  141.3172  155.6206 C   0  0  1  0  0  0  0  0  0  0  0  0
  149.6471  140.0075  156.3549 C   0  0  0  0  0  0  0  0  0  0  0  0
  150.5493  139.0919  155.5474 C   0  0  0  0  0  0  0  0  0  0  0  0
  150.0306  137.9401  154.9208 C   0  0  0  0  0  0  0  0  0  0  0  0
  150.9055  137.1374  154.1610 C   0  0  0  0  0  0  0  0  0  0  0  0
  152.2167  137.4175  154.0005 N   0  0  0  0  0  0  0  0  0  0  0  0
  152.7081  138.5184  154.6086 C   0  0  0  0  0  0  0  0  0  0  0  0
  151.9194  139.3870  155.3891 C   0  0  0  0  0  0  0  0  0  0  0  0
  147.8556  141.2638  155.0384 C   0  0  0  0  0  0  0  0  0  0  0  0
  146.9660  141.2796  156.0312 F   0  0  0  0  0  0  0  0  0  0  0  0
  147.6351  142.3233  154.2606 F   0  0  0  0  0  0  0  0  0  0  0  0
  147.6808  140.1530  154.3218 F   0  0  0  0  0  0  0  0  0  0  0  0
  152.5228  143.8463  158.3608 C   0  0  0  0  0  0  0  0  0  0  0  0
  152.6659  144.1983  159.8450 C   0  0  0  0  0  0  0  0  0  0  0  0
  151.0117  144.5702  160.4791 S   0  0  0  0  0  0  0  0  0  0  0  0
  150.1616  143.9265  159.0133 C   0  0  0  0  0  0  0  0  0  0  0  0
  150.8456  141.2160  158.1402 H   0  0  0  0  0  0  0  0  0  0  0  0
  150.8442  143.9807  156.2037 H   0  0  0  0  0  0  0  0  0  0  0  0
  151.4937  142.3573  156.1768 H   0  0  0  0  0  0  0  0  0  0  0  0
  149.0423  142.2307  157.4317 H   0  0  0  0  0  0  0  0  0  0  0  0
  149.9653  141.4475  154.7799 H   0  0  0  0  0  0  0  0  0  0  0  0
  150.1271  140.2327  157.3081 H   0  0  0  0  0  0  0  0  0  0  0  0
  148.7402  139.4532  156.5993 H   0  0  0  0  0  0  0  0  0  0  0  0
  148.9872  137.6764  155.0137 H   0  0  0  0  0  0  0  0  0  0  0  0
  150.5410  136.2502  153.6651 H   0  0  0  0  0  0  0  0  0  0  0  0
  153.7597  138.7169  154.4645 H   0  0  0  0  0  0  0  0  0  0  0  0
  152.3605  140.2595  155.8489 H   0  0  0  0  0  0  0  0  0  0  0  0
  153.3654  143.2529  158.0035 H   0  0  0  0  0  0  0  0  0  0  0  0
  152.5216  144.7714  157.7825 H   0  0  0  0  0  0  0  0  0  0  0  0
  153.0572  143.3438  160.3979 H   0  0  0  0  0  0  0  0  0  0  0  0
  153.3447  145.0360  160.0057 H   0  0  0  0  0  0  0  0  0  0  0  0
  149.8029  144.7858  158.4459 H   0  0  0  0  0  0  0  0  0  0  0  0
  149.2889  143.3363  159.2958 H   0  0  0  0  0  0  0  0  0  0  0  0
  148.8420  143.2331  156.1521 H   0  0  0  0  0  0  0  0  0  0  0  0
  1  2  1  0  0  0  0
  1 21  1  0  0  0  0
  2 20  1  0  0  0  0
  2  3  1  0  0  0  0
  2 17  1  0  0  0  0
  3  4  1  0  0  0  0
  3 22  1  0  0  0  0
  3 23  1  0  0  0  0
  4  5  1  0  0  0  0
  4 24  1  0  0  0  0
  4 38  1  0  0  0  0
  5  6  1  0  0  0  0
  5 13  1  0  0  0  0
  5 25  1  0  0  0  0
  6  7  1  0  0  0  0
  6 26  1  0  0  0  0
  6 27  1  0  0  0  0
  7 12  1  0  0  0  0
  7  8  2  0  0  0  0
  8  9  1  0  0  0  0
  8 28  1  0  0  0  0
  9 10  2  0  0  0  0
  9 29  1  0  0  0  0
 10 11  1  0  0  0  0
 11 12  2  0  0  0  0
 11 30  1  0  0  0  0
 12 31  1  0  0  0  0
 13 14  1  0  0  0  0
 13 15  1  0  0  0  0
 13 16  1  0  0  0  0
 17 18  1  0  0  0  0
 17 32  1  0  0  0  0
 17 33  1  0  0  0  0
 18 19  1  0  0  0  0
 18 34  1  0  0  0  0
 18 35  1  0  0  0  0
 19 20  1  0  0  0  0
 20 36  1  0  0  0  0
 20 37  1  0  0  0  0
M  CHG  1   4   1
M  END
> <s_m_source_file>
AV-unprocessed.smi

> <i_m_source_file_index>
2448

> <i_lp_mmshare_version>
43012

> <i_f3d_flags>
0

> <s_epik_input>
W0NIMl0xU1tDSDJdW0NIMl1bQ0BAXTEoW09IXSlbQ0gyXVtOSF1bQ0BASF0oQyhGKShGKUYpW0NIMl1jMltjSF1bY0hdbltjSF1bY0hdMg==

> <s_epik_cmdline>
J2VwaWtfcHl0aG9uJywgJy1waCcsICc3LjAnLCAnLXRuJywgJzgnLCAnLW1hJywgJzIwMCcsICctbWV0YWxfYmluZGluZycsICctaW1hZScsICc8aW5maWxlLm1hZT4nLCAnLW9tYWUnLCAnPG91dGZpbGUubWFlPic=

> <r_epik_Ionization_Penalty>
1.19945

> <r_epik_Ionization_Penalty_Charging>
1.19892

> <r_epik_Ionization_Penalty_Neutral>
0.000532129

> <r_epik_State_Penalty>
0.752927

> <r_epik_Charging_Adjusted_Penalty>
1.95185

> <i_epik_Tot_Q>
1

> <i_epik_Tot_abs_Q>
1

> <r_epik_Metal_State_Penalty>
0.804507

> <b_epik_Metal_Only>
0

> <s_lp_Force_Field>
OPLS_2005

> <r_lp_Energy>
23.5245

> <b_lp_Chiralities_Consistent>
1

> <s_lp_Variant>
AV-unprocessed.smi:2448-8

> <Gold.Version>
5.8.1

> <Gold.Id.Protein>
6NUR|6NUR_protein|mol2

> <Gold.PLP.Fitness>
43.1658

> <Gold.PLP.PLP>
-36.5477

> <Gold.PLP.part.hbond>
-1.5301

> <Gold.PLP.part.metal>
0.0000

> <Gold.PLP.part.buried>
-1.0536

> <Gold.PLP.part.nonpolar>
-36.1518

> <Gold.PLP.part.repulsive>
0.1865

> <Gold.PLP.ligand.clash>
0.0000

> <Gold.PLP.ligand.torsion>
1.5570

> <Gold.PLP.Chemscore.Hbond>
2.2880

> <Gold.PLP.Chemscore.CHOScore>
0.6496

> <Gold.PLP.Chemscore.Metal>
0.0000

> <Gold.Chemscore.Hbonds>
donor molecule, donor type, donor heavy atom, donor atom, acceptor molecule, acceptor atom, score
      L1  H     4    38       P1  8028  1.76
      P1  H 10752 10765       L1    10  0.85
      L1  C     9    29       P1  7948  0.22
      L1  C     9    29       P1  7949  0.30

> <Gold.PLP.Chemscore.Internal.Correction>
0.9193

> <Gold.Rescore>
     Score         DG    S(hbond)    S(metal)    S(lipo)     H(rot)  DE(clash)    DE(int)     intcor
     14.34     -17.51       1.47        0.00     113.05       2.39       1.61       1.55       ----

> <Gold.Chemscore.Fitness>
14.3446

> <Gold.Chemscore.DG>
-17.5074

> <Gold.Chemscore.ZeroCoef>
-5.4800

> <Gold.Chemscore.Hbond>
1.4700

> <Gold.Chemscore.Metal>
0.0000

> <Gold.Chemscore.Lipo>
113.0539

> <Gold.Chemscore.Internal_Hbond>
0.0000

> <Gold.Chemscore.DEClash>
1.6133

> <Gold.Chemscore.DEInternal>
1.5495

> <Gold.Chemscore.Rot>
2.3866

> <Gold.Chemscore.Internal.Correction>
   9.000000E+99

> <Gold.Chemscore.Hbonds>
donor molecule, donor type, donor heavy atom, donor atom, acceptor molecule, acceptor atom, score
      L1  H     4    38       P1  8028  0.83
      P1  H 10752 10765       L1    10  0.46

> <Gold.Chemscore.Hbond.Weighted>
-4.9098

> <Gold.Chemscore.Metal.Weighted>
-0.0000

> <Gold.Chemscore.Lipo.Weighted>
-13.2273

> <Gold.Chemscore.Internal_Hbond.Weighted>
0.0000

> <Gold.Chemscore.DEClash.Weighted>
1.6133

> <Gold.Chemscore.DEInternal.Weighted>
1.5495

> <Gold.Chemscore.Rot.Weighted>
6.1096

> <Gold.Chemscore.Internal.Correction.Weighted>
   9.000000E+99

> <Gold.Protein.RotatedTorsions>
[ 6907 6896 6895 6894 ] final -169.44 input  -60.11 | X-H torsion
[ 7974 7965 7964 7962 ] final  -52.01 input  175.53 | X-H torsion
[ 8008 7997 7996 7995 ] final  -56.31 input   59.86 | X-H torsion
[ 10167 10162 10161 10158 ] final  -61.93 input  -65.29 | X-H torsion
[ 10718 10713 10712 10709 ] final  136.44 input   66.30 | X-H torsion
[ 10763 10752 10751 10750 ] final  139.45 input  -60.55 | X-H torsion
[ 11005 11000 10999 10996 ] final  -52.62 input  -57.11 | X-H torsion

> <Gold.Protein.ActiveResidues>
 VAL166  LYS551  ARG553  GLY616  TRP617  ASP618  TYR619  PRO620  LYS621  CYS622 
 ASP623  PHE694  ASN695  SER759  ASP760  ASP761  ALA762  ILE779  LEU786  VAL792 
 PHE793  MET794  SER795  GLU796  ALA797  LYS798  CYS799  TRP800  GLU811  SER814 

> <Gold.Protein.RotatedAtoms>
  151.4916  133.3523  159.2854 H   0  0  0  0  0  0  0  0  0  0  0  0  # atno 6907 bound_to 6896
  150.8831  134.8227  159.7250 H   0  0  0  0  0  0  0  0  0  0  0  0  # atno 6908 bound_to 6896
  152.4775  134.4816  159.9719 H   0  0  0  0  0  0  0  0  0  0  0  0  # atno 6909 bound_to 6896
  145.9126  140.7902  142.9687 H   0  0  0  0  0  0  0  0  0  0  0  0  # atno 7974 bound_to 7965
  154.4226  140.1132  156.5617 H   0  0  0  0  0  0  0  0  0  0  0  0  # atno 8008 bound_to 7997
  155.6304  140.3495  155.4662 H   0  0  0  0  0  0  0  0  0  0  0  0  # atno 8009 bound_to 7997
  155.9952  140.1188  157.0589 H   0  0  0  0  0  0  0  0  0  0  0  0  # atno 8010 bound_to 7997
  140.5973  143.2353  151.6008 H   0  0  0  0  0  0  0  0  0  0  0  0  # atno 10167 bound_to 10162
  157.4466  131.1062  151.0082 H   0  0  0  0  0  0  0  0  0  0  0  0  # atno 10718 bound_to 10713
  153.9063  135.3016  155.3448 H   0  0  0  0  0  0  0  0  0  0  0  0  # atno 10763 bound_to 10752
  154.7645  135.4917  153.9531 H   0  0  0  0  0  0  0  0  0  0  0  0  # atno 10764 bound_to 10752
  153.1217  135.6784  153.9425 H   0  0  0  0  0  0  0  0  0  0  0  0  # atno 10765 bound_to 10752
  141.0934  133.6628  156.4052 H   0  0  0  0  0  0  0  0  0  0  0  0  # atno 11005 bound_to 11000
  144.6745  140.1850  143.7402 LP  0  0  0  0  0  0  0  0  0  0  0  0  # atno 17320 bound_to 7965
  145.8652  139.2243  143.1693 LP  0  0  0  0  0  0  0  0  0  0  0  0  # atno 17321 bound_to 7965
  139.5267  144.3039  152.1050 LP  0  0  0  0  0  0  0  0  0  0  0  0  # atno 17342 bound_to 10162
  140.2214  144.4463  150.6340 LP  0  0  0  0  0  0  0  0  0  0  0  0  # atno 17343 bound_to 10162
  157.0926  130.5948  149.5443 LP  0  0  0  0  0  0  0  0  0  0  0  0  # atno 17370 bound_to 10713
  155.9970  130.5040  150.7517 LP  0  0  0  0  0  0  0  0  0  0  0  0  # atno 17371 bound_to 10713
  140.5198  134.6315  157.5314 LP  0  0  0  0  0  0  0  0  0  0  0  0  # atno 17394 bound_to 11000
  139.9765  134.7207  155.9940 LP  0  0  0  0  0  0  0  0  0  0  0  0  # atno 17395 bound_to 11000

$$$$
