AV-unprocessed.smi:1679|AV-procd|sdf|6732|dock4
  -GOLD-   22720 7473D 1   1.00000     0.00000
 Structure written by MMmdl.
 45 46  0  0  0  0  0  0  0  0  1 V2000
  151.8267  144.2320  160.6699 C   0  0  0  0  0  0  0  0  0  0  0  0
  152.7337  143.0541  160.2782 C   0  0  1  0  0  0  0  0  0  0  0  0
  153.3693  142.4184  161.5306 C   0  0  0  0  0  0  0  0  0  0  0  0
  154.2863  141.2419  161.1678 C   0  0  0  0  0  0  0  0  0  0  0  0
  153.5236  140.1825  160.3626 C   0  0  0  0  0  0  0  0  0  0  0  0
  152.8866  140.7964  159.1086 C   0  0  0  0  0  0  0  0  0  0  0  0
  151.9724  141.9962  159.4463 C   0  0  2  0  0  0  0  0  0  0  0  0
  151.5589  142.6269  158.2409 O   0  0  0  0  0  0  0  0  0  0  0  0
  150.4677  142.0035  157.5763 C   0  0  0  0  0  0  0  0  0  0  0  0
  150.7121  142.0741  156.0595 C   0  0  0  0  0  0  0  0  0  0  0  0
  149.4685  141.9350  155.3082 N   0  0  0  0  0  0  0  0  0  0  0  0
  149.1876  140.9548  154.4362 C   0  0  0  0  0  0  0  0  0  0  0  0
  149.9186  139.9832  154.2462 O   0  0  0  0  0  0  0  0  0  0  0  0
  147.8866  141.1074  153.6425 C   0  0  0  0  0  0  0  0  0  0  0  0
  146.8854  141.8460  154.4242 N   0  0  0  0  0  0  0  0  0  0  0  0
  146.2317  142.9327  153.8595 C   0  0  0  0  0  0  0  0  0  0  0  0
  145.2697  143.6405  154.4975 C   0  0  0  0  0  0  0  0  0  0  0  0
  144.8636  143.2797  155.8511 C   0  0  0  0  0  0  0  0  0  0  0  0
  143.9979  143.8531  156.5083 O   0  0  0  0  0  0  0  0  0  0  0  0
  145.5441  142.1826  156.3859 N   0  0  0  0  0  0  0  0  0  0  0  0
  146.5362  141.4484  155.7337 C   0  0  0  0  0  0  0  0  0  0  0  0
  147.0655  140.4914  156.2970 O   0  0  0  0  0  0  0  0  0  0  0  0
  145.2946  141.8933  157.3205 H   0  0  0  0  0  0  0  0  0  0  0  0
  150.9877  143.8995  161.2816 H   0  0  0  0  0  0  0  0  0  0  0  0
  151.4194  144.7308  159.7902 H   0  0  0  0  0  0  0  0  0  0  0  0
  152.3787  144.9790  161.2407 H   0  0  0  0  0  0  0  0  0  0  0  0
  153.5421  143.4499  159.6612 H   0  0  0  0  0  0  0  0  0  0  0  0
  153.9416  143.1673  162.0793 H   0  0  0  0  0  0  0  0  0  0  0  0
  152.5865  142.0727  162.2070 H   0  0  0  0  0  0  0  0  0  0  0  0
  155.1363  141.6036  160.5882 H   0  0  0  0  0  0  0  0  0  0  0  0
  154.6966  140.7959  162.0741 H   0  0  0  0  0  0  0  0  0  0  0  0
  154.1993  139.3757  160.0769 H   0  0  0  0  0  0  0  0  0  0  0  0
  152.7486  139.7340  160.9854 H   0  0  0  0  0  0  0  0  0  0  0  0
  153.6733  141.1281  158.4339 H   0  0  0  0  0  0  0  0  0  0  0  0
  152.3384  140.0205  158.5756 H   0  0  0  0  0  0  0  0  0  0  0  0
  151.1026  141.6567  160.0119 H   0  0  0  0  0  0  0  0  0  0  0  0
  150.3520  140.9636  157.8785 H   0  0  0  0  0  0  0  0  0  0  0  0
  149.5395  142.5123  157.8389 H   0  0  0  0  0  0  0  0  0  0  0  0
  151.2089  143.0081  155.7937 H   0  0  0  0  0  0  0  0  0  0  0  0
  151.3776  141.2653  155.7570 H   0  0  0  0  0  0  0  0  0  0  0  0
  148.8007  142.6868  155.4002 H   0  0  0  0  0  0  0  0  0  0  0  0
  148.0977  141.6090  152.6963 H   0  0  0  0  0  0  0  0  0  0  0  0
  147.5014  140.1250  153.3628 H   0  0  0  0  0  0  0  0  0  0  0  0
  146.4940  143.2299  152.8539 H   0  0  0  0  0  0  0  0  0  0  0  0
  144.7945  144.4745  154.0013 H   0  0  0  0  0  0  0  0  0  0  0  0
  1  2  1  0  0  0  0
  1 24  1  0  0  0  0
  1 25  1  0  0  0  0
  1 26  1  0  0  0  0
  2  7  1  0  0  0  0
  2  3  1  0  0  0  0
  2 27  1  0  0  0  0
  3  4  1  0  0  0  0
  3 28  1  0  0  0  0
  3 29  1  0  0  0  0
  4  5  1  0  0  0  0
  4 30  1  0  0  0  0
  4 31  1  0  0  0  0
  5  6  1  0  0  0  0
  5 32  1  0  0  0  0
  5 33  1  0  0  0  0
  6  7  1  0  0  0  0
  6 34  1  0  0  0  0
  6 35  1  0  0  0  0
  7  8  1  0  0  0  0
  7 36  1  0  0  0  0
  8  9  1  0  0  0  0
  9 10  1  0  0  0  0
  9 37  1  0  0  0  0
  9 38  1  0  0  0  0
 10 11  1  0  0  0  0
 10 39  1  0  0  0  0
 10 40  1  0  0  0  0
 11 12  1  0  0  0  0
 11 41  1  0  0  0  0
 12 13  2  0  0  0  0
 12 14  1  0  0  0  0
 14 15  1  0  0  0  0
 14 42  1  0  0  0  0
 14 43  1  0  0  0  0
 15 21  1  0  0  0  0
 15 16  1  0  0  0  0
 16 17  2  0  0  0  0
 16 44  1  0  0  0  0
 17 18  1  0  0  0  0
 17 45  1  0  0  0  0
 18 19  2  0  0  0  0
 18 20  1  0  0  0  0
 20 23  1  0  0  0  0
 20 21  1  0  0  0  0
 21 22  2  0  0  0  0
M  END
> <s_m_source_file>
AV-unprocessed.smi

> <i_m_source_file_index>
1679

> <i_lp_mmshare_version>
43012

> <i_f3d_flags>
0

> <s_epik_input>
W0NIM11bQ0BASF0xW0NIMl1bQ0gyXVtDSDJdW0NIMl1bQ0BIXTFPW0NIMl1bQ0gyXVtOSF1DKD1PKVtDSDJdbjJbY0hdW2NIXWMoPU8pW25IXWMyPU8=

> <s_epik_cmdline>
J2VwaWtfcHl0aG9uJywgJy1waCcsICc3LjAnLCAnLXRuJywgJzgnLCAnLW1hJywgJzIwMCcsICctbWV0YWxfYmluZGluZycsICctaW1hZScsICc8aW5maWxlLm1hZT4nLCAnLW9tYWUnLCAnPG91dGZpbGUubWFlPic=

> <r_lp_tautomer_probability>
0.999537

> <r_epik_Ionization_Penalty>
0.0033132

> <r_epik_Ionization_Penalty_Charging>
0.00331317

> <r_epik_Ionization_Penalty_Neutral>
2.78599e-08

> <r_epik_State_Penalty>
0.002342

> <r_epik_Charging_Adjusted_Penalty>
0.00565517

> <i_epik_Tot_Q>
0

> <i_epik_Tot_abs_Q>
0

> <r_epik_Metal_State_Penalty>
0.365595

> <b_epik_Metal_Only>
0

> <s_lp_Force_Field>
OPLS_2005

> <r_lp_Energy>
10.1003

> <b_lp_Chiralities_Consistent>
1

> <s_lp_Variant>
AV-unprocessed.smi:1679-4

> <Gold.Version>
5.8.1

> <Gold.Id.Protein>
6NUR|6NUR_protein|mol2

> <Gold.PLP.Fitness>
49.2889

> <Gold.PLP.PLP>
-46.0174

> <Gold.PLP.part.hbond>
-2.0000

> <Gold.PLP.part.metal>
0.0000

> <Gold.PLP.part.buried>
-6.9613

> <Gold.PLP.part.nonpolar>
-37.5259

> <Gold.PLP.part.repulsive>
0.9161

> <Gold.PLP.ligand.clash>
0.0000

> <Gold.PLP.ligand.torsion>
1.0298

> <Gold.PLP.Chemscore.Hbond>
1.7280

> <Gold.PLP.Chemscore.CHOScore>
0.0000

> <Gold.PLP.Chemscore.Metal>
0.0000

> <Gold.Chemscore.Hbonds>
donor molecule, donor type, donor heavy atom, donor atom, acceptor molecule, acceptor atom, score
      L1  H    11    41       P1  8028  0.72
      P1  H  7989  7998       L1    13  0.90

> <Gold.PLP.Chemscore.Internal.Correction>
0.1471

> <Gold.Rescore>
     Score         DG    S(hbond)    S(metal)    S(lipo)     H(rot)  DE(clash)    DE(int)     intcor
     12.88     -13.95       0.74        0.00     106.45       2.52       0.11       0.97       ----

> <Gold.Chemscore.Fitness>
12.8773

> <Gold.Chemscore.DG>
-13.9529

> <Gold.Chemscore.ZeroCoef>
-5.4800

> <Gold.Chemscore.Hbond>
0.7383

> <Gold.Chemscore.Metal>
0.0000

> <Gold.Chemscore.Lipo>
106.4471

> <Gold.Chemscore.Internal_Hbond>
0.0000

> <Gold.Chemscore.DEClash>
0.1066

> <Gold.Chemscore.DEInternal>
0.9690

> <Gold.Chemscore.Rot>
2.5185

> <Gold.Chemscore.Internal.Correction>
   9.000000E+99

> <Gold.Chemscore.Hbonds>
donor molecule, donor type, donor heavy atom, donor atom, acceptor molecule, acceptor atom, score
      L1  H    11    41       P1  8028  0.67
      P1  H  7989  7998       L1    13  0.29

> <Gold.Chemscore.Hbond.Weighted>
-2.4658

> <Gold.Chemscore.Metal.Weighted>
-0.0000

> <Gold.Chemscore.Lipo.Weighted>
-12.4543

> <Gold.Chemscore.Internal_Hbond.Weighted>
0.0000

> <Gold.Chemscore.DEClash.Weighted>
0.1066

> <Gold.Chemscore.DEInternal.Weighted>
0.9690

> <Gold.Chemscore.Rot.Weighted>
6.4472

> <Gold.Chemscore.Internal.Correction.Weighted>
   9.000000E+99

> <Gold.Protein.RotatedTorsions>
[ 6907 6896 6895 6894 ] final  -39.50 input  -60.11 | X-H torsion
[ 7974 7965 7964 7962 ] final  -93.02 input  175.53 | X-H torsion
[ 8008 7997 7996 7995 ] final  -31.43 input   59.86 | X-H torsion
[ 10167 10162 10161 10158 ] final   99.43 input  -65.29 | X-H torsion
[ 10718 10713 10712 10709 ] final   91.65 input   66.30 | X-H torsion
[ 10763 10752 10751 10750 ] final  179.56 input  -60.55 | X-H torsion
[ 11005 11000 10999 10996 ] final   45.12 input  -57.11 | X-H torsion

> <Gold.Protein.ActiveResidues>
 VAL166  LYS551  ARG553  GLY616  TRP617  ASP618  TYR619  PRO620  LYS621  CYS622 
 ASP623  PHE694  ASN695  SER759  ASP760  ASP761  ALA762  ILE779  LEU786  VAL792 
 PHE793  MET794  SER795  GLU796  ALA797  LYS798  CYS799  TRP800  GLU811  SER814 

> <Gold.Protein.RotatedAtoms>
  150.9896  134.9234  159.7891 H   0  0  0  0  0  0  0  0  0  0  0  0  # atno 6907 bound_to 6896
  152.5247  134.3300  159.9189 H   0  0  0  0  0  0  0  0  0  0  0  0  # atno 6908 bound_to 6896
  151.3306  133.3961  159.2696 H   0  0  0  0  0  0  0  0  0  0  0  0  # atno 6909 bound_to 6896
  145.3921  140.9529  143.2335 H   0  0  0  0  0  0  0  0  0  0  0  0  # atno 7974 bound_to 7965
  154.4214  140.1764  156.1565 H   0  0  0  0  0  0  0  0  0  0  0  0  # atno 8008 bound_to 7997
  155.9873  140.3372  155.6695 H   0  0  0  0  0  0  0  0  0  0  0  0  # atno 8009 bound_to 7997
  155.6420  140.0681  157.2606 H   0  0  0  0  0  0  0  0  0  0  0  0  # atno 8010 bound_to 7997
  139.7618  144.6952  151.0281 H   0  0  0  0  0  0  0  0  0  0  0  0  # atno 10167 bound_to 10162
  157.6960  131.0415  150.3762 H   0  0  0  0  0  0  0  0  0  0  0  0  # atno 10718 bound_to 10713
  154.5223  135.2794  155.1252 H   0  0  0  0  0  0  0  0  0  0  0  0  # atno 10763 bound_to 10752
  154.2805  135.6286  153.5349 H   0  0  0  0  0  0  0  0  0  0  0  0  # atno 10764 bound_to 10752
  152.9939  135.5650  154.5715 H   0  0  0  0  0  0  0  0  0  0  0  0  # atno 10765 bound_to 10752
  140.1488  134.4488  155.8396 H   0  0  0  0  0  0  0  0  0  0  0  0  # atno 11005 bound_to 11000
  144.8433  139.5437  143.6890 LP  0  0  0  0  0  0  0  0  0  0  0  0  # atno 17320 bound_to 7965
  146.2793  139.6834  142.9241 LP  0  0  0  0  0  0  0  0  0  0  0  0  # atno 17321 bound_to 7965
  140.7808  143.4688  151.0175 LP  0  0  0  0  0  0  0  0  0  0  0  0  # atno 17342 bound_to 10162
  139.8374  143.7609  152.3180 LP  0  0  0  0  0  0  0  0  0  0  0  0  # atno 17343 bound_to 10162
  156.4181  130.3947  149.6844 LP  0  0  0  0  0  0  0  0  0  0  0  0  # atno 17370 bound_to 10713
  156.4104  130.7719  151.2732 LP  0  0  0  0  0  0  0  0  0  0  0  0  # atno 17371 bound_to 10713
  141.2196  133.6864  156.7384 LP  0  0  0  0  0  0  0  0  0  0  0  0  # atno 17394 bound_to 11000
  140.2630  134.8452  157.3776 LP  0  0  0  0  0  0  0  0  0  0  0  0  # atno 17395 bound_to 11000

$$$$
