AV-unprocessed.smi:3349|AV-procd|sdf|12937|dock4
  -GOLD-   2272019373D 1   1.00000     0.00000
 Structure written by MMmdl.
 41 42  0  0  0  0  0  0  0  0  2 V2000
  151.1343  145.3129  158.7763 C   0  0  0  0  0  0  0  0  0  0  0  0
  151.5884  143.8441  158.5935 C   0  0  2  0  0  0  0  0  0  0  0  0
  150.3494  142.9155  158.4355 C   0  0  0  0  0  0  0  0  0  0  0  0
  150.1195  142.4863  157.0585 N   0  0  0  0  0  0  0  0  0  0  0  0
  150.0516  141.2083  156.6513 C   0  0  0  0  0  0  0  0  0  0  0  0
  150.1847  140.2536  157.4178 O   0  0  0  0  0  0  0  0  0  0  0  0
  149.7973  140.9826  155.1531 C   0  0  1  0  0  0  0  0  0  0  0  0
  150.4558  139.6902  154.6291 C   0  0  0  0  0  0  0  0  0  0  0  0
  148.3675  141.0282  154.8728 N   0  0  0  0  0  0  0  0  0  0  0  0
  147.4725  141.9826  155.1374 C   0  0  0  0  0  0  0  0  0  0  0  0
  146.2331  141.6728  154.7837 N   0  0  0  0  0  0  0  0  0  0  0  0
  146.4461  140.4209  154.2806 C   0  0  0  0  0  0  0  0  0  0  0  0
  147.7038  139.9817  154.3208 N   0  0  0  0  0  0  0  0  0  0  0  0
  152.5012  143.4173  159.7071 N   0  3  0  0  0  0  0  0  0  0  0  0
  151.9121  143.5425  161.0704 C   0  0  0  0  0  0  0  0  0  0  0  0
  152.8959  143.0793  162.1585 C   0  0  0  0  0  0  0  0  0  0  0  0
  153.3009  141.7439  161.9059 O   0  0  0  0  0  0  0  0  0  0  0  0
  153.9857  141.6423  160.6680 C   0  0  0  0  0  0  0  0  0  0  0  0
  153.0418  142.0407  159.5218 C   0  0  0  0  0  0  0  0  0  0  0  0
  150.4192  145.6204  158.0139 H   0  0  0  0  0  0  0  0  0  0  0  0
  151.9597  146.0177  158.6914 H   0  0  0  0  0  0  0  0  0  0  0  0
  150.6604  145.4617  159.7469 H   0  0  0  0  0  0  0  0  0  0  0  0
  152.1637  143.7847  157.6682 H   0  0  0  0  0  0  0  0  0  0  0  0
  150.4453  142.0074  159.0303 H   0  0  0  0  0  0  0  0  0  0  0  0
  149.4516  143.4266  158.7847 H   0  0  0  0  0  0  0  0  0  0  0  0
  149.9982  143.2122  156.3669 H   0  0  0  0  0  0  0  0  0  0  0  0
  150.2546  141.8144  154.6145 H   0  0  0  0  0  0  0  0  0  0  0  0
  151.5325  139.7011  154.8016 H   0  0  0  0  0  0  0  0  0  0  0  0
  150.2993  139.5832  153.5554 H   0  0  0  0  0  0  0  0  0  0  0  0
  150.0541  138.7982  155.1109 H   0  0  0  0  0  0  0  0  0  0  0  0
  147.7319  142.9221  155.6026 H   0  0  0  0  0  0  0  0  0  0  0  0
  145.6493  139.8123  153.8790 H   0  0  0  0  0  0  0  0  0  0  0  0
  151.6617  144.5782  161.2939 H   0  0  0  0  0  0  0  0  0  0  0  0
  150.9902  142.9612  161.1261 H   0  0  0  0  0  0  0  0  0  0  0  0
  153.7664  143.7362  162.2027 H   0  0  0  0  0  0  0  0  0  0  0  0
  152.4177  143.1220  163.1375 H   0  0  0  0  0  0  0  0  0  0  0  0
  154.8796  142.2683  160.6751 H   0  0  0  0  0  0  0  0  0  0  0  0
  154.3204  140.6134  160.5353 H   0  0  0  0  0  0  0  0  0  0  0  0
  152.2160  141.3302  159.4591 H   0  0  0  0  0  0  0  0  0  0  0  0
  153.6059  141.9606  158.5950 H   0  0  0  0  0  0  0  0  0  0  0  0
  153.2928  144.0444  159.6862 H   0  0  0  0  0  0  0  0  0  0  0  0
  1  2  1  0  0  0  0
  1 20  1  0  0  0  0
  1 21  1  0  0  0  0
  1 22  1  0  0  0  0
  2  3  1  0  0  0  0
  2 14  1  0  0  0  0
  2 23  1  0  0  0  0
  3  4  1  0  0  0  0
  3 24  1  0  0  0  0
  3 25  1  0  0  0  0
  4  5  1  0  0  0  0
  4 26  1  0  0  0  0
  5  6  2  0  0  0  0
  5  7  1  0  0  0  0
  7  8  1  0  0  0  0
  7  9  1  0  0  0  0
  7 27  1  0  0  0  0
  8 28  1  0  0  0  0
  8 29  1  0  0  0  0
  8 30  1  0  0  0  0
  9 13  1  0  0  0  0
  9 10  1  0  0  0  0
 10 11  2  0  0  0  0
 10 31  1  0  0  0  0
 11 12  1  0  0  0  0
 12 13  2  0  0  0  0
 12 32  1  0  0  0  0
 14 19  1  0  0  0  0
 14 15  1  0  0  0  0
 14 41  1  0  0  0  0
 15 16  1  0  0  0  0
 15 33  1  0  0  0  0
 15 34  1  0  0  0  0
 16 17  1  0  0  0  0
 16 35  1  0  0  0  0
 16 36  1  0  0  0  0
 17 18  1  0  0  0  0
 18 19  1  0  0  0  0
 18 37  1  0  0  0  0
 18 38  1  0  0  0  0
 19 39  1  0  0  0  0
 19 40  1  0  0  0  0
M  CHG  1  14   1
M  END
> <s_m_source_file>
AV-unprocessed.smi

> <i_m_source_file_index>
3349

> <i_lp_mmshare_version>
43012

> <i_f3d_flags>
0

> <s_epik_input>
W0NIMl0xW0NIMl1PW0NIMl1bQ0gyXU4xW0NASF0oW0NIM10pW0NIMl1bTkhdQyg9TylbQ0BIXShbQ0gzXSluMltjSF1uW2NIXW4y

> <s_epik_cmdline>
J2VwaWtfcHl0aG9uJywgJy1waCcsICc3LjAnLCAnLXRuJywgJzgnLCAnLW1hJywgJzIwMCcsICctbWV0YWxfYmluZGluZycsICctaW1hZScsICc8aW5maWxlLm1hZT4nLCAnLW9tYWUnLCAnPG91dGZpbGUubWFlPic=

> <r_lp_tautomer_probability>
1

> <r_epik_Ionization_Penalty>
0.71326

> <r_epik_Ionization_Penalty_Charging>
0.713252

> <r_epik_Ionization_Penalty_Neutral>
8.10337e-06

> <r_epik_State_Penalty>
0.737017

> <r_epik_Charging_Adjusted_Penalty>
1.45027

> <i_epik_Tot_Q>
1

> <i_epik_Tot_abs_Q>
1

> <r_epik_Metal_State_Penalty>
0.73702

> <b_epik_Metal_Only>
0

> <s_lp_Force_Field>
OPLS_2005

> <r_lp_Energy>
26.6465

> <b_lp_Chiralities_Consistent>
1

> <s_lp_Variant>
AV-unprocessed.smi:3349-7

> <Gold.Version>
5.8.1

> <Gold.Id.Protein>
6NUR|6NUR_protein|mol2

> <Gold.PLP.Fitness>
43.7254

> <Gold.PLP.PLP>
-37.5761

> <Gold.PLP.part.hbond>
-1.0000

> <Gold.PLP.part.metal>
0.0000

> <Gold.PLP.part.buried>
-2.9654

> <Gold.PLP.part.nonpolar>
-33.8822

> <Gold.PLP.part.repulsive>
0.3369

> <Gold.PLP.ligand.clash>
0.0000

> <Gold.PLP.ligand.torsion>
1.4295

> <Gold.PLP.Chemscore.Hbond>
0.9440

> <Gold.PLP.Chemscore.CHOScore>
2.0000

> <Gold.PLP.Chemscore.Metal>
0.0000

> <Gold.Chemscore.Hbonds>
donor molecule, donor type, donor heavy atom, donor atom, acceptor molecule, acceptor atom, score
      L1  H     4    26       P1  8028  0.96
      L1  C    10    31       P1  8028  1.00
      L1  C    12    32       P1 10175  0.99

> <Gold.PLP.Chemscore.Internal.Correction>
0.1764

> <Gold.Rescore>
     Score         DG    S(hbond)    S(metal)    S(lipo)     H(rot)  DE(clash)    DE(int)     intcor
     10.85     -12.26       0.89        0.00      90.32       2.63       0.03       1.39       ----

> <Gold.Chemscore.Fitness>
10.8454

> <Gold.Chemscore.DG>
-12.2636

> <Gold.Chemscore.ZeroCoef>
-5.4800

> <Gold.Chemscore.Hbond>
0.8851

> <Gold.Chemscore.Metal>
0.0000

> <Gold.Chemscore.Lipo>
90.3230

> <Gold.Chemscore.Internal_Hbond>
0.0000

> <Gold.Chemscore.DEClash>
0.0293

> <Gold.Chemscore.DEInternal>
1.3889

> <Gold.Chemscore.Rot>
2.6329

> <Gold.Chemscore.Internal.Correction>
   9.000000E+99

> <Gold.Chemscore.Hbonds>
donor molecule, donor type, donor heavy atom, donor atom, acceptor molecule, acceptor atom, score
      L1  H     4    26       P1  8028  0.89

> <Gold.Chemscore.Hbond.Weighted>
-2.9561

> <Gold.Chemscore.Metal.Weighted>
-0.0000

> <Gold.Chemscore.Lipo.Weighted>
-10.5678

> <Gold.Chemscore.Internal_Hbond.Weighted>
0.0000

> <Gold.Chemscore.DEClash.Weighted>
0.0293

> <Gold.Chemscore.DEInternal.Weighted>
1.3889

> <Gold.Chemscore.Rot.Weighted>
6.7403

> <Gold.Chemscore.Internal.Correction.Weighted>
   9.000000E+99

> <Gold.Protein.RotatedTorsions>
[ 6907 6896 6895 6894 ] final   65.15 input  -60.11 | X-H torsion
[ 7974 7965 7964 7962 ] final  -50.20 input  175.53 | X-H torsion
[ 8008 7997 7996 7995 ] final  -30.65 input   59.86 | X-H torsion
[ 10167 10162 10161 10158 ] final    2.80 input  -65.29 | X-H torsion
[ 10718 10713 10712 10709 ] final  135.01 input   66.30 | X-H torsion
[ 10763 10752 10751 10750 ] final  -39.06 input  -60.55 | X-H torsion
[ 11005 11000 10999 10996 ] final  -49.90 input  -57.11 | X-H torsion

> <Gold.Protein.ActiveResidues>
 VAL166  LYS551  ARG553  GLY616  TRP617  ASP618  TYR619  PRO620  LYS621  CYS622 
 ASP623  PHE694  ASN695  SER759  ASP760  ASP761  ALA762  ILE779  LEU786  VAL792 
 PHE793  MET794  SER795  GLU796  ALA797  LYS798  CYS799  TRP800  GLU811  SER814 

> <Gold.Protein.RotatedAtoms>
  152.4385  134.5638  159.9901 H   0  0  0  0  0  0  0  0  0  0  0  0  # atno 6907 bound_to 6896
  151.5741  133.3380  159.3003 H   0  0  0  0  0  0  0  0  0  0  0  0  # atno 6908 bound_to 6896
  150.8287  134.7565  159.6899 H   0  0  0  0  0  0  0  0  0  0  0  0  # atno 6909 bound_to 6896
  145.9324  140.7737  142.9593 H   0  0  0  0  0  0  0  0  0  0  0  0  # atno 7974 bound_to 7965
  154.4242  140.1785  156.1441 H   0  0  0  0  0  0  0  0  0  0  0  0  # atno 8008 bound_to 7997
  155.9968  140.3364  155.6781 H   0  0  0  0  0  0  0  0  0  0  0  0  # atno 8009 bound_to 7997
  155.6298  140.0668  157.2643 H   0  0  0  0  0  0  0  0  0  0  0  0  # atno 8010 bound_to 7997
  140.6617  143.7286  150.7751 H   0  0  0  0  0  0  0  0  0  0  0  0  # atno 10167 bound_to 10162
  157.4614  131.1074  150.9915 H   0  0  0  0  0  0  0  0  0  0  0  0  # atno 10718 bound_to 10713
  153.9232  135.6780  153.4747 H   0  0  0  0  0  0  0  0  0  0  0  0  # atno 10763 bound_to 10752
  153.1017  135.4824  154.8877 H   0  0  0  0  0  0  0  0  0  0  0  0  # atno 10764 bound_to 10752
  154.7467  135.3174  154.8589 H   0  0  0  0  0  0  0  0  0  0  0  0  # atno 10765 bound_to 10752
  141.0786  133.6659  156.3653 H   0  0  0  0  0  0  0  0  0  0  0  0  # atno 11005 bound_to 11000
  144.6767  140.2148  143.7373 LP  0  0  0  0  0  0  0  0  0  0  0  0  # atno 17320 bound_to 7965
  145.8408  139.2129  143.1828 LP  0  0  0  0  0  0  0  0  0  0  0  0  # atno 17321 bound_to 7965
  140.0956  143.4836  152.2454 LP  0  0  0  0  0  0  0  0  0  0  0  0  # atno 17342 bound_to 10162
  139.5853  144.7528  151.3536 LP  0  0  0  0  0  0  0  0  0  0  0  0  # atno 17343 bound_to 10162
  157.0711  130.5864  149.5402 LP  0  0  0  0  0  0  0  0  0  0  0  0  # atno 17370 bound_to 10713
  156.0030  130.5113  150.7732 LP  0  0  0  0  0  0  0  0  0  0  0  0  # atno 17371 bound_to 10713
  140.5519  134.6019  157.5410 LP  0  0  0  0  0  0  0  0  0  0  0  0  # atno 17394 bound_to 11000
  139.9599  134.7471  156.0260 LP  0  0  0  0  0  0  0  0  0  0  0  0  # atno 17395 bound_to 11000

$$$$
