AV-unprocessed.smi:2032|AV-procd|sdf|8246|dock3
  -GOLD-   2272010513D 1   1.00000     0.00000
 Structure written by MMmdl.
 41 42  0  0  0  0  0  0  0  0  2 V2000
  153.0999  138.6753  154.6817 C   0  0  0  0  0  0  0  0  0  0  0  0
  151.6119  138.6063  154.3220 C   0  0  1  0  0  0  0  0  0  0  0  0
  150.8939  137.4463  155.0378 C   0  0  0  0  0  0  0  0  0  0  0  0
  149.4524  137.4112  154.7682 N   0  0  0  0  0  0  0  0  0  0  0  0
  148.7712  136.3013  155.4763 C   0  0  2  0  0  0  0  0  0  0  0  0
  149.4857  134.9397  155.2785 C   0  0  0  0  0  0  0  0  0  0  0  0
  147.2718  136.1479  155.0840 C   0  0  0  0  0  0  0  0  0  0  0  0
  147.0641  135.7933  153.6819 N   0  0  0  0  0  0  0  0  0  0  0  0
  146.1010  134.9915  153.2048 C   0  0  0  0  0  0  0  0  0  0  0  0
  145.2822  134.4863  153.9762 O   0  0  0  0  0  0  0  0  0  0  0  0
  146.1509  134.8228  151.8638 N   0  5  0  0  0  0  0  0  0  0  0  0
  145.3149  133.9622  151.2603 C   0  0  0  0  0  0  0  0  0  0  0  0
  145.7071  133.1146  150.3021 N   0  0  0  0  0  0  0  0  0  0  0  0
  144.6778  132.3011  149.8251 C   0  0  0  0  0  0  0  0  0  0  0  0
  143.4756  132.5281  150.4408 C   0  0  0  0  0  0  0  0  0  0  0  0
  143.6007  133.7799  151.6438 S   0  0  0  0  0  0  0  0  0  0  0  0
  148.8990  138.7266  155.1067 C   0  0  0  0  0  0  0  0  0  0  0  0
  149.6200  139.8828  154.3875 C   0  0  1  0  0  0  0  0  0  0  0  0
  149.0782  141.2534  154.8072 C   0  0  0  0  0  0  0  0  0  0  0  0
  151.0063  139.8360  154.6998 O   0  0  0  0  0  0  0  0  0  0  0  0
  153.6142  137.7547  154.4046 H   0  0  0  0  0  0  0  0  0  0  0  0
  153.2402  138.8283  155.7523 H   0  0  0  0  0  0  0  0  0  0  0  0
  153.5886  139.4988  154.1608 H   0  0  0  0  0  0  0  0  0  0  0  0
  151.5190  138.4820  153.2416 H   0  0  0  0  0  0  0  0  0  0  0  0
  151.3678  136.5251  154.7045 H   0  0  0  0  0  0  0  0  0  0  0  0
  151.0647  137.5193  156.1130 H   0  0  0  0  0  0  0  0  0  0  0  0
  148.8013  136.5211  156.5446 H   0  0  0  0  0  0  0  0  0  0  0  0
  148.9614  134.1197  155.7678 H   0  0  0  0  0  0  0  0  0  0  0  0
  150.4853  134.9290  155.7097 H   0  0  0  0  0  0  0  0  0  0  0  0
  149.5707  134.6898  154.2207 H   0  0  0  0  0  0  0  0  0  0  0  0
  146.7721  135.3817  155.6753 H   0  0  0  0  0  0  0  0  0  0  0  0
  146.7411  137.0806  155.2763 H   0  0  0  0  0  0  0  0  0  0  0  0
  147.7111  136.1848  153.0134 H   0  0  0  0  0  0  0  0  0  0  0  0
  144.8918  131.5841  149.0466 H   0  0  0  0  0  0  0  0  0  0  0  0
  142.5304  132.0381  150.2631 H   0  0  0  0  0  0  0  0  0  0  0  0
  147.8504  138.7852  154.8225 H   0  0  0  0  0  0  0  0  0  0  0  0
  148.9455  138.8795  156.1861 H   0  0  0  0  0  0  0  0  0  0  0  0
  149.4959  139.7744  153.3085 H   0  0  0  0  0  0  0  0  0  0  0  0
  148.0167  141.3426  154.5753 H   0  0  0  0  0  0  0  0  0  0  0  0
  149.6009  142.0553  154.2853 H   0  0  0  0  0  0  0  0  0  0  0  0
  149.2022  141.4157  155.8784 H   0  0  0  0  0  0  0  0  0  0  0  0
  1  2  1  0  0  0  0
  1 21  1  0  0  0  0
  1 22  1  0  0  0  0
  1 23  1  0  0  0  0
  2 20  1  0  0  0  0
  2  3  1  0  0  0  0
  2 24  1  0  0  0  0
  3  4  1  0  0  0  0
  3 25  1  0  0  0  0
  3 26  1  0  0  0  0
  4  5  1  0  0  0  0
  4 17  1  0  0  0  0
  5  6  1  0  0  0  0
  5  7  1  0  0  0  0
  5 27  1  0  0  0  0
  6 28  1  0  0  0  0
  6 29  1  0  0  0  0
  6 30  1  0  0  0  0
  7  8  1  0  0  0  0
  7 31  1  0  0  0  0
  7 32  1  0  0  0  0
  8  9  1  0  0  0  0
  8 33  1  0  0  0  0
  9 10  2  0  0  0  0
  9 11  1  0  0  0  0
 11 12  1  0  0  0  0
 12 16  1  0  0  0  0
 12 13  2  0  0  0  0
 13 14  1  0  0  0  0
 14 15  2  0  0  0  0
 14 34  1  0  0  0  0
 15 16  1  0  0  0  0
 15 35  1  0  0  0  0
 17 18  1  0  0  0  0
 17 36  1  0  0  0  0
 17 37  1  0  0  0  0
 18 19  1  0  0  0  0
 18 20  1  0  0  0  0
 18 38  1  0  0  0  0
 19 39  1  0  0  0  0
 19 40  1  0  0  0  0
 19 41  1  0  0  0  0
M  CHG  1  11  -1
M  END
> <s_m_source_file>
AV-unprocessed.smi

> <i_m_source_file_index>
2032

> <i_lp_mmshare_version>
43012

> <i_f3d_flags>
0

> <s_epik_input>
W0NIM11bQ0BASF0xW0NIMl1OKFtDSDJdW0NASF0oTzEpW0NIM10pW0NASF0oW0NIM10pW0NIMl1bTkhdQyg9TylbTkhdYzJuW2NIXVtjSF1zMg==

> <s_epik_cmdline>
J2VwaWtfcHl0aG9uJywgJy1waCcsICc3LjAnLCAnLXRuJywgJzgnLCAnLW1hJywgJzIwMCcsICctbWV0YWxfYmluZGluZycsICctaW1hZScsICc8aW5maWxlLm1hZT4nLCAnLW9tYWUnLCAnPG91dGZpbGUubWFlPic=

> <r_lp_tautomer_probability>
0.999

> <r_epik_Ionization_Penalty>
7.22375

> <r_epik_Ionization_Penalty_Charging>
5.82415

> <r_epik_Ionization_Penalty_Neutral>
1.39959

> <r_epik_State_Penalty>
6.03347

> <r_epik_Charging_Adjusted_Penalty>
11.8576

> <i_epik_Tot_Q>
-1

> <i_epik_Tot_abs_Q>
1

> <r_epik_Metal_State_Penalty>
2.01024

> <b_epik_Metal_Only>
1

> <s_lp_Force_Field>
OPLS_2005

> <r_lp_Energy>
22.7494

> <b_lp_Chiralities_Consistent>
1

> <s_lp_Variant>
AV-unprocessed.smi:2032-16

> <Gold.Version>
5.8.1

> <Gold.Id.Protein>
6NUR|6NUR_protein|mol2

> <Gold.PLP.Fitness>
41.2701

> <Gold.PLP.PLP>
-33.3584

> <Gold.PLP.part.hbond>
-2.0000

> <Gold.PLP.part.metal>
0.0000

> <Gold.PLP.part.buried>
-6.5309

> <Gold.PLP.part.nonpolar>
-25.3585

> <Gold.PLP.part.repulsive>
0.8712

> <Gold.PLP.ligand.clash>
0.0000

> <Gold.PLP.ligand.torsion>
0.5897

> <Gold.PLP.Chemscore.Hbond>
2.0000

> <Gold.PLP.Chemscore.CHOScore>
1.0000

> <Gold.PLP.Chemscore.Metal>
0.0000

> <Gold.Chemscore.Hbonds>
donor molecule, donor type, donor heavy atom, donor atom, acceptor molecule, acceptor atom, score
      L1  H     8    33       P1  7948  1.00
      P1  H  7989  7998       L1    20  1.00
      L1  C    15    35       P1 10186  0.02
      L1  C    15    35       P1 10952  1.00

> <Gold.PLP.Chemscore.Internal.Correction>
0.0911

> <Gold.Rescore>
     Score         DG    S(hbond)    S(metal)    S(lipo)     H(rot)  DE(clash)    DE(int)     intcor
     13.56     -14.36       1.11        0.00      77.83       1.54       0.08       0.72       ----

> <Gold.Chemscore.Fitness>
13.5552

> <Gold.Chemscore.DG>
-14.3576

> <Gold.Chemscore.ZeroCoef>
-5.4800

> <Gold.Chemscore.Hbond>
1.1142

> <Gold.Chemscore.Metal>
0.0000

> <Gold.Chemscore.Lipo>
77.8342

> <Gold.Chemscore.Internal_Hbond>
0.0000

> <Gold.Chemscore.DEClash>
0.0814

> <Gold.Chemscore.DEInternal>
0.7210

> <Gold.Chemscore.Rot>
1.5431

> <Gold.Chemscore.Internal.Correction>
   9.000000E+99

> <Gold.Chemscore.Hbonds>
donor molecule, donor type, donor heavy atom, donor atom, acceptor molecule, acceptor atom, score
      L1  H     8    33       P1  7948  0.99
      P1  H  7989  7998       L1    20  0.08

> <Gold.Chemscore.Hbond.Weighted>
-3.7213

> <Gold.Chemscore.Metal.Weighted>
-0.0000

> <Gold.Chemscore.Lipo.Weighted>
-9.1066

> <Gold.Chemscore.Internal_Hbond.Weighted>
0.0000

> <Gold.Chemscore.DEClash.Weighted>
0.0814

> <Gold.Chemscore.DEInternal.Weighted>
0.7210

> <Gold.Chemscore.Rot.Weighted>
3.9503

> <Gold.Chemscore.Internal.Correction.Weighted>
   9.000000E+99

> <Gold.Protein.RotatedTorsions>
[ 6907 6896 6895 6894 ] final   -7.67 input  -60.11 | X-H torsion
[ 7974 7965 7964 7962 ] final   67.80 input  175.53 | X-H torsion
[ 8008 7997 7996 7995 ] final -136.05 input   59.86 | X-H torsion
[ 10167 10162 10161 10158 ] final   29.19 input  -65.29 | X-H torsion
[ 10718 10713 10712 10709 ] final   49.27 input   66.30 | X-H torsion
[ 10763 10752 10751 10750 ] final  -78.74 input  -60.55 | X-H torsion
[ 11005 11000 10999 10996 ] final  153.28 input  -57.11 | X-H torsion

> <Gold.Protein.ActiveResidues>
 VAL166  LYS551  ARG553  GLY616  TRP617  ASP618  TYR619  PRO620  LYS621  CYS622 
 ASP623  PHE694  ASN695  SER759  ASP760  ASP761  ALA762  ILE779  LEU786  VAL792 
 PHE793  MET794  SER795  GLU796  ALA797  LYS798  CYS799  TRP800  GLU811  SER814 

> <Gold.Protein.RotatedAtoms>
  151.4459  135.1025  159.9683 H   0  0  0  0  0  0  0  0  0  0  0  0  # atno 6907 bound_to 6896
  152.4906  133.8486  159.7200 H   0  0  0  0  0  0  0  0  0  0  0  0  # atno 6908 bound_to 6896
  150.9056  133.7003  159.2895 H   0  0  0  0  0  0  0  0  0  0  0  0  # atno 6909 bound_to 6896
  145.8103  139.3029  143.1103 H   0  0  0  0  0  0  0  0  0  0  0  0  # atno 7974 bound_to 7965
  155.3888  140.0498  157.3041 H   0  0  0  0  0  0  0  0  0  0  0  0  # atno 8008 bound_to 7997
  154.5046  140.2169  155.9238 H   0  0  0  0  0  0  0  0  0  0  0  0  # atno 8009 bound_to 7997
  156.1510  140.3136  155.8653 H   0  0  0  0  0  0  0  0  0  0  0  0  # atno 8010 bound_to 7997
  140.4787  144.0649  150.6259 H   0  0  0  0  0  0  0  0  0  0  0  0  # atno 10167 bound_to 10162
  157.4770  130.8291  149.8050 H   0  0  0  0  0  0  0  0  0  0  0  0  # atno 10718 bound_to 10713
  154.5297  135.5719  153.6749 H   0  0  0  0  0  0  0  0  0  0  0  0  # atno 10763 bound_to 10752
  152.9936  135.6202  154.2645 H   0  0  0  0  0  0  0  0  0  0  0  0  # atno 10764 bound_to 10752
  154.2570  135.2857  155.2773 H   0  0  0  0  0  0  0  0  0  0  0  0  # atno 10765 bound_to 10752
  140.1383  134.8756  157.2297 H   0  0  0  0  0  0  0  0  0  0  0  0  # atno 11005 bound_to 11000
  145.9784  140.8703  143.0127 LP  0  0  0  0  0  0  0  0  0  0  0  0  # atno 17320 bound_to 7965
  144.6758  140.2045  143.7383 LP  0  0  0  0  0  0  0  0  0  0  0  0  # atno 17321 bound_to 7965
  140.3885  143.2765  152.0088 LP  0  0  0  0  0  0  0  0  0  0  0  0  # atno 17342 bound_to 10162
  139.4830  144.6097  151.7457 LP  0  0  0  0  0  0  0  0  0  0  0  0  # atno 17343 bound_to 10162
  156.0102  130.3837  150.2292 LP  0  0  0  0  0  0  0  0  0  0  0  0  # atno 17370 bound_to 10713
  157.0476  131.0053  151.3264 LP  0  0  0  0  0  0  0  0  0  0  0  0  # atno 17371 bound_to 10713
  140.2754  134.3412  155.7360 LP  0  0  0  0  0  0  0  0  0  0  0  0  # atno 17394 bound_to 11000
  141.2182  133.7447  156.9285 LP  0  0  0  0  0  0  0  0  0  0  0  0  # atno 17395 bound_to 11000

$$$$
