AV-unprocessed.smi:1302|AV-procd|sdf|5427|dock3
  -GOLD-   22720 4583D 1   1.00000     0.00000
 Structure written by MMmdl.
 43 44  0  0  0  0  0  0  0  0  1 V2000
  146.7218  140.0551  151.1652 C   0  0  0  0  0  0  0  0  0  0  0  0
  147.3407  138.9732  152.0603 C   0  0  0  0  0  0  0  0  0  0  0  0
  146.2745  138.0106  152.6068 C   0  0  0  0  0  0  0  0  0  0  0  0
  148.0659  139.6079  153.1571 N   0  0  0  0  0  0  0  0  0  0  0  0
  147.5043  140.1723  154.2393 C   0  0  0  0  0  0  0  0  0  0  0  0
  146.2880  140.2432  154.4165 O   0  0  0  0  0  0  0  0  0  0  0  0
  148.4606  140.7913  155.2176 C   0  0  0  0  0  0  0  0  0  0  0  0
  149.8538  140.7088  155.0123 C   0  0  0  0  0  0  0  0  0  0  0  0
  150.7216  141.3188  155.9382 C   0  0  0  0  0  0  0  0  0  0  0  0
  150.1758  142.0057  157.0479 C   0  0  0  0  0  0  0  0  0  0  0  0
  151.0285  142.6201  157.9898 N   0  0  0  0  0  0  0  0  0  0  0  0
  151.6946  143.8374  157.5351 C   0  0  0  0  0  0  0  0  0  0  0  0
  152.3278  144.5971  158.7175 C   0  0  1  0  0  0  0  0  0  0  0  0
  151.3001  145.3485  159.5827 C   0  0  0  0  0  0  0  0  0  0  0  0
  153.1453  143.7164  159.4915 O   0  0  0  0  0  0  0  0  0  0  0  0
  152.4761  142.5551  159.9812 C   0  0  2  0  0  0  0  0  0  0  0  0
  153.4876  141.7254  160.7787 C   0  0  0  0  0  0  0  0  0  0  0  0
  151.8889  141.7627  158.8001 C   0  0  0  0  0  0  0  0  0  0  0  0
  148.8361  142.1001  157.2340 N   0  0  0  0  0  0  0  0  0  0  0  0
  148.0081  141.5136  156.3441 C   0  0  0  0  0  0  0  0  0  0  0  0
  146.1962  139.6101  150.3199 H   0  0  0  0  0  0  0  0  0  0  0  0
  147.4884  140.7184  150.7630 H   0  0  0  0  0  0  0  0  0  0  0  0
  146.0065  140.6666  151.7165 H   0  0  0  0  0  0  0  0  0  0  0  0
  148.0451  138.4029  151.4518 H   0  0  0  0  0  0  0  0  0  0  0  0
  145.7289  137.5294  151.7947 H   0  0  0  0  0  0  0  0  0  0  0  0
  145.5490  138.5338  153.2307 H   0  0  0  0  0  0  0  0  0  0  0  0
  146.7247  137.2215  153.2101 H   0  0  0  0  0  0  0  0  0  0  0  0
  149.0730  139.6208  153.0866 H   0  0  0  0  0  0  0  0  0  0  0  0
  150.2606  140.1852  154.1592 H   0  0  0  0  0  0  0  0  0  0  0  0
  151.7883  141.2658  155.7796 H   0  0  0  0  0  0  0  0  0  0  0  0
  152.4728  143.5527  156.8257 H   0  0  0  0  0  0  0  0  0  0  0  0
  151.0157  144.5011  157.0012 H   0  0  0  0  0  0  0  0  0  0  0  0
  153.0005  145.3495  158.3047 H   0  0  0  0  0  0  0  0  0  0  0  0
  150.7844  146.1088  158.9957 H   0  0  0  0  0  0  0  0  0  0  0  0
  151.7882  145.8521  160.4172 H   0  0  0  0  0  0  0  0  0  0  0  0
  150.5378  144.6850  159.9902 H   0  0  0  0  0  0  0  0  0  0  0  0
  151.6743  142.8503  160.6583 H   0  0  0  0  0  0  0  0  0  0  0  0
  153.0237  140.8269  161.1864 H   0  0  0  0  0  0  0  0  0  0  0  0
  153.8900  142.2993  161.6137 H   0  0  0  0  0  0  0  0  0  0  0  0
  154.3253  141.4156  160.1530 H   0  0  0  0  0  0  0  0  0  0  0  0
  151.3223  140.9125  159.1825 H   0  0  0  0  0  0  0  0  0  0  0  0
  152.6907  141.3667  158.1751 H   0  0  0  0  0  0  0  0  0  0  0  0
  146.9535  141.6325  156.5456 H   0  0  0  0  0  0  0  0  0  0  0  0
  1  2  1  0  0  0  0
  1 21  1  0  0  0  0
  1 22  1  0  0  0  0
  1 23  1  0  0  0  0
  2  3  1  0  0  0  0
  2  4  1  0  0  0  0
  2 24  1  0  0  0  0
  3 25  1  0  0  0  0
  3 26  1  0  0  0  0
  3 27  1  0  0  0  0
  4  5  1  0  0  0  0
  4 28  1  0  0  0  0
  5  6  2  0  0  0  0
  5  7  1  0  0  0  0
  7 20  1  0  0  0  0
  7  8  2  0  0  0  0
  8  9  1  0  0  0  0
  8 29  1  0  0  0  0
  9 10  2  0  0  0  0
  9 30  1  0  0  0  0
 10 11  1  0  0  0  0
 10 19  1  0  0  0  0
 11 18  1  0  0  0  0
 11 12  1  0  0  0  0
 12 13  1  0  0  0  0
 12 31  1  0  0  0  0
 12 32  1  0  0  0  0
 13 14  1  0  0  0  0
 13 15  1  0  0  0  0
 13 33  1  0  0  0  0
 14 34  1  0  0  0  0
 14 35  1  0  0  0  0
 14 36  1  0  0  0  0
 15 16  1  0  0  0  0
 16 17  1  0  0  0  0
 16 18  1  0  0  0  0
 16 37  1  0  0  0  0
 17 38  1  0  0  0  0
 17 39  1  0  0  0  0
 17 40  1  0  0  0  0
 18 41  1  0  0  0  0
 18 42  1  0  0  0  0
 19 20  2  0  0  0  0
 20 43  1  0  0  0  0
M  END
> <s_m_source_file>
AV-unprocessed.smi

> <i_m_source_file_index>
1302

> <i_lp_mmshare_version>
43012

> <i_f3d_flags>
0

> <s_epik_input>
W0NIM11bQ0hdKFtDSDNdKVtOSF1DKD1PKWMxW2NIXVtjSF1jKG5bY0hdMSlOMltDSDJdW0NAQEhdKFtDSDNdKU9bQ0BASF0oW0NIM10pW0NIMl0y

> <s_epik_cmdline>
J2VwaWtfcHl0aG9uJywgJy1waCcsICc3LjAnLCAnLXRuJywgJzgnLCAnLW1hJywgJzIwMCcsICctbWV0YWxfYmluZGluZycsICctaW1hZScsICc8aW5maWxlLm1hZT4nLCAnLW9tYWUnLCAnPG91dGZpbGUubWFlPic=

> <r_lp_tautomer_probability>
1

> <r_epik_Ionization_Penalty>
2.23089e-05

> <r_epik_Ionization_Penalty_Charging>
0

> <r_epik_Ionization_Penalty_Neutral>
2.23089e-05

> <r_epik_State_Penalty>
-0

> <r_epik_Charging_Adjusted_Penalty>
0

> <i_epik_Tot_Q>
0

> <i_epik_Tot_abs_Q>
0

> <r_epik_Metal_State_Penalty>
-0

> <b_epik_Metal_Only>
0

> <s_lp_Force_Field>
OPLS_2005

> <r_lp_Energy>
20.4022

> <b_lp_Chiralities_Consistent>
1

> <s_lp_Variant>
AV-unprocessed.smi:1302-3

> <Gold.Version>
5.8.1

> <Gold.Id.Protein>
6NUR|6NUR_protein|mol2

> <Gold.PLP.Fitness>
38.6284

> <Gold.PLP.PLP>
-38.0900

> <Gold.PLP.part.hbond>
-1.0000

> <Gold.PLP.part.metal>
0.0000

> <Gold.PLP.part.buried>
0.2570

> <Gold.PLP.part.nonpolar>
-38.2447

> <Gold.PLP.part.repulsive>
0.4264

> <Gold.PLP.ligand.clash>
0.0000

> <Gold.PLP.ligand.torsion>
0.3549

> <Gold.PLP.Chemscore.Hbond>
0.3040

> <Gold.PLP.Chemscore.CHOScore>
0.0000

> <Gold.PLP.Chemscore.Metal>
0.0000

> <Gold.Chemscore.Hbonds>
donor molecule, donor type, donor heavy atom, donor atom, acceptor molecule, acceptor atom, score
      L1  H     4    28       P1  7957  0.17

> <Gold.PLP.Chemscore.Internal.Correction>
0.3362

> <Gold.Rescore>
     Score         DG    S(hbond)    S(metal)    S(lipo)     H(rot)  DE(clash)    DE(int)     intcor
     13.36     -17.77       0.32        0.00     121.14       1.15       3.38       1.03       ----

> <Gold.Chemscore.Fitness>
13.3566

> <Gold.Chemscore.DG>
-17.7685

> <Gold.Chemscore.ZeroCoef>
-5.4800

> <Gold.Chemscore.Hbond>
0.3177

> <Gold.Chemscore.Metal>
0.0000

> <Gold.Chemscore.Lipo>
121.1416

> <Gold.Chemscore.Internal_Hbond>
0.0000

> <Gold.Chemscore.DEClash>
3.3805

> <Gold.Chemscore.DEInternal>
1.0314

> <Gold.Chemscore.Rot>
1.1508

> <Gold.Chemscore.Internal.Correction>
   9.000000E+99

> <Gold.Chemscore.Hbonds>
donor molecule, donor type, donor heavy atom, donor atom, acceptor molecule, acceptor atom, score
      L1  H     4    28       P1  7957  0.17

> <Gold.Chemscore.Hbond.Weighted>
-1.0610

> <Gold.Chemscore.Metal.Weighted>
-0.0000

> <Gold.Chemscore.Lipo.Weighted>
-14.1736

> <Gold.Chemscore.Internal_Hbond.Weighted>
0.0000

> <Gold.Chemscore.DEClash.Weighted>
3.3805

> <Gold.Chemscore.DEInternal.Weighted>
1.0314

> <Gold.Chemscore.Rot.Weighted>
2.9461

> <Gold.Chemscore.Internal.Correction.Weighted>
   9.000000E+99

> <Gold.Protein.RotatedTorsions>
[ 6907 6896 6895 6894 ] final  -43.17 input  -60.11 | X-H torsion
[ 7974 7965 7964 7962 ] final  -15.21 input  175.53 | X-H torsion
[ 8008 7997 7996 7995 ] final  155.72 input   59.86 | X-H torsion
[ 10167 10162 10161 10158 ] final   35.40 input  -65.29 | X-H torsion
[ 10718 10713 10712 10709 ] final -169.50 input   66.30 | X-H torsion
[ 10763 10752 10751 10750 ] final  176.65 input  -60.55 | X-H torsion
[ 11005 11000 10999 10996 ] final   60.09 input  -57.11 | X-H torsion

> <Gold.Protein.ActiveResidues>
 VAL166  LYS551  ARG553  GLY616  TRP617  ASP618  TYR619  PRO620  LYS621  CYS622 
 ASP623  PHE694  ASN695  SER759  ASP760  ASP761  ALA762  ILE779  LEU786  VAL792 
 PHE793  MET794  SER795  GLU796  ALA797  LYS798  CYS799  TRP800  GLU811  SER814 

> <Gold.Protein.RotatedAtoms>
  150.9469  134.8873  159.7647 H   0  0  0  0  0  0  0  0  0  0  0  0  # atno 6907 bound_to 6896
  152.5104  134.3861  159.9378 H   0  0  0  0  0  0  0  0  0  0  0  0  # atno 6908 bound_to 6896
  151.3879  133.3758  159.2752 H   0  0  0  0  0  0  0  0  0  0  0  0  # atno 6909 bound_to 6896
  146.2042  140.3459  142.8413 H   0  0  0  0  0  0  0  0  0  0  0  0  # atno 7974 bound_to 7965
  156.2463  140.1932  156.6845 H   0  0  0  0  0  0  0  0  0  0  0  0  # atno 8008 bound_to 7997
  154.6297  140.0597  156.9743 H   0  0  0  0  0  0  0  0  0  0  0  0  # atno 8009 bound_to 7997
  155.1730  140.3270  155.4392 H   0  0  0  0  0  0  0  0  0  0  0  0  # atno 8010 bound_to 7997
  140.4225  144.1440  150.6149 H   0  0  0  0  0  0  0  0  0  0  0  0  # atno 10167 bound_to 10162
  156.7125  130.9239  151.3090 H   0  0  0  0  0  0  0  0  0  0  0  0  # atno 10718 bound_to 10713
  154.4839  135.2776  155.1549 H   0  0  0  0  0  0  0  0  0  0  0  0  # atno 10763 bound_to 10752
  154.3248  135.6202  153.5528 H   0  0  0  0  0  0  0  0  0  0  0  0  # atno 10764 bound_to 10752
  152.9879  135.5751  154.5246 H   0  0  0  0  0  0  0  0  0  0  0  0  # atno 10765 bound_to 10752
  140.0256  134.6087  155.9577 H   0  0  0  0  0  0  0  0  0  0  0  0  # atno 11005 bound_to 11000
  144.8753  140.7327  143.6021 LP  0  0  0  0  0  0  0  0  0  0  0  0  # atno 17320 bound_to 7965
  145.3379  139.1740  143.4501 LP  0  0  0  0  0  0  0  0  0  0  0  0  # atno 17321 bound_to 7965
  140.4518  143.2484  151.9338 LP  0  0  0  0  0  0  0  0  0  0  0  0  # atno 17342 bound_to 10162
  139.4783  144.5555  151.8321 LP  0  0  0  0  0  0  0  0  0  0  0  0  # atno 17343 bound_to 10162
  157.6930  130.9253  150.0567 LP  0  0  0  0  0  0  0  0  0  0  0  0  # atno 17370 bound_to 10713
  156.1651  130.3645  149.9243 LP  0  0  0  0  0  0  0  0  0  0  0  0  # atno 17371 bound_to 10713
  141.1801  133.6545  156.4984 LP  0  0  0  0  0  0  0  0  0  0  0  0  # atno 17394 bound_to 11000
  140.4312  134.7100  157.4942 LP  0  0  0  0  0  0  0  0  0  0  0  0  # atno 17395 bound_to 11000

$$$$
