AV-unprocessed.smi:3021|AV-procd|sdf|11498|dock1
  -GOLD-   2272016433D 1   1.00000     0.00000
 Structure written by MMmdl.
 35 37  0  0  0  0  0  0  0  0  1 V2000
  150.2381  144.5770  158.5116 O   0  0  0  0  0  0  0  0  0  0  0  0
  150.1203  144.2681  159.8869 C   0  0  2  0  0  0  0  0  0  0  0  0
  148.9956  145.1302  160.4802 C   0  0  0  0  0  0  0  0  0  0  0  0
  147.9448  144.2769  160.9014 O   0  0  0  0  0  0  0  0  0  0  0  0
  147.0780  143.9016  159.8426 C   0  0  0  0  0  0  0  0  0  0  0  0
  145.8254  143.3486  160.4460 C   0  0  0  0  0  0  0  0  0  0  0  0
  144.8487  143.9018  161.2274 C   0  0  0  0  0  0  0  0  0  0  0  0
  143.9024  142.8709  161.4822 C   0  0  0  0  0  0  0  0  0  0  0  0
  144.3701  141.7626  160.8361 C   0  0  0  0  0  0  0  0  0  0  0  0
  145.5403  142.0364  160.1985 O   0  0  0  0  0  0  0  0  0  0  0  0
  151.4742  144.5265  160.5764 C   0  0  0  0  0  0  0  0  0  0  0  0
  152.3134  143.3413  160.6108 N   0  0  0  0  0  0  0  0  0  0  0  0
  152.4157  142.5638  159.4958 N   0  0  0  0  0  0  0  0  0  0  0  0
  153.2171  141.5731  159.7511 N   0  0  0  0  0  0  0  0  0  0  0  0
  153.6539  141.7017  161.0591 C   0  0  0  0  0  0  0  0  0  0  0  0
  154.5290  140.9157  161.8415 C   0  0  0  0  0  0  0  0  0  0  0  0
  154.8136  141.2780  163.1763 C   0  0  0  0  0  0  0  0  0  0  0  0
  155.8896  140.2917  164.1010 Cl  0  0  0  0  0  0  0  0  0  0  0  0
  154.2241  142.4334  163.7443 C   0  0  0  0  0  0  0  0  0  0  0  0
  154.5617  142.8911  165.3756 Cl  0  0  0  0  0  0  0  0  0  0  0  0
  153.3496  143.2268  162.9752 C   0  0  0  0  0  0  0  0  0  0  0  0
  153.0792  142.8481  161.6494 C   0  0  0  0  0  0  0  0  0  0  0  0
  149.3690  144.6866  158.1564 H   0  0  0  0  0  0  0  0  0  0  0  0
  149.8638  143.2130  159.9925 H   0  0  0  0  0  0  0  0  0  0  0  0
  149.3668  145.6722  161.3515 H   0  0  0  0  0  0  0  0  0  0  0  0
  148.6446  145.8731  159.7615 H   0  0  0  0  0  0  0  0  0  0  0  0
  146.8427  144.7642  159.2181 H   0  0  0  0  0  0  0  0  0  0  0  0
  147.5513  143.1483  159.2115 H   0  0  0  0  0  0  0  0  0  0  0  0
  144.8189  144.9245  161.5734 H   0  0  0  0  0  0  0  0  0  0  0  0
  142.9947  142.9324  162.0639 H   0  0  0  0  0  0  0  0  0  0  0  0
  144.0137  140.7486  160.7305 H   0  0  0  0  0  0  0  0  0  0  0  0
  152.0174  145.3241  160.0675 H   0  0  0  0  0  0  0  0  0  0  0  0
  151.3172  144.8647  161.6018 H   0  0  0  0  0  0  0  0  0  0  0  0
  154.9830  140.0341  161.4135 H   0  0  0  0  0  0  0  0  0  0  0  0
  152.8959  144.1124  163.3952 H   0  0  0  0  0  0  0  0  0  0  0  0
  1  2  1  0  0  0  0
  1 23  1  0  0  0  0
  2  3  1  0  0  0  0
  2 11  1  0  0  0  0
  2 24  1  0  0  0  0
  3  4  1  0  0  0  0
  3 25  1  0  0  0  0
  3 26  1  0  0  0  0
  4  5  1  0  0  0  0
  5  6  1  0  0  0  0
  5 27  1  0  0  0  0
  5 28  1  0  0  0  0
  6 10  1  0  0  0  0
  6  7  2  0  0  0  0
  7  8  1  0  0  0  0
  7 29  1  0  0  0  0
  8  9  2  0  0  0  0
  8 30  1  0  0  0  0
  9 10  1  0  0  0  0
  9 31  1  0  0  0  0
 11 12  1  0  0  0  0
 11 32  1  0  0  0  0
 11 33  1  0  0  0  0
 12 22  1  0  0  0  0
 12 13  1  0  0  0  0
 13 14  2  0  0  0  0
 14 15  1  0  0  0  0
 15 22  2  0  0  0  0
 15 16  1  0  0  0  0
 16 17  2  0  0  0  0
 16 34  1  0  0  0  0
 17 18  1  0  0  0  0
 17 19  1  0  0  0  0
 19 20  1  0  0  0  0
 19 21  2  0  0  0  0
 21 22  1  0  0  0  0
 21 35  1  0  0  0  0
M  END
> <s_m_source_file>
AV-unprocessed.smi

> <i_m_source_file_index>
3021

> <i_lp_mmshare_version>
43012

> <i_f3d_flags>
0

> <s_epik_input>
W2NIXTFjKENsKWMoQ2wpW2NIXWMoYzEyKW4obm4yKVtDSDJdW0NASF0oW09IXSlbQ0gyXU9bQ0gyXWMzW2NIXVtjSF1bY0hdbzM=

> <s_epik_cmdline>
J2VwaWtfcHl0aG9uJywgJy1waCcsICc3LjAnLCAnLXRuJywgJzgnLCAnLW1hJywgJzIwMCcsICctbWV0YWxfYmluZGluZycsICctaW1hZScsICc8aW5maWxlLm1hZT4nLCAnLW9tYWUnLCAnPG91dGZpbGUubWFlPic=

> <r_lp_tautomer_probability>
1

> <r_epik_Ionization_Penalty>
6.1367e-06

> <r_epik_Ionization_Penalty_Charging>
0

> <r_epik_Ionization_Penalty_Neutral>
6.1367e-06

> <r_epik_State_Penalty>
-0

> <r_epik_Charging_Adjusted_Penalty>
0

> <i_epik_Tot_Q>
0

> <i_epik_Tot_abs_Q>
0

> <r_epik_Metal_State_Penalty>
-0

> <b_epik_Metal_Only>
0

> <s_lp_Force_Field>
OPLS_2005

> <r_lp_Energy>
8.1305

> <b_lp_Chiralities_Consistent>
1

> <s_lp_Variant>
AV-unprocessed.smi:3021-1

> <Gold.Version>
5.8.1

> <Gold.Id.Protein>
6NUR|6NUR_protein|mol2

> <Gold.PLP.Fitness>
54.3775

> <Gold.PLP.PLP>
-48.0932

> <Gold.PLP.part.hbond>
-3.6831

> <Gold.PLP.part.metal>
0.0000

> <Gold.PLP.part.buried>
-4.8699

> <Gold.PLP.part.nonpolar>
-40.3949

> <Gold.PLP.part.repulsive>
0.1451

> <Gold.PLP.ligand.clash>
0.0000

> <Gold.PLP.ligand.torsion>
1.5583

> <Gold.PLP.Chemscore.Hbond>
3.0000

> <Gold.PLP.Chemscore.CHOScore>
0.0000

> <Gold.PLP.Chemscore.Metal>
0.0000

> <Gold.Chemscore.Hbonds>
donor molecule, donor type, donor heavy atom, donor atom, acceptor molecule, acceptor atom, score
      L1  H     1    23       P1  8029  0.72
      P1  H  6933  6944       L1     4  0.79
      P1  H  6934  6946       L1    10  1.00

> <Gold.PLP.Chemscore.Internal.Correction>
0.4009

> <Gold.Rescore>
     Score         DG    S(hbond)    S(metal)    S(lipo)     H(rot)  DE(clash)    DE(int)     intcor
     18.40     -20.25       1.80        0.00     128.84       2.46       0.31       1.53       ----

> <Gold.Chemscore.Fitness>
18.4046

> <Gold.Chemscore.DG>
-20.2480

> <Gold.Chemscore.ZeroCoef>
-5.4800

> <Gold.Chemscore.Hbond>
1.7976

> <Gold.Chemscore.Metal>
0.0000

> <Gold.Chemscore.Lipo>
128.8360

> <Gold.Chemscore.Internal_Hbond>
0.0000

> <Gold.Chemscore.DEClash>
0.3105

> <Gold.Chemscore.DEInternal>
1.5329

> <Gold.Chemscore.Rot>
2.4647

> <Gold.Chemscore.Internal.Correction>
   9.000000E+99

> <Gold.Chemscore.Hbonds>
donor molecule, donor type, donor heavy atom, donor atom, acceptor molecule, acceptor atom, score
      L1  H     1    23       P1  8029  0.15
      P1  H  6933  6944       L1     4  0.12
      P1  H  6934  6946       L1    10  0.69

> <Gold.Chemscore.Hbond.Weighted>
-6.0038

> <Gold.Chemscore.Metal.Weighted>
-0.0000

> <Gold.Chemscore.Lipo.Weighted>
-15.0738

> <Gold.Chemscore.Internal_Hbond.Weighted>
0.0000

> <Gold.Chemscore.DEClash.Weighted>
0.3105

> <Gold.Chemscore.DEInternal.Weighted>
1.5329

> <Gold.Chemscore.Rot.Weighted>
6.3097

> <Gold.Chemscore.Internal.Correction.Weighted>
   9.000000E+99

> <Gold.Protein.RotatedTorsions>
[ 6907 6896 6895 6894 ] final  -27.55 input  -60.11 | X-H torsion
[ 7974 7965 7964 7962 ] final   26.76 input  175.53 | X-H torsion
[ 8008 7997 7996 7995 ] final  -36.80 input   59.86 | X-H torsion
[ 10167 10162 10161 10158 ] final   81.78 input  -65.29 | X-H torsion
[ 10718 10713 10712 10709 ] final -168.41 input   66.30 | X-H torsion
[ 10763 10752 10751 10750 ] final  165.98 input  -60.55 | X-H torsion
[ 11005 11000 10999 10996 ] final  -93.68 input  -57.11 | X-H torsion

> <Gold.Protein.ActiveResidues>
 VAL166  LYS551  ARG553  GLY616  TRP617  ASP618  TYR619  PRO620  LYS621  CYS622 
 ASP623  PHE694  ASN695  SER759  ASP760  ASP761  ALA762  ILE779  LEU786  VAL792 
 PHE793  MET794  SER795  GLU796  ALA797  LYS798  CYS799  TRP800  GLU811  SER814 

> <Gold.Protein.RotatedAtoms>
  151.1453  135.0200  159.8643 H   0  0  0  0  0  0  0  0  0  0  0  0  # atno 6907 bound_to 6896
  152.5453  134.1451  159.8505 H   0  0  0  0  0  0  0  0  0  0  0  0  # atno 6908 bound_to 6896
  151.1531  133.4848  159.2628 H   0  0  0  0  0  0  0  0  0  0  0  0  # atno 6909 bound_to 6896
  146.1820  139.7284  142.8893 H   0  0  0  0  0  0  0  0  0  0  0  0  # atno 7974 bound_to 7965
  154.4066  140.1621  156.2432 H   0  0  0  0  0  0  0  0  0  0  0  0  # atno 8008 bound_to 7997
  155.9183  140.3423  155.6130 H   0  0  0  0  0  0  0  0  0  0  0  0  # atno 8009 bound_to 7997
  155.7253  140.0773  157.2303 H   0  0  0  0  0  0  0  0  0  0  0  0  # atno 8010 bound_to 7997
  139.9357  144.6123  150.8301 H   0  0  0  0  0  0  0  0  0  0  0  0  # atno 10167 bound_to 10162
  156.6965  130.9180  151.3075 H   0  0  0  0  0  0  0  0  0  0  0  0  # atno 10718 bound_to 10713
  154.3321  135.2754  155.2466 H   0  0  0  0  0  0  0  0  0  0  0  0  # atno 10763 bound_to 10752
  154.4774  135.5867  153.6368 H   0  0  0  0  0  0  0  0  0  0  0  0  # atno 10764 bound_to 10752
  152.9865  135.6103  154.3514 H   0  0  0  0  0  0  0  0  0  0  0  0  # atno 10765 bound_to 10752
  141.1491  133.7904  157.0193 H   0  0  0  0  0  0  0  0  0  0  0  0  # atno 11005 bound_to 11000
  145.4048  141.0389  143.3050 LP  0  0  0  0  0  0  0  0  0  0  0  0  # atno 17320 bound_to 7965
  144.8332  139.5594  143.6934 LP  0  0  0  0  0  0  0  0  0  0  0  0  # atno 17321 bound_to 7965
  140.7625  143.3200  151.2644 LP  0  0  0  0  0  0  0  0  0  0  0  0  # atno 17342 bound_to 10162
  139.6746  143.9961  152.2773 LP  0  0  0  0  0  0  0  0  0  0  0  0  # atno 17343 bound_to 10162
  157.6989  130.9312  150.0727 LP  0  0  0  0  0  0  0  0  0  0  0  0  # atno 17370 bound_to 10713
  156.1760  130.3648  149.9100 LP  0  0  0  0  0  0  0  0  0  0  0  0  # atno 17371 bound_to 10713
  140.0826  134.9639  157.1649 LP  0  0  0  0  0  0  0  0  0  0  0  0  # atno 17394 bound_to 11000
  140.3555  134.2551  155.7193 LP  0  0  0  0  0  0  0  0  0  0  0  0  # atno 17395 bound_to 11000

$$$$
