AV-unprocessed.smi:1447|AV-procd|sdf|5891|dock10
  -GOLD-   22720 5573D 1   1.00000     0.00000
 Structure written by MMmdl.
 48 50  0  0  0  0  0  0  0  0  2 V2000
  153.8030  136.4763  164.4960 C   0  0  0  0  0  0  0  0  0  0  0  0
  154.6249  137.1330  163.5477 O   0  0  0  0  0  0  0  0  0  0  0  0
  153.8992  137.5832  162.4156 C   0  0  0  0  0  0  0  0  0  0  0  0
  154.8658  138.1701  161.3737 C   0  0  0  0  0  0  0  0  0  0  0  0
  154.3050  139.3550  160.7143 N   0  0  0  0  0  0  0  0  0  0  0  0
  153.2046  139.0849  159.9176 N   0  0  0  0  0  0  0  0  0  0  0  0
  152.6070  140.0433  159.2864 C   0  0  0  0  0  0  0  0  0  0  0  0
  151.4220  139.7925  158.4200 C   0  0  0  0  0  0  0  0  0  0  0  0
  150.9883  138.6564  158.2219 O   0  0  0  0  0  0  0  0  0  0  0  0
  150.8633  140.8894  157.8768 N   0  0  0  0  0  0  0  0  0  0  0  0
  149.7019  140.8951  156.9934 C   0  0  2  0  0  0  0  0  0  0  0  0
  150.1498  141.1575  155.5462 C   0  0  0  0  0  0  0  0  0  0  0  0
  148.9417  141.2620  154.6001 C   0  0  0  0  0  0  0  0  0  0  0  0
  147.9962  142.3112  155.0552 N   0  3  1  0  0  0  0  0  0  0  0  0
  146.8832  142.5084  154.1012 C   0  0  0  0  0  0  0  0  0  0  0  0
  145.6930  143.2234  154.6973 C   0  0  0  0  0  0  0  0  0  0  0  0
  145.6351  141.7321  154.4514 C   0  0  0  0  0  0  0  0  0  0  0  0
  147.5131  142.0546  156.4346 C   0  0  0  0  0  0  0  0  0  0  0  0
  148.6870  141.9713  157.4241 C   0  0  0  0  0  0  0  0  0  0  0  0
  153.0744  141.4141  159.3997 C   0  0  0  0  0  0  0  0  0  0  0  0
  154.1485  141.6626  160.1807 C   0  0  0  0  0  0  0  0  0  0  0  0
  154.8432  140.5974  160.9057 C   0  0  0  0  0  0  0  0  0  0  0  0
  155.8223  140.8018  161.6225 O   0  0  0  0  0  0  0  0  0  0  0  0
  154.4091  136.1462  165.3395 H   0  0  0  0  0  0  0  0  0  0  0  0
  153.3236  135.5977  164.0623 H   0  0  0  0  0  0  0  0  0  0  0  0
  153.0306  137.1453  164.8775 H   0  0  0  0  0  0  0  0  0  0  0  0
  153.3619  136.7416  161.9754 H   0  0  0  0  0  0  0  0  0  0  0  0
  153.1542  138.3257  162.7070 H   0  0  0  0  0  0  0  0  0  0  0  0
  155.8321  138.3850  161.8328 H   0  0  0  0  0  0  0  0  0  0  0  0
  155.0733  137.4110  160.6174 H   0  0  0  0  0  0  0  0  0  0  0  0
  151.2818  141.7837  158.0904 H   0  0  0  0  0  0  0  0  0  0  0  0
  149.2223  139.9150  157.0317 H   0  0  0  0  0  0  0  0  0  0  0  0
  150.7278  142.0818  155.4971 H   0  0  0  0  0  0  0  0  0  0  0  0
  150.8129  140.3597  155.2094 H   0  0  0  0  0  0  0  0  0  0  0  0
  149.2883  141.4948  153.5925 H   0  0  0  0  0  0  0  0  0  0  0  0
  148.4239  140.3032  154.5430 H   0  0  0  0  0  0  0  0  0  0  0  0
  147.1601  142.6689  153.0605 H   0  0  0  0  0  0  0  0  0  0  0  0
  145.7560  143.5585  155.7311 H   0  0  0  0  0  0  0  0  0  0  0  0
  145.1083  143.8610  154.0371 H   0  0  0  0  0  0  0  0  0  0  0  0
  145.0120  141.3866  153.6290 H   0  0  0  0  0  0  0  0  0  0  0  0
  145.6586  141.0797  155.3225 H   0  0  0  0  0  0  0  0  0  0  0  0
  146.8362  142.8532  156.7405 H   0  0  0  0  0  0  0  0  0  0  0  0
  146.9380  141.1273  156.4547 H   0  0  0  0  0  0  0  0  0  0  0  0
  148.3062  141.7553  158.4230 H   0  0  0  0  0  0  0  0  0  0  0  0
  149.1790  142.9432  157.4853 H   0  0  0  0  0  0  0  0  0  0  0  0
  152.5821  142.2202  158.8753 H   0  0  0  0  0  0  0  0  0  0  0  0
  154.5068  142.6773  160.2741 H   0  0  0  0  0  0  0  0  0  0  0  0
  148.5118  143.1793  155.0827 H   0  0  0  0  0  0  0  0  0  0  0  0
  1  2  1  0  0  0  0
  1 24  1  0  0  0  0
  1 25  1  0  0  0  0
  1 26  1  0  0  0  0
  2  3  1  0  0  0  0
  3  4  1  0  0  0  0
  3 27  1  0  0  0  0
  3 28  1  0  0  0  0
  4  5  1  0  0  0  0
  4 29  1  0  0  0  0
  4 30  1  0  0  0  0
  5 22  1  0  0  0  0
  5  6  1  0  0  0  0
  6  7  2  0  0  0  0
  7  8  1  0  0  0  0
  7 20  1  0  0  0  0
  8  9  2  0  0  0  0
  8 10  1  0  0  0  0
 10 11  1  0  0  0  0
 10 31  1  0  0  0  0
 11 19  1  0  0  0  0
 11 12  1  0  0  0  0
 11 32  1  0  0  0  0
 12 13  1  0  0  0  0
 12 33  1  0  0  0  0
 12 34  1  0  0  0  0
 13 14  1  0  0  0  0
 13 35  1  0  0  0  0
 13 36  1  0  0  0  0
 14 15  1  0  0  0  0
 14 18  1  0  0  0  0
 14 48  1  0  0  0  0
 15 17  1  0  0  0  0
 15 16  1  0  0  0  0
 15 37  1  0  0  0  0
 16 17  1  0  0  0  0
 16 38  1  0  0  0  0
 16 39  1  0  0  0  0
 17 40  1  0  0  0  0
 17 41  1  0  0  0  0
 18 19  1  0  0  0  0
 18 42  1  0  0  0  0
 18 43  1  0  0  0  0
 19 44  1  0  0  0  0
 19 45  1  0  0  0  0
 20 21  2  0  0  0  0
 20 46  1  0  0  0  0
 21 22  1  0  0  0  0
 21 47  1  0  0  0  0
 22 23  2  0  0  0  0
M  CHG  1  14   1
M  END
> <s_m_source_file>
AV-unprocessed.smi

> <i_m_source_file_index>
1447

> <i_lp_mmshare_version>
43012

> <i_f3d_flags>
0

> <s_epik_input>
W0NIM11PW0NIMl1bQ0gyXW4xbmMoW2NIXVtjSF1jMT1PKUMoPU8pW05IXVtDSF0yW0NIMl1bQ0gyXU4oW0NIMl1bQ0gyXTIpW0NIXTNbQ0gyXVtDSDJdMw==

> <s_epik_cmdline>
J2VwaWtfcHl0aG9uJywgJy1waCcsICc3LjAnLCAnLXRuJywgJzgnLCAnLW1hJywgJzIwMCcsICctbWV0YWxfYmluZGluZycsICctaW1hZScsICc8aW5maWxlLm1hZT4nLCAnLW9tYWUnLCAnPG91dGZpbGUubWFlPic=

> <r_lp_tautomer_probability>
1

> <r_epik_Ionization_Penalty>
0.168623

> <r_epik_Ionization_Penalty_Charging>
0.16862

> <r_epik_Ionization_Penalty_Neutral>
2.93027e-06

> <r_epik_State_Penalty>
0.157986

> <r_epik_Charging_Adjusted_Penalty>
0.326605

> <i_epik_Tot_Q>
1

> <i_epik_Tot_abs_Q>
1

> <r_epik_Metal_State_Penalty>
0.157986

> <b_epik_Metal_Only>
0

> <s_lp_Force_Field>
OPLS_2005

> <r_lp_Energy>
46.6346

> <b_lp_Chiralities_Consistent>
1

> <s_lp_Variant>
AV-unprocessed.smi:1447-1

> <Gold.Version>
5.8.1

> <Gold.Id.Protein>
6NUR|6NUR_protein|mol2

> <Gold.PLP.Fitness>
46.1310

> <Gold.PLP.PLP>
-41.6013

> <Gold.PLP.part.hbond>
-1.8612

> <Gold.PLP.part.metal>
0.0000

> <Gold.PLP.part.buried>
-3.9348

> <Gold.PLP.part.nonpolar>
-35.8310

> <Gold.PLP.part.repulsive>
0.2416

> <Gold.PLP.ligand.clash>
0.5216

> <Gold.PLP.ligand.torsion>
1.1276

> <Gold.PLP.Chemscore.Hbond>
2.0000

> <Gold.PLP.Chemscore.CHOScore>
0.0000

> <Gold.PLP.Chemscore.Metal>
0.0000

> <Gold.Chemscore.Hbonds>
donor molecule, donor type, donor heavy atom, donor atom, acceptor molecule, acceptor atom, score
      L1  H    14    48       P1  8028  2.00

> <Gold.PLP.Chemscore.Internal.Correction>
1.3064

> <Gold.Rescore>
     Score         DG    S(hbond)    S(metal)    S(lipo)     H(rot)  DE(clash)    DE(int)     intcor
     12.32     -15.03       0.99        0.00      91.99       1.76       1.71       1.00       ----

> <Gold.Chemscore.Fitness>
12.3189

> <Gold.Chemscore.DG>
-15.0278

> <Gold.Chemscore.ZeroCoef>
-5.4800

> <Gold.Chemscore.Hbond>
0.9860

> <Gold.Chemscore.Metal>
0.0000

> <Gold.Chemscore.Lipo>
91.9856

> <Gold.Chemscore.Internal_Hbond>
0.0000

> <Gold.Chemscore.DEClash>
1.7068

> <Gold.Chemscore.DEInternal>
1.0021

> <Gold.Chemscore.Rot>
1.7608

> <Gold.Chemscore.Internal.Correction>
   9.000000E+99

> <Gold.Chemscore.Hbonds>
donor molecule, donor type, donor heavy atom, donor atom, acceptor molecule, acceptor atom, score
      L1  H    14    48       P1  8028  0.98

> <Gold.Chemscore.Hbond.Weighted>
-3.2932

> <Gold.Chemscore.Metal.Weighted>
-0.0000

> <Gold.Chemscore.Lipo.Weighted>
-10.7623

> <Gold.Chemscore.Internal_Hbond.Weighted>
0.0000

> <Gold.Chemscore.DEClash.Weighted>
1.7068

> <Gold.Chemscore.DEInternal.Weighted>
1.0021

> <Gold.Chemscore.Rot.Weighted>
4.5077

> <Gold.Chemscore.Internal.Correction.Weighted>
   9.000000E+99

> <Gold.Protein.RotatedTorsions>
[ 6907 6896 6895 6894 ] final   97.62 input  -60.11 | X-H torsion
[ 7974 7965 7964 7962 ] final   45.25 input  175.53 | X-H torsion
[ 8008 7997 7996 7995 ] final   50.31 input   59.86 | X-H torsion
[ 10167 10162 10161 10158 ] final -131.89 input  -65.29 | X-H torsion
[ 10718 10713 10712 10709 ] final   63.96 input   66.30 | X-H torsion
[ 10763 10752 10751 10750 ] final  130.45 input  -60.55 | X-H torsion
[ 11005 11000 10999 10996 ] final   13.11 input  -57.11 | X-H torsion

> <Gold.Protein.ActiveResidues>
 VAL166  LYS551  ARG553  GLY616  TRP617  ASP618  TYR619  PRO620  LYS621  CYS622 
 ASP623  PHE694  ASN695  SER759  ASP760  ASP761  ALA762  ILE779  LEU786  VAL792 
 PHE793  MET794  SER795  GLU796  ALA797  LYS798  CYS799  TRP800  GLU811  SER814 

> <Gold.Protein.RotatedAtoms>
  152.5421  134.0705  159.8191 H   0  0  0  0  0  0  0  0  0  0  0  0  # atno 6907 bound_to 6896
  151.0820  133.5375  159.2627 H   0  0  0  0  0  0  0  0  0  0  0  0  # atno 6908 bound_to 6896
  151.2199  135.0523  159.8999 H   0  0  0  0  0  0  0  0  0  0  0  0  # atno 6909 bound_to 6896
  146.0496  139.4985  142.9726 H   0  0  0  0  0  0  0  0  0  0  0  0  # atno 7974 bound_to 7965
  155.4167  140.3444  155.4268 H   0  0  0  0  0  0  0  0  0  0  0  0  # atno 8008 bound_to 7997
  156.1417  140.1544  156.8942 H   0  0  0  0  0  0  0  0  0  0  0  0  # atno 8009 bound_to 7997
  154.4976  140.0823  156.7711 H   0  0  0  0  0  0  0  0  0  0  0  0  # atno 8010 bound_to 7997
  139.9142  143.6458  152.2568 H   0  0  0  0  0  0  0  0  0  0  0  0  # atno 10167 bound_to 10162
  157.6007  130.9134  149.9783 H   0  0  0  0  0  0  0  0  0  0  0  0  # atno 10718 bound_to 10713
  153.7583  135.3199  155.3333 H   0  0  0  0  0  0  0  0  0  0  0  0  # atno 10763 bound_to 10752
  154.8239  135.4584  154.0863 H   0  0  0  0  0  0  0  0  0  0  0  0  # atno 10764 bound_to 10752
  153.2086  135.6932  153.8224 H   0  0  0  0  0  0  0  0  0  0  0  0  # atno 10765 bound_to 10752
  140.4845  134.0902  155.7758 H   0  0  0  0  0  0  0  0  0  0  0  0  # atno 11005 bound_to 11000
  145.6746  141.0207  143.1639 LP  0  0  0  0  0  0  0  0  0  0  0  0  # atno 17320 bound_to 7965
  144.7116  139.8350  143.7413 LP  0  0  0  0  0  0  0  0  0  0  0  0  # atno 17321 bound_to 7965
  139.6916  144.7646  151.1428 LP  0  0  0  0  0  0  0  0  0  0  0  0  # atno 17342 bound_to 10162
  140.7678  143.5581  150.9130 LP  0  0  0  0  0  0  0  0  0  0  0  0  # atno 17343 bound_to 10162
  156.1079  130.3651  150.0100 LP  0  0  0  0  0  0  0  0  0  0  0  0  # atno 17370 bound_to 10713
  156.8204  130.9356  151.3641 LP  0  0  0  0  0  0  0  0  0  0  0  0  # atno 17371 bound_to 10713
  141.1515  133.8960  157.2086 LP  0  0  0  0  0  0  0  0  0  0  0  0  # atno 17394 bound_to 11000
  139.9806  135.0099  156.9741 LP  0  0  0  0  0  0  0  0  0  0  0  0  # atno 17395 bound_to 11000

$$$$
