AV-unprocessed.smi:175|AV-procd|sdf|1432|dock8
  -GOLD-   2262019213D 1   1.00000     0.00000
 Structure written by MMmdl.
 47 50  0  0  0  0  0  0  0  0  1 V2000
  153.0322  141.9633  159.6672 C   0  0  0  0  0  0  0  0  0  0  0  0
  151.7933  142.8198  159.3615 C   0  0  1  0  0  0  0  0  0  0  0  0
  152.0742  144.1518  159.7844 O   0  0  0  0  0  0  0  0  0  0  0  0
  151.3667  145.0564  158.9555 C   0  0  0  0  0  0  0  0  0  0  0  0
  151.5162  144.4240  157.5806 C   0  0  0  0  0  0  0  0  0  0  0  0
  151.3691  142.9323  157.8695 C   0  0  2  0  0  0  0  0  0  0  0  0
  149.9905  142.6108  157.7886 O   0  0  0  0  0  0  0  0  0  0  0  0
  152.1321  142.0285  156.8655 C   0  0  0  0  0  0  0  0  0  0  0  0
  151.7291  140.6316  156.9242 N   0  0  0  0  0  0  0  0  0  0  0  0
  151.9699  139.7444  157.9501 C   0  0  0  0  0  0  0  0  0  0  0  0
  151.5109  138.5367  157.7631 N   0  0  0  0  0  0  0  0  0  0  0  0
  150.9005  138.6005  156.5176 C   0  0  0  0  0  0  0  0  0  0  0  0
  150.2114  137.6608  155.7090 C   0  0  0  0  0  0  0  0  0  0  0  0
  150.0204  136.3836  156.1057 N   0  0  0  0  0  0  0  0  0  0  0  0
  148.6331  136.0359  156.4070 C   0  0  0  0  0  0  0  0  0  0  0  0
  148.4775  134.6803  155.7469 C   0  0  0  0  0  0  0  0  0  0  0  0
  147.4323  134.0329  155.7744 O   0  0  0  0  0  0  0  0  0  0  0  0
  149.6173  134.3262  155.1503 N   0  0  0  0  0  0  0  0  0  0  0  0
  149.8665  133.1028  154.3912 C   0  0  0  0  0  0  0  0  0  0  0  0
  149.8716  131.8478  155.2823 C   0  0  0  0  0  0  0  0  0  0  0  0
  150.1918  130.7901  154.5380 F   0  0  0  0  0  0  0  0  0  0  0  0
  150.7758  131.9724  156.2536 F   0  0  0  0  0  0  0  0  0  0  0  0
  148.6727  131.6352  155.8242 F   0  0  0  0  0  0  0  0  0  0  0  0
  150.6427  135.3470  155.2810 C   0  0  0  0  0  0  0  0  0  0  0  0
  149.7215  138.0837  154.5138 N   0  0  0  0  0  0  0  0  0  0  0  0
  149.9037  139.3516  154.1315 C   0  0  0  0  0  0  0  0  0  0  0  0
  150.5309  140.3371  154.7782 N   0  0  0  0  0  0  0  0  0  0  0  0
  151.0201  139.9114  155.9786 C   0  0  0  0  0  0  0  0  0  0  0  0
  152.8808  140.9238  159.3758 H   0  0  0  0  0  0  0  0  0  0  0  0
  153.2507  141.9725  160.7352 H   0  0  0  0  0  0  0  0  0  0  0  0
  153.9160  142.3387  159.1509 H   0  0  0  0  0  0  0  0  0  0  0  0
  150.9630  142.4502  159.9663 H   0  0  0  0  0  0  0  0  0  0  0  0
  150.3197  145.0977  159.2598 H   0  0  0  0  0  0  0  0  0  0  0  0
  151.7841  146.0620  159.0063 H   0  0  0  0  0  0  0  0  0  0  0  0
  150.8011  144.8066  156.8510 H   0  0  0  0  0  0  0  0  0  0  0  0
  152.5182  144.6365  157.2061 H   0  0  0  0  0  0  0  0  0  0  0  0
  149.6012  143.1298  157.1015 H   0  0  0  0  0  0  0  0  0  0  0  0
  151.9727  142.3729  155.8433 H   0  0  0  0  0  0  0  0  0  0  0  0
  153.2064  142.0812  157.0458 H   0  0  0  0  0  0  0  0  0  0  0  0
  152.5057  140.0209  158.8462 H   0  0  0  0  0  0  0  0  0  0  0  0
  148.4850  135.9569  157.4842 H   0  0  0  0  0  0  0  0  0  0  0  0
  147.9076  136.7429  156.0004 H   0  0  0  0  0  0  0  0  0  0  0  0
  149.1154  133.0017  153.6064 H   0  0  0  0  0  0  0  0  0  0  0  0
  150.8269  133.1925  153.8816 H   0  0  0  0  0  0  0  0  0  0  0  0
  150.9554  135.7000  154.2967 H   0  0  0  0  0  0  0  0  0  0  0  0
  151.5167  134.9433  155.7927 H   0  0  0  0  0  0  0  0  0  0  0  0
  149.4873  139.6143  153.1702 H   0  0  0  0  0  0  0  0  0  0  0  0
  1  2  1  0  0  0  0
  1 29  1  0  0  0  0
  1 30  1  0  0  0  0
  1 31  1  0  0  0  0
  2  6  1  0  0  0  0
  2  3  1  0  0  0  0
  2 32  1  0  0  0  0
  3  4  1  0  0  0  0
  4  5  1  0  0  0  0
  4 33  1  0  0  0  0
  4 34  1  0  0  0  0
  5  6  1  0  0  0  0
  5 35  1  0  0  0  0
  5 36  1  0  0  0  0
  6  7  1  0  0  0  0
  6  8  1  0  0  0  0
  7 37  1  0  0  0  0
  8  9  1  0  0  0  0
  8 38  1  0  0  0  0
  8 39  1  0  0  0  0
  9 28  1  0  0  0  0
  9 10  1  0  0  0  0
 10 11  2  0  0  0  0
 10 40  1  0  0  0  0
 11 12  1  0  0  0  0
 12 28  2  0  0  0  0
 12 13  1  0  0  0  0
 13 14  1  0  0  0  0
 13 25  2  0  0  0  0
 14 24  1  0  0  0  0
 14 15  1  0  0  0  0
 15 16  1  0  0  0  0
 15 41  1  0  0  0  0
 15 42  1  0  0  0  0
 16 17  2  0  0  0  0
 16 18  1  0  0  0  0
 18 19  1  0  0  0  0
 18 24  1  0  0  0  0
 19 20  1  0  0  0  0
 19 43  1  0  0  0  0
 19 44  1  0  0  0  0
 20 21  1  0  0  0  0
 20 22  1  0  0  0  0
 20 23  1  0  0  0  0
 24 45  1  0  0  0  0
 24 46  1  0  0  0  0
 25 26  1  0  0  0  0
 26 27  2  0  0  0  0
 26 47  1  0  0  0  0
 27 28  1  0  0  0  0
M  END
> <s_m_source_file>
AV-unprocessed.smi

> <i_m_source_file_index>
175

> <i_lp_mmshare_version>
43012

> <i_f3d_flags>
0

> <s_epik_input>
W0NIMl0xW0NIMl1PW0NAQEhdKFtDSDNdKVtDQEBdMShbT0hdKVtDSDJdbihbY0hdbjIpYyhjMjMpbltjSF1uYzNONFtDSDJdQyg9TylOKFtDSDJdNClbQ0gyXUMoRikoRilG

> <s_epik_cmdline>
J2VwaWtfcHl0aG9uJywgJy1waCcsICc3LjAnLCAnLXRuJywgJzgnLCAnLW1hJywgJzIwMCcsICctbWV0YWxfYmluZGluZycsICctaW1hZScsICc8aW5maWxlLm1hZT4nLCAnLW9tYWUnLCAnPG91dGZpbGUubWFlPic=

> <r_lp_tautomer_probability>
1

> <r_epik_Ionization_Penalty>
0.000307802

> <r_epik_Ionization_Penalty_Charging>
0

> <r_epik_Ionization_Penalty_Neutral>
0.000307802

> <r_epik_State_Penalty>
-0

> <r_epik_Charging_Adjusted_Penalty>
0

> <i_epik_Tot_Q>
0

> <i_epik_Tot_abs_Q>
0

> <r_epik_Metal_State_Penalty>
-0

> <b_epik_Metal_Only>
0

> <s_epik_Chemistry_Notes>
This compound contains an acetal/aminal-like group ( X-CH(R)-Y where X, Y are N, S, or O) that may be acid/base labile, releasing an aldehyde.

> <s_lp_Force_Field>
OPLS_2005

> <r_lp_Energy>
36.4888

> <b_lp_Chiralities_Consistent>
1

> <s_lp_Variant>
AV-unprocessed.smi:175-4

> <Gold.Version>
5.8.1

> <Gold.Id.Protein>
6NUR|6NUR_protein|mol2

> <Gold.PLP.Fitness>
44.5082

> <Gold.PLP.PLP>
-37.4999

> <Gold.PLP.part.hbond>
-1.5390

> <Gold.PLP.part.metal>
0.0000

> <Gold.PLP.part.buried>
-5.8299

> <Gold.PLP.part.nonpolar>
-29.9413

> <Gold.PLP.part.repulsive>
0.3668

> <Gold.PLP.ligand.clash>
0.0000

> <Gold.PLP.ligand.torsion>
0.3882

> <Gold.PLP.Chemscore.Hbond>
1.4875

> <Gold.PLP.Chemscore.CHOScore>
1.0000

> <Gold.PLP.Chemscore.Metal>
0.0000

> <Gold.Chemscore.Hbonds>
donor molecule, donor type, donor heavy atom, donor atom, acceptor molecule, acceptor atom, score
      L1  H     7    37       P1  8028  0.44
      P1  H  7989  7998       L1    27  1.00
      L1  C    26    47       P1  7957  1.00

> <Gold.PLP.Chemscore.Internal.Correction>
0.3223

> <Gold.Rescore>
     Score         DG    S(hbond)    S(metal)    S(lipo)     H(rot)  DE(clash)    DE(int)     intcor
      7.82     -12.96       1.79        0.00      79.63       3.05       1.91       3.23       ----

> <Gold.Chemscore.Fitness>
7.8235

> <Gold.Chemscore.DG>
-12.9634

> <Gold.Chemscore.ZeroCoef>
-5.4800

> <Gold.Chemscore.Hbond>
1.7878

> <Gold.Chemscore.Metal>
0.0000

> <Gold.Chemscore.Lipo>
79.6314

> <Gold.Chemscore.Internal_Hbond>
0.0000

> <Gold.Chemscore.DEClash>
1.9121

> <Gold.Chemscore.DEInternal>
3.2278

> <Gold.Chemscore.Rot>
3.0487

> <Gold.Chemscore.Internal.Correction>
   9.000000E+99

> <Gold.Chemscore.Hbonds>
donor molecule, donor type, donor heavy atom, donor atom, acceptor molecule, acceptor atom, score
      L1  H     7    37       P1  8028  0.43
      P1  H  7989  7998       L1    27  0.25

> <Gold.Chemscore.Hbond.Weighted>
-5.9711

> <Gold.Chemscore.Metal.Weighted>
-0.0000

> <Gold.Chemscore.Lipo.Weighted>
-9.3169

> <Gold.Chemscore.Internal_Hbond.Weighted>
0.0000

> <Gold.Chemscore.DEClash.Weighted>
1.9121

> <Gold.Chemscore.DEInternal.Weighted>
3.2278

> <Gold.Chemscore.Rot.Weighted>
7.8046

> <Gold.Chemscore.Internal.Correction.Weighted>
   9.000000E+99

> <Gold.Protein.RotatedTorsions>
[ 6907 6896 6895 6894 ] final -139.85 input  -60.11 | X-H torsion
[ 7974 7965 7964 7962 ] final   79.95 input  175.53 | X-H torsion
[ 8008 7997 7996 7995 ] final  -61.37 input   59.86 | X-H torsion
[ 10167 10162 10161 10158 ] final  -72.54 input  -65.29 | X-H torsion
[ 10718 10713 10712 10709 ] final   83.11 input   66.30 | X-H torsion
[ 10763 10752 10751 10750 ] final   10.76 input  -60.55 | X-H torsion
[ 11005 11000 10999 10996 ] final   -9.65 input  -57.11 | X-H torsion

> <Gold.Protein.ActiveResidues>
 VAL166  LYS551  ARG553  GLY616  TRP617  ASP618  TYR619  PRO620  LYS621  CYS622 
 ASP623  PHE694  ASN695  SER759  ASP760  ASP761  ALA762  ILE779  LEU786  VAL792 
 PHE793  MET794  SER795  GLU796  ALA797  LYS798  CYS799  TRP800  GLU811  SER814 

> <Gold.Protein.RotatedAtoms>
  151.0531  133.5607  159.2640 H   0  0  0  0  0  0  0  0  0  0  0  0  # atno 6907 bound_to 6896
  151.2610  135.0653  159.9108 H   0  0  0  0  0  0  0  0  0  0  0  0  # atno 6908 bound_to 6896
  152.5385  134.0277  159.8064 H   0  0  0  0  0  0  0  0  0  0  0  0  # atno 6909 bound_to 6896
  145.6575  139.2463  143.1941 H   0  0  0  0  0  0  0  0  0  0  0  0  # atno 7974 bound_to 7965
  154.4444  140.1019  156.6420 H   0  0  0  0  0  0  0  0  0  0  0  0  # atno 8008 bound_to 7997
  155.5491  140.3485  155.4446 H   0  0  0  0  0  0  0  0  0  0  0  0  # atno 8009 bound_to 7997
  156.0542  140.1311  157.0005 H   0  0  0  0  0  0  0  0  0  0  0  0  # atno 8010 bound_to 7997
  140.5184  143.2335  151.7473 H   0  0  0  0  0  0  0  0  0  0  0  0  # atno 10167 bound_to 10162
  157.6872  131.0077  150.2475 H   0  0  0  0  0  0  0  0  0  0  0  0  # atno 10718 bound_to 10713
  153.1997  135.6854  153.8246 H   0  0  0  0  0  0  0  0  0  0  0  0  # atno 10763 bound_to 10752
  153.7517  135.3223  155.3323 H   0  0  0  0  0  0  0  0  0  0  0  0  # atno 10764 bound_to 10752
  154.8164  135.4682  154.0758 H   0  0  0  0  0  0  0  0  0  0  0  0  # atno 10765 bound_to 10752
  140.7364  133.8706  155.8933 H   0  0  0  0  0  0  0  0  0  0  0  0  # atno 11005 bound_to 11000
  146.1153  140.7378  142.9484 LP  0  0  0  0  0  0  0  0  0  0  0  0  # atno 17320 bound_to 7965
  144.7101  140.4004  143.7087 LP  0  0  0  0  0  0  0  0  0  0  0  0  # atno 17321 bound_to 7965
  139.4916  144.4290  151.9893 LP  0  0  0  0  0  0  0  0  0  0  0  0  # atno 17342 bound_to 10162
  140.3386  144.3231  150.5972 LP  0  0  0  0  0  0  0  0  0  0  0  0  # atno 17343 bound_to 10162
  156.3078  130.3767  149.7690 LP  0  0  0  0  0  0  0  0  0  0  0  0  # atno 17370 bound_to 10713
  156.5300  130.8253  151.3234 LP  0  0  0  0  0  0  0  0  0  0  0  0  # atno 17371 bound_to 10713
  140.9875  134.1323  157.4438 LP  0  0  0  0  0  0  0  0  0  0  0  0  # atno 17394 bound_to 11000
  139.8815  135.0030  156.6161 LP  0  0  0  0  0  0  0  0  0  0  0  0  # atno 17395 bound_to 11000

$$$$
