AV-unprocessed.smi:1163|AV-procd|sdf|4920|dock3
  -GOLD-   22720 3503D 1   1.00000     0.00000
 Structure written by MMmdl.
 39 40  0  0  0  0  0  0  0  0  1 V2000
  150.5155  142.7292  157.9833 C   0  0  0  0  0  0  0  0  0  0  0  0
  151.2586  141.8146  157.1849 O   0  0  0  0  0  0  0  0  0  0  0  0
  150.5677  140.9842  156.3261 C   0  0  0  0  0  0  0  0  0  0  0  0
  151.3010  140.1607  155.4488 C   0  0  0  0  0  0  0  0  0  0  0  0
  150.6006  139.3136  154.5693 C   0  0  0  0  0  0  0  0  0  0  0  0
  149.1913  139.3212  154.5834 C   0  0  0  0  0  0  0  0  0  0  0  0
  148.5062  138.4440  153.6999 N   0  0  0  0  0  0  0  0  0  0  0  0
  147.1846  138.3630  153.4696 C   0  0  0  0  0  0  0  0  0  0  0  0
  146.3299  139.0933  153.9710 O   0  0  0  0  0  0  0  0  0  0  0  0
  146.9021  137.3898  152.5921 N   0  0  0  0  0  0  0  0  0  0  0  0
  145.5629  137.0604  152.1140 C   0  0  2  0  0  0  0  0  0  0  0  0
  144.8005  136.1640  153.0838 C   0  0  0  0  0  0  0  0  0  0  0  0
  144.0092  135.2530  152.1534 C   0  0  0  0  0  0  0  0  0  0  0  0
  144.9627  134.9848  151.0884 N   0  0  0  0  0  0  0  0  0  0  0  0
  144.3229  134.3647  149.9302 C   0  0  0  0  0  0  0  0  0  0  0  0
  144.2074  132.8330  150.0548 C   0  0  0  0  0  0  0  0  0  0  0  0
  145.4113  132.3364  150.3353 F   0  0  0  0  0  0  0  0  0  0  0  0
  143.3736  132.4815  151.0336 F   0  0  0  0  0  0  0  0  0  0  0  0
  143.7877  132.3025  148.9058 F   0  0  0  0  0  0  0  0  0  0  0  0
  145.5981  136.2683  150.7950 C   0  0  0  0  0  0  0  0  0  0  0  0
  148.5462  140.1749  155.5111 C   0  0  0  0  0  0  0  0  0  0  0  0
  149.2122  140.9871  156.3596 N   0  0  0  0  0  0  0  0  0  0  0  0
  151.2014  143.3099  158.5998 H   0  0  0  0  0  0  0  0  0  0  0  0
  149.8298  142.2083  158.6531 H   0  0  0  0  0  0  0  0  0  0  0  0
  149.9508  143.4304  157.3671 H   0  0  0  0  0  0  0  0  0  0  0  0
  152.3808  140.1782  155.4512 H   0  0  0  0  0  0  0  0  0  0  0  0
  151.1416  138.6710  153.8898 H   0  0  0  0  0  0  0  0  0  0  0  0
  149.0943  137.8441  153.1401 H   0  0  0  0  0  0  0  0  0  0  0  0
  147.6654  136.8422  152.2224 H   0  0  0  0  0  0  0  0  0  0  0  0
  144.9907  137.9776  151.9610 H   0  0  0  0  0  0  0  0  0  0  0  0
  145.4858  135.5651  153.6866 H   0  0  0  0  0  0  0  0  0  0  0  0
  144.1603  136.7275  153.7635 H   0  0  0  0  0  0  0  0  0  0  0  0
  143.6736  134.3384  152.6429 H   0  0  0  0  0  0  0  0  0  0  0  0
  143.1374  135.7783  151.7592 H   0  0  0  0  0  0  0  0  0  0  0  0
  143.3161  134.7759  149.8438 H   0  0  0  0  0  0  0  0  0  0  0  0
  144.8496  134.6370  149.0145 H   0  0  0  0  0  0  0  0  0  0  0  0
  145.0320  136.8098  150.0356 H   0  0  0  0  0  0  0  0  0  0  0  0
  146.6091  136.1177  150.4150 H   0  0  0  0  0  0  0  0  0  0  0  0
  147.4719  140.2055  155.6065 H   0  0  0  0  0  0  0  0  0  0  0  0
  1  2  1  0  0  0  0
  1 23  1  0  0  0  0
  1 24  1  0  0  0  0
  1 25  1  0  0  0  0
  2  3  1  0  0  0  0
  3 22  1  0  0  0  0
  3  4  2  0  0  0  0
  4  5  1  0  0  0  0
  4 26  1  0  0  0  0
  5  6  2  0  0  0  0
  5 27  1  0  0  0  0
  6  7  1  0  0  0  0
  6 21  1  0  0  0  0
  7  8  1  0  0  0  0
  7 28  1  0  0  0  0
  8  9  2  0  0  0  0
  8 10  1  0  0  0  0
 10 11  1  0  0  0  0
 10 29  1  0  0  0  0
 11 20  1  0  0  0  0
 11 12  1  0  0  0  0
 11 30  1  0  0  0  0
 12 13  1  0  0  0  0
 12 31  1  0  0  0  0
 12 32  1  0  0  0  0
 13 14  1  0  0  0  0
 13 33  1  0  0  0  0
 13 34  1  0  0  0  0
 14 15  1  0  0  0  0
 14 20  1  0  0  0  0
 15 16  1  0  0  0  0
 15 35  1  0  0  0  0
 15 36  1  0  0  0  0
 16 17  1  0  0  0  0
 16 18  1  0  0  0  0
 16 19  1  0  0  0  0
 20 37  1  0  0  0  0
 20 38  1  0  0  0  0
 21 22  2  0  0  0  0
 21 39  1  0  0  0  0
M  END
> <s_m_source_file>
AV-unprocessed.smi

> <i_m_source_file_index>
1163

> <i_lp_mmshare_version>
43012

> <i_f3d_flags>
0

> <s_epik_input>
W0NIM11PYzFbY0hdW2NIXWMoW2NIXW4xKVtOSF1DKD1PKVtOSF1bQ0BASF0yW0NIMl1bQ0gyXU4oW0NIMl0yKVtDSDJdQyhGKShGKUY=

> <s_epik_cmdline>
J2VwaWtfcHl0aG9uJywgJy1waCcsICc3LjAnLCAnLXRuJywgJzgnLCAnLW1hJywgJzIwMCcsICctbWV0YWxfYmluZGluZycsICctaW1hZScsICc8aW5maWxlLm1hZT4nLCAnLW9tYWUnLCAnPG91dGZpbGUubWFlPic=

> <r_lp_tautomer_probability>
1

> <r_epik_Ionization_Penalty>
0.0970123

> <r_epik_Ionization_Penalty_Charging>
0

> <r_epik_Ionization_Penalty_Neutral>
0.0970123

> <r_epik_State_Penalty>
0.0870533

> <r_epik_Charging_Adjusted_Penalty>
0.0870533

> <i_epik_Tot_Q>
0

> <i_epik_Tot_abs_Q>
0

> <r_epik_Metal_State_Penalty>
0.0870519

> <b_epik_Metal_Only>
0

> <s_lp_Force_Field>
OPLS_2005

> <r_lp_Energy>
33.5904

> <b_lp_Chiralities_Consistent>
1

> <s_lp_Variant>
AV-unprocessed.smi:1163-1

> <Gold.Version>
5.8.1

> <Gold.Id.Protein>
6NUR|6NUR_protein|mol2

> <Gold.PLP.Fitness>
39.5520

> <Gold.PLP.PLP>
-35.4681

> <Gold.PLP.part.hbond>
-2.1572

> <Gold.PLP.part.metal>
0.0000

> <Gold.PLP.part.buried>
-0.2833

> <Gold.PLP.part.nonpolar>
-34.3525

> <Gold.PLP.part.repulsive>
0.5322

> <Gold.PLP.ligand.clash>
0.0000

> <Gold.PLP.ligand.torsion>
0.6638

> <Gold.PLP.Chemscore.Hbond>
1.6535

> <Gold.PLP.Chemscore.CHOScore>
0.0000

> <Gold.PLP.Chemscore.Metal>
0.0000

> <Gold.Chemscore.Hbonds>
donor molecule, donor type, donor heavy atom, donor atom, acceptor molecule, acceptor atom, score
      L1  H     7    28       P1  7948  0.82
      L1  H    10    29       P1  7948  0.81

> <Gold.PLP.Chemscore.Internal.Correction>
0.4511

> <Gold.Rescore>
     Score         DG    S(hbond)    S(metal)    S(lipo)     H(rot)  DE(clash)    DE(int)     intcor
     12.83     -15.46       1.87        0.00      68.14       1.65       0.76       1.86       ----

> <Gold.Chemscore.Fitness>
12.8318

> <Gold.Chemscore.DG>
-15.4551

> <Gold.Chemscore.ZeroCoef>
-5.4800

> <Gold.Chemscore.Hbond>
1.8654

> <Gold.Chemscore.Metal>
0.0000

> <Gold.Chemscore.Lipo>
68.1411

> <Gold.Chemscore.Internal_Hbond>
0.0000

> <Gold.Chemscore.DEClash>
0.7631

> <Gold.Chemscore.DEInternal>
1.8603

> <Gold.Chemscore.Rot>
1.6515

> <Gold.Chemscore.Internal.Correction>
   9.000000E+99

> <Gold.Chemscore.Hbonds>
donor molecule, donor type, donor heavy atom, donor atom, acceptor molecule, acceptor atom, score
      L1  H     7    28       P1  7948  0.77
      L1  H    10    29       P1  7948  0.80

> <Gold.Chemscore.Hbond.Weighted>
-6.2305

> <Gold.Chemscore.Metal.Weighted>
-0.0000

> <Gold.Chemscore.Lipo.Weighted>
-7.9725

> <Gold.Chemscore.Internal_Hbond.Weighted>
0.0000

> <Gold.Chemscore.DEClash.Weighted>
0.7631

> <Gold.Chemscore.DEInternal.Weighted>
1.8603

> <Gold.Chemscore.Rot.Weighted>
4.2279

> <Gold.Chemscore.Internal.Correction.Weighted>
   9.000000E+99

> <Gold.Protein.RotatedTorsions>
[ 6907 6896 6895 6894 ] final  -51.76 input  -60.11 | X-H torsion
[ 7974 7965 7964 7962 ] final -161.76 input  175.53 | X-H torsion
[ 8008 7997 7996 7995 ] final  -17.39 input   59.86 | X-H torsion
[ 10167 10162 10161 10158 ] final  156.98 input  -65.29 | X-H torsion
[ 10718 10713 10712 10709 ] final  177.23 input   66.30 | X-H torsion
[ 10763 10752 10751 10750 ] final   64.20 input  -60.55 | X-H torsion
[ 11005 11000 10999 10996 ] final  -51.91 input  -57.11 | X-H torsion

> <Gold.Protein.ActiveResidues>
 VAL166  LYS551  ARG553  GLY616  TRP617  ASP618  TYR619  PRO620  LYS621  CYS622 
 ASP623  PHE694  ASN695  SER759  ASP760  ASP761  ALA762  ILE779  LEU786  VAL792 
 PHE793  MET794  SER795  GLU796  ALA797  LYS798  CYS799  TRP800  GLU811  SER814 

> <Gold.Protein.RotatedAtoms>
  150.8581  134.7926  159.7061 H   0  0  0  0  0  0  0  0  0  0  0  0  # atno 6907 bound_to 6896
  152.4627  134.5145  159.9773 H   0  0  0  0  0  0  0  0  0  0  0  0  # atno 6908 bound_to 6896
  151.5253  133.3420  159.2944 H   0  0  0  0  0  0  0  0  0  0  0  0  # atno 6909 bound_to 6896
  144.7380  140.3351  143.6145 H   0  0  0  0  0  0  0  0  0  0  0  0  # atno 7974 bound_to 7965
  154.4982  140.2144  155.9403 H   0  0  0  0  0  0  0  0  0  0  0  0  # atno 8008 bound_to 7997
  156.1398  140.3181  155.8445 H   0  0  0  0  0  0  0  0  0  0  0  0  # atno 8009 bound_to 7997
  155.4141  140.0492  157.3020 H   0  0  0  0  0  0  0  0  0  0  0  0  # atno 8010 bound_to 7997
  139.4822  144.4959  151.8240 H   0  0  0  0  0  0  0  0  0  0  0  0  # atno 10167 bound_to 10162
  156.9083  130.9901  151.3025 H   0  0  0  0  0  0  0  0  0  0  0  0  # atno 10718 bound_to 10713
  153.0046  135.5401  154.6472 H   0  0  0  0  0  0  0  0  0  0  0  0  # atno 10763 bound_to 10752
  154.5713  135.2842  155.0826 H   0  0  0  0  0  0  0  0  0  0  0  0  # atno 10764 bound_to 10752
  154.1991  135.6487  153.5134 H   0  0  0  0  0  0  0  0  0  0  0  0  # atno 10765 bound_to 10752
  141.0896  133.6635  156.3947 H   0  0  0  0  0  0  0  0  0  0  0  0  # atno 11005 bound_to 11000
  145.7431  139.1770  143.2364 LP  0  0  0  0  0  0  0  0  0  0  0  0  # atno 17320 bound_to 7965
  146.1118  140.7418  142.9499 LP  0  0  0  0  0  0  0  0  0  0  0  0  # atno 17321 bound_to 7965
  140.4448  144.1937  150.5893 LP  0  0  0  0  0  0  0  0  0  0  0  0  # atno 17342 bound_to 10162
  140.4646  143.2435  151.9173 LP  0  0  0  0  0  0  0  0  0  0  0  0  # atno 17343 bound_to 10162
  157.5983  130.8494  149.8763 LP  0  0  0  0  0  0  0  0  0  0  0  0  # atno 17370 bound_to 10713
  156.0548  130.3710  150.1117 LP  0  0  0  0  0  0  0  0  0  0  0  0  # atno 17371 bound_to 10713
  140.5282  134.6238  157.5341 LP  0  0  0  0  0  0  0  0  0  0  0  0  # atno 17394 bound_to 11000
  139.9720  134.7277  156.0023 LP  0  0  0  0  0  0  0  0  0  0  0  0  # atno 17395 bound_to 11000

$$$$
