AV-unprocessed.smi:3094|AV-procd|sdf|11790|dock5
  -GOLD-   2272017163D 1   1.00000     0.00000
 Structure written by MMmdl.
 29 30  0  0  0  0  0  0  0  0  1 V2000
  150.2090  141.9545  158.4592 C   0  0  0  0  0  0  0  0  0  0  0  0
  150.8490  142.3161  157.1103 C   0  0  2  0  0  0  0  0  0  0  0  0
  151.5579  143.6825  157.1700 C   0  0  0  0  0  0  0  0  0  0  0  0
  151.6866  144.1768  158.5285 N   0  0  0  0  0  0  0  0  0  0  0  0
  152.5875  143.7476  159.4942 C   0  0  0  0  0  0  0  0  0  0  0  0
  152.3456  144.5015  160.6202 C   0  0  0  0  0  0  0  0  0  0  0  0
  151.3045  145.3932  160.3727 N   0  0  0  0  0  0  0  0  0  0  0  0
  150.9640  145.1408  159.1155 C   0  0  0  0  0  0  0  0  0  0  0  0
  149.8297  142.3253  156.0623 N   0  0  0  0  0  0  0  0  0  0  0  0
  149.7582  141.4636  155.0363 C   0  0  0  0  0  0  0  0  0  0  0  0
  150.5534  140.5361  154.8797 O   0  0  0  0  0  0  0  0  0  0  0  0
  148.6267  141.7334  154.0996 C   0  0  0  0  0  0  0  0  0  0  0  0
  147.2379  141.8586  154.6920 C   0  0  0  0  0  0  0  0  0  0  0  0
  147.6065  140.6319  153.8958 C   0  0  0  0  0  0  0  0  0  0  0  0
  150.9567  141.9259  159.2522 H   0  0  0  0  0  0  0  0  0  0  0  0
  149.7357  140.9728  158.4212 H   0  0  0  0  0  0  0  0  0  0  0  0
  149.4479  142.6811  158.7456 H   0  0  0  0  0  0  0  0  0  0  0  0
  151.5999  141.5580  156.8791 H   0  0  0  0  0  0  0  0  0  0  0  0
  152.5496  143.6242  156.7182 H   0  0  0  0  0  0  0  0  0  0  0  0
  150.9965  144.4218  156.5976 H   0  0  0  0  0  0  0  0  0  0  0  0
  153.3081  142.9657  159.3042 H   0  0  0  0  0  0  0  0  0  0  0  0
  152.8368  144.4705  161.5816 H   0  0  0  0  0  0  0  0  0  0  0  0
  150.1731  145.6733  158.6078 H   0  0  0  0  0  0  0  0  0  0  0  0
  149.1338  143.0550  156.1123 H   0  0  0  0  0  0  0  0  0  0  0  0
  148.8482  142.3589  153.2359 H   0  0  0  0  0  0  0  0  0  0  0  0
  147.1176  141.7395  155.7675 H   0  0  0  0  0  0  0  0  0  0  0  0
  146.5698  142.5844  154.2331 H   0  0  0  0  0  0  0  0  0  0  0  0
  147.1886  140.5258  152.8968 H   0  0  0  0  0  0  0  0  0  0  0  0
  147.7309  139.6989  154.4430 H   0  0  0  0  0  0  0  0  0  0  0  0
  1  2  1  0  0  0  0
  1 15  1  0  0  0  0
  1 16  1  0  0  0  0
  1 17  1  0  0  0  0
  2  3  1  0  0  0  0
  2  9  1  0  0  0  0
  2 18  1  0  0  0  0
  3  4  1  0  0  0  0
  3 19  1  0  0  0  0
  3 20  1  0  0  0  0
  4  8  1  0  0  0  0
  4  5  1  0  0  0  0
  5  6  2  0  0  0  0
  5 21  1  0  0  0  0
  6  7  1  0  0  0  0
  6 22  1  0  0  0  0
  7  8  2  0  0  0  0
  8 23  1  0  0  0  0
  9 10  1  0  0  0  0
  9 24  1  0  0  0  0
 10 11  2  0  0  0  0
 10 12  1  0  0  0  0
 12 14  1  0  0  0  0
 12 13  1  0  0  0  0
 12 25  1  0  0  0  0
 13 14  1  0  0  0  0
 13 26  1  0  0  0  0
 13 27  1  0  0  0  0
 14 28  1  0  0  0  0
 14 29  1  0  0  0  0
M  END
> <s_m_source_file>
AV-unprocessed.smi

> <i_m_source_file_index>
3094

> <i_lp_mmshare_version>
43012

> <i_f3d_flags>
0

> <s_epik_input>
W0NIMl0xW0NIMl1bQ0hdMUMoPU8pW05IXVtDQEhdKFtDSDNdKVtDSDJdbjJbY0hdW2NIXW5bY0hdMg==

> <s_epik_cmdline>
J2VwaWtfcHl0aG9uJywgJy1waCcsICc3LjAnLCAnLXRuJywgJzgnLCAnLW1hJywgJzIwMCcsICctbWV0YWxfYmluZGluZycsICctaW1hZScsICc8aW5maWxlLm1hZT4nLCAnLW9tYWUnLCAnPG91dGZpbGUubWFlPic=

> <r_lp_tautomer_probability>
1

> <r_epik_Ionization_Penalty>
0.642614

> <r_epik_Ionization_Penalty_Charging>
0.642614

> <r_epik_Ionization_Penalty_Neutral>
4.09963e-08

> <r_epik_State_Penalty>
0.660429

> <r_epik_Charging_Adjusted_Penalty>
1.30304

> <i_epik_Tot_Q>
0

> <i_epik_Tot_abs_Q>
0

> <r_epik_Metal_State_Penalty>
0.31224

> <b_epik_Metal_Only>
0

> <s_lp_Force_Field>
OPLS_2005

> <r_lp_Energy>
8.14958

> <b_lp_Chiralities_Consistent>
1

> <s_lp_Variant>
AV-unprocessed.smi:3094-3

> <Gold.Version>
5.8.1

> <Gold.Id.Protein>
6NUR|6NUR_protein|mol2

> <Gold.PLP.Fitness>
41.5806

> <Gold.PLP.PLP>
-34.3879

> <Gold.PLP.part.hbond>
-2.3117

> <Gold.PLP.part.metal>
0.0000

> <Gold.PLP.part.buried>
-1.8905

> <Gold.PLP.part.nonpolar>
-29.8366

> <Gold.PLP.part.repulsive>
0.4095

> <Gold.PLP.ligand.clash>
0.0000

> <Gold.PLP.ligand.torsion>
0.9609

> <Gold.PLP.Chemscore.Hbond>
2.0000

> <Gold.PLP.Chemscore.CHOScore>
1.0000

> <Gold.PLP.Chemscore.Metal>
0.0000

> <Gold.Chemscore.Hbonds>
donor molecule, donor type, donor heavy atom, donor atom, acceptor molecule, acceptor atom, score
      L1  H     9    24       P1  8028  0.83
      P1  H  7989  7998       L1    11  0.99
      L1  C     8    23       P1  8029  0.74

> <Gold.PLP.Chemscore.Internal.Correction>
0.1145

> <Gold.Rescore>
     Score         DG    S(hbond)    S(metal)    S(lipo)     H(rot)  DE(clash)    DE(int)     intcor
     12.29     -13.83       1.52        0.00      68.11       1.83       0.44       1.10       ----

> <Gold.Chemscore.Fitness>
12.2935

> <Gold.Chemscore.DG>
-13.8341

> <Gold.Chemscore.ZeroCoef>
-5.4800

> <Gold.Chemscore.Hbond>
1.5216

> <Gold.Chemscore.Metal>
0.0000

> <Gold.Chemscore.Lipo>
68.1090

> <Gold.Chemscore.Internal_Hbond>
0.0000

> <Gold.Chemscore.DEClash>
0.4375

> <Gold.Chemscore.DEInternal>
1.1031

> <Gold.Chemscore.Rot>
1.8347

> <Gold.Chemscore.Internal.Correction>
   9.000000E+99

> <Gold.Chemscore.Hbonds>
donor molecule, donor type, donor heavy atom, donor atom, acceptor molecule, acceptor atom, score
      L1  H     9    24       P1  8028  0.81
      P1  H  7989  7998       L1    11  0.70

> <Gold.Chemscore.Hbond.Weighted>
-5.0822

> <Gold.Chemscore.Metal.Weighted>
-0.0000

> <Gold.Chemscore.Lipo.Weighted>
-7.9687

> <Gold.Chemscore.Internal_Hbond.Weighted>
0.0000

> <Gold.Chemscore.DEClash.Weighted>
0.4375

> <Gold.Chemscore.DEInternal.Weighted>
1.1031

> <Gold.Chemscore.Rot.Weighted>
4.6969

> <Gold.Chemscore.Internal.Correction.Weighted>
   9.000000E+99

> <Gold.Protein.RotatedTorsions>
[ 6907 6896 6895 6894 ] final -116.70 input  -60.11 | X-H torsion
[ 7974 7965 7964 7962 ] final   40.04 input  175.53 | X-H torsion
[ 8008 7997 7996 7995 ] final  138.06 input   59.86 | X-H torsion
[ 10167 10162 10161 10158 ] final -174.01 input  -65.29 | X-H torsion
[ 10718 10713 10712 10709 ] final   52.55 input   66.30 | X-H torsion
[ 10763 10752 10751 10750 ] final -151.26 input  -60.55 | X-H torsion
[ 11005 11000 10999 10996 ] final   89.68 input  -57.11 | X-H torsion

> <Gold.Protein.ActiveResidues>
 VAL166  LYS551  ARG553  GLY616  TRP617  ASP618  TYR619  PRO620  LYS621  CYS622 
 ASP623  PHE694  ASN695  SER759  ASP760  ASP761  ALA762  ILE779  LEU786  VAL792 
 PHE793  MET794  SER795  GLU796  ALA797  LYS798  CYS799  TRP800  GLU811  SER814 

> <Gold.Protein.RotatedAtoms>
  150.8077  133.8480  159.3197 H   0  0  0  0  0  0  0  0  0  0  0  0  # atno 6907 bound_to 6896
  151.6274  135.1024  160.0124 H   0  0  0  0  0  0  0  0  0  0  0  0  # atno 6908 bound_to 6896
  152.4168  133.7011  159.6481 H   0  0  0  0  0  0  0  0  0  0  0  0  # atno 6909 bound_to 6896
  146.0936  139.5580  142.9459 H   0  0  0  0  0  0  0  0  0  0  0  0  # atno 7974 bound_to 7965
  156.2999  140.2403  156.4012 H   0  0  0  0  0  0  0  0  0  0  0  0  # atno 8008 bound_to 7997
  154.8525  140.0423  157.1633 H   0  0  0  0  0  0  0  0  0  0  0  0  # atno 8009 bound_to 7997
  154.8983  140.2973  155.5336 H   0  0  0  0  0  0  0  0  0  0  0  0  # atno 8010 bound_to 7997
  139.5657  144.1761  152.1309 H   0  0  0  0  0  0  0  0  0  0  0  0  # atno 10167 bound_to 10162
  157.5085  130.8485  149.8405 H   0  0  0  0  0  0  0  0  0  0  0  0  # atno 10718 bound_to 10713
  154.8069  135.3264  154.7408 H   0  0  0  0  0  0  0  0  0  0  0  0  # atno 10763 bound_to 10752
  153.8065  135.6899  153.4852 H   0  0  0  0  0  0  0  0  0  0  0  0  # atno 10764 bound_to 10752
  153.1820  135.4583  154.9985 H   0  0  0  0  0  0  0  0  0  0  0  0  # atno 10765 bound_to 10752
  139.8870  134.8566  156.3176 H   0  0  0  0  0  0  0  0  0  0  0  0  # atno 11005 bound_to 11000
  145.5990  141.0358  143.2028 LP  0  0  0  0  0  0  0  0  0  0  0  0  # atno 17320 bound_to 7965
  144.7379  139.7533  143.7322 LP  0  0  0  0  0  0  0  0  0  0  0  0  # atno 17321 bound_to 7965
  140.1284  144.5311  150.6818 LP  0  0  0  0  0  0  0  0  0  0  0  0  # atno 17342 bound_to 10162
  140.6940  143.2393  151.5051 LP  0  0  0  0  0  0  0  0  0  0  0  0  # atno 17343 bound_to 10162
  156.0274  130.3775  150.1785 LP  0  0  0  0  0  0  0  0  0  0  0  0  # atno 17370 bound_to 10713
  156.9975  130.9912  151.3399 LP  0  0  0  0  0  0  0  0  0  0  0  0  # atno 17371 bound_to 10713
  140.9808  133.7268  156.0670 LP  0  0  0  0  0  0  0  0  0  0  0  0  # atno 17394 bound_to 11000
  140.7751  134.3788  157.5499 LP  0  0  0  0  0  0  0  0  0  0  0  0  # atno 17395 bound_to 11000

$$$$
