AV-unprocessed.smi:1758|AV-procd|sdf|7084|dock8
  -GOLD-   22720 8303D 1   1.00000     0.00000
 Structure written by MMmdl.
 44 46  0  0  0  0  0  0  0  0  2 V2000
  147.9673  122.7013  150.7769 C   0  0  0  0  0  0  0  0  0  0  0  0
  148.6616  123.5942  151.8119 C   0  0  0  0  0  0  0  0  0  0  0  0
  148.6369  124.9898  151.4207 N   0  0  0  0  0  0  0  0  0  0  0  0
  148.0107  126.0435  152.0559 C   0  0  0  0  0  0  0  0  0  0  0  0
  148.2877  127.1474  151.2998 C   0  0  0  0  0  0  0  0  0  0  0  0
  147.8963  128.4951  151.4985 N   0  0  0  0  0  0  0  0  0  0  0  0
  147.0199  128.9637  152.4014 C   0  0  0  0  0  0  0  0  0  0  0  0
  146.3945  128.2740  153.2068 O   0  0  0  0  0  0  0  0  0  0  0  0
  146.8968  130.2954  152.3145 N   0  0  0  0  0  0  0  0  0  0  0  0
  146.0106  131.1120  153.1385 C   0  0  1  0  0  0  0  0  0  0  0  0
  146.7393  131.7925  154.3107 C   0  0  0  0  0  0  0  0  0  0  0  0
  146.0917  133.1857  154.4410 C   0  0  0  0  0  0  0  0  0  0  0  0
  145.0067  133.2088  153.4413 N   0  3  1  0  0  0  0  0  0  0  0  0
  144.5810  134.5334  152.9392 C   0  0  0  0  0  0  0  0  0  0  0  0
  143.3904  134.3535  151.9759 C   0  0  0  0  0  0  0  0  0  0  0  0
  143.7082  133.3414  150.8563 C   0  0  0  0  0  0  0  0  0  0  0  0
  144.2342  132.0148  151.4375 C   0  0  0  0  0  0  0  0  0  0  0  0
  145.4273  132.2977  152.3661 C   0  0  2  0  0  0  0  0  0  0  0  0
  149.0865  126.6875  150.2208 C   0  0  0  0  0  0  0  0  0  0  0  0
  149.2920  125.3818  150.2998 N   0  0  0  0  0  0  0  0  0  0  0  0
  147.9980  121.6561  151.0841 H   0  0  0  0  0  0  0  0  0  0  0  0
  148.4528  122.7771  149.8036 H   0  0  0  0  0  0  0  0  0  0  0  0
  146.9205  122.9799  150.6523 H   0  0  0  0  0  0  0  0  0  0  0  0
  148.1802  123.4941  152.7855 H   0  0  0  0  0  0  0  0  0  0  0  0
  149.6995  123.2852  151.9388 H   0  0  0  0  0  0  0  0  0  0  0  0
  147.4439  125.9097  152.9656 H   0  0  0  0  0  0  0  0  0  0  0  0
  148.3306  129.1721  150.8883 H   0  0  0  0  0  0  0  0  0  0  0  0
  147.4523  130.7781  151.6233 H   0  0  0  0  0  0  0  0  0  0  0  0
  145.1975  130.5072  153.5464 H   0  0  0  0  0  0  0  0  0  0  0  0
  146.6390  131.2097  155.2272 H   0  0  0  0  0  0  0  0  0  0  0  0
  147.8059  131.9009  154.1078 H   0  0  0  0  0  0  0  0  0  0  0  0
  145.6981  133.3702  155.4409 H   0  0  0  0  0  0  0  0  0  0  0  0
  146.8260  133.9610  154.2171 H   0  0  0  0  0  0  0  0  0  0  0  0
  144.2948  135.1689  153.7779 H   0  0  0  0  0  0  0  0  0  0  0  0
  145.4131  135.0236  152.4311 H   0  0  0  0  0  0  0  0  0  0  0  0
  142.5222  134.0055  152.5373 H   0  0  0  0  0  0  0  0  0  0  0  0
  143.1111  135.3145  151.5431 H   0  0  0  0  0  0  0  0  0  0  0  0
  142.8205  133.1603  150.2495 H   0  0  0  0  0  0  0  0  0  0  0  0
  144.4581  133.7657  150.1873 H   0  0  0  0  0  0  0  0  0  0  0  0
  143.4405  131.5075  151.9877 H   0  0  0  0  0  0  0  0  0  0  0  0
  144.5310  131.3478  150.6277 H   0  0  0  0  0  0  0  0  0  0  0  0
  146.2250  132.7790  151.7954 H   0  0  0  0  0  0  0  0  0  0  0  0
  149.5151  127.2446  149.4008 H   0  0  0  0  0  0  0  0  0  0  0  0
  144.2036  132.7804  153.8795 H   0  0  0  0  0  0  0  0  0  0  0  0
  1  2  1  0  0  0  0
  1 21  1  0  0  0  0
  1 22  1  0  0  0  0
  1 23  1  0  0  0  0
  2  3  1  0  0  0  0
  2 24  1  0  0  0  0
  2 25  1  0  0  0  0
  3 20  1  0  0  0  0
  3  4  1  0  0  0  0
  4  5  2  0  0  0  0
  4 26  1  0  0  0  0
  5  6  1  0  0  0  0
  5 19  1  0  0  0  0
  6  7  1  0  0  0  0
  6 27  1  0  0  0  0
  7  8  2  0  0  0  0
  7  9  1  0  0  0  0
  9 10  1  0  0  0  0
  9 28  1  0  0  0  0
 10 18  1  0  0  0  0
 10 11  1  0  0  0  0
 10 29  1  0  0  0  0
 11 12  1  0  0  0  0
 11 30  1  0  0  0  0
 11 31  1  0  0  0  0
 12 13  1  0  0  0  0
 12 32  1  0  0  0  0
 12 33  1  0  0  0  0
 13 18  1  0  0  0  0
 13 14  1  0  0  0  0
 13 44  1  0  0  0  0
 14 15  1  0  0  0  0
 14 34  1  0  0  0  0
 14 35  1  0  0  0  0
 15 16  1  0  0  0  0
 15 36  1  0  0  0  0
 15 37  1  0  0  0  0
 16 17  1  0  0  0  0
 16 38  1  0  0  0  0
 16 39  1  0  0  0  0
 17 18  1  0  0  0  0
 17 40  1  0  0  0  0
 17 41  1  0  0  0  0
 18 42  1  0  0  0  0
 19 20  2  0  0  0  0
 19 43  1  0  0  0  0
M  CHG  1  13   1
M  END
> <s_m_source_file>
AV-unprocessed.smi

> <i_m_source_file_index>
1758

> <i_lp_mmshare_version>
43012

> <i_f3d_flags>
0

> <s_epik_input>
W0NIM11bQ0gyXW4xW2NIXWMoW2NIXW4xKVtOSF1DKD1PKVtOSF1bQ0BIXShbQ0gyXVtDSDJdMilbQ0BASF0oTjIzKVtDSDJdW0NIMl1bQ0gyXVtDSDJdMw==

> <s_epik_cmdline>
J2VwaWtfcHl0aG9uJywgJy1waCcsICc3LjAnLCAnLXRuJywgJzgnLCAnLW1hJywgJzIwMCcsICctbWV0YWxfYmluZGluZycsICctaW1hZScsICc8aW5maWxlLm1hZT4nLCAnLW9tYWUnLCAnPG91dGZpbGUubWFlPic=

> <r_lp_tautomer_probability>
1

> <r_epik_Ionization_Penalty>
0.00111541

> <r_epik_Ionization_Penalty_Charging>
0.000974069

> <r_epik_Ionization_Penalty_Neutral>
0.000141346

> <r_epik_State_Penalty>
0.000633842

> <r_epik_Charging_Adjusted_Penalty>
0.00160791

> <i_epik_Tot_Q>
1

> <i_epik_Tot_abs_Q>
1

> <r_epik_Metal_State_Penalty>
-0

> <b_epik_Metal_Only>
0

> <s_lp_Force_Field>
OPLS_2005

> <r_lp_Energy>
38.7451

> <b_lp_Chiralities_Consistent>
1

> <s_lp_Variant>
AV-unprocessed.smi:1758-6

> <Gold.Version>
5.8.1

> <Gold.Id.Protein>
6NUR|6NUR_protein|mol2

> <Gold.PLP.Fitness>
41.8786

> <Gold.PLP.PLP>
-31.2952

> <Gold.PLP.part.hbond>
-2.9632

> <Gold.PLP.part.metal>
0.0000

> <Gold.PLP.part.buried>
-4.6797

> <Gold.PLP.part.nonpolar>
-24.8517

> <Gold.PLP.part.repulsive>
0.3276

> <Gold.PLP.ligand.clash>
0.0000

> <Gold.PLP.ligand.torsion>
0.3521

> <Gold.PLP.Chemscore.Hbond>
3.7238

> <Gold.PLP.Chemscore.CHOScore>
0.0355

> <Gold.PLP.Chemscore.Metal>
0.0000

> <Gold.Chemscore.Hbonds>
donor molecule, donor type, donor heavy atom, donor atom, acceptor molecule, acceptor atom, score
      L1  H     6    27       P1 10747  0.75
      L1  H     9    28       P1 10747  0.99
      L1  H    13    44       P1 10957  1.92
      L1  C    19    43       P1 10769  0.03

> <Gold.PLP.Chemscore.Internal.Correction>
0.0098

> <Gold.Rescore>
     Score         DG    S(hbond)    S(metal)    S(lipo)     H(rot)  DE(clash)    DE(int)     intcor
     15.12     -16.67       1.82        0.00      69.61       1.19       0.08       1.47       ----

> <Gold.Chemscore.Fitness>
15.1209

> <Gold.Chemscore.DG>
-16.6718

> <Gold.Chemscore.ZeroCoef>
-5.4800

> <Gold.Chemscore.Hbond>
1.8231

> <Gold.Chemscore.Metal>
0.0000

> <Gold.Chemscore.Lipo>
69.6143

> <Gold.Chemscore.Internal_Hbond>
0.0000

> <Gold.Chemscore.DEClash>
0.0848

> <Gold.Chemscore.DEInternal>
1.4661

> <Gold.Chemscore.Rot>
1.1884

> <Gold.Chemscore.Internal.Correction>
   9.000000E+99

> <Gold.Chemscore.Hbonds>
donor molecule, donor type, donor heavy atom, donor atom, acceptor molecule, acceptor atom, score
      L1  H     6    27       P1 10747  0.09
      L1  H     9    28       P1 10747  0.89
      L1  H    13    44       P1 10957  0.75

> <Gold.Chemscore.Hbond.Weighted>
-6.0893

> <Gold.Chemscore.Metal.Weighted>
-0.0000

> <Gold.Chemscore.Lipo.Weighted>
-8.1449

> <Gold.Chemscore.Internal_Hbond.Weighted>
0.0000

> <Gold.Chemscore.DEClash.Weighted>
0.0848

> <Gold.Chemscore.DEInternal.Weighted>
1.4661

> <Gold.Chemscore.Rot.Weighted>
3.0423

> <Gold.Chemscore.Internal.Correction.Weighted>
   9.000000E+99

> <Gold.Protein.RotatedTorsions>
[ 6907 6896 6895 6894 ] final -148.20 input  -60.11 | X-H torsion
[ 7974 7965 7964 7962 ] final   16.33 input  175.53 | X-H torsion
[ 8008 7997 7996 7995 ] final -101.21 input   59.86 | X-H torsion
[ 10167 10162 10161 10158 ] final   88.83 input  -65.29 | X-H torsion
[ 10718 10713 10712 10709 ] final  104.47 input   66.30 | X-H torsion
[ 10763 10752 10751 10750 ] final -162.91 input  -60.55 | X-H torsion
[ 11005 11000 10999 10996 ] final -135.84 input  -57.11 | X-H torsion

> <Gold.Protein.ActiveResidues>
 VAL166  LYS551  ARG553  GLY616  TRP617  ASP618  TYR619  PRO620  LYS621  CYS622 
 ASP623  PHE694  ASN695  SER759  ASP760  ASP761  ALA762  ILE779  LEU786  VAL792 
 PHE793  MET794  SER795  GLU796  ALA797  LYS798  CYS799  TRP800  GLU811  SER814 

> <Gold.Protein.RotatedAtoms>
  151.1664  133.4812  159.2593 H   0  0  0  0  0  0  0  0  0  0  0  0  # atno 6907 bound_to 6896
  151.1401  135.0175  159.8631 H   0  0  0  0  0  0  0  0  0  0  0  0  # atno 6908 bound_to 6896
  152.5462  134.1559  159.8591 H   0  0  0  0  0  0  0  0  0  0  0  0  # atno 6909 bound_to 6896
  146.2252  139.8763  142.8578 H   0  0  0  0  0  0  0  0  0  0  0  0  # atno 7974 bound_to 7965
  154.8394  140.0436  157.1531 H   0  0  0  0  0  0  0  0  0  0  0  0  # atno 8008 bound_to 7997
  154.9063  140.3007  155.5270 H   0  0  0  0  0  0  0  0  0  0  0  0  # atno 8009 bound_to 7997
  156.2991  140.2366  156.4097 H   0  0  0  0  0  0  0  0  0  0  0  0  # atno 8010 bound_to 7997
  139.8633  144.6532  150.9033 H   0  0  0  0  0  0  0  0  0  0  0  0  # atno 10167 bound_to 10162
  157.6739  131.0804  150.5711 H   0  0  0  0  0  0  0  0  0  0  0  0  # atno 10718 bound_to 10713
  154.7171  135.3018  154.9106 H   0  0  0  0  0  0  0  0  0  0  0  0  # atno 10763 bound_to 10752
  153.9989  135.6709  153.4762 H   0  0  0  0  0  0  0  0  0  0  0  0  # atno 10764 bound_to 10752
  153.0803  135.5013  154.8404 H   0  0  0  0  0  0  0  0  0  0  0  0  # atno 10765 bound_to 10752
  140.8860  134.1871  157.4559 H   0  0  0  0  0  0  0  0  0  0  0  0  # atno 11005 bound_to 11000
  145.2557  141.0059  143.3855 LP  0  0  0  0  0  0  0  0  0  0  0  0  # atno 17320 bound_to 7965
  144.9338  139.4267  143.6482 LP  0  0  0  0  0  0  0  0  0  0  0  0  # atno 17321 bound_to 7965
  140.7772  143.3725  151.1622 LP  0  0  0  0  0  0  0  0  0  0  0  0  # atno 17342 bound_to 10162
  139.7353  143.9009  152.3033 LP  0  0  0  0  0  0  0  0  0  0  0  0  # atno 17343 bound_to 10162
  156.6012  130.4355  149.5896 LP  0  0  0  0  0  0  0  0  0  0  0  0  # atno 17370 bound_to 10713
  156.2504  130.6904  151.1640 LP  0  0  0  0  0  0  0  0  0  0  0  0  # atno 17371 bound_to 10713
  139.8724  134.9838  156.5213 LP  0  0  0  0  0  0  0  0  0  0  0  0  # atno 17394 bound_to 11000
  140.8404  133.8210  155.9069 LP  0  0  0  0  0  0  0  0  0  0  0  0  # atno 17395 bound_to 11000

$$$$
