AV-unprocessed.smi:563|AV-procd|sdf|2946|dock6
  -GOLD-   2262023443D 1   1.00000     0.00000
 Structure written by MMmdl.
 31 32  0  0  0  0  0  0  0  0  1 V2000
  154.5463  141.0676  160.8867 C   0  0  0  0  0  0  0  0  0  0  0  0
  153.5962  142.1009  160.3863 C   0  0  0  0  0  0  0  0  0  0  0  0
  153.1429  142.1413  159.1306 N   0  0  0  0  0  0  0  0  0  0  0  0
  152.2610  143.2049  158.9096 C   0  0  0  0  0  0  0  0  0  0  0  0
  151.6569  143.4097  157.5513 C   0  0  0  0  0  0  0  0  0  0  0  0
  150.8366  142.1847  157.1453 C   0  0  0  0  0  0  0  0  0  0  0  0
  151.0928  141.0835  157.6320 O   0  0  0  0  0  0  0  0  0  0  0  0
  149.8496  142.3910  156.2592 N   0  0  0  0  0  0  0  0  0  0  0  0
  148.9463  141.3617  155.7517 C   0  0  0  0  0  0  0  0  0  0  0  0
  149.1430  141.1577  154.2370 C   0  0  0  0  0  0  0  0  0  0  0  0
  147.7428  141.1774  153.6211 C   0  0  0  0  0  0  0  0  0  0  0  0
  146.9375  142.0853  154.5447 C   0  0  0  0  0  0  0  0  0  0  0  0
  147.4691  141.7624  155.9413 C   0  0  0  0  0  0  0  0  0  0  0  0
  152.0556  143.9764  160.0269 C   0  0  0  0  0  0  0  0  0  0  0  0
  152.9562  143.3902  161.3978 S   0  0  0  0  0  0  0  0  0  0  0  0
  155.0840  140.6078  160.0570 H   0  0  0  0  0  0  0  0  0  0  0  0
  154.0021  140.2922  161.4261 H   0  0  0  0  0  0  0  0  0  0  0  0
  155.2716  141.5215  161.5622 H   0  0  0  0  0  0  0  0  0  0  0  0
  151.0111  144.2887  157.5491 H   0  0  0  0  0  0  0  0  0  0  0  0
  152.4290  143.5957  156.8033 H   0  0  0  0  0  0  0  0  0  0  0  0
  149.7150  143.3291  155.9101 H   0  0  0  0  0  0  0  0  0  0  0  0
  149.1369  140.4205  156.2710 H   0  0  0  0  0  0  0  0  0  0  0  0
  149.7285  141.9742  153.8108 H   0  0  0  0  0  0  0  0  0  0  0  0
  149.6730  140.2316  154.0123 H   0  0  0  0  0  0  0  0  0  0  0  0
  147.7428  141.5226  152.5870 H   0  0  0  0  0  0  0  0  0  0  0  0
  147.3196  140.1720  153.6366 H   0  0  0  0  0  0  0  0  0  0  0  0
  147.1434  143.1294  154.3046 H   0  0  0  0  0  0  0  0  0  0  0  0
  145.8621  141.9282  154.4575 H   0  0  0  0  0  0  0  0  0  0  0  0
  146.9180  140.9135  156.3479 H   0  0  0  0  0  0  0  0  0  0  0  0
  147.3275  142.5939  156.6330 H   0  0  0  0  0  0  0  0  0  0  0  0
  151.4278  144.8496  160.1258 H   0  0  0  0  0  0  0  0  0  0  0  0
  1  2  1  0  0  0  0
  1 16  1  0  0  0  0
  1 17  1  0  0  0  0
  1 18  1  0  0  0  0
  2 15  1  0  0  0  0
  2  3  2  0  0  0  0
  3  4  1  0  0  0  0
  4  5  1  0  0  0  0
  4 14  2  0  0  0  0
  5  6  1  0  0  0  0
  5 19  1  0  0  0  0
  5 20  1  0  0  0  0
  6  7  2  0  0  0  0
  6  8  1  0  0  0  0
  8  9  1  0  0  0  0
  8 21  1  0  0  0  0
  9 13  1  0  0  0  0
  9 10  1  0  0  0  0
  9 22  1  0  0  0  0
 10 11  1  0  0  0  0
 10 23  1  0  0  0  0
 10 24  1  0  0  0  0
 11 12  1  0  0  0  0
 11 25  1  0  0  0  0
 11 26  1  0  0  0  0
 12 13  1  0  0  0  0
 12 27  1  0  0  0  0
 12 28  1  0  0  0  0
 13 29  1  0  0  0  0
 13 30  1  0  0  0  0
 14 15  1  0  0  0  0
 14 31  1  0  0  0  0
M  END
> <s_m_source_file>
AV-unprocessed.smi

> <i_m_source_file_index>
563

> <i_lp_mmshare_version>
43012

> <i_f3d_flags>
0

> <s_epik_input>
W0NIM11jMW5jKFtjSF1zMSlbQ0gyXUMoPU8pW05IXVtDSF0yW0NIMl1bQ0gyXVtDSDJdW0NIMl0y

> <s_epik_cmdline>
J2VwaWtfcHl0aG9uJywgJy1waCcsICc3LjAnLCAnLXRuJywgJzgnLCAnLW1hJywgJzIwMCcsICctbWV0YWxfYmluZGluZycsICctaW1hZScsICc8aW5maWxlLm1hZT4nLCAnLW9tYWUnLCAnPG91dGZpbGUubWFlPic=

> <r_lp_tautomer_probability>
1

> <r_epik_Ionization_Penalty>
6.26871e-05

> <r_epik_Ionization_Penalty_Charging>
0

> <r_epik_Ionization_Penalty_Neutral>
6.26871e-05

> <r_epik_State_Penalty>
-0

> <r_epik_Charging_Adjusted_Penalty>
0

> <i_epik_Tot_Q>
0

> <i_epik_Tot_abs_Q>
0

> <r_epik_Metal_State_Penalty>
-0

> <b_epik_Metal_Only>
0

> <s_lp_Force_Field>
OPLS_2005

> <r_lp_Energy>
15.9106

> <b_lp_Chiralities_Consistent>
1

> <s_lp_Variant>
AV-unprocessed.smi:563-1

> <Gold.Version>
5.8.1

> <Gold.Id.Protein>
6NUR|6NUR_protein|mol2

> <Gold.PLP.Fitness>
39.9077

> <Gold.PLP.PLP>
-37.6640

> <Gold.PLP.part.hbond>
-1.0000

> <Gold.PLP.part.metal>
0.0000

> <Gold.PLP.part.buried>
-4.2858

> <Gold.PLP.part.nonpolar>
-33.1656

> <Gold.PLP.part.repulsive>
0.0997

> <Gold.PLP.ligand.clash>
0.0000

> <Gold.PLP.ligand.torsion>
0.3798

> <Gold.PLP.Chemscore.Hbond>
1.0000

> <Gold.PLP.Chemscore.CHOScore>
0.0000

> <Gold.PLP.Chemscore.Metal>
0.0000

> <Gold.Chemscore.Hbonds>
donor molecule, donor type, donor heavy atom, donor atom, acceptor molecule, acceptor atom, score
      L1  H     8    21       P1  8028  1.00

> <Gold.PLP.Chemscore.Internal.Correction>
0.0034

> <Gold.Rescore>
     Score         DG    S(hbond)    S(metal)    S(lipo)     H(rot)  DE(clash)    DE(int)     intcor
     15.21     -16.86       0.97        0.00      97.99       1.29       0.05       1.60       ----

> <Gold.Chemscore.Fitness>
15.2128

> <Gold.Chemscore.DG>
-16.8636

> <Gold.Chemscore.ZeroCoef>
-5.4800

> <Gold.Chemscore.Hbond>
0.9680

> <Gold.Chemscore.Metal>
0.0000

> <Gold.Chemscore.Lipo>
97.9866

> <Gold.Chemscore.Internal_Hbond>
0.0000

> <Gold.Chemscore.DEClash>
0.0460

> <Gold.Chemscore.DEInternal>
1.6048

> <Gold.Chemscore.Rot>
1.2946

> <Gold.Chemscore.Internal.Correction>
   9.000000E+99

> <Gold.Chemscore.Hbonds>
donor molecule, donor type, donor heavy atom, donor atom, acceptor molecule, acceptor atom, score
      L1  H     8    21       P1  8028  0.98

> <Gold.Chemscore.Hbond.Weighted>
-3.2332

> <Gold.Chemscore.Metal.Weighted>
-0.0000

> <Gold.Chemscore.Lipo.Weighted>
-11.4644

> <Gold.Chemscore.Internal_Hbond.Weighted>
0.0000

> <Gold.Chemscore.DEClash.Weighted>
0.0460

> <Gold.Chemscore.DEInternal.Weighted>
1.6048

> <Gold.Chemscore.Rot.Weighted>
3.3141

> <Gold.Chemscore.Internal.Correction.Weighted>
   9.000000E+99

> <Gold.Protein.RotatedTorsions>
[ 6907 6896 6895 6894 ] final  162.39 input  -60.11 | X-H torsion
[ 7974 7965 7964 7962 ] final  -55.82 input  175.53 | X-H torsion
[ 8008 7997 7996 7995 ] final -138.17 input   59.86 | X-H torsion
[ 10167 10162 10161 10158 ] final  -62.85 input  -65.29 | X-H torsion
[ 10718 10713 10712 10709 ] final  -65.12 input   66.30 | X-H torsion
[ 10763 10752 10751 10750 ] final   87.74 input  -60.55 | X-H torsion
[ 11005 11000 10999 10996 ] final   63.36 input  -57.11 | X-H torsion

> <Gold.Protein.ActiveResidues>
 VAL166  LYS551  ARG553  GLY616  TRP617  ASP618  TYR619  PRO620  LYS621  CYS622 
 ASP623  PHE694  ASN695  SER759  ASP760  ASP761  ALA762  ILE779  LEU786  VAL792 
 PHE793  MET794  SER795  GLU796  ALA797  LYS798  CYS799  TRP800  GLU811  SER814 

> <Gold.Protein.RotatedAtoms>
  151.9412  133.3638  159.3965 H   0  0  0  0  0  0  0  0  0  0  0  0  # atno 6907 bound_to 6896
  150.6998  134.4437  159.5313 H   0  0  0  0  0  0  0  0  0  0  0  0  # atno 6908 bound_to 6896
  152.2094  134.8515  160.0550 H   0  0  0  0  0  0  0  0  0  0  0  0  # atno 6909 bound_to 6896
  145.8698  140.8224  142.9894 H   0  0  0  0  0  0  0  0  0  0  0  0  # atno 7974 bound_to 7965
  155.4240  140.0520  157.3023 H   0  0  0  0  0  0  0  0  0  0  0  0  # atno 8008 bound_to 7997
  154.4890  140.2112  155.9550 H   0  0  0  0  0  0  0  0  0  0  0  0  # atno 8009 bound_to 7997
  156.1315  140.3171  155.8361 H   0  0  0  0  0  0  0  0  0  0  0  0  # atno 8010 bound_to 7997
  140.5911  143.2342  151.6137 H   0  0  0  0  0  0  0  0  0  0  0  0  # atno 10167 bound_to 10162
  156.0688  130.4243  150.1517 H   0  0  0  0  0  0  0  0  0  0  0  0  # atno 10718 bound_to 10713
  153.1699  135.4532  154.9888 H   0  0  0  0  0  0  0  0  0  0  0  0  # atno 10763 bound_to 10752
  154.7958  135.3237  154.7672 H   0  0  0  0  0  0  0  0  0  0  0  0  # atno 10764 bound_to 10752
  153.8150  135.6951  153.4890 H   0  0  0  0  0  0  0  0  0  0  0  0  # atno 10765 bound_to 10752
  140.0029  134.6414  155.9901 H   0  0  0  0  0  0  0  0  0  0  0  0  # atno 11005 bound_to 11000
  144.6726  140.1222  143.7449 LP  0  0  0  0  0  0  0  0  0  0  0  0  # atno 17320 bound_to 7965
  145.9150  139.2510  143.1415 LP  0  0  0  0  0  0  0  0  0  0  0  0  # atno 17321 bound_to 7965
  139.5228  144.3152  152.0959 LP  0  0  0  0  0  0  0  0  0  0  0  0  # atno 17342 bound_to 10162
  140.2316  144.4362  150.6297 LP  0  0  0  0  0  0  0  0  0  0  0  0  # atno 17343 bound_to 10162
  156.9572  130.9793  151.3486 LP  0  0  0  0  0  0  0  0  0  0  0  0  # atno 17370 bound_to 10713
  157.5747  130.8335  149.8439 LP  0  0  0  0  0  0  0  0  0  0  0  0  # atno 17371 bound_to 10713
  141.1656  133.6537  156.4467 LP  0  0  0  0  0  0  0  0  0  0  0  0  # atno 17394 bound_to 11000
  140.4694  134.6768  157.5122 LP  0  0  0  0  0  0  0  0  0  0  0  0  # atno 17395 bound_to 11000

$$$$
