AV-unprocessed.smi:2907|AV-procd|sdf|11166|dock7
  -GOLD-   2272016 53D 1   1.00000     0.00000
 Structure written by MMmdl.
 45 46  0  0  0  0  0  0  0  0  1 V2000
  145.6559  143.8061  153.4165 C   0  0  0  0  0  0  0  0  0  0  0  0
  145.3254  143.1592  154.7696 C   0  0  0  0  0  0  0  0  0  0  0  0
  146.1442  141.8891  155.0750 C   0  0  0  0  0  0  0  0  0  0  0  0
  145.6842  141.2222  156.3866 C   0  0  0  0  0  0  0  0  0  0  0  0
  144.2011  140.8211  156.3948 C   0  0  0  0  0  0  0  0  0  0  0  0
  147.5692  142.2054  155.1605 N   0  0  0  0  0  0  0  0  0  0  0  0
  148.5640  141.3268  155.3645 C   0  0  0  0  0  0  0  0  0  0  0  0
  148.4010  140.1083  155.4189 O   0  0  0  0  0  0  0  0  0  0  0  0
  149.9595  141.9202  155.5617 C   0  0  0  0  0  0  0  0  0  0  0  0
  150.9070  140.8874  155.9521 N   0  0  0  0  0  0  0  0  0  0  0  0
  151.2092  139.8735  155.1035 N   0  0  0  0  0  0  0  0  0  0  0  0
  152.1055  139.1411  155.6974 N   0  0  0  0  0  0  0  0  0  0  0  0
  152.4214  139.6468  156.9433 N   0  0  0  0  0  0  0  0  0  0  0  0
  151.6444  140.7175  157.0612 C   0  0  0  0  0  0  0  0  0  0  0  0
  151.6373  141.6553  158.2345 C   0  0  0  0  0  0  0  0  0  0  0  0
  151.6420  143.1302  157.7883 C   0  0  0  0  0  0  0  0  0  0  0  0
  151.6055  144.0818  158.9947 C   0  0  0  0  0  0  0  0  0  0  0  0
  152.7601  143.7936  159.9675 C   0  0  0  0  0  0  0  0  0  0  0  0
  152.7510  142.3250  160.4215 C   0  0  0  0  0  0  0  0  0  0  0  0
  152.7892  141.3682  159.2185 C   0  0  0  0  0  0  0  0  0  0  0  0
  145.0041  144.6590  153.2273 H   0  0  0  0  0  0  0  0  0  0  0  0
  145.5219  143.0973  152.5990 H   0  0  0  0  0  0  0  0  0  0  0  0
  146.6843  144.1661  153.3841 H   0  0  0  0  0  0  0  0  0  0  0  0
  145.4700  143.8925  155.5641 H   0  0  0  0  0  0  0  0  0  0  0  0
  144.2640  142.9092  154.7800 H   0  0  0  0  0  0  0  0  0  0  0  0
  145.9682  141.1751  154.2685 H   0  0  0  0  0  0  0  0  0  0  0  0
  146.2938  140.3398  156.5855 H   0  0  0  0  0  0  0  0  0  0  0  0
  145.8621  141.9059  157.2174 H   0  0  0  0  0  0  0  0  0  0  0  0
  143.9204  140.4006  157.3604 H   0  0  0  0  0  0  0  0  0  0  0  0
  143.9816  140.0701  155.6353 H   0  0  0  0  0  0  0  0  0  0  0  0
  143.5604  141.6836  156.2100 H   0  0  0  0  0  0  0  0  0  0  0  0
  147.8129  143.1850  155.1251 H   0  0  0  0  0  0  0  0  0  0  0  0
  150.3075  142.3968  154.6447 H   0  0  0  0  0  0  0  0  0  0  0  0
  149.9245  142.6947  156.3295 H   0  0  0  0  0  0  0  0  0  0  0  0
  150.7121  141.4912  158.7865 H   0  0  0  0  0  0  0  0  0  0  0  0
  152.5304  143.3347  157.1892 H   0  0  0  0  0  0  0  0  0  0  0  0
  150.7829  143.3271  157.1465 H   0  0  0  0  0  0  0  0  0  0  0  0
  151.6548  145.1160  158.6532 H   0  0  0  0  0  0  0  0  0  0  0  0
  150.6532  143.9733  159.5153 H   0  0  0  0  0  0  0  0  0  0  0  0
  153.7107  144.0214  159.4837 H   0  0  0  0  0  0  0  0  0  0  0  0
  152.6886  144.4511  160.8343 H   0  0  0  0  0  0  0  0  0  0  0  0
  153.6021  142.1331  161.0756 H   0  0  0  0  0  0  0  0  0  0  0  0
  151.8559  142.1316  161.0141 H   0  0  0  0  0  0  0  0  0  0  0  0
  152.7328  140.3368  159.5687 H   0  0  0  0  0  0  0  0  0  0  0  0
  153.7483  141.4699  158.7088 H   0  0  0  0  0  0  0  0  0  0  0  0
  1  2  1  0  0  0  0
  1 21  1  0  0  0  0
  1 22  1  0  0  0  0
  1 23  1  0  0  0  0
  2  3  1  0  0  0  0
  2 24  1  0  0  0  0
  2 25  1  0  0  0  0
  3  4  1  0  0  0  0
  3  6  1  0  0  0  0
  3 26  1  0  0  0  0
  4  5  1  0  0  0  0
  4 27  1  0  0  0  0
  4 28  1  0  0  0  0
  5 29  1  0  0  0  0
  5 30  1  0  0  0  0
  5 31  1  0  0  0  0
  6  7  1  0  0  0  0
  6 32  1  0  0  0  0
  7  8  2  0  0  0  0
  7  9  1  0  0  0  0
  9 10  1  0  0  0  0
  9 33  1  0  0  0  0
  9 34  1  0  0  0  0
 10 14  1  0  0  0  0
 10 11  1  0  0  0  0
 11 12  2  0  0  0  0
 12 13  1  0  0  0  0
 13 14  2  0  0  0  0
 14 15  1  0  0  0  0
 15 20  1  0  0  0  0
 15 16  1  0  0  0  0
 15 35  1  0  0  0  0
 16 17  1  0  0  0  0
 16 36  1  0  0  0  0
 16 37  1  0  0  0  0
 17 18  1  0  0  0  0
 17 38  1  0  0  0  0
 17 39  1  0  0  0  0
 18 19  1  0  0  0  0
 18 40  1  0  0  0  0
 18 41  1  0  0  0  0
 19 20  1  0  0  0  0
 19 42  1  0  0  0  0
 19 43  1  0  0  0  0
 20 44  1  0  0  0  0
 20 45  1  0  0  0  0
M  END
> <s_m_source_file>
AV-unprocessed.smi

> <i_m_source_file_index>
2907

> <i_lp_mmshare_version>
43012

> <i_f3d_flags>
0

> <s_epik_input>
W0NIM11bQ0gyXVtDSF0oW0NIMl1bQ0gzXSlbTkhdQyg9TylbQ0gyXW4xbm5uYzFbQ0hdMltDSDJdW0NIMl1bQ0gyXVtDSDJdW0NIMl0y

> <s_epik_cmdline>
J2VwaWtfcHl0aG9uJywgJy1waCcsICc3LjAnLCAnLXRuJywgJzgnLCAnLW1hJywgJzIwMCcsICctbWV0YWxfYmluZGluZycsICctaW1hZScsICc8aW5maWxlLm1hZT4nLCAnLW9tYWUnLCAnPG91dGZpbGUubWFlPic=

> <r_lp_tautomer_probability>
1

> <r_epik_Ionization_Penalty>
4.92512e-07

> <r_epik_Ionization_Penalty_Charging>
0

> <r_epik_Ionization_Penalty_Neutral>
4.92512e-07

> <r_epik_State_Penalty>
-0

> <r_epik_Charging_Adjusted_Penalty>
0

> <i_epik_Tot_Q>
0

> <i_epik_Tot_abs_Q>
0

> <r_epik_Metal_State_Penalty>
-0

> <b_epik_Metal_Only>
0

> <s_lp_Force_Field>
OPLS_2005

> <r_lp_Energy>
10.8377

> <b_lp_Chiralities_Consistent>
1

> <s_lp_Variant>
AV-unprocessed.smi:2907-1

> <Gold.Version>
5.8.1

> <Gold.Id.Protein>
6NUR|6NUR_protein|mol2

> <Gold.PLP.Fitness>
47.8073

> <Gold.PLP.PLP>
-39.4719

> <Gold.PLP.part.hbond>
-3.0000

> <Gold.PLP.part.metal>
0.0000

> <Gold.PLP.part.buried>
-5.1517

> <Gold.PLP.part.nonpolar>
-31.4986

> <Gold.PLP.part.repulsive>
0.1995

> <Gold.PLP.ligand.clash>
0.0000

> <Gold.PLP.ligand.torsion>
0.3813

> <Gold.PLP.Chemscore.Hbond>
3.0000

> <Gold.PLP.Chemscore.CHOScore>
0.0000

> <Gold.PLP.Chemscore.Metal>
0.0000

> <Gold.Chemscore.Hbonds>
donor molecule, donor type, donor heavy atom, donor atom, acceptor molecule, acceptor atom, score
      L1  H     6    32       P1  8028  1.00
      P1  H  7989  7998       L1    11  1.00
      P1  H  7997  8008       L1    13  0.80

> <Gold.PLP.Chemscore.Internal.Correction>
0.0980

> <Gold.Rescore>
     Score         DG    S(hbond)    S(metal)    S(lipo)     H(rot)  DE(clash)    DE(int)     intcor
     13.13     -15.72       1.25        0.00      91.26       1.79       1.03       1.56       ----

> <Gold.Chemscore.Fitness>
13.1315

> <Gold.Chemscore.DG>
-15.7225

> <Gold.Chemscore.ZeroCoef>
-5.4800

> <Gold.Chemscore.Hbond>
1.2451

> <Gold.Chemscore.Metal>
0.0000

> <Gold.Chemscore.Lipo>
91.2629

> <Gold.Chemscore.Internal_Hbond>
0.0000

> <Gold.Chemscore.DEClash>
1.0344

> <Gold.Chemscore.DEInternal>
1.5566

> <Gold.Chemscore.Rot>
1.7944

> <Gold.Chemscore.Internal.Correction>
   9.000000E+99

> <Gold.Chemscore.Hbonds>
donor molecule, donor type, donor heavy atom, donor atom, acceptor molecule, acceptor atom, score
      L1  H     6    32       P1  8028  0.63
      P1  H  7989  7998       L1    11  0.29
      P1  H  7997  8008       L1    13  0.09

> <Gold.Chemscore.Hbond.Weighted>
-4.1585

> <Gold.Chemscore.Metal.Weighted>
-0.0000

> <Gold.Chemscore.Lipo.Weighted>
-10.6778

> <Gold.Chemscore.Internal_Hbond.Weighted>
0.0000

> <Gold.Chemscore.DEClash.Weighted>
1.0344

> <Gold.Chemscore.DEInternal.Weighted>
1.5566

> <Gold.Chemscore.Rot.Weighted>
4.5938

> <Gold.Chemscore.Internal.Correction.Weighted>
   9.000000E+99

> <Gold.Protein.RotatedTorsions>
[ 6907 6896 6895 6894 ] final  -17.41 input  -60.11 | X-H torsion
[ 7974 7965 7964 7962 ] final  138.03 input  175.53 | X-H torsion
[ 8008 7997 7996 7995 ] final  -50.69 input   59.86 | X-H torsion
[ 10167 10162 10161 10158 ] final  132.63 input  -65.29 | X-H torsion
[ 10718 10713 10712 10709 ] final  101.09 input   66.30 | X-H torsion
[ 10763 10752 10751 10750 ] final   18.09 input  -60.55 | X-H torsion
[ 11005 11000 10999 10996 ] final -104.63 input  -57.11 | X-H torsion

> <Gold.Protein.ActiveResidues>
 VAL166  LYS551  ARG553  GLY616  TRP617  ASP618  TYR619  PRO620  LYS621  CYS622 
 ASP623  PHE694  ASN695  SER759  ASP760  ASP761  ALA762  ILE779  LEU786  VAL792 
 PHE793  MET794  SER795  GLU796  ALA797  LYS798  CYS799  TRP800  GLU811  SER814 

> <Gold.Protein.RotatedAtoms>
  151.2937  135.0749  159.9213 H   0  0  0  0  0  0  0  0  0  0  0  0  # atno 6907 bound_to 6896
  152.5311  133.9905  159.7859 H   0  0  0  0  0  0  0  0  0  0  0  0  # atno 6908 bound_to 6896
  151.0179  133.5852  159.2705 H   0  0  0  0  0  0  0  0  0  0  0  0  # atno 6909 bound_to 6896
  144.9411  139.4930  143.5571 H   0  0  0  0  0  0  0  0  0  0  0  0  # atno 7974 bound_to 7965
  154.4067  140.1266  156.4706 H   0  0  0  0  0  0  0  0  0  0  0  0  # atno 8008 bound_to 7997
  155.7183  140.3493  155.4984 H   0  0  0  0  0  0  0  0  0  0  0  0  # atno 8009 bound_to 7997
  155.9238  140.1057  157.1176 H   0  0  0  0  0  0  0  0  0  0  0  0  # atno 8010 bound_to 7997
  139.5331  144.6653  151.4879 H   0  0  0  0  0  0  0  0  0  0  0  0  # atno 10167 bound_to 10162
  157.6838  131.0716  150.5199 H   0  0  0  0  0  0  0  0  0  0  0  0  # atno 10718 bound_to 10713
  153.1280  135.6734  153.9224 H   0  0  0  0  0  0  0  0  0  0  0  0  # atno 10763 bound_to 10752
  153.8719  135.3068  155.3443 H   0  0  0  0  0  0  0  0  0  0  0  0  # atno 10764 bound_to 10752
  154.7682  135.4953  153.9678 H   0  0  0  0  0  0  0  0  0  0  0  0  # atno 10765 bound_to 10752
  141.1091  133.8739  157.1634 H   0  0  0  0  0  0  0  0  0  0  0  0  # atno 11005 bound_to 11000
  146.3286  139.8431  142.8887 LP  0  0  0  0  0  0  0  0  0  0  0  0  # atno 17320 bound_to 7965
  145.2990  141.0189  143.3620 LP  0  0  0  0  0  0  0  0  0  0  0  0  # atno 17321 bound_to 7965
  140.6522  143.8673  150.6797 LP  0  0  0  0  0  0  0  0  0  0  0  0  # atno 17342 bound_to 10162
  140.2041  143.3935  152.1769 LP  0  0  0  0  0  0  0  0  0  0  0  0  # atno 17343 bound_to 10162
  156.5513  130.4232  149.6106 LP  0  0  0  0  0  0  0  0  0  0  0  0  # atno 17370 bound_to 10713
  156.2900  130.7119  151.1965 LP  0  0  0  0  0  0  0  0  0  0  0  0  # atno 17371 bound_to 10713
  139.9976  135.0040  157.0118 LP  0  0  0  0  0  0  0  0  0  0  0  0  # atno 17394 bound_to 11000
  140.4822  134.1278  155.7219 LP  0  0  0  0  0  0  0  0  0  0  0  0  # atno 17395 bound_to 11000

$$$$
