AV-unprocessed.smi:160|AV-procd|sdf|1371|dock5
  -GOLD-   2262019 93D 1   1.00000     0.00000
 Structure written by MMmdl.
 28 29  0  0  0  0  0  0  0  0  2 V2000
  153.2294  139.1552  157.1971 N   0  5  0  0  0  0  0  0  0  0  0  0
  152.9907  138.3251  156.1585 C   0  0  0  0  0  0  0  0  0  0  0  0
  153.7263  137.4195  155.7671 O   0  0  0  0  0  0  0  0  0  0  0  0
  151.6832  138.5733  155.4446 C   0  0  0  0  0  0  0  0  0  0  0  0
  151.4816  138.1027  154.1761 N   0  0  0  0  0  0  0  0  0  0  0  0
  150.2476  138.5464  153.9787 C   0  0  0  0  0  0  0  0  0  0  0  0
  149.7328  139.2136  155.0151 N   0  0  0  0  0  0  0  0  0  0  0  0
  148.3967  139.8700  155.1666 C   0  0  2  0  0  0  0  0  0  0  0  0
  147.4384  138.8583  155.2503 O   0  0  0  0  0  0  0  0  0  0  0  0
  146.3515  139.1278  154.3680 C   0  0  2  0  0  0  0  0  0  0  0  0
  145.6453  137.8258  153.9502 C   0  0  0  0  0  0  0  0  0  0  0  0
  144.4994  138.1191  153.1788 O   0  0  0  0  0  0  0  0  0  0  0  0
  146.9863  139.9343  153.2261 C   0  0  2  0  0  0  0  0  0  0  0  0
  147.5638  139.0791  152.2546 O   0  0  0  0  0  0  0  0  0  0  0  0
  148.0219  140.7684  153.9701 C   0  0  2  0  0  0  0  0  0  0  0  0
  149.0969  141.2002  153.1521 O   0  0  0  0  0  0  0  0  0  0  0  0
  150.6708  139.2519  155.9929 N   0  0  0  0  0  0  0  0  0  0  0  0
  148.4685  140.4196  156.1059 H   0  0  0  0  0  0  0  0  0  0  0  0
  145.6507  139.7836  154.8884 H   0  0  0  0  0  0  0  0  0  0  0  0
  146.2537  140.5655  152.7224 H   0  0  0  0  0  0  0  0  0  0  0  0
  147.5294  141.6505  154.3810 H   0  0  0  0  0  0  0  0  0  0  0  0
  153.6432  138.7620  158.0510 H   0  0  0  0  0  0  0  0  0  0  0  0
  149.7068  138.3801  153.0589 H   0  0  0  0  0  0  0  0  0  0  0  0
  146.3073  137.2210  153.3301 H   0  0  0  0  0  0  0  0  0  0  0  0
  145.3739  137.2252  154.8192 H   0  0  0  0  0  0  0  0  0  0  0  0
  144.4692  139.0521  153.0320 H   0  0  0  0  0  0  0  0  0  0  0  0
  148.2758  139.5399  151.8371 H   0  0  0  0  0  0  0  0  0  0  0  0
  149.3284  140.4990  152.5628 H   0  0  0  0  0  0  0  0  0  0  0  0
  1  2  1  0  0  0  0
  1 22  1  0  0  0  0
  2  3  2  0  0  0  0
  2  4  1  0  0  0  0
  4 17  2  0  0  0  0
  4  5  1  0  0  0  0
  5  6  2  0  0  0  0
  6  7  1  0  0  0  0
  6 23  1  0  0  0  0
  7  8  1  0  0  0  0
  7 17  1  0  0  0  0
  8 18  1  0  0  0  0
  8 15  1  0  0  0  0
  8  9  1  0  0  0  0
  9 10  1  0  0  0  0
 10 19  1  0  0  0  0
 10 11  1  0  0  0  0
 10 13  1  0  0  0  0
 11 12  1  0  0  0  0
 11 24  1  0  0  0  0
 11 25  1  0  0  0  0
 12 26  1  0  0  0  0
 13 20  1  0  0  0  0
 13 14  1  0  0  0  0
 13 15  1  0  0  0  0
 14 27  1  0  0  0  0
 15 21  1  0  0  0  0
 15 16  1  0  0  0  0
 16 28  1  0  0  0  0
M  CHG  1   1  -1
M  END
> <s_m_source_file>
AV-unprocessed.smi

> <i_m_source_file_index>
160

> <i_lp_mmshare_version>
43012

> <i_f3d_flags>
0

> <s_epik_input>
W05IMl1DKD1PKWMxbltjSF1uKG4xKVtDQEBIXTJPW0NASF0oW0NIMl1bT0hdKVtDQEBIXShbT0hdKVtDQEhdMltPSF0=

> <s_epik_cmdline>
J2VwaWtfcHl0aG9uJywgJy1waCcsICc3LjAnLCAnLXRuJywgJzgnLCAnLW1hJywgJzIwMCcsICctbWV0YWxfYmluZGluZycsICctaW1hZScsICc8aW5maWxlLm1hZT4nLCAnLW9tYWUnLCAnPG91dGZpbGUubWFlPic=

> <r_lp_tautomer_probability>
1

> <r_epik_Ionization_Penalty>
6.6993

> <r_epik_Ionization_Penalty_Charging>
6.6993

> <r_epik_Ionization_Penalty_Neutral>
6.01698e-06

> <r_epik_State_Penalty>
6.69929

> <r_epik_Charging_Adjusted_Penalty>
13.3986

> <i_epik_Tot_Q>
-1

> <i_epik_Tot_abs_Q>
1

> <r_epik_Metal_State_Penalty>
2.62798

> <b_epik_Metal_Only>
1

> <s_epik_Chemistry_Notes>
This compound contains an acetal/aminal-like group ( X-CH(R)-Y where X, Y are N, S, or O) that may be acid/base labile, releasing an aldehyde.

> <s_lp_Force_Field>
OPLS_2005

> <r_lp_Energy>
51.4861

> <b_lp_Chiralities_Consistent>
1

> <s_lp_Variant>
AV-unprocessed.smi:160-29

> <Gold.Version>
5.8.1

> <Gold.Id.Protein>
6NUR|6NUR_protein|mol2

> <Gold.PLP.Fitness>
46.1272

> <Gold.PLP.PLP>
-23.3159

> <Gold.PLP.part.hbond>
-6.9150

> <Gold.PLP.part.metal>
0.0000

> <Gold.PLP.part.buried>
-5.3788

> <Gold.PLP.part.nonpolar>
-12.5108

> <Gold.PLP.part.repulsive>
0.2056

> <Gold.PLP.ligand.clash>
0.0000

> <Gold.PLP.ligand.torsion>
0.3866

> <Gold.PLP.Chemscore.Hbond>
6.1757

> <Gold.PLP.Chemscore.CHOScore>
1.6835

> <Gold.PLP.Chemscore.Metal>
0.0000

> <Gold.Chemscore.Hbonds>
donor molecule, donor type, donor heavy atom, donor atom, acceptor molecule, acceptor atom, score
      L1  H    12    26       P1 10175  1.00
      L1  H    14    27       P1  7957  1.00
      L1  H    16    28       P1  7957  0.89
      P1  H  7997  8008       L1     1  1.90
      P1  H  8011  8017       L1    16  0.85
      P1  H 10752 10764       L1     3  0.21
      L1  C     6    23       P1  7948  1.00
      L1  C     6    23       P1  7957  0.89

> <Gold.PLP.Chemscore.Internal.Correction>
0.0072

> <Gold.Rescore>
     Score         DG    S(hbond)    S(metal)    S(lipo)     H(rot)  DE(clash)    DE(int)     intcor
     12.48     -12.88       4.70        0.00      17.42       4.04       0.00       0.40       ----

> <Gold.Chemscore.Fitness>
12.4763

> <Gold.Chemscore.DG>
-12.8773

> <Gold.Chemscore.ZeroCoef>
-5.4800

> <Gold.Chemscore.Hbond>
4.7011

> <Gold.Chemscore.Metal>
0.0000

> <Gold.Chemscore.Lipo>
17.4242

> <Gold.Chemscore.Internal_Hbond>
0.0000

> <Gold.Chemscore.DEClash>
0.0021

> <Gold.Chemscore.DEInternal>
0.3989

> <Gold.Chemscore.Rot>
4.0403

> <Gold.Chemscore.Internal.Correction>
   9.000000E+99

> <Gold.Chemscore.Hbonds>
donor molecule, donor type, donor heavy atom, donor atom, acceptor molecule, acceptor atom, score
      L1  H    12    26       P1 10175  0.95
      L1  H    14    27       P1  7957  0.95
      L1  H    16    28       P1  7957  0.82
      P1  H  7997  8008       L1     1  0.10
      P1  H  8011  8017       L1    16  0.14
      P1  H 10752 10764       L1     3  0.21

> <Gold.Chemscore.Hbond.Weighted>
-15.7018

> <Gold.Chemscore.Metal.Weighted>
-0.0000

> <Gold.Chemscore.Lipo.Weighted>
-2.0386

> <Gold.Chemscore.Internal_Hbond.Weighted>
0.0000

> <Gold.Chemscore.DEClash.Weighted>
0.0021

> <Gold.Chemscore.DEInternal.Weighted>
0.3989

> <Gold.Chemscore.Rot.Weighted>
10.3431

> <Gold.Chemscore.Internal.Correction.Weighted>
   9.000000E+99

> <Gold.Protein.RotatedTorsions>
[ 6907 6896 6895 6894 ] final -119.04 input  -60.11 | X-H torsion
[ 7974 7965 7964 7962 ] final -106.68 input  175.53 | X-H torsion
[ 8008 7997 7996 7995 ] final  -65.68 input   59.86 | X-H torsion
[ 10167 10162 10161 10158 ] final -166.68 input  -65.29 | X-H torsion
[ 10718 10713 10712 10709 ] final   57.79 input   66.30 | X-H torsion
[ 10763 10752 10751 10750 ] final    1.75 input  -60.55 | X-H torsion
[ 11005 11000 10999 10996 ] final  113.83 input  -57.11 | X-H torsion

> <Gold.Protein.ActiveResidues>
 VAL166  LYS551  ARG553  GLY616  TRP617  ASP618  TYR619  PRO620  LYS621  CYS622 
 ASP623  PHE694  ASN695  SER759  ASP760  ASP761  ALA762  ILE779  LEU786  VAL792 
 PHE793  MET794  SER795  GLU796  ALA797  LYS798  CYS799  TRP800  GLU811  SER814 

> <Gold.Protein.RotatedAtoms>
  150.8271  133.8153  159.3113 H   0  0  0  0  0  0  0  0  0  0  0  0  # atno 6907 bound_to 6896
  151.5894  135.1052  160.0045 H   0  0  0  0  0  0  0  0  0  0  0  0  # atno 6908 bound_to 6896
  152.4355  133.7312  159.6645 H   0  0  0  0  0  0  0  0  0  0  0  0  # atno 6909 bound_to 6896
  145.2148  140.9110  143.3294 H   0  0  0  0  0  0  0  0  0  0  0  0  # atno 7974 bound_to 7965
  154.4687  140.0928  156.7088 H   0  0  0  0  0  0  0  0  0  0  0  0  # atno 8008 bound_to 7997
  155.4785  140.3467  155.4318 H   0  0  0  0  0  0  0  0  0  0  0  0  # atno 8009 bound_to 7997
  156.1001  140.1420  156.9467 H   0  0  0  0  0  0  0  0  0  0  0  0  # atno 8010 bound_to 7997
  139.6099  144.0836  152.1831 H   0  0  0  0  0  0  0  0  0  0  0  0  # atno 10167 bound_to 10162
  157.5543  130.8788  149.9011 H   0  0  0  0  0  0  0  0  0  0  0  0  # atno 10718 bound_to 10713
  153.3042  135.6958  153.7175 H   0  0  0  0  0  0  0  0  0  0  0  0  # atno 10763 bound_to 10752
  153.6078  135.3450  155.2969 H   0  0  0  0  0  0  0  0  0  0  0  0  # atno 10764 bound_to 10752
  154.8558  135.4356  154.2161 H   0  0  0  0  0  0  0  0  0  0  0  0  # atno 10765 bound_to 10752
  139.8964  134.9557  156.6800 H   0  0  0  0  0  0  0  0  0  0  0  0  # atno 11005 bound_to 11000
  144.9822  139.3772  143.6256 LP  0  0  0  0  0  0  0  0  0  0  0  0  # atno 17320 bound_to 7965
  146.3389  139.8967  142.8800 LP  0  0  0  0  0  0  0  0  0  0  0  0  # atno 17321 bound_to 7965
  140.0452  144.5976  150.7379 LP  0  0  0  0  0  0  0  0  0  0  0  0  # atno 17342 bound_to 10162
  140.7312  143.2691  151.3946 LP  0  0  0  0  0  0  0  0  0  0  0  0  # atno 17343 bound_to 10162
  156.0604  130.3701  150.0994 LP  0  0  0  0  0  0  0  0  0  0  0  0  # atno 17370 bound_to 10713
  156.9164  130.9668  151.3555 LP  0  0  0  0  0  0  0  0  0  0  0  0  # atno 17371 bound_to 10713
  140.7307  133.9061  155.8209 LP  0  0  0  0  0  0  0  0  0  0  0  0  # atno 17394 bound_to 11000
  141.0155  134.0961  157.4176 LP  0  0  0  0  0  0  0  0  0  0  0  0  # atno 17395 bound_to 11000

$$$$
