AV-unprocessed.smi:86|AV-procd|sdf|813|dock9
  -GOLD-   2262017213D 1   1.00000     0.00000
 Structure written by MMmdl.
 51 55  0  0  0  0  0  0  0  0  1 V2000
  145.5385  134.7095  160.3952 O   0  0  0  0  0  0  0  0  0  0  0  0
  146.5248  134.7558  159.3841 C   0  0  0  0  0  0  0  0  0  0  0  0
  147.2650  136.1046  159.3845 C   0  0  0  0  0  0  0  0  0  0  0  0
  148.5000  136.0425  158.4628 C   0  0  0  0  0  0  0  0  0  0  0  0
  149.3238  137.2416  158.5033 N   0  0  0  0  0  0  0  0  0  0  0  0
  150.5148  137.4009  159.1728 C   0  0  0  0  0  0  0  0  0  0  0  0
  151.0642  138.5779  159.0555 N   0  0  0  0  0  0  0  0  0  0  0  0
  150.1838  139.2953  158.2524 C   0  0  0  0  0  0  0  0  0  0  0  0
  150.1563  140.6238  157.7303 C   0  0  0  0  0  0  0  0  0  0  0  0
  151.1108  141.5645  157.9535 N   0  0  0  0  0  0  0  0  0  0  0  0
  150.8322  142.9915  157.9921 C   0  0  0  0  0  0  0  0  0  0  0  0
  152.1783  143.6288  158.3428 C   0  0  1  0  0  0  0  0  0  0  0  0
  152.1254  145.0559  158.9230 C   0  0  0  0  0  0  0  0  0  0  0  0
  151.6487  145.0935  160.3825 C   0  0  0  0  0  0  0  0  0  0  0  0
  152.4814  144.1395  161.2523 C   0  0  1  0  0  0  0  0  0  0  0  0
  152.0125  144.1906  162.5833 O   0  0  0  0  0  0  0  0  0  0  0  0
  152.3707  142.7005  160.7274 C   0  0  0  0  0  0  0  0  0  0  0  0
  152.8338  142.5813  159.2587 C   0  0  1  0  0  0  0  0  0  0  0  0
  152.3659  141.2574  158.6349 C   0  0  0  0  0  0  0  0  0  0  0  0
  149.0857  140.9668  156.9663 N   0  0  0  0  0  0  0  0  0  0  0  0
  148.1138  140.0846  156.7199 C   0  0  0  0  0  0  0  0  0  0  0  0
  148.0113  138.8216  157.1337 N   0  0  0  0  0  0  0  0  0  0  0  0
  149.0783  138.4654  157.9038 C   0  0  0  0  0  0  0  0  0  0  0  0
  146.3652  137.3373  159.2206 C   0  0  0  0  0  0  0  0  0  0  0  0
  146.4079  137.6294  160.6335 O   0  0  0  0  0  0  0  0  0  0  0  0
  147.4995  136.6974  160.7813 C   0  0  0  0  0  0  0  0  0  0  0  0
  145.8594  135.1781  161.1504 H   0  0  0  0  0  0  0  0  0  0  0  0
  147.2214  133.9361  159.5632 H   0  0  0  0  0  0  0  0  0  0  0  0
  146.0590  134.5501  158.4205 H   0  0  0  0  0  0  0  0  0  0  0  0
  149.1241  135.1824  158.7074 H   0  0  0  0  0  0  0  0  0  0  0  0
  148.1932  135.8910  157.4272 H   0  0  0  0  0  0  0  0  0  0  0  0
  150.9695  136.6138  159.7557 H   0  0  0  0  0  0  0  0  0  0  0  0
  150.4618  143.3555  157.0336 H   0  0  0  0  0  0  0  0  0  0  0  0
  150.0830  143.1963  158.7574 H   0  0  0  0  0  0  0  0  0  0  0  0
  152.7574  143.6694  157.4187 H   0  0  0  0  0  0  0  0  0  0  0  0
  153.1258  145.4880  158.8752 H   0  0  0  0  0  0  0  0  0  0  0  0
  151.4919  145.6903  158.3025 H   0  0  0  0  0  0  0  0  0  0  0  0
  151.7231  146.1122  160.7650 H   0  0  0  0  0  0  0  0  0  0  0  0
  150.5937  144.8213  160.4339 H   0  0  0  0  0  0  0  0  0  0  0  0
  153.5257  144.4541  161.2491 H   0  0  0  0  0  0  0  0  0  0  0  0
  152.6741  143.8226  163.1491 H   0  0  0  0  0  0  0  0  0  0  0  0
  152.9590  142.0263  161.3511 H   0  0  0  0  0  0  0  0  0  0  0  0
  151.3346  142.3689  160.8156 H   0  0  0  0  0  0  0  0  0  0  0  0
  153.9205  142.6682  159.2229 H   0  0  0  0  0  0  0  0  0  0  0  0
  152.2542  140.4780  159.3901 H   0  0  0  0  0  0  0  0  0  0  0  0
  153.0849  140.9079  157.8934 H   0  0  0  0  0  0  0  0  0  0  0  0
  147.3022  140.4421  156.1036 H   0  0  0  0  0  0  0  0  0  0  0  0
  146.8116  138.1373  158.6278 H   0  0  0  0  0  0  0  0  0  0  0  0
  145.3573  137.1113  158.8705 H   0  0  0  0  0  0  0  0  0  0  0  0
  147.3425  135.9911  161.5971 H   0  0  0  0  0  0  0  0  0  0  0  0
  148.4527  137.2157  160.8931 H   0  0  0  0  0  0  0  0  0  0  0  0
  1  2  1  0  0  0  0
  1 27  1  0  0  0  0
  2  3  1  0  0  0  0
  2 28  1  0  0  0  0
  2 29  1  0  0  0  0
  3 26  1  0  0  0  0
  3  4  1  0  0  0  0
  3 24  1  0  0  0  0
  4  5  1  0  0  0  0
  4 30  1  0  0  0  0
  4 31  1  0  0  0  0
  5 23  1  0  0  0  0
  5  6  1  0  0  0  0
  6  7  2  0  0  0  0
  6 32  1  0  0  0  0
  7  8  1  0  0  0  0
  8 23  2  0  0  0  0
  8  9  1  0  0  0  0
  9 10  1  0  0  0  0
  9 20  2  0  0  0  0
 10 19  1  0  0  0  0
 10 11  1  0  0  0  0
 11 12  1  0  0  0  0
 11 33  1  0  0  0  0
 11 34  1  0  0  0  0
 12 18  1  0  0  0  0
 12 13  1  0  0  0  0
 12 35  1  0  0  0  0
 13 14  1  0  0  0  0
 13 36  1  0  0  0  0
 13 37  1  0  0  0  0
 14 15  1  0  0  0  0
 14 38  1  0  0  0  0
 14 39  1  0  0  0  0
 15 16  1  0  0  0  0
 15 17  1  0  0  0  0
 15 40  1  0  0  0  0
 16 41  1  0  0  0  0
 17 18  1  0  0  0  0
 17 42  1  0  0  0  0
 17 43  1  0  0  0  0
 18 19  1  0  0  0  0
 18 44  1  0  0  0  0
 19 45  1  0  0  0  0
 19 46  1  0  0  0  0
 20 21  1  0  0  0  0
 21 22  2  0  0  0  0
 21 47  1  0  0  0  0
 22 23  1  0  0  0  0
 24 25  1  0  0  0  0
 24 48  1  0  0  0  0
 24 49  1  0  0  0  0
 25 26  1  0  0  0  0
 26 50  1  0  0  0  0
 26 51  1  0  0  0  0
M  END
> <s_m_source_file>
AV-unprocessed.smi

> <i_m_source_file_index>
86

> <i_lp_mmshare_version>
43012

> <i_f3d_flags>
0

> <s_epik_input>
W0NIMl0xT1tDSDJdQzEoW0NIMl1bT0hdKVtDSDJdbihbY0hdbjIpYyhjMjMpbltjSF1uYzNOKFtDSDJdNClbQ0gyXVtDQEBIXShbQ0BIXTQ1KVtDSDJdW0NASF0oW09IXSlbQ0gyXVtDSDJdNQ==

> <s_epik_cmdline>
J2VwaWtfcHl0aG9uJywgJy1waCcsICc3LjAnLCAnLXRuJywgJzgnLCAnLW1hJywgJzIwMCcsICctbWV0YWxfYmluZGluZycsICctaW1hZScsICc8aW5maWxlLm1hZT4nLCAnLW9tYWUnLCAnPG91dGZpbGUubWFlPic=

> <r_lp_tautomer_probability>
1

> <r_epik_Ionization_Penalty>
0.00425795

> <r_epik_Ionization_Penalty_Charging>
0

> <r_epik_Ionization_Penalty_Neutral>
0.00425795

> <r_epik_State_Penalty>
0.00299946

> <r_epik_Charging_Adjusted_Penalty>
0.00299946

> <i_epik_Tot_Q>
0

> <i_epik_Tot_abs_Q>
0

> <r_epik_Metal_State_Penalty>
-0

> <b_epik_Metal_Only>
0

> <s_lp_Force_Field>
OPLS_2005

> <r_lp_Energy>
54.7951

> <b_lp_Chiralities_Consistent>
1

> <s_lp_Variant>
AV-unprocessed.smi:86-2

> <Gold.Version>
5.8.1

> <Gold.Id.Protein>
6NUR|6NUR_protein|mol2

> <Gold.PLP.Fitness>
48.3483

> <Gold.PLP.PLP>
-46.2446

> <Gold.PLP.part.hbond>
-3.0043

> <Gold.PLP.part.metal>
0.0000

> <Gold.PLP.part.buried>
-7.5335

> <Gold.PLP.part.nonpolar>
-35.6445

> <Gold.PLP.part.repulsive>
0.0438

> <Gold.PLP.ligand.clash>
0.0000

> <Gold.PLP.ligand.torsion>
0.6738

> <Gold.PLP.Chemscore.Hbond>
1.0000

> <Gold.PLP.Chemscore.CHOScore>
0.0000

> <Gold.PLP.Chemscore.Metal>
0.0000

> <Gold.Chemscore.Hbonds>
donor molecule, donor type, donor heavy atom, donor atom, acceptor molecule, acceptor atom, score
      P1  H  6934  6947       L1    25  1.00

> <Gold.PLP.Chemscore.Internal.Correction>
0.4512

> <Gold.Rescore>
     Score         DG    S(hbond)    S(metal)    S(lipo)     H(rot)  DE(clash)    DE(int)     intcor
      9.99     -13.74       0.85        0.00     106.83       2.76       0.12       3.64       ----

> <Gold.Chemscore.Fitness>
9.9874

> <Gold.Chemscore.DG>
-13.7440

> <Gold.Chemscore.ZeroCoef>
-5.4800

> <Gold.Chemscore.Hbond>
0.8498

> <Gold.Chemscore.Metal>
0.0000

> <Gold.Chemscore.Lipo>
106.8288

> <Gold.Chemscore.Internal_Hbond>
0.0000

> <Gold.Chemscore.DEClash>
0.1207

> <Gold.Chemscore.DEInternal>
3.6359

> <Gold.Chemscore.Rot>
2.7630

> <Gold.Chemscore.Internal.Correction>
   9.000000E+99

> <Gold.Chemscore.Hbonds>
donor molecule, donor type, donor heavy atom, donor atom, acceptor molecule, acceptor atom, score
      P1  H  6934  6947       L1    25  0.23

> <Gold.Chemscore.Hbond.Weighted>
-2.8384

> <Gold.Chemscore.Metal.Weighted>
-0.0000

> <Gold.Chemscore.Lipo.Weighted>
-12.4990

> <Gold.Chemscore.Internal_Hbond.Weighted>
0.0000

> <Gold.Chemscore.DEClash.Weighted>
0.1207

> <Gold.Chemscore.DEInternal.Weighted>
3.6359

> <Gold.Chemscore.Rot.Weighted>
7.0734

> <Gold.Chemscore.Internal.Correction.Weighted>
   9.000000E+99

> <Gold.Protein.RotatedTorsions>
[ 6907 6896 6895 6894 ] final   27.57 input  -60.11 | X-H torsion
[ 7974 7965 7964 7962 ] final -117.70 input  175.53 | X-H torsion
[ 8008 7997 7996 7995 ] final  -11.43 input   59.86 | X-H torsion
[ 10167 10162 10161 10158 ] final  157.06 input  -65.29 | X-H torsion
[ 10718 10713 10712 10709 ] final  169.89 input   66.30 | X-H torsion
[ 10763 10752 10751 10750 ] final  -32.87 input  -60.55 | X-H torsion
[ 11005 11000 10999 10996 ] final   79.09 input  -57.11 | X-H torsion

> <Gold.Protein.ActiveResidues>
 VAL166  LYS551  ARG553  GLY616  TRP617  ASP618  TYR619  PRO620  LYS621  CYS622 
 ASP623  PHE694  ASN695  SER759  ASP760  ASP761  ALA762  ILE779  LEU786  VAL792 
 PHE793  MET794  SER795  GLU796  ALA797  LYS798  CYS799  TRP800  GLU811  SER814 

> <Gold.Protein.RotatedAtoms>
  152.0042  134.9912  160.0565 H   0  0  0  0  0  0  0  0  0  0  0  0  # atno 6907 bound_to 6896
  152.1490  133.4506  159.4812 H   0  0  0  0  0  0  0  0  0  0  0  0  # atno 6908 bound_to 6896
  150.6873  134.2130  159.4410 H   0  0  0  0  0  0  0  0  0  0  0  0  # atno 6909 bound_to 6896
  145.0822  140.8433  143.4032 H   0  0  0  0  0  0  0  0  0  0  0  0  # atno 7974 bound_to 7965
  154.5465  140.2303  155.8554 H   0  0  0  0  0  0  0  0  0  0  0  0  # atno 8008 bound_to 7997
  156.1908  140.3077  155.9290 H   0  0  0  0  0  0  0  0  0  0  0  0  # atno 8009 bound_to 7997
  155.3153  140.0438  157.3027 H   0  0  0  0  0  0  0  0  0  0  0  0  # atno 8010 bound_to 7997
  139.4822  144.4952  151.8249 H   0  0  0  0  0  0  0  0  0  0  0  0  # atno 10167 bound_to 10162
  157.0160  131.0218  151.2789 H   0  0  0  0  0  0  0  0  0  0  0  0  # atno 10718 bound_to 10713
  153.8208  135.6874  153.4827 H   0  0  0  0  0  0  0  0  0  0  0  0  # atno 10763 bound_to 10752
  153.1570  135.4595  154.9717 H   0  0  0  0  0  0  0  0  0  0  0  0  # atno 10764 bound_to 10752
  154.7928  135.3308  154.7680 H   0  0  0  0  0  0  0  0  0  0  0  0  # atno 10765 bound_to 10752
  139.9186  134.7815  156.1734 H   0  0  0  0  0  0  0  0  0  0  0  0  # atno 11005 bound_to 11000
  145.1165  139.2722  143.5610 LP  0  0  0  0  0  0  0  0  0  0  0  0  # atno 17320 bound_to 7965
  146.3531  140.0776  142.8619 LP  0  0  0  0  0  0  0  0  0  0  0  0  # atno 17321 bound_to 7965
  140.4440  144.1947  150.5893 LP  0  0  0  0  0  0  0  0  0  0  0  0  # atno 17342 bound_to 10162
  140.4653  143.2433  151.9163 LP  0  0  0  0  0  0  0  0  0  0  0  0  # atno 17343 bound_to 10162
  157.5285  130.8043  149.7889 LP  0  0  0  0  0  0  0  0  0  0  0  0  # atno 17370 bound_to 10713
  156.0119  130.3830  150.2237 LP  0  0  0  0  0  0  0  0  0  0  0  0  # atno 17371 bound_to 10713
  141.0687  133.6807  156.2096 LP  0  0  0  0  0  0  0  0  0  0  0  0  # atno 17394 bound_to 11000
  140.6543  134.5034  157.5579 LP  0  0  0  0  0  0  0  0  0  0  0  0  # atno 17395 bound_to 11000

$$$$
