AV-unprocessed.smi:748|AV-procd|sdf|3582|dock1
  -GOLD-   22720 0573D 1   1.00000     0.00000
 Structure written by MMmdl.
 50 51  0  0  0  0  0  0  0  0  1 V2000
  141.1651  145.0807  154.3769 C   0  0  0  0  0  0  0  0  0  0  0  0
  142.4093  145.0038  155.2767 C   0  0  0  0  0  0  0  0  0  0  0  0
  143.1585  146.3426  155.3191 C   0  0  0  0  0  0  0  0  0  0  0  0
  143.3160  143.9565  154.8150 N   0  0  0  0  0  0  0  0  0  0  0  0
  144.4633  143.5985  155.4131 C   0  0  0  0  0  0  0  0  0  0  0  0
  144.8839  144.1268  156.4423 O   0  0  0  0  0  0  0  0  0  0  0  0
  145.2590  142.4754  154.7443 C   0  0  0  0  0  0  0  0  0  0  0  0
  146.4819  143.0051  153.9731 C   0  0  0  0  0  0  0  0  0  0  0  0
  147.7211  142.4488  154.5025 N   0  0  0  0  0  0  0  0  0  0  0  0
  148.1732  141.2066  154.2658 C   0  0  0  0  0  0  0  0  0  0  0  0
  147.5696  140.3852  153.5748 O   0  0  0  0  0  0  0  0  0  0  0  0
  149.4531  140.8377  154.9621 C   0  0  0  0  0  0  0  0  0  0  0  0
  150.0983  139.6050  154.7173 C   0  0  0  0  0  0  0  0  0  0  0  0
  151.2798  139.3147  155.4232 C   0  0  0  0  0  0  0  0  0  0  0  0
  151.8274  140.1522  156.3272 N   0  0  0  0  0  0  0  0  0  0  0  0
  151.2178  141.3366  156.5793 C   0  0  0  0  0  0  0  0  0  0  0  0
  151.7994  142.1965  157.5369 N   0  0  0  0  0  0  0  0  0  0  0  0
  151.3299  143.5795  157.5961 C   0  0  0  0  0  0  0  0  0  0  0  0
  152.2784  144.4295  158.4572 C   0  0  0  0  0  0  0  0  0  0  0  0
  152.4179  143.8369  159.7443 O   0  0  0  0  0  0  0  0  0  0  0  0
  152.9831  142.5307  159.6746 C   0  0  1  0  0  0  0  0  0  0  0  0
  153.1815  142.0153  161.1037 C   0  0  0  0  0  0  0  0  0  0  0  0
  152.0530  141.6164  158.8535 C   0  0  0  0  0  0  0  0  0  0  0  0
  150.0227  141.7086  155.9176 C   0  0  0  0  0  0  0  0  0  0  0  0
  140.4861  145.8638  154.7154 H   0  0  0  0  0  0  0  0  0  0  0  0
  140.6094  144.1425  154.3848 H   0  0  0  0  0  0  0  0  0  0  0  0
  141.4352  145.2989  153.3432 H   0  0  0  0  0  0  0  0  0  0  0  0
  142.0894  144.7687  156.2935 H   0  0  0  0  0  0  0  0  0  0  0  0
  142.5145  147.1399  155.6908 H   0  0  0  0  0  0  0  0  0  0  0  0
  143.5092  146.6337  154.3281 H   0  0  0  0  0  0  0  0  0  0  0  0
  144.0263  146.2879  155.9773 H   0  0  0  0  0  0  0  0  0  0  0  0
  143.0514  143.4689  153.9714 H   0  0  0  0  0  0  0  0  0  0  0  0
  145.5826  141.7553  155.4978 H   0  0  0  0  0  0  0  0  0  0  0  0
  144.5912  141.9402  154.0682 H   0  0  0  0  0  0  0  0  0  0  0  0
  146.3976  142.7854  152.9069 H   0  0  0  0  0  0  0  0  0  0  0  0
  146.5385  144.0906  154.0617 H   0  0  0  0  0  0  0  0  0  0  0  0
  148.2735  143.0465  155.1001 H   0  0  0  0  0  0  0  0  0  0  0  0
  149.7042  138.8865  154.0135 H   0  0  0  0  0  0  0  0  0  0  0  0
  151.7979  138.3813  155.2604 H   0  0  0  0  0  0  0  0  0  0  0  0
  151.2750  144.0062  156.5936 H   0  0  0  0  0  0  0  0  0  0  0  0
  150.3237  143.6007  158.0166 H   0  0  0  0  0  0  0  0  0  0  0  0
  153.2554  144.5259  157.9809 H   0  0  0  0  0  0  0  0  0  0  0  0
  151.8797  145.4376  158.5712 H   0  0  0  0  0  0  0  0  0  0  0  0
  153.9593  142.5896  159.1896 H   0  0  0  0  0  0  0  0  0  0  0  0
  153.6208  141.0176  161.1034 H   0  0  0  0  0  0  0  0  0  0  0  0
  152.2336  141.9640  161.6401 H   0  0  0  0  0  0  0  0  0  0  0  0
  153.8473  142.6714  161.6649 H   0  0  0  0  0  0  0  0  0  0  0  0
  151.0997  141.4901  159.3685 H   0  0  0  0  0  0  0  0  0  0  0  0
  152.5045  140.6284  158.7802 H   0  0  0  0  0  0  0  0  0  0  0  0
  149.5337  142.6438  156.1473 H   0  0  0  0  0  0  0  0  0  0  0  0
  1  2  1  0  0  0  0
  1 25  1  0  0  0  0
  1 26  1  0  0  0  0
  1 27  1  0  0  0  0
  2  3  1  0  0  0  0
  2  4  1  0  0  0  0
  2 28  1  0  0  0  0
  3 29  1  0  0  0  0
  3 30  1  0  0  0  0
  3 31  1  0  0  0  0
  4  5  1  0  0  0  0
  4 32  1  0  0  0  0
  5  6  2  0  0  0  0
  5  7  1  0  0  0  0
  7  8  1  0  0  0  0
  7 33  1  0  0  0  0
  7 34  1  0  0  0  0
  8  9  1  0  0  0  0
  8 35  1  0  0  0  0
  8 36  1  0  0  0  0
  9 10  1  0  0  0  0
  9 37  1  0  0  0  0
 10 11  2  0  0  0  0
 10 12  1  0  0  0  0
 12 24  1  0  0  0  0
 12 13  2  0  0  0  0
 13 14  1  0  0  0  0
 13 38  1  0  0  0  0
 14 15  2  0  0  0  0
 14 39  1  0  0  0  0
 15 16  1  0  0  0  0
 16 17  1  0  0  0  0
 16 24  2  0  0  0  0
 17 23  1  0  0  0  0
 17 18  1  0  0  0  0
 18 19  1  0  0  0  0
 18 40  1  0  0  0  0
 18 41  1  0  0  0  0
 19 20  1  0  0  0  0
 19 42  1  0  0  0  0
 19 43  1  0  0  0  0
 20 21  1  0  0  0  0
 21 22  1  0  0  0  0
 21 23  1  0  0  0  0
 21 44  1  0  0  0  0
 22 45  1  0  0  0  0
 22 46  1  0  0  0  0
 22 47  1  0  0  0  0
 23 48  1  0  0  0  0
 23 49  1  0  0  0  0
 24 50  1  0  0  0  0
M  END
> <s_m_source_file>
AV-unprocessed.smi

> <i_m_source_file_index>
748

> <i_lp_mmshare_version>
43012

> <i_f3d_flags>
0

> <s_epik_input>
W0NIM11bQ0hdKFtDSDNdKVtOSF1DKD1PKVtDSDJdW0NIMl1bTkhdQyg9TyljMVtjSF1bY0hdbmMoW2NIXTEpTjJbQ0gyXVtDSDJdT1tDQEBIXShbQ0gzXSlbQ0gyXTI=

> <s_epik_cmdline>
J2VwaWtfcHl0aG9uJywgJy1waCcsICc3LjAnLCAnLXRuJywgJzgnLCAnLW1hJywgJzIwMCcsICctbWV0YWxfYmluZGluZycsICctaW1hZScsICc8aW5maWxlLm1hZT4nLCAnLW9tYWUnLCAnPG91dGZpbGUubWFlPic=

> <r_lp_tautomer_probability>
1

> <r_epik_Ionization_Penalty>
1.38678e-05

> <r_epik_Ionization_Penalty_Charging>
0

> <r_epik_Ionization_Penalty_Neutral>
1.38678e-05

> <r_epik_State_Penalty>
-0

> <r_epik_Charging_Adjusted_Penalty>
0

> <i_epik_Tot_Q>
0

> <i_epik_Tot_abs_Q>
0

> <r_epik_Metal_State_Penalty>
-0

> <b_epik_Metal_Only>
0

> <s_lp_Force_Field>
OPLS_2005

> <r_lp_Energy>
16.8499

> <b_lp_Chiralities_Consistent>
1

> <s_lp_Variant>
AV-unprocessed.smi:748-1

> <Gold.Version>
5.8.1

> <Gold.Id.Protein>
6NUR|6NUR_protein|mol2

> <Gold.PLP.Fitness>
53.4190

> <Gold.PLP.PLP>
-48.8180

> <Gold.PLP.part.hbond>
-1.9824

> <Gold.PLP.part.metal>
0.0000

> <Gold.PLP.part.buried>
-4.9638

> <Gold.PLP.part.nonpolar>
-42.9174

> <Gold.PLP.part.repulsive>
0.8909

> <Gold.PLP.ligand.clash>
0.0000

> <Gold.PLP.ligand.torsion>
0.9324

> <Gold.PLP.Chemscore.Hbond>
2.0000

> <Gold.PLP.Chemscore.CHOScore>
0.0000

> <Gold.PLP.Chemscore.Metal>
0.0000

> <Gold.Chemscore.Hbonds>
donor molecule, donor type, donor heavy atom, donor atom, acceptor molecule, acceptor atom, score
      L1  H     4    32       P1 10174  0.80
      L1  H     9    37       P1  8028  1.00

> <Gold.PLP.Chemscore.Internal.Correction>
0.4658

> <Gold.Rescore>
     Score         DG    S(hbond)    S(metal)    S(lipo)     H(rot)  DE(clash)    DE(int)     intcor
     19.75     -20.84       1.97        0.00     116.08       1.87       0.07       1.02       ----

> <Gold.Chemscore.Fitness>
19.7482

> <Gold.Chemscore.DG>
-20.8431

> <Gold.Chemscore.ZeroCoef>
-5.4800

> <Gold.Chemscore.Hbond>
1.9663

> <Gold.Chemscore.Metal>
0.0000

> <Gold.Chemscore.Lipo>
116.0756

> <Gold.Chemscore.Internal_Hbond>
0.0000

> <Gold.Chemscore.DEClash>
0.0749

> <Gold.Chemscore.DEInternal>
1.0201

> <Gold.Chemscore.Rot>
1.8692

> <Gold.Chemscore.Internal.Correction>
   9.000000E+99

> <Gold.Chemscore.Hbonds>
donor molecule, donor type, donor heavy atom, donor atom, acceptor molecule, acceptor atom, score
      L1  H     4    32       P1 10174  0.77
      L1  H     9    37       P1  8028  0.94

> <Gold.Chemscore.Hbond.Weighted>
-6.5674

> <Gold.Chemscore.Metal.Weighted>
-0.0000

> <Gold.Chemscore.Lipo.Weighted>
-13.5808

> <Gold.Chemscore.Internal_Hbond.Weighted>
0.0000

> <Gold.Chemscore.DEClash.Weighted>
0.0749

> <Gold.Chemscore.DEInternal.Weighted>
1.0201

> <Gold.Chemscore.Rot.Weighted>
4.7852

> <Gold.Chemscore.Internal.Correction.Weighted>
   9.000000E+99

> <Gold.Protein.RotatedTorsions>
[ 6907 6896 6895 6894 ] final   70.13 input  -60.11 | X-H torsion
[ 7974 7965 7964 7962 ] final   52.15 input  175.53 | X-H torsion
[ 8008 7997 7996 7995 ] final  -18.22 input   59.86 | X-H torsion
[ 10167 10162 10161 10158 ] final -152.03 input  -65.29 | X-H torsion
[ 10718 10713 10712 10709 ] final -147.80 input   66.30 | X-H torsion
[ 10763 10752 10751 10750 ] final -167.72 input  -60.55 | X-H torsion
[ 11005 11000 10999 10996 ] final   81.70 input  -57.11 | X-H torsion

> <Gold.Protein.ActiveResidues>
 VAL166  LYS551  ARG553  GLY616  TRP617  ASP618  TYR619  PRO620  LYS621  CYS622 
 ASP623  PHE694  ASN695  SER759  ASP760  ASP761  ALA762  ILE779  LEU786  VAL792 
 PHE793  MET794  SER795  GLU796  ALA797  LYS798  CYS799  TRP800  GLU811  SER814 

> <Gold.Protein.RotatedAtoms>
  152.4730  134.4913  159.9696 H   0  0  0  0  0  0  0  0  0  0  0  0  # atno 6907 bound_to 6896
  151.4936  133.3513  159.2865 H   0  0  0  0  0  0  0  0  0  0  0  0  # atno 6908 bound_to 6896
  150.8751  134.8160  159.7245 H   0  0  0  0  0  0  0  0  0  0  0  0  # atno 6909 bound_to 6896
  145.9842  139.4273  143.0113 H   0  0  0  0  0  0  0  0  0  0  0  0  # atno 7974 bound_to 7965
  154.4922  140.2122  155.9524 H   0  0  0  0  0  0  0  0  0  0  0  0  # atno 8008 bound_to 7997
  156.1321  140.3195  155.8333 H   0  0  0  0  0  0  0  0  0  0  0  0  # atno 8009 bound_to 7997
  155.4277  140.0501  157.3011 H   0  0  0  0  0  0  0  0  0  0  0  0  # atno 8010 bound_to 7997
  139.7217  143.8947  152.2505 H   0  0  0  0  0  0  0  0  0  0  0  0  # atno 10167 bound_to 10162
  156.4122  130.7987  151.2205 H   0  0  0  0  0  0  0  0  0  0  0  0  # atno 10718 bound_to 10713
  154.6703  135.2938  154.9750 H   0  0  0  0  0  0  0  0  0  0  0  0  # atno 10763 bound_to 10752
  154.0780  135.6608  153.4837 H   0  0  0  0  0  0  0  0  0  0  0  0  # atno 10764 bound_to 10752
  153.0483  135.5190  154.7696 H   0  0  0  0  0  0  0  0  0  0  0  0  # atno 10765 bound_to 10752
  139.9089  134.8016  156.2076 H   0  0  0  0  0  0  0  0  0  0  0  0  # atno 11005 bound_to 11000
  145.7725  140.9891  143.1142 LP  0  0  0  0  0  0  0  0  0  0  0  0  # atno 17320 bound_to 7965
  144.6870  139.9464  143.7476 LP  0  0  0  0  0  0  0  0  0  0  0  0  # atno 17321 bound_to 7965
  139.8845  144.6999  150.8840 LP  0  0  0  0  0  0  0  0  0  0  0  0  # atno 17342 bound_to 10162
  140.7755  143.3635  151.1784 LP  0  0  0  0  0  0  0  0  0  0  0  0  # atno 17343 bound_to 10162
  157.7507  131.0254  150.3918 LP  0  0  0  0  0  0  0  0  0  0  0  0  # atno 17370 bound_to 10713
  156.4218  130.3954  149.6820 LP  0  0  0  0  0  0  0  0  0  0  0  0  # atno 17371 bound_to 10713
  141.0485  133.6900  156.1728 LP  0  0  0  0  0  0  0  0  0  0  0  0  # atno 17394 bound_to 11000
  140.6846  134.4730  157.5589 LP  0  0  0  0  0  0  0  0  0  0  0  0  # atno 17395 bound_to 11000

$$$$
