AV-unprocessed.smi:1623|AV-procd|sdf|6502|dock7
  -GOLD-   22720 7173D 1   1.00000     0.00000
 Structure written by MMmdl.
 42 43  0  0  0  0  0  0  0  0  1 V2000
  146.6061  136.8165  162.8322 C   0  0  0  0  0  0  0  0  0  0  0  0
  147.1996  136.1932  161.5977 C   0  0  0  0  0  0  0  0  0  0  0  0
  147.8719  136.9753  160.8182 N   0  0  0  0  0  0  0  0  0  0  0  0
  148.4584  136.5047  159.6609 N   0  0  0  0  0  0  0  0  0  0  0  0
  149.1641  137.5339  158.8899 C   0  0  0  0  0  0  0  0  0  0  0  0
  148.1861  138.4273  158.0940 C   0  0  1  0  0  0  0  0  0  0  0  0
  146.9451  138.4574  158.7698 O   0  0  0  0  0  0  0  0  0  0  0  0
  148.6862  139.8746  157.9892 C   0  0  0  0  0  0  0  0  0  0  0  0
  149.6367  140.0952  159.0208 O   0  0  0  0  0  0  0  0  0  0  0  0
  150.9434  140.3928  158.5521 C   0  0  0  0  0  0  0  0  0  0  0  0
  151.4078  141.7917  158.9307 C   0  0  0  0  0  0  0  0  0  0  0  0
  150.8144  142.9100  158.3063 C   0  0  0  0  0  0  0  0  0  0  0  0
  151.2262  144.2142  158.6402 C   0  0  0  0  0  0  0  0  0  0  0  0
  152.2379  144.4086  159.5988 C   0  0  0  0  0  0  0  0  0  0  0  0
  152.8380  143.2978  160.2213 C   0  0  0  0  0  0  0  0  0  0  0  0
  152.4289  141.9901  159.8912 C   0  0  0  0  0  0  0  0  0  0  0  0
  153.1944  140.6538  160.6773 Cl  0  0  0  0  0  0  0  0  0  0  0  0
  148.3985  135.2130  159.2275 C   0  0  0  0  0  0  0  0  0  0  0  0
  148.9339  134.8383  158.1830 O   0  0  0  0  0  0  0  0  0  0  0  0
  147.6356  134.3323  160.1148 C   0  0  0  0  0  0  0  0  0  0  0  0
  147.5452  132.9704  159.6968 C   0  0  0  0  0  0  0  0  0  0  0  0
  147.4506  131.8670  159.3595 N   0  0  0  0  0  0  0  0  0  0  0  0
  147.0517  134.7824  161.2537 C   0  0  0  0  0  0  0  0  0  0  0  0
  146.2462  133.9100  162.2069 C   0  0  0  0  0  0  0  0  0  0  0  0
  145.5206  136.7142  162.8344 H   0  0  0  0  0  0  0  0  0  0  0  0
  146.8358  137.8810  162.9010 H   0  0  0  0  0  0  0  0  0  0  0  0
  146.9939  136.3381  163.7319 H   0  0  0  0  0  0  0  0  0  0  0  0
  149.8045  138.1396  159.5345 H   0  0  0  0  0  0  0  0  0  0  0  0
  149.8581  137.0390  158.2082 H   0  0  0  0  0  0  0  0  0  0  0  0
  148.0221  138.0385  157.0880 H   0  0  0  0  0  0  0  0  0  0  0  0
  147.0883  138.2010  159.6681 H   0  0  0  0  0  0  0  0  0  0  0  0
  149.1680  140.0442  157.0249 H   0  0  0  0  0  0  0  0  0  0  0  0
  147.8463  140.5674  158.0623 H   0  0  0  0  0  0  0  0  0  0  0  0
  151.6339  139.6746  158.9951 H   0  0  0  0  0  0  0  0  0  0  0  0
  150.9981  140.2417  157.4729 H   0  0  0  0  0  0  0  0  0  0  0  0
  150.0361  142.7716  157.5700 H   0  0  0  0  0  0  0  0  0  0  0  0
  150.7659  145.0652  158.1602 H   0  0  0  0  0  0  0  0  0  0  0  0
  152.5545  145.4086  159.8554 H   0  0  0  0  0  0  0  0  0  0  0  0
  153.6158  143.4508  160.9549 H   0  0  0  0  0  0  0  0  0  0  0  0
  146.1861  132.8759  161.8689 H   0  0  0  0  0  0  0  0  0  0  0  0
  145.2256  134.2834  162.2980 H   0  0  0  0  0  0  0  0  0  0  0  0
  146.7011  133.9045  163.1978 H   0  0  0  0  0  0  0  0  0  0  0  0
  1  2  1  0  0  0  0
  1 25  1  0  0  0  0
  1 26  1  0  0  0  0
  1 27  1  0  0  0  0
  2 23  1  0  0  0  0
  2  3  2  0  0  0  0
  3  4  1  0  0  0  0
  4  5  1  0  0  0  0
  4 18  1  0  0  0  0
  5  6  1  0  0  0  0
  5 28  1  0  0  0  0
  5 29  1  0  0  0  0
  6  7  1  0  0  0  0
  6  8  1  0  0  0  0
  6 30  1  0  0  0  0
  7 31  1  0  0  0  0
  8  9  1  0  0  0  0
  8 32  1  0  0  0  0
  8 33  1  0  0  0  0
  9 10  1  0  0  0  0
 10 11  1  0  0  0  0
 10 34  1  0  0  0  0
 10 35  1  0  0  0  0
 11 16  1  0  0  0  0
 11 12  2  0  0  0  0
 12 13  1  0  0  0  0
 12 36  1  0  0  0  0
 13 14  2  0  0  0  0
 13 37  1  0  0  0  0
 14 15  1  0  0  0  0
 14 38  1  0  0  0  0
 15 16  2  0  0  0  0
 15 39  1  0  0  0  0
 16 17  1  0  0  0  0
 18 19  2  0  0  0  0
 18 20  1  0  0  0  0
 20 21  1  0  0  0  0
 20 23  2  0  0  0  0
 21 22  3  0  0  0  0
 23 24  1  0  0  0  0
 24 40  1  0  0  0  0
 24 41  1  0  0  0  0
 24 42  1  0  0  0  0
M  END
> <s_m_source_file>
AV-unprocessed.smi

> <i_m_source_file_index>
1623

> <i_lp_mmshare_version>
43012

> <i_f3d_flags>
0

> <s_epik_input>
TiNDYyhjMVtDSDNdKWMoPU8pbihuYzFbQ0gzXSlbQ0gyXVtDQEhdKFtPSF0pW0NIMl1PW0NIMl1jMltjSF1bY0hdW2NIXVtjSF1jMkNs

> <s_epik_cmdline>
J2VwaWtfcHl0aG9uJywgJy1waCcsICc3LjAnLCAnLXRuJywgJzgnLCAnLW1hJywgJzIwMCcsICctbWV0YWxfYmluZGluZycsICctaW1hZScsICc8aW5maWxlLm1hZT4nLCAnLW9tYWUnLCAnPG91dGZpbGUubWFlPic=

> <r_lp_tautomer_probability>
1

> <r_epik_Ionization_Penalty>
6.50533e-08

> <r_epik_Ionization_Penalty_Charging>
2.19172e-10

> <r_epik_Ionization_Penalty_Neutral>
6.48342e-08

> <r_epik_State_Penalty>
-0

> <r_epik_Charging_Adjusted_Penalty>
2.19172e-10

> <i_epik_Tot_Q>
0

> <i_epik_Tot_abs_Q>
0

> <r_epik_Metal_State_Penalty>
-0

> <b_epik_Metal_Only>
0

> <s_lp_Force_Field>
OPLS_2005

> <r_lp_Energy>
29.8059

> <b_lp_Chiralities_Consistent>
1

> <s_lp_Variant>
AV-unprocessed.smi:1623-2

> <Gold.Version>
5.8.1

> <Gold.Id.Protein>
6NUR|6NUR_protein|mol2

> <Gold.PLP.Fitness>
52.6518

> <Gold.PLP.PLP>
-48.8108

> <Gold.PLP.part.hbond>
-4.1523

> <Gold.PLP.part.metal>
0.0000

> <Gold.PLP.part.buried>
-2.3892

> <Gold.PLP.part.nonpolar>
-43.0953

> <Gold.PLP.part.repulsive>
0.0000

> <Gold.PLP.ligand.clash>
0.0000

> <Gold.PLP.ligand.torsion>
2.0689

> <Gold.PLP.Chemscore.Hbond>
2.6000

> <Gold.PLP.Chemscore.CHOScore>
0.0000

> <Gold.PLP.Chemscore.Metal>
0.0000

> <Gold.Chemscore.Hbonds>
donor molecule, donor type, donor heavy atom, donor atom, acceptor molecule, acceptor atom, score
      P1  H  6896  6908       L1    19  0.25
      P1  H  6931  6943       L1     3  0.95
      P1  H  6934  6947       L1     3  0.58

> <Gold.PLP.Chemscore.Internal.Correction>
0.1788

> <Gold.Rescore>
     Score         DG    S(hbond)    S(metal)    S(lipo)     H(rot)  DE(clash)    DE(int)     intcor
     17.90     -20.09       1.82        0.00     127.11       2.48       0.15       2.04       ----

> <Gold.Chemscore.Fitness>
17.9000

> <Gold.Chemscore.DG>
-20.0899

> <Gold.Chemscore.ZeroCoef>
-5.4800

> <Gold.Chemscore.Hbond>
1.8205

> <Gold.Chemscore.Metal>
0.0000

> <Gold.Chemscore.Lipo>
127.1121

> <Gold.Chemscore.Internal_Hbond>
0.0000

> <Gold.Chemscore.DEClash>
0.1476

> <Gold.Chemscore.DEInternal>
2.0423

> <Gold.Chemscore.Rot>
2.4777

> <Gold.Chemscore.Internal.Correction>
   9.000000E+99

> <Gold.Chemscore.Hbonds>
donor molecule, donor type, donor heavy atom, donor atom, acceptor molecule, acceptor atom, score
      P1  H  6896  6908       L1    19  0.01
      P1  H  6931  6943       L1     3  0.59
      P1  H  6934  6947       L1     3  0.45

> <Gold.Chemscore.Hbond.Weighted>
-6.0806

> <Gold.Chemscore.Metal.Weighted>
-0.0000

> <Gold.Chemscore.Lipo.Weighted>
-14.8721

> <Gold.Chemscore.Internal_Hbond.Weighted>
0.0000

> <Gold.Chemscore.DEClash.Weighted>
0.1476

> <Gold.Chemscore.DEInternal.Weighted>
2.0423

> <Gold.Chemscore.Rot.Weighted>
6.3428

> <Gold.Chemscore.Internal.Correction.Weighted>
   9.000000E+99

> <Gold.Protein.RotatedTorsions>
[ 6907 6896 6895 6894 ] final  135.89 input  -60.11 | X-H torsion
[ 7974 7965 7964 7962 ] final   57.26 input  175.53 | X-H torsion
[ 8008 7997 7996 7995 ] final   93.94 input   59.86 | X-H torsion
[ 10167 10162 10161 10158 ] final  113.49 input  -65.29 | X-H torsion
[ 10718 10713 10712 10709 ] final   97.55 input   66.30 | X-H torsion
[ 10763 10752 10751 10750 ] final   93.27 input  -60.55 | X-H torsion
[ 11005 11000 10999 10996 ] final  166.13 input  -57.11 | X-H torsion

> <Gold.Protein.ActiveResidues>
 VAL166  LYS551  ARG553  GLY616  TRP617  ASP618  TYR619  PRO620  LYS621  CYS622 
 ASP623  PHE694  ASN695  SER759  ASP760  ASP761  ALA762  ILE779  LEU786  VAL792 
 PHE793  MET794  SER795  GLU796  ALA797  LYS798  CYS799  TRP800  GLU811  SER814 

> <Gold.Protein.RotatedAtoms>
  152.2954  133.5602  159.5583 H   0  0  0  0  0  0  0  0  0  0  0  0  # atno 6907 bound_to 6896
  150.7253  134.0368  159.3761 H   0  0  0  0  0  0  0  0  0  0  0  0  # atno 6908 bound_to 6896
  151.8272  135.0633  160.0483 H   0  0  0  0  0  0  0  0  0  0  0  0  # atno 6909 bound_to 6896
  145.9310  139.3807  143.0421 H   0  0  0  0  0  0  0  0  0  0  0  0  # atno 7974 bound_to 7965
  156.0524  140.3306  155.7367 H   0  0  0  0  0  0  0  0  0  0  0  0  # atno 8008 bound_to 7997
  155.5580  140.0616  157.2853 H   0  0  0  0  0  0  0  0  0  0  0  0  # atno 8009 bound_to 7997
  154.4442  140.1882  156.0742 H   0  0  0  0  0  0  0  0  0  0  0  0  # atno 8010 bound_to 7997
  139.6457  144.7126  151.2147 H   0  0  0  0  0  0  0  0  0  0  0  0  # atno 10167 bound_to 10162
  157.6911  131.0613  150.4660 H   0  0  0  0  0  0  0  0  0  0  0  0  # atno 10718 bound_to 10713
  153.2284  135.4331  155.0568 H   0  0  0  0  0  0  0  0  0  0  0  0  # atno 10763 bound_to 10752
  154.8285  135.3373  154.6823 H   0  0  0  0  0  0  0  0  0  0  0  0  # atno 10764 bound_to 10752
  153.7252  135.7014  153.5059 H   0  0  0  0  0  0  0  0  0  0  0  0  # atno 10765 bound_to 10752
  140.2633  134.7885  157.3610 H   0  0  0  0  0  0  0  0  0  0  0  0  # atno 11005 bound_to 11000
  145.8426  140.9572  143.0791 LP  0  0  0  0  0  0  0  0  0  0  0  0  # atno 17320 bound_to 7965
  144.6765  140.0304  143.7482 LP  0  0  0  0  0  0  0  0  0  0  0  0  # atno 17321 bound_to 7965
  140.7513  143.6235  150.8491 LP  0  0  0  0  0  0  0  0  0  0  0  0  # atno 17342 bound_to 10162
  139.9877  143.5881  152.2921 LP  0  0  0  0  0  0  0  0  0  0  0  0  # atno 17343 bound_to 10162
  156.5001  130.4115  149.6358 LP  0  0  0  0  0  0  0  0  0  0  0  0  # atno 17370 bound_to 10713
  156.3336  130.7344  151.2278 LP  0  0  0  0  0  0  0  0  0  0  0  0  # atno 17371 bound_to 10713
  140.1443  134.4931  155.8008 LP  0  0  0  0  0  0  0  0  0  0  0  0  # atno 17394 bound_to 11000
  141.2187  133.6837  156.7266 LP  0  0  0  0  0  0  0  0  0  0  0  0  # atno 17395 bound_to 11000

$$$$
