AV-unprocessed.smi:3208|AV-procd|sdf|12262|dock9
  -GOLD-   2272018 93D 1   1.00000     0.00000
 Structure written by MMmdl.
 30 30  0  0  0  0  0  0  0  0  3 V2000
  153.0540  138.6584  154.7108 C   0  0  0  0  0  0  0  0  0  0  0  0
  151.9532  137.9271  154.4806 C   0  0  0  0  0  0  0  0  0  0  0  0
  150.5512  138.4892  154.3996 C   0  0  0  0  0  0  0  0  0  0  0  0
  150.5792  139.9034  154.5510 O   0  0  0  0  0  0  0  0  0  0  0  0
  149.5457  140.4550  155.3633 C   0  0  2  0  0  0  0  0  0  0  0  0
  149.1020  141.7748  154.7142 C   0  0  0  0  0  0  0  0  0  0  0  0
  150.0514  140.6767  156.7981 C   0  0  0  0  0  0  0  0  0  0  0  0
  149.5253  140.0701  157.7327 O   0  0  0  0  0  0  0  0  0  0  0  0
  151.0584  141.5601  156.9304 N   0  0  0  0  0  0  0  0  0  0  0  0
  151.7293  141.9765  158.1134 C   0  0  0  0  0  0  0  0  0  0  0  0
  151.4976  143.1828  158.6893 N   0  3  0  0  0  0  0  0  0  0  0  0
  152.1160  143.6059  159.8127 C   0  0  0  0  0  0  0  0  0  0  0  0
  153.0588  142.7752  160.4478 C   0  0  0  0  0  0  0  0  0  0  0  0
  153.3381  141.5110  159.8920 C   0  0  0  0  0  0  0  0  0  0  0  0
  152.6703  141.1068  158.7164 C   0  0  0  0  0  0  0  0  0  0  0  0
  152.9426  139.8806  158.1770 O   0  5  0  0  0  0  0  0  0  0  0  0
  152.9987  139.7275  154.8558 H   0  0  0  0  0  0  0  0  0  0  0  0
  154.0282  138.1944  154.7569 H   0  0  0  0  0  0  0  0  0  0  0  0
  152.0482  136.8602  154.3400 H   0  0  0  0  0  0  0  0  0  0  0  0
  150.1324  138.2231  153.4282 H   0  0  0  0  0  0  0  0  0  0  0  0
  149.9291  138.0249  155.1659 H   0  0  0  0  0  0  0  0  0  0  0  0
  148.6908  139.7759  155.3715 H   0  0  0  0  0  0  0  0  0  0  0  0
  148.3168  142.2590  155.2959 H   0  0  0  0  0  0  0  0  0  0  0  0
  148.7071  141.5981  153.7135 H   0  0  0  0  0  0  0  0  0  0  0  0
  149.9318  142.4764  154.6198 H   0  0  0  0  0  0  0  0  0  0  0  0
  151.3893  141.9954  156.0811 H   0  0  0  0  0  0  0  0  0  0  0  0
  151.8387  144.5882  160.1661 H   0  0  0  0  0  0  0  0  0  0  0  0
  153.5604  143.1012  161.3470 H   0  0  0  0  0  0  0  0  0  0  0  0
  154.0578  140.8584  160.3646 H   0  0  0  0  0  0  0  0  0  0  0  0
  150.8178  143.8032  158.2477 H   0  0  0  0  0  0  0  0  0  0  0  0
  1  2  2  0  0  0  0
  1 17  1  0  0  0  0
  1 18  1  0  0  0  0
  2  3  1  0  0  0  0
  2 19  1  0  0  0  0
  3  4  1  0  0  0  0
  3 20  1  0  0  0  0
  3 21  1  0  0  0  0
  4  5  1  0  0  0  0
  5  6  1  0  0  0  0
  5  7  1  0  0  0  0
  5 22  1  0  0  0  0
  6 23  1  0  0  0  0
  6 24  1  0  0  0  0
  6 25  1  0  0  0  0
  7  8  2  0  0  0  0
  7  9  1  0  0  0  0
  9 26  1  0  0  0  0
  9 10  1  0  0  0  0
 10 15  2  0  0  0  0
 10 11  1  0  0  0  0
 11 30  1  0  0  0  0
 11 12  2  0  0  0  0
 12 27  1  0  0  0  0
 12 13  1  0  0  0  0
 13 28  1  0  0  0  0
 13 14  2  0  0  0  0
 14 15  1  0  0  0  0
 14 29  1  0  0  0  0
 15 16  1  0  0  0  0
M  CHG  1  11   1
M  CHG  1  16  -1
M  END
> <s_m_source_file>
AV-unprocessed.smi

> <i_m_source_file_index>
3208

> <i_lp_mmshare_version>
43012

> <i_f3d_flags>
0

> <s_epik_input>
W0NIMl09W0NIXVtDSDJdT1tDQEhdKFtDSDNdKUMoPU8pW05IXWMxbltjSF1bY0hdW2NIXWMxW09IXQ==

> <s_epik_cmdline>
J2VwaWtfcHl0aG9uJywgJy1waCcsICc3LjAnLCAnLXRuJywgJzgnLCAnLW1hJywgJzIwMCcsICctbWV0YWxfYmluZGluZycsICctaW1hZScsICc8aW5maWxlLm1hZT4nLCAnLW9tYWUnLCAnPG91dGZpbGUubWFlPic=

> <r_lp_tautomer_probability>
0.56342

> <r_epik_Ionization_Penalty>
0.29395

> <r_epik_Ionization_Penalty_Charging>
0.0267837

> <r_epik_Ionization_Penalty_Neutral>
0.267166

> <r_epik_State_Penalty>
0.587031

> <r_epik_Charging_Adjusted_Penalty>
0.613815

> <i_epik_Tot_Q>
0

> <i_epik_Tot_abs_Q>
2

> <r_epik_Metal_State_Penalty>
2.67911

> <b_epik_Metal_Only>
0

> <s_lp_Force_Field>
OPLS_2005

> <r_lp_Energy>
5.5941

> <b_lp_Chiralities_Consistent>
1

> <s_lp_Variant>
AV-unprocessed.smi:3208-3

> <Gold.Version>
5.8.1

> <Gold.Id.Protein>
6NUR|6NUR_protein|mol2

> <Gold.PLP.Fitness>
39.8517

> <Gold.PLP.PLP>
-33.3670

> <Gold.PLP.part.hbond>
-2.0000

> <Gold.PLP.part.metal>
0.0000

> <Gold.PLP.part.buried>
-3.7308

> <Gold.PLP.part.nonpolar>
-28.0842

> <Gold.PLP.part.repulsive>
0.2100

> <Gold.PLP.ligand.clash>
0.0000

> <Gold.PLP.ligand.torsion>
1.5354

> <Gold.PLP.Chemscore.Hbond>
3.0000

> <Gold.PLP.Chemscore.CHOScore>
0.0000

> <Gold.PLP.Chemscore.Metal>
0.0000

> <Gold.Chemscore.Hbonds>
donor molecule, donor type, donor heavy atom, donor atom, acceptor molecule, acceptor atom, score
      P1  H  7989  7998       L1     4  1.00
      P1  H  7997  8010       L1    16  2.00

> <Gold.PLP.Chemscore.Internal.Correction>
0.5555

> <Gold.Rescore>
     Score         DG    S(hbond)    S(metal)    S(lipo)     H(rot)  DE(clash)    DE(int)     intcor
     15.78     -17.31       1.91        0.00      83.81       1.70       0.07       1.46       ----

> <Gold.Chemscore.Fitness>
15.7787

> <Gold.Chemscore.DG>
-17.3132

> <Gold.Chemscore.ZeroCoef>
-5.4800

> <Gold.Chemscore.Hbond>
1.9084

> <Gold.Chemscore.Metal>
0.0000

> <Gold.Chemscore.Lipo>
83.8100

> <Gold.Chemscore.Internal_Hbond>
0.0000

> <Gold.Chemscore.DEClash>
0.0744

> <Gold.Chemscore.DEInternal>
1.4602

> <Gold.Chemscore.Rot>
1.6979

> <Gold.Chemscore.Internal.Correction>
   9.000000E+99

> <Gold.Chemscore.Hbonds>
donor molecule, donor type, donor heavy atom, donor atom, acceptor molecule, acceptor atom, score
      P1  H  7989  7998       L1     4  0.96
      P1  H  7997  8010       L1    16  0.62

> <Gold.Chemscore.Hbond.Weighted>
-6.3741

> <Gold.Chemscore.Metal.Weighted>
-0.0000

> <Gold.Chemscore.Lipo.Weighted>
-9.8058

> <Gold.Chemscore.Internal_Hbond.Weighted>
0.0000

> <Gold.Chemscore.DEClash.Weighted>
0.0744

> <Gold.Chemscore.DEInternal.Weighted>
1.4602

> <Gold.Chemscore.Rot.Weighted>
4.3467

> <Gold.Chemscore.Internal.Correction.Weighted>
   9.000000E+99

> <Gold.Protein.RotatedTorsions>
[ 6907 6896 6895 6894 ] final  -53.42 input  -60.11 | X-H torsion
[ 7974 7965 7964 7962 ] final  -59.11 input  175.53 | X-H torsion
[ 8008 7997 7996 7995 ] final   38.01 input   59.86 | X-H torsion
[ 10167 10162 10161 10158 ] final -149.33 input  -65.29 | X-H torsion
[ 10718 10713 10712 10709 ] final  -69.34 input   66.30 | X-H torsion
[ 10763 10752 10751 10750 ] final  141.91 input  -60.55 | X-H torsion
[ 11005 11000 10999 10996 ] final -122.32 input  -57.11 | X-H torsion

> <Gold.Protein.ActiveResidues>
 VAL166  LYS551  ARG553  GLY616  TRP617  ASP618  TYR619  PRO620  LYS621  CYS622 
 ASP623  PHE694  ASN695  SER759  ASP760  ASP761  ALA762  ILE779  LEU786  VAL792 
 PHE793  MET794  SER795  GLU796  ALA797  LYS798  CYS799  TRP800  GLU811  SER814 

> <Gold.Protein.RotatedAtoms>
  150.8428  134.7726  159.6945 H   0  0  0  0  0  0  0  0  0  0  0  0  # atno 6907 bound_to 6896
  152.4512  134.5387  159.9842 H   0  0  0  0  0  0  0  0  0  0  0  0  # atno 6908 bound_to 6896
  151.5523  133.3377  159.2991 H   0  0  0  0  0  0  0  0  0  0  0  0  # atno 6909 bound_to 6896
  145.8313  140.8477  143.0082 H   0  0  0  0  0  0  0  0  0  0  0  0  # atno 7974 bound_to 7965
  155.2131  140.3325  155.4326 H   0  0  0  0  0  0  0  0  0  0  0  0  # atno 8008 bound_to 7997
  156.2363  140.1873  156.7160 H   0  0  0  0  0  0  0  0  0  0  0  0  # atno 8009 bound_to 7997
  154.6065  140.0615  156.9423 H   0  0  0  0  0  0  0  0  0  0  0  0  # atno 8010 bound_to 7997
  139.7452  143.8601  152.2573 H   0  0  0  0  0  0  0  0  0  0  0  0  # atno 10167 bound_to 10162
  156.0460  130.4311  150.2133 H   0  0  0  0  0  0  0  0  0  0  0  0  # atno 10718 bound_to 10713
  153.9471  135.2974  155.3440 H   0  0  0  0  0  0  0  0  0  0  0  0  # atno 10763 bound_to 10752
  154.7446  135.5009  153.9185 H   0  0  0  0  0  0  0  0  0  0  0  0  # atno 10764 bound_to 10752
  153.1013  135.6735  153.9776 H   0  0  0  0  0  0  0  0  0  0  0  0  # atno 10765 bound_to 10752
  141.0004  134.0411  157.3545 H   0  0  0  0  0  0  0  0  0  0  0  0  # atno 11005 bound_to 11000
  144.6739  140.0677  143.7474 LP  0  0  0  0  0  0  0  0  0  0  0  0  # atno 17320 bound_to 7965
  145.9567  139.2771  143.1180 LP  0  0  0  0  0  0  0  0  0  0  0  0  # atno 17321 bound_to 7965
  139.8563  144.7139  150.9153 LP  0  0  0  0  0  0  0  0  0  0  0  0  # atno 17342 bound_to 10162
  140.7791  143.3855  151.1400 LP  0  0  0  0  0  0  0  0  0  0  0  0  # atno 17343 bound_to 10162
  157.0222  130.9983  151.3336 LP  0  0  0  0  0  0  0  0  0  0  0  0  # atno 17370 bound_to 10713
  157.5336  130.8074  149.7945 LP  0  0  0  0  0  0  0  0  0  0  0  0  # atno 17371 bound_to 10713
  139.9036  135.0172  156.7382 LP  0  0  0  0  0  0  0  0  0  0  0  0  # atno 17394 bound_to 11000
  140.6899  133.9399  155.7960 LP  0  0  0  0  0  0  0  0  0  0  0  0  # atno 17395 bound_to 11000

$$$$
