AV-unprocessed.smi:2784|AV-procd|sdf|10740|dock6
  -GOLD-   2272015173D 1   1.00000     0.00000
 Structure written by MMmdl.
 31 32  0  0  0  0  0  0  0  0  1 V2000
  151.5630  145.1848  158.9417 C   0  0  0  0  0  0  0  0  0  0  0  0
  152.0147  143.8857  158.5961 O   0  0  0  0  0  0  0  0  0  0  0  0
  151.8384  142.9219  159.6310 C   0  0  2  0  0  0  0  0  0  0  0  0
  153.0265  143.0779  160.5817 C   0  0  0  0  0  0  0  0  0  0  0  0
  154.1450  142.2773  159.9211 C   0  0  0  0  0  0  0  0  0  0  0  0
  153.4403  141.0687  159.3000 C   0  0  0  0  0  0  0  0  0  0  0  0
  151.9703  141.4808  159.0844 C   0  0  2  0  0  0  0  0  0  0  0  0
  151.5945  141.3654  157.6763 N   0  0  0  0  0  0  0  0  0  0  0  0
  150.5063  140.7362  157.2082 C   0  0  0  0  0  0  0  0  0  0  0  0
  149.7098  140.1753  157.9674 O   0  0  0  0  0  0  0  0  0  0  0  0
  150.4556  140.8435  155.8260 N   0  0  0  0  0  0  0  0  0  0  0  0
  149.3365  140.6341  155.2044 C   0  0  0  0  0  0  0  0  0  0  0  0
  149.1019  140.7034  153.8405 N   0  0  0  0  0  0  0  0  0  0  0  0
  147.7853  140.4075  153.6191 C   0  0  0  0  0  0  0  0  0  0  0  0
  147.2132  140.1621  154.7942 C   0  0  0  0  0  0  0  0  0  0  0  0
  148.1371  140.2933  155.7866 O   0  0  0  0  0  0  0  0  0  0  0  0
  151.6929  145.8551  158.0923 H   0  0  0  0  0  0  0  0  0  0  0  0
  152.1350  145.5867  159.7789 H   0  0  0  0  0  0  0  0  0  0  0  0
  150.5063  145.1819  159.2107 H   0  0  0  0  0  0  0  0  0  0  0  0
  150.8962  143.0654  160.1642 H   0  0  0  0  0  0  0  0  0  0  0  0
  153.2974  144.1198  160.7559 H   0  0  0  0  0  0  0  0  0  0  0  0
  152.7831  142.6336  161.5478 H   0  0  0  0  0  0  0  0  0  0  0  0
  154.6069  142.8766  159.1354 H   0  0  0  0  0  0  0  0  0  0  0  0
  154.9279  141.9909  160.6238 H   0  0  0  0  0  0  0  0  0  0  0  0
  153.9364  140.7566  158.3798 H   0  0  0  0  0  0  0  0  0  0  0  0
  153.4832  140.2223  159.9866 H   0  0  0  0  0  0  0  0  0  0  0  0
  151.3504  140.8152  159.6881 H   0  0  0  0  0  0  0  0  0  0  0  0
  152.2031  141.8137  157.0068 H   0  0  0  0  0  0  0  0  0  0  0  0
  149.7550  140.9303  153.1046 H   0  0  0  0  0  0  0  0  0  0  0  0
  147.3873  140.4041  152.6149 H   0  0  0  0  0  0  0  0  0  0  0  0
  146.2067  139.8937  155.0788 H   0  0  0  0  0  0  0  0  0  0  0  0
  1  2  1  0  0  0  0
  1 17  1  0  0  0  0
  1 18  1  0  0  0  0
  1 19  1  0  0  0  0
  2  3  1  0  0  0  0
  3  7  1  0  0  0  0
  3  4  1  0  0  0  0
  3 20  1  0  0  0  0
  4  5  1  0  0  0  0
  4 21  1  0  0  0  0
  4 22  1  0  0  0  0
  5  6  1  0  0  0  0
  5 23  1  0  0  0  0
  5 24  1  0  0  0  0
  6  7  1  0  0  0  0
  6 25  1  0  0  0  0
  6 26  1  0  0  0  0
  7  8  1  0  0  0  0
  7 27  1  0  0  0  0
  8 28  1  0  0  0  0
  8  9  1  0  0  0  0
  9 11  1  0  0  0  0
  9 10  2  0  0  0  0
 11 12  2  0  0  0  0
 12 16  1  0  0  0  0
 12 13  1  0  0  0  0
 13 29  1  0  0  0  0
 13 14  1  0  0  0  0
 14 30  1  0  0  0  0
 14 15  2  0  0  0  0
 15 31  1  0  0  0  0
 15 16  1  0  0  0  0
M  END
> <s_m_source_file>
AV-unprocessed.smi

> <i_m_source_file_index>
2784

> <i_lp_mmshare_version>
43012

> <i_f3d_flags>
0

> <s_epik_input>
W0NIM11PW0NAQEhdMVtDSDJdW0NIMl1bQ0gyXVtDQEhdMVtOSF1DKD1PKVtOSF1jMm5bY0hdW2NIXW8y

> <s_epik_cmdline>
J2VwaWtfcHl0aG9uJywgJy1waCcsICc3LjAnLCAnLXRuJywgJzgnLCAnLW1hJywgJzIwMCcsICctbWV0YWxfYmluZGluZycsICctaW1hZScsICc8aW5maWxlLm1hZT4nLCAnLW9tYWUnLCAnPG91dGZpbGUubWFlPic=

> <r_lp_tautomer_probability>
0.107061

> <r_epik_Ionization_Penalty>
1.29244

> <r_epik_Ionization_Penalty_Charging>
1.29208

> <r_epik_Ionization_Penalty_Neutral>
0.000359742

> <r_epik_State_Penalty>
2.59896

> <r_epik_Charging_Adjusted_Penalty>
3.89105

> <i_epik_Tot_Q>
0

> <i_epik_Tot_abs_Q>
0

> <r_epik_Metal_State_Penalty>
3.62496

> <b_epik_Metal_Only>
0

> <s_lp_Force_Field>
OPLS_2005

> <r_lp_Energy>
45.4205

> <b_lp_Chiralities_Consistent>
1

> <s_lp_Variant>
AV-unprocessed.smi:2784-15

> <Gold.Version>
5.8.1

> <Gold.Id.Protein>
6NUR|6NUR_protein|mol2

> <Gold.PLP.Fitness>
32.1437

> <Gold.PLP.PLP>
-31.5072

> <Gold.PLP.part.hbond>
-1.0000

> <Gold.PLP.part.metal>
0.0000

> <Gold.PLP.part.buried>
-6.2047

> <Gold.PLP.part.nonpolar>
-24.9069

> <Gold.PLP.part.repulsive>
1.2377

> <Gold.PLP.ligand.clash>
0.0000

> <Gold.PLP.ligand.torsion>
0.3381

> <Gold.PLP.Chemscore.Hbond>
0.2488

> <Gold.PLP.Chemscore.CHOScore>
0.1843

> <Gold.PLP.Chemscore.Metal>
0.0000

> <Gold.Chemscore.Hbonds>
donor molecule, donor type, donor heavy atom, donor atom, acceptor molecule, acceptor atom, score
      L1  H    13    29       P1  7957  0.33
      L1  C    14    30       P1  7957  0.31

> <Gold.PLP.Chemscore.Internal.Correction>
0.0134

> <Gold.Rescore>
     Score         DG    S(hbond)    S(metal)    S(lipo)     H(rot)  DE(clash)    DE(int)     intcor
     11.44     -13.10       0.70        0.00      74.00       1.32       0.05       1.61       ----

> <Gold.Chemscore.Fitness>
11.4385

> <Gold.Chemscore.DG>
-13.1010

> <Gold.Chemscore.ZeroCoef>
-5.4800

> <Gold.Chemscore.Hbond>
0.7039

> <Gold.Chemscore.Metal>
0.0000

> <Gold.Chemscore.Lipo>
74.0022

> <Gold.Chemscore.Internal_Hbond>
0.0000

> <Gold.Chemscore.DEClash>
0.0502

> <Gold.Chemscore.DEInternal>
1.6123

> <Gold.Chemscore.Rot>
1.3235

> <Gold.Chemscore.Internal.Correction>
   9.000000E+99

> <Gold.Chemscore.Hbonds>
donor molecule, donor type, donor heavy atom, donor atom, acceptor molecule, acceptor atom, score
      L1  H    13    29       P1  7957  0.32

> <Gold.Chemscore.Hbond.Weighted>
-2.3510

> <Gold.Chemscore.Metal.Weighted>
-0.0000

> <Gold.Chemscore.Lipo.Weighted>
-8.6583

> <Gold.Chemscore.Internal_Hbond.Weighted>
0.0000

> <Gold.Chemscore.DEClash.Weighted>
0.0502

> <Gold.Chemscore.DEInternal.Weighted>
1.6123

> <Gold.Chemscore.Rot.Weighted>
3.3882

> <Gold.Chemscore.Internal.Correction.Weighted>
   9.000000E+99

> <Gold.Protein.RotatedTorsions>
[ 6907 6896 6895 6894 ] final   36.89 input  -60.11 | X-H torsion
[ 7974 7965 7964 7962 ] final  -94.60 input  175.53 | X-H torsion
[ 8008 7997 7996 7995 ] final -159.69 input   59.86 | X-H torsion
[ 10167 10162 10161 10158 ] final -146.45 input  -65.29 | X-H torsion
[ 10718 10713 10712 10709 ] final   79.42 input   66.30 | X-H torsion
[ 10763 10752 10751 10750 ] final  130.47 input  -60.55 | X-H torsion
[ 11005 11000 10999 10996 ] final -151.14 input  -57.11 | X-H torsion

> <Gold.Protein.ActiveResidues>
 VAL166  LYS551  ARG553  GLY616  TRP617  ASP618  TYR619  PRO620  LYS621  CYS622 
 ASP623  PHE694  ASN695  SER759  ASP760  ASP761  ALA762  ILE779  LEU786  VAL792 
 PHE793  MET794  SER795  GLU796  ALA797  LYS798  CYS799  TRP800  GLU811  SER814 

> <Gold.Protein.RotatedAtoms>
  152.1358  134.9100  160.0556 H   0  0  0  0  0  0  0  0  0  0  0  0  # atno 6907 bound_to 6896
  152.0187  133.3885  159.4257 H   0  0  0  0  0  0  0  0  0  0  0  0  # atno 6908 bound_to 6896
  150.6860  134.3571  159.4978 H   0  0  0  0  0  0  0  0  0  0  0  0  # atno 6909 bound_to 6896
  145.3711  140.9505  143.2447 H   0  0  0  0  0  0  0  0  0  0  0  0  # atno 7974 bound_to 7965
  155.7663  140.0846  157.2130 H   0  0  0  0  0  0  0  0  0  0  0  0  # atno 8008 bound_to 7997
  154.3999  140.1533  156.2947 H   0  0  0  0  0  0  0  0  0  0  0  0  # atno 8009 bound_to 7997
  155.8791  140.3421  155.5877 H   0  0  0  0  0  0  0  0  0  0  0  0  # atno 8010 bound_to 7997
  139.7712  143.8235  152.2625 H   0  0  0  0  0  0  0  0  0  0  0  0  # atno 10167 bound_to 10162
  157.6776  130.9913  150.1930 H   0  0  0  0  0  0  0  0  0  0  0  0  # atno 10718 bound_to 10713
  153.7585  135.3199  155.3333 H   0  0  0  0  0  0  0  0  0  0  0  0  # atno 10763 bound_to 10752
  154.8238  135.4584  154.0861 H   0  0  0  0  0  0  0  0  0  0  0  0  # atno 10764 bound_to 10752
  153.2085  135.6932  153.8226 H   0  0  0  0  0  0  0  0  0  0  0  0  # atno 10765 bound_to 10752
  140.7328  134.3602  157.5163 H   0  0  0  0  0  0  0  0  0  0  0  0  # atno 11005 bound_to 11000
  144.8576  139.5226  143.6827 LP  0  0  0  0  0  0  0  0  0  0  0  0  # atno 17320 bound_to 7965
  146.2885  139.7071  142.9178 LP  0  0  0  0  0  0  0  0  0  0  0  0  # atno 17321 bound_to 7965
  139.8270  144.7271  150.9499 LP  0  0  0  0  0  0  0  0  0  0  0  0  # atno 17342 bound_to 10162
  140.7814  143.4105  151.1000 LP  0  0  0  0  0  0  0  0  0  0  0  0  # atno 17343 bound_to 10162
  156.2638  130.3714  149.8103 LP  0  0  0  0  0  0  0  0  0  0  0  0  # atno 17370 bound_to 10713
  156.5840  130.8478  151.3390 LP  0  0  0  0  0  0  0  0  0  0  0  0  # atno 17371 bound_to 10713
  139.8822  134.9029  156.2844 LP  0  0  0  0  0  0  0  0  0  0  0  0  # atno 17394 bound_to 11000
  140.9906  133.7211  156.0808 LP  0  0  0  0  0  0  0  0  0  0  0  0  # atno 17395 bound_to 11000

$$$$
