AV-unprocessed.smi:1697|AV-procd|sdf|6806|dock8
  -GOLD-   22720 7583D 1   1.00000     0.00000
 Structure written by MMmdl.
 54 56  0  0  0  0  0  0  0  0  2 V2000
  147.2054  134.1954  154.4712 C   0  0  0  0  0  0  0  0  0  0  0  0
  146.0313  134.9016  153.7901 C   0  0  0  0  0  0  0  0  0  0  0  0
  146.0254  136.2630  154.1936 O   0  0  0  0  0  0  0  0  0  0  0  0
  145.0583  137.0735  153.5359 C   0  0  2  0  0  0  0  0  0  0  0  0
  145.6111  137.6600  152.2234 C   0  0  0  0  0  0  0  0  0  0  0  0
  146.7753  138.6295  152.4879 C   0  0  0  0  0  0  0  0  0  0  0  0
  146.3646  139.7232  153.4085 N   0  3  2  0  0  0  0  0  0  0  0  0
  147.4137  140.7586  153.5951 C   0  0  0  0  0  0  0  0  0  0  0  0
  148.5681  140.2707  154.4925 C   0  0  1  0  0  0  0  0  0  0  0  0
  149.3970  139.4071  153.7376 O   0  0  0  0  0  0  0  0  0  0  0  0
  149.4089  141.4419  155.0360 C   0  0  0  0  0  0  0  0  0  0  0  0
  150.2574  141.0452  156.1456 N   0  0  0  0  0  0  0  0  0  0  0  0
  150.7557  139.8165  156.3825 C   0  0  0  0  0  0  0  0  0  0  0  0
  151.5214  139.6664  157.4588 N   0  0  0  0  0  0  0  0  0  0  0  0
  151.5184  140.9473  157.9839 C   0  0  0  0  0  0  0  0  0  0  0  0
  152.1499  141.4672  159.1347 C   0  0  0  0  0  0  0  0  0  0  0  0
  152.0087  142.8283  159.4865 C   0  0  0  0  0  0  0  0  0  0  0  0
  152.7061  143.3447  160.7327 C   0  0  0  0  0  0  0  0  0  0  0  0
  151.2251  143.6929  158.6809 C   0  0  0  0  0  0  0  0  0  0  0  0
  151.0591  145.1588  159.0404 C   0  0  0  0  0  0  0  0  0  0  0  0
  150.5881  143.1905  157.5267 C   0  0  0  0  0  0  0  0  0  0  0  0
  150.7358  141.8338  157.1872 C   0  0  0  0  0  0  0  0  0  0  0  0
  145.8606  139.1894  154.7002 C   0  0  0  0  0  0  0  0  0  0  0  0
  144.6829  138.2220  154.4845 C   0  0  0  0  0  0  0  0  0  0  0  0
  147.2405  133.1417  154.1939 H   0  0  0  0  0  0  0  0  0  0  0  0
  147.1197  134.2526  155.5565 H   0  0  0  0  0  0  0  0  0  0  0  0
  148.1546  134.6489  154.1850 H   0  0  0  0  0  0  0  0  0  0  0  0
  146.1304  134.8150  152.7082 H   0  0  0  0  0  0  0  0  0  0  0  0
  145.0951  134.4200  154.0761 H   0  0  0  0  0  0  0  0  0  0  0  0
  144.1620  136.4843  153.3346 H   0  0  0  0  0  0  0  0  0  0  0  0
  145.9289  136.8703  151.5434 H   0  0  0  0  0  0  0  0  0  0  0  0
  144.8128  138.1936  151.7058 H   0  0  0  0  0  0  0  0  0  0  0  0
  147.6226  138.0900  152.9147 H   0  0  0  0  0  0  0  0  0  0  0  0
  147.1134  139.0391  151.5371 H   0  0  0  0  0  0  0  0  0  0  0  0
  147.8282  141.0489  152.6282 H   0  0  0  0  0  0  0  0  0  0  0  0
  146.9583  141.6592  154.0101 H   0  0  0  0  0  0  0  0  0  0  0  0
  148.1767  139.7068  155.3387 H   0  0  0  0  0  0  0  0  0  0  0  0
  149.6076  139.8278  152.9175 H   0  0  0  0  0  0  0  0  0  0  0  0
  150.0344  141.8661  154.2494 H   0  0  0  0  0  0  0  0  0  0  0  0
  148.7559  142.2454  155.3797 H   0  0  0  0  0  0  0  0  0  0  0  0
  150.5470  138.9852  155.7250 H   0  0  0  0  0  0  0  0  0  0  0  0
  152.7474  140.8086  159.7478 H   0  0  0  0  0  0  0  0  0  0  0  0
  151.9787  143.7420  161.4409 H   0  0  0  0  0  0  0  0  0  0  0  0
  153.4092  144.1372  160.4757 H   0  0  0  0  0  0  0  0  0  0  0  0
  153.2633  142.5531  161.2345 H   0  0  0  0  0  0  0  0  0  0  0  0
  150.4216  145.6751  158.3220 H   0  0  0  0  0  0  0  0  0  0  0  0
  152.0263  145.6613  159.0515 H   0  0  0  0  0  0  0  0  0  0  0  0
  150.6033  145.2612  160.0253 H   0  0  0  0  0  0  0  0  0  0  0  0
  149.9903  143.8396  156.9045 H   0  0  0  0  0  0  0  0  0  0  0  0
  146.6723  138.6879  155.2298 H   0  0  0  0  0  0  0  0  0  0  0  0
  145.5304  140.0125  155.3349 H   0  0  0  0  0  0  0  0  0  0  0  0
  143.8367  138.7716  154.0699 H   0  0  0  0  0  0  0  0  0  0  0  0
  144.3477  137.8213  155.4419 H   0  0  0  0  0  0  0  0  0  0  0  0
  145.5819  140.1944  152.9767 H   0  0  0  0  0  0  0  0  0  0  0  0
  1  2  1  0  0  0  0
  1 25  1  0  0  0  0
  1 26  1  0  0  0  0
  1 27  1  0  0  0  0
  2  3  1  0  0  0  0
  2 28  1  0  0  0  0
  2 29  1  0  0  0  0
  3  4  1  0  0  0  0
  4 24  1  0  0  0  0
  4  5  1  0  0  0  0
  4 30  1  0  0  0  0
  5  6  1  0  0  0  0
  5 31  1  0  0  0  0
  5 32  1  0  0  0  0
  6  7  1  0  0  0  0
  6 33  1  0  0  0  0
  6 34  1  0  0  0  0
  7  8  1  0  0  0  0
  7 23  1  0  0  0  0
  7 54  1  0  0  0  0
  8  9  1  0  0  0  0
  8 35  1  0  0  0  0
  8 36  1  0  0  0  0
  9 10  1  0  0  0  0
  9 11  1  0  0  0  0
  9 37  1  0  0  0  0
 10 38  1  0  0  0  0
 11 12  1  0  0  0  0
 11 39  1  0  0  0  0
 11 40  1  0  0  0  0
 12 22  1  0  0  0  0
 12 13  1  0  0  0  0
 13 14  2  0  0  0  0
 13 41  1  0  0  0  0
 14 15  1  0  0  0  0
 15 22  2  0  0  0  0
 15 16  1  0  0  0  0
 16 17  2  0  0  0  0
 16 42  1  0  0  0  0
 17 18  1  0  0  0  0
 17 19  1  0  0  0  0
 18 43  1  0  0  0  0
 18 44  1  0  0  0  0
 18 45  1  0  0  0  0
 19 20  1  0  0  0  0
 19 21  2  0  0  0  0
 20 46  1  0  0  0  0
 20 47  1  0  0  0  0
 20 48  1  0  0  0  0
 21 22  1  0  0  0  0
 21 49  1  0  0  0  0
 23 24  1  0  0  0  0
 23 50  1  0  0  0  0
 23 51  1  0  0  0  0
 24 52  1  0  0  0  0
 24 53  1  0  0  0  0
M  CHG  1   7   1
M  END
> <s_m_source_file>
AV-unprocessed.smi

> <i_m_source_file_index>
1697

> <i_lp_mmshare_version>
43012

> <i_f3d_flags>
0

> <s_epik_input>
W0NIM11bQ0gyXU9bQ0hdMVtDSDJdW0NIMl1OKFtDSDJdW0NIMl0xKVtDSDJdW0NASF0oW09IXSlbQ0gyXW4oW2NIXW4yKWMoYzIzKVtjSF1jKFtDSDNdKWMoW2NIXTMpW0NIM10=

> <s_epik_cmdline>
J2VwaWtfcHl0aG9uJywgJy1waCcsICc3LjAnLCAnLXRuJywgJzgnLCAnLW1hJywgJzIwMCcsICctbWV0YWxfYmluZGluZycsICctaW1hZScsICc8aW5maWxlLm1hZT4nLCAnLW9tYWUnLCAnPG91dGZpbGUubWFlPic=

> <r_epik_Ionization_Penalty>
0.112476

> <r_epik_Ionization_Penalty_Charging>
0.0244612

> <r_epik_Ionization_Penalty_Neutral>
0.0880147

> <r_epik_State_Penalty>
0.0961447

> <r_epik_Charging_Adjusted_Penalty>
0.120606

> <i_epik_Tot_Q>
1

> <i_epik_Tot_abs_Q>
1

> <r_epik_Metal_State_Penalty>
0.0206204

> <b_epik_Metal_Only>
0

> <s_lp_Force_Field>
OPLS_2005

> <r_lp_Energy>
22.8638

> <b_lp_Chiralities_Consistent>
1

> <s_lp_Variant>
AV-unprocessed.smi:1697-4

> <Gold.Version>
5.8.1

> <Gold.Id.Protein>
6NUR|6NUR_protein|mol2

> <Gold.PLP.Fitness>
51.2046

> <Gold.PLP.PLP>
-44.0312

> <Gold.PLP.part.hbond>
-1.6037

> <Gold.PLP.part.metal>
0.0000

> <Gold.PLP.part.buried>
-2.6250

> <Gold.PLP.part.nonpolar>
-41.5435

> <Gold.PLP.part.repulsive>
0.0848

> <Gold.PLP.ligand.clash>
0.0000

> <Gold.PLP.ligand.torsion>
1.0213

> <Gold.PLP.Chemscore.Hbond>
3.0000

> <Gold.PLP.Chemscore.CHOScore>
0.0000

> <Gold.PLP.Chemscore.Metal>
0.0000

> <Gold.Chemscore.Hbonds>
donor molecule, donor type, donor heavy atom, donor atom, acceptor molecule, acceptor atom, score
      L1  H     7    54       P1 10175  2.00
      L1  H    10    38       P1  7957  1.00

> <Gold.PLP.Chemscore.Internal.Correction>
0.2160

> <Gold.Rescore>
     Score         DG    S(hbond)    S(metal)    S(lipo)     H(rot)  DE(clash)    DE(int)     intcor
     18.58     -20.09       1.79        0.00     123.48       2.27       0.23       1.28       ----

> <Gold.Chemscore.Fitness>
18.5799

> <Gold.Chemscore.DG>
-20.0900

> <Gold.Chemscore.ZeroCoef>
-5.4800

> <Gold.Chemscore.Hbond>
1.7894

> <Gold.Chemscore.Metal>
0.0000

> <Gold.Chemscore.Lipo>
123.4782

> <Gold.Chemscore.Internal_Hbond>
0.0000

> <Gold.Chemscore.DEClash>
0.2335

> <Gold.Chemscore.DEInternal>
1.2766

> <Gold.Chemscore.Rot>
2.2710

> <Gold.Chemscore.Internal.Correction>
   9.000000E+99

> <Gold.Chemscore.Hbonds>
donor molecule, donor type, donor heavy atom, donor atom, acceptor molecule, acceptor atom, score
      L1  H     7    54       P1 10175  0.94
      L1  H    10    38       P1  7957  0.99

> <Gold.Chemscore.Hbond.Weighted>
-5.9767

> <Gold.Chemscore.Metal.Weighted>
-0.0000

> <Gold.Chemscore.Lipo.Weighted>
-14.4470

> <Gold.Chemscore.Internal_Hbond.Weighted>
0.0000

> <Gold.Chemscore.DEClash.Weighted>
0.2335

> <Gold.Chemscore.DEInternal.Weighted>
1.2766

> <Gold.Chemscore.Rot.Weighted>
5.8137

> <Gold.Chemscore.Internal.Correction.Weighted>
   9.000000E+99

> <Gold.Protein.RotatedTorsions>
[ 6907 6896 6895 6894 ] final   65.68 input  -60.11 | X-H torsion
[ 7974 7965 7964 7962 ] final   49.78 input  175.53 | X-H torsion
[ 8008 7997 7996 7995 ] final   63.98 input   59.86 | X-H torsion
[ 10167 10162 10161 10158 ] final   32.24 input  -65.29 | X-H torsion
[ 10718 10713 10712 10709 ] final -106.44 input   66.30 | X-H torsion
[ 10763 10752 10751 10750 ] final  -97.32 input  -60.55 | X-H torsion
[ 11005 11000 10999 10996 ] final  -90.78 input  -57.11 | X-H torsion

> <Gold.Protein.ActiveResidues>
 VAL166  LYS551  ARG553  GLY616  TRP617  ASP618  TYR619  PRO620  LYS621  CYS622 
 ASP623  PHE694  ASN695  SER759  ASP760  ASP761  ALA762  ILE779  LEU786  VAL792 
 PHE793  MET794  SER795  GLU796  ALA797  LYS798  CYS799  TRP800  GLU811  SER814 

> <Gold.Protein.RotatedAtoms>
  152.4425  134.5561  159.9880 H   0  0  0  0  0  0  0  0  0  0  0  0  # atno 6907 bound_to 6896
  151.5655  133.3391  159.2987 H   0  0  0  0  0  0  0  0  0  0  0  0  # atno 6908 bound_to 6896
  150.8334  134.7631  159.6937 H   0  0  0  0  0  0  0  0  0  0  0  0  # atno 6909 bound_to 6896
  146.0075  139.4507  142.9976 H   0  0  0  0  0  0  0  0  0  0  0  0  # atno 7974 bound_to 7965
  155.6389  140.3496  155.4708 H   0  0  0  0  0  0  0  0  0  0  0  0  # atno 8008 bound_to 7997
  155.9942  140.1200  157.0632 H   0  0  0  0  0  0  0  0  0  0  0  0  # atno 8009 bound_to 7997
  154.4228  140.1113  156.5594 H   0  0  0  0  0  0  0  0  0  0  0  0  # atno 8010 bound_to 7997
  140.4517  144.1039  150.6193 H   0  0  0  0  0  0  0  0  0  0  0  0  # atno 10167 bound_to 10162
  156.0390  130.5613  150.7682 H   0  0  0  0  0  0  0  0  0  0  0  0  # atno 10718 bound_to 10713
  154.7318  135.5051  153.8976 H   0  0  0  0  0  0  0  0  0  0  0  0  # atno 10763 bound_to 10752
  153.0957  135.6671  153.9776 H   0  0  0  0  0  0  0  0  0  0  0  0  # atno 10764 bound_to 10752
  153.9576  135.3051  155.3414 H   0  0  0  0  0  0  0  0  0  0  0  0  # atno 10765 bound_to 10752
  141.1559  133.7714  156.9786 H   0  0  0  0  0  0  0  0  0  0  0  0  # atno 11005 bound_to 11000
  145.7392  141.0014  143.1310 LP  0  0  0  0  0  0  0  0  0  0  0  0  # atno 17320 bound_to 7965
  144.6941  139.9079  143.7462 LP  0  0  0  0  0  0  0  0  0  0  0  0  # atno 17321 bound_to 7965
  140.4200  143.2616  151.9728 LP  0  0  0  0  0  0  0  0  0  0  0  0  # atno 17342 bound_to 10162
  139.4797  144.5840  151.7885 LP  0  0  0  0  0  0  0  0  0  0  0  0  # atno 17343 bound_to 10162
  157.5183  131.0930  151.0111 LP  0  0  0  0  0  0  0  0  0  0  0  0  # atno 17370 bound_to 10713
  157.0449  130.5764  149.5361 LP  0  0  0  0  0  0  0  0  0  0  0  0  # atno 17371 bound_to 10713
  140.1081  134.9494  157.2024 LP  0  0  0  0  0  0  0  0  0  0  0  0  # atno 17394 bound_to 11000
  140.3230  134.2895  155.7242 LP  0  0  0  0  0  0  0  0  0  0  0  0  # atno 17395 bound_to 11000

$$$$
