AV-unprocessed.smi:35|AV-procd|sdf|265|dock6
  -GOLD-   2262016 33D 1   1.00000     0.00000
 Structure written by MMmdl.
 28 29  0  0  0  0  0  0  0  0  2 V2000
  149.8612  134.7968  157.3118 O   0  0  0  0  0  0  0  0  0  0  0  0
  150.0696  135.8859  156.7800 C   0  0  0  0  0  0  0  0  0  0  0  0
  151.3242  136.3690  156.5466 N   0  5  0  0  0  0  0  0  0  0  0  0
  151.5512  137.5810  155.9590 C   0  0  0  0  0  0  0  0  0  0  0  0
  152.6798  138.0116  155.7228 O   0  0  0  0  0  0  0  0  0  0  0  0
  150.4376  138.3854  155.5912 N   0  0  0  0  0  0  0  0  0  0  0  0
  150.6692  139.7291  154.9351 C   0  0  2  0  0  0  0  0  0  0  0  0
  151.3243  140.5687  155.8432 O   0  0  0  0  0  0  0  0  0  0  0  0
  150.6003  141.7832  156.0115 C   0  0  2  0  0  0  0  0  0  0  0  0
  150.8279  142.3172  157.4346 C   0  0  0  0  0  0  0  0  0  0  0  0
  150.7984  143.7289  157.4470 O   0  0  0  0  0  0  0  0  0  0  0  0
  149.1556  141.3940  155.6917 C   0  0  1  0  0  0  0  0  0  0  0  0
  148.3461  142.4960  155.3270 O   0  0  0  0  0  0  0  0  0  0  0  0
  149.3259  140.3786  154.5681 C   0  0  1  0  0  0  0  0  0  0  0  0
  149.3913  140.9814  153.2886 O   0  0  0  0  0  0  0  0  0  0  0  0
  149.1527  137.9127  155.7980 C   0  0  0  0  0  0  0  0  0  0  0  0
  148.9367  136.7116  156.3707 C   0  0  0  0  0  0  0  0  0  0  0  0
  147.0466  136.1638  156.6020 Br  0  0  0  0  0  0  0  0  0  0  0  0
  151.3263  139.5460  154.0834 H   0  0  0  0  0  0  0  0  0  0  0  0
  150.9756  142.4912  155.2702 H   0  0  0  0  0  0  0  0  0  0  0  0
  150.0804  141.9271  158.1258 H   0  0  0  0  0  0  0  0  0  0  0  0
  151.8029  141.9948  157.8007 H   0  0  0  0  0  0  0  0  0  0  0  0
  150.2240  144.0235  156.7568 H   0  0  0  0  0  0  0  0  0  0  0  0
  148.7099  140.8975  156.5547 H   0  0  0  0  0  0  0  0  0  0  0  0
  148.8611  143.2840  155.4106 H   0  0  0  0  0  0  0  0  0  0  0  0
  148.5208  139.6426  154.5575 H   0  0  0  0  0  0  0  0  0  0  0  0
  149.2253  140.3170  152.6378 H   0  0  0  0  0  0  0  0  0  0  0  0
  148.3028  138.5047  155.4948 H   0  0  0  0  0  0  0  0  0  0  0  0
  1  2  2  0  0  0  0
  2 17  1  0  0  0  0
  2  3  1  0  0  0  0
  3  4  1  0  0  0  0
  4  5  2  0  0  0  0
  4  6  1  0  0  0  0
  6  7  1  0  0  0  0
  6 16  1  0  0  0  0
  7 14  1  0  0  0  0
  7  8  1  0  0  0  0
  7 19  1  0  0  0  0
  8  9  1  0  0  0  0
  9 10  1  0  0  0  0
  9 12  1  0  0  0  0
  9 20  1  0  0  0  0
 10 11  1  0  0  0  0
 10 21  1  0  0  0  0
 10 22  1  0  0  0  0
 11 23  1  0  0  0  0
 12 13  1  0  0  0  0
 12 14  1  0  0  0  0
 12 24  1  0  0  0  0
 13 25  1  0  0  0  0
 14 15  1  0  0  0  0
 14 26  1  0  0  0  0
 15 27  1  0  0  0  0
 16 17  2  0  0  0  0
 16 28  1  0  0  0  0
 17 18  1  0  0  0  0
M  CHG  1   3  -1
M  END
> <s_m_source_file>
AV-unprocessed.smi

> <i_m_source_file_index>
35

> <i_lp_mmshare_version>
43012

> <i_f3d_flags>
0

> <s_epik_input>
Tz1jMVtuSF1jKD1PKW4oW2NIXWMxQnIpW0NAQEhdMk9bQ0BASF0oW0NIMl1bT0hdKVtDQEBIXShbT0hdKVtDQEhdMltPSF0=

> <s_epik_cmdline>
J2VwaWtfcHl0aG9uJywgJy1waCcsICc3LjAnLCAnLXRuJywgJzgnLCAnLW1hJywgJzIwMCcsICctbWV0YWxfYmluZGluZycsICctaW1hZScsICc8aW5maWxlLm1hZT4nLCAnLW9tYWUnLCAnPG91dGZpbGUubWFlPic=

> <r_epik_Ionization_Penalty>
1.06112

> <r_epik_Ionization_Penalty_Charging>
2.1796e-09

> <r_epik_Ionization_Penalty_Neutral>
1.06112

> <r_epik_State_Penalty>
1.11484

> <r_epik_Charging_Adjusted_Penalty>
1.11484

> <i_epik_Tot_Q>
-1

> <i_epik_Tot_abs_Q>
1

> <r_epik_Metal_State_Penalty>
0.0032876

> <b_epik_Metal_Only>
0

> <s_epik_Chemistry_Notes>
This compound contains an acetal/aminal-like group ( X-CH(R)-Y where X, Y are N, S, or O) that may be acid/base labile, releasing an aldehyde.

> <s_lp_Force_Field>
OPLS_2005

> <r_lp_Energy>
41.5323

> <b_lp_Chiralities_Consistent>
1

> <s_lp_Variant>
AV-unprocessed.smi:35-19

> <Gold.Version>
5.8.1

> <Gold.Id.Protein>
6NUR|6NUR_protein|mol2

> <Gold.PLP.Fitness>
46.5402

> <Gold.PLP.PLP>
-26.9369

> <Gold.PLP.part.hbond>
-8.3200

> <Gold.PLP.part.metal>
0.0000

> <Gold.PLP.part.buried>
-2.1850

> <Gold.PLP.part.nonpolar>
-17.0182

> <Gold.PLP.part.repulsive>
0.0161

> <Gold.PLP.ligand.clash>
0.0000

> <Gold.PLP.ligand.torsion>
0.4705

> <Gold.PLP.Chemscore.Hbond>
6.8445

> <Gold.PLP.Chemscore.CHOScore>
0.0000

> <Gold.PLP.Chemscore.Metal>
0.0000

> <Gold.Chemscore.Hbonds>
donor molecule, donor type, donor heavy atom, donor atom, acceptor molecule, acceptor atom, score
      L1  H    11    23       P1  8028  1.00
      L1  H    13    25       P1  8028  0.75
      L1  H    15    27       P1  7957  0.75
      P1  H  6896  6909       L1     1  0.27
      P1  H  7989  7998       L1    15  0.04
      P1  H  8011  8017       L1    15  1.00

> <Gold.PLP.Chemscore.Internal.Correction>
0.0109

> <Gold.Rescore>
     Score         DG    S(hbond)    S(metal)    S(lipo)     H(rot)  DE(clash)    DE(int)     intcor
     12.65     -15.11       4.46        0.00      34.40       3.63       0.55       1.91       ----

> <Gold.Chemscore.Fitness>
12.6513

> <Gold.Chemscore.DG>
-15.1100

> <Gold.Chemscore.ZeroCoef>
-5.4800

> <Gold.Chemscore.Hbond>
4.4576

> <Gold.Chemscore.Metal>
0.0000

> <Gold.Chemscore.Lipo>
34.3965

> <Gold.Chemscore.Internal_Hbond>
0.0000

> <Gold.Chemscore.DEClash>
0.5487

> <Gold.Chemscore.DEInternal>
1.9100

> <Gold.Chemscore.Rot>
3.6261

> <Gold.Chemscore.Internal.Correction>
   9.000000E+99

> <Gold.Chemscore.Hbonds>
donor molecule, donor type, donor heavy atom, donor atom, acceptor molecule, acceptor atom, score
      L1  H    11    23       P1  8028  1.00
      L1  H    13    25       P1  8028  0.71
      L1  H    15    27       P1  7957  0.70
      P1  H  6896  6909       L1     1  0.27
      P1  H  8011  8017       L1    15  0.39

> <Gold.Chemscore.Hbond.Weighted>
-14.8884

> <Gold.Chemscore.Metal.Weighted>
-0.0000

> <Gold.Chemscore.Lipo.Weighted>
-4.0244

> <Gold.Chemscore.Internal_Hbond.Weighted>
0.0000

> <Gold.Chemscore.DEClash.Weighted>
0.5487

> <Gold.Chemscore.DEInternal.Weighted>
1.9100

> <Gold.Chemscore.Rot.Weighted>
9.2828

> <Gold.Chemscore.Internal.Correction.Weighted>
   9.000000E+99

> <Gold.Protein.RotatedTorsions>
[ 6907 6896 6895 6894 ] final   13.71 input  -60.11 | X-H torsion
[ 7974 7965 7964 7962 ] final  162.33 input  175.53 | X-H torsion
[ 8008 7997 7996 7995 ] final   89.86 input   59.86 | X-H torsion
[ 10167 10162 10161 10158 ] final   50.40 input  -65.29 | X-H torsion
[ 10718 10713 10712 10709 ] final  163.33 input   66.30 | X-H torsion
[ 10763 10752 10751 10750 ] final  -16.04 input  -60.55 | X-H torsion
[ 11005 11000 10999 10996 ] final -129.32 input  -57.11 | X-H torsion

> <Gold.Protein.ActiveResidues>
 VAL166  LYS551  ARG553  GLY616  TRP617  ASP618  TYR619  PRO620  LYS621  CYS622 
 ASP623  PHE694  ASN695  SER759  ASP760  ASP761  ALA762  ILE779  LEU786  VAL792 
 PHE793  MET794  SER795  GLU796  ALA797  LYS798  CYS799  TRP800  GLU811  SER814 

> <Gold.Protein.RotatedAtoms>
  151.7907  135.0736  160.0386 H   0  0  0  0  0  0  0  0  0  0  0  0  # atno 6907 bound_to 6896
  152.3158  133.5797  159.5720 H   0  0  0  0  0  0  0  0  0  0  0  0  # atno 6908 bound_to 6896
  150.7343  134.0000  159.3677 H   0  0  0  0  0  0  0  0  0  0  0  0  # atno 6909 bound_to 6896
  144.7642  139.8025  143.6321 H   0  0  0  0  0  0  0  0  0  0  0  0  # atno 7974 bound_to 7965
  156.0050  140.3356  155.6883 H   0  0  0  0  0  0  0  0  0  0  0  0  # atno 8008 bound_to 7997
  155.6237  140.0678  157.2688 H   0  0  0  0  0  0  0  0  0  0  0  0  # atno 8009 bound_to 7997
  154.4262  140.1772  156.1387 H   0  0  0  0  0  0  0  0  0  0  0  0  # atno 8010 bound_to 7997
  140.2728  144.3246  150.6285 H   0  0  0  0  0  0  0  0  0  0  0  0  # atno 10167 bound_to 10162
  157.1100  131.0465  151.2461 H   0  0  0  0  0  0  0  0  0  0  0  0  # atno 10718 bound_to 10713
  153.5524  135.7011  153.5585 H   0  0  0  0  0  0  0  0  0  0  0  0  # atno 10763 bound_to 10752
  153.3503  135.3997  155.1640 H   0  0  0  0  0  0  0  0  0  0  0  0  # atno 10764 bound_to 10752
  154.8659  135.3763  154.5036 H   0  0  0  0  0  0  0  0  0  0  0  0  # atno 10765 bound_to 10752
  140.9442  134.1153  157.4123 H   0  0  0  0  0  0  0  0  0  0  0  0  # atno 11005 bound_to 11000
  146.1734  139.4894  142.9913 LP  0  0  0  0  0  0  0  0  0  0  0  0  # atno 17320 bound_to 7965
  145.6523  141.0260  143.1753 LP  0  0  0  0  0  0  0  0  0  0  0  0  # atno 17321 bound_to 7965
  140.5876  143.2169  151.7314 LP  0  0  0  0  0  0  0  0  0  0  0  0  # atno 17342 bound_to 10162
  139.4984  144.3988  152.0203 LP  0  0  0  0  0  0  0  0  0  0  0  0  # atno 17343 bound_to 10162
  157.4568  130.7630  149.7200 LP  0  0  0  0  0  0  0  0  0  0  0  0  # atno 17370 bound_to 10713
  155.9853  130.3984  150.3270 LP  0  0  0  0  0  0  0  0  0  0  0  0  # atno 17371 bound_to 10713
  139.8828  135.0046  156.6259 LP  0  0  0  0  0  0  0  0  0  0  0  0  # atno 17394 bound_to 11000
  140.7693  133.8752  155.8479 LP  0  0  0  0  0  0  0  0  0  0  0  0  # atno 17395 bound_to 11000

$$$$
