AV-unprocessed.smi:2528|AV-procd|sdf|9953|dock2
  -GOLD-   2272013593D 1   1.00000     0.00000
 Structure written by MMmdl.
 44 46  0  0  0  0  0  0  0  0  2 V2000
  146.6380  139.2702  154.2502 O   0  0  0  0  0  0  0  0  0  0  0  0
  147.3891  138.6318  153.5119 C   0  0  0  0  0  0  0  0  0  0  0  0
  146.9488  137.7703  152.5835 N   0  0  0  0  0  0  0  0  0  0  0  0
  145.5439  137.4863  152.3103 C   0  0  0  0  0  0  0  0  0  0  0  0
  145.3038  135.9947  152.0161 C   0  0  1  0  0  0  0  0  0  0  0  0
  145.3458  135.6973  150.5009 C   0  0  0  0  0  0  0  0  0  0  0  0
  145.2271  134.2444  150.2278 N   0  3  2  0  0  0  0  0  0  0  0  0
  143.8359  133.7306  150.3559 C   0  0  0  0  0  0  0  0  0  0  0  0
  143.7552  132.2394  149.9992 C   0  0  0  0  0  0  0  0  0  0  0  0
  144.7115  131.4219  150.8745 C   0  0  0  0  0  0  0  0  0  0  0  0
  146.1408  131.9606  150.7269 C   0  0  0  0  0  0  0  0  0  0  0  0
  146.2339  133.4751  151.0105 C   0  0  2  0  0  0  0  0  0  0  0  0
  146.1518  133.8361  152.5087 C   0  0  0  0  0  0  0  0  0  0  0  0
  146.3243  135.2399  152.6636 O   0  0  0  0  0  0  0  0  0  0  0  0
  148.7320  138.6966  153.5213 N   0  0  0  0  0  0  0  0  0  0  0  0
  149.5659  139.4931  154.3509 C   0  0  0  0  0  0  0  0  0  0  0  0
  150.8107  138.9120  154.6831 C   0  0  0  0  0  0  0  0  0  0  0  0
  151.7111  139.6229  155.5002 C   0  0  0  0  0  0  0  0  0  0  0  0
  151.3427  140.8980  155.9652 C   0  0  0  0  0  0  0  0  0  0  0  0
  150.0842  141.4027  155.5896 C   0  0  0  0  0  0  0  0  0  0  0  0
  149.2195  140.7231  154.8067 N   0  0  0  0  0  0  0  0  0  0  0  0
  147.6308  137.2831  152.0208 H   0  0  0  0  0  0  0  0  0  0  0  0
  144.9387  137.8074  153.1599 H   0  0  0  0  0  0  0  0  0  0  0  0
  145.2287  138.0925  151.4606 H   0  0  0  0  0  0  0  0  0  0  0  0
  144.3322  135.7067  152.4194 H   0  0  0  0  0  0  0  0  0  0  0  0
  144.5604  136.2427  149.9762 H   0  0  0  0  0  0  0  0  0  0  0  0
  146.2930  136.0461  150.0869 H   0  0  0  0  0  0  0  0  0  0  0  0
  143.4614  133.8814  151.3683 H   0  0  0  0  0  0  0  0  0  0  0  0
  143.1807  134.2976  149.6938 H   0  0  0  0  0  0  0  0  0  0  0  0
  142.7336  131.8805  150.1281 H   0  0  0  0  0  0  0  0  0  0  0  0
  144.0041  132.0971  148.9467 H   0  0  0  0  0  0  0  0  0  0  0  0
  144.3960  131.4706  151.9174 H   0  0  0  0  0  0  0  0  0  0  0  0
  144.6759  130.3703  150.5884 H   0  0  0  0  0  0  0  0  0  0  0  0
  146.8188  131.4109  151.3808 H   0  0  0  0  0  0  0  0  0  0  0  0
  146.4836  131.7689  149.7090 H   0  0  0  0  0  0  0  0  0  0  0  0
  147.2160  133.8001  150.6630 H   0  0  0  0  0  0  0  0  0  0  0  0
  145.2067  133.5224  152.9535 H   0  0  0  0  0  0  0  0  0  0  0  0
  146.9432  133.3290  153.0607 H   0  0  0  0  0  0  0  0  0  0  0  0
  149.2145  138.1157  152.8514 H   0  0  0  0  0  0  0  0  0  0  0  0
  151.0785  137.9318  154.3159 H   0  0  0  0  0  0  0  0  0  0  0  0
  152.6675  139.1964  155.7646 H   0  0  0  0  0  0  0  0  0  0  0  0
  152.0061  141.4738  156.5934 H   0  0  0  0  0  0  0  0  0  0  0  0
  149.7620  142.3771  155.9264 H   0  0  0  0  0  0  0  0  0  0  0  0
  145.4683  134.1178  149.2550 H   0  0  0  0  0  0  0  0  0  0  0  0
  1  2  2  0  0  0  0
  2  3  1  0  0  0  0
  2 15  1  0  0  0  0
  3  4  1  0  0  0  0
  3 22  1  0  0  0  0
  4  5  1  0  0  0  0
  4 23  1  0  0  0  0
  4 24  1  0  0  0  0
  5 14  1  0  0  0  0
  5  6  1  0  0  0  0
  5 25  1  0  0  0  0
  6  7  1  0  0  0  0
  6 26  1  0  0  0  0
  6 27  1  0  0  0  0
  7 12  1  0  0  0  0
  7  8  1  0  0  0  0
  7 44  1  0  0  0  0
  8  9  1  0  0  0  0
  8 28  1  0  0  0  0
  8 29  1  0  0  0  0
  9 10  1  0  0  0  0
  9 30  1  0  0  0  0
  9 31  1  0  0  0  0
 10 11  1  0  0  0  0
 10 32  1  0  0  0  0
 10 33  1  0  0  0  0
 11 12  1  0  0  0  0
 11 34  1  0  0  0  0
 11 35  1  0  0  0  0
 12 13  1  0  0  0  0
 12 36  1  0  0  0  0
 13 14  1  0  0  0  0
 13 37  1  0  0  0  0
 13 38  1  0  0  0  0
 15 16  1  0  0  0  0
 15 39  1  0  0  0  0
 16 21  1  0  0  0  0
 16 17  2  0  0  0  0
 17 18  1  0  0  0  0
 17 40  1  0  0  0  0
 18 19  2  0  0  0  0
 18 41  1  0  0  0  0
 19 20  1  0  0  0  0
 19 42  1  0  0  0  0
 20 21  2  0  0  0  0
 20 43  1  0  0  0  0
M  CHG  1   7   1
M  END
> <s_m_source_file>
AV-unprocessed.smi

> <i_m_source_file_index>
2528

> <i_lp_mmshare_version>
43012

> <i_f3d_flags>
0

> <s_epik_input>
bjFbY0hdW2NIXVtjSF1bY0hdYzFbTkhdQyg9TylbTkhdW0NIMl1bQ0BIXShbQ0gyXTIpT1tDSDJdW0NAQEhdKE4yMylbQ0gyXVtDSDJdW0NIMl1bQ0gyXTM=

> <s_epik_cmdline>
J2VwaWtfcHl0aG9uJywgJy1waCcsICc3LjAnLCAnLXRuJywgJzgnLCAnLW1hJywgJzIwMCcsICctbWV0YWxfYmluZGluZycsICctaW1hZScsICc8aW5maWxlLm1hZT4nLCAnLW9tYWUnLCAnPG91dGZpbGUubWFlPic=

> <r_epik_Ionization_Penalty>
0.0932337

> <r_epik_Ionization_Penalty_Charging>
0.0931942

> <r_epik_Ionization_Penalty_Neutral>
3.9565e-05

> <r_epik_State_Penalty>
0.0834605

> <r_epik_Charging_Adjusted_Penalty>
0.176655

> <i_epik_Tot_Q>
1

> <i_epik_Tot_abs_Q>
1

> <r_epik_Metal_State_Penalty>
0.0834607

> <b_epik_Metal_Only>
0

> <s_lp_Force_Field>
OPLS_2005

> <r_lp_Energy>
28.0088

> <b_lp_Chiralities_Consistent>
1

> <s_lp_Variant>
AV-unprocessed.smi:2528-6

> <Gold.Version>
5.8.1

> <Gold.Id.Protein>
6NUR|6NUR_protein|mol2

> <Gold.PLP.Fitness>
48.8295

> <Gold.PLP.PLP>
-39.4693

> <Gold.PLP.part.hbond>
-4.0000

> <Gold.PLP.part.metal>
0.0000

> <Gold.PLP.part.buried>
-1.7731

> <Gold.PLP.part.nonpolar>
-35.3142

> <Gold.PLP.part.repulsive>
1.9519

> <Gold.PLP.ligand.clash>
0.0000

> <Gold.PLP.ligand.torsion>
0.8155

> <Gold.PLP.Chemscore.Hbond>
2.6630

> <Gold.PLP.Chemscore.CHOScore>
1.0000

> <Gold.PLP.Chemscore.Metal>
0.0000

> <Gold.Chemscore.Hbonds>
donor molecule, donor type, donor heavy atom, donor atom, acceptor molecule, acceptor atom, score
      L1  H     3    22       P1  7948  1.00
      L1  H     7    44       P1  7921  1.00
      L1  H    15    39       P1  7948  0.66
      L1  C    20    43       P1  8028  1.00

> <Gold.PLP.Chemscore.Internal.Correction>
0.0023

> <Gold.Rescore>
     Score         DG    S(hbond)    S(metal)    S(lipo)     H(rot)  DE(clash)    DE(int)     intcor
     20.18     -22.46       2.73        0.00      95.45       1.29       0.64       1.65       ----

> <Gold.Chemscore.Fitness>
20.1755

> <Gold.Chemscore.DG>
-22.4635

> <Gold.Chemscore.ZeroCoef>
-5.4800

> <Gold.Chemscore.Hbond>
2.7277

> <Gold.Chemscore.Metal>
0.0000

> <Gold.Chemscore.Lipo>
95.4503

> <Gold.Chemscore.Internal_Hbond>
0.0000

> <Gold.Chemscore.DEClash>
0.6421

> <Gold.Chemscore.DEInternal>
1.6459

> <Gold.Chemscore.Rot>
1.2870

> <Gold.Chemscore.Internal.Correction>
   9.000000E+99

> <Gold.Chemscore.Hbonds>
donor molecule, donor type, donor heavy atom, donor atom, acceptor molecule, acceptor atom, score
      L1  H     3    22       P1  7948  0.97
      L1  H     7    44       P1  7921  0.81
      L1  H    15    39       P1  7948  0.62

> <Gold.Chemscore.Hbond.Weighted>
-9.1106

> <Gold.Chemscore.Metal.Weighted>
-0.0000

> <Gold.Chemscore.Lipo.Weighted>
-11.1677

> <Gold.Chemscore.Internal_Hbond.Weighted>
0.0000

> <Gold.Chemscore.DEClash.Weighted>
0.6421

> <Gold.Chemscore.DEInternal.Weighted>
1.6459

> <Gold.Chemscore.Rot.Weighted>
3.2948

> <Gold.Chemscore.Internal.Correction.Weighted>
   9.000000E+99

> <Gold.Protein.RotatedTorsions>
[ 6907 6896 6895 6894 ] final -125.09 input  -60.11 | X-H torsion
[ 7974 7965 7964 7962 ] final  114.50 input  175.53 | X-H torsion
[ 8008 7997 7996 7995 ] final  152.06 input   59.86 | X-H torsion
[ 10167 10162 10161 10158 ] final    6.74 input  -65.29 | X-H torsion
[ 10718 10713 10712 10709 ] final -100.72 input   66.30 | X-H torsion
[ 10763 10752 10751 10750 ] final  -67.74 input  -60.55 | X-H torsion
[ 11005 11000 10999 10996 ] final   27.20 input  -57.11 | X-H torsion

> <Gold.Protein.ActiveResidues>
 VAL166  LYS551  ARG553  GLY616  TRP617  ASP618  TYR619  PRO620  LYS621  CYS622 
 ASP623  PHE694  ASN695  SER759  ASP760  ASP761  ALA762  ILE779  LEU786  VAL792 
 PHE793  MET794  SER795  GLU796  ALA797  LYS798  CYS799  TRP800  GLU811  SER814 

> <Gold.Protein.RotatedAtoms>
  150.8833  133.7342  159.2925 H   0  0  0  0  0  0  0  0  0  0  0  0  # atno 6907 bound_to 6896
  151.4917  135.1056  159.9815 H   0  0  0  0  0  0  0  0  0  0  0  0  # atno 6908 bound_to 6896
  152.4773  133.8124  159.7066 H   0  0  0  0  0  0  0  0  0  0  0  0  # atno 6909 bound_to 6896
  145.2036  139.2940  143.4305 H   0  0  0  0  0  0  0  0  0  0  0  0  # atno 7974 bound_to 7965
  156.2646  140.2031  156.6274 H   0  0  0  0  0  0  0  0  0  0  0  0  # atno 8008 bound_to 7997
  154.6709  140.0550  157.0189 H   0  0  0  0  0  0  0  0  0  0  0  0  # atno 8009 bound_to 7997
  155.1138  140.3218  155.4517 H   0  0  0  0  0  0  0  0  0  0  0  0  # atno 8010 bound_to 7997
  140.6411  143.7772  150.7429 H   0  0  0  0  0  0  0  0  0  0  0  0  # atno 10167 bound_to 10162
  156.0172  130.5340  150.6858 H   0  0  0  0  0  0  0  0  0  0  0  0  # atno 10718 bound_to 10713
  154.3789  135.6078  153.5780 H   0  0  0  0  0  0  0  0  0  0  0  0  # atno 10763 bound_to 10752
  152.9788  135.5856  154.4434 H   0  0  0  0  0  0  0  0  0  0  0  0  # atno 10764 bound_to 10752
  154.4200  135.2845  155.1959 H   0  0  0  0  0  0  0  0  0  0  0  0  # atno 10765 bound_to 10752
  140.3288  134.2461  155.7705 H   0  0  0  0  0  0  0  0  0  0  0  0  # atno 11005 bound_to 11000
  146.3412  140.2289  142.8593 LP  0  0  0  0  0  0  0  0  0  0  0  0  # atno 17320 bound_to 7965
  144.9924  140.8558  143.5331 LP  0  0  0  0  0  0  0  0  0  0  0  0  # atno 17321 bound_to 7965
  140.1404  143.4446  152.2197 LP  0  0  0  0  0  0  0  0  0  0  0  0  # atno 17342 bound_to 10162
  139.5620  144.7412  151.4128 LP  0  0  0  0  0  0  0  0  0  0  0  0  # atno 17343 bound_to 10162
  157.4551  131.0877  151.0805 LP  0  0  0  0  0  0  0  0  0  0  0  0  # atno 17370 bound_to 10713
  157.1310  130.6102  149.5529 LP  0  0  0  0  0  0  0  0  0  0  0  0  # atno 17371 bound_to 10713
  141.2068  133.7822  157.0153 LP  0  0  0  0  0  0  0  0  0  0  0  0  # atno 17394 bound_to 11000
  140.0878  134.9610  157.1728 LP  0  0  0  0  0  0  0  0  0  0  0  0  # atno 17395 bound_to 11000

$$$$
