AV-unprocessed.smi:402|AV-procd|sdf|2495|dock7
  -GOLD-   2262022443D 1   1.00000     0.00000
 Structure written by MMmdl.
 38 39  0  0  0  0  0  0  0  0  1 V2000
  151.4771  140.4788  155.2913 O   0  0  0  0  0  0  0  0  0  0  0  0
  150.4750  140.1196  155.9083 C   0  0  0  0  0  0  0  0  0  0  0  0
  149.1874  139.8047  155.1260 C   0  0  0  0  0  0  0  0  0  0  0  0
  148.1763  140.8783  155.1308 N   0  0  0  0  0  0  0  0  0  0  0  0
  147.7728  141.3807  153.8776 C   0  0  0  0  0  0  0  0  0  0  0  0
  146.8556  142.3542  153.7644 C   0  0  0  0  0  0  0  0  0  0  0  0
  146.2769  142.8905  154.9735 C   0  0  0  0  0  0  0  0  0  0  0  0
  146.6529  142.4150  156.1773 C   0  0  0  0  0  0  0  0  0  0  0  0
  147.6525  141.3483  156.3055 C   0  0  0  0  0  0  0  0  0  0  0  0
  147.9914  140.8986  157.4001 O   0  0  0  0  0  0  0  0  0  0  0  0
  150.4527  139.9926  157.2445 N   0  0  0  0  0  0  0  0  0  0  0  0
  151.5641  140.2952  158.1355 C   0  0  0  0  0  0  0  0  0  0  0  0
  151.4638  141.7323  158.6816 C   0  0  0  0  0  0  0  0  0  0  0  0
  151.4415  142.7906  157.5547 C   0  0  0  0  0  0  0  0  0  0  0  0
  151.3624  144.2194  158.1163 C   0  0  0  0  0  0  0  0  0  0  0  0
  152.5091  144.4969  159.0999 C   0  0  0  0  0  0  0  0  0  0  0  0
  152.5315  143.4556  160.2287 C   0  0  0  0  0  0  0  0  0  0  0  0
  152.6137  142.0272  159.6661 C   0  0  0  0  0  0  0  0  0  0  0  0
  149.4615  139.5518  154.1002 H   0  0  0  0  0  0  0  0  0  0  0  0
  148.7620  138.8872  155.5349 H   0  0  0  0  0  0  0  0  0  0  0  0
  148.2492  140.9221  153.0231 H   0  0  0  0  0  0  0  0  0  0  0  0
  146.5569  142.7247  152.7949 H   0  0  0  0  0  0  0  0  0  0  0  0
  145.5387  143.6767  154.9123 H   0  0  0  0  0  0  0  0  0  0  0  0
  146.2084  142.8280  157.0709 H   0  0  0  0  0  0  0  0  0  0  0  0
  149.5924  139.6894  157.6774 H   0  0  0  0  0  0  0  0  0  0  0  0
  151.5551  139.5775  158.9571 H   0  0  0  0  0  0  0  0  0  0  0  0
  152.5109  140.1648  157.6082 H   0  0  0  0  0  0  0  0  0  0  0  0
  150.5266  141.8124  159.2350 H   0  0  0  0  0  0  0  0  0  0  0  0
  152.3375  142.6911  156.9404 H   0  0  0  0  0  0  0  0  0  0  0  0
  150.5936  142.6249  156.8890 H   0  0  0  0  0  0  0  0  0  0  0  0
  151.3911  144.9413  157.2996 H   0  0  0  0  0  0  0  0  0  0  0  0
  150.4057  144.3609  158.6204 H   0  0  0  0  0  0  0  0  0  0  0  0
  153.4607  144.4794  158.5670 H   0  0  0  0  0  0  0  0  0  0  0  0
  152.4067  145.4983  159.5185 H   0  0  0  0  0  0  0  0  0  0  0  0
  153.3775  143.6436  160.8903 H   0  0  0  0  0  0  0  0  0  0  0  0
  151.6333  143.5578  160.8388 H   0  0  0  0  0  0  0  0  0  0  0  0
  152.5930  141.3115  160.4888 H   0  0  0  0  0  0  0  0  0  0  0  0
  153.5726  141.8904  159.1641 H   0  0  0  0  0  0  0  0  0  0  0  0
  1  2  2  0  0  0  0
  2  3  1  0  0  0  0
  2 11  1  0  0  0  0
  3  4  1  0  0  0  0
  3 19  1  0  0  0  0
  3 20  1  0  0  0  0
  4  9  1  0  0  0  0
  4  5  1  0  0  0  0
  5  6  2  0  0  0  0
  5 21  1  0  0  0  0
  6  7  1  0  0  0  0
  6 22  1  0  0  0  0
  7  8  2  0  0  0  0
  7 23  1  0  0  0  0
  8  9  1  0  0  0  0
  8 24  1  0  0  0  0
  9 10  2  0  0  0  0
 11 12  1  0  0  0  0
 11 25  1  0  0  0  0
 12 13  1  0  0  0  0
 12 26  1  0  0  0  0
 12 27  1  0  0  0  0
 13 18  1  0  0  0  0
 13 14  1  0  0  0  0
 13 28  1  0  0  0  0
 14 15  1  0  0  0  0
 14 29  1  0  0  0  0
 14 30  1  0  0  0  0
 15 16  1  0  0  0  0
 15 31  1  0  0  0  0
 15 32  1  0  0  0  0
 16 17  1  0  0  0  0
 16 33  1  0  0  0  0
 16 34  1  0  0  0  0
 17 18  1  0  0  0  0
 17 35  1  0  0  0  0
 17 36  1  0  0  0  0
 18 37  1  0  0  0  0
 18 38  1  0  0  0  0
M  END
> <s_m_source_file>
AV-unprocessed.smi

> <i_m_source_file_index>
402

> <i_lp_mmshare_version>
43012

> <i_f3d_flags>
0

> <s_epik_input>
W0NIMl0xW0NIMl1bQ0gyXVtDSDJdW0NIMl1bQ0hdMVtDSDJdW05IXUMoPU8pW0NIMl1uMltjSF1bY0hdW2NIXVtjSF1jMj1P

> <s_epik_cmdline>
J2VwaWtfcHl0aG9uJywgJy1waCcsICc3LjAnLCAnLXRuJywgJzgnLCAnLW1hJywgJzIwMCcsICctbWV0YWxfYmluZGluZycsICctaW1hZScsICc8aW5maWxlLm1hZT4nLCAnLW9tYWUnLCAnPG91dGZpbGUubWFlPic=

> <r_lp_tautomer_probability>
1

> <r_epik_Ionization_Penalty>
3.79717e-07

> <r_epik_Ionization_Penalty_Charging>
3.5992e-07

> <r_epik_Ionization_Penalty_Neutral>
1.97978e-08

> <r_epik_State_Penalty>
-0

> <r_epik_Charging_Adjusted_Penalty>
3.5992e-07

> <i_epik_Tot_Q>
0

> <i_epik_Tot_abs_Q>
0

> <r_epik_Metal_State_Penalty>
-0

> <b_epik_Metal_Only>
0

> <s_lp_Force_Field>
OPLS_2005

> <r_lp_Energy>
19.8269

> <b_lp_Chiralities_Consistent>
1

> <s_lp_Variant>
AV-unprocessed.smi:402-1

> <Gold.Version>
5.8.1

> <Gold.Id.Protein>
6NUR|6NUR_protein|mol2

> <Gold.PLP.Fitness>
42.9050

> <Gold.PLP.PLP>
-38.1622

> <Gold.PLP.part.hbond>
-1.0000

> <Gold.PLP.part.metal>
0.0000

> <Gold.PLP.part.buried>
-5.8138

> <Gold.PLP.part.nonpolar>
-32.1104

> <Gold.PLP.part.repulsive>
0.0739

> <Gold.PLP.ligand.clash>
0.0000

> <Gold.PLP.ligand.torsion>
0.4555

> <Gold.PLP.Chemscore.Hbond>
0.8800

> <Gold.PLP.Chemscore.CHOScore>
1.0000

> <Gold.PLP.Chemscore.Metal>
0.0000

> <Gold.Chemscore.Hbonds>
donor molecule, donor type, donor heavy atom, donor atom, acceptor molecule, acceptor atom, score
      P1  H  7989  7998       L1     1  0.86
      L1  C     5    21       P1  7957  1.00

> <Gold.PLP.Chemscore.Internal.Correction>
0.0138

> <Gold.Rescore>
     Score         DG    S(hbond)    S(metal)    S(lipo)     H(rot)  DE(clash)    DE(int)     intcor
     15.76     -16.30       0.96        0.00      99.37       1.57       0.02       0.53       ----

> <Gold.Chemscore.Fitness>
15.7551

> <Gold.Chemscore.DG>
-16.2970

> <Gold.Chemscore.ZeroCoef>
-5.4800

> <Gold.Chemscore.Hbond>
0.9621

> <Gold.Chemscore.Metal>
0.0000

> <Gold.Chemscore.Lipo>
99.3740

> <Gold.Chemscore.Internal_Hbond>
0.0000

> <Gold.Chemscore.DEClash>
0.0158

> <Gold.Chemscore.DEInternal>
0.5261

> <Gold.Chemscore.Rot>
1.5715

> <Gold.Chemscore.Internal.Correction>
   9.000000E+99

> <Gold.Chemscore.Hbonds>
donor molecule, donor type, donor heavy atom, donor atom, acceptor molecule, acceptor atom, score
      P1  H  7989  7998       L1     1  0.85

> <Gold.Chemscore.Hbond.Weighted>
-3.2133

> <Gold.Chemscore.Metal.Weighted>
-0.0000

> <Gold.Chemscore.Lipo.Weighted>
-11.6268

> <Gold.Chemscore.Internal_Hbond.Weighted>
0.0000

> <Gold.Chemscore.DEClash.Weighted>
0.0158

> <Gold.Chemscore.DEInternal.Weighted>
0.5261

> <Gold.Chemscore.Rot.Weighted>
4.0231

> <Gold.Chemscore.Internal.Correction.Weighted>
   9.000000E+99

> <Gold.Protein.RotatedTorsions>
[ 6907 6896 6895 6894 ] final  -59.17 input  -60.11 | X-H torsion
[ 7974 7965 7964 7962 ] final  173.78 input  175.53 | X-H torsion
[ 8008 7997 7996 7995 ] final  -71.40 input   59.86 | X-H torsion
[ 10167 10162 10161 10158 ] final  -22.42 input  -65.29 | X-H torsion
[ 10718 10713 10712 10709 ] final  127.84 input   66.30 | X-H torsion
[ 10763 10752 10751 10750 ] final   57.22 input  -60.55 | X-H torsion
[ 11005 11000 10999 10996 ] final   87.93 input  -57.11 | X-H torsion

> <Gold.Protein.ActiveResidues>
 VAL166  LYS551  ARG553  GLY616  TRP617  ASP618  TYR619  PRO620  LYS621  CYS622 
 ASP623  PHE694  ASN695  SER759  ASP760  ASP761  ALA762  ILE779  LEU786  VAL792 
 PHE793  MET794  SER795  GLU796  ALA797  LYS798  CYS799  TRP800  GLU811  SER814 

> <Gold.Protein.RotatedAtoms>
  150.7950  134.7003  159.6545 H   0  0  0  0  0  0  0  0  0  0  0  0  # atno 6907 bound_to 6896
  152.4061  134.6201  160.0058 H   0  0  0  0  0  0  0  0  0  0  0  0  # atno 6908 bound_to 6896
  151.6457  133.3286  159.3176 H   0  0  0  0  0  0  0  0  0  0  0  0  # atno 6909 bound_to 6896
  144.7236  139.9699  143.6437 H   0  0  0  0  0  0  0  0  0  0  0  0  # atno 7974 bound_to 7965
  154.5085  140.0816  156.7942 H   0  0  0  0  0  0  0  0  0  0  0  0  # atno 8008 bound_to 7997
  155.3839  140.3429  155.4230 H   0  0  0  0  0  0  0  0  0  0  0  0  # atno 8009 bound_to 7997
  156.1544  140.1568  156.8704 H   0  0  0  0  0  0  0  0  0  0  0  0  # atno 8010 bound_to 7997
  140.7286  143.4536  151.0480 H   0  0  0  0  0  0  0  0  0  0  0  0  # atno 10167 bound_to 10162
  157.5297  131.1098  150.9028 H   0  0  0  0  0  0  0  0  0  0  0  0  # atno 10718 bound_to 10713
  152.9846  135.5649  154.5355 H   0  0  0  0  0  0  0  0  0  0  0  0  # atno 10763 bound_to 10752
  154.4819  135.2789  155.1566 H   0  0  0  0  0  0  0  0  0  0  0  0  # atno 10764 bound_to 10752
  154.3071  135.6296  153.5503 H   0  0  0  0  0  0  0  0  0  0  0  0  # atno 10765 bound_to 10752
  139.8908  134.8454  156.2929 H   0  0  0  0  0  0  0  0  0  0  0  0  # atno 11005 bound_to 11000
  146.0571  139.3567  143.0604 LP  0  0  0  0  0  0  0  0  0  0  0  0  # atno 17320 bound_to 7965
  145.8141  140.9712  143.0933 LP  0  0  0  0  0  0  0  0  0  0  0  0  # atno 17321 bound_to 7965
  139.8214  143.7814  152.3177 LP  0  0  0  0  0  0  0  0  0  0  0  0  # atno 17342 bound_to 10162
  139.7898  144.7414  150.9971 LP  0  0  0  0  0  0  0  0  0  0  0  0  # atno 17343 bound_to 10162
  156.9613  130.5456  149.5286 LP  0  0  0  0  0  0  0  0  0  0  0  0  # atno 17370 bound_to 10713
  156.0413  130.5495  150.8777 LP  0  0  0  0  0  0  0  0  0  0  0  0  # atno 17371 bound_to 10713
  140.9964  133.7177  156.0893 LP  0  0  0  0  0  0  0  0  0  0  0  0  # atno 17394 bound_to 11000
  140.7556  134.3996  157.5534 LP  0  0  0  0  0  0  0  0  0  0  0  0  # atno 17395 bound_to 11000

$$$$
