AV-unprocessed.smi:3290|AV-procd|sdf|12615|dock4
  -GOLD-   2272018543D 1   1.00000     0.00000
 Structure written by MMmdl.
 43 44  0  0  0  0  0  0  0  0  2 V2000
  151.1504  140.3980  159.4357 C   0  0  0  0  0  0  0  0  0  0  0  0
  151.7071  141.7965  159.1130 C   0  0  2  0  0  0  0  0  0  0  0  0
  151.8517  142.6080  160.4181 C   0  0  0  0  0  0  0  0  0  0  0  0
  152.4571  143.9956  160.1688 C   0  0  0  0  0  0  0  0  0  0  0  0
  151.6259  144.7755  159.1445 C   0  0  0  0  0  0  0  0  0  0  0  0
  151.4832  143.9817  157.8385 C   0  0  0  0  0  0  0  0  0  0  0  0
  150.8645  142.5840  158.0659 C   0  0  1  0  0  0  0  0  0  0  0  0
  150.7273  141.8584  156.7079 C   0  0  0  0  0  0  0  0  0  0  0  0
  149.5158  142.2743  155.9731 N   0  3  0  0  0  0  0  0  0  0  0  0
  148.2836  141.5827  156.4012 C   0  0  0  0  0  0  0  0  0  0  0  0
  147.7816  140.6068  155.3229 C   0  0  1  0  0  0  0  0  0  0  0  0
  148.1109  141.1274  154.0497 O   0  0  0  0  0  0  0  0  0  0  0  0
  148.3609  139.2165  155.5298 C   0  0  0  0  0  0  0  0  0  0  0  0
  149.7557  139.0087  155.5970 C   0  0  0  0  0  0  0  0  0  0  0  0
  150.2327  137.6985  155.8023 C   0  0  0  0  0  0  0  0  0  0  0  0
  149.4219  136.6278  155.9399 N   0  0  0  0  0  0  0  0  0  0  0  0
  148.0889  136.8322  155.8753 C   0  0  0  0  0  0  0  0  0  0  0  0
  147.5094  138.1012  155.6740 C   0  0  0  0  0  0  0  0  0  0  0  0
  150.1070  140.4467  159.7488 H   0  0  0  0  0  0  0  0  0  0  0  0
  151.7151  139.9292  160.2422 H   0  0  0  0  0  0  0  0  0  0  0  0
  151.2194  139.7286  158.5788 H   0  0  0  0  0  0  0  0  0  0  0  0
  152.7091  141.6569  158.7040 H   0  0  0  0  0  0  0  0  0  0  0  0
  150.8764  142.7181  160.8947 H   0  0  0  0  0  0  0  0  0  0  0  0
  152.4795  142.0672  161.1273 H   0  0  0  0  0  0  0  0  0  0  0  0
  152.5129  144.5522  161.1046 H   0  0  0  0  0  0  0  0  0  0  0  0
  153.4812  143.8906  159.8084 H   0  0  0  0  0  0  0  0  0  0  0  0
  150.6387  144.9877  159.5566 H   0  0  0  0  0  0  0  0  0  0  0  0
  152.0928  145.7404  158.9449 H   0  0  0  0  0  0  0  0  0  0  0  0
  150.8683  144.5544  157.1433 H   0  0  0  0  0  0  0  0  0  0  0  0
  152.4623  143.8795  157.3682 H   0  0  0  0  0  0  0  0  0  0  0  0
  149.8638  142.7412  158.4724 H   0  0  0  0  0  0  0  0  0  0  0  0
  151.5822  142.0902  156.0710 H   0  0  0  0  0  0  0  0  0  0  0  0
  150.7293  140.7772  156.8524 H   0  0  0  0  0  0  0  0  0  0  0  0
  149.3870  143.2674  156.1043 H   0  0  0  0  0  0  0  0  0  0  0  0
  148.4653  141.0553  157.3392 H   0  0  0  0  0  0  0  0  0  0  0  0
  147.5185  142.3346  156.6000 H   0  0  0  0  0  0  0  0  0  0  0  0
  146.6938  140.5398  155.3761 H   0  0  0  0  0  0  0  0  0  0  0  0
  147.9509  140.4578  153.4015 H   0  0  0  0  0  0  0  0  0  0  0  0
  150.4483  139.8314  155.4966 H   0  0  0  0  0  0  0  0  0  0  0  0
  151.2939  137.5065  155.8597 H   0  0  0  0  0  0  0  0  0  0  0  0
  147.4640  135.9588  155.9894 H   0  0  0  0  0  0  0  0  0  0  0  0
  146.4353  138.2092  155.6333 H   0  0  0  0  0  0  0  0  0  0  0  0
  149.6565  142.0948  154.9888 H   0  0  0  0  0  0  0  0  0  0  0  0
  1  2  1  0  0  0  0
  1 19  1  0  0  0  0
  1 20  1  0  0  0  0
  1 21  1  0  0  0  0
  2  7  1  0  0  0  0
  2  3  1  0  0  0  0
  2 22  1  0  0  0  0
  3  4  1  0  0  0  0
  3 23  1  0  0  0  0
  3 24  1  0  0  0  0
  4  5  1  0  0  0  0
  4 25  1  0  0  0  0
  4 26  1  0  0  0  0
  5  6  1  0  0  0  0
  5 27  1  0  0  0  0
  5 28  1  0  0  0  0
  6  7  1  0  0  0  0
  6 29  1  0  0  0  0
  6 30  1  0  0  0  0
  7  8  1  0  0  0  0
  7 31  1  0  0  0  0
  8  9  1  0  0  0  0
  8 32  1  0  0  0  0
  8 33  1  0  0  0  0
  9 10  1  0  0  0  0
  9 34  1  0  0  0  0
  9 43  1  0  0  0  0
 10 11  1  0  0  0  0
 10 35  1  0  0  0  0
 10 36  1  0  0  0  0
 11 12  1  0  0  0  0
 11 13  1  0  0  0  0
 11 37  1  0  0  0  0
 12 38  1  0  0  0  0
 13 18  1  0  0  0  0
 13 14  2  0  0  0  0
 14 15  1  0  0  0  0
 14 39  1  0  0  0  0
 15 16  2  0  0  0  0
 15 40  1  0  0  0  0
 16 17  1  0  0  0  0
 17 18  2  0  0  0  0
 17 41  1  0  0  0  0
 18 42  1  0  0  0  0
M  CHG  1   9   1
M  END
> <s_m_source_file>
AV-unprocessed.smi

> <i_m_source_file_index>
3290

> <i_lp_mmshare_version>
43012

> <i_f3d_flags>
0

> <s_epik_input>
W0NIM11bQ0BASF0xW0NIMl1bQ0gyXVtDSDJdW0NIMl1bQ0BIXTFbQ0gyXVtOSF1bQ0gyXVtDQEhdKFtPSF0pYzJbY0hdW2NIXW5bY0hdW2NIXTI=

> <s_epik_cmdline>
J2VwaWtfcHl0aG9uJywgJy1waCcsICc3LjAnLCAnLXRuJywgJzgnLCAnLW1hJywgJzIwMCcsICctbWV0YWxfYmluZGluZycsICctaW1hZScsICc8aW5maWxlLm1hZT4nLCAnLW9tYWUnLCAnPG91dGZpbGUubWFlPic=

> <r_lp_tautomer_probability>
1

> <r_epik_Ionization_Penalty>
0.00420552

> <r_epik_Ionization_Penalty_Charging>
0.00207255

> <r_epik_Ionization_Penalty_Neutral>
0.00213297

> <r_epik_State_Penalty>
-0

> <r_epik_Charging_Adjusted_Penalty>
0.00207255

> <i_epik_Tot_Q>
1

> <i_epik_Tot_abs_Q>
1

> <r_epik_Metal_State_Penalty>
-0

> <b_epik_Metal_Only>
0

> <s_lp_Force_Field>
OPLS_2005

> <r_lp_Energy>
17.7323

> <b_lp_Chiralities_Consistent>
1

> <s_lp_Variant>
AV-unprocessed.smi:3290-5

> <Gold.Version>
5.8.1

> <Gold.Id.Protein>
6NUR|6NUR_protein|mol2

> <Gold.PLP.Fitness>
53.0870

> <Gold.PLP.PLP>
-42.5199

> <Gold.PLP.part.hbond>
-5.0000

> <Gold.PLP.part.metal>
0.0000

> <Gold.PLP.part.buried>
-4.0508

> <Gold.PLP.part.nonpolar>
-34.2763

> <Gold.PLP.part.repulsive>
0.2774

> <Gold.PLP.ligand.clash>
0.0000

> <Gold.PLP.ligand.torsion>
1.1173

> <Gold.PLP.Chemscore.Hbond>
4.2600

> <Gold.PLP.Chemscore.CHOScore>
0.0000

> <Gold.PLP.Chemscore.Metal>
0.0000

> <Gold.Chemscore.Hbonds>
donor molecule, donor type, donor heavy atom, donor atom, acceptor molecule, acceptor atom, score
      L1  H     9    34       P1  8028  2.00

> <Gold.PLP.Chemscore.Internal.Correction>
0.0218

> <Gold.Rescore>
     Score         DG    S(hbond)    S(metal)    S(lipo)     H(rot)  DE(clash)    DE(int)     intcor
     21.62     -23.68       2.78        0.00     120.97       2.05       0.62       1.44       ----

> <Gold.Chemscore.Fitness>
21.6163

> <Gold.Chemscore.DG>
-23.6805

> <Gold.Chemscore.ZeroCoef>
-5.4800

> <Gold.Chemscore.Hbond>
2.7826

> <Gold.Chemscore.Metal>
0.0000

> <Gold.Chemscore.Lipo>
120.9748

> <Gold.Chemscore.Internal_Hbond>
0.0000

> <Gold.Chemscore.DEClash>
0.6220

> <Gold.Chemscore.DEInternal>
1.4423

> <Gold.Chemscore.Rot>
2.0498

> <Gold.Chemscore.Internal.Correction>
   9.000000E+99

> <Gold.Chemscore.Hbonds>
donor molecule, donor type, donor heavy atom, donor atom, acceptor molecule, acceptor atom, score
      L1  H     9    34       P1  8028  0.96

> <Gold.Chemscore.Hbond.Weighted>
-9.2940

> <Gold.Chemscore.Metal.Weighted>
-0.0000

> <Gold.Chemscore.Lipo.Weighted>
-14.1541

> <Gold.Chemscore.Internal_Hbond.Weighted>
0.0000

> <Gold.Chemscore.DEClash.Weighted>
0.6220

> <Gold.Chemscore.DEInternal.Weighted>
1.4423

> <Gold.Chemscore.Rot.Weighted>
5.2475

> <Gold.Chemscore.Internal.Correction.Weighted>
   9.000000E+99

> <Gold.Protein.RotatedTorsions>
[ 6907 6896 6895 6894 ] final   10.38 input  -60.11 | X-H torsion
[ 7974 7965 7964 7962 ] final  105.25 input  175.53 | X-H torsion
[ 8008 7997 7996 7995 ] final  101.71 input   59.86 | X-H torsion
[ 10167 10162 10161 10158 ] final  -30.09 input  -65.29 | X-H torsion
[ 10718 10713 10712 10709 ] final  -31.86 input   66.30 | X-H torsion
[ 10763 10752 10751 10750 ] final  174.78 input  -60.55 | X-H torsion
[ 11005 11000 10999 10996 ] final  -60.03 input  -57.11 | X-H torsion

> <Gold.Protein.ActiveResidues>
 VAL166  LYS551  ARG553  GLY616  TRP617  ASP618  TYR619  PRO620  LYS621  CYS622 
 ASP623  PHE694  ASN695  SER759  ASP760  ASP761  ALA762  ILE779  LEU786  VAL792 
 PHE793  MET794  SER795  GLU796  ALA797  LYS798  CYS799  TRP800  GLU811  SER814 

> <Gold.Protein.RotatedAtoms>
  151.7372  135.0862  160.0309 H   0  0  0  0  0  0  0  0  0  0  0  0  # atno 6907 bound_to 6896
  152.3503  133.6167  159.5948 H   0  0  0  0  0  0  0  0  0  0  0  0  # atno 6908 bound_to 6896
  150.7535  133.9501  159.3525 H   0  0  0  0  0  0  0  0  0  0  0  0  # atno 6909 bound_to 6896
  145.3221  139.2510  143.3706 H   0  0  0  0  0  0  0  0  0  0  0  0  # atno 7974 bound_to 7965
  156.1324  140.3193  155.8370 H   0  0  0  0  0  0  0  0  0  0  0  0  # atno 8008 bound_to 7997
  155.4306  140.0518  157.3036 H   0  0  0  0  0  0  0  0  0  0  0  0  # atno 8009 bound_to 7997
  154.4910  140.2092  155.9561 H   0  0  0  0  0  0  0  0  0  0  0  0  # atno 8010 bound_to 7997
  140.7253  143.3877  151.1486 H   0  0  0  0  0  0  0  0  0  0  0  0  # atno 10167 bound_to 10162
  156.3821  130.4358  149.7461 H   0  0  0  0  0  0  0  0  0  0  0  0  # atno 10718 bound_to 10713
  154.4586  135.2767  155.1729 H   0  0  0  0  0  0  0  0  0  0  0  0  # atno 10763 bound_to 10752
  154.3526  135.6146  153.5654 H   0  0  0  0  0  0  0  0  0  0  0  0  # atno 10764 bound_to 10752
  152.9853  135.5815  154.4944 H   0  0  0  0  0  0  0  0  0  0  0  0  # atno 10765 bound_to 10752
  141.1271  133.6619  156.5162 H   0  0  0  0  0  0  0  0  0  0  0  0  # atno 11005 bound_to 11000
  146.3078  140.3780  142.8681 LP  0  0  0  0  0  0  0  0  0  0  0  0  # atno 17320 bound_to 7965
  144.8931  140.7549  143.5914 LP  0  0  0  0  0  0  0  0  0  0  0  0  # atno 17321 bound_to 7965
  139.7476  143.8827  152.3068 LP  0  0  0  0  0  0  0  0  0  0  0  0  # atno 17342 bound_to 10162
  139.8670  144.7088  150.9032 LP  0  0  0  0  0  0  0  0  0  0  0  0  # atno 17343 bound_to 10162
  156.4548  130.7923  151.2944 LP  0  0  0  0  0  0  0  0  0  0  0  0  # atno 17370 bound_to 10713
  157.7493  131.0084  150.3228 LP  0  0  0  0  0  0  0  0  0  0  0  0  # atno 17371 bound_to 10713
  140.4329  134.7085  157.4951 LP  0  0  0  0  0  0  0  0  0  0  0  0  # atno 17394 bound_to 11000
  140.0281  134.6446  155.9144 LP  0  0  0  0  0  0  0  0  0  0  0  0  # atno 17395 bound_to 11000

$$$$
