AV-unprocessed.smi:1445|AV-procd|sdf|5887|dock7
  -GOLD-   22720 5563D 1   1.00000     0.00000
 Structure written by MMmdl.
 46 47  0  0  0  0  0  0  0  0  2 V2000
  149.2438  131.8026  154.3561 C   0  0  0  0  0  0  0  0  0  0  0  0
  148.3371  132.6603  153.6711 O   0  0  0  0  0  0  0  0  0  0  0  0
  147.3851  132.0907  152.8468 C   0  0  0  0  0  0  0  0  0  0  0  0
  147.2594  130.7398  152.8460 N   0  0  0  0  0  0  0  0  0  0  0  0
  146.3270  130.1813  152.0481 C   0  0  0  0  0  0  0  0  0  0  0  0
  145.4739  130.9320  151.2193 C   0  0  0  0  0  0  0  0  0  0  0  0
  145.6019  132.3331  151.2179 C   0  0  0  0  0  0  0  0  0  0  0  0
  146.5851  132.9356  152.0412 C   0  0  0  0  0  0  0  0  0  0  0  0
  146.7987  134.3404  152.1339 N   0  0  0  0  0  0  0  0  0  0  0  0
  145.8995  135.3393  152.1537 C   0  0  0  0  0  0  0  0  0  0  0  0
  144.6786  135.2080  152.0734 O   0  0  0  0  0  0  0  0  0  0  0  0
  146.5030  136.5319  152.2596 N   0  0  0  0  0  0  0  0  0  0  0  0
  145.8096  137.8129  152.3314 C   0  0  0  0  0  0  0  0  0  0  0  0
  146.7971  138.9962  152.3589 C   0  0  0  0  0  0  0  0  0  0  0  0
  146.4468  139.9998  153.3951 N   0  3  1  0  0  0  0  0  0  0  0  0
  146.0943  139.3692  154.6932 C   0  0  0  0  0  0  0  0  0  0  0  0
  145.5794  140.4154  155.6944 C   0  0  0  0  0  0  0  0  0  0  0  0
  146.6025  141.5434  155.8901 C   0  0  0  0  0  0  0  0  0  0  0  0
  147.0245  142.1565  154.5419 C   0  0  2  0  0  0  0  0  0  0  0  0
  145.9376  143.0570  153.9285 C   0  0  0  0  0  0  0  0  0  0  0  0
  147.4847  141.0533  153.5665 C   0  0  0  0  0  0  0  0  0  0  0  0
  149.9211  132.4035  154.9625 H   0  0  0  0  0  0  0  0  0  0  0  0
  149.8505  131.2244  153.6577 H   0  0  0  0  0  0  0  0  0  0  0  0
  148.7195  131.1192  155.0256 H   0  0  0  0  0  0  0  0  0  0  0  0
  146.2551  129.1041  152.0752 H   0  0  0  0  0  0  0  0  0  0  0  0
  144.7345  130.4442  150.6016 H   0  0  0  0  0  0  0  0  0  0  0  0
  144.9353  132.9085  150.5959 H   0  0  0  0  0  0  0  0  0  0  0  0
  147.7685  134.6207  152.1478 H   0  0  0  0  0  0  0  0  0  0  0  0
  147.5112  136.5526  152.3154 H   0  0  0  0  0  0  0  0  0  0  0  0
  145.1170  137.8857  151.4925 H   0  0  0  0  0  0  0  0  0  0  0  0
  145.2006  137.8172  153.2359 H   0  0  0  0  0  0  0  0  0  0  0  0
  147.7914  138.5969  152.5644 H   0  0  0  0  0  0  0  0  0  0  0  0
  146.8584  139.4858  151.3858 H   0  0  0  0  0  0  0  0  0  0  0  0
  145.3226  138.6135  154.5414 H   0  0  0  0  0  0  0  0  0  0  0  0
  146.9670  138.8545  155.0987 H   0  0  0  0  0  0  0  0  0  0  0  0
  144.6332  140.8267  155.3419 H   0  0  0  0  0  0  0  0  0  0  0  0
  145.3665  139.9391  156.6520 H   0  0  0  0  0  0  0  0  0  0  0  0
  146.1999  142.3107  156.5523 H   0  0  0  0  0  0  0  0  0  0  0  0
  147.4837  141.1404  156.3914 H   0  0  0  0  0  0  0  0  0  0  0  0
  147.8831  142.8013  154.7346 H   0  0  0  0  0  0  0  0  0  0  0  0
  145.0363  142.4974  153.6789 H   0  0  0  0  0  0  0  0  0  0  0  0
  146.2942  143.5303  153.0130 H   0  0  0  0  0  0  0  0  0  0  0  0
  145.6538  143.8531  154.6174 H   0  0  0  0  0  0  0  0  0  0  0  0
  148.4001  140.5911  153.9394 H   0  0  0  0  0  0  0  0  0  0  0  0
  147.7388  141.5063  152.6090 H   0  0  0  0  0  0  0  0  0  0  0  0
  145.6085  140.4614  153.0721 H   0  0  0  0  0  0  0  0  0  0  0  0
  1  2  1  0  0  0  0
  1 22  1  0  0  0  0
  1 23  1  0  0  0  0
  1 24  1  0  0  0  0
  2  3  1  0  0  0  0
  3  8  1  0  0  0  0
  3  4  2  0  0  0  0
  4  5  1  0  0  0  0
  5  6  2  0  0  0  0
  5 25  1  0  0  0  0
  6  7  1  0  0  0  0
  6 26  1  0  0  0  0
  7  8  2  0  0  0  0
  7 27  1  0  0  0  0
  8  9  1  0  0  0  0
  9 10  1  0  0  0  0
  9 28  1  0  0  0  0
 10 11  2  0  0  0  0
 10 12  1  0  0  0  0
 12 13  1  0  0  0  0
 12 29  1  0  0  0  0
 13 14  1  0  0  0  0
 13 30  1  0  0  0  0
 13 31  1  0  0  0  0
 14 15  1  0  0  0  0
 14 32  1  0  0  0  0
 14 33  1  0  0  0  0
 15 21  1  0  0  0  0
 15 16  1  0  0  0  0
 15 46  1  0  0  0  0
 16 17  1  0  0  0  0
 16 34  1  0  0  0  0
 16 35  1  0  0  0  0
 17 18  1  0  0  0  0
 17 36  1  0  0  0  0
 17 37  1  0  0  0  0
 18 19  1  0  0  0  0
 18 38  1  0  0  0  0
 18 39  1  0  0  0  0
 19 20  1  0  0  0  0
 19 21  1  0  0  0  0
 19 40  1  0  0  0  0
 20 41  1  0  0  0  0
 20 42  1  0  0  0  0
 20 43  1  0  0  0  0
 21 44  1  0  0  0  0
 21 45  1  0  0  0  0
M  CHG  1  15   1
M  END
> <s_m_source_file>
AV-unprocessed.smi

> <i_m_source_file_index>
1445

> <i_lp_mmshare_version>
43012

> <i_f3d_flags>
0

> <s_epik_input>
W0NIM11PYzFuW2NIXVtjSF1bY0hdYzFbTkhdQyg9TylbTkhdW0NIMl1bQ0gyXU4yW0NIMl1bQ0gyXVtDSDJdW0NAQEhdKFtDSDNdKVtDSDJdMg==

> <s_epik_cmdline>
J2VwaWtfcHl0aG9uJywgJy1waCcsICc3LjAnLCAnLXRuJywgJzgnLCAnLW1hJywgJzIwMCcsICctbWV0YWxfYmluZGluZycsICctaW1hZScsICc8aW5maWxlLm1hZT4nLCAnLW9tYWUnLCAnPG91dGZpbGUubWFlPic=

> <r_lp_tautomer_probability>
1

> <r_epik_Ionization_Penalty>
0.00179544

> <r_epik_Ionization_Penalty_Charging>
0.00171832

> <r_epik_Ionization_Penalty_Neutral>
7.71118e-05

> <r_epik_State_Penalty>
0.0011618

> <r_epik_Charging_Adjusted_Penalty>
0.00288012

> <i_epik_Tot_Q>
1

> <i_epik_Tot_abs_Q>
1

> <r_epik_Metal_State_Penalty>
-0

> <b_epik_Metal_Only>
0

> <s_lp_Force_Field>
OPLS_2005

> <r_lp_Energy>
21.8859

> <b_lp_Chiralities_Consistent>
1

> <s_lp_Variant>
AV-unprocessed.smi:1445-3

> <Gold.Version>
5.8.1

> <Gold.Id.Protein>
6NUR|6NUR_protein|mol2

> <Gold.PLP.Fitness>
47.9790

> <Gold.PLP.PLP>
-37.9031

> <Gold.PLP.part.hbond>
-2.8345

> <Gold.PLP.part.metal>
0.0000

> <Gold.PLP.part.buried>
-4.4659

> <Gold.PLP.part.nonpolar>
-30.7703

> <Gold.PLP.part.repulsive>
0.4463

> <Gold.PLP.ligand.clash>
0.0000

> <Gold.PLP.ligand.torsion>
0.7678

> <Gold.PLP.Chemscore.Hbond>
3.8553

> <Gold.PLP.Chemscore.CHOScore>
0.0000

> <Gold.PLP.Chemscore.Metal>
0.0000

> <Gold.Chemscore.Hbonds>
donor molecule, donor type, donor heavy atom, donor atom, acceptor molecule, acceptor atom, score
      L1  H     9    28       P1  7948  0.85
      L1  H    12    29       P1  7948  1.00
      L1  H    15    46       P1 10175  2.00

> <Gold.PLP.Chemscore.Internal.Correction>
0.0457

> <Gold.Rescore>
     Score         DG    S(hbond)    S(metal)    S(lipo)     H(rot)  DE(clash)    DE(int)     intcor
     17.08     -17.89       2.15        0.00      82.17       1.71       0.10       0.71       ----

> <Gold.Chemscore.Fitness>
17.0791

> <Gold.Chemscore.DG>
-17.8903

> <Gold.Chemscore.ZeroCoef>
-5.4800

> <Gold.Chemscore.Hbond>
2.1484

> <Gold.Chemscore.Metal>
0.0000

> <Gold.Chemscore.Lipo>
82.1721

> <Gold.Chemscore.Internal_Hbond>
0.0000

> <Gold.Chemscore.DEClash>
0.1013

> <Gold.Chemscore.DEInternal>
0.7099

> <Gold.Chemscore.Rot>
1.7107

> <Gold.Chemscore.Internal.Correction>
   9.000000E+99

> <Gold.Chemscore.Hbonds>
donor molecule, donor type, donor heavy atom, donor atom, acceptor molecule, acceptor atom, score
      L1  H     9    28       P1  7948  0.41
      L1  H    12    29       P1  7948  0.91
      L1  H    15    46       P1 10175  0.84

> <Gold.Chemscore.Hbond.Weighted>
-7.1756

> <Gold.Chemscore.Metal.Weighted>
-0.0000

> <Gold.Chemscore.Lipo.Weighted>
-9.6141

> <Gold.Chemscore.Internal_Hbond.Weighted>
0.0000

> <Gold.Chemscore.DEClash.Weighted>
0.1013

> <Gold.Chemscore.DEInternal.Weighted>
0.7099

> <Gold.Chemscore.Rot.Weighted>
4.3794

> <Gold.Chemscore.Internal.Correction.Weighted>
   9.000000E+99

> <Gold.Protein.RotatedTorsions>
[ 6907 6896 6895 6894 ] final  -32.99 input  -60.11 | X-H torsion
[ 7974 7965 7964 7962 ] final -171.92 input  175.53 | X-H torsion
[ 8008 7997 7996 7995 ] final  167.03 input   59.86 | X-H torsion
[ 10167 10162 10161 10158 ] final   39.50 input  -65.29 | X-H torsion
[ 10718 10713 10712 10709 ] final   56.45 input   66.30 | X-H torsion
[ 10763 10752 10751 10750 ] final   34.87 input  -60.55 | X-H torsion
[ 11005 11000 10999 10996 ] final   10.80 input  -57.11 | X-H torsion

> <Gold.Protein.ActiveResidues>
 VAL166  LYS551  ARG553  GLY616  TRP617  ASP618  TYR619  PRO620  LYS621  CYS622 
 ASP623  PHE694  ASN695  SER759  ASP760  ASP761  ALA762  ILE779  LEU786  VAL792 
 PHE793  MET794  SER795  GLU796  ALA797  LYS798  CYS799  TRP800  GLU811  SER814 

> <Gold.Protein.RotatedAtoms>
  151.0714  134.9801  159.8310 H   0  0  0  0  0  0  0  0  0  0  0  0  # atno 6907 bound_to 6896
  152.5409  134.2294  159.8829 H   0  0  0  0  0  0  0  0  0  0  0  0  # atno 6908 bound_to 6896
  151.2319  133.4402  159.2637 H   0  0  0  0  0  0  0  0  0  0  0  0  # atno 6909 bound_to 6896
  144.7152  140.1850  143.6354 H   0  0  0  0  0  0  0  0  0  0  0  0  # atno 7974 bound_to 7965
  156.1669  140.1628  156.8516 H   0  0  0  0  0  0  0  0  0  0  0  0  # atno 8008 bound_to 7997
  154.5216  140.0777  156.8218 H   0  0  0  0  0  0  0  0  0  0  0  0  # atno 8009 bound_to 7997
  155.3593  140.3394  155.4243 H   0  0  0  0  0  0  0  0  0  0  0  0  # atno 8010 bound_to 7997
  140.3833  144.1950  150.6130 H   0  0  0  0  0  0  0  0  0  0  0  0  # atno 10167 bound_to 10162
  157.5432  130.8712  149.8852 H   0  0  0  0  0  0  0  0  0  0  0  0  # atno 10718 bound_to 10713
  153.0144  135.6349  154.1736 H   0  0  0  0  0  0  0  0  0  0  0  0  # atno 10763 bound_to 10752
  154.1476  135.2831  155.3145 H   0  0  0  0  0  0  0  0  0  0  0  0  # atno 10764 bound_to 10752
  154.6077  135.5566  153.7502 H   0  0  0  0  0  0  0  0  0  0  0  0  # atno 10765 bound_to 10752
  140.5104  134.0658  155.7816 H   0  0  0  0  0  0  0  0  0  0  0  0  # atno 11005 bound_to 11000
  145.8821  139.2328  143.1599 LP  0  0  0  0  0  0  0  0  0  0  0  0  # atno 17320 bound_to 7965
  145.9985  140.8541  143.0030 LP  0  0  0  0  0  0  0  0  0  0  0  0  # atno 17321 bound_to 7965
  140.4915  143.2346  151.8811 LP  0  0  0  0  0  0  0  0  0  0  0  0  # atno 17342 bound_to 10162
  139.4794  144.5160  151.8867 LP  0  0  0  0  0  0  0  0  0  0  0  0  # atno 17343 bound_to 10162
  156.0513  130.3717  150.1194 LP  0  0  0  0  0  0  0  0  0  0  0  0  # atno 17370 bound_to 10713
  156.9372  130.9733  151.3522 LP  0  0  0  0  0  0  0  0  0  0  0  0  # atno 17371 bound_to 10713
  141.1388  133.9174  157.2372 LP  0  0  0  0  0  0  0  0  0  0  0  0  # atno 17394 bound_to 11000
  139.9662  135.0141  156.9393 LP  0  0  0  0  0  0  0  0  0  0  0  0  # atno 17395 bound_to 11000

$$$$
