AV-unprocessed.smi:1795|AV-procd|sdf|7246|dock8
  -GOLD-   22720 8493D 1   1.00000     0.00000
 Structure written by MMmdl.
 48 49  0  0  0  0  0  0  0  0  2 V2000
  145.5611  131.8957  149.8084 C   0  0  0  0  0  0  0  0  0  0  0  0
  145.6367  132.7093  151.1048 C   0  0  1  0  0  0  0  0  0  0  0  0
  146.7661  133.7584  151.0657 C   0  0  0  0  0  0  0  0  0  0  0  0
  146.7916  134.5719  152.3119 N   0  3  2  0  0  0  0  0  0  0  0  0
  147.3581  133.9285  153.5454 C   0  0  1  0  0  0  0  0  0  0  0  0
  148.7093  133.2130  153.3024 C   0  0  0  0  0  0  0  0  0  0  0  0
  147.5126  134.9845  154.6676 C   0  0  0  0  0  0  0  0  0  0  0  0
  147.8993  136.2907  154.1479 N   0  0  0  0  0  0  0  0  0  0  0  0
  147.7624  137.4419  154.8207 C   0  0  0  0  0  0  0  0  0  0  0  0
  147.2917  137.5020  155.9574 O   0  0  0  0  0  0  0  0  0  0  0  0
  148.2548  138.7049  154.0995 C   0  0  0  0  0  0  0  0  0  0  0  0
  149.6141  139.1108  154.4931 N   0  0  0  0  0  0  0  0  0  0  0  0
  150.6741  138.2732  154.0922 C   0  0  0  0  0  0  0  0  0  0  0  0
  151.9515  138.5484  154.3990 C   0  0  0  0  0  0  0  0  0  0  0  0
  152.2283  139.7436  155.1601 C   0  0  0  0  0  0  0  0  0  0  0  0
  151.2215  140.5489  155.5532 C   0  0  0  0  0  0  0  0  0  0  0  0
  149.8227  140.2481  155.2259 C   0  0  0  0  0  0  0  0  0  0  0  0
  148.8956  140.9737  155.5873 O   0  0  0  0  0  0  0  0  0  0  0  0
  145.4495  135.1860  152.5085 C   0  0  0  0  0  0  0  0  0  0  0  0
  144.3254  134.1255  152.4855 C   0  0  1  0  0  0  0  0  0  0  0  0
  142.9345  134.7631  152.5727 C   0  0  0  0  0  0  0  0  0  0  0  0
  144.3962  133.3872  151.2708 O   0  0  0  0  0  0  0  0  0  0  0  0
  146.4873  131.3476  149.6342 H   0  0  0  0  0  0  0  0  0  0  0  0
  145.3862  132.5403  148.9463 H   0  0  0  0  0  0  0  0  0  0  0  0
  144.7485  131.1700  149.8506 H   0  0  0  0  0  0  0  0  0  0  0  0
  145.7873  132.0205  151.9376 H   0  0  0  0  0  0  0  0  0  0  0  0
  147.7314  133.3058  150.8444 H   0  0  0  0  0  0  0  0  0  0  0  0
  146.5839  134.4382  150.2320 H   0  0  0  0  0  0  0  0  0  0  0  0
  146.6600  133.1657  153.8891 H   0  0  0  0  0  0  0  0  0  0  0  0
  149.1156  132.7910  154.2213 H   0  0  0  0  0  0  0  0  0  0  0  0
  149.4568  133.8988  152.9019 H   0  0  0  0  0  0  0  0  0  0  0  0
  148.6111  132.3736  152.6144 H   0  0  0  0  0  0  0  0  0  0  0  0
  146.5728  135.0829  155.2141 H   0  0  0  0  0  0  0  0  0  0  0  0
  148.2655  134.6872  155.3963 H   0  0  0  0  0  0  0  0  0  0  0  0
  148.2949  136.3227  153.2193 H   0  0  0  0  0  0  0  0  0  0  0  0
  148.2103  138.5216  153.0251 H   0  0  0  0  0  0  0  0  0  0  0  0
  147.5513  139.5203  154.2783 H   0  0  0  0  0  0  0  0  0  0  0  0
  150.3818  137.3965  153.5323 H   0  0  0  0  0  0  0  0  0  0  0  0
  152.7503  137.8912  154.0881 H   0  0  0  0  0  0  0  0  0  0  0  0
  153.2477  139.9927  155.4158 H   0  0  0  0  0  0  0  0  0  0  0  0
  151.4480  141.4386  156.1225 H   0  0  0  0  0  0  0  0  0  0  0  0
  145.3989  135.7674  153.4271 H   0  0  0  0  0  0  0  0  0  0  0  0
  145.2860  135.8999  151.6997 H   0  0  0  0  0  0  0  0  0  0  0  0
  144.4331  133.4375  153.3247 H   0  0  0  0  0  0  0  0  0  0  0  0
  142.8190  135.3272  153.4985 H   0  0  0  0  0  0  0  0  0  0  0  0
  142.1543  134.0019  152.5496 H   0  0  0  0  0  0  0  0  0  0  0  0
  142.7586  135.4453  151.7402 H   0  0  0  0  0  0  0  0  0  0  0  0
  147.4252  135.3332  152.1129 H   0  0  0  0  0  0  0  0  0  0  0  0
  1  2  1  0  0  0  0
  1 23  1  0  0  0  0
  1 24  1  0  0  0  0
  1 25  1  0  0  0  0
  2 22  1  0  0  0  0
  2  3  1  0  0  0  0
  2 26  1  0  0  0  0
  3  4  1  0  0  0  0
  3 27  1  0  0  0  0
  3 28  1  0  0  0  0
  4  5  1  0  0  0  0
  4 19  1  0  0  0  0
  4 48  1  0  0  0  0
  5  6  1  0  0  0  0
  5  7  1  0  0  0  0
  5 29  1  0  0  0  0
  6 30  1  0  0  0  0
  6 31  1  0  0  0  0
  6 32  1  0  0  0  0
  7  8  1  0  0  0  0
  7 33  1  0  0  0  0
  7 34  1  0  0  0  0
  8  9  1  0  0  0  0
  8 35  1  0  0  0  0
  9 10  2  0  0  0  0
  9 11  1  0  0  0  0
 11 12  1  0  0  0  0
 11 36  1  0  0  0  0
 11 37  1  0  0  0  0
 12 17  1  0  0  0  0
 12 13  1  0  0  0  0
 13 14  2  0  0  0  0
 13 38  1  0  0  0  0
 14 15  1  0  0  0  0
 14 39  1  0  0  0  0
 15 16  2  0  0  0  0
 15 40  1  0  0  0  0
 16 17  1  0  0  0  0
 16 41  1  0  0  0  0
 17 18  2  0  0  0  0
 19 20  1  0  0  0  0
 19 42  1  0  0  0  0
 19 43  1  0  0  0  0
 20 21  1  0  0  0  0
 20 22  1  0  0  0  0
 20 44  1  0  0  0  0
 21 45  1  0  0  0  0
 21 46  1  0  0  0  0
 21 47  1  0  0  0  0
M  CHG  1   4   1
M  END
> <s_m_source_file>
AV-unprocessed.smi

> <i_m_source_file_index>
1795

> <i_lp_mmshare_version>
43012

> <i_f3d_flags>
0

> <s_epik_input>
W0NIM11bQ0BASF0xW0NIMl1OKFtDSDJdW0NASF0oTzEpW0NIM10pW0NASF0oW0NIM10pW0NIMl1bTkhdQyg9TylbQ0gyXW4yW2NIXVtjSF1bY0hdW2NIXWMyPU8=

> <s_epik_cmdline>
J2VwaWtfcHl0aG9uJywgJy1waCcsICc3LjAnLCAnLXRuJywgJzgnLCAnLW1hJywgJzIwMCcsICctbWV0YWxfYmluZGluZycsICctaW1hZScsICc8aW5maWxlLm1hZT4nLCAnLW9tYWUnLCAnPG91dGZpbGUubWFlPic=

> <r_lp_tautomer_probability>
1

> <r_epik_Ionization_Penalty>
0.656654

> <r_epik_Ionization_Penalty_Charging>
0.656654

> <r_epik_Ionization_Penalty_Neutral>
8.90321e-08

> <r_epik_State_Penalty>
0.675641

> <r_epik_Charging_Adjusted_Penalty>
1.33229

> <i_epik_Tot_Q>
1

> <i_epik_Tot_abs_Q>
1

> <r_epik_Metal_State_Penalty>
0.675691

> <b_epik_Metal_Only>
0

> <s_lp_Force_Field>
OPLS_2005

> <r_lp_Energy>
32.8471

> <b_lp_Chiralities_Consistent>
1

> <s_lp_Variant>
AV-unprocessed.smi:1795-10

> <Gold.Version>
5.8.1

> <Gold.Id.Protein>
6NUR|6NUR_protein|mol2

> <Gold.PLP.Fitness>
48.7711

> <Gold.PLP.PLP>
-38.0727

> <Gold.PLP.part.hbond>
-2.0000

> <Gold.PLP.part.metal>
0.0000

> <Gold.PLP.part.buried>
-4.3913

> <Gold.PLP.part.nonpolar>
-31.8823

> <Gold.PLP.part.repulsive>
0.2392

> <Gold.PLP.ligand.clash>
0.0000

> <Gold.PLP.ligand.torsion>
0.9015

> <Gold.PLP.Chemscore.Hbond>
2.9913

> <Gold.PLP.Chemscore.CHOScore>
1.1459

> <Gold.PLP.Chemscore.Metal>
0.0000

> <Gold.Chemscore.Hbonds>
donor molecule, donor type, donor heavy atom, donor atom, acceptor molecule, acceptor atom, score
      L1  H     4    48       P1  7948  2.00
      L1  H     8    35       P1  7948  0.94
      L1  C    13    38       P1  7948  0.79
      L1  C    13    38       P1  7949  0.34

> <Gold.PLP.Chemscore.Internal.Correction>
0.0898

> <Gold.Rescore>
     Score         DG    S(hbond)    S(metal)    S(lipo)     H(rot)  DE(clash)    DE(int)     intcor
     16.49     -17.47       1.99        0.00      86.82       1.89       0.02       0.95       ----

> <Gold.Chemscore.Fitness>
16.4921

> <Gold.Chemscore.DG>
-17.4667

> <Gold.Chemscore.ZeroCoef>
-5.4800

> <Gold.Chemscore.Hbond>
1.9940

> <Gold.Chemscore.Metal>
0.0000

> <Gold.Chemscore.Lipo>
86.8171

> <Gold.Chemscore.Internal_Hbond>
0.0000

> <Gold.Chemscore.DEClash>
0.0217

> <Gold.Chemscore.DEInternal>
0.9530

> <Gold.Chemscore.Rot>
1.8870

> <Gold.Chemscore.Internal.Correction>
   9.000000E+99

> <Gold.Chemscore.Hbonds>
donor molecule, donor type, donor heavy atom, donor atom, acceptor molecule, acceptor atom, score
      L1  H     4    48       P1  7948  0.99
      L1  H     8    35       P1  7948  0.90

> <Gold.Chemscore.Hbond.Weighted>
-6.6599

> <Gold.Chemscore.Metal.Weighted>
-0.0000

> <Gold.Chemscore.Lipo.Weighted>
-10.1576

> <Gold.Chemscore.Internal_Hbond.Weighted>
0.0000

> <Gold.Chemscore.DEClash.Weighted>
0.0217

> <Gold.Chemscore.DEInternal.Weighted>
0.9530

> <Gold.Chemscore.Rot.Weighted>
4.8308

> <Gold.Chemscore.Internal.Correction.Weighted>
   9.000000E+99

> <Gold.Protein.RotatedTorsions>
[ 6907 6896 6895 6894 ] final  -97.54 input  -60.11 | X-H torsion
[ 7974 7965 7964 7962 ] final -163.22 input  175.53 | X-H torsion
[ 8008 7997 7996 7995 ] final  -62.82 input   59.86 | X-H torsion
[ 10167 10162 10161 10158 ] final -165.89 input  -65.29 | X-H torsion
[ 10718 10713 10712 10709 ] final  -98.88 input   66.30 | X-H torsion
[ 10763 10752 10751 10750 ] final -111.02 input  -60.55 | X-H torsion
[ 11005 11000 10999 10996 ] final    2.46 input  -57.11 | X-H torsion

> <Gold.Protein.ActiveResidues>
 VAL166  LYS551  ARG553  GLY616  TRP617  ASP618  TYR619  PRO620  LYS621  CYS622 
 ASP623  PHE694  ASN695  SER759  ASP760  ASP761  ALA762  ILE779  LEU786  VAL792 
 PHE793  MET794  SER795  GLU796  ALA797  LYS798  CYS799  TRP800  GLU811  SER814 

> <Gold.Protein.RotatedAtoms>
  150.7019  134.1333  159.4077 H   0  0  0  0  0  0  0  0  0  0  0  0  # atno 6907 bound_to 6896
  151.9319  135.0250  160.0539 H   0  0  0  0  0  0  0  0  0  0  0  0  # atno 6908 bound_to 6896
  152.2168  133.4918  159.5177 H   0  0  0  0  0  0  0  0  0  0  0  0  # atno 6909 bound_to 6896
  144.7332  140.3138  143.6183 H   0  0  0  0  0  0  0  0  0  0  0  0  # atno 7974 bound_to 7965
  154.4520  140.0988  156.6647 H   0  0  0  0  0  0  0  0  0  0  0  0  # atno 8008 bound_to 7997
  155.5254  140.3480  155.4397 H   0  0  0  0  0  0  0  0  0  0  0  0  # atno 8009 bound_to 7997
  156.0701  140.1347  156.9827 H   0  0  0  0  0  0  0  0  0  0  0  0  # atno 8010 bound_to 7997
  139.6152  144.0735  152.1880 H   0  0  0  0  0  0  0  0  0  0  0  0  # atno 10167 bound_to 10162
  156.0119  130.5258  150.6588 H   0  0  0  0  0  0  0  0  0  0  0  0  # atno 10718 bound_to 10713
  154.8279  135.4542  154.0975 H   0  0  0  0  0  0  0  0  0  0  0  0  # atno 10763 bound_to 10752
  153.2274  135.6901  153.7936 H   0  0  0  0  0  0  0  0  0  0  0  0  # atno 10764 bound_to 10752
  153.7331  135.3324  155.3266 H   0  0  0  0  0  0  0  0  0  0  0  0  # atno 10765 bound_to 10752
  140.6041  133.9809  155.8145 H   0  0  0  0  0  0  0  0  0  0  0  0  # atno 11005 bound_to 11000
  145.7638  139.1833  143.2252 LP  0  0  0  0  0  0  0  0  0  0  0  0  # atno 17320 bound_to 7965
  146.0965  140.7594  142.9569 LP  0  0  0  0  0  0  0  0  0  0  0  0  # atno 17321 bound_to 7965
  140.0363  144.6042  150.7447 LP  0  0  0  0  0  0  0  0  0  0  0  0  # atno 17342 bound_to 10162
  140.7346  143.2730  151.3827 LP  0  0  0  0  0  0  0  0  0  0  0  0  # atno 17343 bound_to 10162
  157.4334  131.0852  151.1015 LP  0  0  0  0  0  0  0  0  0  0  0  0  # atno 17370 bound_to 10713
  157.1581  130.6213  149.5602 LP  0  0  0  0  0  0  0  0  0  0  0  0  # atno 17371 bound_to 10713
  141.0853  134.0001  157.3323 LP  0  0  0  0  0  0  0  0  0  0  0  0  # atno 17394 bound_to 11000
  139.9220  135.0201  156.8098 LP  0  0  0  0  0  0  0  0  0  0  0  0  # atno 17395 bound_to 11000

$$$$
