AV-unprocessed.smi:54|AV-procd|sdf|552|dock10
  -GOLD-   2262016453D 1   1.00000     0.00000
 Structure written by MMmdl.
 43 45  0  0  0  0  0  0  0  0  2 V2000
  153.0149  143.7931  159.2141 C   0  0  0  0  0  0  0  0  0  0  0  0
  152.5619  142.6184  160.0968 C   0  0  0  0  0  0  0  0  0  0  0  0
  153.3319  142.5892  161.4278 C   0  0  0  0  0  0  0  0  0  0  0  0
  152.7171  141.2861  159.3503 C   0  0  0  0  0  0  0  0  0  0  0  0
  153.4908  140.4348  159.7953 O   0  0  0  0  0  0  0  0  0  0  0  0
  151.9685  141.1592  158.2318 N   0  0  0  0  0  0  0  0  0  0  0  0
  151.8828  140.0795  157.3454 C   0  0  0  0  0  0  0  0  0  0  0  0
  150.7713  139.8515  156.6816 N   0  0  0  0  0  0  0  0  0  0  0  0
  150.8721  138.7540  155.8500 C   0  0  0  0  0  0  0  0  0  0  0  0
  151.9521  137.9357  155.6660 C   0  0  0  0  0  0  0  0  0  0  0  0
  151.6755  136.9281  154.7489 N   0  0  0  0  0  0  0  0  0  0  0  0
  150.4127  137.1938  154.4161 C   0  0  0  0  0  0  0  0  0  0  0  0
  149.8666  138.2651  155.0274 N   0  0  0  0  0  0  0  0  0  0  0  0
  148.4867  138.8155  154.8689 C   0  0  1  0  0  0  0  0  0  0  0  0
  148.1336  139.5112  156.0190 O   0  0  0  0  0  0  0  0  0  0  0  0
  147.1408  140.4824  155.6975 C   0  0  1  0  0  0  0  0  0  0  0  0
  147.4794  141.7707  156.4628 C   0  0  0  0  0  0  0  0  0  0  0  0
  148.7824  142.2078  156.1389 O   0  0  0  0  0  0  0  0  0  0  0  0
  147.1737  140.6425  154.1616 C   0  0  2  0  0  0  0  0  0  0  0  0
  145.9887  140.1012  153.6099 O   0  0  0  0  0  0  0  0  0  0  0  0
  148.3744  139.8172  153.7186 C   0  0  1  0  0  0  0  0  0  0  0  0
  149.5239  140.6332  153.5801 O   0  0  0  0  0  0  0  0  0  0  0  0
  153.1721  138.2558  156.4449 C   0  0  0  0  0  0  0  0  0  0  0  0
  154.1696  137.5491  156.3131 O   0  0  0  0  0  0  0  0  0  0  0  0
  153.0765  139.3450  157.2663 N   0  5  0  0  0  0  0  0  0  0  0  0
  147.8384  137.9465  154.7449 H   0  0  0  0  0  0  0  0  0  0  0  0
  146.1758  140.0984  156.0340 H   0  0  0  0  0  0  0  0  0  0  0  0
  147.2491  141.6834  153.8436 H   0  0  0  0  0  0  0  0  0  0  0  0
  148.2106  139.2886  152.7781 H   0  0  0  0  0  0  0  0  0  0  0  0
  152.4711  143.8110  158.2686 H   0  0  0  0  0  0  0  0  0  0  0  0
  154.0799  143.7372  158.9853 H   0  0  0  0  0  0  0  0  0  0  0  0
  152.8341  144.7460  159.7120 H   0  0  0  0  0  0  0  0  0  0  0  0
  151.5049  142.7623  160.3274 H   0  0  0  0  0  0  0  0  0  0  0  0
  153.0250  141.7435  162.0446 H   0  0  0  0  0  0  0  0  0  0  0  0
  153.1486  143.4969  162.0034 H   0  0  0  0  0  0  0  0  0  0  0  0
  154.4082  142.5117  161.2681 H   0  0  0  0  0  0  0  0  0  0  0  0
  151.4117  141.9674  157.9967 H   0  0  0  0  0  0  0  0  0  0  0  0
  149.8684  136.5884  153.7065 H   0  0  0  0  0  0  0  0  0  0  0  0
  146.7787  142.5614  156.1934 H   0  0  0  0  0  0  0  0  0  0  0  0
  147.3971  141.6192  157.5396 H   0  0  0  0  0  0  0  0  0  0  0  0
  148.7975  143.1525  156.1634 H   0  0  0  0  0  0  0  0  0  0  0  0
  145.3660  140.8023  153.4931 H   0  0  0  0  0  0  0  0  0  0  0  0
  149.8555  140.5355  152.7010 H   0  0  0  0  0  0  0  0  0  0  0  0
  1  2  1  0  0  0  0
  1 30  1  0  0  0  0
  1 31  1  0  0  0  0
  1 32  1  0  0  0  0
  2  3  1  0  0  0  0
  2  4  1  0  0  0  0
  2 33  1  0  0  0  0
  3 34  1  0  0  0  0
  3 35  1  0  0  0  0
  3 36  1  0  0  0  0
  4  5  2  0  0  0  0
  4  6  1  0  0  0  0
  6 37  1  0  0  0  0
  6  7  1  0  0  0  0
  7 25  1  0  0  0  0
  7  8  2  0  0  0  0
  8  9  1  0  0  0  0
  9 13  1  0  0  0  0
  9 10  2  0  0  0  0
 10 11  1  0  0  0  0
 10 23  1  0  0  0  0
 11 12  2  0  0  0  0
 12 13  1  0  0  0  0
 12 38  1  0  0  0  0
 13 14  1  0  0  0  0
 14 26  1  0  0  0  0
 14 21  1  0  0  0  0
 14 15  1  0  0  0  0
 15 16  1  0  0  0  0
 16 27  1  0  0  0  0
 16 17  1  0  0  0  0
 16 19  1  0  0  0  0
 17 18  1  0  0  0  0
 17 39  1  0  0  0  0
 17 40  1  0  0  0  0
 18 41  1  0  0  0  0
 19 28  1  0  0  0  0
 19 20  1  0  0  0  0
 19 21  1  0  0  0  0
 20 42  1  0  0  0  0
 21 29  1  0  0  0  0
 21 22  1  0  0  0  0
 22 43  1  0  0  0  0
 23 24  2  0  0  0  0
 23 25  1  0  0  0  0
M  CHG  1  25  -1
M  END
> <s_m_source_file>
AV-unprocessed.smi

> <i_m_source_file_index>
54

> <i_lp_mmshare_version>
43012

> <i_f3d_flags>
0

> <s_epik_input>
W0NIM11bQ0hdKFtDSDNdKUMoPU8pW05IXWMobjEpW25IXWMoPU8pYyhjMTIpbltjSF1uMltDQEBIXTNPW0NASF0oW0NIMl1bT0hdKVtDQEBIXShbT0hdKVtDQEhdM1tPSF0=

> <s_epik_cmdline>
J2VwaWtfcHl0aG9uJywgJy1waCcsICc3LjAnLCAnLXRuJywgJzgnLCAnLW1hJywgJzIwMCcsICctbWV0YWxfYmluZGluZycsICctaW1hZScsICc8aW5maWxlLm1hZT4nLCAnLW9tYWUnLCAnPG91dGZpbGUubWFlPic=

> <r_lp_tautomer_probability>
0.85571

> <r_epik_Ionization_Penalty>
1.75936

> <r_epik_Ionization_Penalty_Charging>
4.55893e-11

> <r_epik_Ionization_Penalty_Neutral>
1.75936

> <r_epik_State_Penalty>
1.72072

> <r_epik_Charging_Adjusted_Penalty>
1.72072

> <i_epik_Tot_Q>
-1

> <i_epik_Tot_abs_Q>
1

> <r_epik_Metal_State_Penalty>
0.400338

> <b_epik_Metal_Only>
1

> <s_epik_Chemistry_Notes>
This compound contains an acetal/aminal-like group ( X-CH(R)-Y where X, Y are N, S, or O) that may be acid/base labile, releasing an aldehyde.

> <s_lp_Force_Field>
OPLS_2005

> <r_lp_Energy>
59.2625

> <b_lp_Chiralities_Consistent>
1

> <s_lp_Variant>
AV-unprocessed.smi:54-24

> <Gold.Version>
5.8.1

> <Gold.Id.Protein>
6NUR|6NUR_protein|mol2

> <Gold.PLP.Fitness>
51.7981

> <Gold.PLP.PLP>
-34.4012

> <Gold.PLP.part.hbond>
-8.0145

> <Gold.PLP.part.metal>
0.0000

> <Gold.PLP.part.buried>
-1.7036

> <Gold.PLP.part.nonpolar>
-25.2605

> <Gold.PLP.part.repulsive>
0.2249

> <Gold.PLP.ligand.clash>
0.0000

> <Gold.PLP.ligand.torsion>
0.9537

> <Gold.PLP.Chemscore.Hbond>
5.4240

> <Gold.PLP.Chemscore.CHOScore>
1.0000

> <Gold.PLP.Chemscore.Metal>
0.0000

> <Gold.Chemscore.Hbonds>
donor molecule, donor type, donor heavy atom, donor atom, acceptor molecule, acceptor atom, score
      L1  H    18    41       P1  8028  1.00
      L1  H    20    42       P1 10175  0.42
      L1  H    22    43       P1  7957  0.99
      P1  H  7997  8010       L1    25  1.90
      P1  H 10752 10765       L1    11  1.00
      L1  C    12    38       P1  7948  1.00

> <Gold.PLP.Chemscore.Internal.Correction>
0.0323

> <Gold.Rescore>
     Score         DG    S(hbond)    S(metal)    S(lipo)     H(rot)  DE(clash)    DE(int)     intcor
     10.19     -15.18       3.85        0.00      60.91       4.02       0.96       4.02       ----

> <Gold.Chemscore.Fitness>
10.1914

> <Gold.Chemscore.DG>
-15.1803

> <Gold.Chemscore.ZeroCoef>
-5.4800

> <Gold.Chemscore.Hbond>
3.8512

> <Gold.Chemscore.Metal>
0.0000

> <Gold.Chemscore.Lipo>
60.9094

> <Gold.Chemscore.Internal_Hbond>
0.0000

> <Gold.Chemscore.DEClash>
0.9646

> <Gold.Chemscore.DEInternal>
4.0242

> <Gold.Chemscore.Rot>
4.0192

> <Gold.Chemscore.Internal.Correction>
   9.000000E+99

> <Gold.Chemscore.Hbonds>
donor molecule, donor type, donor heavy atom, donor atom, acceptor molecule, acceptor atom, score
      L1  H    18    41       P1  8028  0.99
      L1  H    20    42       P1 10175  0.35
      L1  H    22    43       P1  7957  0.94
      P1  H  7997  8010       L1    25  0.21
      P1  H 10752 10765       L1    11  0.92

> <Gold.Chemscore.Hbond.Weighted>
-12.8631

> <Gold.Chemscore.Metal.Weighted>
-0.0000

> <Gold.Chemscore.Lipo.Weighted>
-7.1264

> <Gold.Chemscore.Internal_Hbond.Weighted>
0.0000

> <Gold.Chemscore.DEClash.Weighted>
0.9646

> <Gold.Chemscore.DEInternal.Weighted>
4.0242

> <Gold.Chemscore.Rot.Weighted>
10.2893

> <Gold.Chemscore.Internal.Correction.Weighted>
   9.000000E+99

> <Gold.Protein.RotatedTorsions>
[ 6907 6896 6895 6894 ] final  -54.54 input  -60.11 | X-H torsion
[ 7974 7965 7964 7962 ] final  118.83 input  175.53 | X-H torsion
[ 8008 7997 7996 7995 ] final   37.63 input   59.86 | X-H torsion
[ 10167 10162 10161 10158 ] final   41.56 input  -65.29 | X-H torsion
[ 10718 10713 10712 10709 ] final   76.89 input   66.30 | X-H torsion
[ 10763 10752 10751 10750 ] final  179.39 input  -60.55 | X-H torsion
[ 11005 11000 10999 10996 ] final    0.50 input  -57.11 | X-H torsion

> <Gold.Protein.ActiveResidues>
 VAL166  LYS551  ARG553  GLY616  TRP617  ASP618  TYR619  PRO620  LYS621  CYS622 
 ASP623  PHE694  ASN695  SER759  ASP760  ASP761  ALA762  ILE779  LEU786  VAL792 
 PHE793  MET794  SER795  GLU796  ALA797  LYS798  CYS799  TRP800  GLU811  SER814 

> <Gold.Protein.RotatedAtoms>
  150.8329  134.7590  159.6868 H   0  0  0  0  0  0  0  0  0  0  0  0  # atno 6907 bound_to 6896
  152.4431  134.5547  159.9887 H   0  0  0  0  0  0  0  0  0  0  0  0  # atno 6908 bound_to 6896
  151.5704  133.3353  159.3024 H   0  0  0  0  0  0  0  0  0  0  0  0  # atno 6909 bound_to 6896
  145.1504  139.3214  143.4569 H   0  0  0  0  0  0  0  0  0  0  0  0  # atno 7974 bound_to 7965
  155.2069  140.3320  155.4334 H   0  0  0  0  0  0  0  0  0  0  0  0  # atno 8008 bound_to 7997
  156.2385  140.1884  156.7102 H   0  0  0  0  0  0  0  0  0  0  0  0  # atno 8009 bound_to 7997
  154.6104  140.0610  156.9471 H   0  0  0  0  0  0  0  0  0  0  0  0  # atno 8010 bound_to 7997
  140.3631  144.2202  150.6137 H   0  0  0  0  0  0  0  0  0  0  0  0  # atno 10167 bound_to 10162
  157.6690  130.9796  150.1562 H   0  0  0  0  0  0  0  0  0  0  0  0  # atno 10718 bound_to 10713
  154.5201  135.2793  155.1270 H   0  0  0  0  0  0  0  0  0  0  0  0  # atno 10763 bound_to 10752
  154.2831  135.6281  153.5358 H   0  0  0  0  0  0  0  0  0  0  0  0  # atno 10764 bound_to 10752
  152.9935  135.5656  154.5687 H   0  0  0  0  0  0  0  0  0  0  0  0  # atno 10765 bound_to 10752
  140.6258  133.9619  155.8248 H   0  0  0  0  0  0  0  0  0  0  0  0  # atno 11005 bound_to 11000
  146.3495  140.1576  142.8591 LP  0  0  0  0  0  0  0  0  0  0  0  0  # atno 17320 bound_to 7965
  145.0437  140.8965  143.5037 LP  0  0  0  0  0  0  0  0  0  0  0  0  # atno 17321 bound_to 7965
  140.5107  143.2291  151.8539 LP  0  0  0  0  0  0  0  0  0  0  0  0  # atno 17342 bound_to 10162
  139.4812  144.4952  151.9132 LP  0  0  0  0  0  0  0  0  0  0  0  0  # atno 17343 bound_to 10162
  156.2349  130.3685  149.8402 LP  0  0  0  0  0  0  0  0  0  0  0  0  # atno 17370 bound_to 10713
  156.6219  130.8630  151.3477 LP  0  0  0  0  0  0  0  0  0  0  0  0  # atno 17371 bound_to 10713
  141.0710  134.0205  157.3526 LP  0  0  0  0  0  0  0  0  0  0  0  0  # atno 17394 bound_to 11000
  139.9135  135.0194  156.7788 LP  0  0  0  0  0  0  0  0  0  0  0  0  # atno 17395 bound_to 11000

$$$$
