AV-unprocessed.smi:2410|AV-procd|sdf|9527|dock1
  -GOLD-   2272013153D 1   1.00000     0.00000
 Structure written by MMmdl.
 46 48  0  0  0  0  0  0  0  0  1 V2000
  152.7118  142.9433  161.2970 C   0  0  0  0  0  0  0  0  0  0  0  0
  152.1932  142.5653  159.9207 C   0  0  0  0  0  0  0  0  0  0  0  0
  152.6404  141.3648  159.3238 C   0  0  0  0  0  0  0  0  0  0  0  0
  152.1848  140.9787  158.0442 C   0  0  0  0  0  0  0  0  0  0  0  0
  152.4858  139.8637  157.2803 N   0  0  0  0  0  0  0  0  0  0  0  0
  151.7495  140.0772  156.1931 C   0  0  0  0  0  0  0  0  0  0  0  0
  151.0069  141.2004  156.1628 N   0  0  0  0  0  0  0  0  0  0  0  0
  150.1283  141.6493  155.0984 C   0  0  0  0  0  0  0  0  0  0  0  0
  148.6443  141.3796  155.4131 C   0  0  1  0  0  0  0  0  0  0  0  0
  148.2653  142.1967  156.5040 O   0  0  0  0  0  0  0  0  0  0  0  0
  147.7342  141.7019  154.2082 C   0  0  0  0  0  0  0  0  0  0  0  0
  146.3698  142.0624  154.6275 N   0  0  0  0  0  0  0  0  0  0  0  0
  145.8913  143.3068  154.1866 C   0  0  0  0  0  0  0  0  0  0  0  0
  144.7036  143.7218  154.4846 N   0  0  0  0  0  0  0  0  0  0  0  0
  143.8643  142.9281  155.2718 C   0  0  0  0  0  0  0  0  0  0  0  0
  142.4902  143.5082  155.5564 C   0  0  0  0  0  0  0  0  0  0  0  0
  144.2736  141.7188  155.7440 C   0  0  0  0  0  0  0  0  0  0  0  0
  143.4067  140.8142  156.6110 C   0  0  0  0  0  0  0  0  0  0  0  0
  145.6237  141.2339  155.4145 C   0  0  0  0  0  0  0  0  0  0  0  0
  146.0637  140.1543  155.8158 O   0  0  0  0  0  0  0  0  0  0  0  0
  151.2614  141.8329  157.3741 C   0  0  0  0  0  0  0  0  0  0  0  0
  150.8077  143.0289  157.9577 C   0  0  0  0  0  0  0  0  0  0  0  0
  151.2746  143.4009  159.2356 C   0  0  0  0  0  0  0  0  0  0  0  0
  150.7827  144.6969  159.8554 C   0  0  0  0  0  0  0  0  0  0  0  0
  153.3660  142.1708  161.7021 H   0  0  0  0  0  0  0  0  0  0  0  0
  151.8848  143.0782  161.9945 H   0  0  0  0  0  0  0  0  0  0  0  0
  153.2798  143.8725  161.2482 H   0  0  0  0  0  0  0  0  0  0  0  0
  153.3406  140.7286  159.8449 H   0  0  0  0  0  0  0  0  0  0  0  0
  151.7514  139.3773  155.3703 H   0  0  0  0  0  0  0  0  0  0  0  0
  150.2999  142.7119  154.9193 H   0  0  0  0  0  0  0  0  0  0  0  0
  150.4197  141.1276  154.1861 H   0  0  0  0  0  0  0  0  0  0  0  0
  148.5306  140.3350  155.7056 H   0  0  0  0  0  0  0  0  0  0  0  0
  148.5479  143.0815  156.3304 H   0  0  0  0  0  0  0  0  0  0  0  0
  148.1904  142.4648  153.5737 H   0  0  0  0  0  0  0  0  0  0  0  0
  147.6652  140.8261  153.5602 H   0  0  0  0  0  0  0  0  0  0  0  0
  146.5880  143.8917  153.5835 H   0  0  0  0  0  0  0  0  0  0  0  0
  141.7102  142.8483  155.1756 H   0  0  0  0  0  0  0  0  0  0  0  0
  142.3638  144.4819  155.0814 H   0  0  0  0  0  0  0  0  0  0  0  0
  142.3451  143.6390  156.6292 H   0  0  0  0  0  0  0  0  0  0  0  0
  143.8890  140.6420  157.5737 H   0  0  0  0  0  0  0  0  0  0  0  0
  143.2675  139.8482  156.1248 H   0  0  0  0  0  0  0  0  0  0  0  0
  142.4189  141.2267  156.8087 H   0  0  0  0  0  0  0  0  0  0  0  0
  150.1090  143.6560  157.4234 H   0  0  0  0  0  0  0  0  0  0  0  0
  150.1003  145.2236  159.1878 H   0  0  0  0  0  0  0  0  0  0  0  0
  151.6206  145.3611  160.0684 H   0  0  0  0  0  0  0  0  0  0  0  0
  150.2518  144.4978  160.7865 H   0  0  0  0  0  0  0  0  0  0  0  0
  1  2  1  0  0  0  0
  1 25  1  0  0  0  0
  1 26  1  0  0  0  0
  1 27  1  0  0  0  0
  2 23  1  0  0  0  0
  2  3  2  0  0  0  0
  3  4  1  0  0  0  0
  3 28  1  0  0  0  0
  4 21  2  0  0  0  0
  4  5  1  0  0  0  0
  5  6  2  0  0  0  0
  6  7  1  0  0  0  0
  6 29  1  0  0  0  0
  7  8  1  0  0  0  0
  7 21  1  0  0  0  0
  8  9  1  0  0  0  0
  8 30  1  0  0  0  0
  8 31  1  0  0  0  0
  9 10  1  0  0  0  0
  9 11  1  0  0  0  0
  9 32  1  0  0  0  0
 10 33  1  0  0  0  0
 11 12  1  0  0  0  0
 11 34  1  0  0  0  0
 11 35  1  0  0  0  0
 12 19  1  0  0  0  0
 12 13  1  0  0  0  0
 13 14  2  0  0  0  0
 13 36  1  0  0  0  0
 14 15  1  0  0  0  0
 15 16  1  0  0  0  0
 15 17  2  0  0  0  0
 16 37  1  0  0  0  0
 16 38  1  0  0  0  0
 16 39  1  0  0  0  0
 17 18  1  0  0  0  0
 17 19  1  0  0  0  0
 18 40  1  0  0  0  0
 18 41  1  0  0  0  0
 18 42  1  0  0  0  0
 19 20  2  0  0  0  0
 21 22  1  0  0  0  0
 22 23  2  0  0  0  0
 22 43  1  0  0  0  0
 23 24  1  0  0  0  0
 24 44  1  0  0  0  0
 24 45  1  0  0  0  0
 24 46  1  0  0  0  0
M  END
> <s_m_source_file>
AV-unprocessed.smi

> <i_m_source_file_index>
2410

> <i_lp_mmshare_version>
43012

> <i_f3d_flags>
0

> <s_epik_input>
W0NIM11jKFtjSF0xKWMoW0NIM10pW2NIXWMoYzEyKW4oW2NIXW4yKVtDSDJdW0NASF0oW09IXSlbQ0gyXW4zW2NIXW5jKFtDSDNdKWMoW0NIM10pYzM9Tw==

> <s_epik_cmdline>
J2VwaWtfcHl0aG9uJywgJy1waCcsICc3LjAnLCAnLXRuJywgJzgnLCAnLW1hJywgJzIwMCcsICctbWV0YWxfYmluZGluZycsICctaW1hZScsICc8aW5maWxlLm1hZT4nLCAnLW9tYWUnLCAnPG91dGZpbGUubWFlPic=

> <r_lp_tautomer_probability>
1

> <r_epik_Ionization_Penalty>
0.113377

> <r_epik_Ionization_Penalty_Charging>
7.56033e-08

> <r_epik_Ionization_Penalty_Neutral>
0.113377

> <r_epik_State_Penalty>
0.103025

> <r_epik_Charging_Adjusted_Penalty>
0.103025

> <i_epik_Tot_Q>
0

> <i_epik_Tot_abs_Q>
0

> <r_epik_Metal_State_Penalty>
0.0863476

> <b_epik_Metal_Only>
0

> <s_lp_Force_Field>
OPLS_2005

> <r_lp_Energy>
18.3765

> <b_lp_Chiralities_Consistent>
1

> <s_lp_Variant>
AV-unprocessed.smi:2410-2

> <Gold.Version>
5.8.1

> <Gold.Id.Protein>
6NUR|6NUR_protein|mol2

> <Gold.PLP.Fitness>
49.9000

> <Gold.PLP.PLP>
-45.0051

> <Gold.PLP.part.hbond>
-2.0000

> <Gold.PLP.part.metal>
0.0000

> <Gold.PLP.part.buried>
-5.9001

> <Gold.PLP.part.nonpolar>
-37.8824

> <Gold.PLP.part.repulsive>
0.2335

> <Gold.PLP.ligand.clash>
0.0000

> <Gold.PLP.ligand.torsion>
0.5955

> <Gold.PLP.Chemscore.Hbond>
1.9913

> <Gold.PLP.Chemscore.CHOScore>
0.0000

> <Gold.PLP.Chemscore.Metal>
0.0000

> <Gold.Chemscore.Hbonds>
donor molecule, donor type, donor heavy atom, donor atom, acceptor molecule, acceptor atom, score
      L1  H    10    33       P1  8028  1.00
      P1  H  7997  8010       L1     5  1.00

> <Gold.PLP.Chemscore.Internal.Correction>
0.1122

> <Gold.Rescore>
     Score         DG    S(hbond)    S(metal)    S(lipo)     H(rot)  DE(clash)    DE(int)     intcor
     14.15     -16.64       1.46        0.00     105.17       2.35       0.30       2.19       ----

> <Gold.Chemscore.Fitness>
14.1512

> <Gold.Chemscore.DG>
-16.6386

> <Gold.Chemscore.ZeroCoef>
-5.4800

> <Gold.Chemscore.Hbond>
1.4565

> <Gold.Chemscore.Metal>
0.0000

> <Gold.Chemscore.Lipo>
105.1666

> <Gold.Chemscore.Internal_Hbond>
0.0000

> <Gold.Chemscore.DEClash>
0.2969

> <Gold.Chemscore.DEInternal>
2.1906

> <Gold.Chemscore.Rot>
2.3479

> <Gold.Chemscore.Internal.Correction>
   9.000000E+99

> <Gold.Chemscore.Hbonds>
donor molecule, donor type, donor heavy atom, donor atom, acceptor molecule, acceptor atom, score
      L1  H    10    33       P1  8028  0.91
      P1  H  7997  8010       L1     5  0.29

> <Gold.Chemscore.Hbond.Weighted>
-4.8647

> <Gold.Chemscore.Metal.Weighted>
-0.0000

> <Gold.Chemscore.Lipo.Weighted>
-12.3045

> <Gold.Chemscore.Internal_Hbond.Weighted>
0.0000

> <Gold.Chemscore.DEClash.Weighted>
0.2969

> <Gold.Chemscore.DEInternal.Weighted>
2.1906

> <Gold.Chemscore.Rot.Weighted>
6.0106

> <Gold.Chemscore.Internal.Correction.Weighted>
   9.000000E+99

> <Gold.Protein.RotatedTorsions>
[ 6907 6896 6895 6894 ] final -133.56 input  -60.11 | X-H torsion
[ 7974 7965 7964 7962 ] final  141.02 input  175.53 | X-H torsion
[ 8008 7997 7996 7995 ] final   55.14 input   59.86 | X-H torsion
[ 10167 10162 10161 10158 ] final   59.72 input  -65.29 | X-H torsion
[ 10718 10713 10712 10709 ] final  174.26 input   66.30 | X-H torsion
[ 10763 10752 10751 10750 ] final  -55.27 input  -60.55 | X-H torsion
[ 11005 11000 10999 10996 ] final  -89.52 input  -57.11 | X-H torsion

> <Gold.Protein.ActiveResidues>
 VAL166  LYS551  ARG553  GLY616  TRP617  ASP618  TYR619  PRO620  LYS621  CYS622 
 ASP623  PHE694  ASN695  SER759  ASP760  ASP761  ALA762  ILE779  LEU786  VAL792 
 PHE793  MET794  SER795  GLU796  ALA797  LYS798  CYS799  TRP800  GLU811  SER814 

> <Gold.Protein.RotatedAtoms>
  150.9755  133.6300  159.2730 H   0  0  0  0  0  0  0  0  0  0  0  0  # atno 6907 bound_to 6896
  151.3573  135.0896  159.9432 H   0  0  0  0  0  0  0  0  0  0  0  0  # atno 6908 bound_to 6896
  152.5197  133.9335  159.7646 H   0  0  0  0  0  0  0  0  0  0  0  0  # atno 6909 bound_to 6896
  144.9134  139.5263  143.5698 H   0  0  0  0  0  0  0  0  0  0  0  0  # atno 7974 bound_to 7965
  155.4963  140.3473  155.4363 H   0  0  0  0  0  0  0  0  0  0  0  0  # atno 8008 bound_to 7997
  156.0943  140.1419  156.9579 H   0  0  0  0  0  0  0  0  0  0  0  0  # atno 8009 bound_to 7997
  154.4654  140.0919  156.6983 H   0  0  0  0  0  0  0  0  0  0  0  0  # atno 8010 bound_to 7997
  140.1734  144.4254  150.6650 H   0  0  0  0  0  0  0  0  0  0  0  0  # atno 10167 bound_to 10162
  156.9522  131.0034  151.2946 H   0  0  0  0  0  0  0  0  0  0  0  0  # atno 10718 bound_to 10713
  154.1881  135.6432  153.5052 H   0  0  0  0  0  0  0  0  0  0  0  0  # atno 10763 bound_to 10752
  153.0042  135.5422  154.6444 H   0  0  0  0  0  0  0  0  0  0  0  0  # atno 10764 bound_to 10752
  154.5826  135.2926  155.0690 H   0  0  0  0  0  0  0  0  0  0  0  0  # atno 10765 bound_to 10752
  141.1583  133.7635  156.9607 H   0  0  0  0  0  0  0  0  0  0  0  0  # atno 11005 bound_to 11000
  146.3170  139.7957  142.8976 LP  0  0  0  0  0  0  0  0  0  0  0  0  # atno 17320 bound_to 7965
  145.3417  141.0289  143.3389 LP  0  0  0  0  0  0  0  0  0  0  0  0  # atno 17321 bound_to 7965
  140.6567  143.2240  151.5952 LP  0  0  0  0  0  0  0  0  0  0  0  0  # atno 17342 bound_to 10162
  139.5328  144.2868  152.1185 LP  0  0  0  0  0  0  0  0  0  0  0  0  # atno 17343 bound_to 10162
  157.5714  130.8313  149.8397 LP  0  0  0  0  0  0  0  0  0  0  0  0  # atno 17370 bound_to 10713
  156.0358  130.3752  150.1565 LP  0  0  0  0  0  0  0  0  0  0  0  0  # atno 17371 bound_to 10713
  140.1195  134.9426  157.2182 LP  0  0  0  0  0  0  0  0  0  0  0  0  # atno 17394 bound_to 11000
  140.3090  134.3045  155.7271 LP  0  0  0  0  0  0  0  0  0  0  0  0  # atno 17395 bound_to 11000

$$$$
