AV-unprocessed.smi:1643|AV-procd|sdf|6574|dock3
  -GOLD-   22720 7263D 1   1.00000     0.00000
 Structure written by MMmdl.
 54 56  0  0  0  0  0  0  0  0  2 V2000
  146.1486  143.2316  153.9346 C   0  0  0  0  0  0  0  0  0  0  0  0
  145.8216  142.0084  154.7952 C   0  0  0  0  0  0  0  0  0  0  0  0
  144.8718  142.0873  155.5741 O   0  0  0  0  0  0  0  0  0  0  0  0
  146.5725  140.8863  154.6701 N   0  0  0  0  0  0  0  0  0  0  0  0
  146.2365  139.6545  155.3992 C   0  0  0  0  0  0  0  0  0  0  0  0
  147.0995  139.4665  156.6686 C   0  0  0  0  0  0  0  0  0  0  0  0
  148.2967  140.4335  156.8195 C   0  0  0  0  0  0  0  0  0  0  0  0
  149.3580  140.3113  155.7752 N   0  3  2  0  0  0  0  0  0  0  0  0
  150.2688  141.4881  155.7347 C   0  0  0  0  0  0  0  0  0  0  0  0
  150.8481  141.8512  157.1165 C   0  0  1  0  0  0  0  0  0  0  0  0
  151.8387  140.9017  157.4625 O   0  0  0  0  0  0  0  0  0  0  0  0
  151.4680  143.2617  157.1271 C   0  0  0  0  0  0  0  0  0  0  0  0
  151.4536  143.8605  158.4497 N   0  0  0  0  0  0  0  0  0  0  0  0
  150.7990  144.9730  158.8349 C   0  0  0  0  0  0  0  0  0  0  0  0
  150.9283  145.3460  160.1048 N   0  0  0  0  0  0  0  0  0  0  0  0
  151.7609  144.3587  160.6030 C   0  0  0  0  0  0  0  0  0  0  0  0
  152.2874  144.1700  161.8995 C   0  0  0  0  0  0  0  0  0  0  0  0
  153.1313  143.0734  162.1867 C   0  0  0  0  0  0  0  0  0  0  0  0
  153.6767  142.9101  163.5945 C   0  0  0  0  0  0  0  0  0  0  0  0
  153.4601  142.1435  161.1677 C   0  0  0  0  0  0  0  0  0  0  0  0
  154.3654  140.9581  161.4530 C   0  0  0  0  0  0  0  0  0  0  0  0
  152.9419  142.3164  159.8673 C   0  0  0  0  0  0  0  0  0  0  0  0
  152.1049  143.4126  159.5938 C   0  0  0  0  0  0  0  0  0  0  0  0
  148.8992  139.9069  154.4145 C   0  0  0  0  0  0  0  0  0  0  0  0
  147.7692  140.7838  153.8159 C   0  0  0  0  0  0  0  0  0  0  0  0
  146.2372  142.9586  152.8826 H   0  0  0  0  0  0  0  0  0  0  0  0
  147.0796  143.6945  154.2619 H   0  0  0  0  0  0  0  0  0  0  0  0
  145.3588  143.9794  154.0164 H   0  0  0  0  0  0  0  0  0  0  0  0
  145.1789  139.6134  155.6654 H   0  0  0  0  0  0  0  0  0  0  0  0
  146.3675  138.8033  154.7301 H   0  0  0  0  0  0  0  0  0  0  0  0
  146.4546  139.6025  157.5375 H   0  0  0  0  0  0  0  0  0  0  0  0
  147.4465  138.4343  156.7256 H   0  0  0  0  0  0  0  0  0  0  0  0
  147.9315  141.4606  156.8643 H   0  0  0  0  0  0  0  0  0  0  0  0
  148.7570  140.2458  157.7893 H   0  0  0  0  0  0  0  0  0  0  0  0
  151.0995  141.2947  155.0543 H   0  0  0  0  0  0  0  0  0  0  0  0
  149.7294  142.3394  155.3164 H   0  0  0  0  0  0  0  0  0  0  0  0
  150.0656  141.8185  157.8735 H   0  0  0  0  0  0  0  0  0  0  0  0
  152.6799  141.2191  157.1701 H   0  0  0  0  0  0  0  0  0  0  0  0
  152.4966  143.2335  156.7640 H   0  0  0  0  0  0  0  0  0  0  0  0
  150.9172  143.9202  156.4543 H   0  0  0  0  0  0  0  0  0  0  0  0
  150.1966  145.5439  158.1436 H   0  0  0  0  0  0  0  0  0  0  0  0
  152.0370  144.8784  162.6756 H   0  0  0  0  0  0  0  0  0  0  0  0
  153.3963  141.9395  164.0043 H   0  0  0  0  0  0  0  0  0  0  0  0
  153.2884  143.6784  164.2639 H   0  0  0  0  0  0  0  0  0  0  0  0
  154.7644  142.9850  163.5925 H   0  0  0  0  0  0  0  0  0  0  0  0
  154.5293  140.3580  160.5575 H   0  0  0  0  0  0  0  0  0  0  0  0
  153.9216  140.3126  162.2114 H   0  0  0  0  0  0  0  0  0  0  0  0
  155.3379  141.2964  161.8114 H   0  0  0  0  0  0  0  0  0  0  0  0
  153.1839  141.6152  159.0826 H   0  0  0  0  0  0  0  0  0  0  0  0
  149.7492  139.9062  153.7313 H   0  0  0  0  0  0  0  0  0  0  0  0
  148.5960  138.8607  154.4506 H   0  0  0  0  0  0  0  0  0  0  0  0
  147.4655  140.3772  152.8505 H   0  0  0  0  0  0  0  0  0  0  0  0
  148.2005  141.7624  153.6083 H   0  0  0  0  0  0  0  0  0  0  0  0
  149.9403  139.5418  156.0749 H   0  0  0  0  0  0  0  0  0  0  0  0
  1  2  1  0  0  0  0
  1 26  1  0  0  0  0
  1 27  1  0  0  0  0
  1 28  1  0  0  0  0
  2  3  2  0  0  0  0
  2  4  1  0  0  0  0
  4 25  1  0  0  0  0
  4  5  1  0  0  0  0
  5  6  1  0  0  0  0
  5 29  1  0  0  0  0
  5 30  1  0  0  0  0
  6  7  1  0  0  0  0
  6 31  1  0  0  0  0
  6 32  1  0  0  0  0
  7  8  1  0  0  0  0
  7 33  1  0  0  0  0
  7 34  1  0  0  0  0
  8  9  1  0  0  0  0
  8 24  1  0  0  0  0
  8 54  1  0  0  0  0
  9 10  1  0  0  0  0
  9 35  1  0  0  0  0
  9 36  1  0  0  0  0
 10 11  1  0  0  0  0
 10 12  1  0  0  0  0
 10 37  1  0  0  0  0
 11 38  1  0  0  0  0
 12 13  1  0  0  0  0
 12 39  1  0  0  0  0
 12 40  1  0  0  0  0
 13 23  1  0  0  0  0
 13 14  1  0  0  0  0
 14 15  2  0  0  0  0
 14 41  1  0  0  0  0
 15 16  1  0  0  0  0
 16 23  2  0  0  0  0
 16 17  1  0  0  0  0
 17 18  2  0  0  0  0
 17 42  1  0  0  0  0
 18 19  1  0  0  0  0
 18 20  1  0  0  0  0
 19 43  1  0  0  0  0
 19 44  1  0  0  0  0
 19 45  1  0  0  0  0
 20 21  1  0  0  0  0
 20 22  2  0  0  0  0
 21 46  1  0  0  0  0
 21 47  1  0  0  0  0
 21 48  1  0  0  0  0
 22 23  1  0  0  0  0
 22 49  1  0  0  0  0
 24 25  1  0  0  0  0
 24 50  1  0  0  0  0
 24 51  1  0  0  0  0
 25 52  1  0  0  0  0
 25 53  1  0  0  0  0
M  CHG  1   8   1
M  END
> <s_m_source_file>
AV-unprocessed.smi

> <i_m_source_file_index>
1643

> <i_lp_mmshare_version>
43012

> <i_f3d_flags>
0

> <s_epik_input>
W0NIM11DKD1PKU4xW0NIMl1bQ0gyXVtDSDJdTihbQ0gyXVtDSDJdMSlbQ0gyXVtDQEhdKFtPSF0pW0NIMl1uKFtjSF1uMiljKGMyMylbY0hdYyhbQ0gzXSljKFtjSF0zKVtDSDNd

> <s_epik_cmdline>
J2VwaWtfcHl0aG9uJywgJy1waCcsICc3LjAnLCAnLXRuJywgJzgnLCAnLW1hJywgJzIwMCcsICctbWV0YWxfYmluZGluZycsICctaW1hZScsICc8aW5maWxlLm1hZT4nLCAnLW9tYWUnLCAnPG91dGZpbGUubWFlPic=

> <r_epik_Ionization_Penalty>
0.189467

> <r_epik_Ionization_Penalty_Charging>
0.101761

> <r_epik_Ionization_Penalty_Neutral>
0.0877056

> <r_epik_State_Penalty>
0.170758

> <r_epik_Charging_Adjusted_Penalty>
0.272519

> <i_epik_Tot_Q>
1

> <i_epik_Tot_abs_Q>
1

> <r_epik_Metal_State_Penalty>
0.0948013

> <b_epik_Metal_Only>
0

> <s_lp_Force_Field>
OPLS_2005

> <r_lp_Energy>
48.7512

> <b_lp_Chiralities_Consistent>
1

> <s_lp_Variant>
AV-unprocessed.smi:1643-3

> <Gold.Version>
5.8.1

> <Gold.Id.Protein>
6NUR|6NUR_protein|mol2

> <Gold.PLP.Fitness>
58.4451

> <Gold.PLP.PLP>
-56.2588

> <Gold.PLP.part.hbond>
0.0000

> <Gold.PLP.part.metal>
0.0000

> <Gold.PLP.part.buried>
-5.5322

> <Gold.PLP.part.nonpolar>
-50.1502

> <Gold.PLP.part.repulsive>
0.4038

> <Gold.PLP.ligand.clash>
0.0000

> <Gold.PLP.ligand.torsion>
0.4522

> <Gold.PLP.Chemscore.Hbond>
0.0000

> <Gold.PLP.Chemscore.CHOScore>
1.0000

> <Gold.PLP.Chemscore.Metal>
0.0000

> <Gold.Chemscore.Hbonds>
donor molecule, donor type, donor heavy atom, donor atom, acceptor molecule, acceptor atom, score
      L1  C    14    41       P1  8028  0.01
      L1  C    14    41       P1  8029  0.97

> <Gold.PLP.Chemscore.Internal.Correction>
0.0908

> <Gold.Rescore>
     Score         DG    S(hbond)    S(metal)    S(lipo)     H(rot)  DE(clash)    DE(int)     intcor
     14.93     -16.32       0.00        0.00     138.96       2.12       0.12       1.27       ----

> <Gold.Chemscore.Fitness>
14.9267

> <Gold.Chemscore.DG>
-16.3164

> <Gold.Chemscore.ZeroCoef>
-5.4800

> <Gold.Chemscore.Hbond>
0.0000

> <Gold.Chemscore.Metal>
0.0000

> <Gold.Chemscore.Lipo>
138.9566

> <Gold.Chemscore.Internal_Hbond>
0.0000

> <Gold.Chemscore.DEClash>
0.1170

> <Gold.Chemscore.DEInternal>
1.2728

> <Gold.Chemscore.Rot>
2.1178

> <Gold.Chemscore.Internal.Correction>
   9.000000E+99

> <Gold.Chemscore.Hbond.Weighted>
-0.0000

> <Gold.Chemscore.Metal.Weighted>
-0.0000

> <Gold.Chemscore.Lipo.Weighted>
-16.2579

> <Gold.Chemscore.Internal_Hbond.Weighted>
0.0000

> <Gold.Chemscore.DEClash.Weighted>
0.1170

> <Gold.Chemscore.DEInternal.Weighted>
1.2728

> <Gold.Chemscore.Rot.Weighted>
5.4215

> <Gold.Chemscore.Internal.Correction.Weighted>
   9.000000E+99

> <Gold.Protein.RotatedTorsions>
[ 6907 6896 6895 6894 ] final  -62.44 input  -60.11 | X-H torsion
[ 7974 7965 7964 7962 ] final -113.92 input  175.53 | X-H torsion
[ 8008 7997 7996 7995 ] final -152.74 input   59.86 | X-H torsion
[ 10167 10162 10161 10158 ] final -176.10 input  -65.29 | X-H torsion
[ 10718 10713 10712 10709 ] final  -10.87 input   66.30 | X-H torsion
[ 10763 10752 10751 10750 ] final -122.08 input  -60.55 | X-H torsion
[ 11005 11000 10999 10996 ] final -179.06 input  -57.11 | X-H torsion

> <Gold.Protein.ActiveResidues>
 VAL166  LYS551  ARG553  GLY616  TRP617  ASP618  TYR619  PRO620  LYS621  CYS622 
 ASP623  PHE694  ASN695  SER759  ASP760  ASP761  ALA762  ILE779  LEU786  VAL792 
 PHE793  MET794  SER795  GLU796  ALA797  LYS798  CYS799  TRP800  GLU811  SER814 

> <Gold.Protein.RotatedAtoms>
  150.7715  134.6569  159.6318 H   0  0  0  0  0  0  0  0  0  0  0  0  # atno 6907 bound_to 6896
  152.3769  134.6646  160.0165 H   0  0  0  0  0  0  0  0  0  0  0  0  # atno 6908 bound_to 6896
  151.6988  133.3274  159.3297 H   0  0  0  0  0  0  0  0  0  0  0  0  # atno 6909 bound_to 6896
  145.1263  140.8699  143.3784 H   0  0  0  0  0  0  0  0  0  0  0  0  # atno 7974 bound_to 7965
  155.6599  140.0721  157.2558 H   0  0  0  0  0  0  0  0  0  0  0  0  # atno 8008 bound_to 7997
  154.4144  140.1718  156.1815 H   0  0  0  0  0  0  0  0  0  0  0  0  # atno 8009 bound_to 7997
  155.9706  140.3362  155.6575 H   0  0  0  0  0  0  0  0  0  0  0  0  # atno 8010 bound_to 7997
  139.5547  144.2020  152.1138 H   0  0  0  0  0  0  0  0  0  0  0  0  # atno 10167 bound_to 10162
  156.6672  130.4999  149.6012 H   0  0  0  0  0  0  0  0  0  0  0  0  # atno 10718 bound_to 10713
  154.8682  135.4145  154.2724 H   0  0  0  0  0  0  0  0  0  0  0  0  # atno 10763 bound_to 10752
  153.3632  135.7004  153.6702 H   0  0  0  0  0  0  0  0  0  0  0  0  # atno 10764 bound_to 10752
  153.5594  135.3613  155.2765 H   0  0  0  0  0  0  0  0  0  0  0  0  # atno 10765 bound_to 10752
  140.4229  134.6589  157.4673 H   0  0  0  0  0  0  0  0  0  0  0  0  # atno 11005 bound_to 11000
  145.0684  139.3050  143.5844 LP  0  0  0  0  0  0  0  0  0  0  0  0  # atno 17320 bound_to 7965
  146.3517  140.0150  142.8663 LP  0  0  0  0  0  0  0  0  0  0  0  0  # atno 17321 bound_to 7965
  140.1522  144.5104  150.6681 LP  0  0  0  0  0  0  0  0  0  0  0  0  # atno 17342 bound_to 10162
  140.6817  143.2330  151.5366 LP  0  0  0  0  0  0  0  0  0  0  0  0  # atno 17343 bound_to 10162
  156.1966  130.6593  151.1121 LP  0  0  0  0  0  0  0  0  0  0  0  0  # atno 17370 bound_to 10713
  157.7090  131.0743  150.6569 LP  0  0  0  0  0  0  0  0  0  0  0  0  # atno 17371 bound_to 10713
  140.0188  134.6579  155.9270 LP  0  0  0  0  0  0  0  0  0  0  0  0  # atno 17394 bound_to 11000
  141.1777  133.6542  156.4893 LP  0  0  0  0  0  0  0  0  0  0  0  0  # atno 17395 bound_to 11000

$$$$
