AV-unprocessed.smi:749|AV-procd|sdf|3586|dock6
  -GOLD-   22720 0583D 1   1.00000     0.00000
 Structure written by MMmdl.
 42 43  0  0  0  0  0  0  0  0  2 V2000
  153.6265  142.2290  159.6147 C   0  0  0  0  0  0  0  0  0  0  0  0
  152.7296  141.7977  158.5411 N   0  0  0  0  0  0  0  0  0  0  0  0
  152.8738  140.3883  158.1446 C   0  0  0  0  0  0  0  0  0  0  0  0
  152.2131  140.0422  156.7995 C   0  0  1  0  0  0  0  0  0  0  0  0
  152.1425  138.5923  156.6449 N   0  0  0  0  0  0  0  0  0  0  0  0
  151.5146  137.9211  155.6594 C   0  0  0  0  0  0  0  0  0  0  0  0
  150.9276  138.5581  154.7854 O   0  0  0  0  0  0  0  0  0  0  0  0
  151.5635  136.5625  155.6851 N   0  5  0  0  0  0  0  0  0  0  0  0
  150.4688  135.7927  155.5556 C   0  0  0  0  0  0  0  0  0  0  0  0
  150.4563  134.4108  155.2243 C   0  0  0  0  0  0  0  0  0  0  0  0
  149.1249  134.0962  155.2206 C   0  0  0  0  0  0  0  0  0  0  0  0
  148.3629  132.8254  154.9695 C   0  0  0  0  0  0  0  0  0  0  0  0
  147.4799  132.4676  156.1818 C   0  0  0  0  0  0  0  0  0  0  0  0
  149.3430  131.6635  154.7212 C   0  0  0  0  0  0  0  0  0  0  0  0
  147.4526  132.9928  153.7384 C   0  0  0  0  0  0  0  0  0  0  0  0
  148.3880  135.2035  155.5153 O   0  0  0  0  0  0  0  0  0  0  0  0
  149.2530  136.2839  155.7213 N   0  0  0  0  0  0  0  0  0  0  0  0
  150.8149  140.6652  156.7388 C   0  0  0  0  0  0  0  0  0  0  0  0
  150.9016  142.1892  156.8834 C   0  0  0  0  0  0  0  0  0  0  0  0
  151.8059  142.6513  158.0367 C   0  0  0  0  0  0  0  0  0  0  0  0
  151.6791  143.8060  158.4457 O   0  0  0  0  0  0  0  0  0  0  0  0
  154.2945  143.0149  159.2605 H   0  0  0  0  0  0  0  0  0  0  0  0
  154.2448  141.4118  159.9884 H   0  0  0  0  0  0  0  0  0  0  0  0
  153.0594  142.6183  160.4615 H   0  0  0  0  0  0  0  0  0  0  0  0
  153.9308  140.1213  158.1004 H   0  0  0  0  0  0  0  0  0  0  0  0
  152.4335  139.7822  158.9382 H   0  0  0  0  0  0  0  0  0  0  0  0
  152.8254  140.4621  155.9988 H   0  0  0  0  0  0  0  0  0  0  0  0
  152.6102  138.0412  157.3497 H   0  0  0  0  0  0  0  0  0  0  0  0
  151.2930  133.7569  155.0288 H   0  0  0  0  0  0  0  0  0  0  0  0
  146.9216  131.5467  156.0103 H   0  0  0  0  0  0  0  0  0  0  0  0
  146.7543  133.2545  156.3922 H   0  0  0  0  0  0  0  0  0  0  0  0
  148.0791  132.3232  157.0818 H   0  0  0  0  0  0  0  0  0  0  0  0
  150.0021  131.5130  155.5768 H   0  0  0  0  0  0  0  0  0  0  0  0
  149.9731  131.8512  153.8511 H   0  0  0  0  0  0  0  0  0  0  0  0
  148.8143  130.7262  154.5445 H   0  0  0  0  0  0  0  0  0  0  0  0
  146.8788  132.0869  153.5404 H   0  0  0  0  0  0  0  0  0  0  0  0
  148.0310  133.2144  152.8407 H   0  0  0  0  0  0  0  0  0  0  0  0
  146.7423  133.8084  153.8799 H   0  0  0  0  0  0  0  0  0  0  0  0
  150.3283  140.4172  155.7948 H   0  0  0  0  0  0  0  0  0  0  0  0
  150.1857  140.2528  157.5291 H   0  0  0  0  0  0  0  0  0  0  0  0
  151.2983  142.6180  155.9625 H   0  0  0  0  0  0  0  0  0  0  0  0
  149.9026  142.6063  157.0154 H   0  0  0  0  0  0  0  0  0  0  0  0
  1  2  1  0  0  0  0
  1 22  1  0  0  0  0
  1 23  1  0  0  0  0
  1 24  1  0  0  0  0
  2 20  1  0  0  0  0
  2  3  1  0  0  0  0
  3  4  1  0  0  0  0
  3 25  1  0  0  0  0
  3 26  1  0  0  0  0
  4  5  1  0  0  0  0
  4 18  1  0  0  0  0
  4 27  1  0  0  0  0
  5  6  1  0  0  0  0
  5 28  1  0  0  0  0
  6  7  2  0  0  0  0
  6  8  1  0  0  0  0
  8  9  1  0  0  0  0
  9 17  2  0  0  0  0
  9 10  1  0  0  0  0
 10 11  2  0  0  0  0
 10 29  1  0  0  0  0
 11 12  1  0  0  0  0
 11 16  1  0  0  0  0
 12 13  1  0  0  0  0
 12 14  1  0  0  0  0
 12 15  1  0  0  0  0
 13 30  1  0  0  0  0
 13 31  1  0  0  0  0
 13 32  1  0  0  0  0
 14 33  1  0  0  0  0
 14 34  1  0  0  0  0
 14 35  1  0  0  0  0
 15 36  1  0  0  0  0
 15 37  1  0  0  0  0
 15 38  1  0  0  0  0
 16 17  1  0  0  0  0
 18 19  1  0  0  0  0
 18 39  1  0  0  0  0
 18 40  1  0  0  0  0
 19 20  1  0  0  0  0
 19 41  1  0  0  0  0
 19 42  1  0  0  0  0
 20 21  2  0  0  0  0
M  CHG  1   8  -1
M  END
> <s_m_source_file>
AV-unprocessed.smi

> <i_m_source_file_index>
749

> <i_lp_mmshare_version>
43012

> <i_f3d_flags>
0

> <s_epik_input>
Tz1DMVtDSDJdW0NIMl1bQ0BASF0oW0NIMl1OMVtDSDNdKVtOSF1DKD1PKVtOSF1jMltjSF1jKG9uMilDKFtDSDNdKShbQ0gzXSlbQ0gzXQ==

> <s_epik_cmdline>
J2VwaWtfcHl0aG9uJywgJy1waCcsICc3LjAnLCAnLXRuJywgJzgnLCAnLW1hJywgJzIwMCcsICctbWV0YWxfYmluZGluZycsICctaW1hZScsICc8aW5maWxlLm1hZT4nLCAnLW9tYWUnLCAnPG91dGZpbGUubWFlPic=

> <r_lp_tautomer_probability>
1

> <r_epik_Ionization_Penalty>
6.47858

> <r_epik_Ionization_Penalty_Charging>
6.47844

> <r_epik_Ionization_Penalty_Neutral>
0.000138814

> <r_epik_State_Penalty>
6.47843

> <r_epik_Charging_Adjusted_Penalty>
12.9569

> <i_epik_Tot_Q>
-1

> <i_epik_Tot_abs_Q>
1

> <r_epik_Metal_State_Penalty>
2.40644

> <b_epik_Metal_Only>
1

> <s_lp_Force_Field>
OPLS_2005

> <r_lp_Energy>
10.0232

> <b_lp_Chiralities_Consistent>
1

> <s_lp_Variant>
AV-unprocessed.smi:749-3

> <Gold.Version>
5.8.1

> <Gold.Id.Protein>
6NUR|6NUR_protein|mol2

> <Gold.PLP.Fitness>
37.6877

> <Gold.PLP.PLP>
-32.7977

> <Gold.PLP.part.hbond>
-1.0000

> <Gold.PLP.part.metal>
0.0000

> <Gold.PLP.part.buried>
-5.4012

> <Gold.PLP.part.nonpolar>
-26.7013

> <Gold.PLP.part.repulsive>
1.6625

> <Gold.PLP.ligand.clash>
0.0000

> <Gold.PLP.ligand.torsion>
0.5738

> <Gold.PLP.Chemscore.Hbond>
2.0000

> <Gold.PLP.Chemscore.CHOScore>
0.0000

> <Gold.PLP.Chemscore.Metal>
0.0000

> <Gold.Chemscore.Hbonds>
donor molecule, donor type, donor heavy atom, donor atom, acceptor molecule, acceptor atom, score
      P1  H 10752 10764       L1     8  2.00

> <Gold.PLP.Chemscore.Internal.Correction>
0.0375

> <Gold.Rescore>
     Score         DG    S(hbond)    S(metal)    S(lipo)     H(rot)  DE(clash)    DE(int)     intcor
     10.48     -12.21       0.83        0.00      60.45       1.22       0.00       1.73       ----

> <Gold.Chemscore.Fitness>
10.4780

> <Gold.Chemscore.DG>
-12.2084

> <Gold.Chemscore.ZeroCoef>
-5.4800

> <Gold.Chemscore.Hbond>
0.8319

> <Gold.Chemscore.Metal>
0.0000

> <Gold.Chemscore.Lipo>
60.4503

> <Gold.Chemscore.Internal_Hbond>
0.0000

> <Gold.Chemscore.DEClash>
0.0025

> <Gold.Chemscore.DEInternal>
1.7279

> <Gold.Chemscore.Rot>
1.2198

> <Gold.Chemscore.Internal.Correction>
   9.000000E+99

> <Gold.Chemscore.Hbonds>
donor molecule, donor type, donor heavy atom, donor atom, acceptor molecule, acceptor atom, score
      P1  H 10752 10764       L1     8  0.49

> <Gold.Chemscore.Hbond.Weighted>
-2.7785

> <Gold.Chemscore.Metal.Weighted>
-0.0000

> <Gold.Chemscore.Lipo.Weighted>
-7.0727

> <Gold.Chemscore.Internal_Hbond.Weighted>
0.0000

> <Gold.Chemscore.DEClash.Weighted>
0.0025

> <Gold.Chemscore.DEInternal.Weighted>
1.7279

> <Gold.Chemscore.Rot.Weighted>
3.1228

> <Gold.Chemscore.Internal.Correction.Weighted>
   9.000000E+99

> <Gold.Protein.RotatedTorsions>
[ 6907 6896 6895 6894 ] final  -34.22 input  -60.11 | X-H torsion
[ 7974 7965 7964 7962 ] final  159.76 input  175.53 | X-H torsion
[ 8008 7997 7996 7995 ] final   99.43 input   59.86 | X-H torsion
[ 10167 10162 10161 10158 ] final  -36.54 input  -65.29 | X-H torsion
[ 10718 10713 10712 10709 ] final -144.79 input   66.30 | X-H torsion
[ 10763 10752 10751 10750 ] final  -42.47 input  -60.55 | X-H torsion
[ 11005 11000 10999 10996 ] final  -83.99 input  -57.11 | X-H torsion

> <Gold.Protein.ActiveResidues>
 VAL166  LYS551  ARG553  GLY616  TRP617  ASP618  TYR619  PRO620  LYS621  CYS622 
 ASP623  PHE694  ASN695  SER759  ASP760  ASP761  ALA762  ILE779  LEU786  VAL792 
 PHE793  MET794  SER795  GLU796  ALA797  LYS798  CYS799  TRP800  GLU811  SER814 

> <Gold.Protein.RotatedAtoms>
  151.0555  134.9701  159.8233 H   0  0  0  0  0  0  0  0  0  0  0  0  # atno 6907 bound_to 6896
  152.5387  134.2484  159.8899 H   0  0  0  0  0  0  0  0  0  0  0  0  # atno 6908 bound_to 6896
  151.2501  133.4311  159.2645 H   0  0  0  0  0  0  0  0  0  0  0  0  # atno 6909 bound_to 6896
  144.7773  139.7662  143.6274 H   0  0  0  0  0  0  0  0  0  0  0  0  # atno 7974 bound_to 7965
  156.1104  140.3229  155.8065 H   0  0  0  0  0  0  0  0  0  0  0  0  # atno 8008 bound_to 7997
  155.4682  140.0544  157.3000 H   0  0  0  0  0  0  0  0  0  0  0  0  # atno 8009 bound_to 7997
  154.4756  140.2031  155.9900 H   0  0  0  0  0  0  0  0  0  0  0  0  # atno 8010 bound_to 7997
  140.7140  143.3402  151.2375 H   0  0  0  0  0  0  0  0  0  0  0  0  # atno 10167 bound_to 10162
  156.3745  130.7805  151.1990 H   0  0  0  0  0  0  0  0  0  0  0  0  # atno 10718 bound_to 10713
  153.9796  135.6718  153.4749 H   0  0  0  0  0  0  0  0  0  0  0  0  # atno 10763 bound_to 10752
  153.0754  135.4951  154.8391 H   0  0  0  0  0  0  0  0  0  0  0  0  # atno 10764 bound_to 10752
  154.7172  135.3109  154.9066 H   0  0  0  0  0  0  0  0  0  0  0  0  # atno 10765 bound_to 10752
  141.1654  133.7322  156.8801 H   0  0  0  0  0  0  0  0  0  0  0  0  # atno 11005 bound_to 11000
  146.1960  139.5227  142.9774 LP  0  0  0  0  0  0  0  0  0  0  0  0  # atno 17320 bound_to 7965
  145.6150  141.0333  143.1946 LP  0  0  0  0  0  0  0  0  0  0  0  0  # atno 17321 bound_to 7965
  139.6907  143.9697  152.2857 LP  0  0  0  0  0  0  0  0  0  0  0  0  # atno 17342 bound_to 10162
  139.9358  144.6713  150.8317 LP  0  0  0  0  0  0  0  0  0  0  0  0  # atno 17343 bound_to 10162
  157.7487  131.0362  150.4400 LP  0  0  0  0  0  0  0  0  0  0  0  0  # atno 17370 bound_to 10713
  156.4633  130.4037  149.6562 LP  0  0  0  0  0  0  0  0  0  0  0  0  # atno 17371 bound_to 10713
  140.1721  134.9093  157.2845 LP  0  0  0  0  0  0  0  0  0  0  0  0  # atno 17394 bound_to 11000
  140.2491  134.3705  155.7449 LP  0  0  0  0  0  0  0  0  0  0  0  0  # atno 17395 bound_to 11000

$$$$
