AV-unprocessed.smi:3063|AV-procd|sdf|11685|dock7
  -GOLD-   2272017 93D 1   1.00000     0.00000
 Structure written by MMmdl.
 44 45  0  0  0  0  0  0  0  0  1 V2000
  151.2538  141.4133  158.0172 C   0  0  0  0  0  0  0  0  0  0  0  0
  151.9046  140.3054  157.1863 C   0  0  0  0  0  0  0  0  0  0  0  0
  152.7959  139.6357  157.7087 O   0  0  0  0  0  0  0  0  0  0  0  0
  151.4984  140.1099  155.9083 N   0  0  0  0  0  0  0  0  0  0  0  0
  150.3643  140.8522  155.3378 C   0  0  0  0  0  0  0  0  0  0  0  0
  149.0314  140.1152  155.5853 C   0  0  0  0  0  0  0  0  0  0  0  0
  148.9995  138.6916  154.9888 C   0  0  0  0  0  0  0  0  0  0  0  0
  150.0070  137.8173  155.6206 N   0  0  0  0  0  0  0  0  0  0  0  0
  149.8188  137.1131  156.7676 C   0  0  0  0  0  0  0  0  0  0  0  0
  150.7360  136.5812  157.3941 O   0  0  0  0  0  0  0  0  0  0  0  0
  148.5380  137.0262  157.1677 N   0  0  0  0  0  0  0  0  0  0  0  0
  148.0438  136.2596  158.3102 C   0  0  2  0  0  0  0  0  0  0  0  0
  146.5215  136.4423  158.4143 C   0  0  0  0  0  0  0  0  0  0  0  0
  148.7977  136.6198  159.6124 C   0  0  0  0  0  0  0  0  0  0  0  0
  148.0933  136.2330  160.8230 N   0  0  0  0  0  0  0  0  0  0  0  0
  147.7758  134.9629  161.2514 C   0  0  0  0  0  0  0  0  0  0  0  0
  147.1139  135.0846  162.4388 C   0  0  0  0  0  0  0  0  0  0  0  0
  147.0677  136.4902  162.6547 C   0  0  0  0  0  0  0  0  0  0  0  0
  147.6504  137.1754  161.6837 N   0  0  0  0  0  0  0  0  0  0  0  0
  151.2936  137.7923  154.9006 C   0  0  0  0  0  0  0  0  0  0  0  0
  152.0906  139.1204  154.9914 C   0  0  0  0  0  0  0  0  0  0  0  0
  151.2594  142.3613  157.4792 H   0  0  0  0  0  0  0  0  0  0  0  0
  151.7974  141.5609  158.9512 H   0  0  0  0  0  0  0  0  0  0  0  0
  150.2248  141.1530  158.2661 H   0  0  0  0  0  0  0  0  0  0  0  0
  150.3101  141.8611  155.7497 H   0  0  0  0  0  0  0  0  0  0  0  0
  150.5040  140.9954  154.2657 H   0  0  0  0  0  0  0  0  0  0  0  0
  148.8243  140.0747  156.6552 H   0  0  0  0  0  0  0  0  0  0  0  0
  148.2215  140.6994  155.1476 H   0  0  0  0  0  0  0  0  0  0  0  0
  147.9970  138.2706  155.0743 H   0  0  0  0  0  0  0  0  0  0  0  0
  149.1787  138.7523  153.9145 H   0  0  0  0  0  0  0  0  0  0  0  0
  147.8426  137.4988  156.6086 H   0  0  0  0  0  0  0  0  0  0  0  0
  148.2251  135.2026  158.1075 H   0  0  0  0  0  0  0  0  0  0  0  0
  146.1199  135.8999  159.2707 H   0  0  0  0  0  0  0  0  0  0  0  0
  146.0212  136.0641  157.5225 H   0  0  0  0  0  0  0  0  0  0  0  0
  146.2459  137.4916  158.5244 H   0  0  0  0  0  0  0  0  0  0  0  0
  149.7769  136.1387  159.6155 H   0  0  0  0  0  0  0  0  0  0  0  0
  148.9917  137.6922  159.6580 H   0  0  0  0  0  0  0  0  0  0  0  0
  148.0491  134.0912  160.6784 H   0  0  0  0  0  0  0  0  0  0  0  0
  146.7209  134.2908  163.0563 H   0  0  0  0  0  0  0  0  0  0  0  0
  146.6295  137.0291  163.4814 H   0  0  0  0  0  0  0  0  0  0  0  0
  151.9325  136.9795  155.2486 H   0  0  0  0  0  0  0  0  0  0  0  0
  151.1082  137.5526  153.8528 H   0  0  0  0  0  0  0  0  0  0  0  0
  152.1488  139.5587  153.9944 H   0  0  0  0  0  0  0  0  0  0  0  0
  153.1313  138.9089  155.2362 H   0  0  0  0  0  0  0  0  0  0  0  0
  1  2  1  0  0  0  0
  1 22  1  0  0  0  0
  1 23  1  0  0  0  0
  1 24  1  0  0  0  0
  2  3  2  0  0  0  0
  2  4  1  0  0  0  0
  4 21  1  0  0  0  0
  4  5  1  0  0  0  0
  5  6  1  0  0  0  0
  5 25  1  0  0  0  0
  5 26  1  0  0  0  0
  6  7  1  0  0  0  0
  6 27  1  0  0  0  0
  6 28  1  0  0  0  0
  7  8  1  0  0  0  0
  7 29  1  0  0  0  0
  7 30  1  0  0  0  0
  8  9  1  0  0  0  0
  8 20  1  0  0  0  0
  9 10  2  0  0  0  0
  9 11  1  0  0  0  0
 11 12  1  0  0  0  0
 11 31  1  0  0  0  0
 12 13  1  0  0  0  0
 12 14  1  0  0  0  0
 12 32  1  0  0  0  0
 13 33  1  0  0  0  0
 13 34  1  0  0  0  0
 13 35  1  0  0  0  0
 14 15  1  0  0  0  0
 14 36  1  0  0  0  0
 14 37  1  0  0  0  0
 15 19  1  0  0  0  0
 15 16  1  0  0  0  0
 16 17  2  0  0  0  0
 16 38  1  0  0  0  0
 17 18  1  0  0  0  0
 17 39  1  0  0  0  0
 18 19  2  0  0  0  0
 18 40  1  0  0  0  0
 20 21  1  0  0  0  0
 20 41  1  0  0  0  0
 20 42  1  0  0  0  0
 21 43  1  0  0  0  0
 21 44  1  0  0  0  0
M  END
> <s_m_source_file>
AV-unprocessed.smi

> <i_m_source_file_index>
3063

> <i_lp_mmshare_version>
43012

> <i_f3d_flags>
0

> <s_epik_input>
W0NIM11DKD1PKU4xW0NIMl1bQ0gyXVtDSDJdTihbQ0gyXVtDSDJdMSlDKD1PKVtOSF1bQ0BIXShbQ0gzXSlbQ0gyXW4yW2NIXVtjSF1bY0hdbjI=

> <s_epik_cmdline>
J2VwaWtfcHl0aG9uJywgJy1waCcsICc3LjAnLCAnLXRuJywgJzgnLCAnLW1hJywgJzIwMCcsICctbWV0YWxfYmluZGluZycsICctaW1hZScsICc8aW5maWxlLm1hZT4nLCAnLW9tYWUnLCAnPG91dGZpbGUubWFlPic=

> <r_lp_tautomer_probability>
1

> <r_epik_Ionization_Penalty>
6.19559e-05

> <r_epik_Ionization_Penalty_Charging>
0

> <r_epik_Ionization_Penalty_Neutral>
6.19559e-05

> <r_epik_State_Penalty>
-0

> <r_epik_Charging_Adjusted_Penalty>
0

> <i_epik_Tot_Q>
0

> <i_epik_Tot_abs_Q>
0

> <r_epik_Metal_State_Penalty>
-0

> <b_epik_Metal_Only>
0

> <s_lp_Force_Field>
OPLS_2005

> <r_lp_Energy>
38.8795

> <b_lp_Chiralities_Consistent>
1

> <s_lp_Variant>
AV-unprocessed.smi:3063-1

> <Gold.Version>
5.8.1

> <Gold.Id.Protein>
6NUR|6NUR_protein|mol2

> <Gold.PLP.Fitness>
43.3310

> <Gold.PLP.PLP>
-35.7578

> <Gold.PLP.part.hbond>
-3.0000

> <Gold.PLP.part.metal>
0.0000

> <Gold.PLP.part.buried>
-2.9670

> <Gold.PLP.part.nonpolar>
-29.4192

> <Gold.PLP.part.repulsive>
0.0000

> <Gold.PLP.ligand.clash>
0.0000

> <Gold.PLP.ligand.torsion>
0.3205

> <Gold.PLP.Chemscore.Hbond>
2.7200

> <Gold.PLP.Chemscore.CHOScore>
0.0000

> <Gold.PLP.Chemscore.Metal>
0.0000

> <Gold.Chemscore.Hbonds>
donor molecule, donor type, donor heavy atom, donor atom, acceptor molecule, acceptor atom, score
      P1  H  6931  6943       L1    19  1.00
      P1  H  6934  6947       L1    19  0.72
      P1  H  7997  8009       L1     3  1.00

> <Gold.PLP.Chemscore.Internal.Correction>
0.0543

> <Gold.Rescore>
     Score         DG    S(hbond)    S(metal)    S(lipo)     H(rot)  DE(clash)    DE(int)     intcor
     15.73     -17.49       2.21        0.00      70.98       1.44       0.10       1.66       ----

> <Gold.Chemscore.Fitness>
15.7251

> <Gold.Chemscore.DG>
-17.4901

> <Gold.Chemscore.ZeroCoef>
-5.4800

> <Gold.Chemscore.Hbond>
2.2107

> <Gold.Chemscore.Metal>
0.0000

> <Gold.Chemscore.Lipo>
70.9789

> <Gold.Chemscore.Internal_Hbond>
0.0000

> <Gold.Chemscore.DEClash>
0.1035

> <Gold.Chemscore.DEInternal>
1.6615

> <Gold.Chemscore.Rot>
1.4368

> <Gold.Chemscore.Internal.Correction>
   9.000000E+99

> <Gold.Chemscore.Hbonds>
donor molecule, donor type, donor heavy atom, donor atom, acceptor molecule, acceptor atom, score
      P1  H  6931  6943       L1    19  0.47
      P1  H  6934  6947       L1    19  0.65
      P1  H  7997  8009       L1     3  0.81

> <Gold.Chemscore.Hbond.Weighted>
-7.3838

> <Gold.Chemscore.Metal.Weighted>
-0.0000

> <Gold.Chemscore.Lipo.Weighted>
-8.3045

> <Gold.Chemscore.Internal_Hbond.Weighted>
0.0000

> <Gold.Chemscore.DEClash.Weighted>
0.1035

> <Gold.Chemscore.DEInternal.Weighted>
1.6615

> <Gold.Chemscore.Rot.Weighted>
3.6782

> <Gold.Chemscore.Internal.Correction.Weighted>
   9.000000E+99

> <Gold.Protein.RotatedTorsions>
[ 6907 6896 6895 6894 ] final  -50.72 input  -60.11 | X-H torsion
[ 7974 7965 7964 7962 ] final -114.33 input  175.53 | X-H torsion
[ 8008 7997 7996 7995 ] final  158.72 input   59.86 | X-H torsion
[ 10167 10162 10161 10158 ] final -120.08 input  -65.29 | X-H torsion
[ 10718 10713 10712 10709 ] final  147.80 input   66.30 | X-H torsion
[ 10763 10752 10751 10750 ] final   43.86 input  -60.55 | X-H torsion
[ 11005 11000 10999 10996 ] final -138.60 input  -57.11 | X-H torsion

> <Gold.Protein.ActiveResidues>
 VAL166  LYS551  ARG553  GLY616  TRP617  ASP618  TYR619  PRO620  LYS621  CYS622 
 ASP623  PHE694  ASN695  SER759  ASP760  ASP761  ALA762  ILE779  LEU786  VAL792 
 PHE793  MET794  SER795  GLU796  ALA797  LYS798  CYS799  TRP800  GLU811  SER814 

> <Gold.Protein.RotatedAtoms>
  150.8680  134.8047  159.7132 H   0  0  0  0  0  0  0  0  0  0  0  0  # atno 6907 bound_to 6896
  152.4694  134.4993  159.9729 H   0  0  0  0  0  0  0  0  0  0  0  0  # atno 6908 bound_to 6896
  151.5086  133.3451  159.2916 H   0  0  0  0  0  0  0  0  0  0  0  0  # atno 6909 bound_to 6896
  145.1215  140.8671  143.3811 H   0  0  0  0  0  0  0  0  0  0  0  0  # atno 7974 bound_to 7965
  156.2285  140.1851  156.7302 H   0  0  0  0  0  0  0  0  0  0  0  0  # atno 8008 bound_to 7997
  154.5982  140.0640  156.9360 H   0  0  0  0  0  0  0  0  0  0  0  0  # atno 8009 bound_to 7997
  155.2220  140.3308  155.4317 H   0  0  0  0  0  0  0  0  0  0  0  0  # atno 8010 bound_to 7997
  140.0397  143.5166  152.2136 H   0  0  0  0  0  0  0  0  0  0  0  0  # atno 10167 bound_to 10162
  157.3166  131.0897  151.1274 H   0  0  0  0  0  0  0  0  0  0  0  0  # atno 10718 bound_to 10713
  152.9852  135.6088  154.3181 H   0  0  0  0  0  0  0  0  0  0  0  0  # atno 10763 bound_to 10752
  154.2892  135.2775  155.2664 H   0  0  0  0  0  0  0  0  0  0  0  0  # atno 10764 bound_to 10752
  154.4967  135.5877  153.6557 H   0  0  0  0  0  0  0  0  0  0  0  0  # atno 10765 bound_to 10752
  140.8600  134.2181  157.4713 H   0  0  0  0  0  0  0  0  0  0  0  0  # atno 11005 bound_to 11000
  145.0735  139.3013  143.5820 LP  0  0  0  0  0  0  0  0  0  0  0  0  # atno 17320 bound_to 7965
  146.3520  140.0218  142.8658 LP  0  0  0  0  0  0  0  0  0  0  0  0  # atno 17321 bound_to 7965
  139.6022  144.7586  151.3145 LP  0  0  0  0  0  0  0  0  0  0  0  0  # atno 17342 bound_to 10162
  140.7266  143.6987  150.7863 LP  0  0  0  0  0  0  0  0  0  0  0  0  # atno 17343 bound_to 10162
  157.2576  130.6643  149.5959 LP  0  0  0  0  0  0  0  0  0  0  0  0  # atno 17370 bound_to 10713
  155.9682  130.4519  150.5752 LP  0  0  0  0  0  0  0  0  0  0  0  0  # atno 17371 bound_to 10713
  139.8706  134.9725  156.4774 LP  0  0  0  0  0  0  0  0  0  0  0  0  # atno 17394 bound_to 11000
  140.8694  133.8000  155.9348 LP  0  0  0  0  0  0  0  0  0  0  0  0  # atno 17395 bound_to 11000

$$$$
