AV-unprocessed.smi:54|AV-procd|sdf|545|dock5
  -GOLD-   2262016433D 1   1.00000     0.00000
 Structure written by MMmdl.
 43 45  0  0  0  0  0  0  0  0  2 V2000
  147.0955  135.7350  162.6108 C   0  0  0  0  0  0  0  0  0  0  0  0
  147.0551  135.2220  161.1618 C   0  0  0  0  0  0  0  0  0  0  0  0
  147.3285  133.7099  161.0978 C   0  0  0  0  0  0  0  0  0  0  0  0
  148.0522  135.9933  160.2850 C   0  0  0  0  0  0  0  0  0  0  0  0
  148.7460  136.8727  160.8000 O   0  0  0  0  0  0  0  0  0  0  0  0
  148.0885  135.6182  158.9865 N   0  0  0  0  0  0  0  0  0  0  0  0
  148.8843  136.1059  157.9423 C   0  0  0  0  0  0  0  0  0  0  0  0
  148.2236  136.8744  157.1100 N   0  0  0  0  0  0  0  0  0  0  0  0
  149.0192  137.3584  156.0894 C   0  0  0  0  0  0  0  0  0  0  0  0
  150.3524  137.1319  155.8857 C   0  0  0  0  0  0  0  0  0  0  0  0
  150.8142  137.7940  154.7545 N   0  0  0  0  0  0  0  0  0  0  0  0
  149.7119  138.4015  154.3192 C   0  0  0  0  0  0  0  0  0  0  0  0
  148.6029  138.1922  155.0586 N   0  0  0  0  0  0  0  0  0  0  0  0
  147.2283  138.7408  154.8405 C   0  0  2  0  0  0  0  0  0  0  0  0
  146.3708  137.6645  154.5880 O   0  0  0  0  0  0  0  0  0  0  0  0
  145.8040  137.7532  153.2807 C   0  0  2  0  0  0  0  0  0  0  0  0
  145.6639  136.3488  152.6736 C   0  0  0  0  0  0  0  0  0  0  0  0
  146.7550  135.5431  153.0626 O   0  0  0  0  0  0  0  0  0  0  0  0
  146.7790  138.6542  152.5205 C   0  0  1  0  0  0  0  0  0  0  0  0
  146.1933  139.2944  151.4029 O   0  0  0  0  0  0  0  0  0  0  0  0
  147.2302  139.6333  153.5951 C   0  0  1  0  0  0  0  0  0  0  0  0
  146.3485  140.7287  153.7581 O   0  0  0  0  0  0  0  0  0  0  0  0
  151.0409  136.2637  156.8685 C   0  0  0  0  0  0  0  0  0  0  0  0
  152.2401  136.0334  156.7270 O   0  0  0  0  0  0  0  0  0  0  0  0
  150.2550  135.7835  157.8781 N   0  5  0  0  0  0  0  0  0  0  0  0
  146.9834  139.2538  155.7714 H   0  0  0  0  0  0  0  0  0  0  0  0
  144.8348  138.2502  153.3536 H   0  0  0  0  0  0  0  0  0  0  0  0
  147.6376  138.0702  152.1851 H   0  0  0  0  0  0  0  0  0  0  0  0
  148.2275  140.0297  153.3978 H   0  0  0  0  0  0  0  0  0  0  0  0
  146.8965  136.8063  162.6571 H   0  0  0  0  0  0  0  0  0  0  0  0
  148.0669  135.5560  163.0739 H   0  0  0  0  0  0  0  0  0  0  0  0
  146.3424  135.2364  163.2213 H   0  0  0  0  0  0  0  0  0  0  0  0
  146.0494  135.3947  160.7749 H   0  0  0  0  0  0  0  0  0  0  0  0
  147.3131  133.3480  160.0689 H   0  0  0  0  0  0  0  0  0  0  0  0
  146.5713  133.1540  161.6511 H   0  0  0  0  0  0  0  0  0  0  0  0
  148.3001  133.4581  161.5252 H   0  0  0  0  0  0  0  0  0  0  0  0
  147.4855  134.8425  158.7558 H   0  0  0  0  0  0  0  0  0  0  0  0
  149.7162  139.0216  153.4358 H   0  0  0  0  0  0  0  0  0  0  0  0
  144.7559  135.8701  153.0417 H   0  0  0  0  0  0  0  0  0  0  0  0
  145.5906  136.3883  151.5867 H   0  0  0  0  0  0  0  0  0  0  0  0
  147.4252  135.6032  152.3992 H   0  0  0  0  0  0  0  0  0  0  0  0
  145.3420  139.6173  151.6566 H   0  0  0  0  0  0  0  0  0  0  0  0
  145.5664  140.5586  153.2554 H   0  0  0  0  0  0  0  0  0  0  0  0
  1  2  1  0  0  0  0
  1 30  1  0  0  0  0
  1 31  1  0  0  0  0
  1 32  1  0  0  0  0
  2  3  1  0  0  0  0
  2  4  1  0  0  0  0
  2 33  1  0  0  0  0
  3 34  1  0  0  0  0
  3 35  1  0  0  0  0
  3 36  1  0  0  0  0
  4  5  2  0  0  0  0
  4  6  1  0  0  0  0
  6 37  1  0  0  0  0
  6  7  1  0  0  0  0
  7 25  1  0  0  0  0
  7  8  2  0  0  0  0
  8  9  1  0  0  0  0
  9 13  1  0  0  0  0
  9 10  2  0  0  0  0
 10 11  1  0  0  0  0
 10 23  1  0  0  0  0
 11 12  2  0  0  0  0
 12 13  1  0  0  0  0
 12 38  1  0  0  0  0
 13 14  1  0  0  0  0
 14 26  1  0  0  0  0
 14 21  1  0  0  0  0
 14 15  1  0  0  0  0
 15 16  1  0  0  0  0
 16 27  1  0  0  0  0
 16 17  1  0  0  0  0
 16 19  1  0  0  0  0
 17 18  1  0  0  0  0
 17 39  1  0  0  0  0
 17 40  1  0  0  0  0
 18 41  1  0  0  0  0
 19 28  1  0  0  0  0
 19 20  1  0  0  0  0
 19 21  1  0  0  0  0
 20 42  1  0  0  0  0
 21 29  1  0  0  0  0
 21 22  1  0  0  0  0
 22 43  1  0  0  0  0
 23 24  2  0  0  0  0
 23 25  1  0  0  0  0
M  CHG  1  25  -1
M  END
> <s_m_source_file>
AV-unprocessed.smi

> <i_m_source_file_index>
54

> <i_lp_mmshare_version>
43012

> <i_f3d_flags>
0

> <s_epik_input>
W0NIM11bQ0hdKFtDSDNdKUMoPU8pW05IXWMobjEpW25IXWMoPU8pYyhjMTIpbltjSF1uMltDQEBIXTNPW0NASF0oW0NIMl1bT0hdKVtDQEBIXShbT0hdKVtDQEhdM1tPSF0=

> <s_epik_cmdline>
J2VwaWtfcHl0aG9uJywgJy1waCcsICc3LjAnLCAnLXRuJywgJzgnLCAnLW1hJywgJzIwMCcsICctbWV0YWxfYmluZGluZycsICctaW1hZScsICc8aW5maWxlLm1hZT4nLCAnLW9tYWUnLCAnPG91dGZpbGUubWFlPic=

> <r_lp_tautomer_probability>
0.85571

> <r_epik_Ionization_Penalty>
1.75936

> <r_epik_Ionization_Penalty_Charging>
4.55893e-11

> <r_epik_Ionization_Penalty_Neutral>
1.75936

> <r_epik_State_Penalty>
1.72072

> <r_epik_Charging_Adjusted_Penalty>
1.72072

> <i_epik_Tot_Q>
-1

> <i_epik_Tot_abs_Q>
1

> <r_epik_Metal_State_Penalty>
0.400338

> <b_epik_Metal_Only>
1

> <s_epik_Chemistry_Notes>
This compound contains an acetal/aminal-like group ( X-CH(R)-Y where X, Y are N, S, or O) that may be acid/base labile, releasing an aldehyde.

> <s_lp_Force_Field>
OPLS_2005

> <r_lp_Energy>
58.3918

> <b_lp_Chiralities_Consistent>
1

> <s_lp_Variant>
AV-unprocessed.smi:54-17

> <Gold.Version>
5.8.1

> <Gold.Id.Protein>
6NUR|6NUR_protein|mol2

> <Gold.PLP.Fitness>
51.5686

> <Gold.PLP.PLP>
-31.6041

> <Gold.PLP.part.hbond>
-7.0000

> <Gold.PLP.part.metal>
0.0000

> <Gold.PLP.part.buried>
-7.5862

> <Gold.PLP.part.nonpolar>
-19.5751

> <Gold.PLP.part.repulsive>
0.3104

> <Gold.PLP.ligand.clash>
0.0000

> <Gold.PLP.ligand.torsion>
0.9390

> <Gold.PLP.Chemscore.Hbond>
6.2632

> <Gold.PLP.Chemscore.CHOScore>
1.0000

> <Gold.PLP.Chemscore.Metal>
0.0000

> <Gold.Chemscore.Hbonds>
donor molecule, donor type, donor heavy atom, donor atom, acceptor molecule, acceptor atom, score
      L1  H    18    41       P1  7948  1.00
      L1  H    20    42       P1 10175  1.00
      L1  H    22    43       P1 10175  0.99
      P1  H  6896  6909       L1    25  1.32
      P1  H  6931  6943       L1     5  0.93
      P1  H 10752 10764       L1    24  1.00
      L1  C    12    38       P1  7957  1.00

> <Gold.PLP.Chemscore.Internal.Correction>
0.0529

> <Gold.Rescore>
     Score         DG    S(hbond)    S(metal)    S(lipo)     H(rot)  DE(clash)    DE(int)     intcor
     17.27     -18.26       5.29        0.00      46.26       4.02       0.00       0.98       ----

> <Gold.Chemscore.Fitness>
17.2741

> <Gold.Chemscore.DG>
-18.2582

> <Gold.Chemscore.ZeroCoef>
-5.4800

> <Gold.Chemscore.Hbond>
5.2860

> <Gold.Chemscore.Metal>
0.0000

> <Gold.Chemscore.Lipo>
46.2586

> <Gold.Chemscore.Internal_Hbond>
0.0000

> <Gold.Chemscore.DEClash>
0.0000

> <Gold.Chemscore.DEInternal>
0.9840

> <Gold.Chemscore.Rot>
4.0192

> <Gold.Chemscore.Internal.Correction>
   9.000000E+99

> <Gold.Chemscore.Hbonds>
donor molecule, donor type, donor heavy atom, donor atom, acceptor molecule, acceptor atom, score
      L1  H    18    41       P1  7948  0.95
      L1  H    20    42       P1 10175  0.62
      L1  H    22    43       P1 10175  0.84
      P1  H  6896  6909       L1    25  0.42
      P1  H  6931  6943       L1     5  0.91
      P1  H 10752 10764       L1    24  0.91

> <Gold.Chemscore.Hbond.Weighted>
-17.6552

> <Gold.Chemscore.Metal.Weighted>
-0.0000

> <Gold.Chemscore.Lipo.Weighted>
-5.4123

> <Gold.Chemscore.Internal_Hbond.Weighted>
0.0000

> <Gold.Chemscore.DEClash.Weighted>
0.0000

> <Gold.Chemscore.DEInternal.Weighted>
0.9840

> <Gold.Chemscore.Rot.Weighted>
10.2893

> <Gold.Chemscore.Internal.Correction.Weighted>
   9.000000E+99

> <Gold.Protein.RotatedTorsions>
[ 6907 6896 6895 6894 ] final   54.51 input  -60.11 | X-H torsion
[ 7974 7965 7964 7962 ] final -123.50 input  175.53 | X-H torsion
[ 8008 7997 7996 7995 ] final  -75.56 input   59.86 | X-H torsion
[ 10167 10162 10161 10158 ] final -108.82 input  -65.29 | X-H torsion
[ 10718 10713 10712 10709 ] final -143.13 input   66.30 | X-H torsion
[ 10763 10752 10751 10750 ] final    1.42 input  -60.55 | X-H torsion
[ 11005 11000 10999 10996 ] final -116.70 input  -57.11 | X-H torsion

> <Gold.Protein.ActiveResidues>
 VAL166  LYS551  ARG553  GLY616  TRP617  ASP618  TYR619  PRO620  LYS621  CYS622 
 ASP623  PHE694  ASN695  SER759  ASP760  ASP761  ALA762  ILE779  LEU786  VAL792 
 PHE793  MET794  SER795  GLU796  ALA797  LYS798  CYS799  TRP800  GLU811  SER814 

> <Gold.Protein.RotatedAtoms>
  152.3446  134.7089  160.0253 H   0  0  0  0  0  0  0  0  0  0  0  0  # atno 6907 bound_to 6896
  151.7463  133.3319  159.3387 H   0  0  0  0  0  0  0  0  0  0  0  0  # atno 6908 bound_to 6896
  150.7501  134.6165  159.6158 H   0  0  0  0  0  0  0  0  0  0  0  0  # atno 6909 bound_to 6896
  145.0180  140.7964  143.4398 H   0  0  0  0  0  0  0  0  0  0  0  0  # atno 7974 bound_to 7965
  154.5428  140.0742  156.8538 H   0  0  0  0  0  0  0  0  0  0  0  0  # atno 8008 bound_to 7997
  155.3147  140.3392  155.4224 H   0  0  0  0  0  0  0  0  0  0  0  0  # atno 8009 bound_to 7997
  156.1890  140.1679  156.8115 H   0  0  0  0  0  0  0  0  0  0  0  0  # atno 8010 bound_to 7997
  140.1620  143.4112  152.1418 H   0  0  0  0  0  0  0  0  0  0  0  0  # atno 10167 bound_to 10162
  156.3543  130.7704  151.1862 H   0  0  0  0  0  0  0  0  0  0  0  0  # atno 10718 bound_to 10713
  153.3082  135.6961  153.7140 H   0  0  0  0  0  0  0  0  0  0  0  0  # atno 10763 bound_to 10752
  153.6027  135.3459  155.2952 H   0  0  0  0  0  0  0  0  0  0  0  0  # atno 10764 bound_to 10752
  154.8568  135.4344  154.2213 H   0  0  0  0  0  0  0  0  0  0  0  0  # atno 10765 bound_to 10752
  141.0404  133.9844  157.3003 H   0  0  0  0  0  0  0  0  0  0  0  0  # atno 11005 bound_to 11000
  145.1933  139.2289  143.5231 LP  0  0  0  0  0  0  0  0  0  0  0  0  # atno 17320 bound_to 7965
  146.3481  140.1734  142.8589 LP  0  0  0  0  0  0  0  0  0  0  0  0  # atno 17321 bound_to 7965
  139.5377  144.7225  151.4839 LP  0  0  0  0  0  0  0  0  0  0  0  0  # atno 17342 bound_to 10162
  140.6637  143.8444  150.6917 LP  0  0  0  0  0  0  0  0  0  0  0  0  # atno 17343 bound_to 10162
  157.7465  131.0418  150.4666 LP  0  0  0  0  0  0  0  0  0  0  0  0  # atno 17370 bound_to 10713
  156.4866  130.4086  149.6430 LP  0  0  0  0  0  0  0  0  0  0  0  0  # atno 17371 bound_to 10713
  139.9272  135.0201  156.8274 LP  0  0  0  0  0  0  0  0  0  0  0  0  # atno 17394 bound_to 11000
  140.6244  133.9963  155.7633 LP  0  0  0  0  0  0  0  0  0  0  0  0  # atno 17395 bound_to 11000

$$$$
