AV-unprocessed.smi:2819|AV-procd|sdf|10853|dock6
  -GOLD-   2272015293D 1   1.00000     0.00000
 Structure written by MMmdl.
 50 51  0  0  0  0  0  0  0  0  2 V2000
  153.9858  141.8276  160.9719 C   0  0  0  0  0  0  0  0  0  0  0  0
  152.8449  142.6885  160.6777 N   0  0  0  0  0  0  0  0  0  0  0  0
  152.4036  143.6800  161.6498 C   0  0  0  0  0  0  0  0  0  0  0  0
  152.1672  142.5552  159.4459 C   0  0  0  0  0  0  0  0  0  0  0  0
  151.8324  143.6742  158.6455 C   0  0  0  0  0  0  0  0  0  0  0  0
  151.1540  143.4134  157.4388 C   0  0  0  0  0  0  0  0  0  0  0  0
  150.8340  142.1593  157.0563 N   0  0  0  0  0  0  0  0  0  0  0  0
  151.1901  141.1641  157.8715 C   0  0  0  0  0  0  0  0  0  0  0  0
  150.8295  139.9100  157.4289 N   0  0  0  0  0  0  0  0  0  0  0  0
  150.5899  139.4534  156.1850 C   0  0  0  0  0  0  0  0  0  0  0  0
  150.6249  140.1289  155.1554 O   0  0  0  0  0  0  0  0  0  0  0  0
  150.3060  138.1422  156.1945 N   0  0  0  0  0  0  0  0  0  0  0  0
  149.9958  137.3336  155.0157 C   0  0  0  0  0  0  0  0  0  0  0  0
  148.5881  136.6652  155.0694 C   0  0  0  0  0  0  0  0  0  0  0  0
  148.1939  136.3352  156.5312 C   0  0  0  0  0  0  0  0  0  0  0  0
  147.5193  137.6612  154.5538 C   0  0  0  0  0  0  0  0  0  0  0  0
  148.5485  135.4042  154.2441 N   0  3  0  0  0  0  0  0  0  0  0  0
  149.5866  134.3836  154.5642 C   0  0  0  0  0  0  0  0  0  0  0  0
  149.5576  133.2406  153.5354 C   0  0  0  0  0  0  0  0  0  0  0  0
  148.2652  132.6523  153.5085 O   0  0  0  0  0  0  0  0  0  0  0  0
  147.2709  133.5883  153.1174 C   0  0  0  0  0  0  0  0  0  0  0  0
  147.2176  134.7411  154.1337 C   0  0  0  0  0  0  0  0  0  0  0  0
  151.8348  141.3070  159.0372 N   0  0  0  0  0  0  0  0  0  0  0  0
  153.6899  140.7782  160.9487 H   0  0  0  0  0  0  0  0  0  0  0  0
  154.3983  142.0360  161.9591 H   0  0  0  0  0  0  0  0  0  0  0  0
  154.7791  141.9794  160.2391 H   0  0  0  0  0  0  0  0  0  0  0  0
  151.3753  143.4849  161.9557 H   0  0  0  0  0  0  0  0  0  0  0  0
  152.4586  144.6830  161.2257 H   0  0  0  0  0  0  0  0  0  0  0  0
  153.0259  143.6625  162.5445 H   0  0  0  0  0  0  0  0  0  0  0  0
  152.0734  144.6888  158.9240 H   0  0  0  0  0  0  0  0  0  0  0  0
  150.8652  144.2164  156.7772 H   0  0  0  0  0  0  0  0  0  0  0  0
  150.7386  139.2241  158.1634 H   0  0  0  0  0  0  0  0  0  0  0  0
  150.2975  137.6664  157.0852 H   0  0  0  0  0  0  0  0  0  0  0  0
  150.0635  138.0065  154.1615 H   0  0  0  0  0  0  0  0  0  0  0  0
  150.7788  136.5893  154.8682 H   0  0  0  0  0  0  0  0  0  0  0  0
  147.9956  137.2367  157.1116 H   0  0  0  0  0  0  0  0  0  0  0  0
  148.9814  135.8010  157.0623 H   0  0  0  0  0  0  0  0  0  0  0  0
  147.2891  135.7277  156.5720 H   0  0  0  0  0  0  0  0  0  0  0  0
  147.3841  138.4984  155.2397 H   0  0  0  0  0  0  0  0  0  0  0  0
  146.5469  137.1796  154.4439 H   0  0  0  0  0  0  0  0  0  0  0  0
  147.7880  138.1000  153.5931 H   0  0  0  0  0  0  0  0  0  0  0  0
  150.5869  134.8121  154.5557 H   0  0  0  0  0  0  0  0  0  0  0  0
  149.4188  133.9738  155.5603 H   0  0  0  0  0  0  0  0  0  0  0  0
  149.8286  133.6024  152.5422 H   0  0  0  0  0  0  0  0  0  0  0  0
  150.2857  132.4750  153.8044 H   0  0  0  0  0  0  0  0  0  0  0  0
  147.4774  133.9619  152.1131 H   0  0  0  0  0  0  0  0  0  0  0  0
  146.3071  133.0808  153.0752 H   0  0  0  0  0  0  0  0  0  0  0  0
  146.9066  134.3508  155.1029 H   0  0  0  0  0  0  0  0  0  0  0  0
  146.4467  135.4350  153.8047 H   0  0  0  0  0  0  0  0  0  0  0  0
  148.7644  135.7119  153.3066 H   0  0  0  0  0  0  0  0  0  0  0  0
  1  2  1  0  0  0  0
  1 24  1  0  0  0  0
  1 25  1  0  0  0  0
  1 26  1  0  0  0  0
  2  3  1  0  0  0  0
  2  4  1  0  0  0  0
  3 27  1  0  0  0  0
  3 28  1  0  0  0  0
  3 29  1  0  0  0  0
  4 23  1  0  0  0  0
  4  5  2  0  0  0  0
  5  6  1  0  0  0  0
  5 30  1  0  0  0  0
  6  7  2  0  0  0  0
  6 31  1  0  0  0  0
  7  8  1  0  0  0  0
  8  9  1  0  0  0  0
  8 23  2  0  0  0  0
  9 10  1  0  0  0  0
  9 32  1  0  0  0  0
 10 11  2  0  0  0  0
 10 12  1  0  0  0  0
 12 13  1  0  0  0  0
 12 33  1  0  0  0  0
 13 14  1  0  0  0  0
 13 34  1  0  0  0  0
 13 35  1  0  0  0  0
 14 15  1  0  0  0  0
 14 16  1  0  0  0  0
 14 17  1  0  0  0  0
 15 36  1  0  0  0  0
 15 37  1  0  0  0  0
 15 38  1  0  0  0  0
 16 39  1  0  0  0  0
 16 40  1  0  0  0  0
 16 41  1  0  0  0  0
 17 22  1  0  0  0  0
 17 18  1  0  0  0  0
 17 50  1  0  0  0  0
 18 19  1  0  0  0  0
 18 42  1  0  0  0  0
 18 43  1  0  0  0  0
 19 20  1  0  0  0  0
 19 44  1  0  0  0  0
 19 45  1  0  0  0  0
 20 21  1  0  0  0  0
 21 22  1  0  0  0  0
 21 46  1  0  0  0  0
 21 47  1  0  0  0  0
 22 48  1  0  0  0  0
 22 49  1  0  0  0  0
M  CHG  1  17   1
M  END
> <s_m_source_file>
AV-unprocessed.smi

> <i_m_source_file_index>
2819

> <i_lp_mmshare_version>
43012

> <i_f3d_flags>
0

> <s_epik_input>
W0NIM11OKFtDSDNdKWMxW2NIXVtjSF1uYyhuMSlbTkhdQyg9TylbTkhdW0NIMl1DKFtDSDNdKShbQ0gzXSlOMltDSDJdW0NIMl1PW0NIMl1bQ0gyXTI=

> <s_epik_cmdline>
J2VwaWtfcHl0aG9uJywgJy1waCcsICc3LjAnLCAnLXRuJywgJzgnLCAnLW1hJywgJzIwMCcsICctbWV0YWxfYmluZGluZycsICctaW1hZScsICc8aW5maWxlLm1hZT4nLCAnLW9tYWUnLCAnPG91dGZpbGUubWFlPic=

> <r_epik_Ionization_Penalty>
1.64867

> <r_epik_Ionization_Penalty_Charging>
0.602531

> <r_epik_Ionization_Penalty_Neutral>
1.04614

> <r_epik_State_Penalty>
1.74763

> <r_epik_Charging_Adjusted_Penalty>
2.35016

> <i_epik_Tot_Q>
1

> <i_epik_Tot_abs_Q>
1

> <r_epik_Metal_State_Penalty>
1.04264

> <b_epik_Metal_Only>
0

> <s_lp_Force_Field>
OPLS_2005

> <r_lp_Energy>
22.1801

> <b_lp_Chiralities_Consistent>
1

> <s_lp_Variant>
AV-unprocessed.smi:2819-4

> <Gold.Version>
5.8.1

> <Gold.Id.Protein>
6NUR|6NUR_protein|mol2

> <Gold.PLP.Fitness>
46.3673

> <Gold.PLP.PLP>
-37.2477

> <Gold.PLP.part.hbond>
-2.0000

> <Gold.PLP.part.metal>
0.0000

> <Gold.PLP.part.buried>
-4.9152

> <Gold.PLP.part.nonpolar>
-30.3879

> <Gold.PLP.part.repulsive>
0.2675

> <Gold.PLP.ligand.clash>
0.0000

> <Gold.PLP.ligand.torsion>
1.4434

> <Gold.PLP.Chemscore.Hbond>
2.9913

> <Gold.PLP.Chemscore.CHOScore>
0.9621

> <Gold.PLP.Chemscore.Metal>
0.0000

> <Gold.Chemscore.Hbonds>
donor molecule, donor type, donor heavy atom, donor atom, acceptor molecule, acceptor atom, score
      L1  H    17    50       P1  7948  1.98
      P1  H  7989  7998       L1    11  0.89
      L1  C     6    31       P1  8028  1.00

> <Gold.PLP.Chemscore.Internal.Correction>
0.1464

> <Gold.Rescore>
     Score         DG    S(hbond)    S(metal)    S(lipo)     H(rot)  DE(clash)    DE(int)     intcor
     13.97     -16.83       1.92        0.00      76.07       1.55       0.14       2.72       ----

> <Gold.Chemscore.Fitness>
13.9669

> <Gold.Chemscore.DG>
-16.8257

> <Gold.Chemscore.ZeroCoef>
-5.4800

> <Gold.Chemscore.Hbond>
1.9208

> <Gold.Chemscore.Metal>
0.0000

> <Gold.Chemscore.Lipo>
76.0666

> <Gold.Chemscore.Internal_Hbond>
0.0000

> <Gold.Chemscore.DEClash>
0.1359

> <Gold.Chemscore.DEInternal>
2.7229

> <Gold.Chemscore.Rot>
1.5506

> <Gold.Chemscore.Internal.Correction>
   9.000000E+99

> <Gold.Chemscore.Hbonds>
donor molecule, donor type, donor heavy atom, donor atom, acceptor molecule, acceptor atom, score
      L1  H    17    50       P1  7948  0.89
      P1  H  7989  7998       L1    11  0.85

> <Gold.Chemscore.Hbond.Weighted>
-6.4154

> <Gold.Chemscore.Metal.Weighted>
-0.0000

> <Gold.Chemscore.Lipo.Weighted>
-8.8998

> <Gold.Chemscore.Internal_Hbond.Weighted>
0.0000

> <Gold.Chemscore.DEClash.Weighted>
0.1359

> <Gold.Chemscore.DEInternal.Weighted>
2.7229

> <Gold.Chemscore.Rot.Weighted>
3.9695

> <Gold.Chemscore.Internal.Correction.Weighted>
   9.000000E+99

> <Gold.Protein.RotatedTorsions>
[ 6907 6896 6895 6894 ] final  109.79 input  -60.11 | X-H torsion
[ 7974 7965 7964 7962 ] final -170.86 input  175.53 | X-H torsion
[ 8008 7997 7996 7995 ] final -171.13 input   59.86 | X-H torsion
[ 10167 10162 10161 10158 ] final  105.95 input  -65.29 | X-H torsion
[ 10718 10713 10712 10709 ] final -113.62 input   66.30 | X-H torsion
[ 10763 10752 10751 10750 ] final -129.78 input  -60.55 | X-H torsion
[ 11005 11000 10999 10996 ] final -103.64 input  -57.11 | X-H torsion

> <Gold.Protein.ActiveResidues>
 VAL166  LYS551  ARG553  GLY616  TRP617  ASP618  TYR619  PRO620  LYS621  CYS622 
 ASP623  PHE694  ASN695  SER759  ASP760  ASP761  ALA762  ILE779  LEU786  VAL792 
 PHE793  MET794  SER795  GLU796  ALA797  LYS798  CYS799  TRP800  GLU811  SER814 

> <Gold.Protein.RotatedAtoms>
  152.5050  133.8893  159.7385 H   0  0  0  0  0  0  0  0  0  0  0  0  # atno 6907 bound_to 6896
  150.9336  133.6730  159.2812 H   0  0  0  0  0  0  0  0  0  0  0  0  # atno 6908 bound_to 6896
  151.4066  135.0983  159.9625 H   0  0  0  0  0  0  0  0  0  0  0  0  # atno 6909 bound_to 6896
  144.7164  140.2009  143.6338 H   0  0  0  0  0  0  0  0  0  0  0  0  # atno 7974 bound_to 7965
  155.9275  140.1085  157.1158 H   0  0  0  0  0  0  0  0  0  0  0  0  # atno 8008 bound_to 7997
  154.4065  140.1244  156.4825 H   0  0  0  0  0  0  0  0  0  0  0  0  # atno 8009 bound_to 7997
  155.7120  140.3471  155.4980 H   0  0  0  0  0  0  0  0  0  0  0  0  # atno 8010 bound_to 7997
  139.7049  144.7088  151.1123 H   0  0  0  0  0  0  0  0  0  0  0  0  # atno 10167 bound_to 10162
  156.0778  130.5983  150.8666 H   0  0  0  0  0  0  0  0  0  0  0  0  # atno 10718 bound_to 10713
  154.8757  135.3884  154.3975 H   0  0  0  0  0  0  0  0  0  0  0  0  # atno 10763 bound_to 10752
  153.4704  135.7030  153.6002 H   0  0  0  0  0  0  0  0  0  0  0  0  # atno 10764 bound_to 10752
  153.4462  135.3844  155.2225 H   0  0  0  0  0  0  0  0  0  0  0  0  # atno 10765 bound_to 10752
  141.1137  133.8657  157.1511 H   0  0  0  0  0  0  0  0  0  0  0  0  # atno 11005 bound_to 11000
  145.8681  139.2257  143.1677 LP  0  0  0  0  0  0  0  0  0  0  0  0  # atno 17320 bound_to 7965
  146.0111  140.8434  142.9970 LP  0  0  0  0  0  0  0  0  0  0  0  0  # atno 17321 bound_to 7965
  140.7719  143.5372  150.9354 LP  0  0  0  0  0  0  0  0  0  0  0  0  # atno 17342 bound_to 10162
  139.9055  143.6784  152.3124 LP  0  0  0  0  0  0  0  0  0  0  0  0  # atno 17343 bound_to 10162
  157.5881  131.0945  150.9163 LP  0  0  0  0  0  0  0  0  0  0  0  0  # atno 17370 bound_to 10713
  156.9345  130.5362  149.5279 LP  0  0  0  0  0  0  0  0  0  0  0  0  # atno 17371 bound_to 10713
  140.0045  135.0014  157.0263 LP  0  0  0  0  0  0  0  0  0  0  0  0  # atno 17394 bound_to 11000
  140.4706  134.1390  155.7202 LP  0  0  0  0  0  0  0  0  0  0  0  0  # atno 17395 bound_to 11000

$$$$
