AV-unprocessed.smi:3321|AV-procd|sdf|12771|dock7
  -GOLD-   2272019113D 1   1.00000     0.00000
 Structure written by MMmdl.
 40 41  0  0  0  0  0  0  0  0  1 V2000
  150.4504  140.9706  157.9174 C   0  0  0  0  0  0  0  0  0  0  0  0
  149.8982  142.0493  156.9724 C   0  0  2  0  0  0  0  0  0  0  0  0
  150.3572  143.3777  157.4209 N   0  0  0  0  0  0  0  0  0  0  0  0
  151.7470  143.6622  157.0793 C   0  0  0  0  0  0  0  0  0  0  0  0
  152.3134  144.6935  158.0648 C   0  0  0  0  0  0  0  0  0  0  0  0
  152.4845  144.1245  159.3874 N   0  0  0  0  0  0  0  0  0  0  0  0
  153.0301  142.9060  159.7320 C   0  0  0  0  0  0  0  0  0  0  0  0
  152.9689  142.8041  161.0924 C   0  0  0  0  0  0  0  0  0  0  0  0
  152.3604  144.0259  161.4957 C   0  0  0  0  0  0  0  0  0  0  0  0
  152.0708  144.8138  160.4728 N   0  0  0  0  0  0  0  0  0  0  0  0
  148.3585  141.9293  156.8766 C   0  0  0  0  0  0  0  0  0  0  0  0
  147.7172  141.8694  157.9279 O   0  0  0  0  0  0  0  0  0  0  0  0
  147.7487  141.8988  155.6645 N   0  0  0  0  0  0  0  0  0  0  0  0
  148.5022  141.7882  154.4083 C   0  0  0  0  0  0  0  0  0  0  0  0
  148.2932  140.3710  153.8407 C   0  0  0  0  0  0  0  0  0  0  0  0
  146.7937  140.0593  153.6592 C   0  0  0  0  0  0  0  0  0  0  0  0
  145.9785  140.3927  154.9250 C   0  0  0  0  0  0  0  0  0  0  0  0
  146.3032  141.8141  155.4174 C   0  0  0  0  0  0  0  0  0  0  0  0
  150.1645  139.9694  157.5929 H   0  0  0  0  0  0  0  0  0  0  0  0
  150.0837  141.1059  158.9360 H   0  0  0  0  0  0  0  0  0  0  0  0
  151.5398  141.0017  157.9516 H   0  0  0  0  0  0  0  0  0  0  0  0
  150.3409  141.9000  155.9890 H   0  0  0  0  0  0  0  0  0  0  0  0
  149.7573  144.1135  157.0758 H   0  0  0  0  0  0  0  0  0  0  0  0
  152.3324  142.7425  157.1235 H   0  0  0  0  0  0  0  0  0  0  0  0
  151.8270  144.0507  156.0639 H   0  0  0  0  0  0  0  0  0  0  0  0
  153.2814  145.0599  157.7194 H   0  0  0  0  0  0  0  0  0  0  0  0
  151.6540  145.5599  158.1388 H   0  0  0  0  0  0  0  0  0  0  0  0
  153.4105  142.2202  158.9891 H   0  0  0  0  0  0  0  0  0  0  0  0
  153.3060  141.9819  161.7060 H   0  0  0  0  0  0  0  0  0  0  0  0
  152.1214  144.3610  162.4945 H   0  0  0  0  0  0  0  0  0  0  0  0
  148.1443  142.5356  153.6988 H   0  0  0  0  0  0  0  0  0  0  0  0
  149.5680  141.9849  154.5299 H   0  0  0  0  0  0  0  0  0  0  0  0
  148.8147  140.2659  152.8890 H   0  0  0  0  0  0  0  0  0  0  0  0
  148.7373  139.6409  154.5191 H   0  0  0  0  0  0  0  0  0  0  0  0
  146.4090  140.6482  152.8256 H   0  0  0  0  0  0  0  0  0  0  0  0
  146.6557  139.0130  153.3859 H   0  0  0  0  0  0  0  0  0  0  0  0
  144.9122  140.2994  154.7175 H   0  0  0  0  0  0  0  0  0  0  0  0
  146.2070  139.6720  155.7115 H   0  0  0  0  0  0  0  0  0  0  0  0
  145.6892  142.0798  156.2753 H   0  0  0  0  0  0  0  0  0  0  0  0
  146.0291  142.5390  154.6495 H   0  0  0  0  0  0  0  0  0  0  0  0
  1  2  1  0  0  0  0
  1 19  1  0  0  0  0
  1 20  1  0  0  0  0
  1 21  1  0  0  0  0
  2  3  1  0  0  0  0
  2 11  1  0  0  0  0
  2 22  1  0  0  0  0
  3  4  1  0  0  0  0
  3 23  1  0  0  0  0
  4  5  1  0  0  0  0
  4 24  1  0  0  0  0
  4 25  1  0  0  0  0
  5  6  1  0  0  0  0
  5 26  1  0  0  0  0
  5 27  1  0  0  0  0
  6 10  1  0  0  0  0
  6  7  1  0  0  0  0
  7  8  2  0  0  0  0
  7 28  1  0  0  0  0
  8  9  1  0  0  0  0
  8 29  1  0  0  0  0
  9 10  2  0  0  0  0
  9 30  1  0  0  0  0
 11 12  2  0  0  0  0
 11 13  1  0  0  0  0
 13 18  1  0  0  0  0
 13 14  1  0  0  0  0
 14 15  1  0  0  0  0
 14 31  1  0  0  0  0
 14 32  1  0  0  0  0
 15 16  1  0  0  0  0
 15 33  1  0  0  0  0
 15 34  1  0  0  0  0
 16 17  1  0  0  0  0
 16 35  1  0  0  0  0
 16 36  1  0  0  0  0
 17 18  1  0  0  0  0
 17 37  1  0  0  0  0
 17 38  1  0  0  0  0
 18 39  1  0  0  0  0
 18 40  1  0  0  0  0
M  END
> <s_m_source_file>
AV-unprocessed.smi

> <i_m_source_file_index>
3321

> <i_lp_mmshare_version>
43012

> <i_f3d_flags>
0

> <s_epik_input>
W0NIMl0xW0NIMl1bQ0gyXVtDSDJdW0NIMl1OMUMoPU8pW0NASF0oW0NIM10pW05IXVtDSDJdW0NIMl1uMltjSF1bY0hdW2NIXW4y

> <s_epik_cmdline>
J2VwaWtfcHl0aG9uJywgJy1waCcsICc3LjAnLCAnLXRuJywgJzgnLCAnLW1hJywgJzIwMCcsICctbWV0YWxfYmluZGluZycsICctaW1hZScsICc8aW5maWxlLm1hZT4nLCAnLW9tYWUnLCAnPG91dGZpbGUubWFlPic=

> <r_lp_tautomer_probability>
1

> <r_epik_Ionization_Penalty>
0.736446

> <r_epik_Ionization_Penalty_Charging>
0

> <r_epik_Ionization_Penalty_Neutral>
0.736446

> <r_epik_State_Penalty>
0.761204

> <r_epik_Charging_Adjusted_Penalty>
0.761204

> <i_epik_Tot_Q>
0

> <i_epik_Tot_abs_Q>
0

> <r_epik_Metal_State_Penalty>
0.760551

> <b_epik_Metal_Only>
0

> <s_lp_Force_Field>
OPLS_2005

> <r_lp_Energy>
27.234

> <b_lp_Chiralities_Consistent>
1

> <s_lp_Variant>
AV-unprocessed.smi:3321-3

> <Gold.Version>
5.8.1

> <Gold.Id.Protein>
6NUR|6NUR_protein|mol2

> <Gold.PLP.Fitness>
40.5802

> <Gold.PLP.PLP>
-39.0252

> <Gold.PLP.part.hbond>
-1.0000

> <Gold.PLP.part.metal>
0.0000

> <Gold.PLP.part.buried>
-4.7761

> <Gold.PLP.part.nonpolar>
-33.7390

> <Gold.PLP.part.repulsive>
0.2257

> <Gold.PLP.ligand.clash>
0.0000

> <Gold.PLP.ligand.torsion>
0.7671

> <Gold.PLP.Chemscore.Hbond>
1.0000

> <Gold.PLP.Chemscore.CHOScore>
0.0000

> <Gold.PLP.Chemscore.Metal>
0.0000

> <Gold.Chemscore.Hbonds>
donor molecule, donor type, donor heavy atom, donor atom, acceptor molecule, acceptor atom, score
      L1  H     3    23       P1  8028  0.93

> <Gold.PLP.Chemscore.Internal.Correction>
0.0890

> <Gold.Rescore>
     Score         DG    S(hbond)    S(metal)    S(lipo)     H(rot)  DE(clash)    DE(int)     intcor
     13.86     -14.65       0.90        0.00      90.43       1.73       0.03       0.77       ----

> <Gold.Chemscore.Fitness>
13.8575

> <Gold.Chemscore.DG>
-14.6506

> <Gold.Chemscore.ZeroCoef>
-5.4800

> <Gold.Chemscore.Hbond>
0.9021

> <Gold.Chemscore.Metal>
0.0000

> <Gold.Chemscore.Lipo>
90.4305

> <Gold.Chemscore.Internal_Hbond>
0.0000

> <Gold.Chemscore.DEClash>
0.0256

> <Gold.Chemscore.DEInternal>
0.7676

> <Gold.Chemscore.Rot>
1.7277

> <Gold.Chemscore.Internal.Correction>
   9.000000E+99

> <Gold.Chemscore.Hbonds>
donor molecule, donor type, donor heavy atom, donor atom, acceptor molecule, acceptor atom, score
      L1  H     3    23       P1  8028  0.63

> <Gold.Chemscore.Hbond.Weighted>
-3.0131

> <Gold.Chemscore.Metal.Weighted>
-0.0000

> <Gold.Chemscore.Lipo.Weighted>
-10.5804

> <Gold.Chemscore.Internal_Hbond.Weighted>
0.0000

> <Gold.Chemscore.DEClash.Weighted>
0.0256

> <Gold.Chemscore.DEInternal.Weighted>
0.7676

> <Gold.Chemscore.Rot.Weighted>
4.4228

> <Gold.Chemscore.Internal.Correction.Weighted>
   9.000000E+99

> <Gold.Protein.RotatedTorsions>
[ 6907 6896 6895 6894 ] final   47.85 input  -60.11 | X-H torsion
[ 7974 7965 7964 7962 ] final  -60.40 input  175.53 | X-H torsion
[ 8008 7997 7996 7995 ] final  154.57 input   59.86 | X-H torsion
[ 10167 10162 10161 10158 ] final  172.67 input  -65.29 | X-H torsion
[ 10718 10713 10712 10709 ] final   -3.17 input   66.30 | X-H torsion
[ 10763 10752 10751 10750 ] final   65.50 input  -60.55 | X-H torsion
[ 11005 11000 10999 10996 ] final -177.88 input  -57.11 | X-H torsion

> <Gold.Protein.ActiveResidues>
 VAL166  LYS551  ARG553  GLY616  TRP617  ASP618  TYR619  PRO620  LYS621  CYS622 
 ASP623  PHE694  ASN695  SER759  ASP760  ASP761  ALA762  ILE779  LEU786  VAL792 
 PHE793  MET794  SER795  GLU796  ALA797  LYS798  CYS799  TRP800  GLU811  SER814 

> <Gold.Protein.RotatedAtoms>
  152.2728  134.7914  160.0410 H   0  0  0  0  0  0  0  0  0  0  0  0  # atno 6907 bound_to 6896
  151.8521  133.3436  159.3684 H   0  0  0  0  0  0  0  0  0  0  0  0  # atno 6908 bound_to 6896
  150.7158  134.5217  159.5701 H   0  0  0  0  0  0  0  0  0  0  0  0  # atno 6909 bound_to 6896
  145.8160  140.8570  143.0157 H   0  0  0  0  0  0  0  0  0  0  0  0  # atno 7974 bound_to 7965
  156.2524  140.1963  156.6666 H   0  0  0  0  0  0  0  0  0  0  0  0  # atno 8008 bound_to 7997
  154.6424  140.0582  156.9887 H   0  0  0  0  0  0  0  0  0  0  0  0  # atno 8009 bound_to 7997
  155.1542  140.3254  155.4427 H   0  0  0  0  0  0  0  0  0  0  0  0  # atno 8010 bound_to 7997
  139.5084  144.3348  152.0076 H   0  0  0  0  0  0  0  0  0  0  0  0  # atno 10167 bound_to 10162
  156.7800  130.5327  149.5752 H   0  0  0  0  0  0  0  0  0  0  0  0  # atno 10718 bound_to 10713
  153.0099  135.5354  154.6678 H   0  0  0  0  0  0  0  0  0  0  0  0  # atno 10763 bound_to 10752
  154.5870  135.2855  155.0677 H   0  0  0  0  0  0  0  0  0  0  0  0  # atno 10764 bound_to 10752
  154.1784  135.6520  153.5080 H   0  0  0  0  0  0  0  0  0  0  0  0  # atno 10765 bound_to 10752
  140.4359  134.6476  157.4734 H   0  0  0  0  0  0  0  0  0  0  0  0  # atno 11005 bound_to 11000
  144.6752  140.0464  143.7480 LP  0  0  0  0  0  0  0  0  0  0  0  0  # atno 17320 bound_to 7965
  145.9726  139.2881  143.1089 LP  0  0  0  0  0  0  0  0  0  0  0  0  # atno 17321 bound_to 7965
  140.2787  144.3884  150.6126 LP  0  0  0  0  0  0  0  0  0  0  0  0  # atno 17342 bound_to 10162
  140.6035  143.2167  151.7027 LP  0  0  0  0  0  0  0  0  0  0  0  0  # atno 17343 bound_to 10162
  156.1224  130.6119  151.0213 LP  0  0  0  0  0  0  0  0  0  0  0  0  # atno 17370 bound_to 10713
  157.6651  131.0873  150.7748 LP  0  0  0  0  0  0  0  0  0  0  0  0  # atno 17371 bound_to 10713
  140.0102  134.6702  155.9392 LP  0  0  0  0  0  0  0  0  0  0  0  0  # atno 17394 bound_to 11000
  141.1726  133.6538  156.4707 LP  0  0  0  0  0  0  0  0  0  0  0  0  # atno 17395 bound_to 11000

$$$$
