AV-unprocessed.smi:943|AV-procd|sdf|4229|dock4
  -GOLD-   22720 2133D 1   1.00000     0.00000
 Structure written by MMmdl.
 43 44  0  0  0  0  0  0  0  0  1 V2000
  151.9877  140.4408  159.0530 C   0  0  0  0  0  0  0  0  0  0  0  0
  153.1779  140.5667  160.0197 C   0  0  2  0  0  0  0  0  0  0  0  0
  154.0319  141.8128  159.6827 C   0  0  0  0  0  0  0  0  0  0  0  0
  153.4615  143.1812  160.1302 C   0  0  0  0  0  0  0  0  0  0  0  0
  153.0530  143.2003  161.6205 C   0  0  0  0  0  0  0  0  0  0  0  0
  152.4430  144.5505  162.0301 C   0  0  0  0  0  0  0  0  0  0  0  0
  151.2508  144.9230  161.1385 C   0  0  0  0  0  0  0  0  0  0  0  0
  151.6569  144.9266  159.6582 C   0  0  0  0  0  0  0  0  0  0  0  0
  152.2593  143.5742  159.2458 C   0  0  0  0  0  0  0  0  0  0  0  0
  154.0114  139.2774  160.0026 C   0  0  0  0  0  0  0  0  0  0  0  0
  154.5773  138.9150  158.9708 O   0  0  0  0  0  0  0  0  0  0  0  0
  154.0890  138.6034  161.1582 N   0  0  0  0  0  0  0  0  0  0  0  0
  154.8716  137.3907  161.3570 C   0  0  0  0  0  0  0  0  0  0  0  0
  156.1398  137.6676  162.1810 C   0  0  0  0  0  0  0  0  0  0  0  0
  156.6616  136.4547  162.8960 C   0  0  0  0  0  0  0  0  0  0  0  0
  156.8218  136.3036  164.2529 C   0  0  0  0  0  0  0  0  0  0  0  0
  157.4562  134.7337  164.6671 S   0  0  0  0  0  0  0  0  0  0  0  0
  157.4799  134.3450  162.9555 C   0  0  0  0  0  0  0  0  0  0  0  0
  157.0446  135.3255  162.1641 N   0  0  0  0  0  0  0  0  0  0  0  0
  151.3876  139.5568  159.2736 H   0  0  0  0  0  0  0  0  0  0  0  0
  152.3173  140.3689  158.0156 H   0  0  0  0  0  0  0  0  0  0  0  0
  151.3299  141.3068  159.1303 H   0  0  0  0  0  0  0  0  0  0  0  0
  152.7596  140.6926  161.0191 H   0  0  0  0  0  0  0  0  0  0  0  0
  155.0220  141.6857  160.1235 H   0  0  0  0  0  0  0  0  0  0  0  0
  154.1968  141.8406  158.6048 H   0  0  0  0  0  0  0  0  0  0  0  0
  154.2273  143.9440  159.9831 H   0  0  0  0  0  0  0  0  0  0  0  0
  152.3365  142.4016  161.8170 H   0  0  0  0  0  0  0  0  0  0  0  0
  153.9172  143.0047  162.2551 H   0  0  0  0  0  0  0  0  0  0  0  0
  152.1293  144.5148  163.0735 H   0  0  0  0  0  0  0  0  0  0  0  0
  153.2041  145.3283  161.9613 H   0  0  0  0  0  0  0  0  0  0  0  0
  150.4386  144.2120  161.2953 H   0  0  0  0  0  0  0  0  0  0  0  0
  150.8653  145.9027  161.4222 H   0  0  0  0  0  0  0  0  0  0  0  0
  150.7903  145.1523  159.0362 H   0  0  0  0  0  0  0  0  0  0  0  0
  152.3823  145.7213  159.4791 H   0  0  0  0  0  0  0  0  0  0  0  0
  152.5657  143.6203  158.2001 H   0  0  0  0  0  0  0  0  0  0  0  0
  151.4900  142.8033  159.3063 H   0  0  0  0  0  0  0  0  0  0  0  0
  153.5978  138.9710  161.9600 H   0  0  0  0  0  0  0  0  0  0  0  0
  154.2595  136.6382  161.8560 H   0  0  0  0  0  0  0  0  0  0  0  0
  155.1489  136.9828  160.3834 H   0  0  0  0  0  0  0  0  0  0  0  0
  156.9113  138.0654  161.5207 H   0  0  0  0  0  0  0  0  0  0  0  0
  155.9316  138.4615  162.8993 H   0  0  0  0  0  0  0  0  0  0  0  0
  156.6044  137.0189  165.0321 H   0  0  0  0  0  0  0  0  0  0  0  0
  157.8123  133.4062  162.5377 H   0  0  0  0  0  0  0  0  0  0  0  0
  1  2  1  0  0  0  0
  1 20  1  0  0  0  0
  1 21  1  0  0  0  0
  1 22  1  0  0  0  0
  2  3  1  0  0  0  0
  2 10  1  0  0  0  0
  2 23  1  0  0  0  0
  3  4  1  0  0  0  0
  3 24  1  0  0  0  0
  3 25  1  0  0  0  0
  4  9  1  0  0  0  0
  4  5  1  0  0  0  0
  4 26  1  0  0  0  0
  5  6  1  0  0  0  0
  5 27  1  0  0  0  0
  5 28  1  0  0  0  0
  6  7  1  0  0  0  0
  6 29  1  0  0  0  0
  6 30  1  0  0  0  0
  7  8  1  0  0  0  0
  7 31  1  0  0  0  0
  7 32  1  0  0  0  0
  8  9  1  0  0  0  0
  8 33  1  0  0  0  0
  8 34  1  0  0  0  0
  9 35  1  0  0  0  0
  9 36  1  0  0  0  0
 10 11  2  0  0  0  0
 10 12  1  0  0  0  0
 12 13  1  0  0  0  0
 12 37  1  0  0  0  0
 13 14  1  0  0  0  0
 13 38  1  0  0  0  0
 13 39  1  0  0  0  0
 14 15  1  0  0  0  0
 14 40  1  0  0  0  0
 14 41  1  0  0  0  0
 15 19  1  0  0  0  0
 15 16  2  0  0  0  0
 16 17  1  0  0  0  0
 16 42  1  0  0  0  0
 17 18  1  0  0  0  0
 18 19  2  0  0  0  0
 18 43  1  0  0  0  0
M  END
> <s_m_source_file>
AV-unprocessed.smi

> <i_m_source_file_index>
943

> <i_lp_mmshare_version>
43012

> <i_f3d_flags>
0

> <s_epik_input>
W0NIMl0xW0NIMl1bQ0gyXVtDSDJdW0NIMl1bQ0hdMVtDSDJdW0NAQEhdKFtDSDNdKUMoPU8pW05IXVtDSDJdW0NIMl1jMltjSF1zW2NIXW4y

> <s_epik_cmdline>
J2VwaWtfcHl0aG9uJywgJy1waCcsICc3LjAnLCAnLXRuJywgJzgnLCAnLW1hJywgJzIwMCcsICctbWV0YWxfYmluZGluZycsICctaW1hZScsICc8aW5maWxlLm1hZT4nLCAnLW9tYWUnLCAnPG91dGZpbGUubWFlPic=

> <r_lp_tautomer_probability>
1

> <r_epik_Ionization_Penalty>
0.000194757

> <r_epik_Ionization_Penalty_Charging>
0

> <r_epik_Ionization_Penalty_Neutral>
0.000194757

> <r_epik_State_Penalty>
-0

> <r_epik_Charging_Adjusted_Penalty>
0

> <i_epik_Tot_Q>
0

> <i_epik_Tot_abs_Q>
0

> <r_epik_Metal_State_Penalty>
-0

> <b_epik_Metal_Only>
0

> <s_lp_Force_Field>
OPLS_2005

> <r_lp_Energy>
6.00362

> <b_lp_Chiralities_Consistent>
1

> <s_lp_Variant>
AV-unprocessed.smi:943-1

> <Gold.Version>
5.8.1

> <Gold.Id.Protein>
6NUR|6NUR_protein|mol2

> <Gold.PLP.Fitness>
47.6146

> <Gold.PLP.PLP>
-45.3880

> <Gold.PLP.part.hbond>
-1.0000

> <Gold.PLP.part.metal>
0.0000

> <Gold.PLP.part.buried>
-1.7578

> <Gold.PLP.part.nonpolar>
-43.0919

> <Gold.PLP.part.repulsive>
0.0799

> <Gold.PLP.ligand.clash>
0.0000

> <Gold.PLP.ligand.torsion>
0.4479

> <Gold.PLP.Chemscore.Hbond>
1.0000

> <Gold.PLP.Chemscore.CHOScore>
0.0000

> <Gold.PLP.Chemscore.Metal>
0.0000

> <Gold.Chemscore.Hbonds>
donor molecule, donor type, donor heavy atom, donor atom, acceptor molecule, acceptor atom, score
      P1  H  7997  8008       L1    11  0.99

> <Gold.PLP.Chemscore.Internal.Correction>
0.1225

> <Gold.Rescore>
     Score         DG    S(hbond)    S(metal)    S(lipo)     H(rot)  DE(clash)    DE(int)     intcor
     19.61     -20.25       0.92        0.00     134.54       1.58       0.18       0.46       ----

> <Gold.Chemscore.Fitness>
19.6136

> <Gold.Chemscore.DG>
-20.2512

> <Gold.Chemscore.ZeroCoef>
-5.4800

> <Gold.Chemscore.Hbond>
0.9199

> <Gold.Chemscore.Metal>
0.0000

> <Gold.Chemscore.Lipo>
134.5355

> <Gold.Chemscore.Internal_Hbond>
0.0000

> <Gold.Chemscore.DEClash>
0.1803

> <Gold.Chemscore.DEInternal>
0.4574

> <Gold.Chemscore.Rot>
1.5789

> <Gold.Chemscore.Internal.Correction>
   9.000000E+99

> <Gold.Chemscore.Hbonds>
donor molecule, donor type, donor heavy atom, donor atom, acceptor molecule, acceptor atom, score
      P1  H  7997  8008       L1    11  0.92

> <Gold.Chemscore.Hbond.Weighted>
-3.0725

> <Gold.Chemscore.Metal.Weighted>
-0.0000

> <Gold.Chemscore.Lipo.Weighted>
-15.7406

> <Gold.Chemscore.Internal_Hbond.Weighted>
0.0000

> <Gold.Chemscore.DEClash.Weighted>
0.1803

> <Gold.Chemscore.DEInternal.Weighted>
0.4574

> <Gold.Chemscore.Rot.Weighted>
4.0419

> <Gold.Chemscore.Internal.Correction.Weighted>
   9.000000E+99

> <Gold.Protein.RotatedTorsions>
[ 6907 6896 6895 6894 ] final  -92.54 input  -60.11 | X-H torsion
[ 7974 7965 7964 7962 ] final   30.83 input  175.53 | X-H torsion
[ 8008 7997 7996 7995 ] final -119.14 input   59.86 | X-H torsion
[ 10167 10162 10161 10158 ] final  -91.40 input  -65.29 | X-H torsion
[ 10718 10713 10712 10709 ] final   87.92 input   66.30 | X-H torsion
[ 10763 10752 10751 10750 ] final   12.76 input  -60.55 | X-H torsion
[ 11005 11000 10999 10996 ] final  -17.31 input  -57.11 | X-H torsion

> <Gold.Protein.ActiveResidues>
 VAL166  LYS551  ARG553  GLY616  TRP617  ASP618  TYR619  PRO620  LYS621  CYS622 
 ASP623  PHE694  ASN695  SER759  ASP760  ASP761  ALA762  ILE779  LEU786  VAL792 
 PHE793  MET794  SER795  GLU796  ALA797  LYS798  CYS799  TRP800  GLU811  SER814 

> <Gold.Protein.RotatedAtoms>
  150.6908  134.2106  159.4357 H   0  0  0  0  0  0  0  0  0  0  0  0  # atno 6907 bound_to 6896
  152.0068  134.9896  160.0576 H   0  0  0  0  0  0  0  0  0  0  0  0  # atno 6908 bound_to 6896
  152.1527  133.4497  159.4858 H   0  0  0  0  0  0  0  0  0  0  0  0  # atno 6909 bound_to 6896
  146.1588  139.6737  142.9048 H   0  0  0  0  0  0  0  0  0  0  0  0  # atno 7974 bound_to 7965
  155.1110  140.0397  157.2724 H   0  0  0  0  0  0  0  0  0  0  0  0  # atno 8008 bound_to 7997
  154.6685  140.2607  155.7006 H   0  0  0  0  0  0  0  0  0  0  0  0  # atno 8009 bound_to 7997
  156.2649  140.2802  156.1185 H   0  0  0  0  0  0  0  0  0  0  0  0  # atno 8010 bound_to 7997
  140.3453  143.2920  151.9789 H   0  0  0  0  0  0  0  0  0  0  0  0  # atno 10167 bound_to 10162
  157.6944  131.0274  150.3196 H   0  0  0  0  0  0  0  0  0  0  0  0  # atno 10718 bound_to 10713
  153.1789  135.6824  153.8505 H   0  0  0  0  0  0  0  0  0  0  0  0  # atno 10763 bound_to 10752
  153.7843  135.3178  155.3371 H   0  0  0  0  0  0  0  0  0  0  0  0  # atno 10764 bound_to 10752
  154.8047  135.4756  154.0457 H   0  0  0  0  0  0  0  0  0  0  0  0  # atno 10765 bound_to 10752
  140.8155  133.8108  155.9606 H   0  0  0  0  0  0  0  0  0  0  0  0  # atno 11005 bound_to 11000
  145.4641  141.0434  143.2735 LP  0  0  0  0  0  0  0  0  0  0  0  0  # atno 17320 bound_to 7965
  144.7999  139.6162  143.7076 LP  0  0  0  0  0  0  0  0  0  0  0  0  # atno 17321 bound_to 7965
  139.4834  144.6122  151.7412 LP  0  0  0  0  0  0  0  0  0  0  0  0  # atno 17342 bound_to 10162
  140.5271  144.0789  150.6041 LP  0  0  0  0  0  0  0  0  0  0  0  0  # atno 17343 bound_to 10162
  156.3685  130.3859  149.7194 LP  0  0  0  0  0  0  0  0  0  0  0  0  # atno 17370 bound_to 10713
  156.4617  130.7955  151.2975 LP  0  0  0  0  0  0  0  0  0  0  0  0  # atno 17371 bound_to 10713
  140.9153  134.2209  157.4960 LP  0  0  0  0  0  0  0  0  0  0  0  0  # atno 17394 bound_to 11000
  139.8711  134.9768  156.4936 LP  0  0  0  0  0  0  0  0  0  0  0  0  # atno 17395 bound_to 11000

$$$$
