AV-unprocessed.smi:123|AV-procd|sdf|1145|dock1
  -GOLD-   2262018273D 1   1.00000     0.00000
 Structure written by MMmdl.
 43 45  0  0  0  0  0  0  0  0  1 V2000
  147.8475  132.0427  152.9820 C   0  0  0  0  0  0  0  0  0  0  0  0
  147.3943  133.2776  152.1815 C   0  0  2  0  0  0  0  0  0  0  0  0
  147.2795  134.4564  153.0418 N   0  0  0  0  0  0  0  0  0  0  0  0
  146.4695  134.6005  154.1042 C   0  0  0  0  0  0  0  0  0  0  0  0
  145.7090  133.7162  154.5020 O   0  0  0  0  0  0  0  0  0  0  0  0
  146.5411  135.9608  154.8151 C   0  0  0  0  0  0  0  0  0  0  0  0
  147.9236  136.4450  155.0205 N   0  0  0  0  0  0  0  0  0  0  0  0
  148.8747  135.5659  155.5958 C   0  0  0  0  0  0  0  0  0  0  0  0
  148.5732  134.4121  155.9052 O   0  0  0  0  0  0  0  0  0  0  0  0
  150.2063  136.1248  155.7997 C   0  0  0  0  0  0  0  0  0  0  0  0
  151.1711  135.3641  156.3443 F   0  0  0  0  0  0  0  0  0  0  0  0
  150.4857  137.3984  155.4542 C   0  0  0  0  0  0  0  0  0  0  0  0
  149.5475  138.2450  154.8921 N   0  0  0  0  0  0  0  0  0  0  0  0
  149.8872  139.6753  154.5337 C   0  0  1  0  0  0  0  0  0  0  0  0
  149.0516  140.6447  155.3768 C   0  0  0  0  0  0  0  0  0  0  0  0
  149.9695  140.9023  156.5517 C   0  0  0  0  0  0  0  0  0  0  0  0
  151.3394  140.8735  155.8830 C   0  0  0  0  0  0  0  0  0  0  0  0
  151.2329  139.9167  154.8308 O   0  0  0  0  0  0  0  0  0  0  0  0
  148.2318  137.7821  154.6735 C   0  0  0  0  0  0  0  0  0  0  0  0
  147.3718  138.5301  154.2028 O   0  0  0  0  0  0  0  0  0  0  0  0
  146.1595  133.0475  151.3594 C   0  0  0  0  0  0  0  0  0  0  0  0
  145.8222  132.1535  150.3790 C   0  0  0  0  0  0  0  0  0  0  0  0
  144.4876  132.4599  149.9944 C   0  0  0  0  0  0  0  0  0  0  0  0
  144.1093  133.5229  150.7635 C   0  0  0  0  0  0  0  0  0  0  0  0
  145.1173  133.8954  151.5978 O   0  0  0  0  0  0  0  0  0  0  0  0
  148.0640  131.2063  152.3170 H   0  0  0  0  0  0  0  0  0  0  0  0
  147.0836  131.7124  153.6866 H   0  0  0  0  0  0  0  0  0  0  0  0
  148.7549  132.2529  153.5491 H   0  0  0  0  0  0  0  0  0  0  0  0
  148.2013  133.5119  151.4866 H   0  0  0  0  0  0  0  0  0  0  0  0
  147.8638  135.2426  152.7966 H   0  0  0  0  0  0  0  0  0  0  0  0
  145.9520  136.6797  154.2437 H   0  0  0  0  0  0  0  0  0  0  0  0
  146.0130  135.8839  155.7671 H   0  0  0  0  0  0  0  0  0  0  0  0
  151.4868  137.7590  155.6366 H   0  0  0  0  0  0  0  0  0  0  0  0
  149.7244  139.7649  153.4586 H   0  0  0  0  0  0  0  0  0  0  0  0
  148.8971  141.5601  154.8043 H   0  0  0  0  0  0  0  0  0  0  0  0
  148.0806  140.2309  155.6513 H   0  0  0  0  0  0  0  0  0  0  0  0
  149.7617  141.8445  157.0593 H   0  0  0  0  0  0  0  0  0  0  0  0
  149.8853  140.0954  157.2807 H   0  0  0  0  0  0  0  0  0  0  0  0
  151.5674  141.8467  155.4465 H   0  0  0  0  0  0  0  0  0  0  0  0
  152.1404  140.6170  156.5768 H   0  0  0  0  0  0  0  0  0  0  0  0
  146.4559  131.3704  149.9897 H   0  0  0  0  0  0  0  0  0  0  0  0
  143.8818  131.9660  149.2491 H   0  0  0  0  0  0  0  0  0  0  0  0
  143.2053  134.1088  150.8418 H   0  0  0  0  0  0  0  0  0  0  0  0
  1  2  1  0  0  0  0
  1 26  1  0  0  0  0
  1 27  1  0  0  0  0
  1 28  1  0  0  0  0
  2  3  1  0  0  0  0
  2 21  1  0  0  0  0
  2 29  1  0  0  0  0
  3  4  1  0  0  0  0
  3 30  1  0  0  0  0
  4  5  2  0  0  0  0
  4  6  1  0  0  0  0
  6  7  1  0  0  0  0
  6 31  1  0  0  0  0
  6 32  1  0  0  0  0
  7 19  1  0  0  0  0
  7  8  1  0  0  0  0
  8  9  2  0  0  0  0
  8 10  1  0  0  0  0
 10 11  1  0  0  0  0
 10 12  2  0  0  0  0
 12 13  1  0  0  0  0
 12 33  1  0  0  0  0
 13 14  1  0  0  0  0
 13 19  1  0  0  0  0
 14 18  1  0  0  0  0
 14 15  1  0  0  0  0
 14 34  1  0  0  0  0
 15 16  1  0  0  0  0
 15 35  1  0  0  0  0
 15 36  1  0  0  0  0
 16 17  1  0  0  0  0
 16 37  1  0  0  0  0
 16 38  1  0  0  0  0
 17 18  1  0  0  0  0
 17 39  1  0  0  0  0
 17 40  1  0  0  0  0
 19 20  2  0  0  0  0
 21 25  1  0  0  0  0
 21 22  2  0  0  0  0
 22 23  1  0  0  0  0
 22 41  1  0  0  0  0
 23 24  2  0  0  0  0
 23 42  1  0  0  0  0
 24 25  1  0  0  0  0
 24 43  1  0  0  0  0
M  END
> <s_m_source_file>
AV-unprocessed.smi

> <i_m_source_file_index>
123

> <i_lp_mmshare_version>
43012

> <i_f3d_flags>
0

> <s_epik_input>
bzFbY0hdW2NIXVtjSF1jMVtDQEhdKFtDSDNdKVtOSF1DKD1PKVtDSDJdbjJjKD1PKWMoRilbY0hdbihjMj1PKVtDQEBIXTNbQ0gyXVtDSDJdW0NIMl1PMw==

> <s_epik_cmdline>
J2VwaWtfcHl0aG9uJywgJy1waCcsICc3LjAnLCAnLXRuJywgJzgnLCAnLW1hJywgJzIwMCcsICctbWV0YWxfYmluZGluZycsICctaW1hZScsICc8aW5maWxlLm1hZT4nLCAnLW9tYWUnLCAnPG91dGZpbGUubWFlPic=

> <r_lp_tautomer_probability>
1

> <r_epik_Ionization_Penalty>
2.31906e-08

> <r_epik_Ionization_Penalty_Charging>
3.85846e-09

> <r_epik_Ionization_Penalty_Neutral>
1.93321e-08

> <r_epik_State_Penalty>
-0

> <r_epik_Charging_Adjusted_Penalty>
3.85846e-09

> <i_epik_Tot_Q>
0

> <i_epik_Tot_abs_Q>
0

> <r_epik_Metal_State_Penalty>
-0

> <b_epik_Metal_Only>
0

> <s_epik_Chemistry_Notes>
This compound contains an acetal/aminal-like group ( X-CH(R)-Y where X, Y are N, S, or O) that may be acid/base labile, releasing an aldehyde.

> <s_lp_Force_Field>
OPLS_2005

> <r_lp_Energy>
21.1126

> <b_lp_Chiralities_Consistent>
1

> <s_lp_Variant>
AV-unprocessed.smi:123-3

> <Gold.Version>
5.8.1

> <Gold.Id.Protein>
6NUR|6NUR_protein|mol2

> <Gold.PLP.Fitness>
42.1925

> <Gold.PLP.PLP>
-33.8328

> <Gold.PLP.part.hbond>
-2.0000

> <Gold.PLP.part.metal>
0.0000

> <Gold.PLP.part.buried>
-5.4202

> <Gold.PLP.part.nonpolar>
-27.0277

> <Gold.PLP.part.repulsive>
0.4278

> <Gold.PLP.ligand.clash>
0.0000

> <Gold.PLP.ligand.torsion>
0.3929

> <Gold.PLP.Chemscore.Hbond>
2.0000

> <Gold.PLP.Chemscore.CHOScore>
1.0000

> <Gold.PLP.Chemscore.Metal>
0.0000

> <Gold.Chemscore.Hbonds>
donor molecule, donor type, donor heavy atom, donor atom, acceptor molecule, acceptor atom, score
      L1  H     3    30       P1  7948  1.00
      P1  H  7989  7998       L1    18  1.00
      L1  C    24    43       P1 10186  0.92

> <Gold.PLP.Chemscore.Internal.Correction>
0.1456

> <Gold.Rescore>
     Score         DG    S(hbond)    S(metal)    S(lipo)     H(rot)  DE(clash)    DE(int)     intcor
      7.77     -13.41       1.69        0.00      68.44       2.23       0.02       5.62       ----

> <Gold.Chemscore.Fitness>
7.7683

> <Gold.Chemscore.DG>
-13.4092

> <Gold.Chemscore.ZeroCoef>
-5.4800

> <Gold.Chemscore.Hbond>
1.6893

> <Gold.Chemscore.Metal>
0.0000

> <Gold.Chemscore.Lipo>
68.4418

> <Gold.Chemscore.Internal_Hbond>
0.0000

> <Gold.Chemscore.DEClash>
0.0237

> <Gold.Chemscore.DEInternal>
5.6173

> <Gold.Chemscore.Rot>
2.2347

> <Gold.Chemscore.Internal.Correction>
   9.000000E+99

> <Gold.Chemscore.Hbonds>
donor molecule, donor type, donor heavy atom, donor atom, acceptor molecule, acceptor atom, score
      L1  H     3    30       P1  7948  0.99
      P1  H  7989  7998       L1    18  0.08

> <Gold.Chemscore.Hbond.Weighted>
-5.6423

> <Gold.Chemscore.Metal.Weighted>
-0.0000

> <Gold.Chemscore.Lipo.Weighted>
-8.0077

> <Gold.Chemscore.Internal_Hbond.Weighted>
0.0000

> <Gold.Chemscore.DEClash.Weighted>
0.0237

> <Gold.Chemscore.DEInternal.Weighted>
5.6173

> <Gold.Chemscore.Rot.Weighted>
5.7208

> <Gold.Chemscore.Internal.Correction.Weighted>
   9.000000E+99

> <Gold.Protein.RotatedTorsions>
[ 6907 6896 6895 6894 ] final  161.78 input  -60.11 | X-H torsion
[ 7974 7965 7964 7962 ] final  112.77 input  175.53 | X-H torsion
[ 8008 7997 7996 7995 ] final   90.63 input   59.86 | X-H torsion
[ 10167 10162 10161 10158 ] final  -12.27 input  -65.29 | X-H torsion
[ 10718 10713 10712 10709 ] final  -59.12 input   66.30 | X-H torsion
[ 10763 10752 10751 10750 ] final -134.50 input  -60.55 | X-H torsion
[ 11005 11000 10999 10996 ] final  113.78 input  -57.11 | X-H torsion

> <Gold.Protein.ActiveResidues>
 VAL166  LYS551  ARG553  GLY616  TRP617  ASP618  TYR619  PRO620  LYS621  CYS622 
 ASP623  PHE694  ASN695  SER759  ASP760  ASP761  ALA762  ILE779  LEU786  VAL792 
 PHE793  MET794  SER795  GLU796  ALA797  LYS798  CYS799  TRP800  GLU811  SER814 

> <Gold.Protein.RotatedAtoms>
  151.9504  133.3664  159.3997 H   0  0  0  0  0  0  0  0  0  0  0  0  # atno 6907 bound_to 6896
  150.6982  134.4346  159.5273 H   0  0  0  0  0  0  0  0  0  0  0  0  # atno 6908 bound_to 6896
  152.2018  134.8581  160.0558 H   0  0  0  0  0  0  0  0  0  0  0  0  # atno 6909 bound_to 6896
  145.2254  139.2843  143.4196 H   0  0  0  0  0  0  0  0  0  0  0  0  # atno 7974 bound_to 7965
  156.0142  140.3347  155.6972 H   0  0  0  0  0  0  0  0  0  0  0  0  # atno 8008 bound_to 7997
  155.6114  140.0665  157.2722 H   0  0  0  0  0  0  0  0  0  0  0  0  # atno 8009 bound_to 7997
  154.4292  140.1793  156.1264 H   0  0  0  0  0  0  0  0  0  0  0  0  # atno 8010 bound_to 7997
  140.7157  143.5551  150.9258 H   0  0  0  0  0  0  0  0  0  0  0  0  # atno 10167 bound_to 10162
  156.1085  130.4177  150.0671 H   0  0  0  0  0  0  0  0  0  0  0  0  # atno 10718 bound_to 10713
  154.8718  135.3732  154.4745 H   0  0  0  0  0  0  0  0  0  0  0  0  # atno 10763 bound_to 10752
  153.5403  135.7026  153.5645 H   0  0  0  0  0  0  0  0  0  0  0  0  # atno 10764 bound_to 10752
  153.3809  135.3997  155.1821 H   0  0  0  0  0  0  0  0  0  0  0  0  # atno 10765 bound_to 10752
  139.8962  134.9556  156.6791 H   0  0  0  0  0  0  0  0  0  0  0  0  # atno 11005 bound_to 11000
  146.3366  140.2572  142.8600 LP  0  0  0  0  0  0  0  0  0  0  0  0  # atno 17320 bound_to 7965
  144.9726  140.8383  143.5446 LP  0  0  0  0  0  0  0  0  0  0  0  0  # atno 17321 bound_to 7965
  139.9275  143.6532  152.3083 LP  0  0  0  0  0  0  0  0  0  0  0  0  # atno 17342 bound_to 10162
  139.6971  144.7640  151.1337 LP  0  0  0  0  0  0  0  0  0  0  0  0  # atno 17343 bound_to 10162
  156.8640  130.9501  151.3615 LP  0  0  0  0  0  0  0  0  0  0  0  0  # atno 17370 bound_to 10713
  157.6264  130.8695  149.9197 LP  0  0  0  0  0  0  0  0  0  0  0  0  # atno 17371 bound_to 10713
  140.7313  133.9056  155.8213 LP  0  0  0  0  0  0  0  0  0  0  0  0  # atno 17394 bound_to 11000
  141.0150  134.0967  157.4181 LP  0  0  0  0  0  0  0  0  0  0  0  0  # atno 17395 bound_to 11000

$$$$
