AV-unprocessed.smi:2540|AV-procd|sdf|9988|dock10
  -GOLD-   2272014 33D 1   1.00000     0.00000
 Structure written by MMmdl.
 27 28  0  0  0  0  0  0  0  0  1 V2000
  150.4220  139.1292  154.7032 C   0  0  0  0  0  0  0  0  0  0  0  0
  150.5258  140.5355  154.8353 O   0  0  0  0  0  0  0  0  0  0  0  0
  151.3115  140.9227  155.9512 C   0  0  0  0  0  0  0  0  0  0  0  0
  150.5056  141.8759  156.8445 C   0  0  0  0  0  0  0  0  0  0  0  0
  151.3068  142.4123  157.9360 N   0  0  0  0  0  0  0  0  0  0  0  0
  151.4109  143.6977  158.3486 C   0  0  0  0  0  0  0  0  0  0  0  0
  150.6958  144.6935  157.6995 N   0  0  0  0  0  0  0  0  0  0  0  0
  152.2186  143.9298  159.3802 N   0  0  0  0  0  0  0  0  0  0  0  0
  152.6971  142.6645  159.6662 C   0  0  0  0  0  0  0  0  0  0  0  0
  153.6050  142.2301  160.6586 C   0  0  0  0  0  0  0  0  0  0  0  0
  153.9551  140.8675  160.7588 C   0  0  0  0  0  0  0  0  0  0  0  0
  153.4031  139.9210  159.8713 C   0  0  0  0  0  0  0  0  0  0  0  0
  152.4946  140.3312  158.8766 C   0  0  0  0  0  0  0  0  0  0  0  0
  152.1477  141.6922  158.7800 C   0  0  0  0  0  0  0  0  0  0  0  0
  149.8077  138.8883  153.8358 H   0  0  0  0  0  0  0  0  0  0  0  0
  149.9548  138.6829  155.5820 H   0  0  0  0  0  0  0  0  0  0  0  0
  151.4026  138.6741  154.5576 H   0  0  0  0  0  0  0  0  0  0  0  0
  151.6129  140.0415  156.5201 H   0  0  0  0  0  0  0  0  0  0  0  0
  152.2219  141.4188  155.6117 H   0  0  0  0  0  0  0  0  0  0  0  0
  150.1013  142.6998  156.2558 H   0  0  0  0  0  0  0  0  0  0  0  0
  149.6468  141.3535  157.2674 H   0  0  0  0  0  0  0  0  0  0  0  0
  150.0924  144.4814  156.9178 H   0  0  0  0  0  0  0  0  0  0  0  0
  150.7557  145.6601  157.9849 H   0  0  0  0  0  0  0  0  0  0  0  0
  154.0344  142.9473  161.3422 H   0  0  0  0  0  0  0  0  0  0  0  0
  154.6519  140.5474  161.5194 H   0  0  0  0  0  0  0  0  0  0  0  0
  153.6781  138.8797  159.9537 H   0  0  0  0  0  0  0  0  0  0  0  0
  152.0727  139.6094  158.1931 H   0  0  0  0  0  0  0  0  0  0  0  0
  1  2  1  0  0  0  0
  1 15  1  0  0  0  0
  1 16  1  0  0  0  0
  1 17  1  0  0  0  0
  2  3  1  0  0  0  0
  3  4  1  0  0  0  0
  3 18  1  0  0  0  0
  3 19  1  0  0  0  0
  4  5  1  0  0  0  0
  4 20  1  0  0  0  0
  4 21  1  0  0  0  0
  5 14  1  0  0  0  0
  5  6  1  0  0  0  0
  6  7  1  0  0  0  0
  6  8  2  0  0  0  0
  7 22  1  0  0  0  0
  7 23  1  0  0  0  0
  8  9  1  0  0  0  0
  9 14  2  0  0  0  0
  9 10  1  0  0  0  0
 10 11  2  0  0  0  0
 10 24  1  0  0  0  0
 11 12  1  0  0  0  0
 11 25  1  0  0  0  0
 12 13  2  0  0  0  0
 12 26  1  0  0  0  0
 13 14  1  0  0  0  0
 13 27  1  0  0  0  0
M  END
> <s_m_source_file>
AV-unprocessed.smi

> <i_m_source_file_index>
2540

> <i_lp_mmshare_version>
43012

> <i_f3d_flags>
0

> <s_epik_input>
W0NIM11PW0NIMl1bQ0gyXW4oYyhuMSlbTkgyXSljKGMxMilbY0hdW2NIXVtjSF1bY0hdMg==

> <s_epik_cmdline>
J2VwaWtfcHl0aG9uJywgJy1waCcsICc3LjAnLCAnLXRuJywgJzgnLCAnLW1hJywgJzIwMCcsICctbWV0YWxfYmluZGluZycsICctaW1hZScsICc8aW5maWxlLm1hZT4nLCAnLW9tYWUnLCAnPG91dGZpbGUubWFlPic=

> <r_epik_Ionization_Penalty>
0.602407

> <r_epik_Ionization_Penalty_Charging>
0

> <r_epik_Ionization_Penalty_Neutral>
0.602407

> <r_epik_State_Penalty>
0.616889

> <r_epik_Charging_Adjusted_Penalty>
0.616889

> <i_epik_Tot_Q>
0

> <i_epik_Tot_abs_Q>
0

> <r_epik_Metal_State_Penalty>
0.00108478

> <b_epik_Metal_Only>
0

> <s_lp_Force_Field>
OPLS_2005

> <r_lp_Energy>
6.7443

> <b_lp_Chiralities_Consistent>
1

> <s_lp_Variant>
AV-unprocessed.smi:2540-2

> <Gold.Version>
5.8.1

> <Gold.Id.Protein>
6NUR|6NUR_protein|mol2

> <Gold.PLP.Fitness>
38.7331

> <Gold.PLP.PLP>
-33.7850

> <Gold.PLP.part.hbond>
-2.8550

> <Gold.PLP.part.metal>
0.0000

> <Gold.PLP.part.buried>
-3.5733

> <Gold.PLP.part.nonpolar>
-26.6550

> <Gold.PLP.part.repulsive>
0.1951

> <Gold.PLP.ligand.clash>
0.0000

> <Gold.PLP.ligand.torsion>
0.5264

> <Gold.PLP.Chemscore.Hbond>
2.0000

> <Gold.PLP.Chemscore.CHOScore>
0.0000

> <Gold.PLP.Chemscore.Metal>
0.0000

> <Gold.Chemscore.Hbonds>
donor molecule, donor type, donor heavy atom, donor atom, acceptor molecule, acceptor atom, score
      L1  H     7    22       P1  8028  1.00
      P1  H  7989  7998       L1     2  0.99

> <Gold.PLP.Chemscore.Internal.Correction>
0.0009

> <Gold.Rescore>
     Score         DG    S(hbond)    S(metal)    S(lipo)     H(rot)  DE(clash)    DE(int)     intcor
     15.53     -16.24       1.66        0.00      76.37       1.46       0.13       0.58       ----

> <Gold.Chemscore.Fitness>
15.5273

> <Gold.Chemscore.DG>
-16.2391

> <Gold.Chemscore.ZeroCoef>
-5.4800

> <Gold.Chemscore.Hbond>
1.6648

> <Gold.Chemscore.Metal>
0.0000

> <Gold.Chemscore.Lipo>
76.3744

> <Gold.Chemscore.Internal_Hbond>
0.0000

> <Gold.Chemscore.DEClash>
0.1334

> <Gold.Chemscore.DEInternal>
0.5784

> <Gold.Chemscore.Rot>
1.4598

> <Gold.Chemscore.Internal.Correction>
   9.000000E+99

> <Gold.Chemscore.Hbonds>
donor molecule, donor type, donor heavy atom, donor atom, acceptor molecule, acceptor atom, score
      L1  H     7    22       P1  8028  0.74
      P1  H  7989  7998       L1     2  0.07

> <Gold.Chemscore.Hbond.Weighted>
-5.5604

> <Gold.Chemscore.Metal.Weighted>
-0.0000

> <Gold.Chemscore.Lipo.Weighted>
-8.9358

> <Gold.Chemscore.Internal_Hbond.Weighted>
0.0000

> <Gold.Chemscore.DEClash.Weighted>
0.1334

> <Gold.Chemscore.DEInternal.Weighted>
0.5784

> <Gold.Chemscore.Rot.Weighted>
3.7371

> <Gold.Chemscore.Internal.Correction.Weighted>
   9.000000E+99

> <Gold.Protein.RotatedTorsions>
[ 6907 6896 6895 6894 ] final   78.30 input  -60.11 | X-H torsion
[ 7974 7965 7964 7962 ] final   78.78 input  175.53 | X-H torsion
[ 8008 7997 7996 7995 ] final   51.98 input   59.86 | X-H torsion
[ 10167 10162 10161 10158 ] final  -50.09 input  -65.29 | X-H torsion
[ 10718 10713 10712 10709 ] final  -53.00 input   66.30 | X-H torsion
[ 10763 10752 10751 10750 ] final   83.13 input  -60.55 | X-H torsion
[ 11005 11000 10999 10996 ] final -129.72 input  -57.11 | X-H torsion

> <Gold.Protein.ActiveResidues>
 VAL166  LYS551  ARG553  GLY616  TRP617  ASP618  TYR619  PRO620  LYS621  CYS622 
 ASP623  PHE694  ASN695  SER759  ASP760  ASP761  ALA762  ILE779  LEU786  VAL792 
 PHE793  MET794  SER795  GLU796  ALA797  LYS798  CYS799  TRP800  GLU811  SER814 

> <Gold.Protein.RotatedAtoms>
  152.5153  134.3686  159.9309 H   0  0  0  0  0  0  0  0  0  0  0  0  # atno 6907 bound_to 6896
  151.3640  133.3873  159.2700 H   0  0  0  0  0  0  0  0  0  0  0  0  # atno 6908 bound_to 6896
  150.9630  134.9034  159.7800 H   0  0  0  0  0  0  0  0  0  0  0  0  # atno 6909 bound_to 6896
  145.6727  139.2501  143.1859 H   0  0  0  0  0  0  0  0  0  0  0  0  # atno 7974 bound_to 7965
  155.4442  140.3455  155.4293 H   0  0  0  0  0  0  0  0  0  0  0  0  # atno 8008 bound_to 7997
  156.1260  140.1500  156.9166 H   0  0  0  0  0  0  0  0  0  0  0  0  # atno 8009 bound_to 7997
  154.4858  140.0855  156.7463 H   0  0  0  0  0  0  0  0  0  0  0  0  # atno 8010 bound_to 7997
  140.6654  143.2671  151.4309 H   0  0  0  0  0  0  0  0  0  0  0  0  # atno 10167 bound_to 10162
  156.1573  130.4150  149.9849 H   0  0  0  0  0  0  0  0  0  0  0  0  # atno 10718 bound_to 10713
  153.1264  135.4702  154.9278 H   0  0  0  0  0  0  0  0  0  0  0  0  # atno 10763 bound_to 10752
  154.7624  135.3135  154.8355 H   0  0  0  0  0  0  0  0  0  0  0  0  # atno 10764 bound_to 10752
  153.8908  135.6885  153.4814 H   0  0  0  0  0  0  0  0  0  0  0  0  # atno 10765 bound_to 10752
  140.9408  134.1196  157.4153 H   0  0  0  0  0  0  0  0  0  0  0  0  # atno 11005 bound_to 11000
  146.1032  140.7519  142.9539 LP  0  0  0  0  0  0  0  0  0  0  0  0  # atno 17320 bound_to 7965
  144.7051  140.3820  143.7124 LP  0  0  0  0  0  0  0  0  0  0  0  0  # atno 17321 bound_to 7965
  139.5901  144.1517  152.2078 LP  0  0  0  0  0  0  0  0  0  0  0  0  # atno 17342 bound_to 10162
  140.0869  144.5653  150.7082 LP  0  0  0  0  0  0  0  0  0  0  0  0  # atno 17343 bound_to 10162
  156.7689  130.9179  151.3644 LP  0  0  0  0  0  0  0  0  0  0  0  0  # atno 17370 bound_to 10713
  157.6705  130.9046  150.0029 LP  0  0  0  0  0  0  0  0  0  0  0  0  # atno 17371 bound_to 10713
  139.8820  135.0036  156.6195 LP  0  0  0  0  0  0  0  0  0  0  0  0  # atno 17394 bound_to 11000
  140.7737  133.8717  155.8512 LP  0  0  0  0  0  0  0  0  0  0  0  0  # atno 17395 bound_to 11000

$$$$
