AV-unprocessed.smi:160|AV-procd|sdf|1369|dock9
  -GOLD-   2262019 83D 1   1.00000     0.00000
 Structure written by MMmdl.
 28 29  0  0  0  0  0  0  0  0  2 V2000
  152.3122  137.5999  153.7659 N   0  5  0  0  0  0  0  0  0  0  0  0
  152.8358  138.5076  154.6183 C   0  0  0  0  0  0  0  0  0  0  0  0
  154.0300  138.6627  154.8722 O   0  0  0  0  0  0  0  0  0  0  0  0
  151.8167  139.3933  155.2951 C   0  0  0  0  0  0  0  0  0  0  0  0
  152.0753  139.9423  156.5209 N   0  0  0  0  0  0  0  0  0  0  0  0
  150.9441  140.6116  156.6967 C   0  0  0  0  0  0  0  0  0  0  0  0
  150.0760  140.4978  155.6876 N   0  0  0  0  0  0  0  0  0  0  0  0
  148.7102  141.0985  155.5294 C   0  0  2  0  0  0  0  0  0  0  0  0
  147.7617  140.1518  155.9213 O   0  0  0  0  0  0  0  0  0  0  0  0
  147.1649  139.5641  154.7703 C   0  0  1  0  0  0  0  0  0  0  0  0
  145.8175  138.9049  155.1151 C   0  0  0  0  0  0  0  0  0  0  0  0
  145.1342  138.5442  153.9339 O   0  0  0  0  0  0  0  0  0  0  0  0
  147.0930  140.7457  153.7920 C   0  0  1  0  0  0  0  0  0  0  0  0
  145.9639  141.5590  154.0584 O   0  0  0  0  0  0  0  0  0  0  0  0
  148.3781  141.5172  154.0755 C   0  0  2  0  0  0  0  0  0  0  0  0
  149.3708  141.1811  153.1219 O   0  0  0  0  0  0  0  0  0  0  0  0
  150.6317  139.6883  154.7514 N   0  0  0  0  0  0  0  0  0  0  0  0
  148.7026  141.9358  156.2282 H   0  0  0  0  0  0  0  0  0  0  0  0
  147.8450  138.8192  154.3534 H   0  0  0  0  0  0  0  0  0  0  0  0
  147.0247  140.4078  152.7568 H   0  0  0  0  0  0  0  0  0  0  0  0
  148.2246  142.5966  154.0371 H   0  0  0  0  0  0  0  0  0  0  0  0
  151.4234  137.8220  153.3015 H   0  0  0  0  0  0  0  0  0  0  0  0
  150.7452  141.2012  157.5795 H   0  0  0  0  0  0  0  0  0  0  0  0
  145.9529  138.0313  155.7535 H   0  0  0  0  0  0  0  0  0  0  0  0
  145.1829  139.6086  155.6545 H   0  0  0  0  0  0  0  0  0  0  0  0
  144.8992  139.3320  153.4684 H   0  0  0  0  0  0  0  0  0  0  0  0
  145.2276  141.2154  153.5761 H   0  0  0  0  0  0  0  0  0  0  0  0
  149.8925  140.4725  153.4659 H   0  0  0  0  0  0  0  0  0  0  0  0
  1  2  1  0  0  0  0
  1 22  1  0  0  0  0
  2  3  2  0  0  0  0
  2  4  1  0  0  0  0
  4 17  2  0  0  0  0
  4  5  1  0  0  0  0
  5  6  2  0  0  0  0
  6  7  1  0  0  0  0
  6 23  1  0  0  0  0
  7  8  1  0  0  0  0
  7 17  1  0  0  0  0
  8 18  1  0  0  0  0
  8 15  1  0  0  0  0
  8  9  1  0  0  0  0
  9 10  1  0  0  0  0
 10 19  1  0  0  0  0
 10 11  1  0  0  0  0
 10 13  1  0  0  0  0
 11 12  1  0  0  0  0
 11 24  1  0  0  0  0
 11 25  1  0  0  0  0
 12 26  1  0  0  0  0
 13 20  1  0  0  0  0
 13 14  1  0  0  0  0
 13 15  1  0  0  0  0
 14 27  1  0  0  0  0
 15 21  1  0  0  0  0
 15 16  1  0  0  0  0
 16 28  1  0  0  0  0
M  CHG  1   1  -1
M  END
> <s_m_source_file>
AV-unprocessed.smi

> <i_m_source_file_index>
160

> <i_lp_mmshare_version>
43012

> <i_f3d_flags>
0

> <s_epik_input>
W05IMl1DKD1PKWMxbltjSF1uKG4xKVtDQEBIXTJPW0NASF0oW0NIMl1bT0hdKVtDQEBIXShbT0hdKVtDQEhdMltPSF0=

> <s_epik_cmdline>
J2VwaWtfcHl0aG9uJywgJy1waCcsICc3LjAnLCAnLXRuJywgJzgnLCAnLW1hJywgJzIwMCcsICctbWV0YWxfYmluZGluZycsICctaW1hZScsICc8aW5maWxlLm1hZT4nLCAnLW9tYWUnLCAnPG91dGZpbGUubWFlPic=

> <r_lp_tautomer_probability>
1

> <r_epik_Ionization_Penalty>
6.6993

> <r_epik_Ionization_Penalty_Charging>
6.6993

> <r_epik_Ionization_Penalty_Neutral>
6.01698e-06

> <r_epik_State_Penalty>
6.69929

> <r_epik_Charging_Adjusted_Penalty>
13.3986

> <i_epik_Tot_Q>
-1

> <i_epik_Tot_abs_Q>
1

> <r_epik_Metal_State_Penalty>
2.62798

> <b_epik_Metal_Only>
1

> <s_epik_Chemistry_Notes>
This compound contains an acetal/aminal-like group ( X-CH(R)-Y where X, Y are N, S, or O) that may be acid/base labile, releasing an aldehyde.

> <s_lp_Force_Field>
OPLS_2005

> <r_lp_Energy>
46.3304

> <b_lp_Chiralities_Consistent>
1

> <s_lp_Variant>
AV-unprocessed.smi:160-27

> <Gold.Version>
5.8.1

> <Gold.Id.Protein>
6NUR|6NUR_protein|mol2

> <Gold.PLP.Fitness>
43.9466

> <Gold.PLP.PLP>
-28.6211

> <Gold.PLP.part.hbond>
-8.0772

> <Gold.PLP.part.metal>
0.0000

> <Gold.PLP.part.buried>
-4.2682

> <Gold.PLP.part.nonpolar>
-17.0894

> <Gold.PLP.part.repulsive>
0.0931

> <Gold.PLP.ligand.clash>
0.0000

> <Gold.PLP.ligand.torsion>
1.0109

> <Gold.PLP.Chemscore.Hbond>
5.7803

> <Gold.PLP.Chemscore.CHOScore>
0.0000

> <Gold.PLP.Chemscore.Metal>
0.0000

> <Gold.Chemscore.Hbonds>
donor molecule, donor type, donor heavy atom, donor atom, acceptor molecule, acceptor atom, score
      L1  H    12    26       P1 10175  1.00
      L1  H    14    27       P1 10175  1.00
      P1  H  7989  7998       L1    17  0.35
      P1  H  7997  8008       L1     3  0.66
      P1  H  8011  8017       L1    16  0.98
      P1  H 10752 10764       L1     1  1.70

> <Gold.PLP.Chemscore.Internal.Correction>
0.0065

> <Gold.Rescore>
     Score         DG    S(hbond)    S(metal)    S(lipo)     H(rot)  DE(clash)    DE(int)     intcor
      8.84     -11.76       4.41        0.00      16.22       4.04       0.00       2.91       ----

> <Gold.Chemscore.Fitness>
8.8443

> <Gold.Chemscore.DG>
-11.7592

> <Gold.Chemscore.ZeroCoef>
-5.4800

> <Gold.Chemscore.Hbond>
4.4084

> <Gold.Chemscore.Metal>
0.0000

> <Gold.Chemscore.Lipo>
16.2244

> <Gold.Chemscore.Internal_Hbond>
0.0000

> <Gold.Chemscore.DEClash>
0.0000

> <Gold.Chemscore.DEInternal>
2.9149

> <Gold.Chemscore.Rot>
4.0403

> <Gold.Chemscore.Internal.Correction>
   9.000000E+99

> <Gold.Chemscore.Hbonds>
donor molecule, donor type, donor heavy atom, donor atom, acceptor molecule, acceptor atom, score
      L1  H    12    26       P1 10175  0.96
      L1  H    14    27       P1 10175  0.37
      P1  H  7997  8008       L1     3  0.61
      P1  H  8011  8017       L1    16  0.72
      P1  H 10752 10764       L1     1  0.68

> <Gold.Chemscore.Hbond.Weighted>
-14.7240

> <Gold.Chemscore.Metal.Weighted>
-0.0000

> <Gold.Chemscore.Lipo.Weighted>
-1.8983

> <Gold.Chemscore.Internal_Hbond.Weighted>
0.0000

> <Gold.Chemscore.DEClash.Weighted>
0.0000

> <Gold.Chemscore.DEInternal.Weighted>
2.9149

> <Gold.Chemscore.Rot.Weighted>
10.3431

> <Gold.Chemscore.Internal.Correction.Weighted>
   9.000000E+99

> <Gold.Protein.RotatedTorsions>
[ 6907 6896 6895 6894 ] final  167.36 input  -60.11 | X-H torsion
[ 7974 7965 7964 7962 ] final   95.48 input  175.53 | X-H torsion
[ 8008 7997 7996 7995 ] final  -21.03 input   59.86 | X-H torsion
[ 10167 10162 10161 10158 ] final  -68.83 input  -65.29 | X-H torsion
[ 10718 10713 10712 10709 ] final  154.63 input   66.30 | X-H torsion
[ 10763 10752 10751 10750 ] final  -96.31 input  -60.55 | X-H torsion
[ 11005 11000 10999 10996 ] final   52.07 input  -57.11 | X-H torsion

> <Gold.Protein.ActiveResidues>
 VAL166  LYS551  ARG553  GLY616  TRP617  ASP618  TYR619  PRO620  LYS621  CYS622 
 ASP623  PHE694  ASN695  SER759  ASP760  ASP761  ALA762  ILE779  LEU786  VAL792 
 PHE793  MET794  SER795  GLU796  ALA797  LYS798  CYS799  TRP800  GLU811  SER814 

> <Gold.Protein.RotatedAtoms>
  151.8645  133.3463  159.3714 H   0  0  0  0  0  0  0  0  0  0  0  0  # atno 6907 bound_to 6896
  150.7170  134.5174  159.5646 H   0  0  0  0  0  0  0  0  0  0  0  0  # atno 6908 bound_to 6896
  152.2694  134.7950  160.0468 H   0  0  0  0  0  0  0  0  0  0  0  0  # atno 6909 bound_to 6896
  145.4517  139.2293  143.3036 H   0  0  0  0  0  0  0  0  0  0  0  0  # atno 7974 bound_to 7965
  154.4731  140.2046  155.9944 H   0  0  0  0  0  0  0  0  0  0  0  0  # atno 8008 bound_to 7997
  156.1045  140.3239  155.7957 H   0  0  0  0  0  0  0  0  0  0  0  0  # atno 8009 bound_to 7997
  155.4741  140.0533  157.2966 H   0  0  0  0  0  0  0  0  0  0  0  0  # atno 8010 bound_to 7997
  140.5477  143.2312  151.6970 H   0  0  0  0  0  0  0  0  0  0  0  0  # atno 10167 bound_to 10162
  157.2291  131.0735  151.1864 H   0  0  0  0  0  0  0  0  0  0  0  0  # atno 10718 bound_to 10713
  154.7228  135.5088  153.8839 H   0  0  0  0  0  0  0  0  0  0  0  0  # atno 10763 bound_to 10752
  153.0878  135.6650  153.9923 H   0  0  0  0  0  0  0  0  0  0  0  0  # atno 10764 bound_to 10752
  153.9742  135.3035  155.3404 H   0  0  0  0  0  0  0  0  0  0  0  0  # atno 10765 bound_to 10752
  140.0880  134.5248  155.8880 H   0  0  0  0  0  0  0  0  0  0  0  0  # atno 11005 bound_to 11000
  146.2501  140.5276  142.8897 LP  0  0  0  0  0  0  0  0  0  0  0  0  # atno 17320 bound_to 7965
  144.8058  140.6296  143.6448 LP  0  0  0  0  0  0  0  0  0  0  0  0  # atno 17321 bound_to 7965
  139.5014  144.3868  152.0320 LP  0  0  0  0  0  0  0  0  0  0  0  0  # atno 17342 bound_to 10162
  140.2982  144.3676  150.6068 LP  0  0  0  0  0  0  0  0  0  0  0  0  # atno 17343 bound_to 10162
  157.3497  130.7075  149.6433 LP  0  0  0  0  0  0  0  0  0  0  0  0  # atno 17370 bound_to 10713
  155.9676  130.4256  150.4661 LP  0  0  0  0  0  0  0  0  0  0  0  0  # atno 17371 bound_to 10713
  141.2068  133.6659  156.6269 LP  0  0  0  0  0  0  0  0  0  0  0  0  # atno 17394 bound_to 11000
  140.3393  134.7862  157.4386 LP  0  0  0  0  0  0  0  0  0  0  0  0  # atno 17395 bound_to 11000

$$$$
