AV-unprocessed.smi:1644|AV-procd|sdf|6589|dock10
  -GOLD-   22720 7283D 1   1.00000     0.00000
 Structure written by MMmdl.
 50 52  0  0  0  0  0  0  0  0  2 V2000
  147.6461  133.9792  162.4683 C   0  0  0  0  0  0  0  0  0  0  0  0
  147.2936  135.4394  162.1654 C   0  0  0  0  0  0  0  0  0  0  0  0
  146.8011  135.6348  160.7169 C   0  0  0  0  0  0  0  0  0  0  0  0
  147.8863  135.5520  159.6189 C   0  0  1  0  0  0  0  0  0  0  0  0
  147.3873  135.8668  158.2948 N   0  0  0  0  0  0  0  0  0  0  0  0
  148.0459  136.8867  157.7284 C   0  0  0  0  0  0  0  0  0  0  0  0
  147.8298  137.3332  156.6025 O   0  0  0  0  0  0  0  0  0  0  0  0
  148.9782  137.3244  158.5949 N   0  0  0  0  0  0  0  0  0  0  0  0
  149.9020  138.4300  158.3245 C   0  0  0  0  0  0  0  0  0  0  0  0
  150.5911  138.2752  156.9539 C   0  0  2  0  0  0  0  0  0  0  0  0
  151.1306  136.9714  156.8565 O   0  0  0  0  0  0  0  0  0  0  0  0
  151.7407  139.2858  156.7762 C   0  0  0  0  0  0  0  0  0  0  0  0
  151.2709  140.6762  156.7434 N   0  0  0  0  0  0  0  0  0  0  0  0
  150.5054  141.3229  155.8236 C   0  0  0  0  0  0  0  0  0  0  0  0
  150.3452  142.6056  156.2532 N   0  3  0  0  0  0  0  0  0  0  0  0
  151.0179  142.7784  157.4655 C   0  0  0  0  0  0  0  0  0  0  0  0
  151.1465  143.8920  158.2873 C   0  0  0  0  0  0  0  0  0  0  0  0
  151.9058  143.7373  159.4695 C   0  0  0  0  0  0  0  0  0  0  0  0
  152.0664  144.9349  160.3905 C   0  0  0  0  0  0  0  0  0  0  0  0
  152.5066  142.4931  159.7944 C   0  0  0  0  0  0  0  0  0  0  0  0
  153.3181  142.3364  161.0691 C   0  0  0  0  0  0  0  0  0  0  0  0
  152.3661  141.3730  158.9445 C   0  0  0  0  0  0  0  0  0  0  0  0
  151.6145  141.5437  157.7847 C   0  0  0  0  0  0  0  0  0  0  0  0
  148.9688  136.6105  159.7277 C   0  0  0  0  0  0  0  0  0  0  0  0
  149.6996  136.7530  160.7076 O   0  0  0  0  0  0  0  0  0  0  0  0
  147.9900  133.8677  163.4967 H   0  0  0  0  0  0  0  0  0  0  0  0
  148.4399  133.6221  161.8115 H   0  0  0  0  0  0  0  0  0  0  0  0
  146.7813  133.3288  162.3345 H   0  0  0  0  0  0  0  0  0  0  0  0
  146.5283  135.7706  162.8676 H   0  0  0  0  0  0  0  0  0  0  0  0
  148.1717  136.0579  162.3519 H   0  0  0  0  0  0  0  0  0  0  0  0
  146.0249  134.8993  160.5011 H   0  0  0  0  0  0  0  0  0  0  0  0
  146.3120  136.6067  160.6425 H   0  0  0  0  0  0  0  0  0  0  0  0
  148.3475  134.5637  159.6092 H   0  0  0  0  0  0  0  0  0  0  0  0
  146.6375  135.3538  157.8539 H   0  0  0  0  0  0  0  0  0  0  0  0
  149.3239  139.3554  158.3410 H   0  0  0  0  0  0  0  0  0  0  0  0
  150.6375  138.5428  159.1235 H   0  0  0  0  0  0  0  0  0  0  0  0
  149.8673  138.4139  156.1499 H   0  0  0  0  0  0  0  0  0  0  0  0
  151.4958  136.7334  157.6954 H   0  0  0  0  0  0  0  0  0  0  0  0
  152.4699  139.1940  157.5822 H   0  0  0  0  0  0  0  0  0  0  0  0
  152.2794  139.0943  155.8468 H   0  0  0  0  0  0  0  0  0  0  0  0
  150.0962  140.8944  154.9198 H   0  0  0  0  0  0  0  0  0  0  0  0
  150.6851  144.8356  158.0345 H   0  0  0  0  0  0  0  0  0  0  0  0
  153.1203  145.1865  160.5119 H   0  0  0  0  0  0  0  0  0  0  0  0
  151.6456  144.7206  161.3731 H   0  0  0  0  0  0  0  0  0  0  0  0
  151.5580  145.8147  159.9947 H   0  0  0  0  0  0  0  0  0  0  0  0
  153.7038  141.3218  161.1744 H   0  0  0  0  0  0  0  0  0  0  0  0
  152.7034  142.5508  161.9436 H   0  0  0  0  0  0  0  0  0  0  0  0
  154.1692  143.0178  161.0672 H   0  0  0  0  0  0  0  0  0  0  0  0
  152.8222  140.4251  159.1905 H   0  0  0  0  0  0  0  0  0  0  0  0
  149.8137  143.3078  155.7547 H   0  0  0  0  0  0  0  0  0  0  0  0
  1  2  1  0  0  0  0
  1 26  1  0  0  0  0
  1 27  1  0  0  0  0
  1 28  1  0  0  0  0
  2  3  1  0  0  0  0
  2 29  1  0  0  0  0
  2 30  1  0  0  0  0
  3  4  1  0  0  0  0
  3 31  1  0  0  0  0
  3 32  1  0  0  0  0
  4 24  1  0  0  0  0
  4  5  1  0  0  0  0
  4 33  1  0  0  0  0
  5  6  1  0  0  0  0
  5 34  1  0  0  0  0
  6  7  2  0  0  0  0
  6  8  1  0  0  0  0
  8  9  1  0  0  0  0
  8 24  1  0  0  0  0
  9 10  1  0  0  0  0
  9 35  1  0  0  0  0
  9 36  1  0  0  0  0
 10 11  1  0  0  0  0
 10 12  1  0  0  0  0
 10 37  1  0  0  0  0
 11 38  1  0  0  0  0
 12 13  1  0  0  0  0
 12 39  1  0  0  0  0
 12 40  1  0  0  0  0
 13 23  1  0  0  0  0
 13 14  1  0  0  0  0
 14 15  2  0  0  0  0
 14 41  1  0  0  0  0
 15 16  1  0  0  0  0
 15 50  1  0  0  0  0
 16 23  2  0  0  0  0
 16 17  1  0  0  0  0
 17 18  2  0  0  0  0
 17 42  1  0  0  0  0
 18 19  1  0  0  0  0
 18 20  1  0  0  0  0
 19 43  1  0  0  0  0
 19 44  1  0  0  0  0
 19 45  1  0  0  0  0
 20 21  1  0  0  0  0
 20 22  2  0  0  0  0
 21 46  1  0  0  0  0
 21 47  1  0  0  0  0
 21 48  1  0  0  0  0
 22 23  1  0  0  0  0
 22 49  1  0  0  0  0
 24 25  2  0  0  0  0
M  CHG  1  15   1
M  END
> <s_m_source_file>
AV-unprocessed.smi

> <i_m_source_file_index>
1644

> <i_lp_mmshare_version>
43012

> <i_f3d_flags>
0

> <s_epik_input>
W0NIM11bQ0gyXVtDSDJdW0NAQEhdMVtOSF1DKD1PKU4oQzE9TylbQ0gyXVtDQEhdKFtPSF0pW0NIMl1uKFtjSF1uMiljKGMyMylbY0hdYyhbQ0gzXSljKFtjSF0zKVtDSDNd

> <s_epik_cmdline>
J2VwaWtfcHl0aG9uJywgJy1waCcsICc3LjAnLCAnLXRuJywgJzgnLCAnLW1hJywgJzIwMCcsICctbWV0YWxfYmluZGluZycsICctaW1hZScsICc8aW5maWxlLm1hZT4nLCAnLW9tYWUnLCAnPG91dGZpbGUubWFlPic=

> <r_lp_tautomer_probability>
1

> <r_epik_Ionization_Penalty>
1.06742

> <r_epik_Ionization_Penalty_Charging>
1.06736

> <r_epik_Ionization_Penalty_Neutral>
5.56132e-05

> <r_epik_State_Penalty>
1.12163

> <r_epik_Charging_Adjusted_Penalty>
2.18899

> <i_epik_Tot_Q>
1

> <i_epik_Tot_abs_Q>
1

> <r_epik_Metal_State_Penalty>
1.26636

> <b_epik_Metal_Only>
0

> <s_lp_Force_Field>
OPLS_2005

> <r_lp_Energy>
29.5638

> <b_lp_Chiralities_Consistent>
1

> <s_lp_Variant>
AV-unprocessed.smi:1644-6

> <Gold.Version>
5.8.1

> <Gold.Id.Protein>
6NUR|6NUR_protein|mol2

> <Gold.PLP.Fitness>
53.9765

> <Gold.PLP.PLP>
-46.6187

> <Gold.PLP.part.hbond>
-2.0000

> <Gold.PLP.part.metal>
0.0000

> <Gold.PLP.part.buried>
-4.8777

> <Gold.PLP.part.nonpolar>
-40.0735

> <Gold.PLP.part.repulsive>
0.1219

> <Gold.PLP.ligand.clash>
0.0000

> <Gold.PLP.ligand.torsion>
0.2663

> <Gold.PLP.Chemscore.Hbond>
2.6080

> <Gold.PLP.Chemscore.CHOScore>
0.0000

> <Gold.PLP.Chemscore.Metal>
0.0000

> <Gold.Chemscore.Hbonds>
donor molecule, donor type, donor heavy atom, donor atom, acceptor molecule, acceptor atom, score
      L1  H    15    50       P1  8028  2.00
      P1  H  6931  6943       L1    25  0.59

> <Gold.PLP.Chemscore.Internal.Correction>
0.0664

> <Gold.Rescore>
     Score         DG    S(hbond)    S(metal)    S(lipo)     H(rot)  DE(clash)    DE(int)     intcor
     15.58     -17.43       1.56        0.00     118.65       2.80       0.15       1.70       ----

> <Gold.Chemscore.Fitness>
15.5766

> <Gold.Chemscore.DG>
-17.4262

> <Gold.Chemscore.ZeroCoef>
-5.4800

> <Gold.Chemscore.Hbond>
1.5634

> <Gold.Chemscore.Metal>
0.0000

> <Gold.Chemscore.Lipo>
118.6525

> <Gold.Chemscore.Internal_Hbond>
0.0000

> <Gold.Chemscore.DEClash>
0.1461

> <Gold.Chemscore.DEInternal>
1.7035

> <Gold.Chemscore.Rot>
2.7961

> <Gold.Chemscore.Internal.Correction>
   9.000000E+99

> <Gold.Chemscore.Hbonds>
donor molecule, donor type, donor heavy atom, donor atom, acceptor molecule, acceptor atom, score
      L1  H    15    50       P1  8028  0.98
      P1  H  6931  6943       L1    25  0.46

> <Gold.Chemscore.Hbond.Weighted>
-5.2219

> <Gold.Chemscore.Metal.Weighted>
-0.0000

> <Gold.Chemscore.Lipo.Weighted>
-13.8823

> <Gold.Chemscore.Internal_Hbond.Weighted>
0.0000

> <Gold.Chemscore.DEClash.Weighted>
0.1461

> <Gold.Chemscore.DEInternal.Weighted>
1.7035

> <Gold.Chemscore.Rot.Weighted>
7.1580

> <Gold.Chemscore.Internal.Correction.Weighted>
   9.000000E+99

> <Gold.Protein.RotatedTorsions>
[ 6907 6896 6895 6894 ] final  174.74 input  -60.11 | X-H torsion
[ 7974 7965 7964 7962 ] final  161.07 input  175.53 | X-H torsion
[ 8008 7997 7996 7995 ] final   75.19 input   59.86 | X-H torsion
[ 10167 10162 10161 10158 ] final  102.98 input  -65.29 | X-H torsion
[ 10718 10713 10712 10709 ] final  144.65 input   66.30 | X-H torsion
[ 10763 10752 10751 10750 ] final -179.80 input  -60.55 | X-H torsion
[ 11005 11000 10999 10996 ] final  130.69 input  -57.11 | X-H torsion

> <Gold.Protein.ActiveResidues>
 VAL166  LYS551  ARG553  GLY616  TRP617  ASP618  TYR619  PRO620  LYS621  CYS622 
 ASP623  PHE694  ASN695  SER759  ASP760  ASP761  ALA762  ILE779  LEU786  VAL792 
 PHE793  MET794  SER795  GLU796  ALA797  LYS798  CYS799  TRP800  GLU811  SER814 

> <Gold.Protein.RotatedAtoms>
  151.7475  133.3325  159.3382 H   0  0  0  0  0  0  0  0  0  0  0  0  # atno 6907 bound_to 6896
  150.7548  134.6222  159.6151 H   0  0  0  0  0  0  0  0  0  0  0  0  # atno 6908 bound_to 6896
  152.3490  134.7033  160.0293 H   0  0  0  0  0  0  0  0  0  0  0  0  # atno 6909 bound_to 6896
  144.7704  139.7847  143.6299 H   0  0  0  0  0  0  0  0  0  0  0  0  # atno 7974 bound_to 7965
  155.8093  140.3473  155.5448 H   0  0  0  0  0  0  0  0  0  0  0  0  # atno 8008 bound_to 7997
  155.8457  140.0948  157.1726 H   0  0  0  0  0  0  0  0  0  0  0  0  # atno 8009 bound_to 7997
  154.4006  140.1386  156.3770 H   0  0  0  0  0  0  0  0  0  0  0  0  # atno 8010 bound_to 7997
  139.7302  144.7038  151.0734 H   0  0  0  0  0  0  0  0  0  0  0  0  # atno 10167 bound_to 10162
  157.3547  131.0956  151.0969 H   0  0  0  0  0  0  0  0  0  0  0  0  # atno 10718 bound_to 10713
  154.5304  135.2799  155.1185 H   0  0  0  0  0  0  0  0  0  0  0  0  # atno 10763 bound_to 10752
  154.2707  135.6304  153.5313 H   0  0  0  0  0  0  0  0  0  0  0  0  # atno 10764 bound_to 10752
  152.9955  135.5628  154.5816 H   0  0  0  0  0  0  0  0  0  0  0  0  # atno 10765 bound_to 10752
  139.9686  134.9584  156.9330 H   0  0  0  0  0  0  0  0  0  0  0  0  # atno 11005 bound_to 11000
  146.1846  139.5055  142.9844 LP  0  0  0  0  0  0  0  0  0  0  0  0  # atno 17320 bound_to 7965
  145.6341  141.0298  143.1847 LP  0  0  0  0  0  0  0  0  0  0  0  0  # atno 17321 bound_to 7965
  140.7770  143.5053  150.9720 LP  0  0  0  0  0  0  0  0  0  0  0  0  # atno 17342 bound_to 10162
  139.8741  143.7155  152.3163 LP  0  0  0  0  0  0  0  0  0  0  0  0  # atno 17343 bound_to 10162
  157.2131  130.6447  149.5782 LP  0  0  0  0  0  0  0  0  0  0  0  0  # atno 17370 bound_to 10713
  155.9727  130.4653  150.6250 LP  0  0  0  0  0  0  0  0  0  0  0  0  # atno 17371 bound_to 10713
  140.5342  134.0784  155.7324 LP  0  0  0  0  0  0  0  0  0  0  0  0  # atno 17394 bound_to 11000
  141.1366  133.9211  157.2420 LP  0  0  0  0  0  0  0  0  0  0  0  0  # atno 17395 bound_to 11000

$$$$
