AV-unprocessed.smi:537|AV-procd|sdf|2864|dock3
  -GOLD-   2262023353D 1   1.00000     0.00000
 Structure written by MMmdl.
 33 34  0  0  0  0  0  0  0  0  1 V2000
  151.8384  143.7581  156.9948 C   0  0  0  0  0  0  0  0  0  0  0  0
  150.8511  143.0656  156.1912 N   0  0  0  0  0  0  0  0  0  0  0  0
  150.8092  141.7676  155.6984 C   0  0  0  0  0  0  0  0  0  0  0  0
  151.7587  140.8510  155.9019 N   0  0  0  0  0  0  0  0  0  0  0  0
  151.2610  139.7446  155.2279 C   0  0  0  0  0  0  0  0  0  0  0  0
  150.0620  140.0207  154.6543 C   0  0  0  0  0  0  0  0  0  0  0  0
  149.3090  139.0224  153.8849 C   0  0  0  0  0  0  0  0  0  0  0  0
  148.2197  139.2473  153.3622 O   0  0  0  0  0  0  0  0  0  0  0  0
  149.9397  137.8249  153.8110 N   0  0  0  0  0  0  0  0  0  0  0  0
  151.1441  137.4815  154.3629 C   0  0  0  0  0  0  0  0  0  0  0  0
  151.5835  136.3427  154.2059 O   0  0  0  0  0  0  0  0  0  0  0  0
  151.8140  138.4427  155.0791 N   0  0  0  0  0  0  0  0  0  0  0  0
  153.1050  138.1760  155.7172 C   0  0  0  0  0  0  0  0  0  0  0  0
  149.7549  141.3478  154.9557 N   0  0  0  0  0  0  0  0  0  0  0  0
  148.5733  142.1159  154.5758 C   0  0  0  0  0  0  0  0  0  0  0  0
  147.2711  141.3549  154.8650 C   0  0  0  0  0  0  0  0  0  0  0  0
  146.2147  141.8856  154.0814 O   0  0  0  0  0  0  0  0  0  0  0  0
  145.8980  143.2222  154.4265 C   0  0  0  0  0  0  0  0  0  0  0  0
  149.4653  137.1019  153.2900 H   0  0  0  0  0  0  0  0  0  0  0  0
  151.5267  144.7872  157.1726 H   0  0  0  0  0  0  0  0  0  0  0  0
  152.8017  143.7698  156.4845 H   0  0  0  0  0  0  0  0  0  0  0  0
  151.9604  143.2599  157.9568 H   0  0  0  0  0  0  0  0  0  0  0  0
  150.0562  143.6365  155.9431 H   0  0  0  0  0  0  0  0  0  0  0  0
  153.4794  137.1641  155.5588 H   0  0  0  0  0  0  0  0  0  0  0  0
  153.0251  138.3292  156.7939 H   0  0  0  0  0  0  0  0  0  0  0  0
  153.8585  138.8658  155.3357 H   0  0  0  0  0  0  0  0  0  0  0  0
  148.5775  143.0643  155.1137 H   0  0  0  0  0  0  0  0  0  0  0  0
  148.6349  142.3801  153.5212 H   0  0  0  0  0  0  0  0  0  0  0  0
  147.4021  140.2950  154.6413 H   0  0  0  0  0  0  0  0  0  0  0  0
  147.0266  141.4357  155.9250 H   0  0  0  0  0  0  0  0  0  0  0  0
  145.0861  143.5802  153.7937 H   0  0  0  0  0  0  0  0  0  0  0  0
  146.7549  143.8807  154.2793 H   0  0  0  0  0  0  0  0  0  0  0  0
  145.5732  143.2957  155.4653 H   0  0  0  0  0  0  0  0  0  0  0  0
  1  2  1  0  0  0  0
  1 20  1  0  0  0  0
  1 21  1  0  0  0  0
  1 22  1  0  0  0  0
  2  3  1  0  0  0  0
  2 23  1  0  0  0  0
  3 14  1  0  0  0  0
  3  4  2  0  0  0  0
  4  5  1  0  0  0  0
  5 12  1  0  0  0  0
  5  6  2  0  0  0  0
  6  7  1  0  0  0  0
  6 14  1  0  0  0  0
  7  8  2  0  0  0  0
  7  9  1  0  0  0  0
  9 19  1  0  0  0  0
  9 10  1  0  0  0  0
 10 11  2  0  0  0  0
 10 12  1  0  0  0  0
 12 13  1  0  0  0  0
 13 24  1  0  0  0  0
 13 25  1  0  0  0  0
 13 26  1  0  0  0  0
 14 15  1  0  0  0  0
 15 16  1  0  0  0  0
 15 27  1  0  0  0  0
 15 28  1  0  0  0  0
 16 17  1  0  0  0  0
 16 29  1  0  0  0  0
 16 30  1  0  0  0  0
 17 18  1  0  0  0  0
 18 31  1  0  0  0  0
 18 32  1  0  0  0  0
 18 33  1  0  0  0  0
M  END
> <s_m_source_file>
AV-unprocessed.smi

> <i_m_source_file_index>
537

> <i_lp_mmshare_version>
43012

> <i_f3d_flags>
0

> <s_epik_input>
W0NIM11PW0NIMl1bQ0gyXW4oYyhuMSlbTkhdW0NIM10pYyhjMTIpYyg9TylbbkhdYyg9TyluMltDSDNd

> <s_epik_cmdline>
J2VwaWtfcHl0aG9uJywgJy1waCcsICc3LjAnLCAnLXRuJywgJzgnLCAnLW1hJywgJzIwMCcsICctbWV0YWxfYmluZGluZycsICctaW1hZScsICc8aW5maWxlLm1hZT4nLCAnLW9tYWUnLCAnPG91dGZpbGUubWFlPic=

> <r_lp_tautomer_probability>
1

> <r_epik_Ionization_Penalty>
3.91196e-05

> <r_epik_Ionization_Penalty_Charging>
1.40857e-05

> <r_epik_Ionization_Penalty_Neutral>
2.50339e-05

> <r_epik_State_Penalty>
-0

> <r_epik_Charging_Adjusted_Penalty>
1.40857e-05

> <i_epik_Tot_Q>
0

> <i_epik_Tot_abs_Q>
0

> <r_epik_Metal_State_Penalty>
0.0136003

> <b_epik_Metal_Only>
0

> <s_lp_Force_Field>
OPLS_2005

> <r_lp_Energy>
19.747

> <b_lp_Chiralities_Consistent>
1

> <s_lp_Variant>
AV-unprocessed.smi:537-1

> <Gold.Version>
5.8.1

> <Gold.Id.Protein>
6NUR|6NUR_protein|mol2

> <Gold.PLP.Fitness>
39.8498

> <Gold.PLP.PLP>
-31.2836

> <Gold.PLP.part.hbond>
-2.9792

> <Gold.PLP.part.metal>
0.0000

> <Gold.PLP.part.buried>
-2.0458

> <Gold.PLP.part.nonpolar>
-28.3808

> <Gold.PLP.part.repulsive>
2.9580

> <Gold.PLP.ligand.clash>
0.0000

> <Gold.PLP.ligand.torsion>
0.2175

> <Gold.PLP.Chemscore.Hbond>
3.0000

> <Gold.PLP.Chemscore.CHOScore>
0.0000

> <Gold.PLP.Chemscore.Metal>
0.0000

> <Gold.Chemscore.Hbonds>
donor molecule, donor type, donor heavy atom, donor atom, acceptor molecule, acceptor atom, score
      L1  H     2    23       P1  8028  1.00
      L1  H     9    19       P1  7948  1.00
      P1  H 10752 10764       L1    11  0.98

> <Gold.PLP.Chemscore.Internal.Correction>
0.0011

> <Gold.Rescore>
     Score         DG    S(hbond)    S(metal)    S(lipo)     H(rot)  DE(clash)    DE(int)     intcor
     12.80     -15.51       2.81        0.00      41.87       1.66       1.53       1.18       ----

> <Gold.Chemscore.Fitness>
12.7990

> <Gold.Chemscore.DG>
-15.5090

> <Gold.Chemscore.ZeroCoef>
-5.4800

> <Gold.Chemscore.Hbond>
2.8112

> <Gold.Chemscore.Metal>
0.0000

> <Gold.Chemscore.Lipo>
41.8691

> <Gold.Chemscore.Internal_Hbond>
0.0000

> <Gold.Chemscore.DEClash>
1.5306

> <Gold.Chemscore.DEInternal>
1.1794

> <Gold.Chemscore.Rot>
1.6637

> <Gold.Chemscore.Internal.Correction>
   9.000000E+99

> <Gold.Chemscore.Hbonds>
donor molecule, donor type, donor heavy atom, donor atom, acceptor molecule, acceptor atom, score
      L1  H     2    23       P1  8028  0.99
      L1  H     9    19       P1  7948  0.86
      P1  H 10752 10764       L1    11  0.91

> <Gold.Chemscore.Hbond.Weighted>
-9.3894

> <Gold.Chemscore.Metal.Weighted>
-0.0000

> <Gold.Chemscore.Lipo.Weighted>
-4.8987

> <Gold.Chemscore.Internal_Hbond.Weighted>
0.0000

> <Gold.Chemscore.DEClash.Weighted>
1.5306

> <Gold.Chemscore.DEInternal.Weighted>
1.1794

> <Gold.Chemscore.Rot.Weighted>
4.2591

> <Gold.Chemscore.Internal.Correction.Weighted>
   9.000000E+99

> <Gold.Protein.RotatedTorsions>
[ 6907 6896 6895 6894 ] final  -36.92 input  -60.11 | X-H torsion
[ 7974 7965 7964 7962 ] final  -88.71 input  175.53 | X-H torsion
[ 8008 7997 7996 7995 ] final  179.33 input   59.86 | X-H torsion
[ 10167 10162 10161 10158 ] final   46.36 input  -65.29 | X-H torsion
[ 10718 10713 10712 10709 ] final   67.70 input   66.30 | X-H torsion
[ 10763 10752 10751 10750 ] final  -72.80 input  -60.55 | X-H torsion
[ 11005 11000 10999 10996 ] final  105.01 input  -57.11 | X-H torsion

> <Gold.Protein.ActiveResidues>
 VAL166  LYS551  ARG553  GLY616  TRP617  ASP618  TYR619  PRO620  LYS621  CYS622 
 ASP623  PHE694  ASN695  SER759  ASP760  ASP761  ALA762  ILE779  LEU786  VAL792 
 PHE793  MET794  SER795  GLU796  ALA797  LYS798  CYS799  TRP800  GLU811  SER814 

> <Gold.Protein.RotatedAtoms>
  151.0212  134.9470  159.8060 H   0  0  0  0  0  0  0  0  0  0  0  0  # atno 6907 bound_to 6896
  152.5325  134.2901  159.9050 H   0  0  0  0  0  0  0  0  0  0  0  0  # atno 6908 bound_to 6896
  151.2909  133.4124  159.2667 H   0  0  0  0  0  0  0  0  0  0  0  0  # atno 6909 bound_to 6896
  145.4495  140.9560  143.2030 H   0  0  0  0  0  0  0  0  0  0  0  0  # atno 7974 bound_to 7965
  156.0446  140.1311  157.0118 H   0  0  0  0  0  0  0  0  0  0  0  0  # atno 8008 bound_to 7997
  154.4406  140.1023  156.6358 H   0  0  0  0  0  0  0  0  0  0  0  0  # atno 8009 bound_to 7997
  155.5615  140.3465  155.4494 H   0  0  0  0  0  0  0  0  0  0  0  0  # atno 8010 bound_to 7997
  140.3147  144.2778  150.6193 H   0  0  0  0  0  0  0  0  0  0  0  0  # atno 10167 bound_to 10162
  157.6246  130.9335  150.0278 H   0  0  0  0  0  0  0  0  0  0  0  0  # atno 10718 bound_to 10713
  154.4507  135.5918  153.6190 H   0  0  0  0  0  0  0  0  0  0  0  0  # atno 10763 bound_to 10752
  152.9813  135.6020  154.3608 H   0  0  0  0  0  0  0  0  0  0  0  0  # atno 10764 bound_to 10752
  154.3469  135.2841  155.2372 H   0  0  0  0  0  0  0  0  0  0  0  0  # atno 10765 bound_to 10752
  139.8797  134.9321  156.5449 H   0  0  0  0  0  0  0  0  0  0  0  0  # atno 11005 bound_to 11000
  144.8070  139.6032  143.7046 LP  0  0  0  0  0  0  0  0  0  0  0  0  # atno 17320 bound_to 7965
  146.2512  139.6204  142.9426 LP  0  0  0  0  0  0  0  0  0  0  0  0  # atno 17321 bound_to 7965
  140.5537  143.2202  151.7884 LP  0  0  0  0  0  0  0  0  0  0  0  0  # atno 17342 bound_to 10162
  139.4886  144.4442  151.9729 LP  0  0  0  0  0  0  0  0  0  0  0  0  # atno 17343 bound_to 10162
  156.1411  130.3642  149.9581 LP  0  0  0  0  0  0  0  0  0  0  0  0  # atno 17370 bound_to 10713
  156.7622  130.9155  151.3642 LP  0  0  0  0  0  0  0  0  0  0  0  0  # atno 17371 bound_to 10713
  140.8283  133.8299  155.8960 LP  0  0  0  0  0  0  0  0  0  0  0  0  # atno 17394 bound_to 11000
  140.9353  134.1970  157.4836 LP  0  0  0  0  0  0  0  0  0  0  0  0  # atno 17395 bound_to 11000

$$$$
