AV-unprocessed.smi:683|AV-procd|sdf|3330|dock2
  -GOLD-   22720 0293D 1   1.00000     0.00000
 Structure written by MMmdl.
 30 31  0  0  0  0  0  0  0  0  1 V2000
  155.0363  141.5586  162.9601 N   0  0  0  0  0  0  0  0  0  0  0  0
  154.2821  141.8247  162.1240 C   0  0  0  0  0  0  0  0  0  0  0  0
  153.3342  142.1588  161.0741 C   0  0  0  0  0  0  0  0  0  0  0  0
  152.6844  143.4090  161.0837 C   0  0  0  0  0  0  0  0  0  0  0  0
  151.7665  143.7293  160.0666 C   0  0  0  0  0  0  0  0  0  0  0  0
  151.4988  142.8019  159.0419 C   0  0  0  0  0  0  0  0  0  0  0  0
  152.1407  141.5466  159.0176 C   0  0  0  0  0  0  0  0  0  0  0  0
  151.8185  140.7007  157.9779 O   0  0  0  0  0  0  0  0  0  0  0  0
  150.8745  141.1474  157.0148 C   0  0  0  0  0  0  0  0  0  0  0  0
  151.1546  140.4277  155.6866 C   0  0  0  0  0  0  0  0  0  0  0  0
  149.9666  140.2320  154.8936 N   0  0  0  0  0  0  0  0  0  0  0  0
  149.0052  141.2185  154.7365 C   0  0  0  0  0  0  0  0  0  0  0  0
  147.8762  141.0454  154.0075 C   0  0  0  0  0  0  0  0  0  0  0  0
  146.7235  142.3235  153.8593 Cl  0  0  0  0  0  0  0  0  0  0  0  0
  147.6237  139.7681  153.3412 C   0  0  0  0  0  0  0  0  0  0  0  0
  146.6377  139.5052  152.6555 O   0  0  0  0  0  0  0  0  0  0  0  0
  148.6149  138.8012  153.5343 N   0  0  0  0  0  0  0  0  0  0  0  0
  149.7787  138.9696  154.2853 C   0  0  0  0  0  0  0  0  0  0  0  0
  150.5794  138.0408  154.3935 O   0  0  0  0  0  0  0  0  0  0  0  0
  153.0645  141.2310  160.0465 C   0  0  0  0  0  0  0  0  0  0  0  0
  148.4756  137.9034  153.0935 H   0  0  0  0  0  0  0  0  0  0  0  0
  152.8851  144.1260  161.8671 H   0  0  0  0  0  0  0  0  0  0  0  0
  151.2674  144.6871  160.0719 H   0  0  0  0  0  0  0  0  0  0  0  0
  150.7933  143.0572  158.2648 H   0  0  0  0  0  0  0  0  0  0  0  0
  149.8616  140.9285  157.3561 H   0  0  0  0  0  0  0  0  0  0  0  0
  150.9619  142.2261  156.8736 H   0  0  0  0  0  0  0  0  0  0  0  0
  151.8411  141.0102  155.0702 H   0  0  0  0  0  0  0  0  0  0  0  0
  151.6239  139.4518  155.8290 H   0  0  0  0  0  0  0  0  0  0  0  0
  149.1576  142.1736  155.2190 H   0  0  0  0  0  0  0  0  0  0  0  0
  153.5766  140.2802  160.0645 H   0  0  0  0  0  0  0  0  0  0  0  0
  1  2  3  0  0  0  0
  2  3  1  0  0  0  0
  3 20  1  0  0  0  0
  3  4  2  0  0  0  0
  4  5  1  0  0  0  0
  4 22  1  0  0  0  0
  5  6  2  0  0  0  0
  5 23  1  0  0  0  0
  6  7  1  0  0  0  0
  6 24  1  0  0  0  0
  7  8  1  0  0  0  0
  7 20  2  0  0  0  0
  8  9  1  0  0  0  0
  9 10  1  0  0  0  0
  9 25  1  0  0  0  0
  9 26  1  0  0  0  0
 10 11  1  0  0  0  0
 10 27  1  0  0  0  0
 10 28  1  0  0  0  0
 11 18  1  0  0  0  0
 11 12  1  0  0  0  0
 12 13  2  0  0  0  0
 12 29  1  0  0  0  0
 13 14  1  0  0  0  0
 13 15  1  0  0  0  0
 15 16  2  0  0  0  0
 15 17  1  0  0  0  0
 17 21  1  0  0  0  0
 17 18  1  0  0  0  0
 18 19  2  0  0  0  0
 20 30  1  0  0  0  0
M  END
> <s_m_source_file>
AV-unprocessed.smi

> <i_m_source_file_index>
683

> <i_lp_mmshare_version>
43012

> <i_f3d_flags>
0

> <s_epik_input>
TiNDYzFbY0hdW2NIXVtjSF1jKFtjSF0xKU9bQ0gyXVtDSDJdbjJbY0hdYyhDbCljKD1PKVtuSF1jMj1P

> <s_epik_cmdline>
J2VwaWtfcHl0aG9uJywgJy1waCcsICc3LjAnLCAnLXRuJywgJzgnLCAnLW1hJywgJzIwMCcsICctbWV0YWxfYmluZGluZycsICctaW1hZScsICc8aW5maWxlLm1hZT4nLCAnLW9tYWUnLCAnPG91dGZpbGUubWFlPic=

> <r_lp_tautomer_probability>
0.999537

> <r_epik_Ionization_Penalty>
0.0498777

> <r_epik_Ionization_Penalty_Charging>
0.0498777

> <r_epik_Ionization_Penalty_Neutral>
0

> <r_epik_State_Penalty>
0.042632

> <r_epik_Charging_Adjusted_Penalty>
0.0925097

> <i_epik_Tot_Q>
0

> <i_epik_Tot_abs_Q>
0

> <r_epik_Metal_State_Penalty>
2.56282

> <b_epik_Metal_Only>
0

> <s_lp_Force_Field>
OPLS_2005

> <r_lp_Energy>
12.7666

> <b_lp_Chiralities_Consistent>
1

> <s_lp_Variant>
AV-unprocessed.smi:683-1

> <Gold.Version>
5.8.1

> <Gold.Id.Protein>
6NUR|6NUR_protein|mol2

> <Gold.PLP.Fitness>
46.1775

> <Gold.PLP.PLP>
-43.8593

> <Gold.PLP.part.hbond>
-3.0000

> <Gold.PLP.part.metal>
0.0000

> <Gold.PLP.part.buried>
-0.1394

> <Gold.PLP.part.nonpolar>
-39.9671

> <Gold.PLP.part.repulsive>
0.6522

> <Gold.PLP.ligand.clash>
2.1571

> <Gold.PLP.ligand.torsion>
0.5629

> <Gold.PLP.Chemscore.Hbond>
0.9913

> <Gold.PLP.Chemscore.CHOScore>
0.8689

> <Gold.PLP.Chemscore.Metal>
0.0000

> <Gold.Chemscore.Hbonds>
donor molecule, donor type, donor heavy atom, donor atom, acceptor molecule, acceptor atom, score
      L1  H    17    21       P1  7948  0.80
      L1  C    12    29       P1  8028  0.85

> <Gold.PLP.Chemscore.Internal.Correction>
0.0207

> <Gold.Rescore>
     Score         DG    S(hbond)    S(metal)    S(lipo)     H(rot)  DE(clash)    DE(int)     intcor
     12.72     -13.95       0.97        0.00      88.94       2.03       0.66       0.57       ----

> <Gold.Chemscore.Fitness>
12.7196

> <Gold.Chemscore.DG>
-13.9521

> <Gold.Chemscore.ZeroCoef>
-5.4800

> <Gold.Chemscore.Hbond>
0.9738

> <Gold.Chemscore.Metal>
0.0000

> <Gold.Chemscore.Lipo>
88.9371

> <Gold.Chemscore.Internal_Hbond>
0.0000

> <Gold.Chemscore.DEClash>
0.6615

> <Gold.Chemscore.DEInternal>
0.5710

> <Gold.Chemscore.Rot>
2.0258

> <Gold.Chemscore.Internal.Correction>
   9.000000E+99

> <Gold.Chemscore.Hbonds>
donor molecule, donor type, donor heavy atom, donor atom, acceptor molecule, acceptor atom, score
      L1  H    17    21       P1  7948  0.77

> <Gold.Chemscore.Hbond.Weighted>
-3.2525

> <Gold.Chemscore.Metal.Weighted>
-0.0000

> <Gold.Chemscore.Lipo.Weighted>
-10.4056

> <Gold.Chemscore.Internal_Hbond.Weighted>
0.0000

> <Gold.Chemscore.DEClash.Weighted>
0.6615

> <Gold.Chemscore.DEInternal.Weighted>
0.5710

> <Gold.Chemscore.Rot.Weighted>
5.1860

> <Gold.Chemscore.Internal.Correction.Weighted>
   9.000000E+99

> <Gold.Protein.RotatedTorsions>
[ 6907 6896 6895 6894 ] final   18.94 input  -60.11 | X-H torsion
[ 7974 7965 7964 7962 ] final   52.10 input  175.53 | X-H torsion
[ 8008 7997 7996 7995 ] final  -80.37 input   59.86 | X-H torsion
[ 10167 10162 10161 10158 ] final  -11.65 input  -65.29 | X-H torsion
[ 10718 10713 10712 10709 ] final   13.86 input   66.30 | X-H torsion
[ 10763 10752 10751 10750 ] final   89.32 input  -60.55 | X-H torsion
[ 11005 11000 10999 10996 ] final  -50.26 input  -57.11 | X-H torsion

> <Gold.Protein.ActiveResidues>
 VAL166  LYS551  ARG553  GLY616  TRP617  ASP618  TYR619  PRO620  LYS621  CYS622 
 ASP623  PHE694  ASN695  SER759  ASP760  ASP761  ALA762  ILE779  LEU786  VAL792 
 PHE793  MET794  SER795  GLU796  ALA797  LYS798  CYS799  TRP800  GLU811  SER814 

> <Gold.Protein.RotatedAtoms>
  151.8731  135.0482  160.0480 H   0  0  0  0  0  0  0  0  0  0  0  0  # atno 6907 bound_to 6896
  152.2573  133.5262  159.5369 H   0  0  0  0  0  0  0  0  0  0  0  0  # atno 6908 bound_to 6896
  150.7104  134.0795  159.3935 H   0  0  0  0  0  0  0  0  0  0  0  0  # atno 6909 bound_to 6896
  145.9847  139.4278  143.0110 H   0  0  0  0  0  0  0  0  0  0  0  0  # atno 7974 bound_to 7965
  154.5876  140.0664  156.9193 H   0  0  0  0  0  0  0  0  0  0  0  0  # atno 8008 bound_to 7997
  155.2351  140.3340  155.4280 H   0  0  0  0  0  0  0  0  0  0  0  0  # atno 8009 bound_to 7997
  156.2234  140.1808  156.7407 H   0  0  0  0  0  0  0  0  0  0  0  0  # atno 8010 bound_to 7997
  140.7143  143.5617  150.9188 H   0  0  0  0  0  0  0  0  0  0  0  0  # atno 10167 bound_to 10162
  157.0307  130.6191  149.5735 H   0  0  0  0  0  0  0  0  0  0  0  0  # atno 10718 bound_to 10713
  153.1859  135.4474  155.0088 H   0  0  0  0  0  0  0  0  0  0  0  0  # atno 10763 bound_to 10752
  154.8060  135.3274  154.7432 H   0  0  0  0  0  0  0  0  0  0  0  0  # atno 10764 bound_to 10752
  153.7891  135.6971  153.4930 H   0  0  0  0  0  0  0  0  0  0  0  0  # atno 10765 bound_to 10752
  141.0806  133.6654  156.3706 H   0  0  0  0  0  0  0  0  0  0  0  0  # atno 11005 bound_to 11000
  145.7718  140.9893  143.1145 LP  0  0  0  0  0  0  0  0  0  0  0  0  # atno 17320 bound_to 7965
  144.6871  139.9456  143.7476 LP  0  0  0  0  0  0  0  0  0  0  0  0  # atno 17321 bound_to 7965
  139.9342  143.6457  152.3069 LP  0  0  0  0  0  0  0  0  0  0  0  0  # atno 17342 bound_to 10162
  139.6919  144.7646  151.1424 LP  0  0  0  0  0  0  0  0  0  0  0  0  # atno 17343 bound_to 10162
  156.0070  130.5158  150.7864 LP  0  0  0  0  0  0  0  0  0  0  0  0  # atno 17370 bound_to 10713
  157.5180  131.0930  151.0115 LP  0  0  0  0  0  0  0  0  0  0  0  0  # atno 17371 bound_to 10713
  140.5477  134.6058  157.5398 LP  0  0  0  0  0  0  0  0  0  0  0  0  # atno 17394 bound_to 11000
  139.9620  134.7437  156.0217 LP  0  0  0  0  0  0  0  0  0  0  0  0  # atno 17395 bound_to 11000

$$$$
