AV-unprocessed.smi:2339|AV-procd|sdf|9340|dock4
  -GOLD-   2272012563D 1   1.00000     0.00000
 Structure written by MMmdl.
 49 52  0  0  0  0  0  0  0  0  1 V2000
  148.1886  130.6306  153.4844 C   0  0  0  0  0  0  0  0  0  0  0  0
  149.3229  130.3123  154.4646 C   0  0  0  0  0  0  0  0  0  0  0  0
  149.9884  131.5203  154.9309 N   0  0  0  0  0  0  0  0  0  0  0  0
  151.0395  131.4608  155.8398 C   0  0  0  0  0  0  0  0  0  0  0  0
  151.6512  132.5431  156.3578 C   0  0  0  0  0  0  0  0  0  0  0  0
  151.1974  133.8906  155.9593 C   0  0  0  0  0  0  0  0  0  0  0  0
  151.7340  134.9006  156.4144 O   0  0  0  0  0  0  0  0  0  0  0  0
  150.0711  133.9550  154.9907 C   0  0  0  0  0  0  0  0  0  0  0  0
  149.6548  135.2415  154.6112 N   0  0  0  0  0  0  0  0  0  0  0  0
  149.4868  136.3498  155.3612 C   0  0  0  0  0  0  0  0  0  0  0  0
  149.7199  136.4390  156.5643 O   0  0  0  0  0  0  0  0  0  0  0  0
  149.0180  137.4036  154.6712 N   0  0  0  0  0  0  0  0  0  0  0  0
  148.7256  138.7456  155.1753 C   0  0  2  0  0  0  0  0  0  0  0  0
  148.2020  139.6679  154.0736 C   0  0  1  0  0  0  0  0  0  0  0  0
  146.8912  140.3100  153.7898 C   0  0  0  0  0  0  0  0  0  0  0  0
  147.4145  141.7378  153.4815 C   0  0  0  0  0  0  0  0  0  0  0  0
  148.8089  141.7427  153.8732 O   0  0  0  0  0  0  0  0  0  0  0  0
  148.8818  140.7543  154.8806 C   0  0  2  0  0  0  0  0  0  0  0  0
  149.9701  139.7150  155.2124 C   0  0  0  0  0  0  0  0  0  0  0  0
  151.1372  139.5239  154.2312 C   0  0  0  0  0  0  0  0  0  0  0  0
  152.2506  138.8125  154.9979 C   0  0  0  0  0  0  0  0  0  0  0  0
  152.0745  139.2364  156.4558 C   0  0  0  0  0  0  0  0  0  0  0  0
  150.6887  139.8869  156.5512 C   0  0  0  0  0  0  0  0  0  0  0  0
  149.5471  132.7844  154.5454 C   0  0  0  0  0  0  0  0  0  0  0  0
  147.7031  129.7159  153.1441 H   0  0  0  0  0  0  0  0  0  0  0  0
  148.5632  131.1559  152.6054 H   0  0  0  0  0  0  0  0  0  0  0  0
  147.4282  131.2569  153.9520 H   0  0  0  0  0  0  0  0  0  0  0  0
  148.9302  129.7603  155.3195 H   0  0  0  0  0  0  0  0  0  0  0  0
  150.0519  129.6567  153.9869 H   0  0  0  0  0  0  0  0  0  0  0  0
  151.3441  130.4582  156.1036 H   0  0  0  0  0  0  0  0  0  0  0  0
  152.4673  132.4482  157.0589 H   0  0  0  0  0  0  0  0  0  0  0  0
  149.4349  135.3352  153.6302 H   0  0  0  0  0  0  0  0  0  0  0  0
  148.8477  137.2579  153.6866 H   0  0  0  0  0  0  0  0  0  0  0  0
  148.1061  138.7647  156.0769 H   0  0  0  0  0  0  0  0  0  0  0  0
  148.7176  139.4644  153.1303 H   0  0  0  0  0  0  0  0  0  0  0  0
  146.3734  139.8610  152.9420 H   0  0  0  0  0  0  0  0  0  0  0  0
  146.2327  140.2949  154.6595 H   0  0  0  0  0  0  0  0  0  0  0  0
  147.3326  141.9822  152.4220 H   0  0  0  0  0  0  0  0  0  0  0  0
  146.8568  142.4861  154.0463 H   0  0  0  0  0  0  0  0  0  0  0  0
  148.3233  141.0641  155.7713 H   0  0  0  0  0  0  0  0  0  0  0  0
  150.8716  138.9631  153.3354 H   0  0  0  0  0  0  0  0  0  0  0  0
  151.4965  140.4974  153.8949 H   0  0  0  0  0  0  0  0  0  0  0  0
  152.1219  137.7330  154.9142 H   0  0  0  0  0  0  0  0  0  0  0  0
  153.2405  139.0538  154.6096 H   0  0  0  0  0  0  0  0  0  0  0  0
  152.1598  138.3776  157.1225 H   0  0  0  0  0  0  0  0  0  0  0  0
  152.8454  139.9510  156.7463 H   0  0  0  0  0  0  0  0  0  0  0  0
  150.8065  140.9472  156.7777 H   0  0  0  0  0  0  0  0  0  0  0  0
  150.1149  139.4622  157.3742 H   0  0  0  0  0  0  0  0  0  0  0  0
  148.7384  132.7334  153.8345 H   0  0  0  0  0  0  0  0  0  0  0  0
  1  2  1  0  0  0  0
  1 25  1  0  0  0  0
  1 26  1  0  0  0  0
  1 27  1  0  0  0  0
  2  3  1  0  0  0  0
  2 28  1  0  0  0  0
  2 29  1  0  0  0  0
  3 24  1  0  0  0  0
  3  4  1  0  0  0  0
  4  5  2  0  0  0  0
  4 30  1  0  0  0  0
  5  6  1  0  0  0  0
  5 31  1  0  0  0  0
  6  7  2  0  0  0  0
  6  8  1  0  0  0  0
  8  9  1  0  0  0  0
  8 24  2  0  0  0  0
  9 10  1  0  0  0  0
  9 32  1  0  0  0  0
 10 11  2  0  0  0  0
 10 12  1  0  0  0  0
 12 13  1  0  0  0  0
 12 33  1  0  0  0  0
 13 19  1  0  0  0  0
 13 14  1  0  0  0  0
 13 34  1  0  0  0  0
 14 18  1  0  0  0  0
 14 15  1  0  0  0  0
 14 35  1  0  0  0  0
 15 16  1  0  0  0  0
 15 36  1  0  0  0  0
 15 37  1  0  0  0  0
 16 17  1  0  0  0  0
 16 38  1  0  0  0  0
 16 39  1  0  0  0  0
 17 18  1  0  0  0  0
 18 19  1  0  0  0  0
 18 40  1  0  0  0  0
 19 23  1  0  0  0  0
 19 20  1  0  0  0  0
 20 21  1  0  0  0  0
 20 41  1  0  0  0  0
 20 42  1  0  0  0  0
 21 22  1  0  0  0  0
 21 43  1  0  0  0  0
 21 44  1  0  0  0  0
 22 23  1  0  0  0  0
 22 45  1  0  0  0  0
 22 46  1  0  0  0  0
 23 47  1  0  0  0  0
 23 48  1  0  0  0  0
 24 49  1  0  0  0  0
M  END
> <s_m_source_file>
AV-unprocessed.smi

> <i_m_source_file_index>
2339

> <i_lp_mmshare_version>
43012

> <i_f3d_flags>
0

> <s_epik_input>
W0NIM11bQ0gyXW4xW2NIXVtjSF1jKD1PKWMoW2NIXTEpW05IXUMoPU8pW05IXVtDQEBIXTJbQ0BASF0oW0NIMl1bQ0gyXU8zKVtDQEBIXTNDMjRbQ0gyXVtDSDJdW0NIMl1bQ0gyXTQ=

> <s_epik_cmdline>
J2VwaWtfcHl0aG9uJywgJy1waCcsICc3LjAnLCAnLXRuJywgJzgnLCAnLW1hJywgJzIwMCcsICctbWV0YWxfYmluZGluZycsICctaW1hZScsICc8aW5maWxlLm1hZT4nLCAnLW9tYWUnLCAnPG91dGZpbGUubWFlPic=

> <r_lp_tautomer_probability>
1

> <r_epik_Ionization_Penalty>
0.00145966

> <r_epik_Ionization_Penalty_Charging>
0.00143969

> <r_epik_Ionization_Penalty_Neutral>
1.99697e-05

> <r_epik_State_Penalty>
0.000961843

> <r_epik_Charging_Adjusted_Penalty>
0.00240153

> <i_epik_Tot_Q>
0

> <i_epik_Tot_abs_Q>
0

> <r_epik_Metal_State_Penalty>
-0

> <b_epik_Metal_Only>
0

> <s_lp_Force_Field>
OPLS_2005

> <r_lp_Energy>
78.6194

> <b_lp_Chiralities_Consistent>
1

> <s_lp_Variant>
AV-unprocessed.smi:2339-5

> <Gold.Version>
5.8.1

> <Gold.Id.Protein>
6NUR|6NUR_protein|mol2

> <Gold.PLP.Fitness>
44.1267

> <Gold.PLP.PLP>
-34.8442

> <Gold.PLP.part.hbond>
-3.9871

> <Gold.PLP.part.metal>
0.0000

> <Gold.PLP.part.buried>
-2.1264

> <Gold.PLP.part.nonpolar>
-28.4409

> <Gold.PLP.part.repulsive>
0.2453

> <Gold.PLP.ligand.clash>
0.0000

> <Gold.PLP.ligand.torsion>
0.5123

> <Gold.PLP.Chemscore.Hbond>
3.3389

> <Gold.PLP.Chemscore.CHOScore>
0.0000

> <Gold.PLP.Chemscore.Metal>
0.0000

> <Gold.Chemscore.Hbonds>
donor molecule, donor type, donor heavy atom, donor atom, acceptor molecule, acceptor atom, score
      L1  H     9    32       P1  7948  0.90
      L1  H    12    33       P1  7948  0.86
      P1  H  8011  8017       L1    17  0.58
      P1  H 10752 10765       L1     7  0.98

> <Gold.PLP.Chemscore.Internal.Correction>
0.2905

> <Gold.Rescore>
     Score         DG    S(hbond)    S(metal)    S(lipo)     H(rot)  DE(clash)    DE(int)     intcor
     14.95     -21.23       2.38        0.00      92.31       1.17       2.33       3.95       ----

> <Gold.Chemscore.Fitness>
14.9455

> <Gold.Chemscore.DG>
-21.2252

> <Gold.Chemscore.ZeroCoef>
-5.4800

> <Gold.Chemscore.Hbond>
2.3750

> <Gold.Chemscore.Metal>
0.0000

> <Gold.Chemscore.Lipo>
92.3088

> <Gold.Chemscore.Internal_Hbond>
0.0000

> <Gold.Chemscore.DEClash>
2.3279

> <Gold.Chemscore.DEInternal>
3.9519

> <Gold.Chemscore.Rot>
1.1670

> <Gold.Chemscore.Internal.Correction>
   9.000000E+99

> <Gold.Chemscore.Hbonds>
donor molecule, donor type, donor heavy atom, donor atom, acceptor molecule, acceptor atom, score
      L1  H     9    32       P1  7948  0.17
      L1  H    12    33       P1  7948  0.82
      P1  H  8011  8017       L1    17  0.32
      P1  H 10752 10765       L1     7  0.53

> <Gold.Chemscore.Hbond.Weighted>
-7.9325

> <Gold.Chemscore.Metal.Weighted>
-0.0000

> <Gold.Chemscore.Lipo.Weighted>
-10.8001

> <Gold.Chemscore.Internal_Hbond.Weighted>
0.0000

> <Gold.Chemscore.DEClash.Weighted>
2.3279

> <Gold.Chemscore.DEInternal.Weighted>
3.9519

> <Gold.Chemscore.Rot.Weighted>
2.9874

> <Gold.Chemscore.Internal.Correction.Weighted>
   9.000000E+99

> <Gold.Protein.RotatedTorsions>
[ 6907 6896 6895 6894 ] final  138.73 input  -60.11 | X-H torsion
[ 7974 7965 7964 7962 ] final -116.46 input  175.53 | X-H torsion
[ 8008 7997 7996 7995 ] final -156.64 input   59.86 | X-H torsion
[ 10167 10162 10161 10158 ] final  -80.41 input  -65.29 | X-H torsion
[ 10718 10713 10712 10709 ] final  118.41 input   66.30 | X-H torsion
[ 10763 10752 10751 10750 ] final -146.13 input  -60.55 | X-H torsion
[ 11005 11000 10999 10996 ] final -109.95 input  -57.11 | X-H torsion

> <Gold.Protein.ActiveResidues>
 VAL166  LYS551  ARG553  GLY616  TRP617  ASP618  TYR619  PRO620  LYS621  CYS622 
 ASP623  PHE694  ASN695  SER759  ASP760  ASP761  ALA762  ILE779  LEU786  VAL792 
 PHE793  MET794  SER795  GLU796  ALA797  LYS798  CYS799  TRP800  GLU811  SER814 

> <Gold.Protein.RotatedAtoms>
  152.2632  133.5315  159.5393 H   0  0  0  0  0  0  0  0  0  0  0  0  # atno 6907 bound_to 6896
  150.7132  134.0801  159.3904 H   0  0  0  0  0  0  0  0  0  0  0  0  # atno 6908 bound_to 6896
  151.8718  135.0486  160.0531 H   0  0  0  0  0  0  0  0  0  0  0  0  # atno 6909 bound_to 6896
  145.0964  140.8524  143.3952 H   0  0  0  0  0  0  0  0  0  0  0  0  # atno 7974 bound_to 7965
  155.7203  140.0789  157.2333 H   0  0  0  0  0  0  0  0  0  0  0  0  # atno 8008 bound_to 7997
  154.4046  140.1614  156.2449 H   0  0  0  0  0  0  0  0  0  0  0  0  # atno 8009 bound_to 7997
  155.9202  140.3398  155.6170 H   0  0  0  0  0  0  0  0  0  0  0  0  # atno 8010 bound_to 7997
  140.4506  143.2484  151.8495 H   0  0  0  0  0  0  0  0  0  0  0  0  # atno 10167 bound_to 10162
  157.6032  131.1047  150.7751 H   0  0  0  0  0  0  0  0  0  0  0  0  # atno 10718 bound_to 10713
  154.8351  135.3395  154.6612 H   0  0  0  0  0  0  0  0  0  0  0  0  # atno 10763 bound_to 10752
  153.7228  135.6957  153.5013 H   0  0  0  0  0  0  0  0  0  0  0  0  # atno 10764 bound_to 10752
  153.2369  135.4397  155.0609 H   0  0  0  0  0  0  0  0  0  0  0  0  # atno 10765 bound_to 10752
  141.0819  133.9205  157.2270 H   0  0  0  0  0  0  0  0  0  0  0  0  # atno 11005 bound_to 11000
  145.1006  139.2826  143.5688 LP  0  0  0  0  0  0  0  0  0  0  0  0  # atno 17320 bound_to 7965
  146.3530  140.0571  142.8632 LP  0  0  0  0  0  0  0  0  0  0  0  0  # atno 17321 bound_to 7965
  139.4796  144.5125  151.8913 LP  0  0  0  0  0  0  0  0  0  0  0  0  # atno 17342 bound_to 10162
  140.4212  144.2241  150.5887 LP  0  0  0  0  0  0  0  0  0  0  0  0  # atno 17343 bound_to 10162
  156.8146  130.4963  149.5351 LP  0  0  0  0  0  0  0  0  0  0  0  0  # atno 17370 bound_to 10713
  156.1111  130.6041  151.0049 LP  0  0  0  0  0  0  0  0  0  0  0  0  # atno 17371 bound_to 10713
  139.9634  135.0148  156.9321 LP  0  0  0  0  0  0  0  0  0  0  0  0  # atno 17394 bound_to 11000
  140.5449  134.0683  155.7352 LP  0  0  0  0  0  0  0  0  0  0  0  0  # atno 17395 bound_to 11000

$$$$
