AV-unprocessed.smi:2247|AV-procd|sdf|9090|dock4
  -GOLD-   2272012293D 1   1.00000     0.00000
 Structure written by MMmdl.
 34 35  0  0  0  0  0  0  0  0  1 V2000
  152.2308  143.8674  161.7162 C   0  0  0  0  0  0  0  0  0  0  0  0
  152.3590  144.3454  160.2583 C   0  0  0  0  0  0  0  0  0  0  0  0
  151.4918  145.5834  159.9808 C   0  0  0  0  0  0  0  0  0  0  0  0
  152.0598  143.2833  159.2883 N   0  0  0  0  0  0  0  0  0  0  0  0
  151.8979  141.8924  159.6806 C   0  0  0  0  0  0  0  0  0  0  0  0
  151.2837  141.2147  158.4523 C   0  0  0  0  0  0  0  0  0  0  0  0
  151.6097  142.1283  157.2602 C   0  0  1  0  0  0  0  0  0  0  0  0
  150.4568  142.2153  156.3651 N   0  0  0  0  0  0  0  0  0  0  0  0
  150.1983  141.3875  155.3411 C   0  0  0  0  0  0  0  0  0  0  0  0
  150.9534  140.4511  155.0607 O   0  0  0  0  0  0  0  0  0  0  0  0
  149.0055  141.7447  154.7289 N   0  0  0  0  0  0  0  0  0  0  0  0
  148.3554  140.8719  154.0214 C   0  0  0  0  0  0  0  0  0  0  0  0
  148.5899  139.5338  153.7149 N   0  0  0  0  0  0  0  0  0  0  0  0
  147.5637  139.0900  152.9288 C   0  0  0  0  0  0  0  0  0  0  0  0
  146.7191  140.1004  152.7455 C   0  0  0  0  0  0  0  0  0  0  0  0
  147.1771  141.2034  153.4014 O   0  0  0  0  0  0  0  0  0  0  0  0
  151.8755  143.4558  157.9718 C   0  0  0  0  0  0  0  0  0  0  0  0
  151.9310  144.5319  157.3759 O   0  0  0  0  0  0  0  0  0  0  0  0
  152.5494  144.6475  162.4078 H   0  0  0  0  0  0  0  0  0  0  0  0
  152.8560  142.9935  161.9016 H   0  0  0  0  0  0  0  0  0  0  0  0
  151.2031  143.6077  161.9715 H   0  0  0  0  0  0  0  0  0  0  0  0
  153.4017  144.6370  160.1198 H   0  0  0  0  0  0  0  0  0  0  0  0
  151.7384  146.3951  160.6655 H   0  0  0  0  0  0  0  0  0  0  0  0
  150.4312  145.3587  160.0994 H   0  0  0  0  0  0  0  0  0  0  0  0
  151.6427  145.9540  158.9664 H   0  0  0  0  0  0  0  0  0  0  0  0
  152.8742  141.4633  159.9097 H   0  0  0  0  0  0  0  0  0  0  0  0
  151.2587  141.7886  160.5583 H   0  0  0  0  0  0  0  0  0  0  0  0
  151.6661  140.2035  158.3105 H   0  0  0  0  0  0  0  0  0  0  0  0
  150.2042  141.1340  158.5946 H   0  0  0  0  0  0  0  0  0  0  0  0
  152.5145  141.7967  156.7483 H   0  0  0  0  0  0  0  0  0  0  0  0
  149.8007  142.9623  156.5409 H   0  0  0  0  0  0  0  0  0  0  0  0
  149.3672  138.9548  153.9987 H   0  0  0  0  0  0  0  0  0  0  0  0
  147.5475  138.0695  152.5754 H   0  0  0  0  0  0  0  0  0  0  0  0
  145.7910  140.1904  152.2009 H   0  0  0  0  0  0  0  0  0  0  0  0
  1  2  1  0  0  0  0
  1 19  1  0  0  0  0
  1 20  1  0  0  0  0
  1 21  1  0  0  0  0
  2  3  1  0  0  0  0
  2  4  1  0  0  0  0
  2 22  1  0  0  0  0
  3 23  1  0  0  0  0
  3 24  1  0  0  0  0
  3 25  1  0  0  0  0
  4 17  1  0  0  0  0
  4  5  1  0  0  0  0
  5  6  1  0  0  0  0
  5 26  1  0  0  0  0
  5 27  1  0  0  0  0
  6  7  1  0  0  0  0
  6 28  1  0  0  0  0
  6 29  1  0  0  0  0
  7  8  1  0  0  0  0
  7 17  1  0  0  0  0
  7 30  1  0  0  0  0
  8 31  1  0  0  0  0
  8  9  1  0  0  0  0
  9 11  1  0  0  0  0
  9 10  2  0  0  0  0
 11 12  2  0  0  0  0
 12 16  1  0  0  0  0
 12 13  1  0  0  0  0
 13 32  1  0  0  0  0
 13 14  1  0  0  0  0
 14 33  1  0  0  0  0
 14 15  2  0  0  0  0
 15 34  1  0  0  0  0
 15 16  1  0  0  0  0
 17 18  2  0  0  0  0
M  END
> <s_m_source_file>
AV-unprocessed.smi

> <i_m_source_file_index>
2247

> <i_lp_mmshare_version>
43012

> <i_f3d_flags>
0

> <s_epik_input>
W0NIM11bQ0hdKFtDSDNdKU4xW0NIMl1bQ0gyXVtDQEhdKEMxPU8pW05IXUMoPU8pW05IXWMybltjSF1bY0hdbzI=

> <s_epik_cmdline>
J2VwaWtfcHl0aG9uJywgJy1waCcsICc3LjAnLCAnLXRuJywgJzgnLCAnLW1hJywgJzIwMCcsICctbWV0YWxfYmluZGluZycsICctaW1hZScsICc8aW5maWxlLm1hZT4nLCAnLW9tYWUnLCAnPG91dGZpbGUubWFlPic=

> <r_lp_tautomer_probability>
0.107061

> <r_epik_Ionization_Penalty>
0.180736

> <r_epik_Ionization_Penalty_Charging>
0.180388

> <r_epik_Ionization_Penalty_Neutral>
0.000348501

> <r_epik_State_Penalty>
2.44396

> <r_epik_Charging_Adjusted_Penalty>
2.62435

> <i_epik_Tot_Q>
0

> <i_epik_Tot_abs_Q>
0

> <r_epik_Metal_State_Penalty>
4.38331

> <b_epik_Metal_Only>
0

> <s_lp_Force_Field>
OPLS_2005

> <r_lp_Energy>
45.5374

> <b_lp_Chiralities_Consistent>
1

> <s_lp_Variant>
AV-unprocessed.smi:2247-5

> <Gold.Version>
5.8.1

> <Gold.Id.Protein>
6NUR|6NUR_protein|mol2

> <Gold.PLP.Fitness>
44.4348

> <Gold.PLP.PLP>
-35.3756

> <Gold.PLP.part.hbond>
-2.9518

> <Gold.PLP.part.metal>
0.0000

> <Gold.PLP.part.buried>
-2.5118

> <Gold.PLP.part.nonpolar>
-30.3950

> <Gold.PLP.part.repulsive>
0.6704

> <Gold.PLP.ligand.clash>
0.0000

> <Gold.PLP.ligand.torsion>
0.7570

> <Gold.PLP.Chemscore.Hbond>
1.5002

> <Gold.PLP.Chemscore.CHOScore>
1.9986

> <Gold.PLP.Chemscore.Metal>
0.0000

> <Gold.Chemscore.Hbonds>
donor molecule, donor type, donor heavy atom, donor atom, acceptor molecule, acceptor atom, score
      L1  H     8    31       P1  8028  0.57
      P1  H  7989  7998       L1    10  1.00
      L1  C    14    33       P1  7948  1.00
      L1  C    15    34       P1 10175  1.00

> <Gold.PLP.Chemscore.Internal.Correction>
0.0767

> <Gold.Rescore>
     Score         DG    S(hbond)    S(metal)    S(lipo)     H(rot)  DE(clash)    DE(int)     intcor
     10.66     -13.48       0.81        0.00      74.36       1.33       0.54       2.27       ----

> <Gold.Chemscore.Fitness>
10.6628

> <Gold.Chemscore.DG>
-13.4759

> <Gold.Chemscore.ZeroCoef>
-5.4800

> <Gold.Chemscore.Hbond>
0.8113

> <Gold.Chemscore.Metal>
0.0000

> <Gold.Chemscore.Lipo>
74.3636

> <Gold.Chemscore.Internal_Hbond>
0.0000

> <Gold.Chemscore.DEClash>
0.5434

> <Gold.Chemscore.DEInternal>
2.2697

> <Gold.Chemscore.Rot>
1.3338

> <Gold.Chemscore.Internal.Correction>
   9.000000E+99

> <Gold.Chemscore.Hbonds>
donor molecule, donor type, donor heavy atom, donor atom, acceptor molecule, acceptor atom, score
      L1  H     8    31       P1  8028  0.56
      P1  H  7989  7998       L1    10  0.48

> <Gold.Chemscore.Hbond.Weighted>
-2.7098

> <Gold.Chemscore.Metal.Weighted>
-0.0000

> <Gold.Chemscore.Lipo.Weighted>
-8.7005

> <Gold.Chemscore.Internal_Hbond.Weighted>
0.0000

> <Gold.Chemscore.DEClash.Weighted>
0.5434

> <Gold.Chemscore.DEInternal.Weighted>
2.2697

> <Gold.Chemscore.Rot.Weighted>
3.4145

> <Gold.Chemscore.Internal.Correction.Weighted>
   9.000000E+99

> <Gold.Protein.RotatedTorsions>
[ 6907 6896 6895 6894 ] final  105.20 input  -60.11 | X-H torsion
[ 7974 7965 7964 7962 ] final   -1.72 input  175.53 | X-H torsion
[ 8008 7997 7996 7995 ] final  166.51 input   59.86 | X-H torsion
[ 10167 10162 10161 10158 ] final  120.87 input  -65.29 | X-H torsion
[ 10718 10713 10712 10709 ] final  101.87 input   66.30 | X-H torsion
[ 10763 10752 10751 10750 ] final  111.53 input  -60.55 | X-H torsion
[ 11005 11000 10999 10996 ] final -178.34 input  -57.11 | X-H torsion

> <Gold.Protein.ActiveResidues>
 VAL166  LYS551  ARG553  GLY616  TRP617  ASP618  TYR619  PRO620  LYS621  CYS622 
 ASP623  PHE694  ASN695  SER759  ASP760  ASP761  ALA762  ILE779  LEU786  VAL792 
 PHE793  MET794  SER795  GLU796  ALA797  LYS798  CYS799  TRP800  GLU811  SER814 

> <Gold.Protein.RotatedAtoms>
  152.5239  133.9564  159.7696 H   0  0  0  0  0  0  0  0  0  0  0  0  # atno 6907 bound_to 6896
  150.9864  133.6185  159.2722 H   0  0  0  0  0  0  0  0  0  0  0  0  # atno 6908 bound_to 6896
  151.3344  135.0855  159.9403 H   0  0  0  0  0  0  0  0  0  0  0  0  # atno 6909 bound_to 6896
  146.2413  140.1463  142.8334 H   0  0  0  0  0  0  0  0  0  0  0  0  # atno 7974 bound_to 7965
  156.1712  140.1641  156.8443 H   0  0  0  0  0  0  0  0  0  0  0  0  # atno 8008 bound_to 7997
  154.5259  140.0767  156.8292 H   0  0  0  0  0  0  0  0  0  0  0  0  # atno 8009 bound_to 7997
  155.3508  140.3390  155.4241 H   0  0  0  0  0  0  0  0  0  0  0  0  # atno 8010 bound_to 7997
  139.5955  144.7040  151.3187 H   0  0  0  0  0  0  0  0  0  0  0  0  # atno 10167 bound_to 10162
  157.6818  131.0738  150.5318 H   0  0  0  0  0  0  0  0  0  0  0  0  # atno 10718 bound_to 10713
  153.4647  135.3714  155.2358 H   0  0  0  0  0  0  0  0  0  0  0  0  # atno 10763 bound_to 10752
  154.8757  135.3917  154.3883 H   0  0  0  0  0  0  0  0  0  0  0  0  # atno 10764 bound_to 10752
  153.4461  135.7085  153.6202 H   0  0  0  0  0  0  0  0  0  0  0  0  # atno 10765 bound_to 10752
  140.4309  134.6520  157.4711 H   0  0  0  0  0  0  0  0  0  0  0  0  # atno 11005 bound_to 11000
  145.0205  140.8789  143.5170 LP  0  0  0  0  0  0  0  0  0  0  0  0  # atno 17320 bound_to 7965
  145.1511  139.2514  143.5440 LP  0  0  0  0  0  0  0  0  0  0  0  0  # atno 17321 bound_to 7965
  140.7208  143.7141  150.7747 LP  0  0  0  0  0  0  0  0  0  0  0  0  # atno 17342 bound_to 10162
  140.0706  143.5065  152.2582 LP  0  0  0  0  0  0  0  0  0  0  0  0  # atno 17343 bound_to 10162
  156.5628  130.4260  149.6055 LP  0  0  0  0  0  0  0  0  0  0  0  0  # atno 17370 bound_to 10713
  156.2806  130.7069  151.1892 LP  0  0  0  0  0  0  0  0  0  0  0  0  # atno 17371 bound_to 10713
  140.0135  134.6654  155.9345 LP  0  0  0  0  0  0  0  0  0  0  0  0  # atno 17394 bound_to 11000
  141.1746  133.6539  156.4779 LP  0  0  0  0  0  0  0  0  0  0  0  0  # atno 17395 bound_to 11000

$$$$
