AV-unprocessed.smi:2567|AV-procd|sdf|10077|dock5
  -GOLD-   2272014103D 1   1.00000     0.00000
 Structure written by MMmdl.
 34 35  0  0  0  0  0  0  0  0  2 V2000
  152.4905  144.3781  157.7827 C   0  0  0  0  0  0  0  0  0  0  0  0
  151.7619  143.2677  158.5648 C   0  0  0  0  0  0  0  0  0  0  0  0
  152.6964  142.7916  159.6997 C   0  0  0  0  0  0  0  0  0  0  0  0
  150.4801  143.8363  159.2030 C   0  0  0  0  0  0  0  0  0  0  0  0
  151.4023  142.1394  157.6275 C   0  0  0  0  0  0  0  0  0  0  0  0
  151.8408  140.8846  157.7781 N   0  0  0  0  0  0  0  0  0  0  0  0
  151.3341  140.1043  156.8009 N   0  0  0  0  0  0  0  0  0  0  0  0
  150.6121  140.9748  156.0987 C   0  0  0  0  0  0  0  0  0  0  0  0
  149.8133  140.5300  154.9137 C   0  0  1  0  0  0  0  0  0  0  0  0
  150.0384  139.0415  154.5864 C   0  0  0  0  0  0  0  0  0  0  0  0
  149.1528  138.6317  153.4794 N   0  3  0  0  0  0  0  0  0  0  0  0
  147.7388  138.9322  153.7794 C   0  0  0  0  0  0  0  0  0  0  0  0
  147.5779  140.4187  154.1449 C   0  0  0  0  0  0  0  0  0  0  0  0
  148.4394  140.7442  155.2310 O   0  0  0  0  0  0  0  0  0  0  0  0
  150.5951  142.2566  156.5753 N   0  0  0  0  0  0  0  0  0  0  0  0
  152.7717  145.2056  158.4351 H   0  0  0  0  0  0  0  0  0  0  0  0
  151.8631  144.7885  156.9907 H   0  0  0  0  0  0  0  0  0  0  0  0
  153.4023  144.0021  157.3172 H   0  0  0  0  0  0  0  0  0  0  0  0
  153.6293  142.3854  159.3067 H   0  0  0  0  0  0  0  0  0  0  0  0
  152.2270  142.0187  160.3093 H   0  0  0  0  0  0  0  0  0  0  0  0
  152.9581  143.6133  160.3677 H   0  0  0  0  0  0  0  0  0  0  0  0
  150.7057  144.6510  159.8920 H   0  0  0  0  0  0  0  0  0  0  0  0
  149.9438  143.0702  159.7642 H   0  0  0  0  0  0  0  0  0  0  0  0
  149.7971  144.2282  158.4483 H   0  0  0  0  0  0  0  0  0  0  0  0
  150.0841  141.1491  154.0560 H   0  0  0  0  0  0  0  0  0  0  0  0
  151.0763  138.8596  154.3063 H   0  0  0  0  0  0  0  0  0  0  0  0
  149.8263  138.4226  155.4597 H   0  0  0  0  0  0  0  0  0  0  0  0
  149.4213  139.1370  152.6469 H   0  0  0  0  0  0  0  0  0  0  0  0
  147.1239  138.6798  152.9154 H   0  0  0  0  0  0  0  0  0  0  0  0
  147.4064  138.3035  154.6063 H   0  0  0  0  0  0  0  0  0  0  0  0
  147.7994  141.0565  153.2878 H   0  0  0  0  0  0  0  0  0  0  0  0
  146.5481  140.6249  154.4368 H   0  0  0  0  0  0  0  0  0  0  0  0
  149.2590  137.6412  153.3124 H   0  0  0  0  0  0  0  0  0  0  0  0
  152.4522  140.5338  158.5021 H   0  0  0  0  0  0  0  0  0  0  0  0
  1  2  1  0  0  0  0
  1 16  1  0  0  0  0
  1 17  1  0  0  0  0
  1 18  1  0  0  0  0
  2  3  1  0  0  0  0
  2  4  1  0  0  0  0
  2  5  1  0  0  0  0
  3 19  1  0  0  0  0
  3 20  1  0  0  0  0
  3 21  1  0  0  0  0
  4 22  1  0  0  0  0
  4 23  1  0  0  0  0
  4 24  1  0  0  0  0
  5 15  2  0  0  0  0
  5  6  1  0  0  0  0
  6  7  1  0  0  0  0
  6 34  1  0  0  0  0
  7  8  2  0  0  0  0
  8  9  1  0  0  0  0
  8 15  1  0  0  0  0
  9 14  1  0  0  0  0
  9 10  1  0  0  0  0
  9 25  1  0  0  0  0
 10 11  1  0  0  0  0
 10 26  1  0  0  0  0
 10 27  1  0  0  0  0
 11 12  1  0  0  0  0
 11 28  1  0  0  0  0
 11 33  1  0  0  0  0
 12 13  1  0  0  0  0
 12 29  1  0  0  0  0
 12 30  1  0  0  0  0
 13 14  1  0  0  0  0
 13 31  1  0  0  0  0
 13 32  1  0  0  0  0
M  CHG  1  11   1
M  END
> <s_m_source_file>
AV-unprocessed.smi

> <i_m_source_file_index>
2567

> <i_lp_mmshare_version>
43012

> <i_f3d_flags>
0

> <s_epik_input>
W0NIM11DKFtDSDNdKShbQ0gzXSljMW5bbkhdYyhuMSlbQ0BASF0yW0NIMl1bTkhdW0NIMl1bQ0gyXU8y

> <s_epik_cmdline>
J2VwaWtfcHl0aG9uJywgJy1waCcsICc3LjAnLCAnLXRuJywgJzgnLCAnLW1hJywgJzIwMCcsICctbWV0YWxfYmluZGluZycsICctaW1hZScsICc8aW5maWxlLm1hZT4nLCAnLW9tYWUnLCAnPG91dGZpbGUubWFlPic=

> <r_lp_tautomer_probability>
0.948284

> <r_epik_Ionization_Penalty>
0.108767

> <r_epik_Ionization_Penalty_Charging>
0.100865

> <r_epik_Ionization_Penalty_Neutral>
0.00790271

> <r_epik_State_Penalty>
0.197684

> <r_epik_Charging_Adjusted_Penalty>
0.298549

> <i_epik_Tot_Q>
1

> <i_epik_Tot_abs_Q>
1

> <r_epik_Metal_State_Penalty>
0.508163

> <b_epik_Metal_Only>
0

> <s_lp_Force_Field>
OPLS_2005

> <r_lp_Energy>
13.5153

> <b_lp_Chiralities_Consistent>
1

> <s_lp_Variant>
AV-unprocessed.smi:2567-2

> <Gold.Version>
5.8.1

> <Gold.Id.Protein>
6NUR|6NUR_protein|mol2

> <Gold.PLP.Fitness>
38.4760

> <Gold.PLP.PLP>
-29.5538

> <Gold.PLP.part.hbond>
-2.0000

> <Gold.PLP.part.metal>
0.0000

> <Gold.PLP.part.buried>
-4.6689

> <Gold.PLP.part.nonpolar>
-24.2796

> <Gold.PLP.part.repulsive>
0.8082

> <Gold.PLP.ligand.clash>
0.0000

> <Gold.PLP.ligand.torsion>
0.0243

> <Gold.PLP.Chemscore.Hbond>
2.9840

> <Gold.PLP.Chemscore.CHOScore>
0.0000

> <Gold.PLP.Chemscore.Metal>
0.0000

> <Gold.Chemscore.Hbonds>
donor molecule, donor type, donor heavy atom, donor atom, acceptor molecule, acceptor atom, score
      L1  H    11    28       P1  7957  1.00
      L1  H    11    33       P1  7948  1.63

> <Gold.PLP.Chemscore.Internal.Correction>
0.0188

> <Gold.Rescore>
     Score         DG    S(hbond)    S(metal)    S(lipo)     H(rot)  DE(clash)    DE(int)     intcor
     16.46     -16.75       1.95        0.00      68.47       1.26       0.22       0.07       ----

> <Gold.Chemscore.Fitness>
16.4578

> <Gold.Chemscore.DG>
-16.7523

> <Gold.Chemscore.ZeroCoef>
-5.4800

> <Gold.Chemscore.Hbond>
1.9459

> <Gold.Chemscore.Metal>
0.0000

> <Gold.Chemscore.Lipo>
68.4675

> <Gold.Chemscore.Internal_Hbond>
0.0000

> <Gold.Chemscore.DEClash>
0.2250

> <Gold.Chemscore.DEInternal>
0.0695

> <Gold.Chemscore.Rot>
1.2647

> <Gold.Chemscore.Internal.Correction>
   9.000000E+99

> <Gold.Chemscore.Hbonds>
donor molecule, donor type, donor heavy atom, donor atom, acceptor molecule, acceptor atom, score
      L1  H    11    28       P1  7957  0.99
      L1  H    11    33       P1  7948  0.76

> <Gold.Chemscore.Hbond.Weighted>
-6.4992

> <Gold.Chemscore.Metal.Weighted>
-0.0000

> <Gold.Chemscore.Lipo.Weighted>
-8.0107

> <Gold.Chemscore.Internal_Hbond.Weighted>
0.0000

> <Gold.Chemscore.DEClash.Weighted>
0.2250

> <Gold.Chemscore.DEInternal.Weighted>
0.0695

> <Gold.Chemscore.Rot.Weighted>
3.2375

> <Gold.Chemscore.Internal.Correction.Weighted>
   9.000000E+99

> <Gold.Protein.RotatedTorsions>
[ 6907 6896 6895 6894 ] final  160.61 input  -60.11 | X-H torsion
[ 7974 7965 7964 7962 ] final  118.64 input  175.53 | X-H torsion
[ 8008 7997 7996 7995 ] final  137.81 input   59.86 | X-H torsion
[ 10167 10162 10161 10158 ] final  -67.42 input  -65.29 | X-H torsion
[ 10718 10713 10712 10709 ] final   -8.26 input   66.30 | X-H torsion
[ 10763 10752 10751 10750 ] final -156.46 input  -60.55 | X-H torsion
[ 11005 11000 10999 10996 ] final   -5.72 input  -57.11 | X-H torsion

> <Gold.Protein.ActiveResidues>
 VAL166  LYS551  ARG553  GLY616  TRP617  ASP618  TYR619  PRO620  LYS621  CYS622 
 ASP623  PHE694  ASN695  SER759  ASP760  ASP761  ALA762  ILE779  LEU786  VAL792 
 PHE793  MET794  SER795  GLU796  ALA797  LYS798  CYS799  TRP800  GLU811  SER814 

> <Gold.Protein.RotatedAtoms>
  151.9681  133.3717  159.4060 H   0  0  0  0  0  0  0  0  0  0  0  0  # atno 6907 bound_to 6896
  150.6953  134.4169  159.5196 H   0  0  0  0  0  0  0  0  0  0  0  0  # atno 6908 bound_to 6896
  152.1869  134.8706  160.0572 H   0  0  0  0  0  0  0  0  0  0  0  0  # atno 6909 bound_to 6896
  145.1527  139.3201  143.4558 H   0  0  0  0  0  0  0  0  0  0  0  0  # atno 7974 bound_to 7965
  156.3000  140.2410  156.3971 H   0  0  0  0  0  0  0  0  0  0  0  0  # atno 8008 bound_to 7997
  154.8561  140.0422  157.1655 H   0  0  0  0  0  0  0  0  0  0  0  0  # atno 8009 bound_to 7997
  154.8947  140.2968  155.5355 H   0  0  0  0  0  0  0  0  0  0  0  0  # atno 8010 bound_to 7997
  140.5584  143.2312  151.6776 H   0  0  0  0  0  0  0  0  0  0  0  0  # atno 10167 bound_to 10162
  156.7051  130.5105  149.5907 H   0  0  0  0  0  0  0  0  0  0  0  0  # atno 10718 bound_to 10713
  154.7711  135.3145  154.8187 H   0  0  0  0  0  0  0  0  0  0  0  0  # atno 10763 bound_to 10752
  153.8922  135.6824  153.4764 H   0  0  0  0  0  0  0  0  0  0  0  0  # atno 10764 bound_to 10752
  153.1325  135.4774  154.9306 H   0  0  0  0  0  0  0  0  0  0  0  0  # atno 10765 bound_to 10752
  140.6943  133.9044  155.8639 H   0  0  0  0  0  0  0  0  0  0  0  0  # atno 11005 bound_to 11000
  146.3492  140.1608  142.8591 LP  0  0  0  0  0  0  0  0  0  0  0  0  # atno 17320 bound_to 7965
  145.0413  140.8948  143.5050 LP  0  0  0  0  0  0  0  0  0  0  0  0  # atno 17321 bound_to 7965
  139.5058  144.3703  152.0477 LP  0  0  0  0  0  0  0  0  0  0  0  0  # atno 17342 bound_to 10162
  140.2827  144.3842  150.6114 LP  0  0  0  0  0  0  0  0  0  0  0  0  # atno 17343 bound_to 10162
  156.1701  130.6431  151.0826 LP  0  0  0  0  0  0  0  0  0  0  0  0  # atno 17370 bound_to 10713
  157.6958  131.0794  150.6973 LP  0  0  0  0  0  0  0  0  0  0  0  0  # atno 17371 bound_to 10713
  141.0216  134.0881  157.4114 LP  0  0  0  0  0  0  0  0  0  0  0  0  # atno 17394 bound_to 11000
  139.8914  135.0118  156.6793 LP  0  0  0  0  0  0  0  0  0  0  0  0  # atno 17395 bound_to 11000

$$$$
