AV-unprocessed.smi:199|AV-procd|sdf|1561|dock6
  -GOLD-   2262019433D 1   1.00000     0.00000
 Structure written by MMmdl.
 51 55  0  0  0  0  0  0  0  0  1 V2000
  150.3286  134.3077  155.7605 C   0  0  0  0  0  0  0  0  0  0  0  0
  150.9483  135.6987  155.5489 C   0  0  1  0  0  0  0  0  0  0  0  0
  151.9389  135.6554  154.5321 O   0  0  0  0  0  0  0  0  0  0  0  0
  152.1760  136.9919  154.1289 C   0  0  0  0  0  0  0  0  0  0  0  0
  150.7687  137.5669  154.0236 C   0  0  0  0  0  0  0  0  0  0  0  0
  149.9898  136.8447  155.1277 C   0  0  1  0  0  0  0  0  0  0  0  0
  148.7881  136.3440  154.5647 O   0  0  0  0  0  0  0  0  0  0  0  0
  149.6182  137.7937  156.2937 C   0  0  0  0  0  0  0  0  0  0  0  0
  149.0284  137.1083  157.4340 N   0  0  0  0  0  0  0  0  0  0  0  0
  149.6613  136.2414  158.2951 C   0  0  0  0  0  0  0  0  0  0  0  0
  148.9123  135.7595  159.2483 N   0  0  0  0  0  0  0  0  0  0  0  0
  147.6649  136.3332  159.0299 C   0  0  0  0  0  0  0  0  0  0  0  0
  146.4003  136.2499  159.6818 C   0  0  0  0  0  0  0  0  0  0  0  0
  146.1728  135.4967  160.7923 N   0  0  0  0  0  0  0  0  0  0  0  0
  147.2710  134.7919  161.4327 C   0  0  1  0  0  0  0  0  0  0  0  0
  148.0573  135.9023  162.1573 C   0  0  0  0  0  0  0  0  0  0  0  0
  146.9218  136.8452  162.5844 C   0  0  0  0  0  0  0  0  0  0  0  0
  145.6877  136.1040  162.0251 C   0  0  2  0  0  0  0  0  0  0  0  0
  145.4019  134.8779  162.9205 C   0  0  1  0  0  0  0  0  0  0  0  0
  144.0008  134.2751  162.7103 C   0  0  0  0  0  0  0  0  0  0  0  0
  143.0042  135.2276  163.0149 O   0  0  0  0  0  0  0  0  0  0  0  0
  146.5348  133.9311  162.4729 C   0  0  0  0  0  0  0  0  0  0  0  0
  145.3704  136.9468  159.1309 N   0  0  0  0  0  0  0  0  0  0  0  0
  145.5629  137.6974  158.0434 C   0  0  0  0  0  0  0  0  0  0  0  0
  146.6852  137.8836  157.3479 N   0  0  0  0  0  0  0  0  0  0  0  0
  147.7195  137.1721  157.8797 C   0  0  0  0  0  0  0  0  0  0  0  0
  149.5592  134.3324  156.5325 H   0  0  0  0  0  0  0  0  0  0  0  0
  151.0885  133.5923  156.0750 H   0  0  0  0  0  0  0  0  0  0  0  0
  149.8781  133.9252  154.8445 H   0  0  0  0  0  0  0  0  0  0  0  0
  151.4721  135.9843  156.4618 H   0  0  0  0  0  0  0  0  0  0  0  0
  152.7564  137.5109  154.8934 H   0  0  0  0  0  0  0  0  0  0  0  0
  152.7229  137.0391  153.1872 H   0  0  0  0  0  0  0  0  0  0  0  0
  150.7604  138.6530  154.1234 H   0  0  0  0  0  0  0  0  0  0  0  0
  150.3658  137.3285  153.0377 H   0  0  0  0  0  0  0  0  0  0  0  0
  148.8512  136.4010  153.6237 H   0  0  0  0  0  0  0  0  0  0  0  0
  150.5068  138.3249  156.6373 H   0  0  0  0  0  0  0  0  0  0  0  0
  148.9193  138.5601  155.9557 H   0  0  0  0  0  0  0  0  0  0  0  0
  150.7050  135.9804  158.1982 H   0  0  0  0  0  0  0  0  0  0  0  0
  147.8940  134.1887  160.7745 H   0  0  0  0  0  0  0  0  0  0  0  0
  148.6368  135.5251  163.0008 H   0  0  0  0  0  0  0  0  0  0  0  0
  148.7406  136.4082  161.4740 H   0  0  0  0  0  0  0  0  0  0  0  0
  146.8737  136.9915  163.6640 H   0  0  0  0  0  0  0  0  0  0  0  0
  147.0411  137.8247  162.1199 H   0  0  0  0  0  0  0  0  0  0  0  0
  144.8185  136.7518  161.9042 H   0  0  0  0  0  0  0  0  0  0  0  0
  145.5175  135.1328  163.9753 H   0  0  0  0  0  0  0  0  0  0  0  0
  143.8699  133.9309  161.6838 H   0  0  0  0  0  0  0  0  0  0  0  0
  143.8594  133.4122  163.3616 H   0  0  0  0  0  0  0  0  0  0  0  0
  142.6472  135.0268  163.8666 H   0  0  0  0  0  0  0  0  0  0  0  0
  146.1378  133.0285  162.0060 H   0  0  0  0  0  0  0  0  0  0  0  0
  147.1801  133.6243  163.2971 H   0  0  0  0  0  0  0  0  0  0  0  0
  144.6929  138.2234  157.6789 H   0  0  0  0  0  0  0  0  0  0  0  0
  1  2  1  0  0  0  0
  1 27  1  0  0  0  0
  1 28  1  0  0  0  0
  1 29  1  0  0  0  0
  2  6  1  0  0  0  0
  2  3  1  0  0  0  0
  2 30  1  0  0  0  0
  3  4  1  0  0  0  0
  4  5  1  0  0  0  0
  4 31  1  0  0  0  0
  4 32  1  0  0  0  0
  5  6  1  0  0  0  0
  5 33  1  0  0  0  0
  5 34  1  0  0  0  0
  6  7  1  0  0  0  0
  6  8  1  0  0  0  0
  7 35  1  0  0  0  0
  8  9  1  0  0  0  0
  8 36  1  0  0  0  0
  8 37  1  0  0  0  0
  9 26  1  0  0  0  0
  9 10  1  0  0  0  0
 10 11  2  0  0  0  0
 10 38  1  0  0  0  0
 11 12  1  0  0  0  0
 12 26  2  0  0  0  0
 12 13  1  0  0  0  0
 13 14  1  0  0  0  0
 13 23  2  0  0  0  0
 14 18  1  0  0  0  0
 14 15  1  0  0  0  0
 15 22  1  0  0  0  0
 15 16  1  0  0  0  0
 15 39  1  0  0  0  0
 16 17  1  0  0  0  0
 16 40  1  0  0  0  0
 16 41  1  0  0  0  0
 17 18  1  0  0  0  0
 17 42  1  0  0  0  0
 17 43  1  0  0  0  0
 18 19  1  0  0  0  0
 18 44  1  0  0  0  0
 19 20  1  0  0  0  0
 19 22  1  0  0  0  0
 19 45  1  0  0  0  0
 20 21  1  0  0  0  0
 20 46  1  0  0  0  0
 20 47  1  0  0  0  0
 21 48  1  0  0  0  0
 22 49  1  0  0  0  0
 22 50  1  0  0  0  0
 23 24  1  0  0  0  0
 24 25  2  0  0  0  0
 24 51  1  0  0  0  0
 25 26  1  0  0  0  0
M  END
> <s_m_source_file>
AV-unprocessed.smi

> <i_m_source_file_index>
199

> <i_lp_mmshare_version>
43012

> <i_f3d_flags>
0

> <s_epik_input>
W0NIMl0xW0NIMl1PW0NAQEhdKFtDSDNdKVtDQEBdMShbT0hdKVtDSDJdbihbY0hdbjIpYyhjMjMpbltjSF1uYzNOKFtDQEBIXTQ1KVtDQEhdKFtDSDJdW0NIMl00KVtDQEhdKFtDSDJdNSlbQ0gyXVtPSF0=

> <s_epik_cmdline>
J2VwaWtfcHl0aG9uJywgJy1waCcsICc3LjAnLCAnLXRuJywgJzgnLCAnLW1hJywgJzIwMCcsICctbWV0YWxfYmluZGluZycsICctaW1hZScsICc8aW5maWxlLm1hZT4nLCAnLW9tYWUnLCAnPG91dGZpbGUubWFlPic=

> <r_lp_tautomer_probability>
1

> <r_epik_Ionization_Penalty>
0.00583903

> <r_epik_Ionization_Penalty_Charging>
0

> <r_epik_Ionization_Penalty_Neutral>
0.00583903

> <r_epik_State_Penalty>
-0

> <r_epik_Charging_Adjusted_Penalty>
0

> <i_epik_Tot_Q>
0

> <i_epik_Tot_abs_Q>
0

> <r_epik_Metal_State_Penalty>
-0

> <b_epik_Metal_Only>
0

> <s_lp_Force_Field>
OPLS_2005

> <r_lp_Energy>
83.4271

> <b_lp_Chiralities_Consistent>
1

> <s_lp_Variant>
AV-unprocessed.smi:199-2

> <Gold.Version>
5.8.1

> <Gold.Id.Protein>
6NUR|6NUR_protein|mol2

> <Gold.PLP.Fitness>
42.8171

> <Gold.PLP.PLP>
-37.0429

> <Gold.PLP.part.hbond>
-2.0000

> <Gold.PLP.part.metal>
0.0000

> <Gold.PLP.part.buried>
-7.2674

> <Gold.PLP.part.nonpolar>
-27.7188

> <Gold.PLP.part.repulsive>
0.1296

> <Gold.PLP.ligand.clash>
0.0000

> <Gold.PLP.ligand.torsion>
0.1369

> <Gold.PLP.Chemscore.Hbond>
2.0000

> <Gold.PLP.Chemscore.CHOScore>
0.0000

> <Gold.PLP.Chemscore.Metal>
0.0000

> <Gold.Chemscore.Hbonds>
donor molecule, donor type, donor heavy atom, donor atom, acceptor molecule, acceptor atom, score
      L1  H     7    35       P1  7948  1.00

> <Gold.PLP.Chemscore.Internal.Correction>
0.0481

> <Gold.Rescore>
     Score         DG    S(hbond)    S(metal)    S(lipo)     H(rot)  DE(clash)    DE(int)     intcor
     13.01     -14.42       1.98        0.00      87.13       3.07       0.00       1.41       ----

> <Gold.Chemscore.Fitness>
13.0140

> <Gold.Chemscore.DG>
-14.4212

> <Gold.Chemscore.ZeroCoef>
-5.4800

> <Gold.Chemscore.Hbond>
1.9802

> <Gold.Chemscore.Metal>
0.0000

> <Gold.Chemscore.Lipo>
87.1280

> <Gold.Chemscore.Internal_Hbond>
0.0000

> <Gold.Chemscore.DEClash>
0.0009

> <Gold.Chemscore.DEInternal>
1.4063

> <Gold.Chemscore.Rot>
3.0729

> <Gold.Chemscore.Internal.Correction>
   9.000000E+99

> <Gold.Chemscore.Hbonds>
donor molecule, donor type, donor heavy atom, donor atom, acceptor molecule, acceptor atom, score
      L1  H     7    35       P1  7948  1.00

> <Gold.Chemscore.Hbond.Weighted>
-6.6139

> <Gold.Chemscore.Metal.Weighted>
-0.0000

> <Gold.Chemscore.Lipo.Weighted>
-10.1940

> <Gold.Chemscore.Internal_Hbond.Weighted>
0.0000

> <Gold.Chemscore.DEClash.Weighted>
0.0009

> <Gold.Chemscore.DEInternal.Weighted>
1.4063

> <Gold.Chemscore.Rot.Weighted>
7.8667

> <Gold.Chemscore.Internal.Correction.Weighted>
   9.000000E+99

> <Gold.Protein.RotatedTorsions>
[ 6907 6896 6895 6894 ] final  113.03 input  -60.11 | X-H torsion
[ 7974 7965 7964 7962 ] final  -72.52 input  175.53 | X-H torsion
[ 8008 7997 7996 7995 ] final   96.13 input   59.86 | X-H torsion
[ 10167 10162 10161 10158 ] final -137.64 input  -65.29 | X-H torsion
[ 10718 10713 10712 10709 ] final  143.50 input   66.30 | X-H torsion
[ 10763 10752 10751 10750 ] final   43.04 input  -60.55 | X-H torsion
[ 11005 11000 10999 10996 ] final -144.59 input  -57.11 | X-H torsion

> <Gold.Protein.ActiveResidues>
 VAL166  LYS551  ARG553  GLY616  TRP617  ASP618  TYR619  PRO620  LYS621  CYS622 
 ASP623  PHE694  ASN695  SER759  ASP760  ASP761  ALA762  ILE779  LEU786  VAL792 
 PHE793  MET794  SER795  GLU796  ALA797  LYS798  CYS799  TRP800  GLU811  SER814 

> <Gold.Protein.RotatedAtoms>
  152.4884  133.8433  159.7163 H   0  0  0  0  0  0  0  0  0  0  0  0  # atno 6907 bound_to 6896
  150.8990  133.7133  159.2890 H   0  0  0  0  0  0  0  0  0  0  0  0  # atno 6908 bound_to 6896
  151.4581  135.1040  159.9769 H   0  0  0  0  0  0  0  0  0  0  0  0  # atno 6909 bound_to 6896
  145.6640  140.9243  143.0918 H   0  0  0  0  0  0  0  0  0  0  0  0  # atno 7974 bound_to 7965
  156.0763  140.3277  155.7638 H   0  0  0  0  0  0  0  0  0  0  0  0  # atno 8008 bound_to 7997
  155.5225  140.0586  157.2921 H   0  0  0  0  0  0  0  0  0  0  0  0  # atno 8009 bound_to 7997
  154.4557  140.1941  156.0404 H   0  0  0  0  0  0  0  0  0  0  0  0  # atno 8010 bound_to 7997
  139.8557  143.7141  152.2654 H   0  0  0  0  0  0  0  0  0  0  0  0  # atno 10167 bound_to 10162
  157.3682  131.0975  151.0852 H   0  0  0  0  0  0  0  0  0  0  0  0  # atno 10718 bound_to 10713
  152.9869  135.6113  154.3047 H   0  0  0  0  0  0  0  0  0  0  0  0  # atno 10763 bound_to 10752
  154.2765  135.2778  155.2717 H   0  0  0  0  0  0  0  0  0  0  0  0  # atno 10764 bound_to 10752
  154.5075  135.5850  153.6636 H   0  0  0  0  0  0  0  0  0  0  0  0  # atno 10765 bound_to 10752
  140.8008  134.2859  157.4979 H   0  0  0  0  0  0  0  0  0  0  0  0  # atno 11005 bound_to 11000
  144.7079  139.8486  143.7424 LP  0  0  0  0  0  0  0  0  0  0  0  0  # atno 17320 bound_to 7965
  146.1101  139.4105  143.0293 LP  0  0  0  0  0  0  0  0  0  0  0  0  # atno 17321 bound_to 7965
  139.7422  144.7556  151.0635 LP  0  0  0  0  0  0  0  0  0  0  0  0  # atno 17342 bound_to 10162
  140.7782  143.4959  150.9833 LP  0  0  0  0  0  0  0  0  0  0  0  0  # atno 17343 bound_to 10162
  157.1966  130.6376  149.5723 LP  0  0  0  0  0  0  0  0  0  0  0  0  # atno 17370 bound_to 10713
  155.9750  130.4704  150.6430 LP  0  0  0  0  0  0  0  0  0  0  0  0  # atno 17371 bound_to 10713
  139.8722  134.9428  156.3836 LP  0  0  0  0  0  0  0  0  0  0  0  0  # atno 17394 bound_to 11000
  140.9296  133.7588  156.0008 LP  0  0  0  0  0  0  0  0  0  0  0  0  # atno 17395 bound_to 11000

$$$$
