AV-unprocessed.smi:788|AV-procd|sdf|3738|dock2
  -GOLD-   22720 1173D 1   1.00000     0.00000
 Structure written by MMmdl.
 34 35  0  0  0  0  0  0  0  0  2 V2000
  150.4035  142.9086  157.9867 C   0  0  0  0  0  0  0  0  0  0  0  0
  151.8557  143.4054  158.1481 C   0  0  1  0  0  0  0  0  0  0  0  0
  151.9164  144.8056  158.7900 C   0  0  0  0  0  0  0  0  0  0  0  0
  151.5987  144.7704  160.2926 C   0  0  0  0  0  0  0  0  0  0  0  0
  152.5284  143.7971  161.0312 C   0  0  0  0  0  0  0  0  0  0  0  0
  152.4721  142.3784  160.4308 C   0  0  2  0  0  0  0  0  0  0  0  0
  153.4105  141.4310  161.2010 C   0  0  0  0  0  0  0  0  0  0  0  0
  152.7821  142.4193  158.9116 C   0  0  1  0  0  0  0  0  0  0  0  0
  152.7094  141.0747  158.3414 N   0  0  0  0  0  0  0  0  0  0  0  0
  151.7199  140.1768  158.5145 C   0  0  0  0  0  0  0  0  0  0  0  0
  150.7643  140.4722  159.2309 O   0  0  0  0  0  0  0  0  0  0  0  0
  151.8352  138.9797  157.8812 N   0  5  0  0  0  0  0  0  0  0  0  0
  151.5136  138.8133  156.5848 C   0  0  0  0  0  0  0  0  0  0  0  0
  151.2671  139.8477  155.7650 N   0  0  0  0  0  0  0  0  0  0  0  0
  150.9461  139.4550  154.4727 N   0  0  0  0  0  0  0  0  0  0  0  0
  150.9719  138.1283  154.3474 C   0  0  0  0  0  0  0  0  0  0  0  0
  151.3833  137.2381  155.7977 S   0  0  0  0  0  0  0  0  0  0  0  0
  149.9218  142.7302  158.9473 H   0  0  0  0  0  0  0  0  0  0  0  0
  150.3587  141.9792  157.4185 H   0  0  0  0  0  0  0  0  0  0  0  0
  149.8009  143.6402  157.4482 H   0  0  0  0  0  0  0  0  0  0  0  0
  152.2518  143.5090  157.1368 H   0  0  0  0  0  0  0  0  0  0  0  0
  152.9163  145.2183  158.6499 H   0  0  0  0  0  0  0  0  0  0  0  0
  151.2357  145.4873  158.2789 H   0  0  0  0  0  0  0  0  0  0  0  0
  151.7014  145.7707  160.7143 H   0  0  0  0  0  0  0  0  0  0  0  0
  150.5600  144.4786  160.4491 H   0  0  0  0  0  0  0  0  0  0  0  0
  153.5516  144.1730  160.9878 H   0  0  0  0  0  0  0  0  0  0  0  0
  152.2565  143.7669  162.0866 H   0  0  0  0  0  0  0  0  0  0  0  0
  151.4579  142.0005  160.5654 H   0  0  0  0  0  0  0  0  0  0  0  0
  154.4538  141.7245  161.0815 H   0  0  0  0  0  0  0  0  0  0  0  0
  153.3139  140.4003  160.8586 H   0  0  0  0  0  0  0  0  0  0  0  0
  153.1836  141.4371  162.2674 H   0  0  0  0  0  0  0  0  0  0  0  0
  153.8091  142.7745  158.8050 H   0  0  0  0  0  0  0  0  0  0  0  0
  153.4826  140.7960  157.7558 H   0  0  0  0  0  0  0  0  0  0  0  0
  150.7474  137.6708  153.3955 H   0  0  0  0  0  0  0  0  0  0  0  0
  1  2  1  0  0  0  0
  1 18  1  0  0  0  0
  1 19  1  0  0  0  0
  1 20  1  0  0  0  0
  2  8  1  0  0  0  0
  2  3  1  0  0  0  0
  2 21  1  0  0  0  0
  3  4  1  0  0  0  0
  3 22  1  0  0  0  0
  3 23  1  0  0  0  0
  4  5  1  0  0  0  0
  4 24  1  0  0  0  0
  4 25  1  0  0  0  0
  5  6  1  0  0  0  0
  5 26  1  0  0  0  0
  5 27  1  0  0  0  0
  6  7  1  0  0  0  0
  6  8  1  0  0  0  0
  6 28  1  0  0  0  0
  7 29  1  0  0  0  0
  7 30  1  0  0  0  0
  7 31  1  0  0  0  0
  8  9  1  0  0  0  0
  8 32  1  0  0  0  0
  9 10  1  0  0  0  0
  9 33  1  0  0  0  0
 10 11  2  0  0  0  0
 10 12  1  0  0  0  0
 12 13  1  0  0  0  0
 13 17  1  0  0  0  0
 13 14  2  0  0  0  0
 14 15  1  0  0  0  0
 15 16  2  0  0  0  0
 16 17  1  0  0  0  0
 16 34  1  0  0  0  0
M  CHG  1  12  -1
M  END
> <s_m_source_file>
AV-unprocessed.smi

> <i_m_source_file_index>
788

> <i_lp_mmshare_version>
43012

> <i_f3d_flags>
0

> <s_epik_input>
W0NIM11bQ0BASF0xW0NIMl1bQ0gyXVtDSDJdW0NAQEhdKFtDSDNdKVtDQEhdMVtOSF1DKD1PKVtOSF1jMm5uW2NIXXMy

> <s_epik_cmdline>
J2VwaWtfcHl0aG9uJywgJy1waCcsICc3LjAnLCAnLXRuJywgJzgnLCAnLW1hJywgJzIwMCcsICctbWV0YWxfYmluZGluZycsICctaW1hZScsICc8aW5maWxlLm1hZT4nLCAnLW9tYWUnLCAnPG91dGZpbGUubWFlPic=

> <r_lp_tautomer_probability>
1

> <r_epik_Ionization_Penalty>
4.58638

> <r_epik_Ionization_Penalty_Charging>
4.53816

> <r_epik_Ionization_Penalty_Neutral>
0.048215

> <r_epik_State_Penalty>
4.53788

> <r_epik_Charging_Adjusted_Penalty>
9.07605

> <i_epik_Tot_Q>
-1

> <i_epik_Tot_abs_Q>
1

> <r_epik_Metal_State_Penalty>
0.838628

> <b_epik_Metal_Only>
1

> <s_lp_Force_Field>
OPLS_2005

> <r_lp_Energy>
12.9055

> <b_lp_Chiralities_Consistent>
1

> <s_lp_Variant>
AV-unprocessed.smi:788-8

> <Gold.Version>
5.8.1

> <Gold.Id.Protein>
6NUR|6NUR_protein|mol2

> <Gold.PLP.Fitness>
40.2191

> <Gold.PLP.PLP>
-35.7757

> <Gold.PLP.part.hbond>
-1.3882

> <Gold.PLP.part.metal>
0.0000

> <Gold.PLP.part.buried>
-2.8177

> <Gold.PLP.part.nonpolar>
-30.7685

> <Gold.PLP.part.repulsive>
0.2253

> <Gold.PLP.ligand.clash>
0.0000

> <Gold.PLP.ligand.torsion>
0.9339

> <Gold.PLP.Chemscore.Hbond>
1.0000

> <Gold.PLP.Chemscore.CHOScore>
1.0974

> <Gold.PLP.Chemscore.Metal>
0.0000

> <Gold.Chemscore.Hbonds>
donor molecule, donor type, donor heavy atom, donor atom, acceptor molecule, acceptor atom, score
      P1  H  7989  7998       L1    15  1.00
      L1  C    16    34       P1  7948  0.28
      L1  C    16    34       P1  7949  0.72

> <Gold.PLP.Chemscore.Internal.Correction>
0.0191

> <Gold.Rescore>
     Score         DG    S(hbond)    S(metal)    S(lipo)     H(rot)  DE(clash)    DE(int)     intcor
     13.72     -18.23       0.93        0.00     104.29       1.00       0.16       4.35       ----

> <Gold.Chemscore.Fitness>
13.7175

> <Gold.Chemscore.DG>
-18.2253

> <Gold.Chemscore.ZeroCoef>
-5.4800

> <Gold.Chemscore.Hbond>
0.9291

> <Gold.Chemscore.Metal>
0.0000

> <Gold.Chemscore.Lipo>
104.2925

> <Gold.Chemscore.Internal_Hbond>
0.0000

> <Gold.Chemscore.DEClash>
0.1609

> <Gold.Chemscore.DEInternal>
4.3469

> <Gold.Chemscore.Rot>
1.0000

> <Gold.Chemscore.Internal.Correction>
   9.000000E+99

> <Gold.Chemscore.Hbonds>
donor molecule, donor type, donor heavy atom, donor atom, acceptor molecule, acceptor atom, score
      P1  H  7989  7998       L1    15  0.30

> <Gold.Chemscore.Hbond.Weighted>
-3.1031

> <Gold.Chemscore.Metal.Weighted>
-0.0000

> <Gold.Chemscore.Lipo.Weighted>
-12.2022

> <Gold.Chemscore.Internal_Hbond.Weighted>
0.0000

> <Gold.Chemscore.DEClash.Weighted>
0.1609

> <Gold.Chemscore.DEInternal.Weighted>
4.3469

> <Gold.Chemscore.Rot.Weighted>
2.5600

> <Gold.Chemscore.Internal.Correction.Weighted>
   9.000000E+99

> <Gold.Protein.RotatedTorsions>
[ 6907 6896 6895 6894 ] final  117.20 input  -60.11 | X-H torsion
[ 7974 7965 7964 7962 ] final   -9.93 input  175.53 | X-H torsion
[ 8008 7997 7996 7995 ] final -103.24 input   59.86 | X-H torsion
[ 10167 10162 10161 10158 ] final  -67.41 input  -65.29 | X-H torsion
[ 10718 10713 10712 10709 ] final -105.52 input   66.30 | X-H torsion
[ 10763 10752 10751 10750 ] final -124.55 input  -60.55 | X-H torsion
[ 11005 11000 10999 10996 ] final  -11.21 input  -57.11 | X-H torsion

> <Gold.Protein.ActiveResidues>
 VAL166  LYS551  ARG553  GLY616  TRP617  ASP618  TYR619  PRO620  LYS621  CYS622 
 ASP623  PHE694  ASN695  SER759  ASP760  ASP761  ALA762  ILE779  LEU786  VAL792 
 PHE793  MET794  SER795  GLU796  ALA797  LYS798  CYS799  TRP800  GLU811  SER814 

> <Gold.Protein.RotatedAtoms>
  152.4627  133.7857  159.6874 H   0  0  0  0  0  0  0  0  0  0  0  0  # atno 6907 bound_to 6896
  150.8578  133.7678  159.3009 H   0  0  0  0  0  0  0  0  0  0  0  0  # atno 6908 bound_to 6896
  151.5253  135.1071  159.9941 H   0  0  0  0  0  0  0  0  0  0  0  0  # atno 6909 bound_to 6896
  146.2237  140.2688  142.8355 H   0  0  0  0  0  0  0  0  0  0  0  0  # atno 7974 bound_to 7965
  154.8680  140.0424  157.1707 H   0  0  0  0  0  0  0  0  0  0  0  0  # atno 8008 bound_to 7997
  154.8769  140.2966  155.5427 H   0  0  0  0  0  0  0  0  0  0  0  0  # atno 8009 bound_to 7997
  156.2999  140.2418  156.3766 H   0  0  0  0  0  0  0  0  0  0  0  0  # atno 8010 bound_to 7997
  140.5585  143.2312  151.6775 H   0  0  0  0  0  0  0  0  0  0  0  0  # atno 10167 bound_to 10162
  156.0350  130.5568  150.7551 H   0  0  0  0  0  0  0  0  0  0  0  0  # atno 10718 bound_to 10713
  154.8725  135.4060  154.3124 H   0  0  0  0  0  0  0  0  0  0  0  0  # atno 10763 bound_to 10752
  153.3966  135.7016  153.6461 H   0  0  0  0  0  0  0  0  0  0  0  0  # atno 10764 bound_to 10752
  153.5222  135.3685  155.2608 H   0  0  0  0  0  0  0  0  0  0  0  0  # atno 10765 bound_to 10752
  140.7529  133.8578  155.9059 H   0  0  0  0  0  0  0  0  0  0  0  0  # atno 11005 bound_to 11000
  144.9283  140.7946  143.5705 LP  0  0  0  0  0  0  0  0  0  0  0  0  # atno 17320 bound_to 7965
  145.2630  139.1985  143.4882 LP  0  0  0  0  0  0  0  0  0  0  0  0  # atno 17321 bound_to 7965
  139.5059  144.3702  152.0478 LP  0  0  0  0  0  0  0  0  0  0  0  0  # atno 17342 bound_to 10162
  140.2826  144.3843  150.6114 LP  0  0  0  0  0  0  0  0  0  0  0  0  # atno 17343 bound_to 10162
  157.5085  131.0924  151.0227 LP  0  0  0  0  0  0  0  0  0  0  0  0  # atno 17370 bound_to 10713
  157.0589  130.5817  149.5382 LP  0  0  0  0  0  0  0  0  0  0  0  0  # atno 17371 bound_to 10713
  140.9734  134.1500  157.4556 LP  0  0  0  0  0  0  0  0  0  0  0  0  # atno 17394 bound_to 11000
  139.8784  134.9986  156.5911 LP  0  0  0  0  0  0  0  0  0  0  0  0  # atno 17395 bound_to 11000

$$$$
