AV-unprocessed.smi:2407|AV-procd|sdf|9519|dock2
  -GOLD-   2272013153D 1   1.00000     0.00000
 Structure written by MMmdl.
 38 39  0  0  0  0  0  0  0  0  1 V2000
  150.4435  134.4761  155.4850 C   0  0  0  0  0  0  0  0  0  0  0  0
  150.4846  135.9606  155.2715 C   0  0  0  0  0  0  0  0  0  0  0  0
  149.3396  136.7185  154.8035 C   0  0  0  0  0  0  0  0  0  0  0  0
  149.4555  138.0525  154.6283 C   0  0  0  0  0  0  0  0  0  0  0  0
  150.7076  138.7562  154.8974 C   0  0  0  0  0  0  0  0  0  0  0  0
  150.8521  139.9672  154.7307 O   0  0  0  0  0  0  0  0  0  0  0  0
  151.7087  137.9425  155.3438 N   0  0  0  0  0  0  0  0  0  0  0  0
  153.0378  138.4819  155.6497 C   0  0  0  0  0  0  0  0  0  0  0  0
  153.3399  138.4277  157.1669 C   0  0  1  0  0  0  0  0  0  0  0  0
  154.7361  138.5241  157.3641 O   0  0  0  0  0  0  0  0  0  0  0  0
  152.6786  139.5719  157.9494 C   0  0  0  0  0  0  0  0  0  0  0  0
  153.4137  139.7875  159.1466 O   0  0  0  0  0  0  0  0  0  0  0  0
  153.1218  140.8961  159.9138 C   0  0  0  0  0  0  0  0  0  0  0  0
  152.1496  141.8635  159.5513 C   0  0  0  0  0  0  0  0  0  0  0  0
  151.9017  142.9748  160.3780 C   0  0  0  0  0  0  0  0  0  0  0  0
  152.6183  143.1345  161.5760 C   0  0  0  0  0  0  0  0  0  0  0  0
  153.5829  142.1809  161.9475 C   0  0  0  0  0  0  0  0  0  0  0  0
  153.8409  141.0617  161.1237 C   0  0  0  0  0  0  0  0  0  0  0  0
  154.8785  140.0246  161.5410 C   0  0  0  0  0  0  0  0  0  0  0  0
  155.2962  140.2112  162.7937 F   0  0  0  0  0  0  0  0  0  0  0  0
  154.3420  138.8075  161.4585 F   0  0  0  0  0  0  0  0  0  0  0  0
  155.9412  140.0868  160.7379 F   0  0  0  0  0  0  0  0  0  0  0  0
  151.5957  136.5737  155.5182 N   0  0  0  0  0  0  0  0  0  0  0  0
  149.4198  134.1023  155.4568 H   0  0  0  0  0  0  0  0  0  0  0  0
  150.8687  134.2072  156.4526 H   0  0  0  0  0  0  0  0  0  0  0  0
  151.0100  133.9584  154.7109 H   0  0  0  0  0  0  0  0  0  0  0  0
  148.4078  136.2123  154.5989 H   0  0  0  0  0  0  0  0  0  0  0  0
  148.6023  138.6154  154.2793 H   0  0  0  0  0  0  0  0  0  0  0  0
  153.7995  137.9536  155.0724 H   0  0  0  0  0  0  0  0  0  0  0  0
  153.0975  139.5114  155.2910 H   0  0  0  0  0  0  0  0  0  0  0  0
  153.0138  137.4781  157.5943 H   0  0  0  0  0  0  0  0  0  0  0  0
  155.1661  137.9757  156.7251 H   0  0  0  0  0  0  0  0  0  0  0  0
  152.6898  140.4790  157.3426 H   0  0  0  0  0  0  0  0  0  0  0  0
  151.6394  139.3262  158.1763 H   0  0  0  0  0  0  0  0  0  0  0  0
  151.5775  141.7777  158.6404 H   0  0  0  0  0  0  0  0  0  0  0  0
  151.1596  143.7054  160.0915 H   0  0  0  0  0  0  0  0  0  0  0  0
  152.4274  143.9868  162.2113 H   0  0  0  0  0  0  0  0  0  0  0  0
  154.1198  142.3181  162.8741 H   0  0  0  0  0  0  0  0  0  0  0  0
  1  2  1  0  0  0  0
  1 24  1  0  0  0  0
  1 25  1  0  0  0  0
  1 26  1  0  0  0  0
  2 23  2  0  0  0  0
  2  3  1  0  0  0  0
  3  4  2  0  0  0  0
  3 27  1  0  0  0  0
  4  5  1  0  0  0  0
  4 28  1  0  0  0  0
  5  6  2  0  0  0  0
  5  7  1  0  0  0  0
  7  8  1  0  0  0  0
  7 23  1  0  0  0  0
  8  9  1  0  0  0  0
  8 29  1  0  0  0  0
  8 30  1  0  0  0  0
  9 10  1  0  0  0  0
  9 11  1  0  0  0  0
  9 31  1  0  0  0  0
 10 32  1  0  0  0  0
 11 12  1  0  0  0  0
 11 33  1  0  0  0  0
 11 34  1  0  0  0  0
 12 13  1  0  0  0  0
 13 18  1  0  0  0  0
 13 14  2  0  0  0  0
 14 15  1  0  0  0  0
 14 35  1  0  0  0  0
 15 16  2  0  0  0  0
 15 36  1  0  0  0  0
 16 17  1  0  0  0  0
 16 37  1  0  0  0  0
 17 18  2  0  0  0  0
 17 38  1  0  0  0  0
 18 19  1  0  0  0  0
 19 20  1  0  0  0  0
 19 21  1  0  0  0  0
 19 22  1  0  0  0  0
M  END
> <s_m_source_file>
AV-unprocessed.smi

> <i_m_source_file_index>
2407

> <i_lp_mmshare_version>
43012

> <i_f3d_flags>
0

> <s_epik_input>
W0NIM11jMVtjSF1bY0hdYyg9TyluKG4xKVtDSDJdW0NASF0oW09IXSlbQ0gyXU9jMltjSF1bY0hdW2NIXVtjSF1jMkMoRikoRilG

> <s_epik_cmdline>
J2VwaWtfcHl0aG9uJywgJy1waCcsICc3LjAnLCAnLXRuJywgJzgnLCAnLW1hJywgJzIwMCcsICctbWV0YWxfYmluZGluZycsICctaW1hZScsICc8aW5maWxlLm1hZT4nLCAnLW9tYWUnLCAnPG91dGZpbGUubWFlPic=

> <r_lp_tautomer_probability>
1

> <r_epik_Ionization_Penalty>
5.91655e-06

> <r_epik_Ionization_Penalty_Charging>
5.79937e-06

> <r_epik_Ionization_Penalty_Neutral>
1.17174e-07

> <r_epik_State_Penalty>
-0

> <r_epik_Charging_Adjusted_Penalty>
5.79937e-06

> <i_epik_Tot_Q>
0

> <i_epik_Tot_abs_Q>
0

> <r_epik_Metal_State_Penalty>
-0

> <b_epik_Metal_Only>
0

> <s_lp_Force_Field>
OPLS_2005

> <r_lp_Energy>
30.1001

> <b_lp_Chiralities_Consistent>
1

> <s_lp_Variant>
AV-unprocessed.smi:2407-2

> <Gold.Version>
5.8.1

> <Gold.Id.Protein>
6NUR|6NUR_protein|mol2

> <Gold.PLP.Fitness>
48.0088

> <Gold.PLP.PLP>
-41.4394

> <Gold.PLP.part.hbond>
-2.5150

> <Gold.PLP.part.metal>
0.0000

> <Gold.PLP.part.buried>
-1.9004

> <Gold.PLP.part.nonpolar>
-36.3799

> <Gold.PLP.part.repulsive>
0.1357

> <Gold.PLP.ligand.clash>
0.2063

> <Gold.PLP.ligand.torsion>
0.8189

> <Gold.PLP.Chemscore.Hbond>
2.6080

> <Gold.PLP.Chemscore.CHOScore>
0.0000

> <Gold.PLP.Chemscore.Metal>
0.0000

> <Gold.Chemscore.Hbonds>
donor molecule, donor type, donor heavy atom, donor atom, acceptor molecule, acceptor atom, score
      P1  H  7989  7998       L1     6  1.00
      P1  H  7997  8009       L1    10  0.46
      P1  H 10752 10764       L1    23  1.00

> <Gold.PLP.Chemscore.Internal.Correction>
0.5895

> <Gold.Rescore>
     Score         DG    S(hbond)    S(metal)    S(lipo)     H(rot)  DE(clash)    DE(int)     intcor
     14.31     -17.44       1.93        0.00     104.10       2.60       0.25       2.88       ----

> <Gold.Chemscore.Fitness>
14.3077

> <Gold.Chemscore.DG>
-17.4354

> <Gold.Chemscore.ZeroCoef>
-5.4800

> <Gold.Chemscore.Hbond>
1.9283

> <Gold.Chemscore.Metal>
0.0000

> <Gold.Chemscore.Lipo>
104.1020

> <Gold.Chemscore.Internal_Hbond>
0.0000

> <Gold.Chemscore.DEClash>
0.2488

> <Gold.Chemscore.DEInternal>
2.8790

> <Gold.Chemscore.Rot>
2.6035

> <Gold.Chemscore.Internal.Correction>
   9.000000E+99

> <Gold.Chemscore.Hbonds>
donor molecule, donor type, donor heavy atom, donor atom, acceptor molecule, acceptor atom, score
      P1  H  7989  7998       L1     6  1.00
      P1  H  7997  8009       L1    10  0.11
      P1  H 10752 10764       L1    23  0.55

> <Gold.Chemscore.Hbond.Weighted>
-6.4404

> <Gold.Chemscore.Metal.Weighted>
-0.0000

> <Gold.Chemscore.Lipo.Weighted>
-12.1799

> <Gold.Chemscore.Internal_Hbond.Weighted>
0.0000

> <Gold.Chemscore.DEClash.Weighted>
0.2488

> <Gold.Chemscore.DEInternal.Weighted>
2.8790

> <Gold.Chemscore.Rot.Weighted>
6.6649

> <Gold.Chemscore.Internal.Correction.Weighted>
   9.000000E+99

> <Gold.Protein.RotatedTorsions>
[ 6907 6896 6895 6894 ] final   55.17 input  -60.11 | X-H torsion
[ 7974 7965 7964 7962 ] final   54.13 input  175.53 | X-H torsion
[ 8008 7997 7996 7995 ] final  133.79 input   59.86 | X-H torsion
[ 10167 10162 10161 10158 ] final  -54.28 input  -65.29 | X-H torsion
[ 10718 10713 10712 10709 ] final  122.60 input   66.30 | X-H torsion
[ 10763 10752 10751 10750 ] final  -50.04 input  -60.55 | X-H torsion
[ 11005 11000 10999 10996 ] final  -95.65 input  -57.11 | X-H torsion

> <Gold.Protein.ActiveResidues>
 VAL166  LYS551  ARG553  GLY616  TRP617  ASP618  TYR619  PRO620  LYS621  CYS622 
 ASP623  PHE694  ASN695  SER759  ASP760  ASP761  ALA762  ILE779  LEU786  VAL792 
 PHE793  MET794  SER795  GLU796  ALA797  LYS798  CYS799  TRP800  GLU811  SER814 

> <Gold.Protein.RotatedAtoms>
  152.3511  134.7003  160.0235 H   0  0  0  0  0  0  0  0  0  0  0  0  # atno 6907 bound_to 6896
  151.7357  133.3314  159.3360 H   0  0  0  0  0  0  0  0  0  0  0  0  # atno 6908 bound_to 6896
  150.7541  134.6257  159.6204 H   0  0  0  0  0  0  0  0  0  0  0  0  # atno 6909 bound_to 6896
  145.9640  139.4086  143.0230 H   0  0  0  0  0  0  0  0  0  0  0  0  # atno 7974 bound_to 7965
  156.2995  140.2512  156.3310 H   0  0  0  0  0  0  0  0  0  0  0  0  # atno 8008 bound_to 7997
  154.9145  140.0402  157.1983 H   0  0  0  0  0  0  0  0  0  0  0  0  # atno 8009 bound_to 7997
  154.8372  140.2885  155.5687 H   0  0  0  0  0  0  0  0  0  0  0  0  # atno 8010 bound_to 7997
  140.6439  143.2523  151.4914 H   0  0  0  0  0  0  0  0  0  0  0  0  # atno 10167 bound_to 10162
  157.5730  131.1081  150.8332 H   0  0  0  0  0  0  0  0  0  0  0  0  # atno 10718 bound_to 10713
  154.1039  135.6559  153.4873 H   0  0  0  0  0  0  0  0  0  0  0  0  # atno 10763 bound_to 10752
  153.0279  135.5231  154.7259 H   0  0  0  0  0  0  0  0  0  0  0  0  # atno 10764 bound_to 10752
  154.6419  135.2989  155.0062 H   0  0  0  0  0  0  0  0  0  0  0  0  # atno 10765 bound_to 10752
  141.1435  133.8041  157.0463 H   0  0  0  0  0  0  0  0  0  0  0  0  # atno 11005 bound_to 11000
  145.7999  140.9775  143.1004 LP  0  0  0  0  0  0  0  0  0  0  0  0  # atno 17320 bound_to 7965
  144.6821  139.9788  143.7483 LP  0  0  0  0  0  0  0  0  0  0  0  0  # atno 17321 bound_to 7965
  139.5649  144.2067  152.1749 LP  0  0  0  0  0  0  0  0  0  0  0  0  # atno 17342 bound_to 10162
  140.1346  144.5257  150.6781 LP  0  0  0  0  0  0  0  0  0  0  0  0  # atno 17343 bound_to 10162
  156.8798  130.5175  149.5291 LP  0  0  0  0  0  0  0  0  0  0  0  0  # atno 17370 bound_to 10713
  156.0775  130.5793  150.9501 LP  0  0  0  0  0  0  0  0  0  0  0  0  # atno 17371 bound_to 10713
  140.0660  134.9728  157.1387 LP  0  0  0  0  0  0  0  0  0  0  0  0  # atno 17394 bound_to 11000
  140.3779  134.2319  155.7173 LP  0  0  0  0  0  0  0  0  0  0  0  0  # atno 17395 bound_to 11000

$$$$
