AV-unprocessed.smi:752|AV-procd|sdf|3596|dock5
  -GOLD-   22720 0593D 1   1.00000     0.00000
 Structure written by MMmdl.
 41 42  0  0  0  0  0  0  0  0  1 V2000
  150.9299  140.9108  156.0470 C   0  0  0  0  0  0  0  0  0  0  0  0
  149.8567  141.8091  155.4233 C   0  0  0  0  0  0  0  0  0  0  0  0
  148.8117  141.0329  154.6944 C   0  0  0  0  0  0  0  0  0  0  0  0
  148.7905  139.6988  154.6397 N   0  0  0  0  0  0  0  0  0  0  0  0
  147.7282  139.2063  153.8747 C   0  0  0  0  0  0  0  0  0  0  0  0
  147.5446  137.7239  153.7159 C   0  0  0  0  0  0  0  0  0  0  0  0
  146.1993  137.4031  153.0565 C   0  0  0  0  0  0  0  0  0  0  0  0
  145.1886  138.0390  153.3582 O   0  0  0  0  0  0  0  0  0  0  0  0
  146.1997  136.3998  152.1645 N   0  0  0  0  0  0  0  0  0  0  0  0
  145.0380  135.9237  151.4185 C   0  0  0  0  0  0  0  0  0  0  0  0
  145.2298  134.4924  150.8727 C   0  0  1  0  0  0  0  0  0  0  0  0
  145.6594  133.4835  151.9624 C   0  0  0  0  0  0  0  0  0  0  0  0
  145.8129  132.0605  151.4009 C   0  0  0  0  0  0  0  0  0  0  0  0
  144.5268  131.5910  150.7060 C   0  0  0  0  0  0  0  0  0  0  0  0
  144.1074  132.5817  149.6082 C   0  0  1  0  0  0  0  0  0  0  0  0
  142.8885  132.1604  149.0333 O   0  0  0  0  0  0  0  0  0  0  0  0
  143.9431  134.0020  150.1769 C   0  0  0  0  0  0  0  0  0  0  0  0
  146.9532  140.1986  153.3257 C   0  0  0  0  0  0  0  0  0  0  0  0
  147.5233  141.7858  153.7622 S   0  0  0  0  0  0  0  0  0  0  0  0
  151.6800  141.5062  156.5676 H   0  0  0  0  0  0  0  0  0  0  0  0
  151.4410  140.3222  155.2846 H   0  0  0  0  0  0  0  0  0  0  0  0
  150.4937  140.2197  156.7688 H   0  0  0  0  0  0  0  0  0  0  0  0
  149.3753  142.4071  156.1981 H   0  0  0  0  0  0  0  0  0  0  0  0
  150.3177  142.5115  154.7285 H   0  0  0  0  0  0  0  0  0  0  0  0
  148.3601  137.3072  153.1231 H   0  0  0  0  0  0  0  0  0  0  0  0
  147.5804  137.2214  154.6833 H   0  0  0  0  0  0  0  0  0  0  0  0
  147.0758  135.9310  151.9841 H   0  0  0  0  0  0  0  0  0  0  0  0
  144.1316  135.9824  152.0234 H   0  0  0  0  0  0  0  0  0  0  0  0
  144.8879  136.6130  150.5870 H   0  0  0  0  0  0  0  0  0  0  0  0
  146.0189  134.5273  150.1197 H   0  0  0  0  0  0  0  0  0  0  0  0
  146.6066  133.7848  152.4091 H   0  0  0  0  0  0  0  0  0  0  0  0
  144.9257  133.4800  152.7696 H   0  0  0  0  0  0  0  0  0  0  0  0
  146.6414  132.0356  150.6919 H   0  0  0  0  0  0  0  0  0  0  0  0
  146.0733  131.3711  152.2045 H   0  0  0  0  0  0  0  0  0  0  0  0
  144.6777  130.5982  150.2804 H   0  0  0  0  0  0  0  0  0  0  0  0
  143.7302  131.4952  151.4455 H   0  0  0  0  0  0  0  0  0  0  0  0
  144.8632  132.5922  148.8217 H   0  0  0  0  0  0  0  0  0  0  0  0
  142.2472  132.8442  149.1530 H   0  0  0  0  0  0  0  0  0  0  0  0
  143.1152  134.0204  150.8876 H   0  0  0  0  0  0  0  0  0  0  0  0
  143.6737  134.6878  149.3724 H   0  0  0  0  0  0  0  0  0  0  0  0
  146.0834  140.0916  152.6948 H   0  0  0  0  0  0  0  0  0  0  0  0
  1  2  1  0  0  0  0
  1 20  1  0  0  0  0
  1 21  1  0  0  0  0
  1 22  1  0  0  0  0
  2  3  1  0  0  0  0
  2 23  1  0  0  0  0
  2 24  1  0  0  0  0
  3 19  1  0  0  0  0
  3  4  2  0  0  0  0
  4  5  1  0  0  0  0
  5  6  1  0  0  0  0
  5 18  2  0  0  0  0
  6  7  1  0  0  0  0
  6 25  1  0  0  0  0
  6 26  1  0  0  0  0
  7  8  2  0  0  0  0
  7  9  1  0  0  0  0
  9 10  1  0  0  0  0
  9 27  1  0  0  0  0
 10 11  1  0  0  0  0
 10 28  1  0  0  0  0
 10 29  1  0  0  0  0
 11 17  1  0  0  0  0
 11 12  1  0  0  0  0
 11 30  1  0  0  0  0
 12 13  1  0  0  0  0
 12 31  1  0  0  0  0
 12 32  1  0  0  0  0
 13 14  1  0  0  0  0
 13 33  1  0  0  0  0
 13 34  1  0  0  0  0
 14 15  1  0  0  0  0
 14 35  1  0  0  0  0
 14 36  1  0  0  0  0
 15 16  1  0  0  0  0
 15 17  1  0  0  0  0
 15 37  1  0  0  0  0
 16 38  1  0  0  0  0
 17 39  1  0  0  0  0
 17 40  1  0  0  0  0
 18 19  1  0  0  0  0
 18 41  1  0  0  0  0
M  END
> <s_m_source_file>
AV-unprocessed.smi

> <i_m_source_file_index>
752

> <i_lp_mmshare_version>
43012

> <i_f3d_flags>
0

> <s_epik_input>
W0NIM11bQ0gyXWMxbmMoW2NIXXMxKVtDSDJdQyg9TylbTkhdW0NIMl1bQ0BASF0yW0NIMl1bQ0gyXVtDSDJdW0NAQEhdKFtPSF0pW0NIMl0y

> <s_epik_cmdline>
J2VwaWtfcHl0aG9uJywgJy1waCcsICc3LjAnLCAnLXRuJywgJzgnLCAnLW1hJywgJzIwMCcsICctbWV0YWxfYmluZGluZycsICctaW1hZScsICc8aW5maWxlLm1hZT4nLCAnLW9tYWUnLCAnPG91dGZpbGUubWFlPic=

> <r_lp_tautomer_probability>
1

> <r_epik_Ionization_Penalty>
5.44903e-05

> <r_epik_Ionization_Penalty_Charging>
0

> <r_epik_Ionization_Penalty_Neutral>
5.44903e-05

> <r_epik_State_Penalty>
-0

> <r_epik_Charging_Adjusted_Penalty>
0

> <i_epik_Tot_Q>
0

> <i_epik_Tot_abs_Q>
0

> <r_epik_Metal_State_Penalty>
-0

> <b_epik_Metal_Only>
0

> <s_lp_Force_Field>
OPLS_2005

> <r_lp_Energy>
4.53549

> <b_lp_Chiralities_Consistent>
1

> <s_lp_Variant>
AV-unprocessed.smi:752-2

> <Gold.Version>
5.8.1

> <Gold.Id.Protein>
6NUR|6NUR_protein|mol2

> <Gold.PLP.Fitness>
45.1068

> <Gold.PLP.PLP>
-34.6943

> <Gold.PLP.part.hbond>
-4.0000

> <Gold.PLP.part.metal>
0.0000

> <Gold.PLP.part.buried>
-0.9526

> <Gold.PLP.part.nonpolar>
-30.3524

> <Gold.PLP.part.repulsive>
0.6500

> <Gold.PLP.ligand.clash>
0.0000

> <Gold.PLP.ligand.torsion>
0.5670

> <Gold.PLP.Chemscore.Hbond>
2.8295

> <Gold.PLP.Chemscore.CHOScore>
1.0000

> <Gold.PLP.Chemscore.Metal>
0.0000

> <Gold.Chemscore.Hbonds>
donor molecule, donor type, donor heavy atom, donor atom, acceptor molecule, acceptor atom, score
      L1  H     9    27       P1  7948  0.86
      L1  H    16    38       P1 10186  0.99
      P1  H 10785 10796       L1    16  0.93
      L1  C    18    41       P1 10175  1.00

> <Gold.PLP.Chemscore.Internal.Correction>
0.0580

> <Gold.Rescore>
     Score         DG    S(hbond)    S(metal)    S(lipo)     H(rot)  DE(clash)    DE(int)     intcor
     15.09     -18.53       2.34        0.00      90.23       2.08       1.50       1.94       ----

> <Gold.Chemscore.Fitness>
15.0864

> <Gold.Chemscore.DG>
-18.5292

> <Gold.Chemscore.ZeroCoef>
-5.4800

> <Gold.Chemscore.Hbond>
2.3436

> <Gold.Chemscore.Metal>
0.0000

> <Gold.Chemscore.Lipo>
90.2277

> <Gold.Chemscore.Internal_Hbond>
0.0000

> <Gold.Chemscore.DEClash>
1.4994

> <Gold.Chemscore.DEInternal>
1.9434

> <Gold.Chemscore.Rot>
2.0840

> <Gold.Chemscore.Internal.Correction>
   9.000000E+99

> <Gold.Chemscore.Hbonds>
donor molecule, donor type, donor heavy atom, donor atom, acceptor molecule, acceptor atom, score
      L1  H     9    27       P1  7948  0.85
      L1  H    16    38       P1 10186  0.92
      P1  H 10785 10796       L1    16  0.35

> <Gold.Chemscore.Hbond.Weighted>
-7.8275

> <Gold.Chemscore.Metal.Weighted>
-0.0000

> <Gold.Chemscore.Lipo.Weighted>
-10.5566

> <Gold.Chemscore.Internal_Hbond.Weighted>
0.0000

> <Gold.Chemscore.DEClash.Weighted>
1.4994

> <Gold.Chemscore.DEInternal.Weighted>
1.9434

> <Gold.Chemscore.Rot.Weighted>
5.3350

> <Gold.Chemscore.Internal.Correction.Weighted>
   9.000000E+99

> <Gold.Protein.RotatedTorsions>
[ 6907 6896 6895 6894 ] final  112.86 input  -60.11 | X-H torsion
[ 7974 7965 7964 7962 ] final  117.36 input  175.53 | X-H torsion
[ 8008 7997 7996 7995 ] final -127.46 input   59.86 | X-H torsion
[ 10167 10162 10161 10158 ] final   -4.20 input  -65.29 | X-H torsion
[ 10718 10713 10712 10709 ] final  -54.78 input   66.30 | X-H torsion
[ 10763 10752 10751 10750 ] final  140.00 input  -60.55 | X-H torsion
[ 11005 11000 10999 10996 ] final   14.39 input  -57.11 | X-H torsion

> <Gold.Protein.ActiveResidues>
 VAL166  LYS551  ARG553  GLY616  TRP617  ASP618  TYR619  PRO620  LYS621  CYS622 
 ASP623  PHE694  ASN695  SER759  ASP760  ASP761  ALA762  ILE779  LEU786  VAL792 
 PHE793  MET794  SER795  GLU796  ALA797  LYS798  CYS799  TRP800  GLU811  SER814 

> <Gold.Protein.RotatedAtoms>
  152.4893  133.8457  159.7175 H   0  0  0  0  0  0  0  0  0  0  0  0  # atno 6907 bound_to 6896
  150.9008  133.7112  159.2886 H   0  0  0  0  0  0  0  0  0  0  0  0  # atno 6908 bound_to 6896
  151.4554  135.1037  159.9762 H   0  0  0  0  0  0  0  0  0  0  0  0  # atno 6909 bound_to 6896
  145.1683  139.3116  143.4481 H   0  0  0  0  0  0  0  0  0  0  0  0  # atno 7974 bound_to 7965
  155.2466  140.0430  157.2981 H   0  0  0  0  0  0  0  0  0  0  0  0  # atno 8008 bound_to 7997
  154.5795  140.2396  155.8044 H   0  0  0  0  0  0  0  0  0  0  0  0  # atno 8009 bound_to 7997
  156.2182  140.2978  155.9899 H   0  0  0  0  0  0  0  0  0  0  0  0  # atno 8010 bound_to 7997
  140.6918  143.6451  150.8400 H   0  0  0  0  0  0  0  0  0  0  0  0  # atno 10167 bound_to 10162
  156.1422  130.4154  150.0083 H   0  0  0  0  0  0  0  0  0  0  0  0  # atno 10718 bound_to 10713
  153.9154  135.3006  155.3448 H   0  0  0  0  0  0  0  0  0  0  0  0  # atno 10763 bound_to 10752
  154.7602  135.4937  153.9453 H   0  0  0  0  0  0  0  0  0  0  0  0  # atno 10764 bound_to 10752
  153.1170  135.6773  153.9503 H   0  0  0  0  0  0  0  0  0  0  0  0  # atno 10765 bound_to 10752
  140.4700  134.1041  155.7731 H   0  0  0  0  0  0  0  0  0  0  0  0  # atno 11005 bound_to 11000
  146.3472  140.1819  142.8589 LP  0  0  0  0  0  0  0  0  0  0  0  0  # atno 17320 bound_to 7965
  145.0259  140.8832  143.5139 LP  0  0  0  0  0  0  0  0  0  0  0  0  # atno 17321 bound_to 7965
  140.0165  143.5587  152.2818 LP  0  0  0  0  0  0  0  0  0  0  0  0  # atno 17342 bound_to 10162
  139.6330  144.7646  151.2497 LP  0  0  0  0  0  0  0  0  0  0  0  0  # atno 17343 bound_to 10162
  156.7965  130.9275  151.3646 LP  0  0  0  0  0  0  0  0  0  0  0  0  # atno 17370 bound_to 10713
  157.6586  130.8946  149.9781 LP  0  0  0  0  0  0  0  0  0  0  0  0  # atno 17371 bound_to 10713
  141.1581  133.8844  157.1922 LP  0  0  0  0  0  0  0  0  0  0  0  0  # atno 17394 bound_to 11000
  139.9891  135.0071  156.9933 LP  0  0  0  0  0  0  0  0  0  0  0  0  # atno 17395 bound_to 11000

$$$$
