AV-unprocessed.smi:3181|AV-procd|sdf|12135|dock3
  -GOLD-   2272017573D 1   1.00000     0.00000
 Structure written by MMmdl.
 42 43  0  0  0  0  0  0  0  0  2 V2000
  148.9951  141.0145  156.4326 C   0  0  0  0  0  0  0  0  0  0  0  0
  150.4048  141.3835  155.9421 C   0  0  2  0  0  0  0  0  0  0  0  0
  151.4815  140.3765  156.3952 C   0  0  0  0  0  0  0  0  0  0  0  0
  151.4904  139.1612  155.6020 N   0  0  0  0  0  0  0  0  0  0  0  0
  152.4905  138.5362  154.9778 C   0  0  0  0  0  0  0  0  0  0  0  0
  152.1169  137.4388  154.3353 N   0  0  0  0  0  0  0  0  0  0  0  0
  150.7801  137.4518  154.6179 C   0  0  0  0  0  0  0  0  0  0  0  0
  150.3530  138.4646  155.3727 N   0  0  0  0  0  0  0  0  0  0  0  0
  150.7602  142.7400  156.4171 N   0  3  0  0  0  0  0  0  0  0  0  0
  151.0623  142.8573  157.8611 C   0  0  2  0  0  0  0  0  0  0  0  0
  150.1087  143.8734  158.5140 C   0  0  0  0  0  0  0  0  0  0  0  0
  150.4175  144.0649  160.0074 C   0  0  0  0  0  0  0  0  0  0  0  0
  151.8850  144.4798  160.2308 C   0  0  1  0  0  0  0  0  0  0  0  0
  152.1815  144.7579  161.7135 C   0  0  0  0  0  0  0  0  0  0  0  0
  152.8678  143.4692  159.5860 C   0  0  1  0  0  0  0  0  0  0  0  0
  152.9609  142.1185  160.3245 C   0  0  0  0  0  0  0  0  0  0  0  0
  152.5311  143.2789  158.0919 C   0  0  0  0  0  0  0  0  0  0  0  0
  148.6710  140.0529  156.0339 H   0  0  0  0  0  0  0  0  0  0  0  0
  148.2634  141.7576  156.1138 H   0  0  0  0  0  0  0  0  0  0  0  0
  148.9560  140.9544  157.5206 H   0  0  0  0  0  0  0  0  0  0  0  0
  150.3822  141.3789  154.8513 H   0  0  0  0  0  0  0  0  0  0  0  0
  152.4724  140.8289  156.3333 H   0  0  0  0  0  0  0  0  0  0  0  0
  151.3282  140.1023  157.4400 H   0  0  0  0  0  0  0  0  0  0  0  0
  153.5118  138.8877  154.9959 H   0  0  0  0  0  0  0  0  0  0  0  0
  150.1017  136.6930  154.2563 H   0  0  0  0  0  0  0  0  0  0  0  0
  151.5590  143.0709  155.8953 H   0  0  0  0  0  0  0  0  0  0  0  0
  150.8807  141.8842  158.3201 H   0  0  0  0  0  0  0  0  0  0  0  0
  150.1879  144.8352  158.0047 H   0  0  0  0  0  0  0  0  0  0  0  0
  149.0750  143.5469  158.3949 H   0  0  0  0  0  0  0  0  0  0  0  0
  149.7521  144.8254  160.4175 H   0  0  0  0  0  0  0  0  0  0  0  0
  150.1976  143.1456  160.5511 H   0  0  0  0  0  0  0  0  0  0  0  0
  152.0274  145.4288  159.7111 H   0  0  0  0  0  0  0  0  0  0  0  0
  151.9835  143.8858  162.3367 H   0  0  0  0  0  0  0  0  0  0  0  0
  151.5605  145.5721  162.0880 H   0  0  0  0  0  0  0  0  0  0  0  0
  153.2225  145.0469  161.8595 H   0  0  0  0  0  0  0  0  0  0  0  0
  153.8646  143.9104  159.6311 H   0  0  0  0  0  0  0  0  0  0  0  0
  151.9957  141.6183  160.3947 H   0  0  0  0  0  0  0  0  0  0  0  0
  153.3426  142.2428  161.3378 H   0  0  0  0  0  0  0  0  0  0  0  0
  153.6443  141.4412  159.8118 H   0  0  0  0  0  0  0  0  0  0  0  0
  153.2157  142.5511  157.6553 H   0  0  0  0  0  0  0  0  0  0  0  0
  152.7199  144.2159  157.5654 H   0  0  0  0  0  0  0  0  0  0  0  0
  149.9774  143.3451  156.2141 H   0  0  0  0  0  0  0  0  0  0  0  0
  1  2  1  0  0  0  0
  1 18  1  0  0  0  0
  1 19  1  0  0  0  0
  1 20  1  0  0  0  0
  2  3  1  0  0  0  0
  2  9  1  0  0  0  0
  2 21  1  0  0  0  0
  3  4  1  0  0  0  0
  3 22  1  0  0  0  0
  3 23  1  0  0  0  0
  4  8  1  0  0  0  0
  4  5  1  0  0  0  0
  5  6  2  0  0  0  0
  5 24  1  0  0  0  0
  6  7  1  0  0  0  0
  7  8  2  0  0  0  0
  7 25  1  0  0  0  0
  9 10  1  0  0  0  0
  9 26  1  0  0  0  0
  9 42  1  0  0  0  0
 10 17  1  0  0  0  0
 10 11  1  0  0  0  0
 10 27  1  0  0  0  0
 11 12  1  0  0  0  0
 11 28  1  0  0  0  0
 11 29  1  0  0  0  0
 12 13  1  0  0  0  0
 12 30  1  0  0  0  0
 12 31  1  0  0  0  0
 13 14  1  0  0  0  0
 13 15  1  0  0  0  0
 13 32  1  0  0  0  0
 14 33  1  0  0  0  0
 14 34  1  0  0  0  0
 14 35  1  0  0  0  0
 15 16  1  0  0  0  0
 15 17  1  0  0  0  0
 15 36  1  0  0  0  0
 16 37  1  0  0  0  0
 16 38  1  0  0  0  0
 16 39  1  0  0  0  0
 17 40  1  0  0  0  0
 17 41  1  0  0  0  0
M  CHG  1   9   1
M  END
> <s_m_source_file>
AV-unprocessed.smi

> <i_m_source_file_index>
3181

> <i_lp_mmshare_version>
43012

> <i_f3d_flags>
0

> <s_epik_input>
bjFbY0hdbltjSF1uMVtDSDJdW0NAQEhdKFtDSDNdKVtOSF1bQ0BASF0yW0NIMl1bQ0gyXVtDQEBIXShbQ0gzXSlbQ0BASF0oW0NIM10pW0NIMl0y

> <s_epik_cmdline>
J2VwaWtfcHl0aG9uJywgJy1waCcsICc3LjAnLCAnLXRuJywgJzgnLCAnLW1hJywgJzIwMCcsICctbWV0YWxfYmluZGluZycsICctaW1hZScsICc8aW5maWxlLm1hZT4nLCAnLW9tYWUnLCAnPG91dGZpbGUubWFlPic=

> <r_lp_tautomer_probability>
1

> <r_epik_Ionization_Penalty>
0.000617007

> <r_epik_Ionization_Penalty_Charging>
0.000616215

> <r_epik_Ionization_Penalty_Neutral>
7.92544e-07

> <r_epik_State_Penalty>
0.000388807

> <r_epik_Charging_Adjusted_Penalty>
0.00100502

> <i_epik_Tot_Q>
1

> <i_epik_Tot_abs_Q>
1

> <r_epik_Metal_State_Penalty>
-0

> <b_epik_Metal_Only>
0

> <s_lp_Force_Field>
OPLS_2005

> <r_lp_Energy>
21.1585

> <b_lp_Chiralities_Consistent>
1

> <s_lp_Variant>
AV-unprocessed.smi:3181-1

> <Gold.Version>
5.8.1

> <Gold.Id.Protein>
6NUR|6NUR_protein|mol2

> <Gold.PLP.Fitness>
46.2423

> <Gold.PLP.PLP>
-36.9881

> <Gold.PLP.part.hbond>
-2.0000

> <Gold.PLP.part.metal>
0.0000

> <Gold.PLP.part.buried>
-2.3806

> <Gold.PLP.part.nonpolar>
-33.6023

> <Gold.PLP.part.repulsive>
0.3331

> <Gold.PLP.ligand.clash>
0.0000

> <Gold.PLP.ligand.torsion>
1.0639

> <Gold.PLP.Chemscore.Hbond>
2.7558

> <Gold.PLP.Chemscore.CHOScore>
1.0288

> <Gold.PLP.Chemscore.Metal>
0.0000

> <Gold.Chemscore.Hbonds>
donor molecule, donor type, donor heavy atom, donor atom, acceptor molecule, acceptor atom, score
      L1  H     9    42       P1  8028  2.00
      P1  H 10752 10764       L1     6  0.82
      L1  C     7    25       P1  7948  0.68

> <Gold.PLP.Chemscore.Internal.Correction>
0.0280

> <Gold.Rescore>
     Score         DG    S(hbond)    S(metal)    S(lipo)     H(rot)  DE(clash)    DE(int)     intcor
     14.30     -18.13       1.87        0.00     101.05       2.11       1.81       2.03       ----

> <Gold.Chemscore.Fitness>
14.3000

> <Gold.Chemscore.DG>
-18.1345

> <Gold.Chemscore.ZeroCoef>
-5.4800

> <Gold.Chemscore.Hbond>
1.8658

> <Gold.Chemscore.Metal>
0.0000

> <Gold.Chemscore.Lipo>
101.0531

> <Gold.Chemscore.Internal_Hbond>
0.0000

> <Gold.Chemscore.DEClash>
1.8082

> <Gold.Chemscore.DEInternal>
2.0263

> <Gold.Chemscore.Rot>
2.1095

> <Gold.Chemscore.Internal.Correction>
   9.000000E+99

> <Gold.Chemscore.Hbonds>
donor molecule, donor type, donor heavy atom, donor atom, acceptor molecule, acceptor atom, score
      L1  H     9    42       P1  8028  1.00
      P1  H 10752 10764       L1     6  0.78

> <Gold.Chemscore.Hbond.Weighted>
-6.2316

> <Gold.Chemscore.Metal.Weighted>
-0.0000

> <Gold.Chemscore.Lipo.Weighted>
-11.8232

> <Gold.Chemscore.Internal_Hbond.Weighted>
0.0000

> <Gold.Chemscore.DEClash.Weighted>
1.8082

> <Gold.Chemscore.DEInternal.Weighted>
2.0263

> <Gold.Chemscore.Rot.Weighted>
5.4003

> <Gold.Chemscore.Internal.Correction.Weighted>
   9.000000E+99

> <Gold.Protein.RotatedTorsions>
[ 6907 6896 6895 6894 ] final -172.33 input  -60.11 | X-H torsion
[ 7974 7965 7964 7962 ] final   78.03 input  175.53 | X-H torsion
[ 8008 7997 7996 7995 ] final  -59.49 input   59.86 | X-H torsion
[ 10167 10162 10161 10158 ] final   45.04 input  -65.29 | X-H torsion
[ 10718 10713 10712 10709 ] final -133.06 input   66.30 | X-H torsion
[ 10763 10752 10751 10750 ] final  -91.05 input  -60.55 | X-H torsion
[ 11005 11000 10999 10996 ] final  175.09 input  -57.11 | X-H torsion

> <Gold.Protein.ActiveResidues>
 VAL166  LYS551  ARG553  GLY616  TRP617  ASP618  TYR619  PRO620  LYS621  CYS622 
 ASP623  PHE694  ASN695  SER759  ASP760  ASP761  ALA762  ILE779  LEU786  VAL792 
 PHE793  MET794  SER795  GLU796  ALA797  LYS798  CYS799  TRP800  GLU811  SER814 

> <Gold.Protein.RotatedAtoms>
  151.5382  133.3437  159.2930 H   0  0  0  0  0  0  0  0  0  0  0  0  # atno 6907 bound_to 6896
  150.8552  134.7891  159.7051 H   0  0  0  0  0  0  0  0  0  0  0  0  # atno 6908 bound_to 6896
  152.4587  134.5241  159.9843 H   0  0  0  0  0  0  0  0  0  0  0  0  # atno 6909 bound_to 6896
  145.6824  139.2528  143.1806 H   0  0  0  0  0  0  0  0  0  0  0  0  # atno 7974 bound_to 7965
  154.4355  140.1060  156.6124 H   0  0  0  0  0  0  0  0  0  0  0  0  # atno 8008 bound_to 7997
  155.5795  140.3490  155.4518 H   0  0  0  0  0  0  0  0  0  0  0  0  # atno 8009 bound_to 7997
  156.0329  140.1264  157.0228 H   0  0  0  0  0  0  0  0  0  0  0  0  # atno 8010 bound_to 7997
  140.3282  144.2621  150.6172 H   0  0  0  0  0  0  0  0  0  0  0  0  # atno 10167 bound_to 10162
  156.2410  130.7096  151.0957 H   0  0  0  0  0  0  0  0  0  0  0  0  # atno 10718 bound_to 10713
  154.6721  135.5282  153.8151 H   0  0  0  0  0  0  0  0  0  0  0  0  # atno 10763 bound_to 10752
  153.0508  135.6531  154.0709 H   0  0  0  0  0  0  0  0  0  0  0  0  # atno 10764 bound_to 10752
  154.0606  135.2962  155.3305 H   0  0  0  0  0  0  0  0  0  0  0  0  # atno 10765 bound_to 10752
  140.3584  134.7134  157.4315 H   0  0  0  0  0  0  0  0  0  0  0  0  # atno 11005 bound_to 11000
  146.0952  140.7608  142.9576 LP  0  0  0  0  0  0  0  0  0  0  0  0  # atno 17320 bound_to 7965
  144.7022  140.3701  143.7147 LP  0  0  0  0  0  0  0  0  0  0  0  0  # atno 17321 bound_to 7965
  140.5421  143.2221  151.8067 LP  0  0  0  0  0  0  0  0  0  0  0  0  # atno 17342 bound_to 10162
  139.4861  144.4586  151.9568 LP  0  0  0  0  0  0  0  0  0  0  0  0  # atno 17343 bound_to 10162
  157.7175  131.0701  150.6268 LP  0  0  0  0  0  0  0  0  0  0  0  0  # atno 17370 bound_to 10713
  156.6342  130.4440  149.5775 LP  0  0  0  0  0  0  0  0  0  0  0  0  # atno 17371 bound_to 10713
  140.0646  134.5947  155.8709 LP  0  0  0  0  0  0  0  0  0  0  0  0  # atno 17394 bound_to 11000
  141.1991  133.6605  156.5829 LP  0  0  0  0  0  0  0  0  0  0  0  0  # atno 17395 bound_to 11000

$$$$
