AV-unprocessed.smi:2597|AV-procd|sdf|10172|dock3
  -GOLD-   2272014183D 1   1.00000     0.00000
 Structure written by MMmdl.
 31 32  0  0  0  0  0  0  0  0  2 V2000
  150.0695  144.0849  158.2385 N   0  3  0  0  0  0  0  0  0  0  0  0
  151.3745  143.4574  158.5200 C   0  0  1  0  0  0  0  0  0  0  0  0
  151.9025  143.9281  159.8887 C   0  0  0  0  0  0  0  0  0  0  0  0
  153.2493  143.2716  160.2305 C   0  0  0  0  0  0  0  0  0  0  0  0
  153.1460  141.7400  160.1872 C   0  0  0  0  0  0  0  0  0  0  0  0
  152.6286  141.2586  158.8233 C   0  0  0  0  0  0  0  0  0  0  0  0
  151.2760  141.9105  158.4679 C   0  0  2  0  0  0  0  0  0  0  0  0
  150.7975  141.4222  157.1805 N   0  0  0  0  0  0  0  0  0  0  0  0
  149.5574  141.6123  156.6065 C   0  0  0  0  0  0  0  0  0  0  0  0
  149.6393  140.9227  155.4298 C   0  0  0  0  0  0  0  0  0  0  0  0
  148.6065  140.7460  154.3592 C   0  0  0  0  0  0  0  0  0  0  0  0
  149.1626  141.2645  153.1706 O   0  0  0  0  0  0  0  0  0  0  0  0
  150.9056  140.3480  155.3373 N   0  0  0  0  0  0  0  0  0  0  0  0
  151.5862  140.6424  156.3990 N   0  0  0  0  0  0  0  0  0  0  0  0
  152.0692  143.8024  157.7528 H   0  0  0  0  0  0  0  0  0  0  0  0
  150.5485  141.5931  159.2174 H   0  0  0  0  0  0  0  0  0  0  0  0
  149.9152  144.1134  157.2408 H   0  0  0  0  0  0  0  0  0  0  0  0
  150.0637  145.0260  158.6064 H   0  0  0  0  0  0  0  0  0  0  0  0
  152.0148  145.0130  159.8941 H   0  0  0  0  0  0  0  0  0  0  0  0
  151.1778  143.6886  160.6682 H   0  0  0  0  0  0  0  0  0  0  0  0
  154.0110  143.6073  159.5255 H   0  0  0  0  0  0  0  0  0  0  0  0
  153.5799  143.5929  161.2188 H   0  0  0  0  0  0  0  0  0  0  0  0
  154.1205  141.2957  160.3923 H   0  0  0  0  0  0  0  0  0  0  0  0
  152.4763  141.3947  160.9758 H   0  0  0  0  0  0  0  0  0  0  0  0
  153.3689  141.4914  158.0565 H   0  0  0  0  0  0  0  0  0  0  0  0
  152.5284  140.1725  158.8333 H   0  0  0  0  0  0  0  0  0  0  0  0
  148.7622  142.1840  157.0617 H   0  0  0  0  0  0  0  0  0  0  0  0
  148.3575  139.6941  154.2190 H   0  0  0  0  0  0  0  0  0  0  0  0
  147.6850  141.2795  154.5945 H   0  0  0  0  0  0  0  0  0  0  0  0
  149.1080  140.6016  152.4993 H   0  0  0  0  0  0  0  0  0  0  0  0
  149.3350  143.5483  158.6775 H   0  0  0  0  0  0  0  0  0  0  0  0
  1  2  1  0  0  0  0
  1 17  1  0  0  0  0
  1 18  1  0  0  0  0
  1 31  1  0  0  0  0
  2 15  1  0  0  0  0
  2  7  1  0  0  0  0
  2  3  1  0  0  0  0
  3  4  1  0  0  0  0
  3 19  1  0  0  0  0
  3 20  1  0  0  0  0
  4  5  1  0  0  0  0
  4 21  1  0  0  0  0
  4 22  1  0  0  0  0
  5  6  1  0  0  0  0
  5 23  1  0  0  0  0
  5 24  1  0  0  0  0
  6  7  1  0  0  0  0
  6 25  1  0  0  0  0
  6 26  1  0  0  0  0
  7 16  1  0  0  0  0
  7  8  1  0  0  0  0
  8 14  1  0  0  0  0
  8  9  1  0  0  0  0
  9 10  2  0  0  0  0
  9 27  1  0  0  0  0
 10 11  1  0  0  0  0
 10 13  1  0  0  0  0
 11 12  1  0  0  0  0
 11 28  1  0  0  0  0
 11 29  1  0  0  0  0
 12 30  1  0  0  0  0
 13 14  2  0  0  0  0
M  CHG  1   1   1
M  END
> <s_m_source_file>
AV-unprocessed.smi

> <i_m_source_file_index>
2597

> <i_lp_mmshare_version>
43012

> <i_f3d_flags>
0

> <s_epik_input>
W05IMl1bQ0BIXTFbQ0gyXVtDSDJdW0NIMl1bQ0gyXVtDQEhdMW4yW2NIXWMobm4yKVtDSDJdW09IXQ==

> <s_epik_cmdline>
J2VwaWtfcHl0aG9uJywgJy1waCcsICc3LjAnLCAnLXRuJywgJzgnLCAnLW1hJywgJzIwMCcsICctbWV0YWxfYmluZGluZycsICctaW1hZScsICc8aW5maWxlLm1hZT4nLCAnLW9tYWUnLCAnPG91dGZpbGUubWFlPic=

> <r_lp_tautomer_probability>
1

> <r_epik_Ionization_Penalty>
0.014346

> <r_epik_Ionization_Penalty_Charging>
0.014316

> <r_epik_Ionization_Penalty_Neutral>
3.00097e-05

> <r_epik_State_Penalty>
0.0111909

> <r_epik_Charging_Adjusted_Penalty>
0.0255069

> <i_epik_Tot_Q>
1

> <i_epik_Tot_abs_Q>
1

> <r_epik_Metal_State_Penalty>
0.011192

> <b_epik_Metal_Only>
0

> <s_lp_Force_Field>
OPLS_2005

> <r_lp_Energy>
13.7949

> <b_lp_Chiralities_Consistent>
1

> <s_lp_Variant>
AV-unprocessed.smi:2597-3

> <Gold.Version>
5.8.1

> <Gold.Id.Protein>
6NUR|6NUR_protein|mol2

> <Gold.PLP.Fitness>
46.0610

> <Gold.PLP.PLP>
-31.2572

> <Gold.PLP.part.hbond>
-5.3439

> <Gold.PLP.part.metal>
0.0000

> <Gold.PLP.part.buried>
-3.8775

> <Gold.PLP.part.nonpolar>
-22.3970

> <Gold.PLP.part.repulsive>
0.1128

> <Gold.PLP.ligand.clash>
0.0000

> <Gold.PLP.ligand.torsion>
0.0988

> <Gold.PLP.Chemscore.Hbond>
4.8773

> <Gold.PLP.Chemscore.CHOScore>
0.1139

> <Gold.PLP.Chemscore.Metal>
0.0000

> <Gold.Chemscore.Hbonds>
donor molecule, donor type, donor heavy atom, donor atom, acceptor molecule, acceptor atom, score
      L1  H     1    17       P1  8028  2.00
      L1  H    12    30       P1  7957  0.98
      P1  H  7989  7998       L1    13  0.98
      P1  H  8011  8017       L1    12  0.95
      L1  C     9    27       P1  8028  0.04

> <Gold.PLP.Chemscore.Internal.Correction>
0.0279

> <Gold.Rescore>
     Score         DG    S(hbond)    S(metal)    S(lipo)     H(rot)  DE(clash)    DE(int)     intcor
     18.86     -20.05       2.87        0.00      83.06       1.86       0.11       1.08       ----

> <Gold.Chemscore.Fitness>
18.8591

> <Gold.Chemscore.DG>
-20.0491

> <Gold.Chemscore.ZeroCoef>
-5.4800

> <Gold.Chemscore.Hbond>
2.8742

> <Gold.Chemscore.Metal>
0.0000

> <Gold.Chemscore.Lipo>
83.0603

> <Gold.Chemscore.Internal_Hbond>
0.0000

> <Gold.Chemscore.DEClash>
0.1137

> <Gold.Chemscore.DEInternal>
1.0763

> <Gold.Chemscore.Rot>
1.8551

> <Gold.Chemscore.Internal.Correction>
   9.000000E+99

> <Gold.Chemscore.Hbonds>
donor molecule, donor type, donor heavy atom, donor atom, acceptor molecule, acceptor atom, score
      L1  H     1    17       P1  8028  0.65
      L1  H    12    30       P1  7957  0.86
      P1  H  7989  7998       L1    13  0.47
      P1  H  8011  8017       L1    12  0.20

> <Gold.Chemscore.Hbond.Weighted>
-9.6000

> <Gold.Chemscore.Metal.Weighted>
-0.0000

> <Gold.Chemscore.Lipo.Weighted>
-9.7181

> <Gold.Chemscore.Internal_Hbond.Weighted>
0.0000

> <Gold.Chemscore.DEClash.Weighted>
0.1137

> <Gold.Chemscore.DEInternal.Weighted>
1.0763

> <Gold.Chemscore.Rot.Weighted>
4.7489

> <Gold.Chemscore.Internal.Correction.Weighted>
   9.000000E+99

> <Gold.Protein.RotatedTorsions>
[ 6907 6896 6895 6894 ] final  -85.04 input  -60.11 | X-H torsion
[ 7974 7965 7964 7962 ] final  123.98 input  175.53 | X-H torsion
[ 8008 7997 7996 7995 ] final -176.64 input   59.86 | X-H torsion
[ 10167 10162 10161 10158 ] final  164.09 input  -65.29 | X-H torsion
[ 10718 10713 10712 10709 ] final -139.76 input   66.30 | X-H torsion
[ 10763 10752 10751 10750 ] final  -51.65 input  -60.55 | X-H torsion
[ 11005 11000 10999 10996 ] final -108.49 input  -57.11 | X-H torsion

> <Gold.Protein.ActiveResidues>
 VAL166  LYS551  ARG553  GLY616  TRP617  ASP618  TYR619  PRO620  LYS621  CYS622 
 ASP623  PHE694  ASN695  SER759  ASP760  ASP761  ALA762  ILE779  LEU786  VAL792 
 PHE793  MET794  SER795  GLU796  ALA797  LYS798  CYS799  TRP800  GLU811  SER814 

> <Gold.Protein.RotatedAtoms>
  150.6872  134.3265  159.4808 H   0  0  0  0  0  0  0  0  0  0  0  0  # atno 6907 bound_to 6896
  152.1135  134.9255  160.0575 H   0  0  0  0  0  0  0  0  0  0  0  0  # atno 6908 bound_to 6896
  152.0488  133.3975  159.4405 H   0  0  0  0  0  0  0  0  0  0  0  0  # atno 6909 bound_to 6896
  145.0897  139.3596  143.4867 H   0  0  0  0  0  0  0  0  0  0  0  0  # atno 7974 bound_to 7965
  155.9974  140.1213  157.0581 H   0  0  0  0  0  0  0  0  0  0  0  0  # atno 8008 bound_to 7997
  154.4231  140.1113  156.5718 H   0  0  0  0  0  0  0  0  0  0  0  0  # atno 8009 bound_to 7997
  155.6260  140.3472  155.4669 H   0  0  0  0  0  0  0  0  0  0  0  0  # atno 8010 bound_to 7997
  139.4883  144.4270  151.9117 H   0  0  0  0  0  0  0  0  0  0  0  0  # atno 10167 bound_to 10162
  156.3144  130.7500  151.1583 H   0  0  0  0  0  0  0  0  0  0  0  0  # atno 10718 bound_to 10713
  154.1299  135.6521  153.4920 H   0  0  0  0  0  0  0  0  0  0  0  0  # atno 10763 bound_to 10752
  153.0198  135.5290  154.7011 H   0  0  0  0  0  0  0  0  0  0  0  0  # atno 10764 bound_to 10752
  154.6243  135.2968  155.0261 H   0  0  0  0  0  0  0  0  0  0  0  0  # atno 10765 bound_to 10752
  141.0898  133.9074  157.2101 H   0  0  0  0  0  0  0  0  0  0  0  0  # atno 11005 bound_to 11000
  146.3531  140.0725  142.8622 LP  0  0  0  0  0  0  0  0  0  0  0  0  # atno 17320 bound_to 7965
  145.1081  140.9388  143.4673 LP  0  0  0  0  0  0  0  0  0  0  0  0  # atno 17321 bound_to 7965
  140.3716  144.2848  150.5919 LP  0  0  0  0  0  0  0  0  0  0  0  0  # atno 17342 bound_to 10162
  140.5313  143.2243  151.8233 LP  0  0  0  0  0  0  0  0  0  0  0  0  # atno 17343 bound_to 10162
  157.7398  131.0524  150.5206 LP  0  0  0  0  0  0  0  0  0  0  0  0  # atno 17370 bound_to 10713
  156.5350  130.4194  149.6182 LP  0  0  0  0  0  0  0  0  0  0  0  0  # atno 17371 bound_to 10713
  139.9722  135.0124  156.9542 LP  0  0  0  0  0  0  0  0  0  0  0  0  # atno 17394 bound_to 11000
  140.5277  134.0844  155.7308 LP  0  0  0  0  0  0  0  0  0  0  0  0  # atno 17395 bound_to 11000

$$$$
