AV-unprocessed.smi:1593|AV-procd|sdf|6412|dock8
  -GOLD-   22720 7 43D 1   1.00000     0.00000
 Structure written by MMmdl.
 36 37  0  0  0  0  0  0  0  0  3 V2000
  152.3826  141.6776  158.9342 C   0  0  0  0  0  0  0  0  0  0  0  0
  152.0742  140.9578  157.6665 C   0  0  0  0  0  0  0  0  0  0  0  0
  151.2570  141.2426  156.6094 C   0  0  0  0  0  0  0  0  0  0  0  0
  151.4487  140.1323  155.7425 C   0  0  0  0  0  0  0  0  0  0  0  0
  150.8448  139.9428  154.5591 N   0  5  0  0  0  0  0  0  0  0  0  0
  149.6347  140.4953  154.3164 C   0  0  0  0  0  0  0  0  0  0  0  0
  149.2165  141.5677  154.7591 O   0  0  0  0  0  0  0  0  0  0  0  0
  148.8562  139.7562  153.5132 N   0  0  0  0  0  0  0  0  0  0  0  0
  147.5043  140.1000  153.0890 C   0  0  0  0  0  0  0  0  0  0  0  0
  146.6224  140.4910  154.2898 C   0  0  0  0  0  0  0  0  0  0  0  0
  145.9347  141.7895  154.0857 N   0  3  0  0  0  0  0  0  0  0  0  0
  145.4769  142.3926  155.3603 C   0  0  0  0  0  0  0  0  0  0  0  0
  144.7261  143.7084  155.0951 C   0  0  0  0  0  0  0  0  0  0  0  0
  145.5674  144.6022  154.3772 O   0  0  0  0  0  0  0  0  0  0  0  0
  145.9466  144.0741  153.1122 C   0  0  0  0  0  0  0  0  0  0  0  0
  146.7361  142.7688  153.3098 C   0  0  0  0  0  0  0  0  0  0  0  0
  152.2938  139.2438  156.2379 N   0  0  0  0  0  0  0  0  0  0  0  0
  152.7054  139.7696  157.4684 O   0  0  0  0  0  0  0  0  0  0  0  0
  151.6642  142.4780  159.1120 H   0  0  0  0  0  0  0  0  0  0  0  0
  153.3785  142.1189  158.8939 H   0  0  0  0  0  0  0  0  0  0  0  0
  152.3467  140.9970  159.7849 H   0  0  0  0  0  0  0  0  0  0  0  0
  150.6262  142.1083  156.4746 H   0  0  0  0  0  0  0  0  0  0  0  0
  149.2390  138.8875  153.1692 H   0  0  0  0  0  0  0  0  0  0  0  0
  147.5548  140.8990  152.3489 H   0  0  0  0  0  0  0  0  0  0  0  0
  147.0793  139.2334  152.5821 H   0  0  0  0  0  0  0  0  0  0  0  0
  145.8748  139.7084  154.4287 H   0  0  0  0  0  0  0  0  0  0  0  0
  147.2039  140.5275  155.2124 H   0  0  0  0  0  0  0  0  0  0  0  0
  144.8205  141.6976  155.8857 H   0  0  0  0  0  0  0  0  0  0  0  0
  146.3356  142.5752  156.0085 H   0  0  0  0  0  0  0  0  0  0  0  0
  143.8065  143.5268  154.5359 H   0  0  0  0  0  0  0  0  0  0  0  0
  144.4384  144.1739  156.0379 H   0  0  0  0  0  0  0  0  0  0  0  0
  145.0628  143.9055  152.4946 H   0  0  0  0  0  0  0  0  0  0  0  0
  146.5617  144.8093  152.5930 H   0  0  0  0  0  0  0  0  0  0  0  0
  147.6704  142.9760  153.8340 H   0  0  0  0  0  0  0  0  0  0  0  0
  147.0018  142.3607  152.3354 H   0  0  0  0  0  0  0  0  0  0  0  0
  145.1018  141.5931  153.5489 H   0  0  0  0  0  0  0  0  0  0  0  0
  1  2  1  0  0  0  0
  1 19  1  0  0  0  0
  1 20  1  0  0  0  0
  1 21  1  0  0  0  0
  2 18  1  0  0  0  0
  2  3  2  0  0  0  0
  3  4  1  0  0  0  0
  3 22  1  0  0  0  0
  4  5  1  0  0  0  0
  4 17  2  0  0  0  0
  5  6  1  0  0  0  0
  6  7  2  0  0  0  0
  6  8  1  0  0  0  0
  8  9  1  0  0  0  0
  8 23  1  0  0  0  0
  9 10  1  0  0  0  0
  9 24  1  0  0  0  0
  9 25  1  0  0  0  0
 10 11  1  0  0  0  0
 10 26  1  0  0  0  0
 10 27  1  0  0  0  0
 11 16  1  0  0  0  0
 11 12  1  0  0  0  0
 11 36  1  0  0  0  0
 12 13  1  0  0  0  0
 12 28  1  0  0  0  0
 12 29  1  0  0  0  0
 13 14  1  0  0  0  0
 13 30  1  0  0  0  0
 13 31  1  0  0  0  0
 14 15  1  0  0  0  0
 15 16  1  0  0  0  0
 15 32  1  0  0  0  0
 15 33  1  0  0  0  0
 16 34  1  0  0  0  0
 16 35  1  0  0  0  0
 17 18  1  0  0  0  0
M  CHG  1   5  -1
M  CHG  1  11   1
M  END
> <s_m_source_file>
AV-unprocessed.smi

> <i_m_source_file_index>
1593

> <i_lp_mmshare_version>
43012

> <i_f3d_flags>
0

> <s_epik_input>
W0NIM11jMVtjSF1jKG5vMSlbTkhdQyg9TylbTkhdW0NIMl1bQ0gyXU4yW0NIMl1bQ0gyXU9bQ0gyXVtDSDJdMg==

> <s_epik_cmdline>
J2VwaWtfcHl0aG9uJywgJy1waCcsICc3LjAnLCAnLXRuJywgJzgnLCAnLW1hJywgJzIwMCcsICctbWV0YWxfYmluZGluZycsICctaW1hZScsICc8aW5maWxlLm1hZT4nLCAnLW9tYWUnLCAnPG91dGZpbGUubWFlPic=

> <r_epik_Ionization_Penalty>
6.73013

> <r_epik_Ionization_Penalty_Charging>
6.73004

> <r_epik_Ionization_Penalty_Neutral>
9.27027e-05

> <r_epik_State_Penalty>
6.93052

> <r_epik_Charging_Adjusted_Penalty>
13.6606

> <i_epik_Tot_Q>
0

> <i_epik_Tot_abs_Q>
2

> <r_epik_Metal_State_Penalty>
2.86736

> <b_epik_Metal_Only>
1

> <s_lp_Force_Field>
OPLS_2005

> <r_lp_Energy>
3.0075

> <b_lp_Chiralities_Consistent>
1

> <s_lp_Variant>
AV-unprocessed.smi:1593-4

> <Gold.Version>
5.8.1

> <Gold.Id.Protein>
6NUR|6NUR_protein|mol2

> <Gold.PLP.Fitness>
41.1954

> <Gold.PLP.PLP>
-30.9919

> <Gold.PLP.part.hbond>
-4.5073

> <Gold.PLP.part.metal>
0.0000

> <Gold.PLP.part.buried>
-3.1842

> <Gold.PLP.part.nonpolar>
-22.4222

> <Gold.PLP.part.repulsive>
0.5166

> <Gold.PLP.ligand.clash>
0.0000

> <Gold.PLP.ligand.torsion>
1.0149

> <Gold.PLP.Chemscore.Hbond>
4.0520

> <Gold.PLP.Chemscore.CHOScore>
0.0000

> <Gold.PLP.Chemscore.Metal>
0.0000

> <Gold.Chemscore.Hbonds>
donor molecule, donor type, donor heavy atom, donor atom, acceptor molecule, acceptor atom, score
      L1  H    11    36       P1 10175  1.25
      P1  H  7989  7998       L1     5  0.75
      P1  H  7997  8010       L1    18  0.75

> <Gold.PLP.Chemscore.Internal.Correction>
0.0773

> <Gold.Rescore>
     Score         DG    S(hbond)    S(metal)    S(lipo)     H(rot)  DE(clash)    DE(int)     intcor
     11.97     -15.72       3.00        0.00      37.49       1.62       0.01       3.75       ----

> <Gold.Chemscore.Fitness>
11.9672

> <Gold.Chemscore.DG>
-15.7235

> <Gold.Chemscore.ZeroCoef>
-5.4800

> <Gold.Chemscore.Hbond>
2.9976

> <Gold.Chemscore.Metal>
0.0000

> <Gold.Chemscore.Lipo>
37.4861

> <Gold.Chemscore.Internal_Hbond>
0.0000

> <Gold.Chemscore.DEClash>
0.0060

> <Gold.Chemscore.DEInternal>
3.7503

> <Gold.Chemscore.Rot>
1.6228

> <Gold.Chemscore.Internal.Correction>
   9.000000E+99

> <Gold.Chemscore.Hbonds>
donor molecule, donor type, donor heavy atom, donor atom, acceptor molecule, acceptor atom, score
      L1  H    11    36       P1 10175  0.06
      P1  H  7989  7998       L1     5  0.05
      P1  H  7997  8010       L1    18  0.07

> <Gold.Chemscore.Hbond.Weighted>
-10.0118

> <Gold.Chemscore.Metal.Weighted>
-0.0000

> <Gold.Chemscore.Lipo.Weighted>
-4.3859

> <Gold.Chemscore.Internal_Hbond.Weighted>
0.0000

> <Gold.Chemscore.DEClash.Weighted>
0.0060

> <Gold.Chemscore.DEInternal.Weighted>
3.7503

> <Gold.Chemscore.Rot.Weighted>
4.1542

> <Gold.Chemscore.Internal.Correction.Weighted>
   9.000000E+99

> <Gold.Protein.RotatedTorsions>
[ 6907 6896 6895 6894 ] final   26.73 input  -60.11 | X-H torsion
[ 7974 7965 7964 7962 ] final  -91.06 input  175.53 | X-H torsion
[ 8008 7997 7996 7995 ] final   40.65 input   59.86 | X-H torsion
[ 10167 10162 10161 10158 ] final   18.57 input  -65.29 | X-H torsion
[ 10718 10713 10712 10709 ] final  -78.80 input   66.30 | X-H torsion
[ 10763 10752 10751 10750 ] final   43.07 input  -60.55 | X-H torsion
[ 11005 11000 10999 10996 ] final   92.27 input  -57.11 | X-H torsion

> <Gold.Protein.ActiveResidues>
 VAL166  LYS551  ARG553  GLY616  TRP617  ASP618  TYR619  PRO620  LYS621  CYS622 
 ASP623  PHE694  ASN695  SER759  ASP760  ASP761  ALA762  ILE779  LEU786  VAL792 
 PHE793  MET794  SER795  GLU796  ALA797  LYS798  CYS799  TRP800  GLU811  SER814 

> <Gold.Protein.RotatedAtoms>
  151.9918  134.9975  160.0561 H   0  0  0  0  0  0  0  0  0  0  0  0  # atno 6907 bound_to 6896
  152.1601  133.4571  159.4865 H   0  0  0  0  0  0  0  0  0  0  0  0  # atno 6908 bound_to 6896
  150.6886  134.2000  159.4361 H   0  0  0  0  0  0  0  0  0  0  0  0  # atno 6909 bound_to 6896
  145.4181  140.9549  143.2196 H   0  0  0  0  0  0  0  0  0  0  0  0  # atno 7974 bound_to 7965
  155.2566  140.3356  155.4277 H   0  0  0  0  0  0  0  0  0  0  0  0  # atno 8008 bound_to 7997
  156.2193  140.1802  156.7559 H   0  0  0  0  0  0  0  0  0  0  0  0  # atno 8009 bound_to 7997
  154.5800  140.0655  156.9075 H   0  0  0  0  0  0  0  0  0  0  0  0  # atno 8010 bound_to 7997
  140.5643  143.9279  150.6665 H   0  0  0  0  0  0  0  0  0  0  0  0  # atno 10167 bound_to 10162
  156.0108  130.4528  150.3552 H   0  0  0  0  0  0  0  0  0  0  0  0  # atno 10718 bound_to 10713
  152.9869  135.6113  154.3051 H   0  0  0  0  0  0  0  0  0  0  0  0  # atno 10763 bound_to 10752
  154.2770  135.2778  155.2715 H   0  0  0  0  0  0  0  0  0  0  0  0  # atno 10764 bound_to 10752
  154.5072  135.5851  153.6633 H   0  0  0  0  0  0  0  0  0  0  0  0  # atno 10765 bound_to 10752
  139.8826  134.8723  156.3548 H   0  0  0  0  0  0  0  0  0  0  0  0  # atno 11005 bound_to 11000
  144.8263  139.5704  143.6964 LP  0  0  0  0  0  0  0  0  0  0  0  0  # atno 17320 bound_to 7965
  146.2670  139.6545  142.9322 LP  0  0  0  0  0  0  0  0  0  0  0  0  # atno 17321 bound_to 7965
  140.2738  143.3437  152.1214 LP  0  0  0  0  0  0  0  0  0  0  0  0  # atno 17342 bound_to 10162
  139.5085  144.6851  151.5907 LP  0  0  0  0  0  0  0  0  0  0  0  0  # atno 17343 bound_to 10162
  157.1643  131.0353  151.2826 LP  0  0  0  0  0  0  0  0  0  0  0  0  # atno 17370 bound_to 10713
  157.4284  130.7477  149.6970 LP  0  0  0  0  0  0  0  0  0  0  0  0  # atno 17371 bound_to 10713
  140.9570  133.7414  156.0348 LP  0  0  0  0  0  0  0  0  0  0  0  0  # atno 17394 bound_to 11000
  140.8037  134.3480  157.5432 LP  0  0  0  0  0  0  0  0  0  0  0  0  # atno 17395 bound_to 11000

$$$$
