AV-unprocessed.smi:3031|AV-procd|sdf|11552|dock10
  -GOLD-   2272016513D 1   1.00000     0.00000
 Structure written by MMmdl.
 48 49  0  0  0  0  0  0  0  0  3 V2000
  152.0565  142.5656  158.2528 C   0  0  0  0  0  0  0  0  0  0  0  0
  151.4336  141.5952  157.2909 C   0  0  0  0  0  0  0  0  0  0  0  0
  151.7059  140.2047  157.1579 C   0  0  0  0  0  0  0  0  0  0  0  0
  150.9823  139.6285  156.2124 N   0  0  0  0  0  0  0  0  0  0  0  0
  150.2326  140.6285  155.6996 N   0  0  0  0  0  0  0  0  0  0  0  0
  149.2816  140.3589  154.6323 C   0  0  0  0  0  0  0  0  0  0  0  0
  149.1270  138.8592  154.2710 C   0  0  1  0  0  0  0  0  0  0  0  0
  148.3463  138.1261  155.3707 C   0  0  0  0  0  0  0  0  0  0  0  0
  148.4380  138.6411  152.9754 N   0  3  0  0  0  0  0  0  0  0  0  0
  147.0487  139.1402  152.8773 C   0  0  0  0  0  0  0  0  0  0  0  0
  146.0969  138.0763  152.3017 C   0  0  1  0  0  0  0  0  0  0  0  0
  146.4241  137.8755  150.9413 O   0  0  0  0  0  0  0  0  0  0  0  0
  146.2349  136.7152  153.0170 C   0  0  0  0  0  0  0  0  0  0  0  0
  146.1349  135.5554  152.0934 N   0  3  0  0  0  0  0  0  0  0  0  0
  146.5595  134.2699  152.7013 C   0  0  0  0  0  0  0  0  0  0  0  0
  146.4558  133.1280  151.6750 C   0  0  0  0  0  0  0  0  0  0  0  0
  145.1272  133.0535  151.1739 O   0  0  0  0  0  0  0  0  0  0  0  0
  144.7429  134.2487  150.5066 C   0  0  0  0  0  0  0  0  0  0  0  0
  144.7845  135.4255  151.4957 C   0  0  0  0  0  0  0  0  0  0  0  0
  150.4717  141.8225  156.3477 C   0  0  0  0  0  0  0  0  0  0  0  0
  152.1216  142.1488  159.2581 H   0  0  0  0  0  0  0  0  0  0  0  0
  151.4831  143.4900  158.3266 H   0  0  0  0  0  0  0  0  0  0  0  0
  153.0680  142.8376  157.9506 H   0  0  0  0  0  0  0  0  0  0  0  0
  152.4028  139.6001  157.7193 H   0  0  0  0  0  0  0  0  0  0  0  0
  148.3212  140.7591  154.9604 H   0  0  0  0  0  0  0  0  0  0  0  0
  149.5666  140.9345  153.7505 H   0  0  0  0  0  0  0  0  0  0  0  0
  150.1084  138.3862  154.2201 H   0  0  0  0  0  0  0  0  0  0  0  0
  148.8486  138.2126  156.3348 H   0  0  0  0  0  0  0  0  0  0  0  0
  148.2532  137.0631  155.1467 H   0  0  0  0  0  0  0  0  0  0  0  0
  147.3402  138.5324  155.4832 H   0  0  0  0  0  0  0  0  0  0  0  0
  148.9772  139.1279  152.2736 H   0  0  0  0  0  0  0  0  0  0  0  0
  146.6976  139.4520  153.8603 H   0  0  0  0  0  0  0  0  0  0  0  0
  147.0385  140.0215  152.2352 H   0  0  0  0  0  0  0  0  0  0  0  0
  145.0670  138.4304  152.3470 H   0  0  0  0  0  0  0  0  0  0  0  0
  145.6698  138.0847  150.4105 H   0  0  0  0  0  0  0  0  0  0  0  0
  147.1795  136.6595  153.5612 H   0  0  0  0  0  0  0  0  0  0  0  0
  145.4473  136.6426  153.7691 H   0  0  0  0  0  0  0  0  0  0  0  0
  147.5858  134.3377  153.0607 H   0  0  0  0  0  0  0  0  0  0  0  0
  145.9317  134.0481  153.5659 H   0  0  0  0  0  0  0  0  0  0  0  0
  147.1593  133.2755  150.8540 H   0  0  0  0  0  0  0  0  0  0  0  0
  146.7093  132.1770  152.1441 H   0  0  0  0  0  0  0  0  0  0  0  0
  145.3990  134.4321  149.6543 H   0  0  0  0  0  0  0  0  0  0  0  0
  143.7345  134.1253  150.1115 H   0  0  0  0  0  0  0  0  0  0  0  0
  144.0464  135.2771  152.2857 H   0  0  0  0  0  0  0  0  0  0  0  0
  144.5188  136.3471  150.9763 H   0  0  0  0  0  0  0  0  0  0  0  0
  149.9480  142.7295  156.0824 H   0  0  0  0  0  0  0  0  0  0  0  0
  148.4500  137.6559  152.7510 H   0  0  0  0  0  0  0  0  0  0  0  0
  146.7617  135.7399  151.3233 H   0  0  0  0  0  0  0  0  0  0  0  0
  1  2  1  0  0  0  0
  1 21  1  0  0  0  0
  1 22  1  0  0  0  0
  1 23  1  0  0  0  0
  2 20  2  0  0  0  0
  2  3  1  0  0  0  0
  3  4  2  0  0  0  0
  3 24  1  0  0  0  0
  4  5  1  0  0  0  0
  5  6  1  0  0  0  0
  5 20  1  0  0  0  0
  6  7  1  0  0  0  0
  6 25  1  0  0  0  0
  6 26  1  0  0  0  0
  7  8  1  0  0  0  0
  7  9  1  0  0  0  0
  7 27  1  0  0  0  0
  8 28  1  0  0  0  0
  8 29  1  0  0  0  0
  8 30  1  0  0  0  0
  9 10  1  0  0  0  0
  9 31  1  0  0  0  0
  9 47  1  0  0  0  0
 10 11  1  0  0  0  0
 10 32  1  0  0  0  0
 10 33  1  0  0  0  0
 11 12  1  0  0  0  0
 11 13  1  0  0  0  0
 11 34  1  0  0  0  0
 12 35  1  0  0  0  0
 13 14  1  0  0  0  0
 13 36  1  0  0  0  0
 13 37  1  0  0  0  0
 14 19  1  0  0  0  0
 14 15  1  0  0  0  0
 14 48  1  0  0  0  0
 15 16  1  0  0  0  0
 15 38  1  0  0  0  0
 15 39  1  0  0  0  0
 16 17  1  0  0  0  0
 16 40  1  0  0  0  0
 16 41  1  0  0  0  0
 17 18  1  0  0  0  0
 18 19  1  0  0  0  0
 18 42  1  0  0  0  0
 18 43  1  0  0  0  0
 19 44  1  0  0  0  0
 19 45  1  0  0  0  0
 20 46  1  0  0  0  0
M  CHG  1   9   1
M  CHG  1  14   1
M  END
> <s_m_source_file>
AV-unprocessed.smi

> <i_m_source_file_index>
3031

> <i_lp_mmshare_version>
43012

> <i_f3d_flags>
0

> <s_epik_input>
W0NIM11jMVtjSF1ubihbY0hdMSlbQ0gyXVtDQEhdKFtDSDNdKVtOSF1bQ0gyXVtDQEhdKFtPSF0pW0NIMl1OMltDSDJdW0NIMl1PW0NIMl1bQ0gyXTI=

> <s_epik_cmdline>
J2VwaWtfcHl0aG9uJywgJy1waCcsICc3LjAnLCAnLXRuJywgJzgnLCAnLW1hJywgJzIwMCcsICctbWV0YWxfYmluZGluZycsICctaW1hZScsICc8aW5maWxlLm1hZT4nLCAnLW9tYWUnLCAnPG91dGZpbGUubWFlPic=

> <r_lp_tautomer_probability>
1

> <r_epik_Ionization_Penalty>
1.76542

> <r_epik_Ionization_Penalty_Charging>
1.76348

> <r_epik_Ionization_Penalty_Neutral>
0.00194017

> <r_epik_State_Penalty>
1.49348

> <r_epik_Charging_Adjusted_Penalty>
3.25696

> <i_epik_Tot_Q>
2

> <i_epik_Tot_abs_Q>
2

> <r_epik_Metal_State_Penalty>
1.49349

> <b_epik_Metal_Only>
0

> <s_lp_Force_Field>
OPLS_2005

> <r_lp_Energy>
29.0022

> <b_lp_Chiralities_Consistent>
1

> <s_lp_Variant>
AV-unprocessed.smi:3031-12

> <Gold.Version>
5.8.1

> <Gold.Id.Protein>
6NUR|6NUR_protein|mol2

> <Gold.PLP.Fitness>
53.8324

> <Gold.PLP.PLP>
-36.5928

> <Gold.PLP.part.hbond>
-5.9693

> <Gold.PLP.part.metal>
0.0000

> <Gold.PLP.part.buried>
-2.8253

> <Gold.PLP.part.nonpolar>
-28.4343

> <Gold.PLP.part.repulsive>
0.1990

> <Gold.PLP.ligand.clash>
0.0110

> <Gold.PLP.ligand.torsion>
1.1192

> <Gold.PLP.Chemscore.Hbond>
5.4361

> <Gold.PLP.Chemscore.CHOScore>
1.0000

> <Gold.PLP.Chemscore.Metal>
0.0000

> <Gold.Chemscore.Hbonds>
donor molecule, donor type, donor heavy atom, donor atom, acceptor molecule, acceptor atom, score
      L1  H     9    31       P1  7957  1.00
      L1  H     9    47       P1  7948  2.00
      L1  H    12    35       P1 10171  1.00
      L1  H    14    48       P1  7948  0.30
      P1  H  7954  7966       L1    12  1.00
      L1  C    20    46       P1  8028  1.00

> <Gold.PLP.Chemscore.Internal.Correction>
0.1807

> <Gold.Rescore>
     Score         DG    S(hbond)    S(metal)    S(lipo)     H(rot)  DE(clash)    DE(int)     intcor
     18.45     -21.18       3.89        0.00      83.05       2.74       0.64       2.09       ----

> <Gold.Chemscore.Fitness>
18.4495

> <Gold.Chemscore.DG>
-21.1805

> <Gold.Chemscore.ZeroCoef>
-5.4800

> <Gold.Chemscore.Hbond>
3.8943

> <Gold.Chemscore.Metal>
0.0000

> <Gold.Chemscore.Lipo>
83.0472

> <Gold.Chemscore.Internal_Hbond>
0.0000

> <Gold.Chemscore.DEClash>
0.6436

> <Gold.Chemscore.DEInternal>
2.0874

> <Gold.Chemscore.Rot>
2.7434

> <Gold.Chemscore.Internal.Correction>
   9.000000E+99

> <Gold.Chemscore.Hbonds>
donor molecule, donor type, donor heavy atom, donor atom, acceptor molecule, acceptor atom, score
      L1  H     9    31       P1  7957  0.95
      L1  H     9    47       P1  7948  0.98
      L1  H    12    35       P1 10171  0.99
      L1  H    14    48       P1  7948  0.15
      P1  H  7954  7966       L1    12  0.79

> <Gold.Chemscore.Hbond.Weighted>
-13.0071

> <Gold.Chemscore.Metal.Weighted>
-0.0000

> <Gold.Chemscore.Lipo.Weighted>
-9.7165

> <Gold.Chemscore.Internal_Hbond.Weighted>
0.0000

> <Gold.Chemscore.DEClash.Weighted>
0.6436

> <Gold.Chemscore.DEInternal.Weighted>
2.0874

> <Gold.Chemscore.Rot.Weighted>
7.0231

> <Gold.Chemscore.Internal.Correction.Weighted>
   9.000000E+99

> <Gold.Protein.RotatedTorsions>
[ 6907 6896 6895 6894 ] final  138.28 input  -60.11 | X-H torsion
[ 7974 7965 7964 7962 ] final  -71.81 input  175.53 | X-H torsion
[ 8008 7997 7996 7995 ] final  107.31 input   59.86 | X-H torsion
[ 10167 10162 10161 10158 ] final    2.66 input  -65.29 | X-H torsion
[ 10718 10713 10712 10709 ] final -123.34 input   66.30 | X-H torsion
[ 10763 10752 10751 10750 ] final   77.64 input  -60.55 | X-H torsion
[ 11005 11000 10999 10996 ] final   40.67 input  -57.11 | X-H torsion

> <Gold.Protein.ActiveResidues>
 VAL166  LYS551  ARG553  GLY616  TRP617  ASP618  TYR619  PRO620  LYS621  CYS622 
 ASP623  PHE694  ASN695  SER759  ASP760  ASP761  ALA762  ILE779  LEU786  VAL792 
 PHE793  MET794  SER795  GLU796  ALA797  LYS798  CYS799  TRP800  GLU811  SER814 

> <Gold.Protein.RotatedAtoms>
  152.2684  133.5360  159.5423 H   0  0  0  0  0  0  0  0  0  0  0  0  # atno 6907 bound_to 6896
  150.7150  134.0732  159.3881 H   0  0  0  0  0  0  0  0  0  0  0  0  # atno 6908 bound_to 6896
  151.8647  135.0511  160.0524 H   0  0  0  0  0  0  0  0  0  0  0  0  # atno 6909 bound_to 6896
  145.6733  140.9213  143.0871 H   0  0  0  0  0  0  0  0  0  0  0  0  # atno 7974 bound_to 7965
  156.1814  140.3097  155.9156 H   0  0  0  0  0  0  0  0  0  0  0  0  # atno 8008 bound_to 7997
  155.3375  140.0464  157.3061 H   0  0  0  0  0  0  0  0  0  0  0  0  # atno 8009 bound_to 7997
  154.5347  140.2242  155.8753 H   0  0  0  0  0  0  0  0  0  0  0  0  # atno 8010 bound_to 7997
  140.6624  143.7268  150.7764 H   0  0  0  0  0  0  0  0  0  0  0  0  # atno 10167 bound_to 10162
  156.1494  130.6523  150.9890 H   0  0  0  0  0  0  0  0  0  0  0  0  # atno 10718 bound_to 10713
  153.0814  135.4907  154.8510 H   0  0  0  0  0  0  0  0  0  0  0  0  # atno 10763 bound_to 10752
  154.7155  135.3028  154.9133 H   0  0  0  0  0  0  0  0  0  0  0  0  # atno 10764 bound_to 10752
  153.9813  135.6789  153.4803 H   0  0  0  0  0  0  0  0  0  0  0  0  # atno 10765 bound_to 10752
  140.1908  134.3989  155.8147 H   0  0  0  0  0  0  0  0  0  0  0  0  # atno 11005 bound_to 11000
  144.7050  139.8601  143.7433 LP  0  0  0  0  0  0  0  0  0  0  0  0  # atno 17320 bound_to 7965
  146.1027  139.4024  143.0337 LP  0  0  0  0  0  0  0  0  0  0  0  0  # atno 17321 bound_to 7965
  140.0939  143.4851  152.2463 LP  0  0  0  0  0  0  0  0  0  0  0  0  # atno 17342 bound_to 10162
  139.5862  144.7532  151.3514 LP  0  0  0  0  0  0  0  0  0  0  0  0  # atno 17343 bound_to 10162
  157.6644  131.0874  150.7763 LP  0  0  0  0  0  0  0  0  0  0  0  0  # atno 17370 bound_to 10713
  156.7833  130.4866  149.5397 LP  0  0  0  0  0  0  0  0  0  0  0  0  # atno 17371 bound_to 10713
  141.2226  133.7045  156.8092 LP  0  0  0  0  0  0  0  0  0  0  0  0  # atno 17394 bound_to 11000
  140.2162  134.8791  157.3328 LP  0  0  0  0  0  0  0  0  0  0  0  0  # atno 17395 bound_to 11000

$$$$
