AV-unprocessed.smi:1057|AV-procd|sdf|4650|dock1
  -GOLD-   22720 3153D 1   1.00000     0.00000
 Structure written by MMmdl.
 44 45  0  0  0  0  0  0  0  0  1 V2000
  147.5981  141.6070  154.1542 C   0  0  0  0  0  0  0  0  0  0  0  0
  148.1595  141.3107  155.1974 C   0  0  0  0  0  0  0  0  0  0  0  0
  148.8558  140.9564  156.4458 C   0  0  0  0  0  0  0  0  0  0  0  0
  149.5362  139.6691  156.3640 N   0  0  0  0  0  0  0  0  0  0  0  0
  150.2553  139.2276  155.3164 C   0  0  0  0  0  0  0  0  0  0  0  0
  150.4131  139.8895  154.2913 O   0  0  0  0  0  0  0  0  0  0  0  0
  150.8950  137.8325  155.4076 C   0  0  0  0  0  0  0  0  0  0  0  0
  150.1820  136.7863  154.6747 N   0  0  0  0  0  0  0  0  0  0  0  0
  150.3569  135.4672  154.8413 C   0  0  0  0  0  0  0  0  0  0  0  0
  151.1769  134.9809  155.6199 O   0  0  0  0  0  0  0  0  0  0  0  0
  149.5043  134.7662  154.0773 N   0  0  0  0  0  0  0  0  0  0  0  0
  149.3305  133.3551  154.0327 C   0  0  0  0  0  0  0  0  0  0  0  0
  150.2119  132.4555  154.6788 C   0  0  0  0  0  0  0  0  0  0  0  0
  149.9822  131.0722  154.5634 C   0  0  0  0  0  0  0  0  0  0  0  0
  148.8841  130.6370  153.7991 C   0  0  0  0  0  0  0  0  0  0  0  0
  148.0431  131.4810  153.1663 N   0  0  0  0  0  0  0  0  0  0  0  0
  148.2614  132.8135  153.2753 C   0  0  0  0  0  0  0  0  0  0  0  0
  147.3701  133.6698  152.6084 N   0  0  0  0  0  0  0  0  0  0  0  0
  146.6279  133.0188  151.5330 C   0  0  0  0  0  0  0  0  0  0  0  0
  145.8703  134.0598  150.6908 C   0  0  0  0  0  0  0  0  0  0  0  0
  144.9742  134.9385  151.5793 C   0  0  0  0  0  0  0  0  0  0  0  0
  145.8001  135.5682  152.7135 C   0  0  0  0  0  0  0  0  0  0  0  0
  146.5583  134.4886  153.5047 C   0  0  0  0  0  0  0  0  0  0  0  0
  147.1134  141.8685  153.2404 H   0  0  0  0  0  0  0  0  0  0  0  0
  149.5521  141.7571  156.6982 H   0  0  0  0  0  0  0  0  0  0  0  0
  148.1141  140.9121  157.2434 H   0  0  0  0  0  0  0  0  0  0  0  0
  149.4593  139.0639  157.1684 H   0  0  0  0  0  0  0  0  0  0  0  0
  151.9059  137.8945  155.0044 H   0  0  0  0  0  0  0  0  0  0  0  0
  151.0002  137.5560  156.4581 H   0  0  0  0  0  0  0  0  0  0  0  0
  149.4845  137.0933  154.0127 H   0  0  0  0  0  0  0  0  0  0  0  0
  148.8220  135.3020  153.5609 H   0  0  0  0  0  0  0  0  0  0  0  0
  151.0629  132.8029  155.2446 H   0  0  0  0  0  0  0  0  0  0  0  0
  150.6361  130.3608  155.0456 H   0  0  0  0  0  0  0  0  0  0  0  0
  148.6782  129.5828  153.6884 H   0  0  0  0  0  0  0  0  0  0  0  0
  147.3145  132.4552  150.8996 H   0  0  0  0  0  0  0  0  0  0  0  0
  145.9242  132.3026  151.9594 H   0  0  0  0  0  0  0  0  0  0  0  0
  146.5861  134.6888  150.1598 H   0  0  0  0  0  0  0  0  0  0  0  0
  145.2710  133.5604  149.9292 H   0  0  0  0  0  0  0  0  0  0  0  0
  144.4970  135.7165  150.9827 H   0  0  0  0  0  0  0  0  0  0  0  0
  144.1724  134.3327  152.0031 H   0  0  0  0  0  0  0  0  0  0  0  0
  146.5124  136.2804  152.2949 H   0  0  0  0  0  0  0  0  0  0  0  0
  145.1510  136.1347  153.3815 H   0  0  0  0  0  0  0  0  0  0  0  0
  145.8495  133.8526  154.0369 H   0  0  0  0  0  0  0  0  0  0  0  0
  147.1961  134.9565  154.2561 H   0  0  0  0  0  0  0  0  0  0  0  0
  1  2  3  0  0  0  0
  1 24  1  0  0  0  0
  2  3  1  0  0  0  0
  3  4  1  0  0  0  0
  3 25  1  0  0  0  0
  3 26  1  0  0  0  0
  4  5  1  0  0  0  0
  4 27  1  0  0  0  0
  5  6  2  0  0  0  0
  5  7  1  0  0  0  0
  7  8  1  0  0  0  0
  7 28  1  0  0  0  0
  7 29  1  0  0  0  0
  8  9  1  0  0  0  0
  8 30  1  0  0  0  0
  9 10  2  0  0  0  0
  9 11  1  0  0  0  0
 11 12  1  0  0  0  0
 11 31  1  0  0  0  0
 12 17  1  0  0  0  0
 12 13  2  0  0  0  0
 13 14  1  0  0  0  0
 13 32  1  0  0  0  0
 14 15  2  0  0  0  0
 14 33  1  0  0  0  0
 15 16  1  0  0  0  0
 15 34  1  0  0  0  0
 16 17  2  0  0  0  0
 17 18  1  0  0  0  0
 18 23  1  0  0  0  0
 18 19  1  0  0  0  0
 19 20  1  0  0  0  0
 19 35  1  0  0  0  0
 19 36  1  0  0  0  0
 20 21  1  0  0  0  0
 20 37  1  0  0  0  0
 20 38  1  0  0  0  0
 21 22  1  0  0  0  0
 21 39  1  0  0  0  0
 21 40  1  0  0  0  0
 22 23  1  0  0  0  0
 22 41  1  0  0  0  0
 22 42  1  0  0  0  0
 23 43  1  0  0  0  0
 23 44  1  0  0  0  0
M  END
> <s_m_source_file>
AV-unprocessed.smi

> <i_m_source_file_index>
1057

> <i_lp_mmshare_version>
43012

> <i_f3d_flags>
0

> <s_epik_input>
W0NIXSNDW0NIMl1bTkhdQyg9TylbQ0gyXVtOSF1DKD1PKVtOSF1jMVtjSF1bY0hdW2NIXW5jMU4yW0NIMl1bQ0gyXVtDSDJdW0NIMl1bQ0gyXTI=

> <s_epik_cmdline>
J2VwaWtfcHl0aG9uJywgJy1waCcsICc3LjAnLCAnLXRuJywgJzgnLCAnLW1hJywgJzIwMCcsICctbWV0YWxfYmluZGluZycsICctaW1hZScsICc8aW5maWxlLm1hZT4nLCAnLW9tYWUnLCAnPG91dGZpbGUubWFlPic=

> <r_lp_tautomer_probability>
1

> <r_epik_Ionization_Penalty>
0.251144

> <r_epik_Ionization_Penalty_Charging>
0

> <r_epik_Ionization_Penalty_Neutral>
0.251144

> <r_epik_State_Penalty>
0.236346

> <r_epik_Charging_Adjusted_Penalty>
0.236346

> <i_epik_Tot_Q>
0

> <i_epik_Tot_abs_Q>
0

> <r_epik_Metal_State_Penalty>
0.166327

> <b_epik_Metal_Only>
0

> <s_lp_Force_Field>
OPLS_2005

> <r_lp_Energy>
16.5817

> <b_lp_Chiralities_Consistent>
1

> <s_lp_Variant>
AV-unprocessed.smi:1057-1

> <Gold.Version>
5.8.1

> <Gold.Id.Protein>
6NUR|6NUR_protein|mol2

> <Gold.PLP.Fitness>
43.2271

> <Gold.PLP.PLP>
-36.2997

> <Gold.PLP.part.hbond>
-4.1777

> <Gold.PLP.part.metal>
0.0000

> <Gold.PLP.part.buried>
-4.4276

> <Gold.PLP.part.nonpolar>
-29.0915

> <Gold.PLP.part.repulsive>
1.4088

> <Gold.PLP.ligand.clash>
0.0000

> <Gold.PLP.ligand.torsion>
0.7986

> <Gold.PLP.Chemscore.Hbond>
2.7495

> <Gold.PLP.Chemscore.CHOScore>
0.0000

> <Gold.PLP.Chemscore.Metal>
0.0000

> <Gold.Chemscore.Hbonds>
donor molecule, donor type, donor heavy atom, donor atom, acceptor molecule, acceptor atom, score
      L1  H     8    30       P1  7948  0.11
      L1  H    11    31       P1  7948  0.59
      P1  H  7989  7998       L1     6  1.00
      P1  H 10752 10763       L1    10  0.87

> <Gold.PLP.Chemscore.Internal.Correction>
0.2760

> <Gold.Rescore>
     Score         DG    S(hbond)    S(metal)    S(lipo)     H(rot)  DE(clash)    DE(int)     intcor
     12.50     -16.27       2.31        0.00      65.24       1.79       0.12       3.65       ----

> <Gold.Chemscore.Fitness>
12.4979

> <Gold.Chemscore.DG>
-16.2652

> <Gold.Chemscore.ZeroCoef>
-5.4800

> <Gold.Chemscore.Hbond>
2.3126

> <Gold.Chemscore.Metal>
0.0000

> <Gold.Chemscore.Lipo>
65.2413

> <Gold.Chemscore.Internal_Hbond>
0.0000

> <Gold.Chemscore.DEClash>
0.1155

> <Gold.Chemscore.DEInternal>
3.6518

> <Gold.Chemscore.Rot>
1.7860

> <Gold.Chemscore.Internal.Correction>
   9.000000E+99

> <Gold.Chemscore.Hbonds>
donor molecule, donor type, donor heavy atom, donor atom, acceptor molecule, acceptor atom, score
      L1  H     8    30       P1  7948  0.12
      L1  H    11    31       P1  7948  0.47
      P1  H  7989  7998       L1     6  1.00
      P1  H 10752 10763       L1    10  0.41

> <Gold.Chemscore.Hbond.Weighted>
-7.7240

> <Gold.Chemscore.Metal.Weighted>
-0.0000

> <Gold.Chemscore.Lipo.Weighted>
-7.6332

> <Gold.Chemscore.Internal_Hbond.Weighted>
0.0000

> <Gold.Chemscore.DEClash.Weighted>
0.1155

> <Gold.Chemscore.DEInternal.Weighted>
3.6518

> <Gold.Chemscore.Rot.Weighted>
4.5721

> <Gold.Chemscore.Internal.Correction.Weighted>
   9.000000E+99

> <Gold.Protein.RotatedTorsions>
[ 6907 6896 6895 6894 ] final  136.24 input  -60.11 | X-H torsion
[ 7974 7965 7964 7962 ] final  112.05 input  175.53 | X-H torsion
[ 8008 7997 7996 7995 ] final -131.18 input   59.86 | X-H torsion
[ 10167 10162 10161 10158 ] final   49.30 input  -65.29 | X-H torsion
[ 10718 10713 10712 10709 ] final   32.87 input   66.30 | X-H torsion
[ 10763 10752 10751 10750 ] final   76.03 input  -60.55 | X-H torsion
[ 11005 11000 10999 10996 ] final   90.88 input  -57.11 | X-H torsion

> <Gold.Protein.ActiveResidues>
 VAL166  LYS551  ARG553  GLY616  TRP617  ASP618  TYR619  PRO620  LYS621  CYS622 
 ASP623  PHE694  ASN695  SER759  ASP760  ASP761  ALA762  ILE779  LEU786  VAL792 
 PHE793  MET794  SER795  GLU796  ALA797  LYS798  CYS799  TRP800  GLU811  SER814 

> <Gold.Protein.RotatedAtoms>
  152.2915  133.5566  159.5560 H   0  0  0  0  0  0  0  0  0  0  0  0  # atno 6907 bound_to 6896
  150.7237  134.0421  159.3778 H   0  0  0  0  0  0  0  0  0  0  0  0  # atno 6908 bound_to 6896
  151.8327  135.0616  160.0489 H   0  0  0  0  0  0  0  0  0  0  0  0  # atno 6909 bound_to 6896
  145.2344  139.2805  143.4151 H   0  0  0  0  0  0  0  0  0  0  0  0  # atno 7974 bound_to 7965
  155.3081  140.0456  157.3033 H   0  0  0  0  0  0  0  0  0  0  0  0  # atno 8008 bound_to 7997
  154.5448  140.2299  155.8547 H   0  0  0  0  0  0  0  0  0  0  0  0  # atno 8009 bound_to 7997
  156.1914  140.3049  155.9347 H   0  0  0  0  0  0  0  0  0  0  0  0  # atno 8010 bound_to 7997
  140.2843  144.3120  150.6256 H   0  0  0  0  0  0  0  0  0  0  0  0  # atno 10167 bound_to 10162
  157.2907  130.7301  149.6609 H   0  0  0  0  0  0  0  0  0  0  0  0  # atno 10718 bound_to 10713
  153.0696  135.4966  154.8276 H   0  0  0  0  0  0  0  0  0  0  0  0  # atno 10763 bound_to 10752
  154.7003  135.3000  154.9352 H   0  0  0  0  0  0  0  0  0  0  0  0  # atno 10764 bound_to 10752
  154.0078  135.6758  153.4816 H   0  0  0  0  0  0  0  0  0  0  0  0  # atno 10765 bound_to 10752
  139.8848  134.8641  156.3348 H   0  0  0  0  0  0  0  0  0  0  0  0  # atno 11005 bound_to 11000
  146.3345  140.2689  142.8605 LP  0  0  0  0  0  0  0  0  0  0  0  0  # atno 17320 bound_to 7965
  144.9646  140.8309  143.5492 LP  0  0  0  0  0  0  0  0  0  0  0  0  # atno 17321 bound_to 7965
  140.5785  143.2174  151.7471 LP  0  0  0  0  0  0  0  0  0  0  0  0  # atno 17342 bound_to 10162
  139.4954  144.4114  152.0076 LP  0  0  0  0  0  0  0  0  0  0  0  0  # atno 17343 bound_to 10162
  155.9667  130.4310  150.4899 LP  0  0  0  0  0  0  0  0  0  0  0  0  # atno 17370 bound_to 10713
  157.2861  131.0617  151.2165 LP  0  0  0  0  0  0  0  0  0  0  0  0  # atno 17371 bound_to 10713
  140.9698  133.7334  156.0518 LP  0  0  0  0  0  0  0  0  0  0  0  0  # atno 17394 bound_to 11000
  140.7885  134.3645  157.5470 LP  0  0  0  0  0  0  0  0  0  0  0  0  # atno 17395 bound_to 11000

$$$$
