AV-unprocessed.smi:1621|AV-procd|sdf|6493|dock4
  -GOLD-   22720 7153D 1   1.00000     0.00000
 Structure written by MMmdl.
 39 40  0  0  0  0  0  0  0  0  2 V2000
  142.9144  132.5568  150.9472 C   0  0  0  0  0  0  0  0  0  0  0  0
  143.4185  133.9373  151.1097 N   0  3  2  0  0  0  0  0  0  0  0  0
  144.8256  134.0806  150.6612 C   0  0  0  0  0  0  0  0  0  0  0  0
  145.2831  135.5472  150.7304 C   0  0  0  0  0  0  0  0  0  0  0  0
  145.1059  136.1243  152.1492 C   0  0  1  0  0  0  0  0  0  0  0  0
  145.5228  137.6073  152.2480 C   0  0  0  0  0  0  0  0  0  0  0  0
  146.9305  137.7755  152.5965 N   0  0  0  0  0  0  0  0  0  0  0  0
  147.4055  138.6695  153.4760 C   0  0  0  0  0  0  0  0  0  0  0  0
  146.6857  139.4494  154.0987 O   0  0  0  0  0  0  0  0  0  0  0  0
  148.7454  138.5944  153.5663 N   0  0  0  0  0  0  0  0  0  0  0  0
  149.6426  139.3651  154.3574 C   0  0  0  0  0  0  0  0  0  0  0  0
  149.2015  140.6343  154.7868 C   0  0  0  0  0  0  0  0  0  0  0  0
  150.0666  141.4296  155.5646 C   0  0  0  0  0  0  0  0  0  0  0  0
  151.3095  141.0432  155.9199 N   0  0  0  0  0  0  0  0  0  0  0  0
  151.7352  139.8332  155.5002 C   0  0  0  0  0  0  0  0  0  0  0  0
  150.9508  138.9605  154.7194 C   0  0  0  0  0  0  0  0  0  0  0  0
  143.6443  135.9278  152.5901 C   0  0  0  0  0  0  0  0  0  0  0  0
  143.2195  134.4533  152.4863 C   0  0  0  0  0  0  0  0  0  0  0  0
  143.4711  131.8603  151.5752 H   0  0  0  0  0  0  0  0  0  0  0  0
  143.0075  132.2327  149.9102 H   0  0  0  0  0  0  0  0  0  0  0  0
  141.8602  132.4969  151.2198 H   0  0  0  0  0  0  0  0  0  0  0  0
  145.4723  133.4559  151.2795 H   0  0  0  0  0  0  0  0  0  0  0  0
  144.9203  133.7190  149.6364 H   0  0  0  0  0  0  0  0  0  0  0  0
  146.3266  135.6109  150.4206 H   0  0  0  0  0  0  0  0  0  0  0  0
  144.7119  136.1414  150.0155 H   0  0  0  0  0  0  0  0  0  0  0  0
  145.7359  135.5490  152.8296 H   0  0  0  0  0  0  0  0  0  0  0  0
  145.3506  138.1078  151.2947 H   0  0  0  0  0  0  0  0  0  0  0  0
  144.9029  138.1270  152.9806 H   0  0  0  0  0  0  0  0  0  0  0  0
  147.5906  137.1753  152.1240 H   0  0  0  0  0  0  0  0  0  0  0  0
  149.1881  137.9275  152.9517 H   0  0  0  0  0  0  0  0  0  0  0  0
  148.2165  140.9962  154.5305 H   0  0  0  0  0  0  0  0  0  0  0  0
  149.7514  142.4035  155.9089 H   0  0  0  0  0  0  0  0  0  0  0  0
  152.7363  139.5523  155.7919 H   0  0  0  0  0  0  0  0  0  0  0  0
  151.3735  138.0166  154.4143 H   0  0  0  0  0  0  0  0  0  0  0  0
  143.5140  136.2728  153.6164 H   0  0  0  0  0  0  0  0  0  0  0  0
  142.9853  136.5408  151.9735 H   0  0  0  0  0  0  0  0  0  0  0  0
  142.1687  134.3578  152.7633 H   0  0  0  0  0  0  0  0  0  0  0  0
  143.7901  133.8468  153.1915 H   0  0  0  0  0  0  0  0  0  0  0  0
  142.8610  134.5195  150.5009 H   0  0  0  0  0  0  0  0  0  0  0  0
  1  2  1  0  0  0  0
  1 19  1  0  0  0  0
  1 20  1  0  0  0  0
  1 21  1  0  0  0  0
  2 18  1  0  0  0  0
  2  3  1  0  0  0  0
  2 39  1  0  0  0  0
  3  4  1  0  0  0  0
  3 22  1  0  0  0  0
  3 23  1  0  0  0  0
  4  5  1  0  0  0  0
  4 24  1  0  0  0  0
  4 25  1  0  0  0  0
  5  6  1  0  0  0  0
  5 17  1  0  0  0  0
  5 26  1  0  0  0  0
  6  7  1  0  0  0  0
  6 27  1  0  0  0  0
  6 28  1  0  0  0  0
  7  8  1  0  0  0  0
  7 29  1  0  0  0  0
  8  9  2  0  0  0  0
  8 10  1  0  0  0  0
 10 11  1  0  0  0  0
 10 30  1  0  0  0  0
 11 16  1  0  0  0  0
 11 12  2  0  0  0  0
 12 13  1  0  0  0  0
 12 31  1  0  0  0  0
 13 14  2  0  0  0  0
 13 32  1  0  0  0  0
 14 15  1  0  0  0  0
 15 16  2  0  0  0  0
 15 33  1  0  0  0  0
 16 34  1  0  0  0  0
 17 18  1  0  0  0  0
 17 35  1  0  0  0  0
 17 36  1  0  0  0  0
 18 37  1  0  0  0  0
 18 38  1  0  0  0  0
M  CHG  1   2   1
M  END
> <s_m_source_file>
AV-unprocessed.smi

> <i_m_source_file_index>
1621

> <i_lp_mmshare_version>
43012

> <i_f3d_flags>
0

> <s_epik_input>
W0NIM11OMVtDSDJdW0NIMl1bQ0hdKFtDSDJdW0NIMl0xKVtDSDJdW05IXUMoPU8pW05IXWMyW2NIXVtjSF1uW2NIXVtjSF0y

> <s_epik_cmdline>
J2VwaWtfcHl0aG9uJywgJy1waCcsICc3LjAnLCAnLXRuJywgJzgnLCAnLW1hJywgJzIwMCcsICctbWV0YWxfYmluZGluZycsICctaW1hZScsICc8aW5maWxlLm1hZT4nLCAnLW9tYWUnLCAnPG91dGZpbGUubWFlPic=

> <r_epik_Ionization_Penalty>
0.107254

> <r_epik_Ionization_Penalty_Charging>
0.00106265

> <r_epik_Ionization_Penalty_Neutral>
0.106191

> <r_epik_State_Penalty>
0.0960133

> <r_epik_Charging_Adjusted_Penalty>
0.0970759

> <i_epik_Tot_Q>
1

> <i_epik_Tot_abs_Q>
1

> <r_epik_Metal_State_Penalty>
0.0813061

> <b_epik_Metal_Only>
0

> <s_lp_Force_Field>
OPLS_2005

> <r_lp_Energy>
22.3351

> <b_lp_Chiralities_Consistent>
1

> <s_lp_Variant>
AV-unprocessed.smi:1621-1

> <Gold.Version>
5.8.1

> <Gold.Id.Protein>
6NUR|6NUR_protein|mol2

> <Gold.PLP.Fitness>
45.2766

> <Gold.PLP.PLP>
-33.6901

> <Gold.PLP.part.hbond>
-4.6690

> <Gold.PLP.part.metal>
0.0000

> <Gold.PLP.part.buried>
-0.3958

> <Gold.PLP.part.nonpolar>
-30.2286

> <Gold.PLP.part.repulsive>
0.2892

> <Gold.PLP.ligand.clash>
0.0000

> <Gold.PLP.ligand.torsion>
0.6279

> <Gold.PLP.Chemscore.Hbond>
3.2798

> <Gold.PLP.Chemscore.CHOScore>
1.0000

> <Gold.PLP.Chemscore.Metal>
0.0000

> <Gold.Chemscore.Hbonds>
donor molecule, donor type, donor heavy atom, donor atom, acceptor molecule, acceptor atom, score
      L1  H     2    39       P1 10186  1.37
      L1  H     7    29       P1  7948  1.00
      L1  H    10    30       P1  7948  0.94
      L1  C    13    32       P1  8028  1.00

> <Gold.PLP.Chemscore.Internal.Correction>
0.0031

> <Gold.Rescore>
     Score         DG    S(hbond)    S(metal)    S(lipo)     H(rot)  DE(clash)    DE(int)     intcor
     17.13     -19.02       2.35        0.00      76.03       1.25       0.03       1.87       ----

> <Gold.Chemscore.Fitness>
17.1266

> <Gold.Chemscore.DG>
-19.0236

> <Gold.Chemscore.ZeroCoef>
-5.4800

> <Gold.Chemscore.Hbond>
2.3484

> <Gold.Chemscore.Metal>
0.0000

> <Gold.Chemscore.Lipo>
76.0278

> <Gold.Chemscore.Internal_Hbond>
0.0000

> <Gold.Chemscore.DEClash>
0.0304

> <Gold.Chemscore.DEInternal>
1.8666

> <Gold.Chemscore.Rot>
1.2482

> <Gold.Chemscore.Internal.Correction>
   9.000000E+99

> <Gold.Chemscore.Hbonds>
donor molecule, donor type, donor heavy atom, donor atom, acceptor molecule, acceptor atom, score
      L1  H     2    39       P1 10186  0.32
      L1  H     7    29       P1  7948  1.00
      L1  H    10    30       P1  7948  0.86

> <Gold.Chemscore.Hbond.Weighted>
-7.8438

> <Gold.Chemscore.Metal.Weighted>
-0.0000

> <Gold.Chemscore.Lipo.Weighted>
-8.8952

> <Gold.Chemscore.Internal_Hbond.Weighted>
0.0000

> <Gold.Chemscore.DEClash.Weighted>
0.0304

> <Gold.Chemscore.DEInternal.Weighted>
1.8666

> <Gold.Chemscore.Rot.Weighted>
3.1954

> <Gold.Chemscore.Internal.Correction.Weighted>
   9.000000E+99

> <Gold.Protein.RotatedTorsions>
[ 6907 6896 6895 6894 ] final   89.37 input  -60.11 | X-H torsion
[ 7974 7965 7964 7962 ] final  145.07 input  175.53 | X-H torsion
[ 8008 7997 7996 7995 ] final  -13.72 input   59.86 | X-H torsion
[ 10167 10162 10161 10158 ] final    5.17 input  -65.29 | X-H torsion
[ 10718 10713 10712 10709 ] final   97.56 input   66.30 | X-H torsion
[ 10763 10752 10751 10750 ] final  154.94 input  -60.55 | X-H torsion
[ 11005 11000 10999 10996 ] final   97.11 input  -57.11 | X-H torsion

> <Gold.Protein.ActiveResidues>
 VAL166  LYS551  ARG553  GLY616  TRP617  ASP618  TYR619  PRO620  LYS621  CYS622 
 ASP623  PHE694  ASN695  SER759  ASP760  ASP761  ALA762  ILE779  LEU786  VAL792 
 PHE793  MET794  SER795  GLU796  ALA797  LYS798  CYS799  TRP800  GLU811  SER814 

> <Gold.Protein.RotatedAtoms>
  152.5435  134.1977  159.8699 H   0  0  0  0  0  0  0  0  0  0  0  0  # atno 6907 bound_to 6896
  151.1968  133.4628  159.2603 H   0  0  0  0  0  0  0  0  0  0  0  0  # atno 6908 bound_to 6896
  151.1029  134.9995  159.8513 H   0  0  0  0  0  0  0  0  0  0  0  0  # atno 6909 bound_to 6896
  144.8783  139.5739  143.5855 H   0  0  0  0  0  0  0  0  0  0  0  0  # atno 7974 bound_to 7965
  154.5269  140.2242  155.8874 H   0  0  0  0  0  0  0  0  0  0  0  0  # atno 8008 bound_to 7997
  156.1723  140.3119  155.8959 H   0  0  0  0  0  0  0  0  0  0  0  0  # atno 8009 bound_to 7997
  155.3533  140.0457  157.3037 H   0  0  0  0  0  0  0  0  0  0  0  0  # atno 8010 bound_to 7997
  140.6496  143.7577  150.7554 H   0  0  0  0  0  0  0  0  0  0  0  0  # atno 10167 bound_to 10162
  157.6910  131.0613  150.4662 H   0  0  0  0  0  0  0  0  0  0  0  0  # atno 10718 bound_to 10713
  154.1604  135.2810  155.3110 H   0  0  0  0  0  0  0  0  0  0  0  0  # atno 10763 bound_to 10752
  154.6151  135.5486  153.7518 H   0  0  0  0  0  0  0  0  0  0  0  0  # atno 10764 bound_to 10752
  153.0194  135.6425  154.1746 H   0  0  0  0  0  0  0  0  0  0  0  0  # atno 10765 bound_to 10752
  139.8777  134.8984  156.4258 H   0  0  0  0  0  0  0  0  0  0  0  0  # atno 11005 bound_to 11000
  146.2977  139.7329  142.9114 LP  0  0  0  0  0  0  0  0  0  0  0  0  # atno 17320 bound_to 7965
  145.4002  141.0384  143.3075 LP  0  0  0  0  0  0  0  0  0  0  0  0  # atno 17321 bound_to 7965
  140.1225  143.4599  152.2304 LP  0  0  0  0  0  0  0  0  0  0  0  0  # atno 17342 bound_to 10162
  139.5710  144.7462  151.3891 LP  0  0  0  0  0  0  0  0  0  0  0  0  # atno 17343 bound_to 10162
  156.5003  130.4115  149.6357 LP  0  0  0  0  0  0  0  0  0  0  0  0  # atno 17370 bound_to 10713
  156.3334  130.7344  151.2277 LP  0  0  0  0  0  0  0  0  0  0  0  0  # atno 17371 bound_to 10713
  140.9101  133.7717  155.9782 LP  0  0  0  0  0  0  0  0  0  0  0  0  # atno 17394 bound_to 11000
  140.8555  134.2903  157.5257 LP  0  0  0  0  0  0  0  0  0  0  0  0  # atno 17395 bound_to 11000

$$$$
