AV-unprocessed.smi:1672|AV-procd|sdf|6705|dock10
  -GOLD-   22720 7443D 1   1.00000     0.00000
 Structure written by MMmdl.
 49 51  0  0  0  0  0  0  0  0  3 V2000
  151.7745  139.5037  154.8084 C   0  0  0  0  0  0  0  0  0  0  0  0
  150.7448  138.4800  155.3062 C   0  0  2  0  0  0  0  0  0  0  0  0
  151.2387  137.0363  155.1134 C   0  0  0  0  0  0  0  0  0  0  0  0
  150.1869  136.0188  155.5852 C   0  0  0  0  0  0  0  0  0  0  0  0
  148.8929  136.2198  154.8801 N   0  3  1  0  0  0  0  0  0  0  0  0
  147.8821  135.1818  155.2066 C   0  0  0  0  0  0  0  0  0  0  0  0
  146.6657  135.2128  154.2541 C   0  0  2  0  0  0  0  0  0  0  0  0
  145.5721  134.5741  154.8808 O   0  0  0  0  0  0  0  0  0  0  0  0
  146.9148  134.4854  152.9172 C   0  0  0  0  0  0  0  0  0  0  0  0
  145.9722  134.8833  151.8595 N   0  0  0  0  0  0  0  0  0  0  0  0
  145.5638  136.1185  151.4419 C   0  0  0  0  0  0  0  0  0  0  0  0
  145.9833  137.4476  151.9844 C   0  0  0  0  0  0  0  0  0  0  0  0
  146.5699  138.2722  151.0013 O   0  0  0  0  0  0  0  0  0  0  0  0
  144.6805  135.9251  150.4213 N   0  3  0  0  0  0  0  0  0  0  0  0
  144.5229  134.5604  150.1810 C   0  0  0  0  0  0  0  0  0  0  0  0
  143.7385  133.8826  149.2529 C   0  0  0  0  0  0  0  0  0  0  0  0
  143.8117  132.4743  149.2711 C   0  0  0  0  0  0  0  0  0  0  0  0
  144.6404  131.7940  150.1868 C   0  0  0  0  0  0  0  0  0  0  0  0
  145.4303  132.4924  151.1238 C   0  0  0  0  0  0  0  0  0  0  0  0
  145.3517  133.8847  151.0992 C   0  0  0  0  0  0  0  0  0  0  0  0
  148.3735  137.5967  155.0825 C   0  0  0  0  0  0  0  0  0  0  0  0
  149.3879  138.6487  154.6027 C   0  0  0  0  0  0  0  0  0  0  0  0
  151.9680  139.3867  153.7416 H   0  0  0  0  0  0  0  0  0  0  0  0
  152.7240  139.3917  155.3328 H   0  0  0  0  0  0  0  0  0  0  0  0
  151.4257  140.5235  154.9738 H   0  0  0  0  0  0  0  0  0  0  0  0
  150.5978  138.6497  156.3739 H   0  0  0  0  0  0  0  0  0  0  0  0
  151.4696  136.8600  154.0617 H   0  0  0  0  0  0  0  0  0  0  0  0
  152.1683  136.8836  155.6629 H   0  0  0  0  0  0  0  0  0  0  0  0
  150.5657  135.0127  155.4093 H   0  0  0  0  0  0  0  0  0  0  0  0
  150.0348  136.1120  156.6617 H   0  0  0  0  0  0  0  0  0  0  0  0
  148.3725  134.2080  155.1890 H   0  0  0  0  0  0  0  0  0  0  0  0
  147.5217  135.3170  156.2276 H   0  0  0  0  0  0  0  0  0  0  0  0
  146.3725  136.2393  154.0392 H   0  0  0  0  0  0  0  0  0  0  0  0
  144.8556  134.5147  154.2680 H   0  0  0  0  0  0  0  0  0  0  0  0
  147.9260  134.6784  152.5583 H   0  0  0  0  0  0  0  0  0  0  0  0
  146.8453  133.4041  153.0451 H   0  0  0  0  0  0  0  0  0  0  0  0
  145.1263  137.9733  152.4036 H   0  0  0  0  0  0  0  0  0  0  0  0
  146.6968  137.2929  152.7939 H   0  0  0  0  0  0  0  0  0  0  0  0
  145.8800  138.7058  150.5217 H   0  0  0  0  0  0  0  0  0  0  0  0
  143.1042  134.4013  148.5489 H   0  0  0  0  0  0  0  0  0  0  0  0
  143.2219  131.9044  148.5675 H   0  0  0  0  0  0  0  0  0  0  0  0
  144.6719  130.7140  150.1689 H   0  0  0  0  0  0  0  0  0  0  0  0
  146.0634  131.9606  151.8187 H   0  0  0  0  0  0  0  0  0  0  0  0
  147.4418  137.7242  154.5300 H   0  0  0  0  0  0  0  0  0  0  0  0
  148.1408  137.7492  156.1378 H   0  0  0  0  0  0  0  0  0  0  0  0
  148.9933  139.6486  154.7871 H   0  0  0  0  0  0  0  0  0  0  0  0
  149.5170  138.5630  153.5228 H   0  0  0  0  0  0  0  0  0  0  0  0
  149.0774  136.1372  153.8906 H   0  0  0  0  0  0  0  0  0  0  0  0
  144.2193  136.6790  149.9279 H   0  0  0  0  0  0  0  0  0  0  0  0
  1  2  1  0  0  0  0
  1 23  1  0  0  0  0
  1 24  1  0  0  0  0
  1 25  1  0  0  0  0
  2 22  1  0  0  0  0
  2  3  1  0  0  0  0
  2 26  1  0  0  0  0
  3  4  1  0  0  0  0
  3 27  1  0  0  0  0
  3 28  1  0  0  0  0
  4  5  1  0  0  0  0
  4 29  1  0  0  0  0
  4 30  1  0  0  0  0
  5  6  1  0  0  0  0
  5 21  1  0  0  0  0
  5 48  1  0  0  0  0
  6  7  1  0  0  0  0
  6 31  1  0  0  0  0
  6 32  1  0  0  0  0
  7  8  1  0  0  0  0
  7  9  1  0  0  0  0
  7 33  1  0  0  0  0
  8 34  1  0  0  0  0
  9 10  1  0  0  0  0
  9 35  1  0  0  0  0
  9 36  1  0  0  0  0
 10 20  1  0  0  0  0
 10 11  1  0  0  0  0
 11 12  1  0  0  0  0
 11 14  2  0  0  0  0
 12 13  1  0  0  0  0
 12 37  1  0  0  0  0
 12 38  1  0  0  0  0
 13 39  1  0  0  0  0
 14 15  1  0  0  0  0
 14 49  1  0  0  0  0
 15 20  2  0  0  0  0
 15 16  1  0  0  0  0
 16 17  2  0  0  0  0
 16 40  1  0  0  0  0
 17 18  1  0  0  0  0
 17 41  1  0  0  0  0
 18 19  2  0  0  0  0
 18 42  1  0  0  0  0
 19 20  1  0  0  0  0
 19 43  1  0  0  0  0
 21 22  1  0  0  0  0
 21 44  1  0  0  0  0
 21 45  1  0  0  0  0
 22 46  1  0  0  0  0
 22 47  1  0  0  0  0
M  CHG  1   5   1
M  CHG  1  14   1
M  END
> <s_m_source_file>
AV-unprocessed.smi

> <i_m_source_file_index>
1672

> <i_lp_mmshare_version>
43012

> <i_f3d_flags>
0

> <s_epik_input>
W0NIM11bQ0hdMVtDSDJdW0NIMl1OKFtDSDJdW0NIMl0xKVtDSDJdW0NASF0oW09IXSlbQ0gyXW4oYyhuMilbQ0gyXVtPSF0pYyhjMjMpW2NIXVtjSF1bY0hdW2NIXTM=

> <s_epik_cmdline>
J2VwaWtfcHl0aG9uJywgJy1waCcsICc3LjAnLCAnLXRuJywgJzgnLCAnLW1hJywgJzIwMCcsICctbWV0YWxfYmluZGluZycsICctaW1hZScsICc8aW5maWxlLm1hZT4nLCAnLW9tYWUnLCAnPG91dGZpbGUubWFlPic=

> <r_epik_Ionization_Penalty>
1.51642

> <r_epik_Ionization_Penalty_Charging>
1.51557

> <r_epik_Ionization_Penalty_Neutral>
0.000856474

> <r_epik_State_Penalty>
1.6048

> <r_epik_Charging_Adjusted_Penalty>
3.12037

> <i_epik_Tot_Q>
2

> <i_epik_Tot_abs_Q>
2

> <r_epik_Metal_State_Penalty>
5.65673

> <b_epik_Metal_Only>
0

> <s_lp_Force_Field>
OPLS_2005

> <r_lp_Energy>
31.4563

> <b_lp_Chiralities_Consistent>
1

> <s_lp_Variant>
AV-unprocessed.smi:1672-5

> <Gold.Version>
5.8.1

> <Gold.Id.Protein>
6NUR|6NUR_protein|mol2

> <Gold.PLP.Fitness>
47.4263

> <Gold.PLP.PLP>
-33.7315

> <Gold.PLP.part.hbond>
-4.2547

> <Gold.PLP.part.metal>
0.0000

> <Gold.PLP.part.buried>
5.3440

> <Gold.PLP.part.nonpolar>
-34.7819

> <Gold.PLP.part.repulsive>
0.0600

> <Gold.PLP.ligand.clash>
0.0000

> <Gold.PLP.ligand.torsion>
0.5682

> <Gold.PLP.Chemscore.Hbond>
4.9360

> <Gold.PLP.Chemscore.CHOScore>
0.0000

> <Gold.PLP.Chemscore.Metal>
0.0000

> <Gold.Chemscore.Hbonds>
donor molecule, donor type, donor heavy atom, donor atom, acceptor molecule, acceptor atom, score
      L1  H     5    48       P1  7948  2.00
      L1  H    13    39       P1 10171  0.75
      L1  H    14    49       P1 10171  0.98
      P1  H  7954  7966       L1    13  1.00

> <Gold.PLP.Chemscore.Internal.Correction>
0.0232

> <Gold.Rescore>
     Score         DG    S(hbond)    S(metal)    S(lipo)     H(rot)  DE(clash)    DE(int)     intcor
     17.88     -22.21       3.69        0.00     102.41       2.96       3.74       0.60       ----

> <Gold.Chemscore.Fitness>
17.8767

> <Gold.Chemscore.DG>
-22.2100

> <Gold.Chemscore.ZeroCoef>
-5.4800

> <Gold.Chemscore.Hbond>
3.6867

> <Gold.Chemscore.Metal>
0.0000

> <Gold.Chemscore.Lipo>
102.4128

> <Gold.Chemscore.Internal_Hbond>
0.0000

> <Gold.Chemscore.DEClash>
3.7368

> <Gold.Chemscore.DEInternal>
0.5966

> <Gold.Chemscore.Rot>
2.9555

> <Gold.Chemscore.Internal.Correction>
   9.000000E+99

> <Gold.Chemscore.Hbonds>
donor molecule, donor type, donor heavy atom, donor atom, acceptor molecule, acceptor atom, score
      L1  H     5    48       P1  7948  0.90
      L1  H    13    39       P1 10171  0.71
      L1  H    14    49       P1 10171  0.93
      P1  H  7954  7966       L1    13  0.81

> <Gold.Chemscore.Hbond.Weighted>
-12.3137

> <Gold.Chemscore.Metal.Weighted>
-0.0000

> <Gold.Chemscore.Lipo.Weighted>
-11.9823

> <Gold.Chemscore.Internal_Hbond.Weighted>
0.0000

> <Gold.Chemscore.DEClash.Weighted>
3.7368

> <Gold.Chemscore.DEInternal.Weighted>
0.5966

> <Gold.Chemscore.Rot.Weighted>
7.5660

> <Gold.Chemscore.Internal.Correction.Weighted>
   9.000000E+99

> <Gold.Protein.RotatedTorsions>
[ 6907 6896 6895 6894 ] final  148.88 input  -60.11 | X-H torsion
[ 7974 7965 7964 7962 ] final -109.61 input  175.53 | X-H torsion
[ 8008 7997 7996 7995 ] final   20.89 input   59.86 | X-H torsion
[ 10167 10162 10161 10158 ] final  169.51 input  -65.29 | X-H torsion
[ 10718 10713 10712 10709 ] final -158.76 input   66.30 | X-H torsion
[ 10763 10752 10751 10750 ] final  100.07 input  -60.55 | X-H torsion
[ 11005 11000 10999 10996 ] final  -62.84 input  -57.11 | X-H torsion

> <Gold.Protein.ActiveResidues>
 VAL166  LYS551  ARG553  GLY616  TRP617  ASP618  TYR619  PRO620  LYS621  CYS622 
 ASP623  PHE694  ASN695  SER759  ASP760  ASP761  ALA762  ILE779  LEU786  VAL792 
 PHE793  MET794  SER795  GLU796  ALA797  LYS798  CYS799  TRP800  GLU811  SER814 

> <Gold.Protein.RotatedAtoms>
  152.1355  133.4433  159.4741 H   0  0  0  0  0  0  0  0  0  0  0  0  # atno 6907 bound_to 6896
  150.6881  134.2368  159.4466 H   0  0  0  0  0  0  0  0  0  0  0  0  # atno 6908 bound_to 6896
  152.0255  134.9797  160.0622 H   0  0  0  0  0  0  0  0  0  0  0  0  # atno 6909 bound_to 6896
  145.1784  140.8959  143.3494 H   0  0  0  0  0  0  0  0  0  0  0  0  # atno 7974 bound_to 7965
  154.9424  140.3055  155.5114 H   0  0  0  0  0  0  0  0  0  0  0  0  # atno 8008 bound_to 7997
  156.2995  140.2334  156.4431 H   0  0  0  0  0  0  0  0  0  0  0  0  # atno 8009 bound_to 7997
  154.8133  140.0427  157.1347 H   0  0  0  0  0  0  0  0  0  0  0  0  # atno 8010 bound_to 7997
  139.4994  144.3698  151.9737 H   0  0  0  0  0  0  0  0  0  0  0  0  # atno 10167 bound_to 10162
  156.5586  130.8637  151.2802 H   0  0  0  0  0  0  0  0  0  0  0  0  # atno 10718 bound_to 10713
  153.3093  135.4091  155.1322 H   0  0  0  0  0  0  0  0  0  0  0  0  # atno 10763 bound_to 10752
  154.8571  135.3560  154.5745 H   0  0  0  0  0  0  0  0  0  0  0  0  # atno 10764 bound_to 10752
  153.6173  135.7065  153.5382 H   0  0  0  0  0  0  0  0  0  0  0  0  # atno 10765 bound_to 10752
  141.1373  133.6644  156.5589 H   0  0  0  0  0  0  0  0  0  0  0  0  # atno 11005 bound_to 11000
  145.0161  139.3466  143.6096 LP  0  0  0  0  0  0  0  0  0  0  0  0  # atno 17320 bound_to 7965
  146.3457  139.9442  142.8737 LP  0  0  0  0  0  0  0  0  0  0  0  0  # atno 17321 bound_to 7965
  140.3134  144.3511  150.6028 LP  0  0  0  0  0  0  0  0  0  0  0  0  # atno 17342 bound_to 10162
  140.5780  143.2175  151.7479 LP  0  0  0  0  0  0  0  0  0  0  0  0  # atno 17343 bound_to 10162
  157.7373  130.9793  150.2185 LP  0  0  0  0  0  0  0  0  0  0  0  0  # atno 17370 bound_to 10713
  156.2819  130.3734  149.7927 LP  0  0  0  0  0  0  0  0  0  0  0  0  # atno 17371 bound_to 10713
  140.4004  134.7361  157.4776 LP  0  0  0  0  0  0  0  0  0  0  0  0  # atno 17394 bound_to 11000
  140.0500  134.6144  155.8873 LP  0  0  0  0  0  0  0  0  0  0  0  0  # atno 17395 bound_to 11000

$$$$
