AV-unprocessed.smi:1005|AV-procd|sdf|4383|dock3
  -GOLD-   22720 2303D 1   1.00000     0.00000
 Structure written by MMmdl.
 58 60  0  0  0  0  0  0  0  0  4 V2000
  152.3867  143.6132  161.1514 C   0  0  0  0  0  0  0  0  0  0  0  0
  152.1410  142.7929  159.8964 C   0  0  0  0  0  0  0  0  0  0  0  0
  151.2801  143.3166  158.9059 C   0  0  0  0  0  0  0  0  0  0  0  0
  151.0765  142.5437  157.7690 C   0  0  0  0  0  0  0  0  0  0  0  0
  150.3011  142.7788  156.6322 N   0  3  0  0  0  0  0  0  0  0  0  0
  150.4187  141.7267  155.7760 C   0  0  0  0  0  0  0  0  0  0  0  0
  151.2591  140.8216  156.3481 N   0  0  0  0  0  0  0  0  0  0  0  0
  151.7208  139.5203  155.8416 C   0  0  0  0  0  0  0  0  0  0  0  0
  150.6313  138.7619  155.0564 C   0  0  1  0  0  0  0  0  0  0  0  0
  150.4638  139.3541  153.7826 O   0  0  0  0  0  0  0  0  0  0  0  0
  150.9865  137.2729  154.8670 C   0  0  0  0  0  0  0  0  0  0  0  0
  149.7792  136.4214  154.6863 N   0  3  1  0  0  0  0  0  0  0  0  0
  150.0566  134.9660  154.7511 C   0  0  0  0  0  0  0  0  0  0  0  0
  150.2004  134.4923  156.2071 C   0  0  0  0  0  0  0  0  0  0  0  0
  149.0169  134.8203  156.9246 O   0  0  0  0  0  0  0  0  0  0  0  0
  148.7884  136.2245  156.9909 C   0  0  2  0  0  0  0  0  0  0  0  0
  147.5167  136.4601  157.8289 C   0  0  0  0  0  0  0  0  0  0  0  0
  147.6636  136.0371  159.2461 N   0  3  0  0  0  0  0  0  0  0  0  0
  146.4116  136.2252  160.0125 C   0  0  0  0  0  0  0  0  0  0  0  0
  148.8180  136.6595  159.9349 C   0  0  0  0  0  0  0  0  0  0  0  0
  148.6256  136.7741  155.5544 C   0  0  0  0  0  0  0  0  0  0  0  0
  151.6926  141.2885  157.5961 C   0  0  0  0  0  0  0  0  0  0  0  0
  152.5420  140.7574  158.5646 C   0  0  0  0  0  0  0  0  0  0  0  0
  152.7643  141.5297  159.7273 C   0  0  0  0  0  0  0  0  0  0  0  0
  153.6898  140.9772  160.7979 C   0  0  0  0  0  0  0  0  0  0  0  0
  151.8432  144.5582  161.1236 H   0  0  0  0  0  0  0  0  0  0  0  0
  153.4471  143.8428  161.2588 H   0  0  0  0  0  0  0  0  0  0  0  0
  152.0590  143.0665  162.0360 H   0  0  0  0  0  0  0  0  0  0  0  0
  150.8021  144.2778  159.0273 H   0  0  0  0  0  0  0  0  0  0  0  0
  149.9328  141.6304  154.8158 H   0  0  0  0  0  0  0  0  0  0  0  0
  152.6195  139.6646  155.2416 H   0  0  0  0  0  0  0  0  0  0  0  0
  152.0263  138.9333  156.7086 H   0  0  0  0  0  0  0  0  0  0  0  0
  149.6900  138.8586  155.5966 H   0  0  0  0  0  0  0  0  0  0  0  0
  149.6991  138.9811  153.3708 H   0  0  0  0  0  0  0  0  0  0  0  0
  151.6324  137.1851  153.9918 H   0  0  0  0  0  0  0  0  0  0  0  0
  151.5755  136.9124  155.7104 H   0  0  0  0  0  0  0  0  0  0  0  0
  149.2251  134.4378  154.2825 H   0  0  0  0  0  0  0  0  0  0  0  0
  150.9435  134.7129  154.1690 H   0  0  0  0  0  0  0  0  0  0  0  0
  150.3407  133.4116  156.2361 H   0  0  0  0  0  0  0  0  0  0  0  0
  151.0732  134.9385  156.6863 H   0  0  0  0  0  0  0  0  0  0  0  0
  149.6389  136.7097  157.4688 H   0  0  0  0  0  0  0  0  0  0  0  0
  147.2238  137.5105  157.7939 H   0  0  0  0  0  0  0  0  0  0  0  0
  146.6995  135.8994  157.3723 H   0  0  0  0  0  0  0  0  0  0  0  0
  146.1454  137.2812  160.0732 H   0  0  0  0  0  0  0  0  0  0  0  0
  146.5176  135.8407  161.0274 H   0  0  0  0  0  0  0  0  0  0  0  0
  145.5850  135.6896  159.5448 H   0  0  0  0  0  0  0  0  0  0  0  0
  148.7266  137.7462  159.9501 H   0  0  0  0  0  0  0  0  0  0  0  0
  149.7602  136.4009  159.4539 H   0  0  0  0  0  0  0  0  0  0  0  0
  148.8804  136.3118  160.9667 H   0  0  0  0  0  0  0  0  0  0  0  0
  148.4647  137.8514  155.5724 H   0  0  0  0  0  0  0  0  0  0  0  0
  147.7304  136.3435  155.1032 H   0  0  0  0  0  0  0  0  0  0  0  0
  153.0196  139.7976  158.4395 H   0  0  0  0  0  0  0  0  0  0  0  0
  154.0908  140.0033  160.5158 H   0  0  0  0  0  0  0  0  0  0  0  0
  153.1558  140.8569  161.7407 H   0  0  0  0  0  0  0  0  0  0  0  0
  154.5328  141.6491  160.9601 H   0  0  0  0  0  0  0  0  0  0  0  0
  147.8316  135.0409  159.2337 H   0  0  0  0  0  0  0  0  0  0  0  0
  149.4862  136.5985  153.7353 H   0  0  0  0  0  0  0  0  0  0  0  0
  149.7327  143.5969  156.4520 H   0  0  0  0  0  0  0  0  0  0  0  0
  1  2  1  0  0  0  0
  1 26  1  0  0  0  0
  1 27  1  0  0  0  0
  1 28  1  0  0  0  0
  2 24  1  0  0  0  0
  2  3  2  0  0  0  0
  3  4  1  0  0  0  0
  3 29  1  0  0  0  0
  4 22  2  0  0  0  0
  4  5  1  0  0  0  0
  5  6  2  0  0  0  0
  5 58  1  0  0  0  0
  6  7  1  0  0  0  0
  6 30  1  0  0  0  0
  7  8  1  0  0  0  0
  7 22  1  0  0  0  0
  8  9  1  0  0  0  0
  8 31  1  0  0  0  0
  8 32  1  0  0  0  0
  9 10  1  0  0  0  0
  9 11  1  0  0  0  0
  9 33  1  0  0  0  0
 10 34  1  0  0  0  0
 11 12  1  0  0  0  0
 11 35  1  0  0  0  0
 11 36  1  0  0  0  0
 12 21  1  0  0  0  0
 12 13  1  0  0  0  0
 12 57  1  0  0  0  0
 13 14  1  0  0  0  0
 13 37  1  0  0  0  0
 13 38  1  0  0  0  0
 14 15  1  0  0  0  0
 14 39  1  0  0  0  0
 14 40  1  0  0  0  0
 15 16  1  0  0  0  0
 16 17  1  0  0  0  0
 16 21  1  0  0  0  0
 16 41  1  0  0  0  0
 17 18  1  0  0  0  0
 17 42  1  0  0  0  0
 17 43  1  0  0  0  0
 18 19  1  0  0  0  0
 18 20  1  0  0  0  0
 18 56  1  0  0  0  0
 19 44  1  0  0  0  0
 19 45  1  0  0  0  0
 19 46  1  0  0  0  0
 20 47  1  0  0  0  0
 20 48  1  0  0  0  0
 20 49  1  0  0  0  0
 21 50  1  0  0  0  0
 21 51  1  0  0  0  0
 22 23  1  0  0  0  0
 23 24  2  0  0  0  0
 23 52  1  0  0  0  0
 24 25  1  0  0  0  0
 25 53  1  0  0  0  0
 25 54  1  0  0  0  0
 25 55  1  0  0  0  0
M  CHG  1   5   1
M  CHG  1  12   1
M  CHG  1  18   1
M  END
> <s_m_source_file>
AV-unprocessed.smi

> <i_m_source_file_index>
1005

> <i_lp_mmshare_version>
43012

> <i_f3d_flags>
0

> <s_epik_input>
W0NIM11jKFtjSF0xKWMoW0NIM10pW2NIXWMoYzEyKW4oW2NIXW4yKVtDSDJdW0NASF0oW09IXSlbQ0gyXU4zW0NIMl1bQ0gyXU9bQ0BIXShbQ0gyXTMpW0NIMl1OKFtDSDNdKVtDSDNd

> <s_epik_cmdline>
J2VwaWtfcHl0aG9uJywgJy1waCcsICc3LjAnLCAnLXRuJywgJzgnLCAnLW1hJywgJzIwMCcsICctbWV0YWxfYmluZGluZycsICctaW1hZScsICc8aW5maWxlLm1hZT4nLCAnLW9tYWUnLCAnPG91dGZpbGUubWFlPic=

> <r_epik_Ionization_Penalty>
2.30802

> <r_epik_Ionization_Penalty_Charging>
2.30798

> <r_epik_Ionization_Penalty_Neutral>
3.4851e-05

> <r_epik_State_Penalty>
2.52618

> <r_epik_Charging_Adjusted_Penalty>
4.83416

> <i_epik_Tot_Q>
3

> <i_epik_Tot_abs_Q>
3

> <r_epik_Metal_State_Penalty>
6.53149

> <b_epik_Metal_Only>
0

> <s_lp_Force_Field>
OPLS_2005

> <r_lp_Energy>
46.6994

> <b_lp_Chiralities_Consistent>
1

> <s_lp_Variant>
AV-unprocessed.smi:1005-22

> <Gold.Version>
5.8.1

> <Gold.Id.Protein>
6NUR|6NUR_protein|mol2

> <Gold.PLP.Fitness>
59.0290

> <Gold.PLP.PLP>
-45.5696

> <Gold.PLP.part.hbond>
-4.0000

> <Gold.PLP.part.metal>
0.0000

> <Gold.PLP.part.buried>
-5.6121

> <Gold.PLP.part.nonpolar>
-36.4976

> <Gold.PLP.part.repulsive>
0.1885

> <Gold.PLP.ligand.clash>
0.0000

> <Gold.PLP.ligand.torsion>
0.8598

> <Gold.PLP.Chemscore.Hbond>
5.0000

> <Gold.PLP.Chemscore.CHOScore>
0.0000

> <Gold.PLP.Chemscore.Metal>
0.0000

> <Gold.Chemscore.Hbonds>
donor molecule, donor type, donor heavy atom, donor atom, acceptor molecule, acceptor atom, score
      L1  H     5    58       P1  8028  2.00
      L1  H    12    57       P1  7948  2.00
      P1  H  7989  7998       L1    10  0.99

> <Gold.PLP.Chemscore.Internal.Correction>
0.1790

> <Gold.Rescore>
     Score         DG    S(hbond)    S(metal)    S(lipo)     H(rot)  DE(clash)    DE(int)     intcor
     20.45     -21.73       2.71        0.00     117.59       2.56       0.43       0.85       ----

> <Gold.Chemscore.Fitness>
20.4505

> <Gold.Chemscore.DG>
-21.7309

> <Gold.Chemscore.ZeroCoef>
-5.4800

> <Gold.Chemscore.Hbond>
2.7059

> <Gold.Chemscore.Metal>
0.0000

> <Gold.Chemscore.Lipo>
117.5923

> <Gold.Chemscore.Internal_Hbond>
0.0000

> <Gold.Chemscore.DEClash>
0.4318

> <Gold.Chemscore.DEInternal>
0.8486

> <Gold.Chemscore.Rot>
2.5566

> <Gold.Chemscore.Internal.Correction>
   9.000000E+99

> <Gold.Chemscore.Hbonds>
donor molecule, donor type, donor heavy atom, donor atom, acceptor molecule, acceptor atom, score
      L1  H     5    58       P1  8028  0.99
      L1  H    10    34       P1  7957  0.01
      L1  H    12    57       P1  7948  0.81
      P1  H  7989  7998       L1    10  0.83

> <Gold.Chemscore.Hbond.Weighted>
-9.0376

> <Gold.Chemscore.Metal.Weighted>
-0.0000

> <Gold.Chemscore.Lipo.Weighted>
-13.7583

> <Gold.Chemscore.Internal_Hbond.Weighted>
0.0000

> <Gold.Chemscore.DEClash.Weighted>
0.4318

> <Gold.Chemscore.DEInternal.Weighted>
0.8486

> <Gold.Chemscore.Rot.Weighted>
6.5450

> <Gold.Chemscore.Internal.Correction.Weighted>
   9.000000E+99

> <Gold.Protein.RotatedTorsions>
[ 6907 6896 6895 6894 ] final  -19.71 input  -60.11 | X-H torsion
[ 7974 7965 7964 7962 ] final  168.97 input  175.53 | X-H torsion
[ 8008 7997 7996 7995 ] final  166.12 input   59.86 | X-H torsion
[ 10167 10162 10161 10158 ] final -116.67 input  -65.29 | X-H torsion
[ 10718 10713 10712 10709 ] final -116.84 input   66.30 | X-H torsion
[ 10763 10752 10751 10750 ] final  -52.44 input  -60.55 | X-H torsion
[ 11005 11000 10999 10996 ] final    2.73 input  -57.11 | X-H torsion

> <Gold.Protein.ActiveResidues>
 VAL166  LYS551  ARG553  GLY616  TRP617  ASP618  TYR619  PRO620  LYS621  CYS622 
 ASP623  PHE694  ASN695  SER759  ASP760  ASP761  ALA762  ILE779  LEU786  VAL792 
 PHE793  MET794  SER795  GLU796  ALA797  LYS798  CYS799  TRP800  GLU811  SER814 

> <Gold.Protein.RotatedAtoms>
  151.2590  135.0647  159.9090 H   0  0  0  0  0  0  0  0  0  0  0  0  # atno 6907 bound_to 6896
  152.5369  134.0251  159.8010 H   0  0  0  0  0  0  0  0  0  0  0  0  # atno 6908 bound_to 6896
  151.0471  133.5606  159.2677 H   0  0  0  0  0  0  0  0  0  0  0  0  # atno 6909 bound_to 6896
  144.7370  139.8985  143.6408 H   0  0  0  0  0  0  0  0  0  0  0  0  # atno 7974 bound_to 7965
  156.1745  140.1652  156.8388 H   0  0  0  0  0  0  0  0  0  0  0  0  # atno 8008 bound_to 7997
  154.5292  140.0760  156.8348 H   0  0  0  0  0  0  0  0  0  0  0  0  # atno 8009 bound_to 7997
  155.3443  140.3386  155.4241 H   0  0  0  0  0  0  0  0  0  0  0  0  # atno 8010 bound_to 7997
  140.0767  143.4826  152.1949 H   0  0  0  0  0  0  0  0  0  0  0  0  # atno 10167 bound_to 10162
  156.0992  130.6158  150.9088 H   0  0  0  0  0  0  0  0  0  0  0  0  # atno 10718 bound_to 10713
  154.1428  135.6502  153.4946 H   0  0  0  0  0  0  0  0  0  0  0  0  # atno 10763 bound_to 10752
  153.0161  135.5319  154.6887 H   0  0  0  0  0  0  0  0  0  0  0  0  # atno 10764 bound_to 10752
  154.6154  135.2958  155.0357 H   0  0  0  0  0  0  0  0  0  0  0  0  # atno 10765 bound_to 10752
  140.6011  133.9835  155.8132 H   0  0  0  0  0  0  0  0  0  0  0  0  # atno 11005 bound_to 11000
  146.1089  139.4092  143.0300 LP  0  0  0  0  0  0  0  0  0  0  0  0  # atno 17320 bound_to 7965
  145.7471  140.9986  143.1270 LP  0  0  0  0  0  0  0  0  0  0  0  0  # atno 17321 bound_to 7965
  139.5804  144.7507  151.3655 LP  0  0  0  0  0  0  0  0  0  0  0  0  # atno 17342 bound_to 10162
  140.7099  143.7419  150.7547 LP  0  0  0  0  0  0  0  0  0  0  0  0  # atno 17343 bound_to 10162
  157.6159  131.0933  150.8711 LP  0  0  0  0  0  0  0  0  0  0  0  0  # atno 17370 bound_to 10713
  156.8843  130.5190  149.5289 LP  0  0  0  0  0  0  0  0  0  0  0  0  # atno 17371 bound_to 10713
  141.0872  133.9973  157.3295 LP  0  0  0  0  0  0  0  0  0  0  0  0  # atno 17394 bound_to 11000
  139.9232  135.0201  156.8140 LP  0  0  0  0  0  0  0  0  0  0  0  0  # atno 17395 bound_to 11000

$$$$
