AV-unprocessed.smi:97|AV-procd|sdf|862|dock6
  -GOLD-   2262017313D 1   1.00000     0.00000
 Structure written by MMmdl.
 46 49  0  0  0  0  0  0  0  0  1 V2000
  152.4272  137.4266  158.0586 O   0  0  0  0  0  0  0  0  0  0  0  0
  152.2418  137.3854  156.8431 C   0  0  0  0  0  0  0  0  0  0  0  0
  152.6304  138.6018  155.9835 C   0  0  0  0  0  0  0  0  0  0  0  0
  151.8937  139.8460  156.3075 N   0  0  0  0  0  0  0  0  0  0  0  0
  150.9352  140.3379  155.3867 C   0  0  0  0  0  0  0  0  0  0  0  0
  150.7062  139.7510  154.3285 O   0  0  0  0  0  0  0  0  0  0  0  0
  150.2477  141.5609  155.7862 C   0  0  0  0  0  0  0  0  0  0  0  0
  149.3390  142.1126  154.9643 F   0  0  0  0  0  0  0  0  0  0  0  0
  150.5082  142.1483  156.9722 C   0  0  0  0  0  0  0  0  0  0  0  0
  151.4255  141.6408  157.8731 N   0  0  0  0  0  0  0  0  0  0  0  0
  151.6798  142.3233  159.1977 C   0  0  1  0  0  0  0  0  0  0  0  0
  152.9824  143.1298  159.1386 C   0  0  0  0  0  0  0  0  0  0  0  0
  152.4761  144.5286  158.8592 C   0  0  0  0  0  0  0  0  0  0  0  0
  151.1535  144.5324  159.6157 C   0  0  0  0  0  0  0  0  0  0  0  0
  150.6344  143.2163  159.4544 O   0  0  0  0  0  0  0  0  0  0  0  0
  152.1560  140.4783  157.5471 C   0  0  0  0  0  0  0  0  0  0  0  0
  152.9962  140.0222  158.3255 O   0  0  0  0  0  0  0  0  0  0  0  0
  151.6818  136.3310  156.2267 N   0  0  0  0  0  0  0  0  0  0  0  0
  151.1236  135.1618  156.8943 C   0  0  0  0  0  0  0  0  0  0  0  0
  150.4335  134.1978  155.9396 C   0  0  0  0  0  0  0  0  0  0  0  0
  149.5233  134.6742  154.9555 C   0  0  0  0  0  0  0  0  0  0  0  0
  148.8837  133.7820  154.0661 C   0  0  0  0  0  0  0  0  0  0  0  0
  149.1824  132.4154  154.1835 C   0  0  0  0  0  0  0  0  0  0  0  0
  150.0689  131.9475  155.1312 C   0  0  0  0  0  0  0  0  0  0  0  0
  150.7169  132.8134  156.0273 C   0  0  0  0  0  0  0  0  0  0  0  0
  150.1755  130.5983  155.0265 O   0  0  0  0  0  0  0  0  0  0  0  0
  149.3217  130.2260  153.9755 C   0  0  0  0  0  0  0  0  0  0  0  0
  148.7050  131.3751  153.4541 O   0  0  0  0  0  0  0  0  0  0  0  0
  153.7047  138.7644  156.0862 H   0  0  0  0  0  0  0  0  0  0  0  0
  152.5088  138.3239  154.9359 H   0  0  0  0  0  0  0  0  0  0  0  0
  149.9724  143.0537  157.2158 H   0  0  0  0  0  0  0  0  0  0  0  0
  151.6803  141.5406  159.9579 H   0  0  0  0  0  0  0  0  0  0  0  0
  153.4629  143.0856  160.1168 H   0  0  0  0  0  0  0  0  0  0  0  0
  153.6747  142.7489  158.3869 H   0  0  0  0  0  0  0  0  0  0  0  0
  153.1616  145.3075  159.1940 H   0  0  0  0  0  0  0  0  0  0  0  0
  152.3023  144.6616  157.7908 H   0  0  0  0  0  0  0  0  0  0  0  0
  151.3232  144.7161  160.6775 H   0  0  0  0  0  0  0  0  0  0  0  0
  150.4578  145.2859  159.2461 H   0  0  0  0  0  0  0  0  0  0  0  0
  151.5755  136.3741  155.2238 H   0  0  0  0  0  0  0  0  0  0  0  0
  151.9387  134.6302  157.3854 H   0  0  0  0  0  0  0  0  0  0  0  0
  150.4355  135.4684  157.6840 H   0  0  0  0  0  0  0  0  0  0  0  0
  149.3095  135.7300  154.8760 H   0  0  0  0  0  0  0  0  0  0  0  0
  148.1902  134.1397  153.3195 H   0  0  0  0  0  0  0  0  0  0  0  0
  151.4081  132.4278  156.7624 H   0  0  0  0  0  0  0  0  0  0  0  0
  149.8994  129.7337  153.1925 H   0  0  0  0  0  0  0  0  0  0  0  0
  148.5600  129.5403  154.3486 H   0  0  0  0  0  0  0  0  0  0  0  0
  1  2  2  0  0  0  0
  2  3  1  0  0  0  0
  2 18  1  0  0  0  0
  3  4  1  0  0  0  0
  3 29  1  0  0  0  0
  3 30  1  0  0  0  0
  4 16  1  0  0  0  0
  4  5  1  0  0  0  0
  5  6  2  0  0  0  0
  5  7  1  0  0  0  0
  7  8  1  0  0  0  0
  7  9  2  0  0  0  0
  9 10  1  0  0  0  0
  9 31  1  0  0  0  0
 10 11  1  0  0  0  0
 10 16  1  0  0  0  0
 11 15  1  0  0  0  0
 11 12  1  0  0  0  0
 11 32  1  0  0  0  0
 12 13  1  0  0  0  0
 12 33  1  0  0  0  0
 12 34  1  0  0  0  0
 13 14  1  0  0  0  0
 13 35  1  0  0  0  0
 13 36  1  0  0  0  0
 14 15  1  0  0  0  0
 14 37  1  0  0  0  0
 14 38  1  0  0  0  0
 16 17  2  0  0  0  0
 18 19  1  0  0  0  0
 18 39  1  0  0  0  0
 19 20  1  0  0  0  0
 19 40  1  0  0  0  0
 19 41  1  0  0  0  0
 20 25  1  0  0  0  0
 20 21  2  0  0  0  0
 21 22  1  0  0  0  0
 21 42  1  0  0  0  0
 22 23  2  0  0  0  0
 22 43  1  0  0  0  0
 23 28  1  0  0  0  0
 23 24  1  0  0  0  0
 24 25  2  0  0  0  0
 24 26  1  0  0  0  0
 25 44  1  0  0  0  0
 26 27  1  0  0  0  0
 27 28  1  0  0  0  0
 27 45  1  0  0  0  0
 27 46  1  0  0  0  0
M  END
> <s_m_source_file>
AV-unprocessed.smi

> <i_m_source_file_index>
97

> <i_lp_mmshare_version>
43012

> <i_f3d_flags>
0

> <s_epik_input>
TzFbQ0gyXU9jKGMxMilbY0hdYyhbY0hdW2NIXTIpW0NIMl1bTkhdQyg9TylbQ0gyXW4zYyg9TyljKEYpW2NIXW4oYzM9TylbQ0BASF00W0NIMl1bQ0gyXVtDSDJdTzQ=

> <s_epik_cmdline>
J2VwaWtfcHl0aG9uJywgJy1waCcsICc3LjAnLCAnLXRuJywgJzgnLCAnLW1hJywgJzIwMCcsICctbWV0YWxfYmluZGluZycsICctaW1hZScsICc8aW5maWxlLm1hZT4nLCAnLW9tYWUnLCAnPG91dGZpbGUubWFlPic=

> <r_lp_tautomer_probability>
1

> <r_epik_Ionization_Penalty>
3.79042e-08

> <r_epik_Ionization_Penalty_Charging>
3.81036e-09

> <r_epik_Ionization_Penalty_Neutral>
3.40938e-08

> <r_epik_State_Penalty>
-0

> <r_epik_Charging_Adjusted_Penalty>
3.81036e-09

> <i_epik_Tot_Q>
0

> <i_epik_Tot_abs_Q>
0

> <r_epik_Metal_State_Penalty>
-0

> <b_epik_Metal_Only>
0

> <s_epik_Chemistry_Notes>
This compound contains an acetal/aminal-like group ( X-CH(R)-Y where X, Y are N, S, or O) that may be acid/base labile, releasing an aldehyde.

> <s_lp_Force_Field>
OPLS_2005

> <r_lp_Energy>
39.492

> <b_lp_Chiralities_Consistent>
1

> <s_lp_Variant>
AV-unprocessed.smi:97-2

> <Gold.Version>
5.8.1

> <Gold.Id.Protein>
6NUR|6NUR_protein|mol2

> <Gold.PLP.Fitness>
55.5742

> <Gold.PLP.PLP>
-49.4518

> <Gold.PLP.part.hbond>
-2.4984

> <Gold.PLP.part.metal>
0.0000

> <Gold.PLP.part.buried>
-0.4432

> <Gold.PLP.part.nonpolar>
-47.0963

> <Gold.PLP.part.repulsive>
1.2704

> <Gold.PLP.ligand.clash>
0.0000

> <Gold.PLP.ligand.torsion>
0.6997

> <Gold.PLP.Chemscore.Hbond>
1.5100

> <Gold.PLP.Chemscore.CHOScore>
0.9760

> <Gold.PLP.Chemscore.Metal>
0.0000

> <Gold.Chemscore.Hbonds>
donor molecule, donor type, donor heavy atom, donor atom, acceptor molecule, acceptor atom, score
      P1  H  7989  7998       L1     6  0.55
      P1  H  7997  8008       L1    17  0.86
      L1  C     9    31       P1  8028  0.99

> <Gold.PLP.Chemscore.Internal.Correction>
0.0638

> <Gold.Rescore>
     Score         DG    S(hbond)    S(metal)    S(lipo)     H(rot)  DE(clash)    DE(int)     intcor
     10.05     -12.53       0.83        0.00      93.07       2.58       0.40       2.08       ----

> <Gold.Chemscore.Fitness>
10.0475

> <Gold.Chemscore.DG>
-12.5301

> <Gold.Chemscore.ZeroCoef>
-5.4800

> <Gold.Chemscore.Hbond>
0.8282

> <Gold.Chemscore.Metal>
0.0000

> <Gold.Chemscore.Lipo>
93.0683

> <Gold.Chemscore.Internal_Hbond>
0.0000

> <Gold.Chemscore.DEClash>
0.4045

> <Gold.Chemscore.DEInternal>
2.0780

> <Gold.Chemscore.Rot>
2.5801

> <Gold.Chemscore.Internal.Correction>
   9.000000E+99

> <Gold.Chemscore.Hbonds>
donor molecule, donor type, donor heavy atom, donor atom, acceptor molecule, acceptor atom, score
      P1  H  7989  7998       L1     6  0.03
      P1  H  7997  8008       L1    17  0.24

> <Gold.Chemscore.Hbond.Weighted>
-2.7661

> <Gold.Chemscore.Metal.Weighted>
-0.0000

> <Gold.Chemscore.Lipo.Weighted>
-10.8890

> <Gold.Chemscore.Internal_Hbond.Weighted>
0.0000

> <Gold.Chemscore.DEClash.Weighted>
0.4045

> <Gold.Chemscore.DEInternal.Weighted>
2.0780

> <Gold.Chemscore.Rot.Weighted>
6.6050

> <Gold.Chemscore.Internal.Correction.Weighted>
   9.000000E+99

> <Gold.Protein.RotatedTorsions>
[ 6907 6896 6895 6894 ] final  -57.24 input  -60.11 | X-H torsion
[ 7974 7965 7964 7962 ] final  -19.58 input  175.53 | X-H torsion
[ 8008 7997 7996 7995 ] final  -95.53 input   59.86 | X-H torsion
[ 10167 10162 10161 10158 ] final  -42.88 input  -65.29 | X-H torsion
[ 10718 10713 10712 10709 ] final   69.62 input   66.30 | X-H torsion
[ 10763 10752 10751 10750 ] final -118.57 input  -60.55 | X-H torsion
[ 11005 11000 10999 10996 ] final   53.67 input  -57.11 | X-H torsion

> <Gold.Protein.ActiveResidues>
 VAL166  LYS551  ARG553  GLY616  TRP617  ASP618  TYR619  PRO620  LYS621  CYS622 
 ASP623  PHE694  ASN695  SER759  ASP760  ASP761  ALA762  ILE779  LEU786  VAL792 
 PHE793  MET794  SER795  GLU796  ALA797  LYS798  CYS799  TRP800  GLU811  SER814 

> <Gold.Protein.RotatedAtoms>
  150.8102  134.7252  159.6680 H   0  0  0  0  0  0  0  0  0  0  0  0  # atno 6907 bound_to 6896
  152.4222  134.5931  159.9989 H   0  0  0  0  0  0  0  0  0  0  0  0  # atno 6908 bound_to 6896
  151.6142  133.3307  159.3110 H   0  0  0  0  0  0  0  0  0  0  0  0  # atno 6909 bound_to 6896
  146.1834  140.4081  142.8486 H   0  0  0  0  0  0  0  0  0  0  0  0  # atno 7974 bound_to 7965
  154.7626  140.0479  157.0986 H   0  0  0  0  0  0  0  0  0  0  0  0  # atno 8008 bound_to 7997
  154.9919  140.3114  155.4883 H   0  0  0  0  0  0  0  0  0  0  0  0  # atno 8009 bound_to 7997
  156.2907  140.2217  156.5024 H   0  0  0  0  0  0  0  0  0  0  0  0  # atno 8010 bound_to 7997
  140.6954  143.3013  151.3272 H   0  0  0  0  0  0  0  0  0  0  0  0  # atno 10167 bound_to 10162
  157.6355  130.9435  150.0538 H   0  0  0  0  0  0  0  0  0  0  0  0  # atno 10718 bound_to 10713
  154.8591  135.4269  154.2160 H   0  0  0  0  0  0  0  0  0  0  0  0  # atno 10763 bound_to 10752
  153.3175  135.6980  153.7066 H   0  0  0  0  0  0  0  0  0  0  0  0  # atno 10764 bound_to 10752
  153.6134  135.3515  155.2960 H   0  0  0  0  0  0  0  0  0  0  0  0  # atno 10765 bound_to 10752
  140.0748  134.5419  155.9008 H   0  0  0  0  0  0  0  0  0  0  0  0  # atno 11005 bound_to 11000
  144.8354  140.6774  143.6264 LP  0  0  0  0  0  0  0  0  0  0  0  0  # atno 17320 bound_to 7965
  145.4010  139.1597  143.4177 LP  0  0  0  0  0  0  0  0  0  0  0  0  # atno 17321 bound_to 7965
  139.6402  144.0553  152.2548 LP  0  0  0  0  0  0  0  0  0  0  0  0  # atno 17342 bound_to 10162
  140.0056  144.6261  150.7691 LP  0  0  0  0  0  0  0  0  0  0  0  0  # atno 17343 bound_to 10162
  156.1592  130.3643  149.9325 LP  0  0  0  0  0  0  0  0  0  0  0  0  # atno 17370 bound_to 10713
  156.7327  130.9049  151.3627 LP  0  0  0  0  0  0  0  0  0  0  0  0  # atno 17371 bound_to 10713
  141.2025  133.6626  156.6012 LP  0  0  0  0  0  0  0  0  0  0  0  0  # atno 17394 bound_to 11000
  140.3573  134.7717  157.4509 LP  0  0  0  0  0  0  0  0  0  0  0  0  # atno 17395 bound_to 11000

$$$$
