AV-unprocessed.smi:157|AV-procd|sdf|1310|dock6
  -GOLD-   2262019 03D 1   1.00000     0.00000
 Structure written by MMmdl.
 36 38  0  0  0  0  0  0  0  0  2 V2000
  150.0659  140.1808  154.1299 O   0  0  0  0  0  0  0  0  0  0  0  0
  149.3758  138.9494  154.1651 C   0  0  0  0  0  0  0  0  0  0  0  0
  149.7728  138.1340  155.4132 C   0  0  2  0  0  0  0  0  0  0  0  0
  149.5767  138.9825  156.5470 O   0  0  0  0  0  0  0  0  0  0  0  0
  150.7952  139.2599  157.1694 C   0  0  2  0  0  0  0  0  0  0  0  0
  150.8499  140.7186  157.4848 N   0  0  0  0  0  0  0  0  0  0  0  0
  150.1470  141.6951  156.8733 C   0  0  0  0  0  0  0  0  0  0  0  0
  150.3843  142.9098  157.3383 N   0  3  0  0  0  0  0  0  0  0  0  0
  151.3194  142.7684  158.3416 C   0  0  0  0  0  0  0  0  0  0  0  0
  151.6055  141.4024  158.4089 C   0  0  0  0  0  0  0  0  0  0  0  0
  152.4986  140.7104  159.2413 N   0  0  0  0  0  0  0  0  0  0  0  0
  153.4267  141.2990  159.9234 C   0  0  0  0  0  0  0  0  0  0  0  0
  153.6858  142.6525  160.0625 N   0  0  0  0  0  0  0  0  0  0  0  0
  152.6519  143.6380  160.3242 C   0  0  0  0  0  0  0  0  0  0  0  0
  151.7934  143.9701  159.0968 C   0  0  1  0  0  0  0  0  0  0  0  0
  152.5037  144.8784  158.2805 O   0  0  0  0  0  0  0  0  0  0  0  0
  151.8937  138.8874  156.1818 C   0  0  0  0  0  0  0  0  0  0  0  0
  151.2500  137.7036  155.4960 C   0  0  2  0  0  0  0  0  0  0  0  0
  151.8624  137.4312  154.2518 O   0  0  0  0  0  0  0  0  0  0  0  0
  149.1148  137.2693  155.5088 H   0  0  0  0  0  0  0  0  0  0  0  0
  150.8631  138.7361  158.1236 H   0  0  0  0  0  0  0  0  0  0  0  0
  150.9121  144.5086  159.4472 H   0  0  0  0  0  0  0  0  0  0  0  0
  151.3369  136.8236  156.1352 H   0  0  0  0  0  0  0  0  0  0  0  0
  149.5907  140.8080  154.6533 H   0  0  0  0  0  0  0  0  0  0  0  0
  148.2999  139.1199  154.1213 H   0  0  0  0  0  0  0  0  0  0  0  0
  149.6478  138.4003  153.2631 H   0  0  0  0  0  0  0  0  0  0  0  0
  149.4528  141.4964  156.0766 H   0  0  0  0  0  0  0  0  0  0  0  0
  154.1284  140.6890  160.4939 H   0  0  0  0  0  0  0  0  0  0  0  0
  154.5738  142.9376  160.4506 H   0  0  0  0  0  0  0  0  0  0  0  0
  152.0084  143.2358  161.1081 H   0  0  0  0  0  0  0  0  0  0  0  0
  153.1029  144.5411  160.7369 H   0  0  0  0  0  0  0  0  0  0  0  0
  153.2362  145.2192  158.7702 H   0  0  0  0  0  0  0  0  0  0  0  0
  152.0596  139.7078  155.4811 H   0  0  0  0  0  0  0  0  0  0  0  0
  152.8275  138.6539  156.6943 H   0  0  0  0  0  0  0  0  0  0  0  0
  151.8828  138.2297  153.7460 H   0  0  0  0  0  0  0  0  0  0  0  0
  149.9558  143.7698  157.0203 H   0  0  0  0  0  0  0  0  0  0  0  0
  1  2  1  0  0  0  0
  1 24  1  0  0  0  0
  2  3  1  0  0  0  0
  2 25  1  0  0  0  0
  2 26  1  0  0  0  0
  3 20  1  0  0  0  0
  3 18  1  0  0  0  0
  3  4  1  0  0  0  0
  4  5  1  0  0  0  0
  5 21  1  0  0  0  0
  5  6  1  0  0  0  0
  5 17  1  0  0  0  0
  6 10  1  0  0  0  0
  6  7  1  0  0  0  0
  7  8  2  0  0  0  0
  7 27  1  0  0  0  0
  8  9  1  0  0  0  0
  8 36  1  0  0  0  0
  9 15  1  0  0  0  0
  9 10  2  0  0  0  0
 10 11  1  0  0  0  0
 11 12  2  0  0  0  0
 12 13  1  0  0  0  0
 12 28  1  0  0  0  0
 13 14  1  0  0  0  0
 13 29  1  0  0  0  0
 14 15  1  0  0  0  0
 14 30  1  0  0  0  0
 14 31  1  0  0  0  0
 15 22  1  0  0  0  0
 15 16  1  0  0  0  0
 16 32  1  0  0  0  0
 17 18  1  0  0  0  0
 17 33  1  0  0  0  0
 17 34  1  0  0  0  0
 18 23  1  0  0  0  0
 18 19  1  0  0  0  0
 19 35  1  0  0  0  0
M  CHG  1   8   1
M  END
> <s_m_source_file>
AV-unprocessed.smi

> <i_m_source_file_index>
157

> <i_lp_mmshare_version>
43012

> <i_f3d_flags>
0

> <s_epik_input>
W09IXVtDSDJdW0NASF0xT1tDQEhdKFtDSDJdW0NAQEhdMVtPSF0pbihbY0hdbjIpYyhjMjMpTj1bQ0hdW05IXVtDSDJdW0NASF0zW09IXQ==

> <s_epik_cmdline>
J2VwaWtfcHl0aG9uJywgJy1waCcsICc3LjAnLCAnLXRuJywgJzgnLCAnLW1hJywgJzIwMCcsICctbWV0YWxfYmluZGluZycsICctaW1hZScsICc8aW5maWxlLm1hZT4nLCAnLW9tYWUnLCAnPG91dGZpbGUubWFlPic=

> <r_epik_Ionization_Penalty>
1.68594

> <r_epik_Ionization_Penalty_Charging>
0

> <r_epik_Ionization_Penalty_Neutral>
1.68594

> <r_epik_State_Penalty>
1.79006

> <r_epik_Charging_Adjusted_Penalty>
1.79006

> <i_epik_Tot_Q>
1

> <i_epik_Tot_abs_Q>
1

> <r_epik_Metal_State_Penalty>
5.85324

> <b_epik_Metal_Only>
0

> <s_epik_Chemistry_Notes>
This compound has an imine and may undergo hydrolysis. This compound contains an acetal/aminal-like group ( X-CH(R)-Y where X, Y are N, S, or O) that may be acid/base labile, releasing an aldehyde.

> <s_lp_Force_Field>
OPLS_2005

> <r_lp_Energy>
54.8473

> <b_lp_Chiralities_Consistent>
1

> <s_lp_Variant>
AV-unprocessed.smi:157-20

> <Gold.Version>
5.8.1

> <Gold.Id.Protein>
6NUR|6NUR_protein|mol2

> <Gold.PLP.Fitness>
43.8289

> <Gold.PLP.PLP>
-33.4758

> <Gold.PLP.part.hbond>
-4.3313

> <Gold.PLP.part.metal>
0.0000

> <Gold.PLP.part.buried>
-7.3635

> <Gold.PLP.part.nonpolar>
-23.0874

> <Gold.PLP.part.repulsive>
0.0349

> <Gold.PLP.ligand.clash>
0.0000

> <Gold.PLP.ligand.torsion>
0.6865

> <Gold.PLP.Chemscore.Hbond>
3.9040

> <Gold.PLP.Chemscore.CHOScore>
0.0000

> <Gold.PLP.Chemscore.Metal>
0.0000

> <Gold.Chemscore.Hbonds>
donor molecule, donor type, donor heavy atom, donor atom, acceptor molecule, acceptor atom, score
      L1  H     8    36       P1  8028  1.98
      P1  H  7989  7998       L1     1  0.91
      P1  H 10752 10765       L1    19  0.89

> <Gold.PLP.Chemscore.Internal.Correction>
0.0141

> <Gold.Rescore>
     Score         DG    S(hbond)    S(metal)    S(lipo)     H(rot)  DE(clash)    DE(int)     intcor
     11.34     -11.83       2.75        0.00      56.03       3.67       0.03       0.46       ----

> <Gold.Chemscore.Fitness>
11.3352

> <Gold.Chemscore.DG>
-11.8251

> <Gold.Chemscore.ZeroCoef>
-5.4800

> <Gold.Chemscore.Hbond>
2.7468

> <Gold.Chemscore.Metal>
0.0000

> <Gold.Chemscore.Lipo>
56.0293

> <Gold.Chemscore.Internal_Hbond>
0.0000

> <Gold.Chemscore.DEClash>
0.0263

> <Gold.Chemscore.DEInternal>
0.4636

> <Gold.Chemscore.Rot>
3.6659

> <Gold.Chemscore.Internal.Correction>
   9.000000E+99

> <Gold.Chemscore.Hbonds>
donor molecule, donor type, donor heavy atom, donor atom, acceptor molecule, acceptor atom, score
      L1  H     8    36       P1  8028  0.90
      P1  H  7989  7998       L1     1  0.74
      P1  H 10752 10765       L1    19  0.67

> <Gold.Chemscore.Hbond.Weighted>
-9.1744

> <Gold.Chemscore.Metal.Weighted>
-0.0000

> <Gold.Chemscore.Lipo.Weighted>
-6.5554

> <Gold.Chemscore.Internal_Hbond.Weighted>
0.0000

> <Gold.Chemscore.DEClash.Weighted>
0.0263

> <Gold.Chemscore.DEInternal.Weighted>
0.4636

> <Gold.Chemscore.Rot.Weighted>
9.3848

> <Gold.Chemscore.Internal.Correction.Weighted>
   9.000000E+99

> <Gold.Protein.RotatedTorsions>
[ 6907 6896 6895 6894 ] final  113.00 input  -60.11 | X-H torsion
[ 7974 7965 7964 7962 ] final  -95.43 input  175.53 | X-H torsion
[ 8008 7997 7996 7995 ] final  -14.06 input   59.86 | X-H torsion
[ 10167 10162 10161 10158 ] final   67.91 input  -65.29 | X-H torsion
[ 10718 10713 10712 10709 ] final -127.94 input   66.30 | X-H torsion
[ 10763 10752 10751 10750 ] final  162.51 input  -60.55 | X-H torsion
[ 11005 11000 10999 10996 ] final  140.22 input  -57.11 | X-H torsion

> <Gold.Protein.ActiveResidues>
 VAL166  LYS551  ARG553  GLY616  TRP617  ASP618  TYR619  PRO620  LYS621  CYS622 
 ASP623  PHE694  ASN695  SER759  ASP760  ASP761  ALA762  ILE779  LEU786  VAL792 
 PHE793  MET794  SER795  GLU796  ALA797  LYS798  CYS799  TRP800  GLU811  SER814 

> <Gold.Protein.RotatedAtoms>
  152.4885  133.8437  159.7165 H   0  0  0  0  0  0  0  0  0  0  0  0  # atno 6907 bound_to 6896
  150.8993  133.7130  159.2890 H   0  0  0  0  0  0  0  0  0  0  0  0  # atno 6908 bound_to 6896
  151.4576  135.1039  159.9768 H   0  0  0  0  0  0  0  0  0  0  0  0  # atno 6909 bound_to 6896
  145.3602  140.9490  143.2505 H   0  0  0  0  0  0  0  0  0  0  0  0  # atno 7974 bound_to 7965
  154.5241  140.2233  155.8922 H   0  0  0  0  0  0  0  0  0  0  0  0  # atno 8008 bound_to 7997
  156.1694  140.3125  155.8911 H   0  0  0  0  0  0  0  0  0  0  0  0  # atno 8009 bound_to 7997
  155.3589  140.0460  157.3037 H   0  0  0  0  0  0  0  0  0  0  0  0  # atno 8010 bound_to 7997
  140.0844  144.5043  150.7140 H   0  0  0  0  0  0  0  0  0  0  0  0  # atno 10167 bound_to 10162
  156.1904  130.6791  151.0417 H   0  0  0  0  0  0  0  0  0  0  0  0  # atno 10718 bound_to 10713
  154.2795  135.2763  155.2703 H   0  0  0  0  0  0  0  0  0  0  0  0  # atno 10763 bound_to 10752
  154.5231  135.5751  153.6700 H   0  0  0  0  0  0  0  0  0  0  0  0  # atno 10764 bound_to 10752
  152.9931  135.6209  154.2953 H   0  0  0  0  0  0  0  0  0  0  0  0  # atno 10765 bound_to 10752
  140.0311  134.9351  157.0664 H   0  0  0  0  0  0  0  0  0  0  0  0  # atno 11005 bound_to 11000
  144.8652  139.5118  143.6793 LP  0  0  0  0  0  0  0  0  0  0  0  0  # atno 17320 bound_to 7965
  146.2930  139.7196  142.9147 LP  0  0  0  0  0  0  0  0  0  0  0  0  # atno 17321 bound_to 7965
  140.7061  143.2469  151.4722 LP  0  0  0  0  0  0  0  0  0  0  0  0  # atno 17342 bound_to 10162
  139.5761  144.1817  152.1904 LP  0  0  0  0  0  0  0  0  0  0  0  0  # atno 17343 bound_to 10162
  157.6925  131.0805  150.7065 LP  0  0  0  0  0  0  0  0  0  0  0  0  # atno 17370 bound_to 10713
  156.7121  130.4655  149.5544 LP  0  0  0  0  0  0  0  0  0  0  0  0  # atno 17371 bound_to 10713
  140.4224  134.1867  155.7165 LP  0  0  0  0  0  0  0  0  0  0  0  0  # atno 17394 bound_to 11000
  141.1831  133.8370  157.1185 LP  0  0  0  0  0  0  0  0  0  0  0  0  # atno 17395 bound_to 11000

$$$$
