AV-unprocessed.smi:2973|AV-procd|sdf|11348|dock9
  -GOLD-   2272016263D 1   1.00000     0.00000
 Structure written by MMmdl.
 48 50  0  0  0  0  0  0  0  0  2 V2000
  144.9863  137.2879  160.3429 C   0  0  0  0  0  0  0  0  0  0  0  0
  145.6021  136.4392  161.4772 C   0  0  1  0  0  0  0  0  0  0  0  0
  144.6546  135.2722  161.8343 C   0  0  0  0  0  0  0  0  0  0  0  0
  145.1847  134.4416  163.0119 C   0  0  0  0  0  0  0  0  0  0  0  0
  146.5931  133.9070  162.7245 C   0  0  0  0  0  0  0  0  0  0  0  0
  147.5581  135.0544  162.3786 C   0  0  0  0  0  0  0  0  0  0  0  0
  147.0642  135.9473  161.2082 C   0  0  2  0  0  0  0  0  0  0  0  0
  147.9638  137.0814  161.0852 N   0  5  0  0  0  0  0  0  0  0  0  0
  148.5682  137.0403  159.8756 C   0  0  0  0  0  0  0  0  0  0  0  0
  149.3971  137.8392  159.4403 O   0  0  0  0  0  0  0  0  0  0  0  0
  148.1449  135.9820  159.1598 N   0  0  0  0  0  0  0  0  0  0  0  0
  148.6167  135.6386  157.8120 C   0  0  0  0  0  0  0  0  0  0  0  0
  148.7492  136.8588  156.8905 C   0  0  0  0  0  0  0  0  0  0  0  0
  147.9349  137.7818  156.9383 O   0  0  0  0  0  0  0  0  0  0  0  0
  149.8055  136.8553  156.0639 N   0  0  0  0  0  0  0  0  0  0  0  0
  150.1242  137.9087  155.1079 C   0  0  0  0  0  0  0  0  0  0  0  0
  151.4595  138.5943  155.4424 C   0  0  0  0  0  0  0  0  0  0  0  0
  151.2651  139.8551  156.2623 C   0  0  0  0  0  0  0  0  0  0  0  0
  150.2933  140.8105  155.8947 C   0  0  0  0  0  0  0  0  0  0  0  0
  150.1464  141.9601  156.6950 C   0  0  0  0  0  0  0  0  0  0  0  0
  150.9710  142.1084  157.8271 C   0  0  0  0  0  0  0  0  0  0  0  0
  151.9100  141.0963  158.1095 C   0  0  0  0  0  0  0  0  0  0  0  0
  152.0588  139.9902  157.3489 N   0  0  0  0  0  0  0  0  0  0  0  0
  147.2573  135.2632  159.8559 C   0  0  0  0  0  0  0  0  0  0  0  0
  146.6840  134.2352  159.4921 O   0  0  0  0  0  0  0  0  0  0  0  0
  144.8597  136.7112  159.4265 H   0  0  0  0  0  0  0  0  0  0  0  0
  145.6029  138.1557  160.1087 H   0  0  0  0  0  0  0  0  0  0  0  0
  144.0033  137.6623  160.6292 H   0  0  0  0  0  0  0  0  0  0  0  0
  145.6414  137.0866  162.3551 H   0  0  0  0  0  0  0  0  0  0  0  0
  143.6694  135.6633  162.0904 H   0  0  0  0  0  0  0  0  0  0  0  0
  144.5056  134.6265  160.9686 H   0  0  0  0  0  0  0  0  0  0  0  0
  145.2042  135.0564  163.9127 H   0  0  0  0  0  0  0  0  0  0  0  0
  144.5071  133.6126  163.2175 H   0  0  0  0  0  0  0  0  0  0  0  0
  146.9652  133.3644  163.5937 H   0  0  0  0  0  0  0  0  0  0  0  0
  146.5553  133.1837  161.9102 H   0  0  0  0  0  0  0  0  0  0  0  0
  147.6967  135.6690  163.2698 H   0  0  0  0  0  0  0  0  0  0  0  0
  148.5414  134.6379  162.1520 H   0  0  0  0  0  0  0  0  0  0  0  0
  149.5863  135.1412  157.8643 H   0  0  0  0  0  0  0  0  0  0  0  0
  147.9372  134.9130  157.3611 H   0  0  0  0  0  0  0  0  0  0  0  0
  150.4255  136.0591  156.0921 H   0  0  0  0  0  0  0  0  0  0  0  0
  150.1782  137.4574  154.1168 H   0  0  0  0  0  0  0  0  0  0  0  0
  149.3142  138.6394  155.0732 H   0  0  0  0  0  0  0  0  0  0  0  0
  152.1073  137.9127  155.9956 H   0  0  0  0  0  0  0  0  0  0  0  0
  151.9919  138.8427  154.5233 H   0  0  0  0  0  0  0  0  0  0  0  0
  149.6733  140.6665  155.0218 H   0  0  0  0  0  0  0  0  0  0  0  0
  149.4140  142.7137  156.4456 H   0  0  0  0  0  0  0  0  0  0  0  0
  150.8861  142.9764  158.4642 H   0  0  0  0  0  0  0  0  0  0  0  0
  152.5586  141.1772  158.9694 H   0  0  0  0  0  0  0  0  0  0  0  0
  1  2  1  0  0  0  0
  1 26  1  0  0  0  0
  1 27  1  0  0  0  0
  1 28  1  0  0  0  0
  2  7  1  0  0  0  0
  2  3  1  0  0  0  0
  2 29  1  0  0  0  0
  3  4  1  0  0  0  0
  3 30  1  0  0  0  0
  3 31  1  0  0  0  0
  4  5  1  0  0  0  0
  4 32  1  0  0  0  0
  4 33  1  0  0  0  0
  5  6  1  0  0  0  0
  5 34  1  0  0  0  0
  5 35  1  0  0  0  0
  6  7  1  0  0  0  0
  6 36  1  0  0  0  0
  6 37  1  0  0  0  0
  7 24  1  0  0  0  0
  7  8  1  0  0  0  0
  8  9  1  0  0  0  0
  9 10  2  0  0  0  0
  9 11  1  0  0  0  0
 11 12  1  0  0  0  0
 11 24  1  0  0  0  0
 12 13  1  0  0  0  0
 12 38  1  0  0  0  0
 12 39  1  0  0  0  0
 13 14  2  0  0  0  0
 13 15  1  0  0  0  0
 15 16  1  0  0  0  0
 15 40  1  0  0  0  0
 16 17  1  0  0  0  0
 16 41  1  0  0  0  0
 16 42  1  0  0  0  0
 17 18  1  0  0  0  0
 17 43  1  0  0  0  0
 17 44  1  0  0  0  0
 18 23  1  0  0  0  0
 18 19  2  0  0  0  0
 19 20  1  0  0  0  0
 19 45  1  0  0  0  0
 20 21  2  0  0  0  0
 20 46  1  0  0  0  0
 21 22  1  0  0  0  0
 21 47  1  0  0  0  0
 22 23  2  0  0  0  0
 22 48  1  0  0  0  0
 24 25  2  0  0  0  0
M  CHG  1   8  -1
M  END
> <s_m_source_file>
AV-unprocessed.smi

> <i_m_source_file_index>
2973

> <i_lp_mmshare_version>
43012

> <i_f3d_flags>
0

> <s_epik_input>
W0NIMl0xW0NIMl1bQ0gyXVtDSDJdW0NAQEhdKFtDSDNdKVtDQF0xMltOSF1DKD1PKU4oQzI9TylbQ0gyXUMoPU8pW05IXVtDSDJdW0NIMl1jM1tjSF1bY0hdW2NIXVtjSF1uMw==

> <s_epik_cmdline>
J2VwaWtfcHl0aG9uJywgJy1waCcsICc3LjAnLCAnLXRuJywgJzgnLCAnLW1hJywgJzIwMCcsICctbWV0YWxfYmluZGluZycsICctaW1hZScsICc8aW5maWxlLm1hZT4nLCAnLW9tYWUnLCAnPG91dGZpbGUubWFlPic=

> <r_lp_tautomer_probability>
1

> <r_epik_Ionization_Penalty>
6.04175

> <r_epik_Ionization_Penalty_Charging>
6.01728

> <r_epik_Ionization_Penalty_Neutral>
0.0244696

> <r_epik_State_Penalty>
6.03712

> <r_epik_Charging_Adjusted_Penalty>
12.0544

> <i_epik_Tot_Q>
-1

> <i_epik_Tot_abs_Q>
1

> <r_epik_Metal_State_Penalty>
2.01153

> <b_epik_Metal_Only>
1

> <s_lp_Force_Field>
OPLS_2005

> <r_lp_Energy>
9.40787

> <b_lp_Chiralities_Consistent>
1

> <s_lp_Variant>
AV-unprocessed.smi:2973-12

> <Gold.Version>
5.8.1

> <Gold.Id.Protein>
6NUR|6NUR_protein|mol2

> <Gold.PLP.Fitness>
48.7422

> <Gold.PLP.PLP>
-38.1149

> <Gold.PLP.part.hbond>
-4.0000

> <Gold.PLP.part.metal>
0.0000

> <Gold.PLP.part.buried>
-3.6656

> <Gold.PLP.part.nonpolar>
-30.8346

> <Gold.PLP.part.repulsive>
0.0323

> <Gold.PLP.ligand.clash>
0.0000

> <Gold.PLP.ligand.torsion>
0.9559

> <Gold.PLP.Chemscore.Hbond>
4.1752

> <Gold.PLP.Chemscore.CHOScore>
0.0000

> <Gold.PLP.Chemscore.Metal>
0.0000

> <Gold.Chemscore.Hbonds>
donor molecule, donor type, donor heavy atom, donor atom, acceptor molecule, acceptor atom, score
      P1  H  6931  6943       L1     8  1.90
      P1  H  6934  6947       L1     8  1.10

> <Gold.PLP.Chemscore.Internal.Correction>
0.0134

> <Gold.Rescore>
     Score         DG    S(hbond)    S(metal)    S(lipo)     H(rot)  DE(clash)    DE(int)     intcor
     12.47     -16.34       1.54        0.00      88.43       1.81       0.08       3.79       ----

> <Gold.Chemscore.Fitness>
12.4668

> <Gold.Chemscore.DG>
-16.3398

> <Gold.Chemscore.ZeroCoef>
-5.4800

> <Gold.Chemscore.Hbond>
1.5404

> <Gold.Chemscore.Metal>
0.0000

> <Gold.Chemscore.Lipo>
88.4270

> <Gold.Chemscore.Internal_Hbond>
0.0000

> <Gold.Chemscore.DEClash>
0.0838

> <Gold.Chemscore.DEInternal>
3.7892

> <Gold.Chemscore.Rot>
1.8090

> <Gold.Chemscore.Internal.Correction>
   9.000000E+99

> <Gold.Chemscore.Hbonds>
donor molecule, donor type, donor heavy atom, donor atom, acceptor molecule, acceptor atom, score
      P1  H  6931  6943       L1     8  0.21
      P1  H  6934  6947       L1     8  0.09
      P1  H  7997  8008       L1    23  0.02

> <Gold.Chemscore.Hbond.Weighted>
-5.1448

> <Gold.Chemscore.Metal.Weighted>
-0.0000

> <Gold.Chemscore.Lipo.Weighted>
-10.3460

> <Gold.Chemscore.Internal_Hbond.Weighted>
0.0000

> <Gold.Chemscore.DEClash.Weighted>
0.0838

> <Gold.Chemscore.DEInternal.Weighted>
3.7892

> <Gold.Chemscore.Rot.Weighted>
4.6310

> <Gold.Chemscore.Internal.Correction.Weighted>
   9.000000E+99

> <Gold.Protein.RotatedTorsions>
[ 6907 6896 6895 6894 ] final   46.99 input  -60.11 | X-H torsion
[ 7974 7965 7964 7962 ] final   18.08 input  175.53 | X-H torsion
[ 8008 7997 7996 7995 ] final  -72.26 input   59.86 | X-H torsion
[ 10167 10162 10161 10158 ] final   -7.36 input  -65.29 | X-H torsion
[ 10718 10713 10712 10709 ] final -108.50 input   66.30 | X-H torsion
[ 10763 10752 10751 10750 ] final  -71.02 input  -60.55 | X-H torsion
[ 11005 11000 10999 10996 ] final -170.78 input  -57.11 | X-H torsion

> <Gold.Protein.ActiveResidues>
 VAL166  LYS551  ARG553  GLY616  TRP617  ASP618  TYR619  PRO620  LYS621  CYS622 
 ASP623  PHE694  ASN695  SER759  ASP760  ASP761  ALA762  ILE779  LEU786  VAL792 
 PHE793  MET794  SER795  GLU796  ALA797  LYS798  CYS799  TRP800  GLU811  SER814 

> <Gold.Protein.RotatedAtoms>
  152.2628  134.8016  160.0427 H   0  0  0  0  0  0  0  0  0  0  0  0  # atno 6907 bound_to 6896
  151.8656  133.3460  159.3726 H   0  0  0  0  0  0  0  0  0  0  0  0  # atno 6908 bound_to 6896
  150.7123  134.5090  159.5642 H   0  0  0  0  0  0  0  0  0  0  0  0  # atno 6909 bound_to 6896
  146.2197  139.8509  142.8623 H   0  0  0  0  0  0  0  0  0  0  0  0  # atno 7974 bound_to 7965
  154.5152  140.0800  156.8067 H   0  0  0  0  0  0  0  0  0  0  0  0  # atno 8008 bound_to 7997
  155.3696  140.3422  155.4225 H   0  0  0  0  0  0  0  0  0  0  0  0  # atno 8009 bound_to 7997
  156.1619  140.1591  156.8584 H   0  0  0  0  0  0  0  0  0  0  0  0  # atno 8010 bound_to 7997
  140.7026  143.6089  150.8723 H   0  0  0  0  0  0  0  0  0  0  0  0  # atno 10167 bound_to 10162
  156.0489  130.5716  150.7969 H   0  0  0  0  0  0  0  0  0  0  0  0  # atno 10718 bound_to 10713
  154.4258  135.5975  153.6038 H   0  0  0  0  0  0  0  0  0  0  0  0  # atno 10763 bound_to 10752
  152.9796  135.5963  154.3899 H   0  0  0  0  0  0  0  0  0  0  0  0  # atno 10764 bound_to 10752
  154.3730  135.2841  155.2234 H   0  0  0  0  0  0  0  0  0  0  0  0  # atno 10765 bound_to 10752
  140.5157  134.5758  157.5032 H   0  0  0  0  0  0  0  0  0  0  0  0  # atno 11005 bound_to 11000
  145.2803  141.0136  143.3721 LP  0  0  0  0  0  0  0  0  0  0  0  0  # atno 17320 bound_to 7965
  144.9155  139.4475  143.6566 LP  0  0  0  0  0  0  0  0  0  0  0  0  # atno 17321 bound_to 7965
  139.9813  143.5948  152.2942 LP  0  0  0  0  0  0  0  0  0  0  0  0  # atno 17342 bound_to 10162
  139.6570  144.7662  151.2036 LP  0  0  0  0  0  0  0  0  0  0  0  0  # atno 17343 bound_to 10162
  157.5394  131.0940  150.9848 LP  0  0  0  0  0  0  0  0  0  0  0  0  # atno 17370 bound_to 10713
  157.0135  130.5646  149.5323 LP  0  0  0  0  0  0  0  0  0  0  0  0  # atno 17371 bound_to 10713
  139.9634  134.7414  156.0189 LP  0  0  0  0  0  0  0  0  0  0  0  0  # atno 17394 bound_to 11000
  141.1362  133.6574  156.3599 LP  0  0  0  0  0  0  0  0  0  0  0  0  # atno 17395 bound_to 11000

$$$$
