AV-unprocessed.smi:895|AV-procd|sdf|4073|dock10
  -GOLD-   22720 1563D 1   1.00000     0.00000
 Structure written by MMmdl.
 44 45  0  0  0  0  0  0  0  0  1 V2000
  148.0326  139.2962  153.7133 C   0  0  0  0  0  0  0  0  0  0  0  0
  148.5592  140.3372  154.7158 C   0  0  0  0  0  0  0  0  0  0  0  0
  148.3094  141.7636  154.1875 C   0  0  0  0  0  0  0  0  0  0  0  0
  147.7930  140.1516  155.8895 O   0  0  0  0  0  0  0  0  0  0  0  0
  150.0433  140.0412  155.0536 C   0  0  0  0  0  0  0  0  0  0  0  0
  150.5012  140.6561  156.2966 N   0  0  0  0  0  0  0  0  0  0  0  0
  151.6846  140.4258  156.8804 C   0  0  0  0  0  0  0  0  0  0  0  0
  152.5344  139.6557  156.4339 O   0  0  0  0  0  0  0  0  0  0  0  0
  151.8274  141.1396  158.0062 N   0  0  0  0  0  0  0  0  0  0  0  0
  153.0013  141.1346  158.8796 C   0  0  2  0  0  0  0  0  0  0  0  0
  153.3574  139.6705  159.2064 C   0  0  0  0  0  0  0  0  0  0  0  0
  154.5223  139.5697  160.2020 C   0  0  0  0  0  0  0  0  0  0  0  0
  154.2147  140.3465  161.4893 C   0  0  0  0  0  0  0  0  0  0  0  0
  153.8962  141.8154  161.1769 C   0  0  0  0  0  0  0  0  0  0  0  0
  152.7275  141.9454  160.1751 C   0  0  1  0  0  0  0  0  0  0  0  0
  152.4333  143.3457  159.8928 N   0  0  0  0  0  0  0  0  0  0  0  0
  152.5144  144.0038  158.6830 C   0  0  0  0  0  0  0  0  0  0  0  0
  152.1808  145.3093  158.9032 C   0  0  0  0  0  0  0  0  0  0  0  0
  151.9103  145.3575  160.2989 C   0  0  0  0  0  0  0  0  0  0  0  0
  152.0627  144.1834  160.8880 N   0  0  0  0  0  0  0  0  0  0  0  0
  148.5576  139.3665  152.7603 H   0  0  0  0  0  0  0  0  0  0  0  0
  146.9697  139.4367  153.5123 H   0  0  0  0  0  0  0  0  0  0  0  0
  148.1655  138.2803  154.0876 H   0  0  0  0  0  0  0  0  0  0  0  0
  148.9076  141.9618  153.2975 H   0  0  0  0  0  0  0  0  0  0  0  0
  148.5545  142.5240  154.9297 H   0  0  0  0  0  0  0  0  0  0  0  0
  147.2625  141.9069  153.9176 H   0  0  0  0  0  0  0  0  0  0  0  0
  147.0877  139.5522  155.6956 H   0  0  0  0  0  0  0  0  0  0  0  0
  150.2442  138.9679  155.0523 H   0  0  0  0  0  0  0  0  0  0  0  0
  150.6754  140.4597  154.2698 H   0  0  0  0  0  0  0  0  0  0  0  0
  149.8693  141.3055  156.7413 H   0  0  0  0  0  0  0  0  0  0  0  0
  151.0650  141.7406  158.2817 H   0  0  0  0  0  0  0  0  0  0  0  0
  153.8561  141.5730  158.3608 H   0  0  0  0  0  0  0  0  0  0  0  0
  152.4865  139.1633  159.6248 H   0  0  0  0  0  0  0  0  0  0  0  0
  153.6134  139.1365  158.2906 H   0  0  0  0  0  0  0  0  0  0  0  0
  154.7202  138.5237  160.4375 H   0  0  0  0  0  0  0  0  0  0  0  0
  155.4313  139.9623  159.7447 H   0  0  0  0  0  0  0  0  0  0  0  0
  153.3697  139.8875  162.0040 H   0  0  0  0  0  0  0  0  0  0  0  0
  155.0635  140.2871  162.1712 H   0  0  0  0  0  0  0  0  0  0  0  0
  153.6545  142.3423  162.1006 H   0  0  0  0  0  0  0  0  0  0  0  0
  154.7913  142.2921  160.7754 H   0  0  0  0  0  0  0  0  0  0  0  0
  151.8413  141.5254  160.6541 H   0  0  0  0  0  0  0  0  0  0  0  0
  152.8057  143.4949  157.7760 H   0  0  0  0  0  0  0  0  0  0  0  0
  152.1405  146.1091  158.1790 H   0  0  0  0  0  0  0  0  0  0  0  0
  151.6117  146.2051  160.8978 H   0  0  0  0  0  0  0  0  0  0  0  0
  1  2  1  0  0  0  0
  1 21  1  0  0  0  0
  1 22  1  0  0  0  0
  1 23  1  0  0  0  0
  2  3  1  0  0  0  0
  2  4  1  0  0  0  0
  2  5  1  0  0  0  0
  3 24  1  0  0  0  0
  3 25  1  0  0  0  0
  3 26  1  0  0  0  0
  4 27  1  0  0  0  0
  5  6  1  0  0  0  0
  5 28  1  0  0  0  0
  5 29  1  0  0  0  0
  6  7  1  0  0  0  0
  6 30  1  0  0  0  0
  7  8  2  0  0  0  0
  7  9  1  0  0  0  0
  9 10  1  0  0  0  0
  9 31  1  0  0  0  0
 10 15  1  0  0  0  0
 10 11  1  0  0  0  0
 10 32  1  0  0  0  0
 11 12  1  0  0  0  0
 11 33  1  0  0  0  0
 11 34  1  0  0  0  0
 12 13  1  0  0  0  0
 12 35  1  0  0  0  0
 12 36  1  0  0  0  0
 13 14  1  0  0  0  0
 13 37  1  0  0  0  0
 13 38  1  0  0  0  0
 14 15  1  0  0  0  0
 14 39  1  0  0  0  0
 14 40  1  0  0  0  0
 15 16  1  0  0  0  0
 15 41  1  0  0  0  0
 16 20  1  0  0  0  0
 16 17  1  0  0  0  0
 17 18  2  0  0  0  0
 17 42  1  0  0  0  0
 18 19  1  0  0  0  0
 18 43  1  0  0  0  0
 19 20  2  0  0  0  0
 19 44  1  0  0  0  0
M  END
> <s_m_source_file>
AV-unprocessed.smi

> <i_m_source_file_index>
895

> <i_lp_mmshare_version>
43012

> <i_f3d_flags>
0

> <s_epik_input>
W0NIM11DKFtDSDNdKShbT0hdKVtDSDJdW05IXUMoPU8pW05IXVtDQEBIXTFbQ0gyXVtDSDJdW0NIMl1bQ0gyXVtDQEhdMW4yW2NIXVtjSF1bY0hdbjI=

> <s_epik_cmdline>
J2VwaWtfcHl0aG9uJywgJy1waCcsICc3LjAnLCAnLXRuJywgJzgnLCAnLW1hJywgJzIwMCcsICctbWV0YWxfYmluZGluZycsICctaW1hZScsICc8aW5maWxlLm1hZT4nLCAnLW9tYWUnLCAnPG91dGZpbGUubWFlPic=

> <r_lp_tautomer_probability>
1

> <r_epik_Ionization_Penalty>
0.000440451

> <r_epik_Ionization_Penalty_Charging>
0

> <r_epik_Ionization_Penalty_Neutral>
0.000440451

> <r_epik_State_Penalty>
-0

> <r_epik_Charging_Adjusted_Penalty>
0

> <i_epik_Tot_Q>
0

> <i_epik_Tot_abs_Q>
0

> <r_epik_Metal_State_Penalty>
-0

> <b_epik_Metal_Only>
0

> <s_lp_Force_Field>
OPLS_2005

> <r_lp_Energy>
10.7008

> <b_lp_Chiralities_Consistent>
1

> <s_lp_Variant>
AV-unprocessed.smi:895-1

> <Gold.Version>
5.8.1

> <Gold.Id.Protein>
6NUR|6NUR_protein|mol2

> <Gold.PLP.Fitness>
47.2073

> <Gold.PLP.PLP>
-44.8469

> <Gold.PLP.part.hbond>
-1.0000

> <Gold.PLP.part.metal>
0.0000

> <Gold.PLP.part.buried>
-4.5561

> <Gold.PLP.part.nonpolar>
-38.6595

> <Gold.PLP.part.repulsive>
0.2652

> <Gold.PLP.ligand.clash>
0.0000

> <Gold.PLP.ligand.torsion>
0.3422

> <Gold.PLP.Chemscore.Hbond>
1.0000

> <Gold.PLP.Chemscore.CHOScore>
0.0000

> <Gold.PLP.Chemscore.Metal>
0.0000

> <Gold.Chemscore.Hbonds>
donor molecule, donor type, donor heavy atom, donor atom, acceptor molecule, acceptor atom, score
      P1  H  7997  8008       L1     8  1.00

> <Gold.PLP.Chemscore.Internal.Correction>
0.0449

> <Gold.Rescore>
     Score         DG    S(hbond)    S(metal)    S(lipo)     H(rot)  DE(clash)    DE(int)     intcor
     15.12     -16.96       1.00        0.00     117.58       2.19       0.10       1.75       ----

> <Gold.Chemscore.Fitness>
15.1160

> <Gold.Chemscore.DG>
-16.9606

> <Gold.Chemscore.ZeroCoef>
-5.4800

> <Gold.Chemscore.Hbond>
0.9986

> <Gold.Chemscore.Metal>
0.0000

> <Gold.Chemscore.Lipo>
117.5767

> <Gold.Chemscore.Internal_Hbond>
0.0000

> <Gold.Chemscore.DEClash>
0.0965

> <Gold.Chemscore.DEInternal>
1.7481

> <Gold.Chemscore.Rot>
2.1919

> <Gold.Chemscore.Internal.Correction>
   9.000000E+99

> <Gold.Chemscore.Hbonds>
donor molecule, donor type, donor heavy atom, donor atom, acceptor molecule, acceptor atom, score
      P1  H  7997  8008       L1     8  0.98

> <Gold.Chemscore.Hbond.Weighted>
-3.3354

> <Gold.Chemscore.Metal.Weighted>
-0.0000

> <Gold.Chemscore.Lipo.Weighted>
-13.7565

> <Gold.Chemscore.Internal_Hbond.Weighted>
0.0000

> <Gold.Chemscore.DEClash.Weighted>
0.0965

> <Gold.Chemscore.DEInternal.Weighted>
1.7481

> <Gold.Chemscore.Rot.Weighted>
5.6113

> <Gold.Chemscore.Internal.Correction.Weighted>
   9.000000E+99

> <Gold.Protein.RotatedTorsions>
[ 6907 6896 6895 6894 ] final  158.43 input  -60.11 | X-H torsion
[ 7974 7965 7964 7962 ] final -119.47 input  175.53 | X-H torsion
[ 8008 7997 7996 7995 ] final  -31.69 input   59.86 | X-H torsion
[ 10167 10162 10161 10158 ] final -150.39 input  -65.29 | X-H torsion
[ 10718 10713 10712 10709 ] final   78.02 input   66.30 | X-H torsion
[ 10763 10752 10751 10750 ] final   40.83 input  -60.55 | X-H torsion
[ 11005 11000 10999 10996 ] final  140.46 input  -57.11 | X-H torsion

> <Gold.Protein.ActiveResidues>
 VAL166  LYS551  ARG553  GLY616  TRP617  ASP618  TYR619  PRO620  LYS621  CYS622 
 ASP623  PHE694  ASN695  SER759  ASP760  ASP761  ALA762  ILE779  LEU786  VAL792 
 PHE793  MET794  SER795  GLU796  ALA797  LYS798  CYS799  TRP800  GLU811  SER814 

> <Gold.Protein.RotatedAtoms>
  152.0005  133.3824  159.4179 H   0  0  0  0  0  0  0  0  0  0  0  0  # atno 6907 bound_to 6896
  150.6910  134.3838  159.5055 H   0  0  0  0  0  0  0  0  0  0  0  0  # atno 6908 bound_to 6896
  152.1585  134.8931  160.0594 H   0  0  0  0  0  0  0  0  0  0  0  0  # atno 6909 bound_to 6896
  145.0622  140.8298  143.4146 H   0  0  0  0  0  0  0  0  0  0  0  0  # atno 7974 bound_to 7965
  154.4205  140.1757  156.1607 H   0  0  0  0  0  0  0  0  0  0  0  0  # atno 8008 bound_to 7997
  155.9840  140.3375  155.6665 H   0  0  0  0  0  0  0  0  0  0  0  0  # atno 8009 bound_to 7997
  155.6462  140.0685  157.2593 H   0  0  0  0  0  0  0  0  0  0  0  0  # atno 8010 bound_to 7997
  139.7359  143.8736  152.2548 H   0  0  0  0  0  0  0  0  0  0  0  0  # atno 10167 bound_to 10162
  157.6730  130.9849  150.1725 H   0  0  0  0  0  0  0  0  0  0  0  0  # atno 10718 bound_to 10713
  152.9925  135.6180  154.2690 H   0  0  0  0  0  0  0  0  0  0  0  0  # atno 10763 bound_to 10752
  154.2423  135.2788  155.2851 H   0  0  0  0  0  0  0  0  0  0  0  0  # atno 10764 bound_to 10752
  154.5359  135.5775  153.6855 H   0  0  0  0  0  0  0  0  0  0  0  0  # atno 10765 bound_to 10752
  140.0329  134.9343  157.0697 H   0  0  0  0  0  0  0  0  0  0  0  0  # atno 11005 bound_to 11000
  145.1395  139.2581  143.5497 LP  0  0  0  0  0  0  0  0  0  0  0  0  # atno 17320 bound_to 7965
  146.3525  140.1068  142.8605 LP  0  0  0  0  0  0  0  0  0  0  0  0  # atno 17321 bound_to 7965
  139.8673  144.7086  150.9029 LP  0  0  0  0  0  0  0  0  0  0  0  0  # atno 17342 bound_to 10162
  140.7778  143.3767  151.1550 LP  0  0  0  0  0  0  0  0  0  0  0  0  # atno 17343 bound_to 10162
  156.2476  130.3697  149.8267 LP  0  0  0  0  0  0  0  0  0  0  0  0  # atno 17370 bound_to 10713
  156.6049  130.8562  151.3441 LP  0  0  0  0  0  0  0  0  0  0  0  0  # atno 17371 bound_to 10713
  140.4196  134.1895  155.7164 LP  0  0  0  0  0  0  0  0  0  0  0  0  # atno 17394 bound_to 11000
  141.1841  133.8351  157.1152 LP  0  0  0  0  0  0  0  0  0  0  0  0  # atno 17395 bound_to 11000

$$$$
