AV-unprocessed.smi:239|AV-procd|sdf|1820|dock8
  -GOLD-   2262020413D 1   1.00000     0.00000
 Structure written by MMmdl.
 54 58  0  0  0  0  0  0  0  0  1 V2000
  153.0349  138.6872  154.6853 C   0  0  0  0  0  0  0  0  0  0  0  0
  151.5996  138.8871  155.1823 C   0  0  2  0  0  0  0  0  0  0  0  0
  150.6357  137.8473  154.5851 C   0  0  0  0  0  0  0  0  0  0  0  0
  149.2666  138.1380  154.9961 N   0  0  0  0  0  0  0  0  0  0  0  0
  148.3807  137.1268  154.8073 C   0  0  0  0  0  0  0  0  0  0  0  0
  148.5753  135.9298  155.4240 N   0  0  0  0  0  0  0  0  0  0  0  0
  147.7023  134.9323  155.2564 C   0  0  0  0  0  0  0  0  0  0  0  0
  146.5857  134.9148  154.5266 N   0  0  0  0  0  0  0  0  0  0  0  0
  146.3884  136.1082  153.8973 C   0  0  0  0  0  0  0  0  0  0  0  0
  147.2296  137.2542  153.9786 C   0  0  0  0  0  0  0  0  0  0  0  0
  146.7138  138.2740  153.1870 N   0  0  0  0  0  0  0  0  0  0  0  0
  145.6222  137.7668  152.6828 C   0  0  0  0  0  0  0  0  0  0  0  0
  145.3462  136.4733  153.0631 N   0  0  0  0  0  0  0  0  0  0  0  0
  144.2005  135.6727  152.6587 C   0  0  0  0  0  0  0  0  0  0  0  0
  144.5389  134.1840  152.3968 C   0  0  0  0  0  0  0  0  0  0  0  0
  144.6416  133.5390  153.6550 O   0  0  0  0  0  0  0  0  0  0  0  0
  143.4091  133.5080  151.5944 C   0  0  0  0  0  0  0  0  0  0  0  0
  143.7778  132.0767  151.1646 C   0  0  0  0  0  0  0  0  0  0  0  0
  144.9976  132.0866  150.4331 O   0  0  0  0  0  0  0  0  0  0  0  0
  146.0998  132.5415  151.2086 C   0  0  0  0  0  0  0  0  0  0  0  0
  145.8747  134.0006  151.6432 C   0  0  0  0  0  0  0  0  0  0  0  0
  148.8450  139.4959  154.6592 C   0  0  0  0  0  0  0  0  0  0  0  0
  149.8467  140.5311  155.2057 C   0  0  1  0  0  0  0  0  0  0  0  0
  149.7386  140.7282  156.7113 C   0  0  0  0  0  0  0  0  0  0  0  0
  148.7602  141.7187  157.2975 C   0  0  0  0  0  0  0  0  0  0  0  0
  150.2438  141.9962  157.3577 C   0  0  0  0  0  0  0  0  0  0  0  0
  151.1770  140.1968  154.8044 O   0  0  0  0  0  0  0  0  0  0  0  0
  153.4111  137.7014  154.9598 H   0  0  0  0  0  0  0  0  0  0  0  0
  153.7042  139.4309  155.1186 H   0  0  0  0  0  0  0  0  0  0  0  0
  153.0930  138.7772  153.6002 H   0  0  0  0  0  0  0  0  0  0  0  0
  151.6025  138.8010  156.2694 H   0  0  0  0  0  0  0  0  0  0  0  0
  150.6864  137.8708  153.4956 H   0  0  0  0  0  0  0  0  0  0  0  0
  150.9450  136.8492  154.8919 H   0  0  0  0  0  0  0  0  0  0  0  0
  147.9301  134.0183  155.7848 H   0  0  0  0  0  0  0  0  0  0  0  0
  144.9804  138.3273  152.0187 H   0  0  0  0  0  0  0  0  0  0  0  0
  143.4355  135.7574  153.4319 H   0  0  0  0  0  0  0  0  0  0  0  0
  143.7737  136.1223  151.7612 H   0  0  0  0  0  0  0  0  0  0  0  0
  143.8489  133.0471  153.8056 H   0  0  0  0  0  0  0  0  0  0  0  0
  142.4827  133.4996  152.1701 H   0  0  0  0  0  0  0  0  0  0  0  0
  143.2053  134.0938  150.6970 H   0  0  0  0  0  0  0  0  0  0  0  0
  143.8634  131.4151  152.0279 H   0  0  0  0  0  0  0  0  0  0  0  0
  142.9925  131.6656  150.5298 H   0  0  0  0  0  0  0  0  0  0  0  0
  146.2441  131.8907  152.0726 H   0  0  0  0  0  0  0  0  0  0  0  0
  147.0055  132.4692  150.6063 H   0  0  0  0  0  0  0  0  0  0  0  0
  145.8727  134.6299  150.7522 H   0  0  0  0  0  0  0  0  0  0  0  0
  146.7159  134.3342  152.2518 H   0  0  0  0  0  0  0  0  0  0  0  0
  148.7833  139.5866  153.5738 H   0  0  0  0  0  0  0  0  0  0  0  0
  147.8494  139.6977  155.0567 H   0  0  0  0  0  0  0  0  0  0  0  0
  149.6215  141.4907  154.7388 H   0  0  0  0  0  0  0  0  0  0  0  0
  149.8875  139.8190  157.2905 H   0  0  0  0  0  0  0  0  0  0  0  0
  148.1654  142.3158  156.6091 H   0  0  0  0  0  0  0  0  0  0  0  0
  148.2623  141.4427  158.2248 H   0  0  0  0  0  0  0  0  0  0  0  0
  150.7344  141.9055  158.3247 H   0  0  0  0  0  0  0  0  0  0  0  0
  150.6367  142.7745  156.7066 H   0  0  0  0  0  0  0  0  0  0  0  0
  1  2  1  0  0  0  0
  1 28  1  0  0  0  0
  1 29  1  0  0  0  0
  1 30  1  0  0  0  0
  2 27  1  0  0  0  0
  2  3  1  0  0  0  0
  2 31  1  0  0  0  0
  3  4  1  0  0  0  0
  3 32  1  0  0  0  0
  3 33  1  0  0  0  0
  4  5  1  0  0  0  0
  4 22  1  0  0  0  0
  5 10  1  0  0  0  0
  5  6  2  0  0  0  0
  6  7  1  0  0  0  0
  7  8  2  0  0  0  0
  7 34  1  0  0  0  0
  8  9  1  0  0  0  0
  9 13  1  0  0  0  0
  9 10  2  0  0  0  0
 10 11  1  0  0  0  0
 11 12  2  0  0  0  0
 12 13  1  0  0  0  0
 12 35  1  0  0  0  0
 13 14  1  0  0  0  0
 14 15  1  0  0  0  0
 14 36  1  0  0  0  0
 14 37  1  0  0  0  0
 15 21  1  0  0  0  0
 15 16  1  0  0  0  0
 15 17  1  0  0  0  0
 16 38  1  0  0  0  0
 17 18  1  0  0  0  0
 17 39  1  0  0  0  0
 17 40  1  0  0  0  0
 18 19  1  0  0  0  0
 18 41  1  0  0  0  0
 18 42  1  0  0  0  0
 19 20  1  0  0  0  0
 20 21  1  0  0  0  0
 20 43  1  0  0  0  0
 20 44  1  0  0  0  0
 21 45  1  0  0  0  0
 21 46  1  0  0  0  0
 22 23  1  0  0  0  0
 22 47  1  0  0  0  0
 22 48  1  0  0  0  0
 23 24  1  0  0  0  0
 23 27  1  0  0  0  0
 23 49  1  0  0  0  0
 24 26  1  0  0  0  0
 24 25  1  0  0  0  0
 24 50  1  0  0  0  0
 25 26  1  0  0  0  0
 25 51  1  0  0  0  0
 25 52  1  0  0  0  0
 26 53  1  0  0  0  0
 26 54  1  0  0  0  0
M  END
> <s_m_source_file>
AV-unprocessed.smi

> <i_m_source_file_index>
239

> <i_lp_mmshare_version>
43012

> <i_f3d_flags>
0

> <s_epik_input>
W0NIMl0xW0NIMl1bQ0hdMVtDQEBIXShPMilbQ0gyXU4oW0NIMl1bQ0BIXTJbQ0gzXSljKG5bY0hdbjMpYyhjMzQpbltjSF1uNFtDSDJdQzUoW09IXSlbQ0gyXVtDSDJdT1tDSDJdW0NIMl01

> <s_epik_cmdline>
J2VwaWtfcHl0aG9uJywgJy1waCcsICc3LjAnLCAnLXRuJywgJzgnLCAnLW1hJywgJzIwMCcsICctbWV0YWxfYmluZGluZycsICctaW1hZScsICc8aW5maWxlLm1hZT4nLCAnLW9tYWUnLCAnPG91dGZpbGUubWFlPic=

> <r_lp_tautomer_probability>
1

> <r_epik_Ionization_Penalty>
9.13091e-05

> <r_epik_Ionization_Penalty_Charging>
0

> <r_epik_Ionization_Penalty_Neutral>
9.13091e-05

> <r_epik_State_Penalty>
-0

> <r_epik_Charging_Adjusted_Penalty>
0

> <i_epik_Tot_Q>
0

> <i_epik_Tot_abs_Q>
0

> <r_epik_Metal_State_Penalty>
-0

> <b_epik_Metal_Only>
0

> <s_lp_Force_Field>
OPLS_2005

> <r_lp_Energy>
39.9708

> <b_lp_Chiralities_Consistent>
1

> <s_lp_Variant>
AV-unprocessed.smi:239-1

> <Gold.Version>
5.8.1

> <Gold.Id.Protein>
6NUR|6NUR_protein|mol2

> <Gold.PLP.Fitness>
44.6836

> <Gold.PLP.PLP>
-33.9529

> <Gold.PLP.part.hbond>
-1.9634

> <Gold.PLP.part.metal>
0.0000

> <Gold.PLP.part.buried>
-3.7447

> <Gold.PLP.part.nonpolar>
-29.7952

> <Gold.PLP.part.repulsive>
0.7177

> <Gold.PLP.ligand.clash>
0.0000

> <Gold.PLP.ligand.torsion>
1.3164

> <Gold.PLP.Chemscore.Hbond>
1.9913

> <Gold.PLP.Chemscore.CHOScore>
1.9998

> <Gold.PLP.Chemscore.Metal>
0.0000

> <Gold.Chemscore.Hbonds>
donor molecule, donor type, donor heavy atom, donor atom, acceptor molecule, acceptor atom, score
      L1  H    16    38       P1 10957  1.00
      P1  H  7989  7998       L1    27  1.00
      L1  C    12    35       P1 10171  1.00
      L1  C    12    35       P1 10175  1.00

> <Gold.PLP.Chemscore.Internal.Correction>
1.3903

> <Gold.Rescore>
     Score         DG    S(hbond)    S(metal)    S(lipo)     H(rot)  DE(clash)    DE(int)     intcor
     13.28     -15.84       1.85        0.00      84.68       2.24       0.03       2.52       ----

> <Gold.Chemscore.Fitness>
13.2824

> <Gold.Chemscore.DG>
-15.8353

> <Gold.Chemscore.ZeroCoef>
-5.4800

> <Gold.Chemscore.Hbond>
1.8499

> <Gold.Chemscore.Metal>
0.0000

> <Gold.Chemscore.Lipo>
84.6810

> <Gold.Chemscore.Internal_Hbond>
0.0000

> <Gold.Chemscore.DEClash>
0.0335

> <Gold.Chemscore.DEInternal>
2.5194

> <Gold.Chemscore.Rot>
2.2387

> <Gold.Chemscore.Internal.Correction>
   9.000000E+99

> <Gold.Chemscore.Hbonds>
donor molecule, donor type, donor heavy atom, donor atom, acceptor molecule, acceptor atom, score
      L1  H    16    38       P1 10957  0.92
      P1  H  7989  7998       L1    27  0.84

> <Gold.Chemscore.Hbond.Weighted>
-6.1787

> <Gold.Chemscore.Metal.Weighted>
-0.0000

> <Gold.Chemscore.Lipo.Weighted>
-9.9077

> <Gold.Chemscore.Internal_Hbond.Weighted>
0.0000

> <Gold.Chemscore.DEClash.Weighted>
0.0335

> <Gold.Chemscore.DEInternal.Weighted>
2.5194

> <Gold.Chemscore.Rot.Weighted>
5.7311

> <Gold.Chemscore.Internal.Correction.Weighted>
   9.000000E+99

> <Gold.Protein.RotatedTorsions>
[ 6907 6896 6895 6894 ] final  163.93 input  -60.11 | X-H torsion
[ 7974 7965 7964 7962 ] final   47.04 input  175.53 | X-H torsion
[ 8008 7997 7996 7995 ] final   34.97 input   59.86 | X-H torsion
[ 10167 10162 10161 10158 ] final   18.36 input  -65.29 | X-H torsion
[ 10718 10713 10712 10709 ] final  162.79 input   66.30 | X-H torsion
[ 10763 10752 10751 10750 ] final  -33.67 input  -60.55 | X-H torsion
[ 11005 11000 10999 10996 ] final  -90.80 input  -57.11 | X-H torsion

> <Gold.Protein.ActiveResidues>
 VAL166  LYS551  ARG553  GLY616  TRP617  ASP618  TYR619  PRO620  LYS621  CYS622 
 ASP623  PHE694  ASN695  SER759  ASP760  ASP761  ALA762  ILE779  LEU786  VAL792 
 PHE793  MET794  SER795  GLU796  ALA797  LYS798  CYS799  TRP800  GLU811  SER814 

> <Gold.Protein.RotatedAtoms>
  151.9177  133.3577  159.3885 H   0  0  0  0  0  0  0  0  0  0  0  0  # atno 6907 bound_to 6896
  150.7044  134.4667  159.5415 H   0  0  0  0  0  0  0  0  0  0  0  0  # atno 6908 bound_to 6896
  152.2285  134.8345  160.0527 H   0  0  0  0  0  0  0  0  0  0  0  0  # atno 6909 bound_to 6896
  146.0335  139.4792  142.9823 H   0  0  0  0  0  0  0  0  0  0  0  0  # atno 7974 bound_to 7965
  155.1635  140.3285  155.4406 H   0  0  0  0  0  0  0  0  0  0  0  0  # atno 8008 bound_to 7997
  156.2534  140.1956  156.6692 H   0  0  0  0  0  0  0  0  0  0  0  0  # atno 8009 bound_to 7997
  154.6388  140.0573  156.9807 H   0  0  0  0  0  0  0  0  0  0  0  0  # atno 8010 bound_to 7997
  140.5659  143.9252  150.6676 H   0  0  0  0  0  0  0  0  0  0  0  0  # atno 10167 bound_to 10162
  157.1176  131.0484  151.2429 H   0  0  0  0  0  0  0  0  0  0  0  0  # atno 10718 bound_to 10713
  153.8340  135.6863  153.4811 H   0  0  0  0  0  0  0  0  0  0  0  0  # atno 10763 bound_to 10752
  153.1493  135.4624  154.9611 H   0  0  0  0  0  0  0  0  0  0  0  0  # atno 10764 bound_to 10752
  154.7874  135.3289  154.7801 H   0  0  0  0  0  0  0  0  0  0  0  0  # atno 10765 bound_to 10752
  141.1558  133.7715  156.9789 H   0  0  0  0  0  0  0  0  0  0  0  0  # atno 11005 bound_to 11000
  145.7002  141.0138  143.1508 LP  0  0  0  0  0  0  0  0  0  0  0  0  # atno 17320 bound_to 7965
  144.7041  139.8636  143.7435 LP  0  0  0  0  0  0  0  0  0  0  0  0  # atno 17321 bound_to 7965
  140.2714  143.3453  152.1234 LP  0  0  0  0  0  0  0  0  0  0  0  0  # atno 17342 bound_to 10162
  139.5093  144.6864  151.5876 LP  0  0  0  0  0  0  0  0  0  0  0  0  # atno 17343 bound_to 10162
  157.4505  130.7595  149.7147 LP  0  0  0  0  0  0  0  0  0  0  0  0  # atno 17370 bound_to 10713
  155.9836  130.3999  150.3356 LP  0  0  0  0  0  0  0  0  0  0  0  0  # atno 17371 bound_to 10713
  140.1079  134.9495  157.2022 LP  0  0  0  0  0  0  0  0  0  0  0  0  # atno 17394 bound_to 11000
  140.3232  134.2893  155.7242 LP  0  0  0  0  0  0  0  0  0  0  0  0  # atno 17395 bound_to 11000

$$$$
