AV-unprocessed.smi:1851|AV-procd|sdf|7524|dock8
  -GOLD-   22720 9233D 1   1.00000     0.00000
 Structure written by MMmdl.
 40 42  0  0  0  0  0  0  0  0  2 V2000
  150.3094  139.4580  153.9846 O   0  0  0  0  0  0  0  0  0  0  0  0
  149.5209  140.1119  154.6654 C   0  0  0  0  0  0  0  0  0  0  0  0
  149.8782  140.8838  155.7015 N   0  0  0  0  0  0  0  0  0  0  0  0
  151.2520  141.1067  156.1428 C   0  0  0  0  0  0  0  0  0  0  0  0
  151.3925  142.1086  157.2504 C   0  0  0  0  0  0  0  0  0  0  0  0
  150.9532  143.4011  157.2519 N   0  3  0  0  0  0  0  0  0  0  0  0
  151.2768  144.0123  158.4637 C   0  0  0  0  0  0  0  0  0  0  0  0
  151.0429  145.3039  158.9256 C   0  0  0  0  0  0  0  0  0  0  0  0
  151.5118  145.6069  160.2210 C   0  0  0  0  0  0  0  0  0  0  0  0
  152.1834  144.6443  161.0028 C   0  0  0  0  0  0  0  0  0  0  0  0
  152.4127  143.3374  160.5241 C   0  0  0  0  0  0  0  0  0  0  0  0
  151.9445  143.0466  159.2432 C   0  0  0  0  0  0  0  0  0  0  0  0
  151.9868  141.8894  158.4585 N   0  0  0  0  0  0  0  0  0  0  0  0
  152.6209  140.6805  158.9989 C   0  0  0  0  0  0  0  0  0  0  0  0
  154.0496  140.9498  159.4859 C   0  0  0  0  0  0  0  0  0  0  0  0
  154.8258  139.7818  159.2626 O   0  0  0  0  0  0  0  0  0  0  0  0
  154.7313  138.7515  160.1731 C   0  0  0  0  0  0  0  0  0  0  0  0
  154.4362  139.1025  161.5067 C   0  0  0  0  0  0  0  0  0  0  0  0
  154.3214  138.1149  162.5039 C   0  0  0  0  0  0  0  0  0  0  0  0
  154.5020  136.7588  162.1747 C   0  0  0  0  0  0  0  0  0  0  0  0
  154.3619  135.5465  163.3943 Cl  0  0  0  0  0  0  0  0  0  0  0  0
  154.7966  136.3940  160.8476 C   0  0  0  0  0  0  0  0  0  0  0  0
  154.9110  137.3822  159.8503 C   0  0  0  0  0  0  0  0  0  0  0  0
  148.4314  140.1400  154.5102 H   0  0  0  0  0  0  0  0  0  0  0  0
  149.1513  141.3775  156.1993 H   0  0  0  0  0  0  0  0  0  0  0  0
  151.7064  140.1651  156.4550 H   0  0  0  0  0  0  0  0  0  0  0  0
  151.8253  141.4560  155.2838 H   0  0  0  0  0  0  0  0  0  0  0  0
  150.5292  146.0427  158.3282 H   0  0  0  0  0  0  0  0  0  0  0  0
  151.3538  146.5974  160.6228 H   0  0  0  0  0  0  0  0  0  0  0  0
  152.5298  144.9131  161.9902 H   0  0  0  0  0  0  0  0  0  0  0  0
  152.9287  142.6073  161.1299 H   0  0  0  0  0  0  0  0  0  0  0  0
  151.9985  140.2847  159.8022 H   0  0  0  0  0  0  0  0  0  0  0  0
  152.6276  139.9252  158.2125 H   0  0  0  0  0  0  0  0  0  0  0  0
  154.4727  141.7945  158.9398 H   0  0  0  0  0  0  0  0  0  0  0  0
  154.0406  141.1988  160.5482 H   0  0  0  0  0  0  0  0  0  0  0  0
  154.2963  140.1411  161.7685 H   0  0  0  0  0  0  0  0  0  0  0  0
  154.0946  138.4006  163.5207 H   0  0  0  0  0  0  0  0  0  0  0  0
  154.9353  135.3538  160.5917 H   0  0  0  0  0  0  0  0  0  0  0  0
  155.1375  137.0628  158.8446 H   0  0  0  0  0  0  0  0  0  0  0  0
  150.4627  143.8285  156.4769 H   0  0  0  0  0  0  0  0  0  0  0  0
  1  2  2  0  0  0  0
  2  3  1  0  0  0  0
  2 24  1  0  0  0  0
  3  4  1  0  0  0  0
  3 25  1  0  0  0  0
  4  5  1  0  0  0  0
  4 26  1  0  0  0  0
  4 27  1  0  0  0  0
  5 13  1  0  0  0  0
  5  6  2  0  0  0  0
  6  7  1  0  0  0  0
  6 40  1  0  0  0  0
  7 12  2  0  0  0  0
  7  8  1  0  0  0  0
  8  9  2  0  0  0  0
  8 28  1  0  0  0  0
  9 10  1  0  0  0  0
  9 29  1  0  0  0  0
 10 11  2  0  0  0  0
 10 30  1  0  0  0  0
 11 12  1  0  0  0  0
 11 31  1  0  0  0  0
 12 13  1  0  0  0  0
 13 14  1  0  0  0  0
 14 15  1  0  0  0  0
 14 32  1  0  0  0  0
 14 33  1  0  0  0  0
 15 16  1  0  0  0  0
 15 34  1  0  0  0  0
 15 35  1  0  0  0  0
 16 17  1  0  0  0  0
 17 23  1  0  0  0  0
 17 18  2  0  0  0  0
 18 19  1  0  0  0  0
 18 36  1  0  0  0  0
 19 20  2  0  0  0  0
 19 37  1  0  0  0  0
 20 21  1  0  0  0  0
 20 22  1  0  0  0  0
 22 23  2  0  0  0  0
 22 38  1  0  0  0  0
 23 39  1  0  0  0  0
M  CHG  1   6   1
M  END
> <s_m_source_file>
AV-unprocessed.smi

> <i_m_source_file_index>
1851

> <i_lp_mmshare_version>
43012

> <i_f3d_flags>
0

> <s_epik_input>
Tz1bQ0hdW05IXVtDSDJdYyhuMSluKGMoYzEyKVtjSF1bY0hdW2NIXVtjSF0yKVtDSDJdW0NIMl1PYzNbY0hdW2NIXWMoQ2wpW2NIXVtjSF0z

> <s_epik_cmdline>
J2VwaWtfcHl0aG9uJywgJy1waCcsICc3LjAnLCAnLXRuJywgJzgnLCAnLW1hJywgJzIwMCcsICctbWV0YWxfYmluZGluZycsICctaW1hZScsICc8aW5maWxlLm1hZT4nLCAnLW9tYWUnLCAnPG91dGZpbGUubWFlPic=

> <r_lp_tautomer_probability>
1

> <r_epik_Ionization_Penalty>
1.32442

> <r_epik_Ionization_Penalty_Charging>
1.32442

> <r_epik_Ionization_Penalty_Neutral>
7.38905e-08

> <r_epik_State_Penalty>
1.4003

> <r_epik_Charging_Adjusted_Penalty>
2.72472

> <i_epik_Tot_Q>
1

> <i_epik_Tot_abs_Q>
1

> <r_epik_Metal_State_Penalty>
1.46133

> <b_epik_Metal_Only>
0

> <s_lp_Force_Field>
OPLS_2005

> <r_lp_Energy>
15.621

> <b_lp_Chiralities_Consistent>
1

> <s_lp_Variant>
AV-unprocessed.smi:1851-2

> <Gold.Version>
5.8.1

> <Gold.Id.Protein>
6NUR|6NUR_protein|mol2

> <Gold.PLP.Fitness>
58.3078

> <Gold.PLP.PLP>
-47.7795

> <Gold.PLP.part.hbond>
-3.0000

> <Gold.PLP.part.metal>
0.0000

> <Gold.PLP.part.buried>
-6.6272

> <Gold.PLP.part.nonpolar>
-37.7882

> <Gold.PLP.part.repulsive>
1.1617

> <Gold.PLP.ligand.clash>
0.0000

> <Gold.PLP.ligand.torsion>
0.7593

> <Gold.PLP.Chemscore.Hbond>
4.0000

> <Gold.PLP.Chemscore.CHOScore>
0.0000

> <Gold.PLP.Chemscore.Metal>
0.0000

> <Gold.Chemscore.Hbonds>
donor molecule, donor type, donor heavy atom, donor atom, acceptor molecule, acceptor atom, score
      L1  H     6    40       P1  8028  2.00
      P1  H  7989  7998       L1     1  1.00
      P1  H  7997  8008       L1    16  1.00

> <Gold.PLP.Chemscore.Internal.Correction>
0.0470

> <Gold.Rescore>
     Score         DG    S(hbond)    S(metal)    S(lipo)     H(rot)  DE(clash)    DE(int)     intcor
     20.76     -22.39       2.56        0.00     125.78       2.49       0.92       0.71       ----

> <Gold.Chemscore.Fitness>
20.7607

> <Gold.Chemscore.DG>
-22.3870

> <Gold.Chemscore.ZeroCoef>
-5.4800

> <Gold.Chemscore.Hbond>
2.5609

> <Gold.Chemscore.Metal>
0.0000

> <Gold.Chemscore.Lipo>
125.7811

> <Gold.Chemscore.Internal_Hbond>
0.0000

> <Gold.Chemscore.DEClash>
0.9207

> <Gold.Chemscore.DEInternal>
0.7055

> <Gold.Chemscore.Rot>
2.4854

> <Gold.Chemscore.Internal.Correction>
   9.000000E+99

> <Gold.Chemscore.Hbonds>
donor molecule, donor type, donor heavy atom, donor atom, acceptor molecule, acceptor atom, score
      L1  H     6    40       P1  8028  0.95
      P1  H  7989  7998       L1     1  0.28
      P1  H  7997  8008       L1    16  0.25

> <Gold.Chemscore.Hbond.Weighted>
-8.5533

> <Gold.Chemscore.Metal.Weighted>
-0.0000

> <Gold.Chemscore.Lipo.Weighted>
-14.7164

> <Gold.Chemscore.Internal_Hbond.Weighted>
0.0000

> <Gold.Chemscore.DEClash.Weighted>
0.9207

> <Gold.Chemscore.DEInternal.Weighted>
0.7055

> <Gold.Chemscore.Rot.Weighted>
6.3627

> <Gold.Chemscore.Internal.Correction.Weighted>
   9.000000E+99

> <Gold.Protein.RotatedTorsions>
[ 6907 6896 6895 6894 ] final  -97.91 input  -60.11 | X-H torsion
[ 7974 7965 7964 7962 ] final -132.25 input  175.53 | X-H torsion
[ 8008 7997 7996 7995 ] final -131.30 input   59.86 | X-H torsion
[ 10167 10162 10161 10158 ] final   69.92 input  -65.29 | X-H torsion
[ 10718 10713 10712 10709 ] final -167.61 input   66.30 | X-H torsion
[ 10763 10752 10751 10750 ] final   92.11 input  -60.55 | X-H torsion
[ 11005 11000 10999 10996 ] final   82.07 input  -57.11 | X-H torsion

> <Gold.Protein.ActiveResidues>
 VAL166  LYS551  ARG553  GLY616  TRP617  ASP618  TYR619  PRO620  LYS621  CYS622 
 ASP623  PHE694  ASN695  SER759  ASP760  ASP761  ALA762  ILE779  LEU786  VAL792 
 PHE793  MET794  SER795  GLU796  ALA797  LYS798  CYS799  TRP800  GLU811  SER814 

> <Gold.Protein.RotatedAtoms>
  150.7030  134.1276  159.4057 H   0  0  0  0  0  0  0  0  0  0  0  0  # atno 6907 bound_to 6896
  151.9262  135.0274  160.0535 H   0  0  0  0  0  0  0  0  0  0  0  0  # atno 6908 bound_to 6896
  152.2214  133.4951  159.5201 H   0  0  0  0  0  0  0  0  0  0  0  0  # atno 6909 bound_to 6896
  144.9303  140.7120  143.4910 H   0  0  0  0  0  0  0  0  0  0  0  0  # atno 7974 bound_to 7965
  155.3101  140.0457  157.3034 H   0  0  0  0  0  0  0  0  0  0  0  0  # atno 8008 bound_to 7997
  154.5438  140.2296  155.8564 H   0  0  0  0  0  0  0  0  0  0  0  0  # atno 8009 bound_to 7997
  156.1905  140.3052  155.9330 H   0  0  0  0  0  0  0  0  0  0  0  0  # atno 8010 bound_to 7997
  140.0625  144.5220  150.7284 H   0  0  0  0  0  0  0  0  0  0  0  0  # atno 10167 bound_to 10162
  156.6849  130.9136  151.3062 H   0  0  0  0  0  0  0  0  0  0  0  0  # atno 10718 bound_to 10713
  153.2156  135.4373  155.0430 H   0  0  0  0  0  0  0  0  0  0  0  0  # atno 10763 bound_to 10752
  154.8223  135.3343  154.7004 H   0  0  0  0  0  0  0  0  0  0  0  0  # atno 10764 bound_to 10752
  153.7439  135.7003  153.5016 H   0  0  0  0  0  0  0  0  0  0  0  0  # atno 10765 bound_to 10752
  139.9076  134.8044  156.2125 H   0  0  0  0  0  0  0  0  0  0  0  0  # atno 11005 bound_to 11000
  145.3153  139.1805  143.4617 LP  0  0  0  0  0  0  0  0  0  0  0  0  # atno 17320 bound_to 7965
  146.3244  140.3163  142.8630 LP  0  0  0  0  0  0  0  0  0  0  0  0  # atno 17321 bound_to 7965
  140.7165  143.2549  151.4418 LP  0  0  0  0  0  0  0  0  0  0  0  0  # atno 17342 bound_to 10162
  139.5885  144.1552  152.2058 LP  0  0  0  0  0  0  0  0  0  0  0  0  # atno 17343 bound_to 10162
  157.7030  130.9354  150.0843 LP  0  0  0  0  0  0  0  0  0  0  0  0  # atno 17370 bound_to 10713
  156.1840  130.3651  149.8998 LP  0  0  0  0  0  0  0  0  0  0  0  0  # atno 17371 bound_to 10713
  141.0456  133.6915  156.1677 LP  0  0  0  0  0  0  0  0  0  0  0  0  # atno 17394 bound_to 11000
  140.6889  134.4687  157.5589 LP  0  0  0  0  0  0  0  0  0  0  0  0  # atno 17395 bound_to 11000

$$$$
