AV-unprocessed.smi:30|AV-procd|sdf|193|dock8
  -GOLD-   2262015463D 1   1.00000     0.00000
 Structure written by MMmdl.
 54 57  0  0  0  0  0  0  0  0  1 V2000
  149.9649  134.6732  157.6508 O   0  0  0  0  0  0  0  0  0  0  0  0
  150.2840  134.6975  156.4612 C   0  0  0  0  0  0  0  0  0  0  0  0
  150.0901  133.4560  155.5759 C   0  0  0  0  0  0  0  0  0  0  0  0
  148.6734  133.1695  155.2589 N   0  0  0  0  0  0  0  0  0  0  0  0
  147.7875  132.8851  156.3271 C   0  0  0  0  0  0  0  0  0  0  0  0
  148.1708  132.9053  157.4978 O   0  0  0  0  0  0  0  0  0  0  0  0
  146.4222  132.5539  155.9391 C   0  0  0  0  0  0  0  0  0  0  0  0
  145.5247  132.2207  156.8823 F   0  0  0  0  0  0  0  0  0  0  0  0
  146.0480  132.5578  154.6434 C   0  0  0  0  0  0  0  0  0  0  0  0
  146.9071  132.8923  153.6110 N   0  0  0  0  0  0  0  0  0  0  0  0
  146.4849  132.7893  152.1593 C   0  0  2  0  0  0  0  0  0  0  0  0
  145.4435  133.8375  151.7295 C   0  0  0  0  0  0  0  0  0  0  0  0
  144.1711  133.0168  151.6512 C   0  0  0  0  0  0  0  0  0  0  0  0
  144.7115  131.6519  151.2432 C   0  0  0  0  0  0  0  0  0  0  0  0
  145.9237  131.5241  151.9746 O   0  0  0  0  0  0  0  0  0  0  0  0
  148.2667  133.1476  153.9030 C   0  0  0  0  0  0  0  0  0  0  0  0
  149.0811  133.3456  152.9986 O   0  0  0  0  0  0  0  0  0  0  0  0
  150.8430  135.7552  155.8454 N   0  0  0  0  0  0  0  0  0  0  0  0
  151.1216  137.0438  156.3755 C   0  0  0  0  0  0  0  0  0  0  0  0
  151.0771  138.1348  155.4851 C   0  0  0  0  0  0  0  0  0  0  0  0
  151.3196  139.4426  155.9461 C   0  0  0  0  0  0  0  0  0  0  0  0
  151.5982  139.6896  157.3050 C   0  0  0  0  0  0  0  0  0  0  0  0
  151.8202  141.0001  157.6708 O   0  0  0  0  0  0  0  0  0  0  0  0
  152.4380  141.2542  158.9253 C   0  0  0  0  0  0  0  0  0  0  0  0
  152.2789  142.7054  159.3325 C   0  0  0  0  0  0  0  0  0  0  0  0
  152.2390  143.0505  160.6996 C   0  0  0  0  0  0  0  0  0  0  0  0
  152.0855  144.3963  161.0861 C   0  0  0  0  0  0  0  0  0  0  0  0
  151.9700  145.4017  160.1065 C   0  0  0  0  0  0  0  0  0  0  0  0
  152.0078  145.0606  158.7406 C   0  0  0  0  0  0  0  0  0  0  0  0
  152.1606  143.7148  158.3536 C   0  0  0  0  0  0  0  0  0  0  0  0
  151.6273  138.5941  158.2035 C   0  0  0  0  0  0  0  0  0  0  0  0
  151.3865  137.2848  157.7442 C   0  0  0  0  0  0  0  0  0  0  0  0
  150.6673  133.5857  154.6587 H   0  0  0  0  0  0  0  0  0  0  0  0
  150.5666  132.6068  156.0680 H   0  0  0  0  0  0  0  0  0  0  0  0
  145.0305  132.2761  154.4250 H   0  0  0  0  0  0  0  0  0  0  0  0
  147.3956  132.9005  151.5689 H   0  0  0  0  0  0  0  0  0  0  0  0
  145.3957  134.7014  152.3922 H   0  0  0  0  0  0  0  0  0  0  0  0
  145.7134  134.1942  150.7347 H   0  0  0  0  0  0  0  0  0  0  0  0
  143.6908  132.9518  152.6275 H   0  0  0  0  0  0  0  0  0  0  0  0
  143.4473  133.4174  150.9416 H   0  0  0  0  0  0  0  0  0  0  0  0
  144.0202  130.8393  151.4667 H   0  0  0  0  0  0  0  0  0  0  0  0
  144.9333  131.6307  150.1750 H   0  0  0  0  0  0  0  0  0  0  0  0
  151.1525  135.6009  154.8968 H   0  0  0  0  0  0  0  0  0  0  0  0
  150.8609  137.9730  154.4391 H   0  0  0  0  0  0  0  0  0  0  0  0
  151.2878  140.2665  155.2482 H   0  0  0  0  0  0  0  0  0  0  0  0
  152.0035  140.6122  159.6936 H   0  0  0  0  0  0  0  0  0  0  0  0
  153.5051  141.0335  158.8707 H   0  0  0  0  0  0  0  0  0  0  0  0
  152.3266  142.2826  161.4543 H   0  0  0  0  0  0  0  0  0  0  0  0
  152.0562  144.6573  162.1337 H   0  0  0  0  0  0  0  0  0  0  0  0
  151.8524  146.4336  160.4029 H   0  0  0  0  0  0  0  0  0  0  0  0
  151.9197  145.8313  157.9892 H   0  0  0  0  0  0  0  0  0  0  0  0
  152.1881  143.4625  157.3036 H   0  0  0  0  0  0  0  0  0  0  0  0
  151.8269  138.7317  159.2552 H   0  0  0  0  0  0  0  0  0  0  0  0
  151.3941  136.4816  158.4649 H   0  0  0  0  0  0  0  0  0  0  0  0
  1  2  2  0  0  0  0
  2  3  1  0  0  0  0
  2 18  1  0  0  0  0
  3  4  1  0  0  0  0
  3 33  1  0  0  0  0
  3 34  1  0  0  0  0
  4 16  1  0  0  0  0
  4  5  1  0  0  0  0
  5  6  2  0  0  0  0
  5  7  1  0  0  0  0
  7  8  1  0  0  0  0
  7  9  2  0  0  0  0
  9 10  1  0  0  0  0
  9 35  1  0  0  0  0
 10 11  1  0  0  0  0
 10 16  1  0  0  0  0
 11 15  1  0  0  0  0
 11 12  1  0  0  0  0
 11 36  1  0  0  0  0
 12 13  1  0  0  0  0
 12 37  1  0  0  0  0
 12 38  1  0  0  0  0
 13 14  1  0  0  0  0
 13 39  1  0  0  0  0
 13 40  1  0  0  0  0
 14 15  1  0  0  0  0
 14 41  1  0  0  0  0
 14 42  1  0  0  0  0
 16 17  2  0  0  0  0
 18 19  1  0  0  0  0
 18 43  1  0  0  0  0
 19 32  1  0  0  0  0
 19 20  2  0  0  0  0
 20 21  1  0  0  0  0
 20 44  1  0  0  0  0
 21 22  2  0  0  0  0
 21 45  1  0  0  0  0
 22 23  1  0  0  0  0
 22 31  1  0  0  0  0
 23 24  1  0  0  0  0
 24 25  1  0  0  0  0
 24 46  1  0  0  0  0
 24 47  1  0  0  0  0
 25 30  1  0  0  0  0
 25 26  2  0  0  0  0
 26 27  1  0  0  0  0
 26 48  1  0  0  0  0
 27 28  2  0  0  0  0
 27 49  1  0  0  0  0
 28 29  1  0  0  0  0
 28 50  1  0  0  0  0
 29 30  2  0  0  0  0
 29 51  1  0  0  0  0
 30 52  1  0  0  0  0
 31 32  2  0  0  0  0
 31 53  1  0  0  0  0
 32 54  1  0  0  0  0
M  END
> <s_m_source_file>
AV-unprocessed.smi

> <i_m_source_file_index>
30

> <i_lp_mmshare_version>
43012

> <i_f3d_flags>
0

> <s_epik_input>
TzFbQ0gyXVtDSDJdW0NIMl1bQ0BIXTFuKGMyPU8pW2NIXWMoRiljKD1PKW4yW0NIMl1DKD1PKVtOSF1jM1tjSF1bY0hdYyhbY0hdW2NIXTMpT1tDSDJdYzRbY0hdW2NIXVtjSF1bY0hdW2NIXTQ=

> <s_epik_cmdline>
J2VwaWtfcHl0aG9uJywgJy1waCcsICc3LjAnLCAnLXRuJywgJzgnLCAnLW1hJywgJzIwMCcsICctbWV0YWxfYmluZGluZycsICctaW1hZScsICc8aW5maWxlLm1hZT4nLCAnLW9tYWUnLCAnPG91dGZpbGUubWFlPic=

> <r_lp_tautomer_probability>
1

> <r_epik_Ionization_Penalty>
1.04818e-05

> <r_epik_Ionization_Penalty_Charging>
3.88729e-08

> <r_epik_Ionization_Penalty_Neutral>
1.04429e-05

> <r_epik_State_Penalty>
-0

> <r_epik_Charging_Adjusted_Penalty>
3.88729e-08

> <i_epik_Tot_Q>
0

> <i_epik_Tot_abs_Q>
0

> <r_epik_Metal_State_Penalty>
-0

> <b_epik_Metal_Only>
0

> <s_epik_Chemistry_Notes>
This compound contains an acetal/aminal-like group ( X-CH(R)-Y where X, Y are N, S, or O) that may be acid/base labile, releasing an aldehyde.

> <s_lp_Force_Field>
OPLS_2005

> <r_lp_Energy>
43.3432

> <b_lp_Chiralities_Consistent>
1

> <s_lp_Variant>
AV-unprocessed.smi:30-1

> <Gold.Version>
5.8.1

> <Gold.Id.Protein>
6NUR|6NUR_protein|mol2

> <Gold.PLP.Fitness>
56.6937

> <Gold.PLP.PLP>
-53.0273

> <Gold.PLP.part.hbond>
-1.0000

> <Gold.PLP.part.metal>
0.0000

> <Gold.PLP.part.buried>
-7.6695

> <Gold.PLP.part.nonpolar>
-45.9157

> <Gold.PLP.part.repulsive>
0.9053

> <Gold.PLP.ligand.clash>
0.0000

> <Gold.PLP.ligand.torsion>
1.0306

> <Gold.PLP.Chemscore.Hbond>
0.8480

> <Gold.PLP.Chemscore.CHOScore>
1.0000

> <Gold.PLP.Chemscore.Metal>
0.0000

> <Gold.Chemscore.Hbonds>
donor molecule, donor type, donor heavy atom, donor atom, acceptor molecule, acceptor atom, score
      P1  H  6896  6909       L1     1  0.86
      L1  C     9    35       P1 10957  1.00

> <Gold.PLP.Chemscore.Internal.Correction>
0.1836

> <Gold.Rescore>
     Score         DG    S(hbond)    S(metal)    S(lipo)     H(rot)  DE(clash)    DE(int)     intcor
     15.45     -18.96       0.94        0.00     136.39       2.20       0.06       3.46       ----

> <Gold.Chemscore.Fitness>
15.4472

> <Gold.Chemscore.DG>
-18.9612

> <Gold.Chemscore.ZeroCoef>
-5.4800

> <Gold.Chemscore.Hbond>
0.9411

> <Gold.Chemscore.Metal>
0.0000

> <Gold.Chemscore.Lipo>
136.3904

> <Gold.Chemscore.Internal_Hbond>
0.0000

> <Gold.Chemscore.DEClash>
0.0566

> <Gold.Chemscore.DEInternal>
3.4574

> <Gold.Chemscore.Rot>
2.1952

> <Gold.Chemscore.Internal.Correction>
   9.000000E+99

> <Gold.Chemscore.Hbonds>
donor molecule, donor type, donor heavy atom, donor atom, acceptor molecule, acceptor atom, score
      P1  H  6896  6909       L1     1  0.85

> <Gold.Chemscore.Hbond.Weighted>
-3.1432

> <Gold.Chemscore.Metal.Weighted>
-0.0000

> <Gold.Chemscore.Lipo.Weighted>
-15.9577

> <Gold.Chemscore.Internal_Hbond.Weighted>
0.0000

> <Gold.Chemscore.DEClash.Weighted>
0.0566

> <Gold.Chemscore.DEInternal.Weighted>
3.4574

> <Gold.Chemscore.Rot.Weighted>
5.6196

> <Gold.Chemscore.Internal.Correction.Weighted>
   9.000000E+99

> <Gold.Protein.RotatedTorsions>
[ 6907 6896 6895 6894 ] final   19.24 input  -60.11 | X-H torsion
[ 7974 7965 7964 7962 ] final  -43.92 input  175.53 | X-H torsion
[ 8008 7997 7996 7995 ] final  -92.24 input   59.86 | X-H torsion
[ 10167 10162 10161 10158 ] final  -85.34 input  -65.29 | X-H torsion
[ 10718 10713 10712 10709 ] final  146.04 input   66.30 | X-H torsion
[ 10763 10752 10751 10750 ] final  150.14 input  -60.55 | X-H torsion
[ 11005 11000 10999 10996 ] final -166.47 input  -57.11 | X-H torsion

> <Gold.Protein.ActiveResidues>
 VAL166  LYS551  ARG553  GLY616  TRP617  ASP618  TYR619  PRO620  LYS621  CYS622 
 ASP623  PHE694  ASN695  SER759  ASP760  ASP761  ALA762  ILE779  LEU786  VAL792 
 PHE793  MET794  SER795  GLU796  ALA797  LYS798  CYS799  TRP800  GLU811  SER814 

> <Gold.Protein.RotatedAtoms>
  151.8777  135.0465  160.0485 H   0  0  0  0  0  0  0  0  0  0  0  0  # atno 6907 bound_to 6896
  152.2537  133.5233  159.5349 H   0  0  0  0  0  0  0  0  0  0  0  0  # atno 6908 bound_to 6896
  150.7092  134.0841  159.3951 H   0  0  0  0  0  0  0  0  0  0  0  0  # atno 6909 bound_to 6896
  145.9972  140.7115  142.9288 H   0  0  0  0  0  0  0  0  0  0  0  0  # atno 7974 bound_to 7965
  154.7207  140.0511  157.0636 H   0  0  0  0  0  0  0  0  0  0  0  0  # atno 8008 bound_to 7997
  155.0431  140.3171  155.4698 H   0  0  0  0  0  0  0  0  0  0  0  0  # atno 8009 bound_to 7997
  156.2815  140.2129  156.5555 H   0  0  0  0  0  0  0  0  0  0  0  0  # atno 8010 bound_to 7997
  140.4047  143.2648  151.9097 H   0  0  0  0  0  0  0  0  0  0  0  0  # atno 10167 bound_to 10162
  157.3380  131.0931  151.1107 H   0  0  0  0  0  0  0  0  0  0  0  0  # atno 10718 bound_to 10713
  154.0826  135.2858  155.3287 H   0  0  0  0  0  0  0  0  0  0  0  0  # atno 10763 bound_to 10752
  154.6673  135.5312  153.8097 H   0  0  0  0  0  0  0  0  0  0  0  0  # atno 10764 bound_to 10752
  153.0443  135.6549  154.1000 H   0  0  0  0  0  0  0  0  0  0  0  0  # atno 10765 bound_to 10752
  140.5641  134.5304  157.5149 H   0  0  0  0  0  0  0  0  0  0  0  0  # atno 11005 bound_to 11000
  144.6907  140.3170  143.7238 LP  0  0  0  0  0  0  0  0  0  0  0  0  # atno 17320 bound_to 7965
  145.7542  139.1803  143.2304 LP  0  0  0  0  0  0  0  0  0  0  0  0  # atno 17321 bound_to 7965
  139.4784  144.5598  151.8256 LP  0  0  0  0  0  0  0  0  0  0  0  0  # atno 17342 bound_to 10162
  140.4702  144.1597  150.5917 LP  0  0  0  0  0  0  0  0  0  0  0  0  # atno 17343 bound_to 10162
  157.2330  130.6534  149.5857 LP  0  0  0  0  0  0  0  0  0  0  0  0  # atno 17370 bound_to 10713
  155.9704  130.4593  150.6030 LP  0  0  0  0  0  0  0  0  0  0  0  0  # atno 17371 bound_to 10713
  139.9393  134.7816  156.0719 LP  0  0  0  0  0  0  0  0  0  0  0  0  # atno 17394 bound_to 11000
  141.1096  133.6648  156.2947 LP  0  0  0  0  0  0  0  0  0  0  0  0  # atno 17395 bound_to 11000

$$$$
