AV-unprocessed.smi:813|AV-procd|sdf|3818|dock3
  -GOLD-   22720 1253D 1   1.00000     0.00000
 Structure written by MMmdl.
 36 37  0  0  0  0  0  0  0  0  1 V2000
  152.2373  139.1821  155.9315 C   0  0  0  0  0  0  0  0  0  0  0  0
  151.4884  139.6337  157.1966 C   0  0  1  0  0  0  0  0  0  0  0  0
  151.0671  138.4388  157.9264 N   0  0  0  0  0  0  0  0  0  0  0  0
  149.8992  138.3014  158.5726 C   0  0  0  0  0  0  0  0  0  0  0  0
  149.0363  139.1793  158.6070 O   0  0  0  0  0  0  0  0  0  0  0  0
  149.8093  137.0980  159.1657 N   0  0  0  0  0  0  0  0  0  0  0  0
  148.7306  136.5692  159.9232 C   0  0  0  0  0  0  0  0  0  0  0  0
  147.9361  137.3135  160.7083 N   0  0  0  0  0  0  0  0  0  0  0  0
  146.9583  136.5494  161.3323 N   0  0  0  0  0  0  0  0  0  0  0  0
  147.0537  135.2605  160.9941 C   0  0  0  0  0  0  0  0  0  0  0  0
  148.3469  134.8540  159.8791 S   0  0  0  0  0  0  0  0  0  0  0  0
  152.4506  140.4706  158.0538 C   0  0  0  0  0  0  0  0  0  0  0  0
  153.4865  139.9737  158.4992 O   0  0  0  0  0  0  0  0  0  0  0  0
  152.0936  141.7454  158.2703 N   0  0  0  0  0  0  0  0  0  0  0  0
  152.8479  142.7072  159.0694 C   0  0  0  0  0  0  0  0  0  0  0  0
  153.1006  142.1786  160.4953 C   0  0  0  0  0  0  0  0  0  0  0  0
  152.1422  142.9503  161.4009 C   0  0  0  0  0  0  0  0  0  0  0  0
  152.0277  144.3183  160.7362 C   0  0  0  0  0  0  0  0  0  0  0  0
  152.0559  144.0196  159.2353 C   0  0  0  0  0  0  0  0  0  0  0  0
  152.5687  140.0376  155.3414 H   0  0  0  0  0  0  0  0  0  0  0  0
  151.5912  138.5797  155.2919 H   0  0  0  0  0  0  0  0  0  0  0  0
  153.1164  138.5812  156.1699 H   0  0  0  0  0  0  0  0  0  0  0  0
  150.6158  140.2257  156.9129 H   0  0  0  0  0  0  0  0  0  0  0  0
  151.7222  137.6713  157.9549 H   0  0  0  0  0  0  0  0  0  0  0  0
  150.6044  136.4857  159.0595 H   0  0  0  0  0  0  0  0  0  0  0  0
  146.3572  134.5439  161.4033 H   0  0  0  0  0  0  0  0  0  0  0  0
  151.2260  142.0686  157.8674 H   0  0  0  0  0  0  0  0  0  0  0  0
  153.8020  142.9140  158.5807 H   0  0  0  0  0  0  0  0  0  0  0  0
  152.9758  141.0990  160.5916 H   0  0  0  0  0  0  0  0  0  0  0  0
  154.1271  142.4076  160.7843 H   0  0  0  0  0  0  0  0  0  0  0  0
  151.1675  142.4604  161.4071 H   0  0  0  0  0  0  0  0  0  0  0  0
  152.4940  143.0099  162.4310 H   0  0  0  0  0  0  0  0  0  0  0  0
  151.1307  144.8592  161.0392 H   0  0  0  0  0  0  0  0  0  0  0  0
  152.8910  144.9282  161.0057 H   0  0  0  0  0  0  0  0  0  0  0  0
  152.5003  144.8398  158.6707 H   0  0  0  0  0  0  0  0  0  0  0  0
  151.0322  143.9023  158.8761 H   0  0  0  0  0  0  0  0  0  0  0  0
  1  2  1  0  0  0  0
  1 20  1  0  0  0  0
  1 21  1  0  0  0  0
  1 22  1  0  0  0  0
  2  3  1  0  0  0  0
  2 12  1  0  0  0  0
  2 23  1  0  0  0  0
  3  4  1  0  0  0  0
  3 24  1  0  0  0  0
  4  5  2  0  0  0  0
  4  6  1  0  0  0  0
  6  7  1  0  0  0  0
  6 25  1  0  0  0  0
  7 11  1  0  0  0  0
  7  8  2  0  0  0  0
  8  9  1  0  0  0  0
  9 10  2  0  0  0  0
 10 11  1  0  0  0  0
 10 26  1  0  0  0  0
 12 13  2  0  0  0  0
 12 14  1  0  0  0  0
 14 15  1  0  0  0  0
 14 27  1  0  0  0  0
 15 19  1  0  0  0  0
 15 16  1  0  0  0  0
 15 28  1  0  0  0  0
 16 17  1  0  0  0  0
 16 29  1  0  0  0  0
 16 30  1  0  0  0  0
 17 18  1  0  0  0  0
 17 31  1  0  0  0  0
 17 32  1  0  0  0  0
 18 19  1  0  0  0  0
 18 33  1  0  0  0  0
 18 34  1  0  0  0  0
 19 35  1  0  0  0  0
 19 36  1  0  0  0  0
M  END
> <s_m_source_file>
AV-unprocessed.smi

> <i_m_source_file_index>
813

> <i_lp_mmshare_version>
43012

> <i_f3d_flags>
0

> <s_epik_input>
W0NIMl0xW0NIMl1bQ0gyXVtDSDJdW0NIXTFbTkhdQyg9TylbQ0BIXShbQ0gzXSlbTkhdQyg9TylbTkhdYzJubltjSF1zMg==

> <s_epik_cmdline>
J2VwaWtfcHl0aG9uJywgJy1waCcsICc3LjAnLCAnLXRuJywgJzgnLCAnLW1hJywgJzIwMCcsICctbWV0YWxfYmluZGluZycsICctaW1hZScsICc8aW5maWxlLm1hZT4nLCAnLW9tYWUnLCAnPG91dGZpbGUubWFlPic=

> <r_lp_tautomer_probability>
1

> <r_epik_Ionization_Penalty>
0.00321247

> <r_epik_Ionization_Penalty_Charging>
0

> <r_epik_Ionization_Penalty_Neutral>
0.00321247

> <r_epik_State_Penalty>
-0

> <r_epik_Charging_Adjusted_Penalty>
0

> <i_epik_Tot_Q>
0

> <i_epik_Tot_abs_Q>
0

> <r_epik_Metal_State_Penalty>
0.363968

> <b_epik_Metal_Only>
0

> <s_lp_Force_Field>
OPLS_2005

> <r_lp_Energy>
15.9742

> <b_lp_Chiralities_Consistent>
1

> <s_lp_Variant>
AV-unprocessed.smi:813-2

> <Gold.Version>
5.8.1

> <Gold.Id.Protein>
6NUR|6NUR_protein|mol2

> <Gold.PLP.Fitness>
41.2161

> <Gold.PLP.PLP>
-34.4187

> <Gold.PLP.part.hbond>
-4.4678

> <Gold.PLP.part.metal>
0.0000

> <Gold.PLP.part.buried>
-1.0959

> <Gold.PLP.part.nonpolar>
-28.6106

> <Gold.PLP.part.repulsive>
0.3180

> <Gold.PLP.ligand.clash>
0.0000

> <Gold.PLP.ligand.torsion>
0.5801

> <Gold.PLP.Chemscore.Hbond>
2.6480

> <Gold.PLP.Chemscore.CHOScore>
0.0000

> <Gold.PLP.Chemscore.Metal>
0.0000

> <Gold.Chemscore.Hbonds>
donor molecule, donor type, donor heavy atom, donor atom, acceptor molecule, acceptor atom, score
      P1  H  6931  6943       L1     8  0.77
      P1  H  6934  6947       L1     8  0.77
      P1  H  7997  8009       L1    13  0.99

> <Gold.PLP.Chemscore.Internal.Correction>
0.0136

> <Gold.Rescore>
     Score         DG    S(hbond)    S(metal)    S(lipo)     H(rot)  DE(clash)    DE(int)     intcor
     16.83     -17.60       2.23        0.00      78.06       1.74       0.06       0.71       ----

> <Gold.Chemscore.Fitness>
16.8278

> <Gold.Chemscore.DG>
-17.5955

> <Gold.Chemscore.ZeroCoef>
-5.4800

> <Gold.Chemscore.Hbond>
2.2292

> <Gold.Chemscore.Metal>
0.0000

> <Gold.Chemscore.Lipo>
78.0572

> <Gold.Chemscore.Internal_Hbond>
0.0000

> <Gold.Chemscore.DEClash>
0.0580

> <Gold.Chemscore.DEInternal>
0.7097

> <Gold.Chemscore.Rot>
1.7433

> <Gold.Chemscore.Internal.Correction>
   9.000000E+99

> <Gold.Chemscore.Hbonds>
donor molecule, donor type, donor heavy atom, donor atom, acceptor molecule, acceptor atom, score
      P1  H  6931  6943       L1     8  0.45
      P1  H  6934  6947       L1     8  0.19
      P1  H  7997  8009       L1    13  0.24

> <Gold.Chemscore.Hbond.Weighted>
-7.4455

> <Gold.Chemscore.Metal.Weighted>
-0.0000

> <Gold.Chemscore.Lipo.Weighted>
-9.1327

> <Gold.Chemscore.Internal_Hbond.Weighted>
0.0000

> <Gold.Chemscore.DEClash.Weighted>
0.0580

> <Gold.Chemscore.DEInternal.Weighted>
0.7097

> <Gold.Chemscore.Rot.Weighted>
4.4628

> <Gold.Chemscore.Internal.Correction.Weighted>
   9.000000E+99

> <Gold.Protein.RotatedTorsions>
[ 6907 6896 6895 6894 ] final  134.32 input  -60.11 | X-H torsion
[ 7974 7965 7964 7962 ] final  154.42 input  175.53 | X-H torsion
[ 8008 7997 7996 7995 ] final  158.69 input   59.86 | X-H torsion
[ 10167 10162 10161 10158 ] final  138.22 input  -65.29 | X-H torsion
[ 10718 10713 10712 10709 ] final -115.47 input   66.30 | X-H torsion
[ 10763 10752 10751 10750 ] final -165.70 input  -60.55 | X-H torsion
[ 11005 11000 10999 10996 ] final  -56.51 input  -57.11 | X-H torsion

> <Gold.Protein.ActiveResidues>
 VAL166  LYS551  ARG553  GLY616  TRP617  ASP618  TYR619  PRO620  LYS621  CYS622 
 ASP623  PHE694  ASN695  SER759  ASP760  ASP761  ALA762  ILE779  LEU786  VAL792 
 PHE793  MET794  SER795  GLU796  ALA797  LYS798  CYS799  TRP800  GLU811  SER814 

> <Gold.Protein.RotatedAtoms>
  152.3125  133.5768  159.5690 H   0  0  0  0  0  0  0  0  0  0  0  0  # atno 6907 bound_to 6896
  150.7330  134.0131  159.3685 H   0  0  0  0  0  0  0  0  0  0  0  0  # atno 6908 bound_to 6896
  151.8022  135.0706  160.0453 H   0  0  0  0  0  0  0  0  0  0  0  0  # atno 6909 bound_to 6896
  144.8090  139.6931  143.6149 H   0  0  0  0  0  0  0  0  0  0  0  0  # atno 7974 bound_to 7965
  156.2287  140.1851  156.7298 H   0  0  0  0  0  0  0  0  0  0  0  0  # atno 8008 bound_to 7997
  154.5985  140.0639  156.9364 H   0  0  0  0  0  0  0  0  0  0  0  0  # atno 8009 bound_to 7997
  155.2215  140.3308  155.4317 H   0  0  0  0  0  0  0  0  0  0  0  0  # atno 8010 bound_to 7997
  139.5118  144.6365  151.5682 H   0  0  0  0  0  0  0  0  0  0  0  0  # atno 10167 bound_to 10162
  156.0898  130.6083  150.8910 H   0  0  0  0  0  0  0  0  0  0  0  0  # atno 10718 bound_to 10713
  154.6906  135.2970  154.9484 H   0  0  0  0  0  0  0  0  0  0  0  0  # atno 10763 bound_to 10752
  154.0449  135.6652  153.4798 H   0  0  0  0  0  0  0  0  0  0  0  0  # atno 10764 bound_to 10752
  153.0610  135.5116  154.7997 H   0  0  0  0  0  0  0  0  0  0  0  0  # atno 10765 bound_to 10752
  141.1123  133.6610  156.4630 H   0  0  0  0  0  0  0  0  0  0  0  0  # atno 11005 bound_to 11000
  146.2386  139.5955  142.9507 LP  0  0  0  0  0  0  0  0  0  0  0  0  # atno 17320 bound_to 7965
  145.5369  141.0423  143.2352 LP  0  0  0  0  0  0  0  0  0  0  0  0  # atno 17321 bound_to 7965
  140.6116  143.9425  150.6458 LP  0  0  0  0  0  0  0  0  0  0  0  0  # atno 17342 bound_to 10162
  140.2669  143.3483  152.1273 LP  0  0  0  0  0  0  0  0  0  0  0  0  # atno 17343 bound_to 10162
  157.6044  131.0940  150.8905 LP  0  0  0  0  0  0  0  0  0  0  0  0  # atno 17370 bound_to 10713
  156.9056  130.5262  149.5281 LP  0  0  0  0  0  0  0  0  0  0  0  0  # atno 17371 bound_to 10713
  140.4741  134.6726  157.5142 LP  0  0  0  0  0  0  0  0  0  0  0  0  # atno 17394 bound_to 11000
  140.0024  134.6816  155.9509 LP  0  0  0  0  0  0  0  0  0  0  0  0  # atno 17395 bound_to 11000

$$$$
