AV-unprocessed.smi:1517|AV-procd|sdf|6120|dock1
  -GOLD-   22720 6253D 1   1.00000     0.00000
 Structure written by MMmdl.
 42 44  0  0  0  0  0  0  0  0  2 V2000
  149.3892  139.2071  153.2726 O   0  0  0  0  0  0  0  0  0  0  0  0
  148.5039  140.0653  153.9566 C   0  0  0  0  0  0  0  0  0  0  0  0
  149.2882  141.2458  154.5389 C   0  0  0  0  0  0  0  0  0  0  0  0
  150.4740  140.7969  155.2490 N   0  0  0  0  0  0  0  0  0  0  0  0
  150.9564  141.5955  156.2913 C   0  0  0  0  0  0  0  0  0  0  0  0
  150.6876  142.9153  156.4773 N   0  3  0  0  0  0  0  0  0  0  0  0
  151.3373  143.3363  157.6412 C   0  0  0  0  0  0  0  0  0  0  0  0
  151.3747  144.5817  158.2605 C   0  0  0  0  0  0  0  0  0  0  0  0
  152.1283  144.6760  159.4490 C   0  0  0  0  0  0  0  0  0  0  0  0
  152.8076  143.5603  159.9802 C   0  0  0  0  0  0  0  0  0  0  0  0
  152.7653  142.3014  159.3456 C   0  0  0  0  0  0  0  0  0  0  0  0
  152.0215  142.2148  158.1695 C   0  0  0  0  0  0  0  0  0  0  0  0
  151.7591  141.1537  157.2942 N   0  0  0  0  0  0  0  0  0  0  0  0
  152.3103  139.8198  157.5753 C   0  0  0  0  0  0  0  0  0  0  0  0
  151.2477  138.8526  158.1346 C   0  0  2  0  0  0  0  0  0  0  0  0
  151.7153  138.3593  159.3732 O   0  0  0  0  0  0  0  0  0  0  0  0
  150.9151  137.7360  157.1503 C   0  0  0  0  0  0  0  0  0  0  0  0
  151.5171  137.7095  155.8720 C   0  0  0  0  0  0  0  0  0  0  0  0
  151.1866  136.6982  154.9498 C   0  0  0  0  0  0  0  0  0  0  0  0
  150.2480  135.7084  155.2965 C   0  0  0  0  0  0  0  0  0  0  0  0
  149.9247  134.7402  154.4070 F   0  0  0  0  0  0  0  0  0  0  0  0
  149.6420  135.7293  156.5667 C   0  0  0  0  0  0  0  0  0  0  0  0
  149.9723  136.7388  157.4918 C   0  0  0  0  0  0  0  0  0  0  0  0
  149.3644  136.7544  158.7026 F   0  0  0  0  0  0  0  0  0  0  0  0
  149.3622  139.4188  152.3517 H   0  0  0  0  0  0  0  0  0  0  0  0
  147.7391  140.4127  153.2615 H   0  0  0  0  0  0  0  0  0  0  0  0
  148.0016  139.5054  154.7461 H   0  0  0  0  0  0  0  0  0  0  0  0
  149.5849  141.9261  153.7394 H   0  0  0  0  0  0  0  0  0  0  0  0
  148.6530  141.8079  155.2253 H   0  0  0  0  0  0  0  0  0  0  0  0
  150.6786  139.8079  155.2616 H   0  0  0  0  0  0  0  0  0  0  0  0
  150.8531  145.4380  157.8586 H   0  0  0  0  0  0  0  0  0  0  0  0
  152.1847  145.6238  159.9651 H   0  0  0  0  0  0  0  0  0  0  0  0
  153.3728  143.6715  160.8943 H   0  0  0  0  0  0  0  0  0  0  0  0
  153.2874  141.4527  159.7622 H   0  0  0  0  0  0  0  0  0  0  0  0
  152.7387  139.4300  156.6507 H   0  0  0  0  0  0  0  0  0  0  0  0
  153.1415  139.9346  158.2722 H   0  0  0  0  0  0  0  0  0  0  0  0
  150.3386  139.4114  158.3581 H   0  0  0  0  0  0  0  0  0  0  0  0
  152.4158  137.7467  159.2080 H   0  0  0  0  0  0  0  0  0  0  0  0
  152.2290  138.4712  155.5892 H   0  0  0  0  0  0  0  0  0  0  0  0
  151.6491  136.6856  153.9738 H   0  0  0  0  0  0  0  0  0  0  0  0
  148.9182  134.9721  156.8302 H   0  0  0  0  0  0  0  0  0  0  0  0
  150.1084  143.4752  155.8652 H   0  0  0  0  0  0  0  0  0  0  0  0
  1  2  1  0  0  0  0
  1 25  1  0  0  0  0
  2  3  1  0  0  0  0
  2 26  1  0  0  0  0
  2 27  1  0  0  0  0
  3  4  1  0  0  0  0
  3 28  1  0  0  0  0
  3 29  1  0  0  0  0
  4  5  1  0  0  0  0
  4 30  1  0  0  0  0
  5 13  1  0  0  0  0
  5  6  2  0  0  0  0
  6  7  1  0  0  0  0
  6 42  1  0  0  0  0
  7 12  2  0  0  0  0
  7  8  1  0  0  0  0
  8  9  2  0  0  0  0
  8 31  1  0  0  0  0
  9 10  1  0  0  0  0
  9 32  1  0  0  0  0
 10 11  2  0  0  0  0
 10 33  1  0  0  0  0
 11 12  1  0  0  0  0
 11 34  1  0  0  0  0
 12 13  1  0  0  0  0
 13 14  1  0  0  0  0
 14 15  1  0  0  0  0
 14 35  1  0  0  0  0
 14 36  1  0  0  0  0
 15 16  1  0  0  0  0
 15 17  1  0  0  0  0
 15 37  1  0  0  0  0
 16 38  1  0  0  0  0
 17 23  1  0  0  0  0
 17 18  2  0  0  0  0
 18 19  1  0  0  0  0
 18 39  1  0  0  0  0
 19 20  2  0  0  0  0
 19 40  1  0  0  0  0
 20 21  1  0  0  0  0
 20 22  1  0  0  0  0
 22 23  2  0  0  0  0
 22 41  1  0  0  0  0
 23 24  1  0  0  0  0
M  CHG  1   6   1
M  END
> <s_m_source_file>
AV-unprocessed.smi

> <i_m_source_file_index>
1517

> <i_lp_mmshare_version>
43012

> <i_f3d_flags>
0

> <s_epik_input>
W09IXVtDSDJdW0NIMl1bTkhdYyhuMSluKGMoYzEyKVtjSF1bY0hdW2NIXVtjSF0yKVtDSDJdW0NASF0oW09IXSljM1tjSF1bY0hdYyhGKVtjSF1jM0Y=

> <s_epik_cmdline>
J2VwaWtfcHl0aG9uJywgJy1waCcsICc3LjAnLCAnLXRuJywgJzgnLCAnLW1hJywgJzIwMCcsICctbWV0YWxfYmluZGluZycsICctaW1hZScsICc8aW5maWxlLm1hZT4nLCAnLW9tYWUnLCAnPG91dGZpbGUubWFlPic=

> <r_epik_Ionization_Penalty>
0.0688096

> <r_epik_Ionization_Penalty_Charging>
0.0688055

> <r_epik_Ionization_Penalty_Neutral>
4.12262e-06

> <r_epik_State_Penalty>
0.0602293

> <r_epik_Charging_Adjusted_Penalty>
0.129035

> <i_epik_Tot_Q>
1

> <i_epik_Tot_abs_Q>
1

> <r_epik_Metal_State_Penalty>
2.77411

> <b_epik_Metal_Only>
0

> <s_lp_Force_Field>
OPLS_2005

> <r_lp_Energy>
18.8563

> <b_lp_Chiralities_Consistent>
1

> <s_lp_Variant>
AV-unprocessed.smi:1517-1

> <Gold.Version>
5.8.1

> <Gold.Id.Protein>
6NUR|6NUR_protein|mol2

> <Gold.PLP.Fitness>
52.5460

> <Gold.PLP.PLP>
-45.7316

> <Gold.PLP.part.hbond>
-2.1646

> <Gold.PLP.part.metal>
0.0000

> <Gold.PLP.part.buried>
-6.1100

> <Gold.PLP.part.nonpolar>
-37.2973

> <Gold.PLP.part.repulsive>
0.3375

> <Gold.PLP.ligand.clash>
0.0000

> <Gold.PLP.ligand.torsion>
1.1633

> <Gold.PLP.Chemscore.Hbond>
3.0000

> <Gold.PLP.Chemscore.CHOScore>
0.0000

> <Gold.PLP.Chemscore.Metal>
0.0000

> <Gold.Chemscore.Hbonds>
donor molecule, donor type, donor heavy atom, donor atom, acceptor molecule, acceptor atom, score
      L1  H     1    25       P1  7957  0.57
      L1  H     6    42       P1  8028  1.98

> <Gold.PLP.Chemscore.Internal.Correction>
0.1410

> <Gold.Rescore>
     Score         DG    S(hbond)    S(metal)    S(lipo)     H(rot)  DE(clash)    DE(int)     intcor
     15.75     -17.13       1.98        0.00     114.89       3.29       0.04       1.34       ----

> <Gold.Chemscore.Fitness>
15.7519

> <Gold.Chemscore.DG>
-17.1282

> <Gold.Chemscore.ZeroCoef>
-5.4800

> <Gold.Chemscore.Hbond>
1.9826

> <Gold.Chemscore.Metal>
0.0000

> <Gold.Chemscore.Lipo>
114.8912

> <Gold.Chemscore.Internal_Hbond>
0.0000

> <Gold.Chemscore.DEClash>
0.0371

> <Gold.Chemscore.DEInternal>
1.3391

> <Gold.Chemscore.Rot>
3.2874

> <Gold.Chemscore.Internal.Correction>
   9.000000E+99

> <Gold.Chemscore.Hbonds>
donor molecule, donor type, donor heavy atom, donor atom, acceptor molecule, acceptor atom, score
      L1  H     1    25       P1  7957  0.56
      L1  H     6    42       P1  8028  0.94

> <Gold.Chemscore.Hbond.Weighted>
-6.6217

> <Gold.Chemscore.Metal.Weighted>
-0.0000

> <Gold.Chemscore.Lipo.Weighted>
-13.4423

> <Gold.Chemscore.Internal_Hbond.Weighted>
0.0000

> <Gold.Chemscore.DEClash.Weighted>
0.0371

> <Gold.Chemscore.DEInternal.Weighted>
1.3391

> <Gold.Chemscore.Rot.Weighted>
8.4158

> <Gold.Chemscore.Internal.Correction.Weighted>
   9.000000E+99

> <Gold.Protein.RotatedTorsions>
[ 6907 6896 6895 6894 ] final  132.65 input  -60.11 | X-H torsion
[ 7974 7965 7964 7962 ] final -159.68 input  175.53 | X-H torsion
[ 8008 7997 7996 7995 ] final  164.90 input   59.86 | X-H torsion
[ 10167 10162 10161 10158 ] final   93.53 input  -65.29 | X-H torsion
[ 10718 10713 10712 10709 ] final   14.63 input   66.30 | X-H torsion
[ 10763 10752 10751 10750 ] final  -59.60 input  -60.55 | X-H torsion
[ 11005 11000 10999 10996 ] final  163.32 input  -57.11 | X-H torsion

> <Gold.Protein.ActiveResidues>
 VAL166  LYS551  ARG553  GLY616  TRP617  ASP618  TYR619  PRO620  LYS621  CYS622 
 ASP623  PHE694  ASN695  SER759  ASP760  ASP761  ALA762  ILE779  LEU786  VAL792 
 PHE793  MET794  SER795  GLU796  ALA797  LYS798  CYS799  TRP800  GLU811  SER814 

> <Gold.Protein.RotatedAtoms>
  152.3302  133.5950  159.5804 H   0  0  0  0  0  0  0  0  0  0  0  0  # atno 6907 bound_to 6896
  150.7419  133.9879  159.3606 H   0  0  0  0  0  0  0  0  0  0  0  0  # atno 6908 bound_to 6896
  151.7755  135.0776  160.0417 H   0  0  0  0  0  0  0  0  0  0  0  0  # atno 6909 bound_to 6896
  144.7456  140.3650  143.6088 H   0  0  0  0  0  0  0  0  0  0  0  0  # atno 7974 bound_to 7965
  156.1843  140.1684  156.8215 H   0  0  0  0  0  0  0  0  0  0  0  0  # atno 8008 bound_to 7997
  154.5396  140.0739  156.8520 H   0  0  0  0  0  0  0  0  0  0  0  0  # atno 8009 bound_to 7997
  155.3241  140.3375  155.4243 H   0  0  0  0  0  0  0  0  0  0  0  0  # atno 8010 bound_to 7997
  139.8171  144.6748  150.9566 H   0  0  0  0  0  0  0  0  0  0  0  0  # atno 10167 bound_to 10162
  157.0419  130.6234  149.5752 H   0  0  0  0  0  0  0  0  0  0  0  0  # atno 10718 bound_to 10713
  154.2562  135.6317  153.5258 H   0  0  0  0  0  0  0  0  0  0  0  0  # atno 10763 bound_to 10752
  152.9903  135.5576  154.5754 H   0  0  0  0  0  0  0  0  0  0  0  0  # atno 10764 bound_to 10752
  154.5292  135.2887  155.1170 H   0  0  0  0  0  0  0  0  0  0  0  0  # atno 10765 bound_to 10752
  140.2346  134.8097  157.3351 H   0  0  0  0  0  0  0  0  0  0  0  0  # atno 11005 bound_to 11000
  145.7137  139.1691  143.2524 LP  0  0  0  0  0  0  0  0  0  0  0  0  # atno 17320 bound_to 7965
  146.1328  140.7163  142.9404 LP  0  0  0  0  0  0  0  0  0  0  0  0  # atno 17321 bound_to 7965
  140.7815  143.4128  151.0965 LP  0  0  0  0  0  0  0  0  0  0  0  0  # atno 17342 bound_to 10162
  139.7791  143.8382  152.3134 LP  0  0  0  0  0  0  0  0  0  0  0  0  # atno 17343 bound_to 10162
  156.0035  130.5118  150.7749 LP  0  0  0  0  0  0  0  0  0  0  0  0  # atno 17370 bound_to 10713
  157.5098  131.0924  151.0212 LP  0  0  0  0  0  0  0  0  0  0  0  0  # atno 17371 bound_to 10713
  140.1715  134.4603  155.7828 LP  0  0  0  0  0  0  0  0  0  0  0  0  # atno 17394 bound_to 11000
  141.2215  133.6944  156.7715 LP  0  0  0  0  0  0  0  0  0  0  0  0  # atno 17395 bound_to 11000

$$$$
