AV-unprocessed.smi:102|AV-procd|sdf|971|dock8
  -GOLD-   2262017523D 1   1.00000     0.00000
 Structure written by MMmdl.
 43 44  0  0  0  0  0  0  0  0  2 V2000
  150.2808  130.1461  157.5295 C   0  0  0  0  0  0  0  0  0  0  0  0
  150.0789  131.4895  158.2182 C   0  0  0  0  0  0  0  0  0  0  0  0
  150.9153  132.3890  158.1318 O   0  0  0  0  0  0  0  0  0  0  0  0
  148.9237  131.5488  158.8972 O   0  0  0  0  0  0  0  0  0  0  0  0
  148.5870  132.7321  159.6024 C   0  0  0  0  0  0  0  0  0  0  0  0
  148.2489  133.8461  158.6025 C   0  0  2  0  0  0  0  0  0  0  0  0
  149.4218  134.3912  158.0195 O   0  0  0  0  0  0  0  0  0  0  0  0
  149.0910  135.6218  157.4604 C   0  0  2  0  0  0  0  0  0  0  0  0
  150.3147  136.5088  157.5358 N   0  0  0  0  0  0  0  0  0  0  0  0
  150.8912  136.9930  156.3729 C   0  0  0  0  0  0  0  0  0  0  0  0
  151.9342  137.8466  156.4062 C   0  0  0  0  0  0  0  0  0  0  0  0
  152.4700  138.2942  155.2576 F   0  0  0  0  0  0  0  0  0  0  0  0
  152.4594  138.2936  157.6939 C   0  0  0  0  0  0  0  0  0  0  0  0
  153.4318  139.0465  157.7212 O   0  0  0  0  0  0  0  0  0  0  0  0
  151.8321  137.8549  158.8230 N   0  5  0  0  0  0  0  0  0  0  0  0
  150.7642  137.0039  158.7926 C   0  0  0  0  0  0  0  0  0  0  0  0
  150.1743  136.6423  159.8105 O   0  0  0  0  0  0  0  0  0  0  0  0
  147.8817  136.1901  158.2309 C   0  0  1  0  0  0  0  0  0  0  0  0
  146.7800  136.4105  157.3600 O   0  0  0  0  0  0  0  0  0  0  0  0
  146.9070  137.2426  156.3115 C   0  0  0  0  0  0  0  0  0  0  0  0
  145.6061  137.4022  155.5364 C   0  0  0  0  0  0  0  0  0  0  0  0
  147.9344  137.8298  155.9718 O   0  0  0  0  0  0  0  0  0  0  0  0
  147.5464  135.0673  159.2080 C   0  0  2  0  0  0  0  0  0  0  0  0
  148.0566  135.3677  160.5033 O   0  0  0  0  0  0  0  0  0  0  0  0
  147.5290  136.3698  161.2274 C   0  0  0  0  0  0  0  0  0  0  0  0
  148.0188  136.3620  162.6692 C   0  0  0  0  0  0  0  0  0  0  0  0
  146.7428  137.2243  160.8184 O   0  0  0  0  0  0  0  0  0  0  0  0
  149.3828  129.8614  156.9806 H   0  0  0  0  0  0  0  0  0  0  0  0
  150.4977  129.3725  158.2663 H   0  0  0  0  0  0  0  0  0  0  0  0
  151.1126  130.1972  156.8266 H   0  0  0  0  0  0  0  0  0  0  0  0
  147.7209  132.5284  160.2337 H   0  0  0  0  0  0  0  0  0  0  0  0
  149.4058  133.0382  160.2552 H   0  0  0  0  0  0  0  0  0  0  0  0
  147.6204  133.4492  157.8029 H   0  0  0  0  0  0  0  0  0  0  0  0
  148.8457  135.4825  156.4073 H   0  0  0  0  0  0  0  0  0  0  0  0
  150.4984  136.6987  155.4120 H   0  0  0  0  0  0  0  0  0  0  0  0
  148.1288  137.1117  158.7582 H   0  0  0  0  0  0  0  0  0  0  0  0
  144.8182  137.7748  156.1911 H   0  0  0  0  0  0  0  0  0  0  0  0
  145.2917  136.4432  155.1244 H   0  0  0  0  0  0  0  0  0  0  0  0
  145.7345  138.1064  154.7142 H   0  0  0  0  0  0  0  0  0  0  0  0
  146.4718  134.8883  159.2736 H   0  0  0  0  0  0  0  0  0  0  0  0
  147.7275  135.4346  163.1626 H   0  0  0  0  0  0  0  0  0  0  0  0
  147.5928  137.1982  163.2241 H   0  0  0  0  0  0  0  0  0  0  0  0
  149.1054  136.4449  162.6992 H   0  0  0  0  0  0  0  0  0  0  0  0
  1  2  1  0  0  0  0
  1 28  1  0  0  0  0
  1 29  1  0  0  0  0
  1 30  1  0  0  0  0
  2  3  2  0  0  0  0
  2  4  1  0  0  0  0
  4  5  1  0  0  0  0
  5  6  1  0  0  0  0
  5 31  1  0  0  0  0
  5 32  1  0  0  0  0
  6 23  1  0  0  0  0
  6  7  1  0  0  0  0
  6 33  1  0  0  0  0
  7  8  1  0  0  0  0
  8  9  1  0  0  0  0
  8 18  1  0  0  0  0
  8 34  1  0  0  0  0
  9 16  1  0  0  0  0
  9 10  1  0  0  0  0
 10 11  2  0  0  0  0
 10 35  1  0  0  0  0
 11 12  1  0  0  0  0
 11 13  1  0  0  0  0
 13 14  2  0  0  0  0
 13 15  1  0  0  0  0
 15 16  1  0  0  0  0
 16 17  2  0  0  0  0
 18 19  1  0  0  0  0
 18 23  1  0  0  0  0
 18 36  1  0  0  0  0
 19 20  1  0  0  0  0
 20 21  1  0  0  0  0
 20 22  2  0  0  0  0
 21 37  1  0  0  0  0
 21 38  1  0  0  0  0
 21 39  1  0  0  0  0
 23 24  1  0  0  0  0
 23 40  1  0  0  0  0
 24 25  1  0  0  0  0
 25 26  1  0  0  0  0
 25 27  2  0  0  0  0
 26 41  1  0  0  0  0
 26 42  1  0  0  0  0
 26 43  1  0  0  0  0
M  CHG  1  15  -1
M  END
> <s_m_source_file>
AV-unprocessed.smi

> <i_m_source_file_index>
102

> <i_lp_mmshare_version>
43012

> <i_f3d_flags>
0

> <s_epik_input>
W0NIM11DKD1PKU9bQ0gyXVtDQEBIXTFPW0NASF0oW0NAQEhdKE9DKD1PKVtDSDNdKVtDQEhdMU9DKD1PKVtDSDNdKW4yW2NIXWMoRiljKD1PKVtuSF1jMj1P

> <s_epik_cmdline>
J2VwaWtfcHl0aG9uJywgJy1waCcsICc3LjAnLCAnLXRuJywgJzgnLCAnLW1hJywgJzIwMCcsICctbWV0YWxfYmluZGluZycsICctaW1hZScsICc8aW5maWxlLm1hZT4nLCAnLW9tYWUnLCAnPG91dGZpbGUubWFlPic=

> <r_epik_Ionization_Penalty>
1.40304

> <r_epik_Ionization_Penalty_Charging>
1.43915e-08

> <r_epik_Ionization_Penalty_Neutral>
1.40304

> <r_epik_State_Penalty>
1.48536

> <r_epik_Charging_Adjusted_Penalty>
1.48536

> <i_epik_Tot_Q>
-1

> <i_epik_Tot_abs_Q>
1

> <r_epik_Metal_State_Penalty>
0.00663881

> <b_epik_Metal_Only>
0

> <s_epik_Chemistry_Notes>
This compound has an ester and may undergo hydrolysis at high or low pH. This compound contains an acetal/aminal-like group ( X-CH(R)-Y where X, Y are N, S, or O) that may be acid/base labile, releasing an aldehyde.

> <s_lp_Force_Field>
OPLS_2005

> <r_lp_Energy>
22.9576

> <b_lp_Chiralities_Consistent>
1

> <s_lp_Variant>
AV-unprocessed.smi:102-27

> <Gold.Version>
5.8.1

> <Gold.Id.Protein>
6NUR|6NUR_protein|mol2

> <Gold.PLP.Fitness>
35.3362

> <Gold.PLP.PLP>
-23.9915

> <Gold.PLP.part.hbond>
-4.8015

> <Gold.PLP.part.metal>
0.0000

> <Gold.PLP.part.buried>
-3.6356

> <Gold.PLP.part.nonpolar>
-15.1025

> <Gold.PLP.part.repulsive>
0.0014

> <Gold.PLP.ligand.clash>
0.0000

> <Gold.PLP.ligand.torsion>
0.4117

> <Gold.PLP.Chemscore.Hbond>
3.9913

> <Gold.PLP.Chemscore.CHOScore>
0.0000

> <Gold.PLP.Chemscore.Metal>
0.0000

> <Gold.Chemscore.Hbonds>
donor molecule, donor type, donor heavy atom, donor atom, acceptor molecule, acceptor atom, score
      P1  H  6896  6907       L1    17  0.60
      P1  H  6896  6909       L1     3  0.94
      P1  H  6934  6947       L1    27  1.00
      P1  H  7997  8009       L1    14  1.00

> <Gold.PLP.Chemscore.Internal.Correction>
0.1944

> <Gold.Rescore>
     Score         DG    S(hbond)    S(metal)    S(lipo)     H(rot)  DE(clash)    DE(int)     intcor
      7.11     -11.92       3.87        0.00      31.95       4.00       0.05       4.76       ----

> <Gold.Chemscore.Fitness>
7.1054

> <Gold.Chemscore.DG>
-11.9155

> <Gold.Chemscore.ZeroCoef>
-5.4800

> <Gold.Chemscore.Hbond>
3.8698

> <Gold.Chemscore.Metal>
0.0000

> <Gold.Chemscore.Lipo>
31.9458

> <Gold.Chemscore.Internal_Hbond>
0.0000

> <Gold.Chemscore.DEClash>
0.0465

> <Gold.Chemscore.DEInternal>
4.7635

> <Gold.Chemscore.Rot>
3.9951

> <Gold.Chemscore.Internal.Correction>
   9.000000E+99

> <Gold.Chemscore.Hbonds>
donor molecule, donor type, donor heavy atom, donor atom, acceptor molecule, acceptor atom, score
      P1  H  6896  6907       L1    17  0.04
      P1  H  6896  6909       L1     3  0.90
      P1  H  6934  6947       L1    27  0.98
      P1  H  7997  8009       L1    14  1.00

> <Gold.Chemscore.Hbond.Weighted>
-12.9252

> <Gold.Chemscore.Metal.Weighted>
-0.0000

> <Gold.Chemscore.Lipo.Weighted>
-3.7377

> <Gold.Chemscore.Internal_Hbond.Weighted>
0.0000

> <Gold.Chemscore.DEClash.Weighted>
0.0465

> <Gold.Chemscore.DEInternal.Weighted>
4.7635

> <Gold.Chemscore.Rot.Weighted>
10.2274

> <Gold.Chemscore.Internal.Correction.Weighted>
   9.000000E+99

> <Gold.Protein.RotatedTorsions>
[ 6907 6896 6895 6894 ] final  -34.10 input  -60.11 | X-H torsion
[ 7974 7965 7964 7962 ] final  132.89 input  175.53 | X-H torsion
[ 8008 7997 7996 7995 ] final  167.24 input   59.86 | X-H torsion
[ 10167 10162 10161 10158 ] final   12.95 input  -65.29 | X-H torsion
[ 10718 10713 10712 10709 ] final  -48.72 input   66.30 | X-H torsion
[ 10763 10752 10751 10750 ] final  -33.44 input  -60.55 | X-H torsion
[ 11005 11000 10999 10996 ] final   54.15 input  -57.11 | X-H torsion

> <Gold.Protein.ActiveResidues>
 VAL166  LYS551  ARG553  GLY616  TRP617  ASP618  TYR619  PRO620  LYS621  CYS622 
 ASP623  PHE694  ASN695  SER759  ASP760  ASP761  ALA762  ILE779  LEU786  VAL792 
 PHE793  MET794  SER795  GLU796  ALA797  LYS798  CYS799  TRP800  GLU811  SER814 

> <Gold.Protein.RotatedAtoms>
  151.0571  134.9711  159.8240 H   0  0  0  0  0  0  0  0  0  0  0  0  # atno 6907 bound_to 6896
  152.5390  134.2465  159.8892 H   0  0  0  0  0  0  0  0  0  0  0  0  # atno 6908 bound_to 6896
  151.2483  133.4320  159.2644 H   0  0  0  0  0  0  0  0  0  0  0  0  # atno 6909 bound_to 6896
  144.9921  139.4396  143.5334 H   0  0  0  0  0  0  0  0  0  0  0  0  # atno 7974 bound_to 7965
  156.1650  140.1622  156.8546 H   0  0  0  0  0  0  0  0  0  0  0  0  # atno 8008 bound_to 7997
  154.5199  140.0781  156.8186 H   0  0  0  0  0  0  0  0  0  0  0  0  # atno 8009 bound_to 7997
  155.3629  140.3396  155.4243 H   0  0  0  0  0  0  0  0  0  0  0  0  # atno 8010 bound_to 7997
  140.6035  143.8556  150.6989 H   0  0  0  0  0  0  0  0  0  0  0  0  # atno 10167 bound_to 10162
  156.1961  130.4154  149.9304 H   0  0  0  0  0  0  0  0  0  0  0  0  # atno 10718 bound_to 10713
  153.8303  135.6866  153.4815 H   0  0  0  0  0  0  0  0  0  0  0  0  # atno 10763 bound_to 10752
  153.1515  135.4616  154.9642 H   0  0  0  0  0  0  0  0  0  0  0  0  # atno 10764 bound_to 10752
  154.7890  135.3295  154.7766 H   0  0  0  0  0  0  0  0  0  0  0  0  # atno 10765 bound_to 10752
  140.0710  134.5470  155.9047 H   0  0  0  0  0  0  0  0  0  0  0  0  # atno 11005 bound_to 11000
  146.3434  139.9260  142.8760 LP  0  0  0  0  0  0  0  0  0  0  0  0  # atno 17320 bound_to 7965
  145.2270  140.9958  143.4012 LP  0  0  0  0  0  0  0  0  0  0  0  0  # atno 17321 bound_to 7965
  140.2108  143.3885  152.1720 LP  0  0  0  0  0  0  0  0  0  0  0  0  # atno 17342 bound_to 10162
  139.5308  144.7156  151.5064 LP  0  0  0  0  0  0  0  0  0  0  0  0  # atno 17343 bound_to 10162
  156.7029  130.8940  151.3601 LP  0  0  0  0  0  0  0  0  0  0  0  0  # atno 17370 bound_to 10713
  157.6958  130.9281  150.0642 LP  0  0  0  0  0  0  0  0  0  0  0  0  # atno 17371 bound_to 10713
  141.2011  133.6617  156.5935 LP  0  0  0  0  0  0  0  0  0  0  0  0  # atno 17394 bound_to 11000
  140.3628  134.7673  157.4545 LP  0  0  0  0  0  0  0  0  0  0  0  0  # atno 17395 bound_to 11000

$$$$
