AV-unprocessed.smi:540|AV-procd|sdf|2870|dock10
  -GOLD-   2262023363D 1   1.00000     0.00000
 Structure written by MMmdl.
 48 50  0  0  0  0  0  0  0  0  2 V2000
  150.7620  138.6783  154.3533 C   0  0  0  0  0  0  0  0  0  0  0  0
  150.8404  137.2242  154.8232 C   0  0  0  0  0  0  0  0  0  0  0  0
  149.5496  136.8138  155.2354 O   0  0  0  0  0  0  0  0  0  0  0  0
  149.5061  135.4619  155.6603 C   0  0  0  0  0  0  0  0  0  0  0  0
  149.7725  134.5369  154.4647 C   0  0  0  0  0  0  0  0  0  0  0  0
  149.9795  133.1514  154.8862 N   0  0  0  0  0  0  0  0  0  0  0  0
  149.3132  132.0404  154.4671 C   0  0  0  0  0  0  0  0  0  0  0  0
  148.3099  132.0875  153.4964 N   0  0  0  0  0  0  0  0  0  0  0  0
  147.3070  131.0385  153.3239 C   0  0  0  0  0  0  0  0  0  0  0  0
  145.8852  131.6252  153.2706 C   0  0  0  0  0  0  0  0  0  0  0  0
  145.7522  132.6515  152.1319 C   0  0  0  0  0  0  0  0  0  0  0  0
  144.3670  133.3125  152.1159 C   0  0  0  0  0  0  0  0  0  0  0  0
  146.8814  133.6900  152.2474 C   0  0  0  0  0  0  0  0  0  0  0  0
  148.2517  132.9964  152.3518 C   0  0  0  0  0  0  0  0  0  0  0  0
  149.6593  130.9148  155.0939 N   0  0  0  0  0  0  0  0  0  0  0  0
  150.6450  131.3359  155.9718 C   0  0  0  0  0  0  0  0  0  0  0  0
  150.8517  132.6771  155.8753 C   0  0  0  0  0  0  0  0  0  0  0  0
  151.8142  133.4196  156.7234 C   0  0  0  0  0  0  0  0  0  0  0  0
  151.9540  134.6362  156.6190 O   0  0  0  0  0  0  0  0  0  0  0  0
  152.4818  132.5964  157.5925 N   0  5  0  0  0  0  0  0  0  0  0  0
  152.3065  131.2355  157.7169 C   0  0  0  0  0  0  0  0  0  0  0  0
  152.9469  130.5694  158.5314 O   0  0  0  0  0  0  0  0  0  0  0  0
  151.3973  130.5912  156.9204 N   0  0  0  0  0  0  0  0  0  0  0  0
  151.1846  129.1453  157.0354 C   0  0  0  0  0  0  0  0  0  0  0  0
  151.7386  139.0376  154.0286 H   0  0  0  0  0  0  0  0  0  0  0  0
  150.4151  139.3290  155.1565 H   0  0  0  0  0  0  0  0  0  0  0  0
  150.0706  138.7817  153.5166 H   0  0  0  0  0  0  0  0  0  0  0  0
  151.1969  136.5884  154.0116 H   0  0  0  0  0  0  0  0  0  0  0  0
  151.5461  137.1355  155.6501 H   0  0  0  0  0  0  0  0  0  0  0  0
  150.2567  135.2928  156.4336 H   0  0  0  0  0  0  0  0  0  0  0  0
  148.5320  135.2359  156.0959 H   0  0  0  0  0  0  0  0  0  0  0  0
  148.9492  134.5951  153.7602 H   0  0  0  0  0  0  0  0  0  0  0  0
  150.6322  134.8863  153.8986 H   0  0  0  0  0  0  0  0  0  0  0  0
  147.5221  130.4768  152.4139 H   0  0  0  0  0  0  0  0  0  0  0  0
  147.3750  130.3294  154.1494 H   0  0  0  0  0  0  0  0  0  0  0  0
  145.1603  130.8217  153.1372 H   0  0  0  0  0  0  0  0  0  0  0  0
  145.6526  132.0968  154.2266 H   0  0  0  0  0  0  0  0  0  0  0  0
  145.8790  132.1217  151.1866 H   0  0  0  0  0  0  0  0  0  0  0  0
  144.1774  133.8594  153.0400 H   0  0  0  0  0  0  0  0  0  0  0  0
  143.5787  132.5679  152.0015 H   0  0  0  0  0  0  0  0  0  0  0  0
  144.2783  134.0165  151.2882 H   0  0  0  0  0  0  0  0  0  0  0  0
  146.8696  134.3532  151.3819 H   0  0  0  0  0  0  0  0  0  0  0  0
  146.7182  134.3201  153.1222 H   0  0  0  0  0  0  0  0  0  0  0  0
  149.0550  133.7302  152.4065 H   0  0  0  0  0  0  0  0  0  0  0  0
  148.4425  132.4248  151.4427 H   0  0  0  0  0  0  0  0  0  0  0  0
  152.1204  128.6054  156.8844 H   0  0  0  0  0  0  0  0  0  0  0  0
  150.4704  128.7650  156.3056 H   0  0  0  0  0  0  0  0  0  0  0  0
  150.8038  128.8959  158.0265 H   0  0  0  0  0  0  0  0  0  0  0  0
  1  2  1  0  0  0  0
  1 25  1  0  0  0  0
  1 26  1  0  0  0  0
  1 27  1  0  0  0  0
  2  3  1  0  0  0  0
  2 28  1  0  0  0  0
  2 29  1  0  0  0  0
  3  4  1  0  0  0  0
  4  5  1  0  0  0  0
  4 30  1  0  0  0  0
  4 31  1  0  0  0  0
  5  6  1  0  0  0  0
  5 32  1  0  0  0  0
  5 33  1  0  0  0  0
  6 17  1  0  0  0  0
  6  7  1  0  0  0  0
  7  8  1  0  0  0  0
  7 15  2  0  0  0  0
  8 14  1  0  0  0  0
  8  9  1  0  0  0  0
  9 10  1  0  0  0  0
  9 34  1  0  0  0  0
  9 35  1  0  0  0  0
 10 11  1  0  0  0  0
 10 36  1  0  0  0  0
 10 37  1  0  0  0  0
 11 12  1  0  0  0  0
 11 13  1  0  0  0  0
 11 38  1  0  0  0  0
 12 39  1  0  0  0  0
 12 40  1  0  0  0  0
 12 41  1  0  0  0  0
 13 14  1  0  0  0  0
 13 42  1  0  0  0  0
 13 43  1  0  0  0  0
 14 44  1  0  0  0  0
 14 45  1  0  0  0  0
 15 16  1  0  0  0  0
 16 23  1  0  0  0  0
 16 17  2  0  0  0  0
 17 18  1  0  0  0  0
 18 19  2  0  0  0  0
 18 20  1  0  0  0  0
 20 21  1  0  0  0  0
 21 22  2  0  0  0  0
 21 23  1  0  0  0  0
 23 24  1  0  0  0  0
 24 46  1  0  0  0  0
 24 47  1  0  0  0  0
 24 48  1  0  0  0  0
M  CHG  1  20  -1
M  END
> <s_m_source_file>
AV-unprocessed.smi

> <i_m_source_file_index>
540

> <i_lp_mmshare_version>
43012

> <i_f3d_flags>
0

> <s_epik_input>
W0NIM11uMWMoPU8pW25IXWMoPU8pYyhjMTIpbihbQ0gyXVtDSDJdT1tDSDJdW0NIM10pYyhuMilOM1tDSDJdW0NIMl1bQ0hdKFtDSDNdKVtDSDJdW0NIMl0z

> <s_epik_cmdline>
J2VwaWtfcHl0aG9uJywgJy1waCcsICc3LjAnLCAnLXRuJywgJzgnLCAnLW1hJywgJzIwMCcsICctbWV0YWxfYmluZGluZycsICctaW1hZScsICc8aW5maWxlLm1hZT4nLCAnLW9tYWUnLCAnPG91dGZpbGUubWFlPic=

> <r_lp_tautomer_probability>
1

> <r_epik_Ionization_Penalty>
5.11981

> <r_epik_Ionization_Penalty_Charging>
0.0737583

> <r_epik_Ionization_Penalty_Neutral>
5.04605

> <r_epik_State_Penalty>
5.03218

> <r_epik_Charging_Adjusted_Penalty>
5.10594

> <i_epik_Tot_Q>
-1

> <i_epik_Tot_abs_Q>
1

> <r_epik_Metal_State_Penalty>
1.14277

> <b_epik_Metal_Only>
1

> <s_lp_Force_Field>
OPLS_2005

> <r_lp_Energy>
41.1943

> <b_lp_Chiralities_Consistent>
1

> <s_lp_Variant>
AV-unprocessed.smi:540-2

> <Gold.Version>
5.8.1

> <Gold.Id.Protein>
6NUR|6NUR_protein|mol2

> <Gold.PLP.Fitness>
40.6818

> <Gold.PLP.PLP>
-32.1781

> <Gold.PLP.part.hbond>
-2.0647

> <Gold.PLP.part.metal>
0.0000

> <Gold.PLP.part.buried>
-1.0090

> <Gold.PLP.part.nonpolar>
-28.4989

> <Gold.PLP.part.repulsive>
0.1192

> <Gold.PLP.ligand.clash>
0.0000

> <Gold.PLP.ligand.torsion>
0.3801

> <Gold.PLP.Chemscore.Hbond>
2.9120

> <Gold.PLP.Chemscore.CHOScore>
0.0000

> <Gold.PLP.Chemscore.Metal>
0.0000

> <Gold.Chemscore.Hbonds>
donor molecule, donor type, donor heavy atom, donor atom, acceptor molecule, acceptor atom, score
      P1  H  6896  6908       L1    20  1.89
      P1  H 10752 10763       L1    19  0.76

> <Gold.PLP.Chemscore.Internal.Correction>
0.5281

> <Gold.Rescore>
     Score         DG    S(hbond)    S(metal)    S(lipo)     H(rot)  DE(clash)    DE(int)     intcor
     10.79     -11.71       1.03        0.00      57.72       1.55       0.29       0.62       ----

> <Gold.Chemscore.Fitness>
10.7925

> <Gold.Chemscore.DG>
-11.7067

> <Gold.Chemscore.ZeroCoef>
-5.4800

> <Gold.Chemscore.Hbond>
1.0330

> <Gold.Chemscore.Metal>
0.0000

> <Gold.Chemscore.Lipo>
57.7200

> <Gold.Chemscore.Internal_Hbond>
0.0000

> <Gold.Chemscore.DEClash>
0.2893

> <Gold.Chemscore.DEInternal>
0.6249

> <Gold.Chemscore.Rot>
1.5534

> <Gold.Chemscore.Internal.Correction>
   9.000000E+99

> <Gold.Chemscore.Hbonds>
donor molecule, donor type, donor heavy atom, donor atom, acceptor molecule, acceptor atom, score
      P1  H  6896  6908       L1    20  0.19
      P1  H 10752 10763       L1    19  0.70

> <Gold.Chemscore.Hbond.Weighted>
-3.4503

> <Gold.Chemscore.Metal.Weighted>
-0.0000

> <Gold.Chemscore.Lipo.Weighted>
-6.7532

> <Gold.Chemscore.Internal_Hbond.Weighted>
0.0000

> <Gold.Chemscore.DEClash.Weighted>
0.2893

> <Gold.Chemscore.DEInternal.Weighted>
0.6249

> <Gold.Chemscore.Rot.Weighted>
3.9768

> <Gold.Chemscore.Internal.Correction.Weighted>
   9.000000E+99

> <Gold.Protein.RotatedTorsions>
[ 6907 6896 6895 6894 ] final   34.71 input  -60.11 | X-H torsion
[ 7974 7965 7964 7962 ] final   63.98 input  175.53 | X-H torsion
[ 8008 7997 7996 7995 ] final -117.44 input   59.86 | X-H torsion
[ 10167 10162 10161 10158 ] final  -77.04 input  -65.29 | X-H torsion
[ 10718 10713 10712 10709 ] final   -0.74 input   66.30 | X-H torsion
[ 10763 10752 10751 10750 ] final  104.99 input  -60.55 | X-H torsion
[ 11005 11000 10999 10996 ] final   32.82 input  -57.11 | X-H torsion

> <Gold.Protein.ActiveResidues>
 VAL166  LYS551  ARG553  GLY616  TRP617  ASP618  TYR619  PRO620  LYS621  CYS622 
 ASP623  PHE694  ASN695  SER759  ASP760  ASP761  ALA762  ILE779  LEU786  VAL792 
 PHE793  MET794  SER795  GLU796  ALA797  LYS798  CYS799  TRP800  GLU811  SER814 

> <Gold.Protein.RotatedAtoms>
  152.1061  134.9307  160.0567 H   0  0  0  0  0  0  0  0  0  0  0  0  # atno 6907 bound_to 6896
  152.0503  133.4011  159.4382 H   0  0  0  0  0  0  0  0  0  0  0  0  # atno 6908 bound_to 6896
  150.6841  134.3236  159.4841 H   0  0  0  0  0  0  0  0  0  0  0  0  # atno 6909 bound_to 6896
  145.8555  139.3281  143.0850 H   0  0  0  0  0  0  0  0  0  0  0  0  # atno 7974 bound_to 7965
  155.0838  140.0394  157.2647 H   0  0  0  0  0  0  0  0  0  0  0  0  # atno 8008 bound_to 7997
  154.6886  140.2648  155.6810 H   0  0  0  0  0  0  0  0  0  0  0  0  # atno 8009 bound_to 7997
  156.2721  140.2764  156.1456 H   0  0  0  0  0  0  0  0  0  0  0  0  # atno 8010 bound_to 7997
  140.4805  143.2403  151.8066 H   0  0  0  0  0  0  0  0  0  0  0  0  # atno 10167 bound_to 10162
  156.8159  130.5440  149.5703 H   0  0  0  0  0  0  0  0  0  0  0  0  # atno 10718 bound_to 10713
  153.3734  135.3924  155.1805 H   0  0  0  0  0  0  0  0  0  0  0  0  # atno 10763 bound_to 10752
  154.8697  135.3708  154.4949 H   0  0  0  0  0  0  0  0  0  0  0  0  # atno 10764 bound_to 10752
  153.5419  135.7084  153.5693 H   0  0  0  0  0  0  0  0  0  0  0  0  # atno 10765 bound_to 10752
  140.2695  134.3099  155.7832 H   0  0  0  0  0  0  0  0  0  0  0  0  # atno 11005 bound_to 11000
  145.9308  140.9050  143.0357 LP  0  0  0  0  0  0  0  0  0  0  0  0  # atno 17320 bound_to 7965
  144.6728  140.1416  143.7436 LP  0  0  0  0  0  0  0  0  0  0  0  0  # atno 17321 bound_to 7965
  139.4832  144.4779  151.9344 LP  0  0  0  0  0  0  0  0  0  0  0  0  # atno 17342 bound_to 10162
  140.3864  144.2671  150.5903 LP  0  0  0  0  0  0  0  0  0  0  0  0  # atno 17343 bound_to 10162
  156.1017  130.5974  150.9904 LP  0  0  0  0  0  0  0  0  0  0  0  0  # atno 17370 bound_to 10713
  157.6482  131.0901  150.8109 LP  0  0  0  0  0  0  0  0  0  0  0  0  # atno 17371 bound_to 10713
  141.2179  133.7458  156.9312 LP  0  0  0  0  0  0  0  0  0  0  0  0  # atno 17394 bound_to 11000
  140.1387  134.9308  157.2437 LP  0  0  0  0  0  0  0  0  0  0  0  0  # atno 17395 bound_to 11000

$$$$
