AV-unprocessed.smi:283|AV-procd|sdf|2148|dock7
  -GOLD-   2262021483D 1   1.00000     0.00000
 Structure written by MMmdl.
 48 51  0  0  0  0  0  0  0  0  1 V2000
  153.6038  140.5351  160.4237 C   0  0  0  0  0  0  0  0  0  0  0  0
  152.8726  141.1326  159.2080 C   0  0  1  0  0  0  0  0  0  0  0  0
  151.8169  140.2377  158.7347 N   0  0  0  0  0  0  0  0  0  0  0  0
  152.0959  139.1094  158.0447 C   0  0  0  0  0  0  0  0  0  0  0  0
  153.3282  138.8884  157.5172 N   0  0  0  0  0  0  0  0  0  0  0  0
  153.5732  137.7628  156.8401 C   0  0  0  0  0  0  0  0  0  0  0  0
  152.7429  136.7525  156.5726 N   0  0  0  0  0  0  0  0  0  0  0  0
  151.4993  136.9756  157.0886 C   0  0  0  0  0  0  0  0  0  0  0  0
  151.1032  138.1168  157.8394 C   0  0  0  0  0  0  0  0  0  0  0  0
  149.7762  137.9875  158.2252 N   0  0  0  0  0  0  0  0  0  0  0  0
  149.4169  136.8316  157.7355 C   0  0  0  0  0  0  0  0  0  0  0  0
  150.3807  136.1718  157.0009 N   0  0  0  0  0  0  0  0  0  0  0  0
  150.3020  134.8300  156.3334 C   0  0  1  0  0  0  0  0  0  0  0  0
  150.2324  133.8458  157.3257 O   0  0  0  0  0  0  0  0  0  0  0  0
  148.8968  133.3738  157.4777 C   0  0  1  0  0  0  0  0  0  0  0  0
  148.1522  134.2201  158.5353 C   0  0  0  0  0  0  0  0  0  0  0  0
  146.8149  133.7873  158.6753 O   0  0  0  0  0  0  0  0  0  0  0  0
  148.3588  133.4516  156.0426 C   0  0  1  0  0  0  0  0  0  0  0  0
  146.9488  133.5442  155.9830 O   0  0  0  0  0  0  0  0  0  0  0  0
  149.0259  134.6993  155.4748 C   0  0  2  0  0  0  0  0  0  0  0  0
  149.3330  134.4973  154.1095 O   0  0  0  0  0  0  0  0  0  0  0  0
  152.3528  142.5295  159.5453 C   0  0  0  0  0  0  0  0  0  0  0  0
  152.6712  143.1224  160.7902 C   0  0  0  0  0  0  0  0  0  0  0  0
  152.2046  144.4106  161.1131 C   0  0  0  0  0  0  0  0  0  0  0  0
  151.4192  145.1254  160.1913 C   0  0  0  0  0  0  0  0  0  0  0  0
  151.1069  144.5520  158.9452 C   0  0  0  0  0  0  0  0  0  0  0  0
  151.5710  143.2626  158.6162 C   0  0  0  0  0  0  0  0  0  0  0  0
  151.1697  142.6180  157.0623 Cl  0  0  0  0  0  0  0  0  0  0  0  0
  151.2356  134.7552  155.7740 H   0  0  0  0  0  0  0  0  0  0  0  0
  148.9398  132.3384  157.8182 H   0  0  0  0  0  0  0  0  0  0  0  0
  148.6860  132.5627  155.5002 H   0  0  0  0  0  0  0  0  0  0  0  0
  148.3887  135.5757  155.6034 H   0  0  0  0  0  0  0  0  0  0  0  0
  154.4217  141.1816  160.7432 H   0  0  0  0  0  0  0  0  0  0  0  0
  154.0336  139.5586  160.2003 H   0  0  0  0  0  0  0  0  0  0  0  0
  152.9279  140.4129  161.2705 H   0  0  0  0  0  0  0  0  0  0  0  0
  153.5852  141.2397  158.3913 H   0  0  0  0  0  0  0  0  0  0  0  0
  150.8790  140.4848  159.0153 H   0  0  0  0  0  0  0  0  0  0  0  0
  154.5771  137.6571  156.4560 H   0  0  0  0  0  0  0  0  0  0  0  0
  148.4271  136.4324  157.8999 H   0  0  0  0  0  0  0  0  0  0  0  0
  148.6268  134.0983  159.5086 H   0  0  0  0  0  0  0  0  0  0  0  0
  148.1764  135.2832  158.2948 H   0  0  0  0  0  0  0  0  0  0  0  0
  146.4580  134.1654  159.4645 H   0  0  0  0  0  0  0  0  0  0  0  0
  146.7165  134.4211  155.7179 H   0  0  0  0  0  0  0  0  0  0  0  0
  149.3330  135.3357  153.6743 H   0  0  0  0  0  0  0  0  0  0  0  0
  153.2815  142.5956  161.5089 H   0  0  0  0  0  0  0  0  0  0  0  0
  152.4521  144.8514  162.0674 H   0  0  0  0  0  0  0  0  0  0  0  0
  151.0610  146.1141  160.4370 H   0  0  0  0  0  0  0  0  0  0  0  0
  150.5102  145.1071  158.2364 H   0  0  0  0  0  0  0  0  0  0  0  0
  1  2  1  0  0  0  0
  1 33  1  0  0  0  0
  1 34  1  0  0  0  0
  1 35  1  0  0  0  0
  2  3  1  0  0  0  0
  2 22  1  0  0  0  0
  2 36  1  0  0  0  0
  3  4  1  0  0  0  0
  3 37  1  0  0  0  0
  4  9  1  0  0  0  0
  4  5  2  0  0  0  0
  5  6  1  0  0  0  0
  6  7  2  0  0  0  0
  6 38  1  0  0  0  0
  7  8  1  0  0  0  0
  8 12  1  0  0  0  0
  8  9  2  0  0  0  0
  9 10  1  0  0  0  0
 10 11  2  0  0  0  0
 11 12  1  0  0  0  0
 11 39  1  0  0  0  0
 12 13  1  0  0  0  0
 13 29  1  0  0  0  0
 13 20  1  0  0  0  0
 13 14  1  0  0  0  0
 14 15  1  0  0  0  0
 15 30  1  0  0  0  0
 15 16  1  0  0  0  0
 15 18  1  0  0  0  0
 16 17  1  0  0  0  0
 16 40  1  0  0  0  0
 16 41  1  0  0  0  0
 17 42  1  0  0  0  0
 18 31  1  0  0  0  0
 18 19  1  0  0  0  0
 18 20  1  0  0  0  0
 19 43  1  0  0  0  0
 20 32  1  0  0  0  0
 20 21  1  0  0  0  0
 21 44  1  0  0  0  0
 22 27  1  0  0  0  0
 22 23  2  0  0  0  0
 23 24  1  0  0  0  0
 23 45  1  0  0  0  0
 24 25  2  0  0  0  0
 24 46  1  0  0  0  0
 25 26  1  0  0  0  0
 25 47  1  0  0  0  0
 26 27  2  0  0  0  0
 26 48  1  0  0  0  0
 27 28  1  0  0  0  0
M  END
> <s_m_source_file>
AV-unprocessed.smi

> <i_m_source_file_index>
283

> <i_lp_mmshare_version>
43012

> <i_f3d_flags>
0

> <s_epik_input>
Q2xjMVtjSF1bY0hdW2NIXVtjSF1jMVtDQEhdKFtDSDNdKVtOSF1jKG5bY0hdbjIpYyhjMjMpbltjSF1uM1tDQEBIXTRPW0NASF0oW0NIMl1bT0hdKVtDQEBIXShbT0hdKVtDQEhdNFtPSF0=

> <s_epik_cmdline>
J2VwaWtfcHl0aG9uJywgJy1waCcsICc3LjAnLCAnLXRuJywgJzgnLCAnLW1hJywgJzIwMCcsICctbWV0YWxfYmluZGluZycsICctaW1hZScsICc8aW5maWxlLm1hZT4nLCAnLW9tYWUnLCAnPG91dGZpbGUubWFlPic=

> <r_lp_tautomer_probability>
1

> <r_epik_Ionization_Penalty>
0.000266407

> <r_epik_Ionization_Penalty_Charging>
0

> <r_epik_Ionization_Penalty_Neutral>
0.000266407

> <r_epik_State_Penalty>
-0

> <r_epik_Charging_Adjusted_Penalty>
0

> <i_epik_Tot_Q>
0

> <i_epik_Tot_abs_Q>
0

> <r_epik_Metal_State_Penalty>
-0

> <b_epik_Metal_Only>
0

> <s_epik_Chemistry_Notes>
This compound contains an acetal/aminal-like group ( X-CH(R)-Y where X, Y are N, S, or O) that may be acid/base labile, releasing an aldehyde.

> <s_lp_Force_Field>
OPLS_2005

> <r_lp_Energy>
43.8521

> <b_lp_Chiralities_Consistent>
1

> <s_lp_Variant>
AV-unprocessed.smi:283-24

> <Gold.Version>
5.8.1

> <Gold.Id.Protein>
6NUR|6NUR_protein|mol2

> <Gold.PLP.Fitness>
51.6134

> <Gold.PLP.PLP>
-41.6168

> <Gold.PLP.part.hbond>
-4.0000

> <Gold.PLP.part.metal>
0.0000

> <Gold.PLP.part.buried>
-6.2855

> <Gold.PLP.part.nonpolar>
-31.3648

> <Gold.PLP.part.repulsive>
0.1342

> <Gold.PLP.ligand.clash>
0.0000

> <Gold.PLP.ligand.torsion>
0.6249

> <Gold.PLP.Chemscore.Hbond>
3.7040

> <Gold.PLP.Chemscore.CHOScore>
0.0000

> <Gold.PLP.Chemscore.Metal>
0.0000

> <Gold.Chemscore.Hbonds>
donor molecule, donor type, donor heavy atom, donor atom, acceptor molecule, acceptor atom, score
      L1  H    21    44       P1  7948  0.83
      P1  H  6896  6909       L1    14  0.88
      P1  H  7997  8010       L1     5  0.98
      P1  H 10752 10765       L1     7  1.00

> <Gold.PLP.Chemscore.Internal.Correction>
0.1344

> <Gold.Rescore>
     Score         DG    S(hbond)    S(metal)    S(lipo)     H(rot)  DE(clash)    DE(int)     intcor
     13.00     -15.73       2.38        0.00     109.44       4.10       0.04       2.70       ----

> <Gold.Chemscore.Fitness>
12.9964

> <Gold.Chemscore.DG>
-15.7312

> <Gold.Chemscore.ZeroCoef>
-5.4800

> <Gold.Chemscore.Hbond>
2.3757

> <Gold.Chemscore.Metal>
0.0000

> <Gold.Chemscore.Lipo>
109.4379

> <Gold.Chemscore.Internal_Hbond>
0.0000

> <Gold.Chemscore.DEClash>
0.0361

> <Gold.Chemscore.DEInternal>
2.6988

> <Gold.Chemscore.Rot>
4.0968

> <Gold.Chemscore.Internal.Correction>
   9.000000E+99

> <Gold.Chemscore.Hbonds>
donor molecule, donor type, donor heavy atom, donor atom, acceptor molecule, acceptor atom, score
      L1  H    21    44       P1  7948  0.24
      P1  H  6896  6909       L1    14  0.21
      P1  H  7997  8010       L1     5  0.46
      P1  H 10752 10765       L1     7  0.88

> <Gold.Chemscore.Hbond.Weighted>
-7.9349

> <Gold.Chemscore.Metal.Weighted>
-0.0000

> <Gold.Chemscore.Lipo.Weighted>
-12.8042

> <Gold.Chemscore.Internal_Hbond.Weighted>
0.0000

> <Gold.Chemscore.DEClash.Weighted>
0.0361

> <Gold.Chemscore.DEInternal.Weighted>
2.6988

> <Gold.Chemscore.Rot.Weighted>
10.4879

> <Gold.Chemscore.Internal.Correction.Weighted>
   9.000000E+99

> <Gold.Protein.RotatedTorsions>
[ 6907 6896 6895 6894 ] final   -7.25 input  -60.11 | X-H torsion
[ 7974 7965 7964 7962 ] final -133.19 input  175.53 | X-H torsion
[ 8008 7997 7996 7995 ] final   23.08 input   59.86 | X-H torsion
[ 10167 10162 10161 10158 ] final   78.65 input  -65.29 | X-H torsion
[ 10718 10713 10712 10709 ] final   62.10 input   66.30 | X-H torsion
[ 10763 10752 10751 10750 ] final -138.22 input  -60.55 | X-H torsion
[ 11005 11000 10999 10996 ] final -137.11 input  -57.11 | X-H torsion

> <Gold.Protein.ActiveResidues>
 VAL166  LYS551  ARG553  GLY616  TRP617  ASP618  TYR619  PRO620  LYS621  CYS622 
 ASP623  PHE694  ASN695  SER759  ASP760  ASP761  ALA762  ILE779  LEU786  VAL792 
 PHE793  MET794  SER795  GLU796  ALA797  LYS798  CYS799  TRP800  GLU811  SER814 

> <Gold.Protein.RotatedAtoms>
  151.4525  135.1031  159.9701 H   0  0  0  0  0  0  0  0  0  0  0  0  # atno 6907 bound_to 6896
  152.4883  133.8427  159.7171 H   0  0  0  0  0  0  0  0  0  0  0  0  # atno 6908 bound_to 6896
  150.9012  133.7056  159.2905 H   0  0  0  0  0  0  0  0  0  0  0  0  # atno 6909 bound_to 6896
  144.9216  140.7021  143.4961 H   0  0  0  0  0  0  0  0  0  0  0  0  # atno 7974 bound_to 7965
  154.9755  140.3095  155.4969 H   0  0  0  0  0  0  0  0  0  0  0  0  # atno 8008 bound_to 7997
  156.2960  140.2276  156.4790 H   0  0  0  0  0  0  0  0  0  0  0  0  # atno 8009 bound_to 7997
  154.7837  140.0444  157.1135 H   0  0  0  0  0  0  0  0  0  0  0  0  # atno 8010 bound_to 7997
  139.9686  144.5910  150.8006 H   0  0  0  0  0  0  0  0  0  0  0  0  # atno 10167 bound_to 10162
  157.5876  130.9031  149.9544 H   0  0  0  0  0  0  0  0  0  0  0  0  # atno 10718 bound_to 10713
  154.8642  135.3618  154.5350 H   0  0  0  0  0  0  0  0  0  0  0  0  # atno 10763 bound_to 10752
  153.5974  135.7013  153.5403 H   0  0  0  0  0  0  0  0  0  0  0  0  # atno 10764 bound_to 10752
  153.3320  135.4121  155.1465 H   0  0  0  0  0  0  0  0  0  0  0  0  # atno 10765 bound_to 10752
  140.8742  134.2012  157.4632 H   0  0  0  0  0  0  0  0  0  0  0  0  # atno 11005 bound_to 11000
  145.3286  139.1766  143.4549 LP  0  0  0  0  0  0  0  0  0  0  0  0  # atno 17320 bound_to 7965
  146.3207  140.3313  142.8640 LP  0  0  0  0  0  0  0  0  0  0  0  0  # atno 17321 bound_to 7965
  140.7529  143.2999  151.3107 LP  0  0  0  0  0  0  0  0  0  0  0  0  # atno 17342 bound_to 10162
  139.6498  144.0383  152.2618 LP  0  0  0  0  0  0  0  0  0  0  0  0  # atno 17343 bound_to 10162
  156.0927  130.3662  150.0365 LP  0  0  0  0  0  0  0  0  0  0  0  0  # atno 17370 bound_to 10713
  156.8493  130.9453  151.3626 LP  0  0  0  0  0  0  0  0  0  0  0  0  # atno 17371 bound_to 10713
  139.8714  134.9788  156.5012 LP  0  0  0  0  0  0  0  0  0  0  0  0  # atno 17394 bound_to 11000
  140.8537  133.8112  155.9195 LP  0  0  0  0  0  0  0  0  0  0  0  0  # atno 17395 bound_to 11000

$$$$
