AV-unprocessed.smi:37|AV-procd|sdf|330|dock6
  -GOLD-   2262016163D 1   1.00000     0.00000
 Structure written by MMmdl.
 43 44  0  0  0  0  0  0  0  0  2 V2000
  147.3592  133.9545  161.7616 C   0  0  0  0  0  0  0  0  0  0  0  0
  147.6068  135.4293  162.1065 C   0  0  0  0  0  0  0  0  0  0  0  0
  147.4968  136.3326  160.8805 C   0  0  0  0  0  0  0  0  0  0  0  0
  146.5620  137.1222  160.7453 O   0  0  0  0  0  0  0  0  0  0  0  0
  148.5058  136.1518  160.0164 O   0  0  0  0  0  0  0  0  0  0  0  0
  148.7762  137.1329  159.0304 C   0  0  0  0  0  0  0  0  0  0  0  0
  150.2793  137.4394  158.9732 C   0  0  1  0  0  0  0  0  0  0  0  0
  150.9680  136.3892  158.2910 O   0  0  0  0  0  0  0  0  0  0  0  0
  151.9917  136.9180  157.5006 C   0  0  2  0  0  0  0  0  0  0  0  0
  153.2822  137.0257  158.3027 N   0  0  0  0  0  0  0  0  0  0  0  0
  153.3010  137.5385  159.5914 C   0  0  0  0  0  0  0  0  0  0  0  0
  154.4467  137.6268  160.2972 C   0  0  0  0  0  0  0  0  0  0  0  0
  154.4286  138.1334  161.5420 F   0  0  0  0  0  0  0  0  0  0  0  0
  155.6981  137.1611  159.7052 C   0  0  0  0  0  0  0  0  0  0  0  0
  156.7462  137.2791  160.3377 O   0  0  0  0  0  0  0  0  0  0  0  0
  155.6441  136.6043  158.4616 N   0  5  0  0  0  0  0  0  0  0  0  0
  154.4834  136.4966  157.7515 C   0  0  0  0  0  0  0  0  0  0  0  0
  154.4232  135.9526  156.6490 O   0  0  0  0  0  0  0  0  0  0  0  0
  151.4810  138.2996  157.0654 C   0  0  1  0  0  0  0  0  0  0  0  0
  150.3091  138.0958  155.4681 Br  0  0  0  0  0  0  0  0  0  0  0  0
  150.6493  138.7527  158.2615 C   0  0  2  0  0  0  0  0  0  0  0  0
  151.4524  139.5290  159.1442 O   0  0  0  0  0  0  0  0  0  0  0  0
  151.8564  140.7642  158.7974 C   0  0  0  0  0  0  0  0  0  0  0  0
  151.5391  141.3665  157.7717 O   0  0  0  0  0  0  0  0  0  0  0  0
  152.7927  141.3876  159.8298 C   0  0  0  0  0  0  0  0  0  0  0  0
  152.2952  142.7588  160.3099 C   0  0  0  0  0  0  0  0  0  0  0  0
  147.4505  133.3325  162.6519 H   0  0  0  0  0  0  0  0  0  0  0  0
  148.0814  133.5918  161.0295 H   0  0  0  0  0  0  0  0  0  0  0  0
  146.3598  133.7993  161.3531 H   0  0  0  0  0  0  0  0  0  0  0  0
  146.8866  135.7631  162.8538 H   0  0  0  0  0  0  0  0  0  0  0  0
  148.5974  135.5469  162.5464 H   0  0  0  0  0  0  0  0  0  0  0  0
  148.4351  136.7709  158.0595 H   0  0  0  0  0  0  0  0  0  0  0  0
  148.2206  138.0454  159.2514 H   0  0  0  0  0  0  0  0  0  0  0  0
  150.6397  137.4674  160.0019 H   0  0  0  0  0  0  0  0  0  0  0  0
  152.2387  136.2496  156.6743 H   0  0  0  0  0  0  0  0  0  0  0  0
  152.3919  137.8710  160.0662 H   0  0  0  0  0  0  0  0  0  0  0  0
  152.2771  138.9909  156.7921 H   0  0  0  0  0  0  0  0  0  0  0  0
  149.7677  139.3189  157.9569 H   0  0  0  0  0  0  0  0  0  0  0  0
  152.8748  140.7087  160.6792 H   0  0  0  0  0  0  0  0  0  0  0  0
  153.7899  141.4785  159.3990 H   0  0  0  0  0  0  0  0  0  0  0  0
  152.9164  143.1302  161.1245 H   0  0  0  0  0  0  0  0  0  0  0  0
  151.2682  142.7078  160.6739 H   0  0  0  0  0  0  0  0  0  0  0  0
  152.3302  143.4972  159.5086 H   0  0  0  0  0  0  0  0  0  0  0  0
  1  2  1  0  0  0  0
  1 27  1  0  0  0  0
  1 28  1  0  0  0  0
  1 29  1  0  0  0  0
  2  3  1  0  0  0  0
  2 30  1  0  0  0  0
  2 31  1  0  0  0  0
  3  4  2  0  0  0  0
  3  5  1  0  0  0  0
  5  6  1  0  0  0  0
  6  7  1  0  0  0  0
  6 32  1  0  0  0  0
  6 33  1  0  0  0  0
  7 21  1  0  0  0  0
  7  8  1  0  0  0  0
  7 34  1  0  0  0  0
  8  9  1  0  0  0  0
  9 10  1  0  0  0  0
  9 19  1  0  0  0  0
  9 35  1  0  0  0  0
 10 17  1  0  0  0  0
 10 11  1  0  0  0  0
 11 12  2  0  0  0  0
 11 36  1  0  0  0  0
 12 13  1  0  0  0  0
 12 14  1  0  0  0  0
 14 15  2  0  0  0  0
 14 16  1  0  0  0  0
 16 17  1  0  0  0  0
 17 18  2  0  0  0  0
 19 20  1  0  0  0  0
 19 21  1  0  0  0  0
 19 37  1  0  0  0  0
 21 22  1  0  0  0  0
 21 38  1  0  0  0  0
 22 23  1  0  0  0  0
 23 24  2  0  0  0  0
 23 25  1  0  0  0  0
 25 26  1  0  0  0  0
 25 39  1  0  0  0  0
 25 40  1  0  0  0  0
 26 41  1  0  0  0  0
 26 42  1  0  0  0  0
 26 43  1  0  0  0  0
M  CHG  1  16  -1
M  END
> <s_m_source_file>
AV-unprocessed.smi

> <i_m_source_file_index>
37

> <i_lp_mmshare_version>
43012

> <i_f3d_flags>
0

> <s_epik_input>
W0NIM11bQ0gyXUMoPU8pT1tDSDJdW0NAQEhdMU9bQ0BASF0objJbY0hdYyhGKWMoPU8pW25IXWMyPU8pW0NAQEhdKEJyKVtDQEhdMU9DKD1PKVtDSDJdW0NIM10=

> <s_epik_cmdline>
J2VwaWtfcHl0aG9uJywgJy1waCcsICc3LjAnLCAnLXRuJywgJzgnLCAnLW1hJywgJzIwMCcsICctbWV0YWxfYmluZGluZycsICctaW1hZScsICc8aW5maWxlLm1hZT4nLCAnLW9tYWUnLCAnPG91dGZpbGUubWFlPic=

> <r_epik_Ionization_Penalty>
1.08158

> <r_epik_Ionization_Penalty_Charging>
9.05154e-09

> <r_epik_Ionization_Penalty_Neutral>
1.08158

> <r_epik_State_Penalty>
1.13706

> <r_epik_Charging_Adjusted_Penalty>
1.13706

> <i_epik_Tot_Q>
-1

> <i_epik_Tot_abs_Q>
1

> <r_epik_Metal_State_Penalty>
0.00343535

> <b_epik_Metal_Only>
0

> <s_epik_Chemistry_Notes>
This compound has an ester and may undergo hydrolysis at high or low pH. This compound contains an acetal/aminal-like group ( X-CH(R)-Y where X, Y are N, S, or O) that may be acid/base labile, releasing an aldehyde.

> <s_lp_Force_Field>
OPLS_2005

> <r_lp_Energy>
28.0261

> <b_lp_Chiralities_Consistent>
1

> <s_lp_Variant>
AV-unprocessed.smi:37-28

> <Gold.Version>
5.8.1

> <Gold.Id.Protein>
6NUR|6NUR_protein|mol2

> <Gold.PLP.Fitness>
42.9589

> <Gold.PLP.PLP>
-36.6888

> <Gold.PLP.part.hbond>
-3.0000

> <Gold.PLP.part.metal>
0.0000

> <Gold.PLP.part.buried>
-6.2421

> <Gold.PLP.part.nonpolar>
-27.3319

> <Gold.PLP.part.repulsive>
0.0094

> <Gold.PLP.ligand.clash>
0.0000

> <Gold.PLP.ligand.torsion>
1.0859

> <Gold.PLP.Chemscore.Hbond>
2.7680

> <Gold.PLP.Chemscore.CHOScore>
0.0000

> <Gold.PLP.Chemscore.Metal>
0.0000

> <Gold.Chemscore.Hbonds>
donor molecule, donor type, donor heavy atom, donor atom, acceptor molecule, acceptor atom, score
      P1  H  6896  6909       L1     8  0.65
      P1  H  6934  6947       L1     4  1.00
      P1  H 10752 10765       L1    18  0.81

> <Gold.PLP.Chemscore.Internal.Correction>
0.1379

> <Gold.Rescore>
     Score         DG    S(hbond)    S(metal)    S(lipo)     H(rot)  DE(clash)    DE(int)     intcor
     12.05     -14.75       2.83        0.00      69.87       3.27       0.05       2.65       ----

> <Gold.Chemscore.Fitness>
12.0508

> <Gold.Chemscore.DG>
-14.7527

> <Gold.Chemscore.ZeroCoef>
-5.4800

> <Gold.Chemscore.Hbond>
2.8326

> <Gold.Chemscore.Metal>
0.0000

> <Gold.Chemscore.Lipo>
69.8744

> <Gold.Chemscore.Internal_Hbond>
0.0000

> <Gold.Chemscore.DEClash>
0.0540

> <Gold.Chemscore.DEInternal>
2.6479

> <Gold.Chemscore.Rot>
3.2669

> <Gold.Chemscore.Internal.Correction>
   9.000000E+99

> <Gold.Chemscore.Hbonds>
donor molecule, donor type, donor heavy atom, donor atom, acceptor molecule, acceptor atom, score
      P1  H  6896  6909       L1     8  0.14
      P1  H  6934  6947       L1     4  0.79
      P1  H 10752 10765       L1    18  0.80

> <Gold.Chemscore.Hbond.Weighted>
-9.4607

> <Gold.Chemscore.Metal.Weighted>
-0.0000

> <Gold.Chemscore.Lipo.Weighted>
-8.1753

> <Gold.Chemscore.Internal_Hbond.Weighted>
0.0000

> <Gold.Chemscore.DEClash.Weighted>
0.0540

> <Gold.Chemscore.DEInternal.Weighted>
2.6479

> <Gold.Chemscore.Rot.Weighted>
8.3634

> <Gold.Chemscore.Internal.Correction.Weighted>
   9.000000E+99

> <Gold.Protein.RotatedTorsions>
[ 6907 6896 6895 6894 ] final   91.38 input  -60.11 | X-H torsion
[ 7974 7965 7964 7962 ] final   10.38 input  175.53 | X-H torsion
[ 8008 7997 7996 7995 ] final -172.62 input   59.86 | X-H torsion
[ 10167 10162 10161 10158 ] final  144.17 input  -65.29 | X-H torsion
[ 10718 10713 10712 10709 ] final  -64.08 input   66.30 | X-H torsion
[ 10763 10752 10751 10750 ] final  -80.56 input  -60.55 | X-H torsion
[ 11005 11000 10999 10996 ] final -143.87 input  -57.11 | X-H torsion

> <Gold.Protein.ActiveResidues>
 VAL166  LYS551  ARG553  GLY616  TRP617  ASP618  TYR619  PRO620  LYS621  CYS622 
 ASP623  PHE694  ASN695  SER759  ASP760  ASP761  ALA762  ILE779  LEU786  VAL792 
 PHE793  MET794  SER795  GLU796  ALA797  LYS798  CYS799  TRP800  GLU811  SER814 

> <Gold.Protein.RotatedAtoms>
  152.5449  134.1666  159.8579 H   0  0  0  0  0  0  0  0  0  0  0  0  # atno 6907 bound_to 6896
  151.1680  133.4796  159.2601 H   0  0  0  0  0  0  0  0  0  0  0  0  # atno 6908 bound_to 6896
  151.1305  135.0138  159.8635 H   0  0  0  0  0  0  0  0  0  0  0  0  # atno 6909 bound_to 6896
  146.2389  139.9642  142.8455 H   0  0  0  0  0  0  0  0  0  0  0  0  # atno 7974 bound_to 7965
  155.9469  140.1119  157.1009 H   0  0  0  0  0  0  0  0  0  0  0  0  # atno 8008 bound_to 7997
  154.4101  140.1208  156.5067 H   0  0  0  0  0  0  0  0  0  0  0  0  # atno 8009 bound_to 7997
  155.6892  140.3472  155.4889 H   0  0  0  0  0  0  0  0  0  0  0  0  # atno 8010 bound_to 7997
  139.4953  144.5990  151.6521 H   0  0  0  0  0  0  0  0  0  0  0  0  # atno 10167 bound_to 10162
  156.0751  130.4229  150.1368 H   0  0  0  0  0  0  0  0  0  0  0  0  # atno 10718 bound_to 10713
  154.5527  135.5657  153.6937 H   0  0  0  0  0  0  0  0  0  0  0  0  # atno 10763 bound_to 10752
  152.9994  135.6255  154.2352 H   0  0  0  0  0  0  0  0  0  0  0  0  # atno 10764 bound_to 10752
  154.2287  135.2867  155.2878 H   0  0  0  0  0  0  0  0  0  0  0  0  # atno 10765 bound_to 10752
  140.8081  134.2776  157.4952 H   0  0  0  0  0  0  0  0  0  0  0  0  # atno 11005 bound_to 11000
  145.1742  140.9736  143.4304 LP  0  0  0  0  0  0  0  0  0  0  0  0  # atno 17320 bound_to 7965
  145.0001  139.3607  143.6172 LP  0  0  0  0  0  0  0  0  0  0  0  0  # atno 17321 bound_to 7965
  140.5635  144.0229  150.6181 LP  0  0  0  0  0  0  0  0  0  0  0  0  # atno 17342 bound_to 10162
  140.3323  143.3070  152.0675 LP  0  0  0  0  0  0  0  0  0  0  0  0  # atno 17343 bound_to 10162
  156.9411  130.9745  151.3516 LP  0  0  0  0  0  0  0  0  0  0  0  0  # atno 17370 bound_to 10713
  157.5842  130.8398  149.8566 LP  0  0  0  0  0  0  0  0  0  0  0  0  # atno 17371 bound_to 10713
  139.8716  134.9468  156.3948 LP  0  0  0  0  0  0  0  0  0  0  0  0  # atno 17394 bound_to 11000
  140.9225  133.7635  155.9924 LP  0  0  0  0  0  0  0  0  0  0  0  0  # atno 17395 bound_to 11000

$$$$
