AV-unprocessed.smi:2195|AV-procd|sdf|8907|dock5
  -GOLD-   2272012123D 1   1.00000     0.00000
 Structure written by MMmdl.
 40 42  0  0  0  0  0  0  0  0  2 V2000
  148.8231  141.1793  154.4866 C   0  0  0  0  0  0  0  0  0  0  0  0
  149.9115  140.7965  155.4682 C   0  0  0  0  0  0  0  0  0  0  0  0
  150.8682  139.8212  155.1245 C   0  0  0  0  0  0  0  0  0  0  0  0
  151.8791  139.4702  156.0399 C   0  0  0  0  0  0  0  0  0  0  0  0
  151.9540  140.0864  157.3059 C   0  0  0  0  0  0  0  0  0  0  0  0
  152.9765  139.6840  158.1384 O   0  0  0  0  0  0  0  0  0  0  0  0
  152.7613  139.7369  159.5425 C   0  0  0  0  0  0  0  0  0  0  0  0
  154.1144  139.9027  160.2508 C   0  0  1  0  0  0  0  0  0  0  0  0
  155.0682  139.1004  159.5829 O   0  0  0  0  0  0  0  0  0  0  0  0
  154.5844  141.3708  160.2848 C   0  0  0  0  0  0  0  0  0  0  0  0
  153.5801  142.2788  160.8577 N   0  0  0  0  0  0  0  0  0  0  0  0
  153.1390  142.3852  162.1404 C   0  0  0  0  0  0  0  0  0  0  0  0
  152.2020  143.3728  162.1734 N   0  3  0  0  0  0  0  0  0  0  0  0
  152.0418  143.9066  160.8930 C   0  0  0  0  0  0  0  0  0  0  0  0
  151.2123  144.9223  160.4273 C   0  0  0  0  0  0  0  0  0  0  0  0
  151.2954  145.2269  159.0527 C   0  0  0  0  0  0  0  0  0  0  0  0
  152.1783  144.5343  158.1990 C   0  0  0  0  0  0  0  0  0  0  0  0
  153.0140  143.5059  158.6819 C   0  0  0  0  0  0  0  0  0  0  0  0
  152.9247  143.2088  160.0416 C   0  0  0  0  0  0  0  0  0  0  0  0
  150.9899  141.0696  157.6440 C   0  0  0  0  0  0  0  0  0  0  0  0
  149.9770  141.4199  156.7299 C   0  0  0  0  0  0  0  0  0  0  0  0
  148.6342  140.3737  153.7763 H   0  0  0  0  0  0  0  0  0  0  0  0
  149.1173  142.0678  153.9276 H   0  0  0  0  0  0  0  0  0  0  0  0
  147.8902  141.3942  155.0086 H   0  0  0  0  0  0  0  0  0  0  0  0
  150.8308  139.3386  154.1587 H   0  0  0  0  0  0  0  0  0  0  0  0
  152.6058  138.7195  155.7664 H   0  0  0  0  0  0  0  0  0  0  0  0
  152.1188  140.5877  159.7768 H   0  0  0  0  0  0  0  0  0  0  0  0
  152.2642  138.8305  159.8926 H   0  0  0  0  0  0  0  0  0  0  0  0
  154.0298  139.5255  161.2709 H   0  0  0  0  0  0  0  0  0  0  0  0
  155.4449  139.6062  158.8787 H   0  0  0  0  0  0  0  0  0  0  0  0
  155.5211  141.4763  160.8325 H   0  0  0  0  0  0  0  0  0  0  0  0
  154.7857  141.7198  159.2713 H   0  0  0  0  0  0  0  0  0  0  0  0
  153.4721  141.7926  162.9804 H   0  0  0  0  0  0  0  0  0  0  0  0
  150.5367  145.4562  161.0794 H   0  0  0  0  0  0  0  0  0  0  0  0
  150.6707  146.0083  158.6449 H   0  0  0  0  0  0  0  0  0  0  0  0
  152.2170  144.7979  157.1520 H   0  0  0  0  0  0  0  0  0  0  0  0
  153.6910  142.9861  158.0203 H   0  0  0  0  0  0  0  0  0  0  0  0
  151.0051  141.5723  158.5990 H   0  0  0  0  0  0  0  0  0  0  0  0
  149.2498  142.1707  157.0018 H   0  0  0  0  0  0  0  0  0  0  0  0
  151.7101  143.6600  163.0100 H   0  0  0  0  0  0  0  0  0  0  0  0
  1  2  1  0  0  0  0
  1 22  1  0  0  0  0
  1 23  1  0  0  0  0
  1 24  1  0  0  0  0
  2 21  1  0  0  0  0
  2  3  2  0  0  0  0
  3  4  1  0  0  0  0
  3 25  1  0  0  0  0
  4  5  2  0  0  0  0
  4 26  1  0  0  0  0
  5  6  1  0  0  0  0
  5 20  1  0  0  0  0
  6  7  1  0  0  0  0
  7  8  1  0  0  0  0
  7 27  1  0  0  0  0
  7 28  1  0  0  0  0
  8  9  1  0  0  0  0
  8 10  1  0  0  0  0
  8 29  1  0  0  0  0
  9 30  1  0  0  0  0
 10 11  1  0  0  0  0
 10 31  1  0  0  0  0
 10 32  1  0  0  0  0
 11 19  1  0  0  0  0
 11 12  1  0  0  0  0
 12 13  2  0  0  0  0
 12 33  1  0  0  0  0
 13 14  1  0  0  0  0
 13 40  1  0  0  0  0
 14 19  2  0  0  0  0
 14 15  1  0  0  0  0
 15 16  2  0  0  0  0
 15 34  1  0  0  0  0
 16 17  1  0  0  0  0
 16 35  1  0  0  0  0
 17 18  2  0  0  0  0
 17 36  1  0  0  0  0
 18 19  1  0  0  0  0
 18 37  1  0  0  0  0
 20 21  2  0  0  0  0
 20 38  1  0  0  0  0
 21 39  1  0  0  0  0
M  CHG  1  13   1
M  END
> <s_m_source_file>
AV-unprocessed.smi

> <i_m_source_file_index>
2195

> <i_lp_mmshare_version>
43012

> <i_f3d_flags>
0

> <s_epik_input>
W0NIM11jMVtjSF1bY0hdYyhbY0hdW2NIXTEpT1tDSDJdW0NASF0oW09IXSlbQ0gyXW4oW2NIXW4yKWMoYzIzKVtjSF1bY0hdW2NIXVtjSF0z

> <s_epik_cmdline>
J2VwaWtfcHl0aG9uJywgJy1waCcsICc3LjAnLCAnLXRuJywgJzgnLCAnLW1hJywgJzIwMCcsICctbWV0YWxfYmluZGluZycsICctaW1hZScsICc8aW5maWxlLm1hZT4nLCAnLW9tYWUnLCAnPG91dGZpbGUubWFlPic=

> <r_lp_tautomer_probability>
1

> <r_epik_Ionization_Penalty>
1.3774

> <r_epik_Ionization_Penalty_Charging>
1.37739

> <r_epik_Ionization_Penalty_Neutral>
2.3993e-06

> <r_epik_State_Penalty>
1.45762

> <r_epik_Charging_Adjusted_Penalty>
2.83501

> <i_epik_Tot_Q>
1

> <i_epik_Tot_abs_Q>
1

> <r_epik_Metal_State_Penalty>
5.49752

> <b_epik_Metal_Only>
0

> <s_lp_Force_Field>
OPLS_2005

> <r_lp_Energy>
19.9339

> <b_lp_Chiralities_Consistent>
1

> <s_lp_Variant>
AV-unprocessed.smi:2195-4

> <Gold.Version>
5.8.1

> <Gold.Id.Protein>
6NUR|6NUR_protein|mol2

> <Gold.PLP.Fitness>
59.3809

> <Gold.PLP.PLP>
-57.9908

> <Gold.PLP.part.hbond>
-1.9863

> <Gold.PLP.part.metal>
0.0000

> <Gold.PLP.part.buried>
-4.3516

> <Gold.PLP.part.nonpolar>
-51.8546

> <Gold.PLP.part.repulsive>
0.1079

> <Gold.PLP.ligand.clash>
0.0000

> <Gold.PLP.ligand.torsion>
0.8415

> <Gold.PLP.Chemscore.Hbond>
1.0000

> <Gold.PLP.Chemscore.CHOScore>
0.0000

> <Gold.PLP.Chemscore.Metal>
0.0000

> <Gold.Chemscore.Hbonds>
donor molecule, donor type, donor heavy atom, donor atom, acceptor molecule, acceptor atom, score
      P1  H  7997  8008       L1     6  0.95

> <Gold.PLP.Chemscore.Internal.Correction>
0.0731

> <Gold.Rescore>
     Score         DG    S(hbond)    S(metal)    S(lipo)     H(rot)  DE(clash)    DE(int)     intcor
     18.54     -19.54       0.91        0.00     143.91       2.27       0.19       0.82       ----

> <Gold.Chemscore.Fitness>
18.5381

> <Gold.Chemscore.DG>
-19.5435

> <Gold.Chemscore.ZeroCoef>
-5.4800

> <Gold.Chemscore.Hbond>
0.9113

> <Gold.Chemscore.Metal>
0.0000

> <Gold.Chemscore.Lipo>
143.9057

> <Gold.Chemscore.Internal_Hbond>
0.0000

> <Gold.Chemscore.DEClash>
0.1852

> <Gold.Chemscore.DEInternal>
0.8202

> <Gold.Chemscore.Rot>
2.2723

> <Gold.Chemscore.Internal.Correction>
   9.000000E+99

> <Gold.Chemscore.Hbonds>
donor molecule, donor type, donor heavy atom, donor atom, acceptor molecule, acceptor atom, score
      P1  H  7997  8008       L1     6  0.21

> <Gold.Chemscore.Hbond.Weighted>
-3.0436

> <Gold.Chemscore.Metal.Weighted>
-0.0000

> <Gold.Chemscore.Lipo.Weighted>
-16.8370

> <Gold.Chemscore.Internal_Hbond.Weighted>
0.0000

> <Gold.Chemscore.DEClash.Weighted>
0.1852

> <Gold.Chemscore.DEInternal.Weighted>
0.8202

> <Gold.Chemscore.Rot.Weighted>
5.8170

> <Gold.Chemscore.Internal.Correction.Weighted>
   9.000000E+99

> <Gold.Protein.RotatedTorsions>
[ 6907 6896 6895 6894 ] final  -95.16 input  -60.11 | X-H torsion
[ 7974 7965 7964 7962 ] final  -68.18 input  175.53 | X-H torsion
[ 8008 7997 7996 7995 ] final  -78.56 input   59.86 | X-H torsion
[ 10167 10162 10161 10158 ] final  101.54 input  -65.29 | X-H torsion
[ 10718 10713 10712 10709 ] final  112.17 input   66.30 | X-H torsion
[ 10763 10752 10751 10750 ] final  169.52 input  -60.55 | X-H torsion
[ 11005 11000 10999 10996 ] final  -96.78 input  -57.11 | X-H torsion

> <Gold.Protein.ActiveResidues>
 VAL166  LYS551  ARG553  GLY616  TRP617  ASP618  TYR619  PRO620  LYS621  CYS622 
 ASP623  PHE694  ASN695  SER759  ASP760  ASP761  ALA762  ILE779  LEU786  VAL792 
 PHE793  MET794  SER795  GLU796  ALA797  LYS798  CYS799  TRP800  GLU811  SER814 

> <Gold.Protein.RotatedAtoms>
  150.6957  134.1700  159.4208 H   0  0  0  0  0  0  0  0  0  0  0  0  # atno 6907 bound_to 6896
  151.9678  135.0089  160.0560 H   0  0  0  0  0  0  0  0  0  0  0  0  # atno 6908 bound_to 6896
  152.1869  133.4711  159.5024 H   0  0  0  0  0  0  0  0  0  0  0  0  # atno 6909 bound_to 6896
  145.7198  140.9043  143.0636 H   0  0  0  0  0  0  0  0  0  0  0  0  # atno 7974 bound_to 7965
  154.5701  140.0692  156.8951 H   0  0  0  0  0  0  0  0  0  0  0  0  # atno 8008 bound_to 7997
  155.2650  140.3361  155.4251 H   0  0  0  0  0  0  0  0  0  0  0  0  # atno 8009 bound_to 7997
  156.2111  140.1760  156.7677 H   0  0  0  0  0  0  0  0  0  0  0  0  # atno 8010 bound_to 7997
  139.7429  144.7006  151.0548 H   0  0  0  0  0  0  0  0  0  0  0  0  # atno 10167 bound_to 10162
  157.6406  131.0963  150.6857 H   0  0  0  0  0  0  0  0  0  0  0  0  # atno 10718 bound_to 10713
  154.3843  135.2753  155.2193 H   0  0  0  0  0  0  0  0  0  0  0  0  # atno 10763 bound_to 10752
  154.4286  135.5983  153.6058 H   0  0  0  0  0  0  0  0  0  0  0  0  # atno 10764 bound_to 10752
  152.9833  135.5990  154.4089 H   0  0  0  0  0  0  0  0  0  0  0  0  # atno 10765 bound_to 10752
  141.1400  133.8122  157.0617 H   0  0  0  0  0  0  0  0  0  0  0  0  # atno 11005 bound_to 11000
  144.6920  139.9186  143.7467 LP  0  0  0  0  0  0  0  0  0  0  0  0  # atno 17320 bound_to 7965
  146.0636  139.3628  143.0566 LP  0  0  0  0  0  0  0  0  0  0  0  0  # atno 17321 bound_to 7965
  140.7788  143.4902  150.9903 LP  0  0  0  0  0  0  0  0  0  0  0  0  # atno 17342 bound_to 10162
  139.8590  143.7339  152.3174 LP  0  0  0  0  0  0  0  0  0  0  0  0  # atno 17343 bound_to 10162
  156.7181  130.4672  149.5530 LP  0  0  0  0  0  0  0  0  0  0  0  0  # atno 17370 bound_to 10713
  156.1684  130.6421  151.0807 LP  0  0  0  0  0  0  0  0  0  0  0  0  # atno 17371 bound_to 10713
  140.0567  134.9777  157.1233 LP  0  0  0  0  0  0  0  0  0  0  0  0  # atno 17394 bound_to 11000
  140.3909  134.2186  155.7166 LP  0  0  0  0  0  0  0  0  0  0  0  0  # atno 17395 bound_to 11000

$$$$
