AV-unprocessed.smi:2822|AV-procd|sdf|10883|dock5
  -GOLD-   2272015323D 1   1.00000     0.00000
 Structure written by MMmdl.
 39 41  0  0  0  0  0  0  0  0  1 V2000
  150.9694  145.0897  159.2334 Cl  0  0  0  0  0  0  0  0  0  0  0  0
  151.8783  143.7286  159.7917 C   0  0  0  0  0  0  0  0  0  0  0  0
  152.4183  143.7363  161.0942 C   0  0  0  0  0  0  0  0  0  0  0  0
  153.1388  142.7173  161.6077 N   0  0  0  0  0  0  0  0  0  0  0  0
  153.3465  141.6388  160.8239 C   0  0  0  0  0  0  0  0  0  0  0  0
  152.8518  141.5276  159.5092 C   0  0  0  0  0  0  0  0  0  0  0  0
  152.0967  142.5971  158.9721 C   0  0  0  0  0  0  0  0  0  0  0  0
  151.5696  142.5710  157.6718 N   0  0  0  0  0  0  0  0  0  0  0  0
  151.9410  141.5218  156.7349 C   0  0  0  0  0  0  0  0  0  0  0  0
  150.7104  140.7664  156.2150 C   0  0  1  0  0  0  0  0  0  0  0  0
  149.6733  141.7264  155.6027 C   0  0  0  0  0  0  0  0  0  0  0  0
  148.5385  141.0123  155.0311 N   0  0  0  0  0  0  0  0  0  0  0  0
  147.5701  141.9372  154.4440 C   0  0  0  0  0  0  0  0  0  0  0  0
  146.3450  141.2126  153.8637 C   0  0  0  0  0  0  0  0  0  0  0  0
  146.7843  140.1719  152.8241 C   0  0  0  0  0  0  0  0  0  0  0  0
  147.8423  139.2361  153.4290 C   0  0  0  0  0  0  0  0  0  0  0  0
  149.0085  140.0418  154.0380 C   0  0  2  0  0  0  0  0  0  0  0  0
  150.0630  139.0974  154.6500 C   0  0  0  0  0  0  0  0  0  0  0  0
  151.1333  139.8582  155.2008 O   0  0  0  0  0  0  0  0  0  0  0  0
  152.2675  144.5860  161.7439 H   0  0  0  0  0  0  0  0  0  0  0  0
  153.9269  140.8378  161.2575 H   0  0  0  0  0  0  0  0  0  0  0  0
  153.0601  140.6334  158.9415 H   0  0  0  0  0  0  0  0  0  0  0  0
  150.7751  143.1541  157.4500 H   0  0  0  0  0  0  0  0  0  0  0  0
  152.4635  141.9803  155.8947 H   0  0  0  0  0  0  0  0  0  0  0  0
  152.6349  140.8273  157.2106 H   0  0  0  0  0  0  0  0  0  0  0  0
  150.2495  140.2113  157.0347 H   0  0  0  0  0  0  0  0  0  0  0  0
  149.3219  142.4175  156.3699 H   0  0  0  0  0  0  0  0  0  0  0  0
  150.1526  142.3336  154.8330 H   0  0  0  0  0  0  0  0  0  0  0  0
  147.2371  142.6477  155.2014 H   0  0  0  0  0  0  0  0  0  0  0  0
  148.0482  142.5250  153.6589 H   0  0  0  0  0  0  0  0  0  0  0  0
  145.7951  140.7214  154.6675 H   0  0  0  0  0  0  0  0  0  0  0  0
  145.6615  141.9315  153.4111 H   0  0  0  0  0  0  0  0  0  0  0  0
  145.9256  139.5985  152.4739 H   0  0  0  0  0  0  0  0  0  0  0  0
  147.1996  140.6786  151.9521 H   0  0  0  0  0  0  0  0  0  0  0  0
  147.3810  138.6158  154.1989 H   0  0  0  0  0  0  0  0  0  0  0  0
  148.2129  138.5551  152.6621 H   0  0  0  0  0  0  0  0  0  0  0  0
  149.4929  140.5869  153.2260 H   0  0  0  0  0  0  0  0  0  0  0  0
  149.6220  138.4681  155.4250 H   0  0  0  0  0  0  0  0  0  0  0  0
  150.4650  138.4299  153.8874 H   0  0  0  0  0  0  0  0  0  0  0  0
  1  2  1  0  0  0  0
  2  7  1  0  0  0  0
  2  3  2  0  0  0  0
  3  4  1  0  0  0  0
  3 20  1  0  0  0  0
  4  5  2  0  0  0  0
  5  6  1  0  0  0  0
  5 21  1  0  0  0  0
  6  7  2  0  0  0  0
  6 22  1  0  0  0  0
  7  8  1  0  0  0  0
  8  9  1  0  0  0  0
  8 23  1  0  0  0  0
  9 10  1  0  0  0  0
  9 24  1  0  0  0  0
  9 25  1  0  0  0  0
 10 19  1  0  0  0  0
 10 11  1  0  0  0  0
 10 26  1  0  0  0  0
 11 12  1  0  0  0  0
 11 27  1  0  0  0  0
 11 28  1  0  0  0  0
 12 17  1  0  0  0  0
 12 13  1  0  0  0  0
 13 14  1  0  0  0  0
 13 29  1  0  0  0  0
 13 30  1  0  0  0  0
 14 15  1  0  0  0  0
 14 31  1  0  0  0  0
 14 32  1  0  0  0  0
 15 16  1  0  0  0  0
 15 33  1  0  0  0  0
 15 34  1  0  0  0  0
 16 17  1  0  0  0  0
 16 35  1  0  0  0  0
 16 36  1  0  0  0  0
 17 18  1  0  0  0  0
 17 37  1  0  0  0  0
 18 19  1  0  0  0  0
 18 38  1  0  0  0  0
 18 39  1  0  0  0  0
M  END
> <s_m_source_file>
AV-unprocessed.smi

> <i_m_source_file_index>
2822

> <i_lp_mmshare_version>
43012

> <i_f3d_flags>
0

> <s_epik_input>
Q2xjMVtjSF1uW2NIXVtjSF1jMVtOSF1bQ0gyXVtDQEhdKFtDSDJdMilPW0NIMl1bQ0BASF0oTjIzKVtDSDJdW0NIMl1bQ0gyXVtDSDJdMw==

> <s_epik_cmdline>
J2VwaWtfcHl0aG9uJywgJy1waCcsICc3LjAnLCAnLXRuJywgJzgnLCAnLW1hJywgJzIwMCcsICctbWV0YWxfYmluZGluZycsICctaW1hZScsICc8aW5maWxlLm1hZT4nLCAnLW9tYWUnLCAnPG91dGZpbGUubWFlPic=

> <r_lp_tautomer_probability>
0.999999

> <r_epik_Ionization_Penalty>
2.10064

> <r_epik_Ionization_Penalty_Charging>
0

> <r_epik_Ionization_Penalty_Neutral>
2.10064

> <r_epik_State_Penalty>
2.1757

> <r_epik_Charging_Adjusted_Penalty>
2.1757

> <i_epik_Tot_Q>
0

> <i_epik_Tot_abs_Q>
0

> <r_epik_Metal_State_Penalty>
1.25425

> <b_epik_Metal_Only>
0

> <s_lp_Force_Field>
OPLS_2005

> <r_lp_Energy>
37.6932

> <b_lp_Chiralities_Consistent>
1

> <s_lp_Variant>
AV-unprocessed.smi:2822-24

> <Gold.Version>
5.8.1

> <Gold.Id.Protein>
6NUR|6NUR_protein|mol2

> <Gold.PLP.Fitness>
37.4689

> <Gold.PLP.PLP>
-34.8498

> <Gold.PLP.part.hbond>
-1.0000

> <Gold.PLP.part.metal>
0.0000

> <Gold.PLP.part.buried>
1.7668

> <Gold.PLP.part.nonpolar>
-35.6555

> <Gold.PLP.part.repulsive>
0.2232

> <Gold.PLP.ligand.clash>
0.0000

> <Gold.PLP.ligand.torsion>
0.0408

> <Gold.PLP.Chemscore.Hbond>
0.9000

> <Gold.PLP.Chemscore.CHOScore>
0.0000

> <Gold.PLP.Chemscore.Metal>
0.0000

> <Gold.Chemscore.Hbonds>
donor molecule, donor type, donor heavy atom, donor atom, acceptor molecule, acceptor atom, score
      P1  H  7989  7998       L1    19  0.88

> <Gold.PLP.Chemscore.Internal.Correction>
0.0007

> <Gold.Rescore>
     Score         DG    S(hbond)    S(metal)    S(lipo)     H(rot)  DE(clash)    DE(int)     intcor
     15.89     -17.82       0.10        0.00     127.73       1.15       1.85       0.07       ----

> <Gold.Chemscore.Fitness>
15.8945

> <Gold.Chemscore.DG>
-17.8197

> <Gold.Chemscore.ZeroCoef>
-5.4800

> <Gold.Chemscore.Hbond>
0.1032

> <Gold.Chemscore.Metal>
0.0000

> <Gold.Chemscore.Lipo>
127.7253

> <Gold.Chemscore.Internal_Hbond>
0.0000

> <Gold.Chemscore.DEClash>
1.8548

> <Gold.Chemscore.DEInternal>
0.0704

> <Gold.Chemscore.Rot>
1.1519

> <Gold.Chemscore.Internal.Correction>
   9.000000E+99

> <Gold.Chemscore.Hbonds>
donor molecule, donor type, donor heavy atom, donor atom, acceptor molecule, acceptor atom, score
      P1  H  7989  7998       L1    19  0.13

> <Gold.Chemscore.Hbond.Weighted>
-0.3446

> <Gold.Chemscore.Metal.Weighted>
-0.0000

> <Gold.Chemscore.Lipo.Weighted>
-14.9439

> <Gold.Chemscore.Internal_Hbond.Weighted>
0.0000

> <Gold.Chemscore.DEClash.Weighted>
1.8548

> <Gold.Chemscore.DEInternal.Weighted>
0.0704

> <Gold.Chemscore.Rot.Weighted>
2.9487

> <Gold.Chemscore.Internal.Correction.Weighted>
   9.000000E+99

> <Gold.Protein.RotatedTorsions>
[ 6907 6896 6895 6894 ] final  101.94 input  -60.11 | X-H torsion
[ 7974 7965 7964 7962 ] final  154.06 input  175.53 | X-H torsion
[ 8008 7997 7996 7995 ] final  138.96 input   59.86 | X-H torsion
[ 10167 10162 10161 10158 ] final   76.96 input  -65.29 | X-H torsion
[ 10718 10713 10712 10709 ] final -160.94 input   66.30 | X-H torsion
[ 10763 10752 10751 10750 ] final  -76.92 input  -60.55 | X-H torsion
[ 11005 11000 10999 10996 ] final   12.49 input  -57.11 | X-H torsion

> <Gold.Protein.ActiveResidues>
 VAL166  LYS551  ARG553  GLY616  TRP617  ASP618  TYR619  PRO620  LYS621  CYS622 
 ASP623  PHE694  ASN695  SER759  ASP760  ASP761  ALA762  ILE779  LEU786  VAL792 
 PHE793  MET794  SER795  GLU796  ALA797  LYS798  CYS799  TRP800  GLU811  SER814 

> <Gold.Protein.RotatedAtoms>
  152.5337  134.0050  159.7911 H   0  0  0  0  0  0  0  0  0  0  0  0  # atno 6907 bound_to 6896
  151.0262  133.5823  159.2673 H   0  0  0  0  0  0  0  0  0  0  0  0  # atno 6908 bound_to 6896
  151.2845  135.0731  159.9235 H   0  0  0  0  0  0  0  0  0  0  0  0  # atno 6909 bound_to 6896
  144.8113  139.6884  143.6140 H   0  0  0  0  0  0  0  0  0  0  0  0  # atno 7974 bound_to 7965
  156.2993  140.2380  156.4160 H   0  0  0  0  0  0  0  0  0  0  0  0  # atno 8008 bound_to 7997
  154.8398  140.0429  157.1554 H   0  0  0  0  0  0  0  0  0  0  0  0  # atno 8009 bound_to 7997
  154.9115  140.2991  155.5267 H   0  0  0  0  0  0  0  0  0  0  0  0  # atno 8010 bound_to 7997
  139.9867  144.5787  150.7853 H   0  0  0  0  0  0  0  0  0  0  0  0  # atno 10167 bound_to 10162
  156.5892  130.8763  151.2885 H   0  0  0  0  0  0  0  0  0  0  0  0  # atno 10718 bound_to 10713
  154.5061  135.5781  153.6569 H   0  0  0  0  0  0  0  0  0  0  0  0  # atno 10763 bound_to 10752
  152.9888  135.6147  154.2939 H   0  0  0  0  0  0  0  0  0  0  0  0  # atno 10764 bound_to 10752
  154.2850  135.2850  155.2659 H   0  0  0  0  0  0  0  0  0  0  0  0  # atno 10765 bound_to 10752
  140.4913  134.0837  155.7772 H   0  0  0  0  0  0  0  0  0  0  0  0  # atno 11005 bound_to 11000
  146.2412  139.6005  142.9490 LP  0  0  0  0  0  0  0  0  0  0  0  0  # atno 17320 bound_to 7965
  145.5317  141.0426  143.2379 LP  0  0  0  0  0  0  0  0  0  0  0  0  # atno 17321 bound_to 7965
  140.7469  143.2899  151.3360 LP  0  0  0  0  0  0  0  0  0  0  0  0  # atno 17342 bound_to 10162
  139.6370  144.0612  152.2523 LP  0  0  0  0  0  0  0  0  0  0  0  0  # atno 17343 bound_to 10162
  157.7308  130.9690  150.1848 LP  0  0  0  0  0  0  0  0  0  0  0  0  # atno 17370 bound_to 10713
  156.2564  130.3706  149.8177 LP  0  0  0  0  0  0  0  0  0  0  0  0  # atno 17371 bound_to 10713
  141.1482  133.9016  157.2163 LP  0  0  0  0  0  0  0  0  0  0  0  0  # atno 17394 bound_to 11000
  139.9767  135.0111  156.9649 LP  0  0  0  0  0  0  0  0  0  0  0  0  # atno 17395 bound_to 11000

$$$$
