AV-unprocessed.smi:2482|AV-procd|sdf|9777|dock10
  -GOLD-   2272013423D 1   1.00000     0.00000
 Structure written by MMmdl.
 35 36  0  0  0  0  0  0  0  0  2 V2000
  152.9738  143.5913  162.6382 C   0  0  0  0  0  0  0  0  0  0  0  0
  153.1404  142.5776  161.5185 C   0  0  0  0  0  0  0  0  0  0  0  0
  154.0686  141.6265  161.7625 N   0  0  0  0  0  0  0  0  0  0  0  0
  154.2809  140.6822  160.8237 C   0  0  0  0  0  0  0  0  0  0  0  0
  153.5900  140.6420  159.5986 C   0  0  0  0  0  0  0  0  0  0  0  0
  152.6279  141.6435  159.3317 C   0  0  0  0  0  0  0  0  0  0  0  0
  151.8613  141.6701  158.1360 N   0  0  0  0  0  0  0  0  0  0  0  0
  151.9136  140.8142  157.0993 C   0  0  0  0  0  0  0  0  0  0  0  0
  152.6553  139.8325  157.0496 O   0  0  0  0  0  0  0  0  0  0  0  0
  150.9770  141.1399  155.9183 C   0  0  2  0  0  0  0  0  0  0  0  0
  149.4683  141.0698  156.2549 C   0  0  0  0  0  0  0  0  0  0  0  0
  149.0321  139.6690  156.4652 N   0  3  1  0  0  0  0  0  0  0  0  0
  147.6100  139.5668  156.8560 C   0  0  0  0  0  0  0  0  0  0  0  0
  149.3640  138.8351  155.2880 C   0  0  0  0  0  0  0  0  0  0  0  0
  150.8667  138.9240  154.9758 C   0  0  0  0  0  0  0  0  0  0  0  0
  151.2452  140.2896  154.7974 O   0  0  0  0  0  0  0  0  0  0  0  0
  152.3853  142.6269  160.3192 C   0  0  0  0  0  0  0  0  0  0  0  0
  151.1997  143.8604  160.0425 Cl  0  0  0  0  0  0  0  0  0  0  0  0
  152.2417  144.3651  162.4148 H   0  0  0  0  0  0  0  0  0  0  0  0
  153.9248  144.0858  162.8373 H   0  0  0  0  0  0  0  0  0  0  0  0
  152.6568  143.0890  163.5525 H   0  0  0  0  0  0  0  0  0  0  0  0
  155.0202  139.9310  161.0592 H   0  0  0  0  0  0  0  0  0  0  0  0
  153.7956  139.8463  158.8985 H   0  0  0  0  0  0  0  0  0  0  0  0
  151.2869  142.4909  158.0072 H   0  0  0  0  0  0  0  0  0  0  0  0
  151.2120  142.1600  155.6130 H   0  0  0  0  0  0  0  0  0  0  0  0
  149.2436  141.6659  157.1408 H   0  0  0  0  0  0  0  0  0  0  0  0
  148.8919  141.5064  155.4377 H   0  0  0  0  0  0  0  0  0  0  0  0
  146.9580  139.9469  156.0684 H   0  0  0  0  0  0  0  0  0  0  0  0
  147.4199  140.1395  157.7643 H   0  0  0  0  0  0  0  0  0  0  0  0
  147.3391  138.5292  157.0545 H   0  0  0  0  0  0  0  0  0  0  0  0
  149.0873  137.7977  155.4792 H   0  0  0  0  0  0  0  0  0  0  0  0
  148.7834  139.1694  154.4269 H   0  0  0  0  0  0  0  0  0  0  0  0
  151.4551  138.4529  155.7642 H   0  0  0  0  0  0  0  0  0  0  0  0
  151.0894  138.3793  154.0581 H   0  0  0  0  0  0  0  0  0  0  0  0
  149.5713  139.3099  157.2407 H   0  0  0  0  0  0  0  0  0  0  0  0
  1  2  1  0  0  0  0
  1 19  1  0  0  0  0
  1 20  1  0  0  0  0
  1 21  1  0  0  0  0
  2 17  1  0  0  0  0
  2  3  2  0  0  0  0
  3  4  1  0  0  0  0
  4  5  2  0  0  0  0
  4 22  1  0  0  0  0
  5  6  1  0  0  0  0
  5 23  1  0  0  0  0
  6  7  1  0  0  0  0
  6 17  2  0  0  0  0
  7  8  1  0  0  0  0
  7 24  1  0  0  0  0
  8  9  2  0  0  0  0
  8 10  1  0  0  0  0
 10 16  1  0  0  0  0
 10 11  1  0  0  0  0
 10 25  1  0  0  0  0
 11 12  1  0  0  0  0
 11 26  1  0  0  0  0
 11 27  1  0  0  0  0
 12 13  1  0  0  0  0
 12 14  1  0  0  0  0
 12 35  1  0  0  0  0
 13 28  1  0  0  0  0
 13 29  1  0  0  0  0
 13 30  1  0  0  0  0
 14 15  1  0  0  0  0
 14 31  1  0  0  0  0
 14 32  1  0  0  0  0
 15 16  1  0  0  0  0
 15 33  1  0  0  0  0
 15 34  1  0  0  0  0
 17 18  1  0  0  0  0
M  CHG  1  12   1
M  END
> <s_m_source_file>
AV-unprocessed.smi

> <i_m_source_file_index>
2482

> <i_lp_mmshare_version>
43012

> <i_f3d_flags>
0

> <s_epik_input>
W0NIM11jMW5bY0hdW2NIXWMoYzFDbClbTkhdQyg9TylbQ0BASF0yW0NIMl1OKFtDSDNdKVtDSDJdW0NIMl1PMg==

> <s_epik_cmdline>
J2VwaWtfcHl0aG9uJywgJy1waCcsICc3LjAnLCAnLXRuJywgJzgnLCAnLW1hJywgJzIwMCcsICctbWV0YWxfYmluZGluZycsICctaW1hZScsICc8aW5maWxlLm1hZT4nLCAnLW9tYWUnLCAnPG91dGZpbGUubWFlPic=

> <r_epik_Ionization_Penalty>
0.314226

> <r_epik_Ionization_Penalty_Charging>
0.314023

> <r_epik_Ionization_Penalty_Neutral>
0.00020299

> <r_epik_State_Penalty>
0.308208

> <r_epik_Charging_Adjusted_Penalty>
0.62223

> <i_epik_Tot_Q>
1

> <i_epik_Tot_abs_Q>
1

> <r_epik_Metal_State_Penalty>
0.314444

> <b_epik_Metal_Only>
0

> <s_lp_Force_Field>
OPLS_2005

> <r_lp_Energy>
21.5381

> <b_lp_Chiralities_Consistent>
1

> <s_lp_Variant>
AV-unprocessed.smi:2482-3

> <Gold.Version>
5.8.1

> <Gold.Id.Protein>
6NUR|6NUR_protein|mol2

> <Gold.PLP.Fitness>
40.2840

> <Gold.PLP.PLP>
-34.4488

> <Gold.PLP.part.hbond>
-2.6782

> <Gold.PLP.part.metal>
0.0000

> <Gold.PLP.part.buried>
-5.4950

> <Gold.PLP.part.nonpolar>
-25.5982

> <Gold.PLP.part.repulsive>
0.1545

> <Gold.PLP.ligand.clash>
0.0000

> <Gold.PLP.ligand.torsion>
0.0786

> <Gold.PLP.Chemscore.Hbond>
1.9913

> <Gold.PLP.Chemscore.CHOScore>
0.0000

> <Gold.PLP.Chemscore.Metal>
0.0000

> <Gold.Chemscore.Hbonds>
donor molecule, donor type, donor heavy atom, donor atom, acceptor molecule, acceptor atom, score
      P1  H  7989  7998       L1    16  0.86
      P1  H  7997  8008       L1     9  1.00

> <Gold.PLP.Chemscore.Internal.Correction>
0.0187

> <Gold.Rescore>
     Score         DG    S(hbond)    S(metal)    S(lipo)     H(rot)  DE(clash)    DE(int)     intcor
     17.40     -20.26       1.92        0.00      93.42       1.00       0.19       2.67       ----

> <Gold.Chemscore.Fitness>
17.3966

> <Gold.Chemscore.DG>
-20.2626

> <Gold.Chemscore.ZeroCoef>
-5.4800

> <Gold.Chemscore.Hbond>
1.9199

> <Gold.Chemscore.Metal>
0.0000

> <Gold.Chemscore.Lipo>
93.4214

> <Gold.Chemscore.Internal_Hbond>
0.0000

> <Gold.Chemscore.DEClash>
0.1949

> <Gold.Chemscore.DEInternal>
2.6711

> <Gold.Chemscore.Rot>
1.0000

> <Gold.Chemscore.Internal.Correction>
   9.000000E+99

> <Gold.Chemscore.Hbonds>
donor molecule, donor type, donor heavy atom, donor atom, acceptor molecule, acceptor atom, score
      P1  H  7989  7998       L1    16  0.81
      P1  H  7997  8008       L1     9  0.96

> <Gold.Chemscore.Hbond.Weighted>
-6.4123

> <Gold.Chemscore.Metal.Weighted>
-0.0000

> <Gold.Chemscore.Lipo.Weighted>
-10.9303

> <Gold.Chemscore.Internal_Hbond.Weighted>
0.0000

> <Gold.Chemscore.DEClash.Weighted>
0.1949

> <Gold.Chemscore.DEInternal.Weighted>
2.6711

> <Gold.Chemscore.Rot.Weighted>
2.5600

> <Gold.Chemscore.Internal.Correction.Weighted>
   9.000000E+99

> <Gold.Protein.RotatedTorsions>
[ 6907 6896 6895 6894 ] final  -30.79 input  -60.11 | X-H torsion
[ 7974 7965 7964 7962 ] final   92.94 input  175.53 | X-H torsion
[ 8008 7997 7996 7995 ] final  -59.96 input   59.86 | X-H torsion
[ 10167 10162 10161 10158 ] final  101.49 input  -65.29 | X-H torsion
[ 10718 10713 10712 10709 ] final   76.64 input   66.30 | X-H torsion
[ 10763 10752 10751 10750 ] final   59.39 input  -60.55 | X-H torsion
[ 11005 11000 10999 10996 ] final  -21.85 input  -57.11 | X-H torsion

> <Gold.Protein.ActiveResidues>
 VAL166  LYS551  ARG553  GLY616  TRP617  ASP618  TYR619  PRO620  LYS621  CYS622 
 ASP623  PHE694  ASN695  SER759  ASP760  ASP761  ALA762  ILE779  LEU786  VAL792 
 PHE793  MET794  SER795  GLU796  ALA797  LYS798  CYS799  TRP800  GLU811  SER814 

> <Gold.Protein.RotatedAtoms>
  151.1008  134.9971  159.8447 H   0  0  0  0  0  0  0  0  0  0  0  0  # atno 6907 bound_to 6896
  152.5436  134.1953  159.8700 H   0  0  0  0  0  0  0  0  0  0  0  0  # atno 6908 bound_to 6896
  151.1996  133.4575  159.2629 H   0  0  0  0  0  0  0  0  0  0  0  0  # atno 6909 bound_to 6896
  145.4856  139.2277  143.2858 H   0  0  0  0  0  0  0  0  0  0  0  0  # atno 7974 bound_to 7965
  154.4376  140.1050  156.6197 H   0  0  0  0  0  0  0  0  0  0  0  0  # atno 8008 bound_to 7997
  155.5720  140.3489  155.4499 H   0  0  0  0  0  0  0  0  0  0  0  0  # atno 8009 bound_to 7997
  156.0382  140.1276  157.0174 H   0  0  0  0  0  0  0  0  0  0  0  0  # atno 8010 bound_to 7997
  139.7433  144.7005  151.0542 H   0  0  0  0  0  0  0  0  0  0  0  0  # atno 10167 bound_to 10162
  157.6681  130.9784  150.1526 H   0  0  0  0  0  0  0  0  0  0  0  0  # atno 10718 bound_to 10713
  152.9893  135.5573  154.5706 H   0  0  0  0  0  0  0  0  0  0  0  0  # atno 10763 bound_to 10752
  154.5107  135.2802  155.1347 H   0  0  0  0  0  0  0  0  0  0  0  0  # atno 10764 bound_to 10752
  154.2740  135.6357  153.5374 H   0  0  0  0  0  0  0  0  0  0  0  0  # atno 10765 bound_to 10752
  140.8601  133.7794  156.0064 H   0  0  0  0  0  0  0  0  0  0  0  0  # atno 11005 bound_to 11000
  146.2315  140.5646  142.8973 LP  0  0  0  0  0  0  0  0  0  0  0  0  # atno 17320 bound_to 7965
  144.7863  140.5944  143.6571 LP  0  0  0  0  0  0  0  0  0  0  0  0  # atno 17321 bound_to 7965
  140.7789  143.4897  150.9909 LP  0  0  0  0  0  0  0  0  0  0  0  0  # atno 17342 bound_to 10162
  139.8586  143.7344  152.3174 LP  0  0  0  0  0  0  0  0  0  0  0  0  # atno 17343 bound_to 10162
  156.2321  130.3683  149.8433 LP  0  0  0  0  0  0  0  0  0  0  0  0  # atno 17370 bound_to 10713
  156.6256  130.8644  151.3485 LP  0  0  0  0  0  0  0  0  0  0  0  0  # atno 17371 bound_to 10713
  140.8693  134.2746  157.5198 LP  0  0  0  0  0  0  0  0  0  0  0  0  # atno 17394 bound_to 11000
  139.8706  134.9559  156.4220 LP  0  0  0  0  0  0  0  0  0  0  0  0  # atno 17395 bound_to 11000

$$$$
