AV-unprocessed.smi:3261|AV-procd|sdf|12483|dock2
  -GOLD-   2272018383D 1   1.00000     0.00000
 Structure written by MMmdl.
 30 31  0  0  0  0  0  0  0  0  3 V2000
  147.3304  131.8519  153.0447 O   0  0  0  0  0  0  0  0  0  0  0  0
  147.8897  132.9472  153.0294 C   0  0  0  0  0  0  0  0  0  0  0  0
  147.2919  133.9793  152.3843 N   0  0  0  0  0  0  0  0  0  0  0  0
  146.0844  133.9860  151.6355 C   0  0  0  0  0  0  0  0  0  0  0  0
  145.5054  135.2378  151.3314 C   0  0  0  0  0  0  0  0  0  0  0  0
  144.3180  135.2874  150.5733 C   0  0  0  0  0  0  0  0  0  0  0  0
  143.7526  134.1425  150.1331 N   0  3  0  0  0  0  0  0  0  0  0  0
  144.2808  132.9247  150.3815 C   0  0  0  0  0  0  0  0  0  0  0  0
  145.4669  132.8125  151.1346 C   0  0  0  0  0  0  0  0  0  0  0  0
  149.0837  133.1431  153.6674 N   0  5  0  0  0  0  0  0  0  0  0  0
  149.5625  132.5842  154.9444 C   0  0  1  0  0  0  0  0  0  0  0  0
  150.8616  133.3095  155.3600 C   0  0  0  0  0  0  0  0  0  0  0  0
  150.5131  134.6581  156.0043 C   0  0  0  0  0  0  0  0  0  0  0  0
  148.9540  134.3675  156.9171 S   0  0  0  0  0  0  0  0  0  0  0  0
  149.2671  134.0545  158.3203 O   0  0  0  0  0  0  0  0  0  0  0  0
  147.9877  135.4246  156.5805 O   0  0  0  0  0  0  0  0  0  0  0  0
  148.5094  132.8093  156.0490 C   0  0  0  0  0  0  0  0  0  0  0  0
  147.7340  134.8784  152.5071 H   0  0  0  0  0  0  0  0  0  0  0  0
  145.9611  136.1524  151.6824 H   0  0  0  0  0  0  0  0  0  0  0  0
  143.8089  136.2017  150.3060 H   0  0  0  0  0  0  0  0  0  0  0  0
  143.7468  132.0818  149.9678 H   0  0  0  0  0  0  0  0  0  0  0  0
  145.8897  131.8339  151.3067 H   0  0  0  0  0  0  0  0  0  0  0  0
  149.7674  131.5163  154.8533 H   0  0  0  0  0  0  0  0  0  0  0  0
  151.3723  132.6972  156.1041 H   0  0  0  0  0  0  0  0  0  0  0  0
  151.5570  133.4275  154.5277 H   0  0  0  0  0  0  0  0  0  0  0  0
  151.2857  135.0221  156.6811 H   0  0  0  0  0  0  0  0  0  0  0  0
  150.3277  135.4205  155.2456 H   0  0  0  0  0  0  0  0  0  0  0  0
  147.4868  132.8700  155.6754 H   0  0  0  0  0  0  0  0  0  0  0  0
  148.5514  132.0036  156.7817 H   0  0  0  0  0  0  0  0  0  0  0  0
  142.8941  134.2003  149.5849 H   0  0  0  0  0  0  0  0  0  0  0  0
  1  2  2  0  0  0  0
  2  3  1  0  0  0  0
  2 10  1  0  0  0  0
  3  4  1  0  0  0  0
  3 18  1  0  0  0  0
  4  9  1  0  0  0  0
  4  5  2  0  0  0  0
  5  6  1  0  0  0  0
  5 19  1  0  0  0  0
  6  7  2  0  0  0  0
  6 20  1  0  0  0  0
  7  8  1  0  0  0  0
  7 30  1  0  0  0  0
  8  9  2  0  0  0  0
  8 21  1  0  0  0  0
  9 22  1  0  0  0  0
 10 11  1  0  0  0  0
 11 17  1  0  0  0  0
 11 12  1  0  0  0  0
 11 23  1  0  0  0  0
 12 13  1  0  0  0  0
 12 24  1  0  0  0  0
 12 25  1  0  0  0  0
 13 14  1  0  0  0  0
 13 26  1  0  0  0  0
 13 27  1  0  0  0  0
 14 15  2  0  0  0  0
 14 16  2  0  0  0  0
 14 17  1  0  0  0  0
 17 28  1  0  0  0  0
 17 29  1  0  0  0  0
M  CHG  1   7   1
M  CHG  1  10  -1
M  END
> <s_m_source_file>
AV-unprocessed.smi

> <i_m_source_file_index>
3261

> <i_lp_mmshare_version>
43012

> <i_f3d_flags>
0

> <s_epik_input>
Tz1TMSg9TylbQ0gyXVtDSDJdW0NASF0oW0NIMl0xKVtOSF1DKD1PKVtOSF1jMltjSF1bY0hdbltjSF1bY0hdMg==

> <s_epik_cmdline>
J2VwaWtfcHl0aG9uJywgJy1waCcsICc3LjAnLCAnLXRuJywgJzgnLCAnLW1hJywgJzIwMCcsICctbWV0YWxfYmluZGluZycsICctaW1hZScsICc8aW5maWxlLm1hZT4nLCAnLW9tYWUnLCAnPG91dGZpbGUubWFlPic=

> <r_epik_Ionization_Penalty>
8.1176

> <r_epik_Ionization_Penalty_Charging>
8.1176

> <r_epik_Ionization_Penalty_Neutral>
3.03687e-06

> <r_epik_State_Penalty>
7.79629

> <r_epik_Charging_Adjusted_Penalty>
15.9139

> <i_epik_Tot_Q>
0

> <i_epik_Tot_abs_Q>
2

> <r_epik_Metal_State_Penalty>
3.7997

> <b_epik_Metal_Only>
1

> <s_lp_Force_Field>
OPLS_2005

> <r_lp_Energy>
21.8236

> <b_lp_Chiralities_Consistent>
1

> <s_lp_Variant>
AV-unprocessed.smi:3261-6

> <Gold.Version>
5.8.1

> <Gold.Id.Protein>
6NUR|6NUR_protein|mol2

> <Gold.PLP.Fitness>
36.0906

> <Gold.PLP.PLP>
-25.2760

> <Gold.PLP.part.hbond>
-3.0000

> <Gold.PLP.part.metal>
0.0000

> <Gold.PLP.part.buried>
-5.8681

> <Gold.PLP.part.nonpolar>
-17.1894

> <Gold.PLP.part.repulsive>
0.2897

> <Gold.PLP.ligand.clash>
0.0000

> <Gold.PLP.ligand.torsion>
0.4265

> <Gold.PLP.Chemscore.Hbond>
3.8880

> <Gold.PLP.Chemscore.CHOScore>
0.0000

> <Gold.PLP.Chemscore.Metal>
0.0000

> <Gold.Chemscore.Hbonds>
donor molecule, donor type, donor heavy atom, donor atom, acceptor molecule, acceptor atom, score
      L1  H     3    18       P1  7948  0.94
      L1  H     7    30       P1 10186  1.95
      P1  H  6896  6908       L1    15  1.00

> <Gold.PLP.Chemscore.Internal.Correction>
0.0036

> <Gold.Rescore>
     Score         DG    S(hbond)    S(metal)    S(lipo)     H(rot)  DE(clash)    DE(int)     intcor
     16.54     -18.30       2.81        0.00      51.35       1.00       0.07       1.68       ----

> <Gold.Chemscore.Fitness>
16.5424

> <Gold.Chemscore.DG>
-18.2977

> <Gold.Chemscore.ZeroCoef>
-5.4800

> <Gold.Chemscore.Hbond>
2.8054

> <Gold.Chemscore.Metal>
0.0000

> <Gold.Chemscore.Lipo>
51.3465

> <Gold.Chemscore.Internal_Hbond>
0.0000

> <Gold.Chemscore.DEClash>
0.0727

> <Gold.Chemscore.DEInternal>
1.6826

> <Gold.Chemscore.Rot>
1.0000

> <Gold.Chemscore.Internal.Correction>
   9.000000E+99

> <Gold.Chemscore.Hbonds>
donor molecule, donor type, donor heavy atom, donor atom, acceptor molecule, acceptor atom, score
      L1  H     3    18       P1  7948  0.85
      L1  H     7    30       P1 10186  0.93
      P1  H  6896  6908       L1    15  1.00

> <Gold.Chemscore.Hbond.Weighted>
-9.3702

> <Gold.Chemscore.Metal.Weighted>
-0.0000

> <Gold.Chemscore.Lipo.Weighted>
-6.0075

> <Gold.Chemscore.Internal_Hbond.Weighted>
0.0000

> <Gold.Chemscore.DEClash.Weighted>
0.0727

> <Gold.Chemscore.DEInternal.Weighted>
1.6826

> <Gold.Chemscore.Rot.Weighted>
2.5600

> <Gold.Chemscore.Internal.Correction.Weighted>
   9.000000E+99

> <Gold.Protein.RotatedTorsions>
[ 6907 6896 6895 6894 ] final  136.63 input  -60.11 | X-H torsion
[ 7974 7965 7964 7962 ] final  -48.75 input  175.53 | X-H torsion
[ 8008 7997 7996 7995 ] final -163.11 input   59.86 | X-H torsion
[ 10167 10162 10161 10158 ] final   94.64 input  -65.29 | X-H torsion
[ 10718 10713 10712 10709 ] final   77.23 input   66.30 | X-H torsion
[ 10763 10752 10751 10750 ] final   38.11 input  -60.55 | X-H torsion
[ 11005 11000 10999 10996 ] final  161.35 input  -57.11 | X-H torsion

> <Gold.Protein.ActiveResidues>
 VAL166  LYS551  ARG553  GLY616  TRP617  ASP618  TYR619  PRO620  LYS621  CYS622 
 ASP623  PHE694  ASN695  SER759  ASP760  ASP761  ALA762  ILE779  LEU786  VAL792 
 PHE793  MET794  SER795  GLU796  ALA797  LYS798  CYS799  TRP800  GLU811  SER814 

> <Gold.Protein.RotatedAtoms>
  152.2872  133.5526  159.5534 H   0  0  0  0  0  0  0  0  0  0  0  0  # atno 6907 bound_to 6896
  150.7220  134.0481  159.3797 H   0  0  0  0  0  0  0  0  0  0  0  0  # atno 6908 bound_to 6896
  151.8388  135.0597  160.0496 H   0  0  0  0  0  0  0  0  0  0  0  0  # atno 6909 bound_to 6896
  145.9479  140.7600  142.9519 H   0  0  0  0  0  0  0  0  0  0  0  0  # atno 7974 bound_to 7965
  155.8166  140.0913  157.1873 H   0  0  0  0  0  0  0  0  0  0  0  0  # atno 8008 bound_to 7997
  154.3979  140.1444  156.3510 H   0  0  0  0  0  0  0  0  0  0  0  0  # atno 8009 bound_to 7997
  155.8310  140.3442  155.5574 H   0  0  0  0  0  0  0  0  0  0  0  0  # atno 8010 bound_to 7997
  139.8065  144.6792  150.9697 H   0  0  0  0  0  0  0  0  0  0  0  0  # atno 10167 bound_to 10162
  157.6703  130.9812  150.1611 H   0  0  0  0  0  0  0  0  0  0  0  0  # atno 10718 bound_to 10713
  153.0013  135.6258  154.2252 H   0  0  0  0  0  0  0  0  0  0  0  0  # atno 10763 bound_to 10752
  154.1995  135.2805  155.2997 H   0  0  0  0  0  0  0  0  0  0  0  0  # atno 10764 bound_to 10752
  154.5695  135.5681  153.7141 H   0  0  0  0  0  0  0  0  0  0  0  0  # atno 10765 bound_to 10752
  140.2149  134.8240  157.3160 H   0  0  0  0  0  0  0  0  0  0  0  0  # atno 11005 bound_to 11000
  144.6790  140.2386  143.7346 LP  0  0  0  0  0  0  0  0  0  0  0  0  # atno 17320 bound_to 7965
  145.8211  139.2044  143.1937 LP  0  0  0  0  0  0  0  0  0  0  0  0  # atno 17321 bound_to 7965
  140.7819  143.4229  151.0814 LP  0  0  0  0  0  0  0  0  0  0  0  0  # atno 17342 bound_to 10162
  139.7898  143.8235  152.3150 LP  0  0  0  0  0  0  0  0  0  0  0  0  # atno 17343 bound_to 10162
  156.2387  130.3689  149.8361 LP  0  0  0  0  0  0  0  0  0  0  0  0  # atno 17370 bound_to 10713
  156.6167  130.8609  151.3466 LP  0  0  0  0  0  0  0  0  0  0  0  0  # atno 17371 bound_to 10713
  140.1911  134.4370  155.7715 LP  0  0  0  0  0  0  0  0  0  0  0  0  # atno 17394 bound_to 11000
  141.2225  133.7027  156.8029 LP  0  0  0  0  0  0  0  0  0  0  0  0  # atno 17395 bound_to 11000

$$$$
