AV-unprocessed.smi:1300|AV-procd|sdf|5420|dock7
  -GOLD-   22720 4583D 1   1.00000     0.00000
 Structure written by MMmdl.
 35 36  0  0  0  0  0  0  0  0  1 V2000
  147.5774  141.0880  153.9523 C   0  0  0  0  0  0  0  0  0  0  0  0
  148.8926  140.6384  154.5344 C   0  0  0  0  0  0  0  0  0  0  0  0
  149.4852  141.5028  155.2904 N   0  0  0  0  0  0  0  0  0  0  0  0
  150.6986  141.2295  155.8876 N   0  0  0  0  0  0  0  0  0  0  0  0
  151.2147  142.3269  156.7155 C   0  0  0  0  0  0  0  0  0  0  0  0
  150.2395  142.7260  157.8443 C   0  0  1  0  0  0  0  0  0  0  0  0
  149.7023  141.5494  158.4190 O   0  0  0  0  0  0  0  0  0  0  0  0
  150.9434  143.5921  158.8816 C   0  0  0  0  0  0  0  0  0  0  0  0
  150.6184  144.9614  159.0154 C   0  0  0  0  0  0  0  0  0  0  0  0
  151.2613  145.7551  159.9846 C   0  0  0  0  0  0  0  0  0  0  0  0
  152.2303  145.1853  160.8315 C   0  0  0  0  0  0  0  0  0  0  0  0
  152.5536  143.8208  160.7099 C   0  0  0  0  0  0  0  0  0  0  0  0
  151.9120  143.0247  159.7408 C   0  0  0  0  0  0  0  0  0  0  0  0
  152.2284  141.7109  159.6457 F   0  0  0  0  0  0  0  0  0  0  0  0
  151.3841  140.0592  155.7519 C   0  0  0  0  0  0  0  0  0  0  0  0
  152.4673  139.8580  156.3034 O   0  0  0  0  0  0  0  0  0  0  0  0
  150.7101  139.0806  154.8959 C   0  0  0  0  0  0  0  0  0  0  0  0
  151.3980  137.8411  154.7265 C   0  0  0  0  0  0  0  0  0  0  0  0
  151.9657  136.8393  154.6069 N   0  0  0  0  0  0  0  0  0  0  0  0
  149.5150  139.3346  154.3053 C   0  0  0  0  0  0  0  0  0  0  0  0
  148.7829  138.3413  153.4128 C   0  0  0  0  0  0  0  0  0  0  0  0
  147.1326  140.3516  153.2856 H   0  0  0  0  0  0  0  0  0  0  0  0
  147.7056  142.0067  153.3787 H   0  0  0  0  0  0  0  0  0  0  0  0
  146.8557  141.2888  154.7446 H   0  0  0  0  0  0  0  0  0  0  0  0
  152.1952  142.0819  157.1294 H   0  0  0  0  0  0  0  0  0  0  0  0
  151.3918  143.1870  156.0665 H   0  0  0  0  0  0  0  0  0  0  0  0
  149.4008  143.2908  157.4368 H   0  0  0  0  0  0  0  0  0  0  0  0
  149.1483  141.7969  159.1436 H   0  0  0  0  0  0  0  0  0  0  0  0
  149.8707  145.4099  158.3775 H   0  0  0  0  0  0  0  0  0  0  0  0
  151.0088  146.8009  160.0800 H   0  0  0  0  0  0  0  0  0  0  0  0
  152.7224  145.7933  161.5761 H   0  0  0  0  0  0  0  0  0  0  0  0
  153.2937  143.3824  161.3632 H   0  0  0  0  0  0  0  0  0  0  0  0
  149.3095  137.3912  153.3313 H   0  0  0  0  0  0  0  0  0  0  0  0
  148.6737  138.7422  152.4047 H   0  0  0  0  0  0  0  0  0  0  0  0
  147.7906  138.1277  153.8120 H   0  0  0  0  0  0  0  0  0  0  0  0
  1  2  1  0  0  0  0
  1 22  1  0  0  0  0
  1 23  1  0  0  0  0
  1 24  1  0  0  0  0
  2 20  1  0  0  0  0
  2  3  2  0  0  0  0
  3  4  1  0  0  0  0
  4  5  1  0  0  0  0
  4 15  1  0  0  0  0
  5  6  1  0  0  0  0
  5 25  1  0  0  0  0
  5 26  1  0  0  0  0
  6  7  1  0  0  0  0
  6  8  1  0  0  0  0
  6 27  1  0  0  0  0
  7 28  1  0  0  0  0
  8 13  1  0  0  0  0
  8  9  2  0  0  0  0
  9 10  1  0  0  0  0
  9 29  1  0  0  0  0
 10 11  2  0  0  0  0
 10 30  1  0  0  0  0
 11 12  1  0  0  0  0
 11 31  1  0  0  0  0
 12 13  2  0  0  0  0
 12 32  1  0  0  0  0
 13 14  1  0  0  0  0
 15 16  2  0  0  0  0
 15 17  1  0  0  0  0
 17 18  1  0  0  0  0
 17 20  2  0  0  0  0
 18 19  3  0  0  0  0
 20 21  1  0  0  0  0
 21 33  1  0  0  0  0
 21 34  1  0  0  0  0
 21 35  1  0  0  0  0
M  END
> <s_m_source_file>
AV-unprocessed.smi

> <i_m_source_file_index>
1300

> <i_lp_mmshare_version>
43012

> <i_f3d_flags>
0

> <s_epik_input>
TiNDYyhjMVtDSDNdKWMoPU8pbihuYzFbQ0gzXSlbQ0gyXVtDQEhdKFtPSF0pYzJbY0hdW2NIXVtjSF1bY0hdYzJG

> <s_epik_cmdline>
J2VwaWtfcHl0aG9uJywgJy1waCcsICc3LjAnLCAnLXRuJywgJzgnLCAnLW1hJywgJzIwMCcsICctbWV0YWxfYmluZGluZycsICctaW1hZScsICc8aW5maWxlLm1hZT4nLCAnLW9tYWUnLCAnPG91dGZpbGUubWFlPic=

> <r_lp_tautomer_probability>
1

> <r_epik_Ionization_Penalty>
7.1854e-08

> <r_epik_Ionization_Penalty_Charging>
1.40848e-10

> <r_epik_Ionization_Penalty_Neutral>
7.17131e-08

> <r_epik_State_Penalty>
-0

> <r_epik_Charging_Adjusted_Penalty>
1.40848e-10

> <i_epik_Tot_Q>
0

> <i_epik_Tot_abs_Q>
0

> <r_epik_Metal_State_Penalty>
-0

> <b_epik_Metal_Only>
0

> <s_lp_Force_Field>
OPLS_2005

> <r_lp_Energy>
29.2167

> <b_lp_Chiralities_Consistent>
1

> <s_lp_Variant>
AV-unprocessed.smi:1300-2

> <Gold.Version>
5.8.1

> <Gold.Id.Protein>
6NUR|6NUR_protein|mol2

> <Gold.PLP.Fitness>
47.0982

> <Gold.PLP.PLP>
-41.6824

> <Gold.PLP.part.hbond>
-2.0000

> <Gold.PLP.part.metal>
0.0000

> <Gold.PLP.part.buried>
0.6058

> <Gold.PLP.part.nonpolar>
-41.3794

> <Gold.PLP.part.repulsive>
0.2786

> <Gold.PLP.ligand.clash>
0.0000

> <Gold.PLP.ligand.torsion>
0.2962

> <Gold.PLP.Chemscore.Hbond>
2.0000

> <Gold.PLP.Chemscore.CHOScore>
0.0000

> <Gold.PLP.Chemscore.Metal>
0.0000

> <Gold.Chemscore.Hbonds>
donor molecule, donor type, donor heavy atom, donor atom, acceptor molecule, acceptor atom, score
      P1  H  7997  8009       L1    16  1.00
      P1  H 10752 10764       L1    19  1.00

> <Gold.PLP.Chemscore.Internal.Correction>
0.0082

> <Gold.Rescore>
     Score         DG    S(hbond)    S(metal)    S(lipo)     H(rot)  DE(clash)    DE(int)     intcor
     16.03     -19.47       1.89        0.00     109.22       2.00       1.86       1.58       ----

> <Gold.Chemscore.Fitness>
16.0311

> <Gold.Chemscore.DG>
-19.4717

> <Gold.Chemscore.ZeroCoef>
-5.4800

> <Gold.Chemscore.Hbond>
1.8931

> <Gold.Chemscore.Metal>
0.0000

> <Gold.Chemscore.Lipo>
109.2169

> <Gold.Chemscore.Internal_Hbond>
0.0000

> <Gold.Chemscore.DEClash>
1.8602

> <Gold.Chemscore.DEInternal>
1.5804

> <Gold.Chemscore.Rot>
1.9960

> <Gold.Chemscore.Internal.Correction>
   9.000000E+99

> <Gold.Chemscore.Hbonds>
donor molecule, donor type, donor heavy atom, donor atom, acceptor molecule, acceptor atom, score
      P1  H  7997  8009       L1    16  1.00
      P1  H 10752 10764       L1    19  0.93

> <Gold.Chemscore.Hbond.Weighted>
-6.3231

> <Gold.Chemscore.Metal.Weighted>
-0.0000

> <Gold.Chemscore.Lipo.Weighted>
-12.7784

> <Gold.Chemscore.Internal_Hbond.Weighted>
0.0000

> <Gold.Chemscore.DEClash.Weighted>
1.8602

> <Gold.Chemscore.DEInternal.Weighted>
1.5804

> <Gold.Chemscore.Rot.Weighted>
5.1097

> <Gold.Chemscore.Internal.Correction.Weighted>
   9.000000E+99

> <Gold.Protein.RotatedTorsions>
[ 6907 6896 6895 6894 ] final  138.13 input  -60.11 | X-H torsion
[ 7974 7965 7964 7962 ] final  -47.07 input  175.53 | X-H torsion
[ 8008 7997 7996 7995 ] final -162.43 input   59.86 | X-H torsion
[ 10167 10162 10161 10158 ] final -102.92 input  -65.29 | X-H torsion
[ 10718 10713 10712 10709 ] final -159.38 input   66.30 | X-H torsion
[ 10763 10752 10751 10750 ] final  -64.75 input  -60.55 | X-H torsion
[ 11005 11000 10999 10996 ] final  149.92 input  -57.11 | X-H torsion

> <Gold.Protein.ActiveResidues>
 VAL166  LYS551  ARG553  GLY616  TRP617  ASP618  TYR619  PRO620  LYS621  CYS622 
 ASP623  PHE694  ASN695  SER759  ASP760  ASP761  ALA762  ILE779  LEU786  VAL792 
 PHE793  MET794  SER795  GLU796  ALA797  LYS798  CYS799  TRP800  GLU811  SER814 

> <Gold.Protein.RotatedAtoms>
  152.2702  133.5375  159.5433 H   0  0  0  0  0  0  0  0  0  0  0  0  # atno 6907 bound_to 6896
  150.7156  134.0709  159.3873 H   0  0  0  0  0  0  0  0  0  0  0  0  # atno 6908 bound_to 6896
  151.8624  135.0519  160.0521 H   0  0  0  0  0  0  0  0  0  0  0  0  # atno 6909 bound_to 6896
  145.9654  140.7437  142.9436 H   0  0  0  0  0  0  0  0  0  0  0  0  # atno 7974 bound_to 7965
  155.8066  140.0899  157.1927 H   0  0  0  0  0  0  0  0  0  0  0  0  # atno 8008 bound_to 7997
  154.3980  140.1462  156.3397 H   0  0  0  0  0  0  0  0  0  0  0  0  # atno 8009 bound_to 7997
  155.8408  140.3439  155.5633 H   0  0  0  0  0  0  0  0  0  0  0  0  # atno 8010 bound_to 7997
  140.2255  143.3644  152.0932 H   0  0  0  0  0  0  0  0  0  0  0  0  # atno 10167 bound_to 10162
  156.5673  130.8673  151.2827 H   0  0  0  0  0  0  0  0  0  0  0  0  # atno 10718 bound_to 10713
  154.3347  135.6169  153.5568 H   0  0  0  0  0  0  0  0  0  0  0  0  # atno 10763 bound_to 10752
  152.9808  135.5755  154.4921 H   0  0  0  0  0  0  0  0  0  0  0  0  # atno 10764 bound_to 10752
  154.4614  135.2856  155.1687 H   0  0  0  0  0  0  0  0  0  0  0  0  # atno 10765 bound_to 10752
  140.1086  134.8938  157.1903 H   0  0  0  0  0  0  0  0  0  0  0  0  # atno 11005 bound_to 11000
  144.6824  140.2661  143.7312 LP  0  0  0  0  0  0  0  0  0  0  0  0  # atno 17320 bound_to 7965
  145.7981  139.1953  143.2064 LP  0  0  0  0  0  0  0  0  0  0  0  0  # atno 17321 bound_to 7965
  139.5128  144.6923  151.5726 LP  0  0  0  0  0  0  0  0  0  0  0  0  # atno 17342 bound_to 10162
  140.6223  143.9234  150.6536 LP  0  0  0  0  0  0  0  0  0  0  0  0  # atno 17343 bound_to 10162
  157.7356  130.9764  150.2089 LP  0  0  0  0  0  0  0  0  0  0  0  0  # atno 17370 bound_to 10713
  156.2746  130.3726  149.7997 LP  0  0  0  0  0  0  0  0  0  0  0  0  # atno 17371 bound_to 10713
  140.3121  134.3012  155.7264 LP  0  0  0  0  0  0  0  0  0  0  0  0  # atno 17394 bound_to 11000
  141.2124  133.7657  156.9791 LP  0  0  0  0  0  0  0  0  0  0  0  0  # atno 17395 bound_to 11000

$$$$
