AV-unprocessed.smi:1644|AV-procd|sdf|6591|dock5
  -GOLD-   22720 7283D 1   1.00000     0.00000
 Structure written by MMmdl.
 50 52  0  0  0  0  0  0  0  0  2 V2000
  146.9023  134.2781  153.4949 C   0  0  0  0  0  0  0  0  0  0  0  0
  147.3113  133.1712  154.4723 C   0  0  0  0  0  0  0  0  0  0  0  0
  148.0587  133.7207  155.7046 C   0  0  0  0  0  0  0  0  0  0  0  0
  149.5553  134.0463  155.4940 C   0  0  1  0  0  0  0  0  0  0  0  0
  149.7801  135.1496  154.5810 N   0  0  0  0  0  0  0  0  0  0  0  0
  150.4806  136.1451  155.1409 C   0  0  0  0  0  0  0  0  0  0  0  0
  150.8191  137.1810  154.5710 O   0  0  0  0  0  0  0  0  0  0  0  0
  150.7465  135.8112  156.4166 N   0  0  0  0  0  0  0  0  0  0  0  0
  151.5033  136.6490  157.3515 C   0  0  0  0  0  0  0  0  0  0  0  0
  150.9432  138.0849  157.4078 C   0  0  1  0  0  0  0  0  0  0  0  0
  150.2692  138.2670  158.6376 O   0  0  0  0  0  0  0  0  0  0  0  0
  152.0618  139.1406  157.3111 C   0  0  0  0  0  0  0  0  0  0  0  0
  151.5390  140.5059  157.1801 N   0  0  0  0  0  0  0  0  0  0  0  0
  150.8473  141.0887  156.1638 C   0  0  0  0  0  0  0  0  0  0  0  0
  150.5951  142.3774  156.5266 N   0  3  0  0  0  0  0  0  0  0  0  0
  151.1356  142.6199  157.7918 C   0  0  0  0  0  0  0  0  0  0  0  0
  151.1413  143.7666  158.5773 C   0  0  0  0  0  0  0  0  0  0  0  0
  151.7873  143.6859  159.8320 C   0  0  0  0  0  0  0  0  0  0  0  0
  151.8126  144.9217  160.7153 C   0  0  0  0  0  0  0  0  0  0  0  0
  152.4012  142.4805  160.2617 C   0  0  0  0  0  0  0  0  0  0  0  0
  153.0973  142.4057  161.6100 C   0  0  0  0  0  0  0  0  0  0  0  0
  152.3813  141.3243  159.4497 C   0  0  0  0  0  0  0  0  0  0  0  0
  151.7415  141.4222  158.2167 C   0  0  0  0  0  0  0  0  0  0  0  0
  150.2532  134.6032  156.7211 C   0  0  0  0  0  0  0  0  0  0  0  0
  150.3413  134.0099  157.7963 O   0  0  0  0  0  0  0  0  0  0  0  0
  146.3826  133.8614  152.6317 H   0  0  0  0  0  0  0  0  0  0  0  0
  147.7734  134.8214  153.1274 H   0  0  0  0  0  0  0  0  0  0  0  0
  146.2340  134.9964  153.9705 H   0  0  0  0  0  0  0  0  0  0  0  0
  146.4178  132.6318  154.7876 H   0  0  0  0  0  0  0  0  0  0  0  0
  147.9364  132.4508  153.9439 H   0  0  0  0  0  0  0  0  0  0  0  0
  147.5496  134.6175  156.0608 H   0  0  0  0  0  0  0  0  0  0  0  0
  147.9766  132.9960  156.5155 H   0  0  0  0  0  0  0  0  0  0  0  0
  150.0936  133.1662  155.1400 H   0  0  0  0  0  0  0  0  0  0  0  0
  149.4536  135.1477  153.6253 H   0  0  0  0  0  0  0  0  0  0  0  0
  151.5468  136.2031  158.3473 H   0  0  0  0  0  0  0  0  0  0  0  0
  152.5394  136.6713  157.0090 H   0  0  0  0  0  0  0  0  0  0  0  0
  150.2322  138.2447  156.5965 H   0  0  0  0  0  0  0  0  0  0  0  0
  150.7146  137.7636  159.3025 H   0  0  0  0  0  0  0  0  0  0  0  0
  152.6978  139.1094  158.1971 H   0  0  0  0  0  0  0  0  0  0  0  0
  152.7105  138.9452  156.4563 H   0  0  0  0  0  0  0  0  0  0  0  0
  150.5559  140.6155  155.2372 H   0  0  0  0  0  0  0  0  0  0  0  0
  150.6732  144.6809  158.2430 H   0  0  0  0  0  0  0  0  0  0  0  0
  151.3474  144.7143  161.6793 H   0  0  0  0  0  0  0  0  0  0  0  0
  151.2728  145.7512  160.2574 H   0  0  0  0  0  0  0  0  0  0  0  0
  152.8389  145.2468  160.8883 H   0  0  0  0  0  0  0  0  0  0  0  0
  153.5390  141.4227  161.7768 H   0  0  0  0  0  0  0  0  0  0  0  0
  152.3890  142.5942  162.4172 H   0  0  0  0  0  0  0  0  0  0  0  0
  153.8973  143.1440  161.6704 H   0  0  0  0  0  0  0  0  0  0  0  0
  152.8480  140.4058  159.7751 H   0  0  0  0  0  0  0  0  0  0  0  0
  150.0926  143.0402  155.9501 H   0  0  0  0  0  0  0  0  0  0  0  0
  1  2  1  0  0  0  0
  1 26  1  0  0  0  0
  1 27  1  0  0  0  0
  1 28  1  0  0  0  0
  2  3  1  0  0  0  0
  2 29  1  0  0  0  0
  2 30  1  0  0  0  0
  3  4  1  0  0  0  0
  3 31  1  0  0  0  0
  3 32  1  0  0  0  0
  4 24  1  0  0  0  0
  4  5  1  0  0  0  0
  4 33  1  0  0  0  0
  5  6  1  0  0  0  0
  5 34  1  0  0  0  0
  6  7  2  0  0  0  0
  6  8  1  0  0  0  0
  8  9  1  0  0  0  0
  8 24  1  0  0  0  0
  9 10  1  0  0  0  0
  9 35  1  0  0  0  0
  9 36  1  0  0  0  0
 10 11  1  0  0  0  0
 10 12  1  0  0  0  0
 10 37  1  0  0  0  0
 11 38  1  0  0  0  0
 12 13  1  0  0  0  0
 12 39  1  0  0  0  0
 12 40  1  0  0  0  0
 13 23  1  0  0  0  0
 13 14  1  0  0  0  0
 14 15  2  0  0  0  0
 14 41  1  0  0  0  0
 15 16  1  0  0  0  0
 15 50  1  0  0  0  0
 16 23  2  0  0  0  0
 16 17  1  0  0  0  0
 17 18  2  0  0  0  0
 17 42  1  0  0  0  0
 18 19  1  0  0  0  0
 18 20  1  0  0  0  0
 19 43  1  0  0  0  0
 19 44  1  0  0  0  0
 19 45  1  0  0  0  0
 20 21  1  0  0  0  0
 20 22  2  0  0  0  0
 21 46  1  0  0  0  0
 21 47  1  0  0  0  0
 21 48  1  0  0  0  0
 22 23  1  0  0  0  0
 22 49  1  0  0  0  0
 24 25  2  0  0  0  0
M  CHG  1  15   1
M  END
> <s_m_source_file>
AV-unprocessed.smi

> <i_m_source_file_index>
1644

> <i_lp_mmshare_version>
43012

> <i_f3d_flags>
0

> <s_epik_input>
W0NIM11bQ0gyXVtDSDJdW0NAQEhdMVtOSF1DKD1PKU4oQzE9TylbQ0gyXVtDQEhdKFtPSF0pW0NIMl1uKFtjSF1uMiljKGMyMylbY0hdYyhbQ0gzXSljKFtjSF0zKVtDSDNd

> <s_epik_cmdline>
J2VwaWtfcHl0aG9uJywgJy1waCcsICc3LjAnLCAnLXRuJywgJzgnLCAnLW1hJywgJzIwMCcsICctbWV0YWxfYmluZGluZycsICctaW1hZScsICc8aW5maWxlLm1hZT4nLCAnLW9tYWUnLCAnPG91dGZpbGUubWFlPic=

> <r_lp_tautomer_probability>
1

> <r_epik_Ionization_Penalty>
1.06742

> <r_epik_Ionization_Penalty_Charging>
1.06736

> <r_epik_Ionization_Penalty_Neutral>
5.56132e-05

> <r_epik_State_Penalty>
1.12163

> <r_epik_Charging_Adjusted_Penalty>
2.18899

> <i_epik_Tot_Q>
1

> <i_epik_Tot_abs_Q>
1

> <r_epik_Metal_State_Penalty>
1.26636

> <b_epik_Metal_Only>
0

> <s_lp_Force_Field>
OPLS_2005

> <r_lp_Energy>
28.3475

> <b_lp_Chiralities_Consistent>
1

> <s_lp_Variant>
AV-unprocessed.smi:1644-8

> <Gold.Version>
5.8.1

> <Gold.Id.Protein>
6NUR|6NUR_protein|mol2

> <Gold.PLP.Fitness>
51.3948

> <Gold.PLP.PLP>
-43.5216

> <Gold.PLP.part.hbond>
-3.0000

> <Gold.PLP.part.metal>
0.0000

> <Gold.PLP.part.buried>
-6.9165

> <Gold.PLP.part.nonpolar>
-34.6208

> <Gold.PLP.part.repulsive>
0.3567

> <Gold.PLP.ligand.clash>
0.0000

> <Gold.PLP.ligand.torsion>
0.9252

> <Gold.PLP.Chemscore.Hbond>
3.2080

> <Gold.PLP.Chemscore.CHOScore>
0.0000

> <Gold.PLP.Chemscore.Metal>
0.0000

> <Gold.Chemscore.Hbonds>
donor molecule, donor type, donor heavy atom, donor atom, acceptor molecule, acceptor atom, score
      L1  H     5    34       P1  7948  0.64
      L1  H    15    50       P1  8028  1.72
      P1  H  6896  6909       L1    25  0.37

> <Gold.PLP.Chemscore.Internal.Correction>
0.0997

> <Gold.Rescore>
     Score         DG    S(hbond)    S(metal)    S(lipo)     H(rot)  DE(clash)    DE(int)     intcor
     16.00     -16.86       1.91        0.00     104.02       2.80       0.06       0.81       ----

> <Gold.Chemscore.Fitness>
15.9963

> <Gold.Chemscore.DG>
-16.8626

> <Gold.Chemscore.ZeroCoef>
-5.4800

> <Gold.Chemscore.Hbond>
1.9074

> <Gold.Chemscore.Metal>
0.0000

> <Gold.Chemscore.Lipo>
104.0154

> <Gold.Chemscore.Internal_Hbond>
0.0000

> <Gold.Chemscore.DEClash>
0.0580

> <Gold.Chemscore.DEInternal>
0.8083

> <Gold.Chemscore.Rot>
2.7961

> <Gold.Chemscore.Internal.Correction>
   9.000000E+99

> <Gold.Chemscore.Hbonds>
donor molecule, donor type, donor heavy atom, donor atom, acceptor molecule, acceptor atom, score
      L1  H     5    34       P1  7948  0.07
      L1  H    15    50       P1  8028  0.81
      P1  H  6896  6909       L1    25  0.36

> <Gold.Chemscore.Hbond.Weighted>
-6.3708

> <Gold.Chemscore.Metal.Weighted>
-0.0000

> <Gold.Chemscore.Lipo.Weighted>
-12.1698

> <Gold.Chemscore.Internal_Hbond.Weighted>
0.0000

> <Gold.Chemscore.DEClash.Weighted>
0.0580

> <Gold.Chemscore.DEInternal.Weighted>
0.8083

> <Gold.Chemscore.Rot.Weighted>
7.1580

> <Gold.Chemscore.Internal.Correction.Weighted>
   9.000000E+99

> <Gold.Protein.RotatedTorsions>
[ 6907 6896 6895 6894 ] final  -36.01 input  -60.11 | X-H torsion
[ 7974 7965 7964 7962 ] final -161.61 input  175.53 | X-H torsion
[ 8008 7997 7996 7995 ] final   50.70 input   59.86 | X-H torsion
[ 10167 10162 10161 10158 ] final  129.00 input  -65.29 | X-H torsion
[ 10718 10713 10712 10709 ] final   61.86 input   66.30 | X-H torsion
[ 10763 10752 10751 10750 ] final -117.37 input  -60.55 | X-H torsion
[ 11005 11000 10999 10996 ] final  -79.62 input  -57.11 | X-H torsion

> <Gold.Protein.ActiveResidues>
 VAL166  LYS551  ARG553  GLY616  TRP617  ASP618  TYR619  PRO620  LYS621  CYS622 
 ASP623  PHE694  ASN695  SER759  ASP760  ASP761  ALA762  ILE779  LEU786  VAL792 
 PHE793  MET794  SER795  GLU796  ALA797  LYS798  CYS799  TRP800  GLU811  SER814 

> <Gold.Protein.RotatedAtoms>
  151.0325  134.9550  159.8118 H   0  0  0  0  0  0  0  0  0  0  0  0  # atno 6907 bound_to 6896
  152.5348  134.2761  159.9000 H   0  0  0  0  0  0  0  0  0  0  0  0  # atno 6908 bound_to 6896
  151.2771  133.4185  159.2658 H   0  0  0  0  0  0  0  0  0  0  0  0  # atno 6909 bound_to 6896
  144.7385  140.3372  143.6141 H   0  0  0  0  0  0  0  0  0  0  0  0  # atno 7974 bound_to 7965
  155.4230  140.3447  155.4273 H   0  0  0  0  0  0  0  0  0  0  0  0  # atno 8008 bound_to 7997
  156.1381  140.1534  156.8993 H   0  0  0  0  0  0  0  0  0  0  0  0  # atno 8009 bound_to 7997
  154.4949  140.0831  156.7654 H   0  0  0  0  0  0  0  0  0  0  0  0  # atno 8010 bound_to 7997
  139.5499  144.6804  151.4356 H   0  0  0  0  0  0  0  0  0  0  0  0  # atno 10167 bound_to 10162
  157.5859  130.9018  149.9514 H   0  0  0  0  0  0  0  0  0  0  0  0  # atno 10718 bound_to 10713
  154.8552  135.4312  154.1968 H   0  0  0  0  0  0  0  0  0  0  0  0  # atno 10763 bound_to 10752
  153.3024  135.6970  153.7197 H   0  0  0  0  0  0  0  0  0  0  0  0  # atno 10764 bound_to 10752
  153.6322  135.3483  155.3019 H   0  0  0  0  0  0  0  0  0  0  0  0  # atno 10765 bound_to 10752
  141.1667  133.7114  156.8150 H   0  0  0  0  0  0  0  0  0  0  0  0  # atno 11005 bound_to 11000
  145.7411  139.1764  143.2375 LP  0  0  0  0  0  0  0  0  0  0  0  0  # atno 17320 bound_to 7965
  146.1133  140.7401  142.9492 LP  0  0  0  0  0  0  0  0  0  0  0  0  # atno 17321 bound_to 7965
  140.6759  143.8192  150.7057 LP  0  0  0  0  0  0  0  0  0  0  0  0  # atno 17342 bound_to 10162
  140.1630  143.4259  152.2054 LP  0  0  0  0  0  0  0  0  0  0  0  0  # atno 17343 bound_to 10162
  156.0908  130.3663  150.0399 LP  0  0  0  0  0  0  0  0  0  0  0  0  # atno 17370 bound_to 10713
  156.8531  130.9465  151.3624 LP  0  0  0  0  0  0  0  0  0  0  0  0  # atno 17371 bound_to 10713
  140.2160  134.8792  157.3326 LP  0  0  0  0  0  0  0  0  0  0  0  0  # atno 17394 bound_to 11000
  140.2037  134.4223  155.7649 LP  0  0  0  0  0  0  0  0  0  0  0  0  # atno 17395 bound_to 11000

$$$$
