AV-unprocessed.smi:2272|AV-procd|sdf|9163|dock7
  -GOLD-   2272012373D 1   1.00000     0.00000
 Structure written by MMmdl.
 41 42  0  0  0  0  0  0  0  0  1 V2000
  146.2676  138.3289  153.6317 C   0  0  0  0  0  0  0  0  0  0  0  0
  147.7490  138.3667  153.9627 C   0  0  0  0  0  0  0  0  0  0  0  0
  148.3018  137.1591  154.3993 N   0  0  0  0  0  0  0  0  0  0  0  0
  149.5562  137.0981  154.7065 C   0  0  0  0  0  0  0  0  0  0  0  0
  150.3945  138.2203  154.6102 N   0  0  0  0  0  0  0  0  0  0  0  0
  151.7986  138.0209  155.0034 C   0  0  0  0  0  0  0  0  0  0  0  0
  151.9189  137.4353  156.4293 C   0  0  1  0  0  0  0  0  0  0  0  0
  151.8567  136.0255  156.3487 O   0  0  0  0  0  0  0  0  0  0  0  0
  153.2552  137.7947  157.0948 C   0  0  0  0  0  0  0  0  0  0  0  0
  153.2832  139.1953  157.3288 O   0  0  0  0  0  0  0  0  0  0  0  0
  152.3900  139.6299  158.3437 C   0  0  0  0  0  0  0  0  0  0  0  0
  152.2019  141.1381  158.3710 C   0  0  0  0  0  0  0  0  0  0  0  0
  151.5097  141.7807  157.3226 C   0  0  0  0  0  0  0  0  0  0  0  0
  151.3368  143.1784  157.3392 C   0  0  0  0  0  0  0  0  0  0  0  0
  151.8593  143.9404  158.4016 C   0  0  0  0  0  0  0  0  0  0  0  0
  152.5566  143.3042  159.4465 C   0  0  0  0  0  0  0  0  0  0  0  0
  152.7309  141.9064  159.4319 C   0  0  0  0  0  0  0  0  0  0  0  0
  153.4073  141.3074  160.4412 F   0  0  0  0  0  0  0  0  0  0  0  0
  149.9351  139.4388  154.2022 C   0  0  0  0  0  0  0  0  0  0  0  0
  150.6759  140.4219  154.1396 O   0  0  0  0  0  0  0  0  0  0  0  0
  148.5064  139.4922  153.8527 C   0  0  0  0  0  0  0  0  0  0  0  0
  147.9581  140.8353  153.3864 C   0  0  0  0  0  0  0  0  0  0  0  0
  146.1015  138.6018  152.5892 H   0  0  0  0  0  0  0  0  0  0  0  0
  145.7175  139.0238  154.2669 H   0  0  0  0  0  0  0  0  0  0  0  0
  145.8503  137.3330  153.7863 H   0  0  0  0  0  0  0  0  0  0  0  0
  150.0351  136.1832  155.0596 H   0  0  0  0  0  0  0  0  0  0  0  0
  152.3457  137.4075  154.2843 H   0  0  0  0  0  0  0  0  0  0  0  0
  152.3053  138.9865  154.9580 H   0  0  0  0  0  0  0  0  0  0  0  0
  151.1050  137.7809  157.0682 H   0  0  0  0  0  0  0  0  0  0  0  0
  151.1399  135.7253  156.8865 H   0  0  0  0  0  0  0  0  0  0  0  0
  153.3540  137.2745  158.0493 H   0  0  0  0  0  0  0  0  0  0  0  0
  154.0876  137.4811  156.4629 H   0  0  0  0  0  0  0  0  0  0  0  0
  151.4180  139.1744  158.1528 H   0  0  0  0  0  0  0  0  0  0  0  0
  152.7179  139.2599  159.3165 H   0  0  0  0  0  0  0  0  0  0  0  0
  151.1061  141.2043  156.5031 H   0  0  0  0  0  0  0  0  0  0  0  0
  150.8038  143.6658  156.5362 H   0  0  0  0  0  0  0  0  0  0  0  0
  151.7272  145.0122  158.4141 H   0  0  0  0  0  0  0  0  0  0  0  0
  152.9598  143.8893  160.2599 H   0  0  0  0  0  0  0  0  0  0  0  0
  148.0762  141.5822  154.1722 H   0  0  0  0  0  0  0  0  0  0  0  0
  146.9025  140.8007  153.1224 H   0  0  0  0  0  0  0  0  0  0  0  0
  148.5036  141.1796  152.5072 H   0  0  0  0  0  0  0  0  0  0  0  0
  1  2  1  0  0  0  0
  1 23  1  0  0  0  0
  1 24  1  0  0  0  0
  1 25  1  0  0  0  0
  2 21  2  0  0  0  0
  2  3  1  0  0  0  0
  3  4  2  0  0  0  0
  4  5  1  0  0  0  0
  4 26  1  0  0  0  0
  5  6  1  0  0  0  0
  5 19  1  0  0  0  0
  6  7  1  0  0  0  0
  6 27  1  0  0  0  0
  6 28  1  0  0  0  0
  7  8  1  0  0  0  0
  7  9  1  0  0  0  0
  7 29  1  0  0  0  0
  8 30  1  0  0  0  0
  9 10  1  0  0  0  0
  9 31  1  0  0  0  0
  9 32  1  0  0  0  0
 10 11  1  0  0  0  0
 11 12  1  0  0  0  0
 11 33  1  0  0  0  0
 11 34  1  0  0  0  0
 12 17  1  0  0  0  0
 12 13  2  0  0  0  0
 13 14  1  0  0  0  0
 13 35  1  0  0  0  0
 14 15  2  0  0  0  0
 14 36  1  0  0  0  0
 15 16  1  0  0  0  0
 15 37  1  0  0  0  0
 16 17  2  0  0  0  0
 16 38  1  0  0  0  0
 17 18  1  0  0  0  0
 19 20  2  0  0  0  0
 19 21  1  0  0  0  0
 21 22  1  0  0  0  0
 22 39  1  0  0  0  0
 22 40  1  0  0  0  0
 22 41  1  0  0  0  0
M  END
> <s_m_source_file>
AV-unprocessed.smi

> <i_m_source_file_index>
2272

> <i_lp_mmshare_version>
43012

> <i_f3d_flags>
0

> <s_epik_input>
W0NIM11jMW5bY0hdbihjKD1PKWMxW0NIM10pW0NIMl1bQ0BIXShbT0hdKVtDSDJdT1tDSDJdYzJbY0hdW2NIXVtjSF1bY0hdYzJG

> <s_epik_cmdline>
J2VwaWtfcHl0aG9uJywgJy1waCcsICc3LjAnLCAnLXRuJywgJzgnLCAnLW1hJywgJzIwMCcsICctbWV0YWxfYmluZGluZycsICctaW1hZScsICc8aW5maWxlLm1hZT4nLCAnLW9tYWUnLCAnPG91dGZpbGUubWFlPic=

> <r_lp_tautomer_probability>
1

> <r_epik_Ionization_Penalty>
5.35985e-05

> <r_epik_Ionization_Penalty_Charging>
1.17753e-07

> <r_epik_Ionization_Penalty_Neutral>
5.34808e-05

> <r_epik_State_Penalty>
-0

> <r_epik_Charging_Adjusted_Penalty>
1.17753e-07

> <i_epik_Tot_Q>
0

> <i_epik_Tot_abs_Q>
0

> <r_epik_Metal_State_Penalty>
-0

> <b_epik_Metal_Only>
0

> <s_lp_Force_Field>
OPLS_2005

> <r_lp_Energy>
21.4702

> <b_lp_Chiralities_Consistent>
1

> <s_lp_Variant>
AV-unprocessed.smi:2272-2

> <Gold.Version>
5.8.1

> <Gold.Id.Protein>
6NUR|6NUR_protein|mol2

> <Gold.PLP.Fitness>
48.0674

> <Gold.PLP.PLP>
-39.9561

> <Gold.PLP.part.hbond>
-2.5651

> <Gold.PLP.part.metal>
0.0000

> <Gold.PLP.part.buried>
-5.5040

> <Gold.PLP.part.nonpolar>
-32.8492

> <Gold.PLP.part.repulsive>
0.2578

> <Gold.PLP.ligand.clash>
0.0000

> <Gold.PLP.ligand.torsion>
0.5117

> <Gold.PLP.Chemscore.Hbond>
3.0000

> <Gold.PLP.Chemscore.CHOScore>
0.0000

> <Gold.PLP.Chemscore.Metal>
0.0000

> <Gold.Chemscore.Hbonds>
donor molecule, donor type, donor heavy atom, donor atom, acceptor molecule, acceptor atom, score
      P1  H  7989  7998       L1    20  0.24
      P1  H  7997  8009       L1    10  0.99
      P1  H 10752 10764       L1     8  1.00

> <Gold.PLP.Chemscore.Internal.Correction>
0.1346

> <Gold.Rescore>
     Score         DG    S(hbond)    S(metal)    S(lipo)     H(rot)  DE(clash)    DE(int)     intcor
     17.24     -18.73       2.54        0.00      99.61       2.69       0.09       1.41       ----

> <Gold.Chemscore.Fitness>
17.2358

> <Gold.Chemscore.DG>
-18.7330

> <Gold.Chemscore.ZeroCoef>
-5.4800

> <Gold.Chemscore.Hbond>
2.5372

> <Gold.Chemscore.Metal>
0.0000

> <Gold.Chemscore.Lipo>
99.6096

> <Gold.Chemscore.Internal_Hbond>
0.0000

> <Gold.Chemscore.DEClash>
0.0910

> <Gold.Chemscore.DEInternal>
1.4061

> <Gold.Chemscore.Rot>
2.6857

> <Gold.Chemscore.Internal.Correction>
   9.000000E+99

> <Gold.Chemscore.Hbonds>
donor molecule, donor type, donor heavy atom, donor atom, acceptor molecule, acceptor atom, score
      P1  H  7989  7998       L1    20  0.24
      P1  H  7997  8009       L1    10  0.90
      P1  H 10752 10764       L1     8  0.65

> <Gold.Chemscore.Hbond.Weighted>
-8.4741

> <Gold.Chemscore.Metal.Weighted>
-0.0000

> <Gold.Chemscore.Lipo.Weighted>
-11.6543

> <Gold.Chemscore.Internal_Hbond.Weighted>
0.0000

> <Gold.Chemscore.DEClash.Weighted>
0.0910

> <Gold.Chemscore.DEInternal.Weighted>
1.4061

> <Gold.Chemscore.Rot.Weighted>
6.8755

> <Gold.Chemscore.Internal.Correction.Weighted>
   9.000000E+99

> <Gold.Protein.RotatedTorsions>
[ 6907 6896 6895 6894 ] final   39.90 input  -60.11 | X-H torsion
[ 7974 7965 7964 7962 ] final  -61.08 input  175.53 | X-H torsion
[ 8008 7997 7996 7995 ] final -171.25 input   59.86 | X-H torsion
[ 10167 10162 10161 10158 ] final   26.84 input  -65.29 | X-H torsion
[ 10718 10713 10712 10709 ] final  108.96 input   66.30 | X-H torsion
[ 10763 10752 10751 10750 ] final  -25.06 input  -60.55 | X-H torsion
[ 11005 11000 10999 10996 ] final   -2.69 input  -57.11 | X-H torsion

> <Gold.Protein.ActiveResidues>
 VAL166  LYS551  ARG553  GLY616  TRP617  ASP618  TYR619  PRO620  LYS621  CYS622 
 ASP623  PHE694  ASN695  SER759  ASP760  ASP761  ALA762  ILE779  LEU786  VAL792 
 PHE793  MET794  SER795  GLU796  ALA797  LYS798  CYS799  TRP800  GLU811  SER814 

> <Gold.Protein.RotatedAtoms>
  152.1756  134.8797  160.0530 H   0  0  0  0  0  0  0  0  0  0  0  0  # atno 6907 bound_to 6896
  151.9741  133.3730  159.4090 H   0  0  0  0  0  0  0  0  0  0  0  0  # atno 6908 bound_to 6896
  150.6909  134.4032  159.5172 H   0  0  0  0  0  0  0  0  0  0  0  0  # atno 6909 bound_to 6896
  145.8078  140.8617  143.0198 H   0  0  0  0  0  0  0  0  0  0  0  0  # atno 7974 bound_to 7965
  155.9291  140.1088  157.1146 H   0  0  0  0  0  0  0  0  0  0  0  0  # atno 8008 bound_to 7997
  154.4067  140.1241  156.4845 H   0  0  0  0  0  0  0  0  0  0  0  0  # atno 8009 bound_to 7997
  155.7102  140.3471  155.4973 H   0  0  0  0  0  0  0  0  0  0  0  0  # atno 8010 bound_to 7997
  140.4988  144.0348  150.6325 H   0  0  0  0  0  0  0  0  0  0  0  0  # atno 10167 bound_to 10162
  157.6563  131.0904  150.6383 H   0  0  0  0  0  0  0  0  0  0  0  0  # atno 10718 bound_to 10713
  153.6937  135.6960  153.5082 H   0  0  0  0  0  0  0  0  0  0  0  0  # atno 10763 bound_to 10752
  153.2394  135.4311  155.0681 H   0  0  0  0  0  0  0  0  0  0  0  0  # atno 10764 bound_to 10752
  154.8365  135.3504  154.6478 H   0  0  0  0  0  0  0  0  0  0  0  0  # atno 10765 bound_to 10752
  140.6612  133.9319  155.8437 H   0  0  0  0  0  0  0  0  0  0  0  0  # atno 11005 bound_to 11000
  144.6761  140.0351  143.7482 LP  0  0  0  0  0  0  0  0  0  0  0  0  # atno 17320 bound_to 7965
  145.9810  139.2941  143.1042 LP  0  0  0  0  0  0  0  0  0  0  0  0  # atno 17321 bound_to 7965
  140.3638  143.2893  152.0354 LP  0  0  0  0  0  0  0  0  0  0  0  0  # atno 17342 bound_to 10162
  139.4867  144.6282  151.7121 LP  0  0  0  0  0  0  0  0  0  0  0  0  # atno 17343 bound_to 10162
  156.6689  130.4534  149.5663 LP  0  0  0  0  0  0  0  0  0  0  0  0  # atno 17370 bound_to 10713
  156.2012  130.6621  151.1169 LP  0  0  0  0  0  0  0  0  0  0  0  0  # atno 17371 bound_to 10713
  141.0464  134.0548  157.3839 LP  0  0  0  0  0  0  0  0  0  0  0  0  # atno 17394 bound_to 11000
  139.9012  135.0165  156.7279 LP  0  0  0  0  0  0  0  0  0  0  0  0  # atno 17395 bound_to 11000

$$$$
