AV-unprocessed.smi:48|AV-procd|sdf|449|dock7
  -GOLD-   2262016313D 1   1.00000     0.00000
 Structure written by MMmdl.
 30 32  0  0  0  0  0  0  0  0  1 V2000
  150.1416  137.2376  154.1336 O   0  0  0  0  0  0  0  0  0  0  0  0
  151.0615  138.2990  154.2728 C   0  0  0  0  0  0  0  0  0  0  0  0
  150.5366  139.3153  155.2978 C   0  0  1  0  0  0  0  0  0  0  0  0
  151.5078  140.3351  155.5068 O   0  0  0  0  0  0  0  0  0  0  0  0
  150.8924  141.4728  156.0339 C   0  0  2  0  0  0  0  0  0  0  0  0
  151.1740  141.5235  157.5061 N   0  0  0  0  0  0  0  0  0  0  0  0
  151.3892  140.5108  158.3737 C   0  0  0  0  0  0  0  0  0  0  0  0
  151.6251  140.8334  159.6455 N   0  0  0  0  0  0  0  0  0  0  0  0
  151.5573  142.2159  159.5976 C   0  0  0  0  0  0  0  0  0  0  0  0
  151.7061  143.2219  160.5828 C   0  0  0  0  0  0  0  0  0  0  0  0
  152.0445  142.8152  162.2253 Cl  0  0  0  0  0  0  0  0  0  0  0  0
  151.5759  144.5168  160.2061 N   0  0  0  0  0  0  0  0  0  0  0  0
  151.3127  144.8047  158.9251 C   0  0  0  0  0  0  0  0  0  0  0  0
  151.1461  143.9701  157.8922 N   0  0  0  0  0  0  0  0  0  0  0  0
  151.2799  142.6666  158.2766 C   0  0  0  0  0  0  0  0  0  0  0  0
  149.3811  141.3596  155.7179 C   0  0  2  0  0  0  0  0  0  0  0  0
  148.5625  141.1936  156.8666 O   0  0  0  0  0  0  0  0  0  0  0  0
  149.3489  140.1387  154.8003 C   0  0  2  0  0  0  0  0  0  0  0  0
  148.1257  139.4276  154.8437 O   0  0  0  0  0  0  0  0  0  0  0  0
  150.2835  138.8321  156.2435 H   0  0  0  0  0  0  0  0  0  0  0  0
  151.3598  142.3732  155.6336 H   0  0  0  0  0  0  0  0  0  0  0  0
  149.0532  142.2550  155.1891 H   0  0  0  0  0  0  0  0  0  0  0  0
  149.5343  140.4593  153.7740 H   0  0  0  0  0  0  0  0  0  0  0  0
  149.9548  137.1207  153.2145 H   0  0  0  0  0  0  0  0  0  0  0  0
  152.0428  137.9180  154.5567 H   0  0  0  0  0  0  0  0  0  0  0  0
  151.1668  138.7711  153.2957 H   0  0  0  0  0  0  0  0  0  0  0  0
  151.3752  139.4778  158.0590 H   0  0  0  0  0  0  0  0  0  0  0  0
  151.2215  145.8557  158.6936 H   0  0  0  0  0  0  0  0  0  0  0  0
  148.0778  141.9926  157.0069 H   0  0  0  0  0  0  0  0  0  0  0  0
  148.2821  138.5865  155.2447 H   0  0  0  0  0  0  0  0  0  0  0  0
  1  2  1  0  0  0  0
  1 24  1  0  0  0  0
  2  3  1  0  0  0  0
  2 25  1  0  0  0  0
  2 26  1  0  0  0  0
  3 20  1  0  0  0  0
  3 18  1  0  0  0  0
  3  4  1  0  0  0  0
  4  5  1  0  0  0  0
  5 21  1  0  0  0  0
  5  6  1  0  0  0  0
  5 16  1  0  0  0  0
  6 15  1  0  0  0  0
  6  7  1  0  0  0  0
  7  8  2  0  0  0  0
  7 27  1  0  0  0  0
  8  9  1  0  0  0  0
  9 15  2  0  0  0  0
  9 10  1  0  0  0  0
 10 11  1  0  0  0  0
 10 12  2  0  0  0  0
 12 13  1  0  0  0  0
 13 14  2  0  0  0  0
 13 28  1  0  0  0  0
 14 15  1  0  0  0  0
 16 22  1  0  0  0  0
 16 17  1  0  0  0  0
 16 18  1  0  0  0  0
 17 29  1  0  0  0  0
 18 23  1  0  0  0  0
 18 19  1  0  0  0  0
 19 30  1  0  0  0  0
M  END
> <s_m_source_file>
AV-unprocessed.smi

> <i_m_source_file_index>
48

> <i_lp_mmshare_version>
43012

> <i_f3d_flags>
0

> <s_epik_input>
W09IXVtDSDJdW0NASF0xT1tDQEhdKFtDQEhdKFtPSF0pW0NAQEhdMVtPSF0pbihbY0hdbjIpYyhjMjMpbltjSF1uYzNDbA==

> <s_epik_cmdline>
J2VwaWtfcHl0aG9uJywgJy1waCcsICc3LjAnLCAnLXRuJywgJzgnLCAnLW1hJywgJzIwMCcsICctbWV0YWxfYmluZGluZycsICctaW1hZScsICc8aW5maWxlLm1hZT4nLCAnLW9tYWUnLCAnPG91dGZpbGUubWFlPic=

> <r_lp_tautomer_probability>
1

> <r_epik_Ionization_Penalty>
3.45505e-06

> <r_epik_Ionization_Penalty_Charging>
0

> <r_epik_Ionization_Penalty_Neutral>
3.45505e-06

> <r_epik_State_Penalty>
-0

> <r_epik_Charging_Adjusted_Penalty>
0

> <i_epik_Tot_Q>
0

> <i_epik_Tot_abs_Q>
0

> <r_epik_Metal_State_Penalty>
-0

> <b_epik_Metal_Only>
0

> <s_epik_Chemistry_Notes>
This compound contains an acetal/aminal-like group ( X-CH(R)-Y where X, Y are N, S, or O) that may be acid/base labile, releasing an aldehyde.

> <s_lp_Force_Field>
OPLS_2005

> <r_lp_Energy>
41.4935

> <b_lp_Chiralities_Consistent>
1

> <s_lp_Variant>
AV-unprocessed.smi:48-3

> <Gold.Version>
5.8.1

> <Gold.Id.Protein>
6NUR|6NUR_protein|mol2

> <Gold.PLP.Fitness>
42.9041

> <Gold.PLP.PLP>
-38.6630

> <Gold.PLP.part.hbond>
-2.5082

> <Gold.PLP.part.metal>
0.0000

> <Gold.PLP.part.buried>
-7.5099

> <Gold.PLP.part.nonpolar>
-28.3796

> <Gold.PLP.part.repulsive>
0.2022

> <Gold.PLP.ligand.clash>
0.0000

> <Gold.PLP.ligand.torsion>
0.7853

> <Gold.PLP.Chemscore.Hbond>
1.9120

> <Gold.PLP.Chemscore.CHOScore>
0.0000

> <Gold.PLP.Chemscore.Metal>
0.0000

> <Gold.Chemscore.Hbonds>
donor molecule, donor type, donor heavy atom, donor atom, acceptor molecule, acceptor atom, score
      L1  H     1    24       P1  7948  0.94
      P1  H  7989  7998       L1     4  0.63

> <Gold.PLP.Chemscore.Internal.Correction>
0.0757

> <Gold.Rescore>
     Score         DG    S(hbond)    S(metal)    S(lipo)     H(rot)  DE(clash)    DE(int)     intcor
      8.10      -8.45       1.86        0.00      55.62       3.80       0.06       0.29       ----

> <Gold.Chemscore.Fitness>
8.1013

> <Gold.Chemscore.DG>
-8.4536

> <Gold.Chemscore.ZeroCoef>
-5.4800

> <Gold.Chemscore.Hbond>
1.8559

> <Gold.Chemscore.Metal>
0.0000

> <Gold.Chemscore.Lipo>
55.6185

> <Gold.Chemscore.Internal_Hbond>
0.0000

> <Gold.Chemscore.DEClash>
0.0580

> <Gold.Chemscore.DEInternal>
0.2944

> <Gold.Chemscore.Rot>
3.8017

> <Gold.Chemscore.Internal.Correction>
   9.000000E+99

> <Gold.Chemscore.Hbonds>
donor molecule, donor type, donor heavy atom, donor atom, acceptor molecule, acceptor atom, score
      L1  H     1    24       P1  7948  0.20
      P1  H  7989  7998       L1     4  0.02

> <Gold.Chemscore.Hbond.Weighted>
-6.1986

> <Gold.Chemscore.Metal.Weighted>
-0.0000

> <Gold.Chemscore.Lipo.Weighted>
-6.5074

> <Gold.Chemscore.Internal_Hbond.Weighted>
0.0000

> <Gold.Chemscore.DEClash.Weighted>
0.0580

> <Gold.Chemscore.DEInternal.Weighted>
0.2944

> <Gold.Chemscore.Rot.Weighted>
9.7324

> <Gold.Chemscore.Internal.Correction.Weighted>
   9.000000E+99

> <Gold.Protein.RotatedTorsions>
[ 6907 6896 6895 6894 ] final   58.74 input  -60.11 | X-H torsion
[ 7974 7965 7964 7962 ] final -121.28 input  175.53 | X-H torsion
[ 8008 7997 7996 7995 ] final   44.20 input   59.86 | X-H torsion
[ 10167 10162 10161 10158 ] final  -85.47 input  -65.29 | X-H torsion
[ 10718 10713 10712 10709 ] final  150.20 input   66.30 | X-H torsion
[ 10763 10752 10751 10750 ] final -170.37 input  -60.55 | X-H torsion
[ 11005 11000 10999 10996 ] final  -74.40 input  -57.11 | X-H torsion

> <Gold.Protein.ActiveResidues>
 VAL166  LYS551  ARG553  GLY616  TRP617  ASP618  TYR619  PRO620  LYS621  CYS622 
 ASP623  PHE694  ASN695  SER759  ASP760  ASP761  ALA762  ILE779  LEU786  VAL792 
 PHE793  MET794  SER795  GLU796  ALA797  LYS798  CYS799  TRP800  GLU811  SER814 

> <Gold.Protein.RotatedAtoms>
  152.3851  134.6529  160.0128 H   0  0  0  0  0  0  0  0  0  0  0  0  # atno 6907 bound_to 6896
  151.6780  133.3307  159.3220 H   0  0  0  0  0  0  0  0  0  0  0  0  # atno 6908 bound_to 6896
  150.7779  134.6741  159.6452 H   0  0  0  0  0  0  0  0  0  0  0  0  # atno 6909 bound_to 6896
  145.0421  140.8153  143.4260 H   0  0  0  0  0  0  0  0  0  0  0  0  # atno 7974 bound_to 7965
  155.3154  140.3393  155.4242 H   0  0  0  0  0  0  0  0  0  0  0  0  # atno 8008 bound_to 7997
  156.1935  140.1706  156.8082 H   0  0  0  0  0  0  0  0  0  0  0  0  # atno 8009 bound_to 7997
  154.5470  140.0713  156.8589 H   0  0  0  0  0  0  0  0  0  0  0  0  # atno 8010 bound_to 7997
  140.4035  143.2653  151.9112 H   0  0  0  0  0  0  0  0  0  0  0  0  # atno 10167 bound_to 10162
  157.2865  131.0845  151.1493 H   0  0  0  0  0  0  0  0  0  0  0  0  # atno 10718 bound_to 10713
  154.6423  135.2900  155.0089 H   0  0  0  0  0  0  0  0  0  0  0  0  # atno 10763 bound_to 10752
  154.1211  135.6548  153.4907 H   0  0  0  0  0  0  0  0  0  0  0  0  # atno 10764 bound_to 10752
  153.0332  135.5288  154.7294 H   0  0  0  0  0  0  0  0  0  0  0  0  # atno 10765 bound_to 10752
  141.1634  133.6910  156.7358 H   0  0  0  0  0  0  0  0  0  0  0  0  # atno 11005 bound_to 11000
  145.1634  139.2445  143.5379 LP  0  0  0  0  0  0  0  0  0  0  0  0  # atno 17320 bound_to 7965
  146.3510  140.1367  142.8595 LP  0  0  0  0  0  0  0  0  0  0  0  0  # atno 17321 bound_to 7965
  139.4784  144.5610  151.8239 LP  0  0  0  0  0  0  0  0  0  0  0  0  # atno 17342 bound_to 10162
  140.4715  144.1580  150.5918 LP  0  0  0  0  0  0  0  0  0  0  0  0  # atno 17343 bound_to 10162
  157.2907  130.6794  149.6112 LP  0  0  0  0  0  0  0  0  0  0  0  0  # atno 17370 bound_to 10713
  155.9666  130.4422  150.5370 LP  0  0  0  0  0  0  0  0  0  0  0  0  # atno 17371 bound_to 10713
  140.2711  134.8391  157.3848 LP  0  0  0  0  0  0  0  0  0  0  0  0  # atno 17394 bound_to 11000
  140.1520  134.4837  155.7954 LP  0  0  0  0  0  0  0  0  0  0  0  0  # atno 17395 bound_to 11000

$$$$
