AV-unprocessed.smi:101|AV-procd|sdf|932|dock4
  -GOLD-   2262017443D 1   1.00000     0.00000
 Structure written by MMmdl.
 43 45  0  0  0  0  0  0  0  0  2 V2000
  152.1354  133.7935  153.3920 C   0  0  0  0  0  0  0  0  0  0  0  0
  150.8069  134.4538  153.7171 C   0  0  0  0  0  0  0  0  0  0  0  0
  150.7299  135.6664  154.3093 C   0  0  0  0  0  0  0  0  0  0  0  0
  149.5156  136.2641  154.6028 N   0  0  0  0  0  0  0  0  0  0  0  0
  149.4384  137.6262  155.2681 C   0  0  1  0  0  0  0  0  0  0  0  0
  150.7299  138.0751  155.5684 O   0  0  0  0  0  0  0  0  0  0  0  0
  151.0761  139.1655  154.7221 C   0  0  2  0  0  0  0  0  0  0  0  0
  152.1591  140.0108  155.4036 C   0  0  0  0  0  0  0  0  0  0  0  0
  151.6734  140.5001  156.6429 O   0  0  0  0  0  0  0  0  0  0  0  0
  152.5220  140.6983  157.6695 C   0  0  0  0  0  0  0  0  0  0  0  0
  153.5485  140.0382  157.8431 O   0  0  0  0  0  0  0  0  0  0  0  0
  152.0891  141.8017  158.5750 C   0  0  0  0  0  0  0  0  0  0  0  0
  150.9022  142.5134  158.2822 C   0  0  0  0  0  0  0  0  0  0  0  0
  150.4697  143.5620  159.1172 C   0  0  0  0  0  0  0  0  0  0  0  0
  151.2199  143.9132  160.2545 C   0  0  0  0  0  0  0  0  0  0  0  0
  152.4029  143.2138  160.5563 C   0  0  0  0  0  0  0  0  0  0  0  0
  152.8364  142.1637  159.7232 C   0  0  0  0  0  0  0  0  0  0  0  0
  149.7353  139.8736  154.5362 C   0  0  1  0  0  0  0  0  0  0  0  0
  149.7137  140.7666  153.4383 O   0  0  0  0  0  0  0  0  0  0  0  0
  148.7712  138.7027  154.3767 C   0  0  1  0  0  0  0  0  0  0  0  0
  148.6377  138.3108  153.0177 O   0  0  0  0  0  0  0  0  0  0  0  0
  148.3081  135.5970  154.2701 C   0  0  0  0  0  0  0  0  0  0  0  0
  147.2467  136.1661  154.5267 O   0  0  0  0  0  0  0  0  0  0  0  0
  148.3756  134.3722  153.6756 N   0  5  0  0  0  0  0  0  0  0  0  0
  149.5581  133.7604  153.3791 C   0  0  0  0  0  0  0  0  0  0  0  0
  149.6049  132.6547  152.8407 O   0  0  0  0  0  0  0  0  0  0  0  0
  152.9748  134.4137  153.7077 H   0  0  0  0  0  0  0  0  0  0  0  0
  152.2245  133.6258  152.3183 H   0  0  0  0  0  0  0  0  0  0  0  0
  152.2167  132.8314  153.8990 H   0  0  0  0  0  0  0  0  0  0  0  0
  151.6496  136.1744  154.5543 H   0  0  0  0  0  0  0  0  0  0  0  0
  148.9197  137.4640  156.2145 H   0  0  0  0  0  0  0  0  0  0  0  0
  151.4377  138.7702  153.7712 H   0  0  0  0  0  0  0  0  0  0  0  0
  153.0632  139.4192  155.5547 H   0  0  0  0  0  0  0  0  0  0  0  0
  152.4233  140.8557  154.7661 H   0  0  0  0  0  0  0  0  0  0  0  0
  150.3098  142.2622  157.4141 H   0  0  0  0  0  0  0  0  0  0  0  0
  149.5612  144.0977  158.8839 H   0  0  0  0  0  0  0  0  0  0  0  0
  150.8885  144.7181  160.8941 H   0  0  0  0  0  0  0  0  0  0  0  0
  152.9806  143.4832  161.4282 H   0  0  0  0  0  0  0  0  0  0  0  0
  153.7503  141.6491  159.9824 H   0  0  0  0  0  0  0  0  0  0  0  0
  149.4870  140.4236  155.4451 H   0  0  0  0  0  0  0  0  0  0  0  0
  149.5292  140.2665  152.6575 H   0  0  0  0  0  0  0  0  0  0  0  0
  147.7812  138.9401  154.7675 H   0  0  0  0  0  0  0  0  0  0  0  0
  149.1061  138.9350  152.4835 H   0  0  0  0  0  0  0  0  0  0  0  0
  1  2  1  0  0  0  0
  1 27  1  0  0  0  0
  1 28  1  0  0  0  0
  1 29  1  0  0  0  0
  2 25  1  0  0  0  0
  2  3  2  0  0  0  0
  3  4  1  0  0  0  0
  3 30  1  0  0  0  0
  4  5  1  0  0  0  0
  4 22  1  0  0  0  0
  5 20  1  0  0  0  0
  5  6  1  0  0  0  0
  5 31  1  0  0  0  0
  6  7  1  0  0  0  0
  7  8  1  0  0  0  0
  7 18  1  0  0  0  0
  7 32  1  0  0  0  0
  8  9  1  0  0  0  0
  8 33  1  0  0  0  0
  8 34  1  0  0  0  0
  9 10  1  0  0  0  0
 10 11  2  0  0  0  0
 10 12  1  0  0  0  0
 12 17  1  0  0  0  0
 12 13  2  0  0  0  0
 13 14  1  0  0  0  0
 13 35  1  0  0  0  0
 14 15  2  0  0  0  0
 14 36  1  0  0  0  0
 15 16  1  0  0  0  0
 15 37  1  0  0  0  0
 16 17  2  0  0  0  0
 16 38  1  0  0  0  0
 17 39  1  0  0  0  0
 18 19  1  0  0  0  0
 18 20  1  0  0  0  0
 18 40  1  0  0  0  0
 19 41  1  0  0  0  0
 20 21  1  0  0  0  0
 20 42  1  0  0  0  0
 21 43  1  0  0  0  0
 22 23  2  0  0  0  0
 22 24  1  0  0  0  0
 24 25  1  0  0  0  0
 25 26  2  0  0  0  0
M  CHG  1  24  -1
M  END
> <s_m_source_file>
AV-unprocessed.smi

> <i_m_source_file_index>
101

> <i_lp_mmshare_version>
43012

> <i_f3d_flags>
0

> <s_epik_input>
Tz1jMVtuSF1jKD1PKW4oW2NIXWMxW0NIM10pW0NAQEhdMk9bQ0BIXShbQ0BASF0oW09IXSlbQ0BIXTJbT0hdKVtDSDJdT0MoPU8pYzNbY0hdW2NIXVtjSF1bY0hdW2NIXTM=

> <s_epik_cmdline>
J2VwaWtfcHl0aG9uJywgJy1waCcsICc3LjAnLCAnLXRuJywgJzgnLCAnLW1hJywgJzIwMCcsICctbWV0YWxfYmluZGluZycsICctaW1hZScsICc8aW5maWxlLm1hZT4nLCAnLW9tYWUnLCAnPG91dGZpbGUubWFlPic=

> <r_lp_tautomer_probability>
0.999537

> <r_epik_Ionization_Penalty>
3.21006

> <r_epik_Ionization_Penalty_Charging>
5.75142e-08

> <r_epik_Ionization_Penalty_Neutral>
3.21006

> <r_epik_State_Penalty>
3.20925

> <r_epik_Charging_Adjusted_Penalty>
3.20925

> <i_epik_Tot_Q>
-1

> <i_epik_Tot_abs_Q>
1

> <r_epik_Metal_State_Penalty>
0.119957

> <b_epik_Metal_Only>
1

> <s_epik_Chemistry_Notes>
This compound has an ester and may undergo hydrolysis at high or low pH. This compound contains an acetal/aminal-like group ( X-CH(R)-Y where X, Y are N, S, or O) that may be acid/base labile, releasing an aldehyde.

> <s_lp_Force_Field>
OPLS_2005

> <r_lp_Energy>
48.7646

> <b_lp_Chiralities_Consistent>
1

> <s_lp_Variant>
AV-unprocessed.smi:101-20

> <Gold.Version>
5.8.1

> <Gold.Id.Protein>
6NUR|6NUR_protein|mol2

> <Gold.PLP.Fitness>
52.4500

> <Gold.PLP.PLP>
-41.7916

> <Gold.PLP.part.hbond>
-4.8238

> <Gold.PLP.part.metal>
0.0000

> <Gold.PLP.part.buried>
-4.9320

> <Gold.PLP.part.nonpolar>
-31.8488

> <Gold.PLP.part.repulsive>
0.1824

> <Gold.PLP.ligand.clash>
0.0000

> <Gold.PLP.ligand.torsion>
0.6033

> <Gold.PLP.Chemscore.Hbond>
3.9110

> <Gold.PLP.Chemscore.CHOScore>
0.0000

> <Gold.PLP.Chemscore.Metal>
0.0000

> <Gold.Chemscore.Hbonds>
donor molecule, donor type, donor heavy atom, donor atom, acceptor molecule, acceptor atom, score
      L1  H    19    41       P1  7957  0.96
      L1  H    21    43       P1  7957  1.00
      P1  H  7989  7998       L1    19  0.18
      P1  H  7997  8008       L1    11  0.52
      P1  H  8011  8017       L1    19  0.45

> <Gold.PLP.Chemscore.Internal.Correction>
0.1320

> <Gold.Rescore>
     Score         DG    S(hbond)    S(metal)    S(lipo)     H(rot)  DE(clash)    DE(int)     intcor
     17.88     -19.10       3.22        0.00      95.97       3.27       0.23       1.00       ----

> <Gold.Chemscore.Fitness>
17.8756

> <Gold.Chemscore.DG>
-19.0962

> <Gold.Chemscore.ZeroCoef>
-5.4800

> <Gold.Chemscore.Hbond>
3.2178

> <Gold.Chemscore.Metal>
0.0000

> <Gold.Chemscore.Lipo>
95.9710

> <Gold.Chemscore.Internal_Hbond>
0.0000

> <Gold.Chemscore.DEClash>
0.2254

> <Gold.Chemscore.DEInternal>
0.9952

> <Gold.Chemscore.Rot>
3.2656

> <Gold.Chemscore.Internal.Correction>
   9.000000E+99

> <Gold.Chemscore.Hbonds>
donor molecule, donor type, donor heavy atom, donor atom, acceptor molecule, acceptor atom, score
      L1  H    19    41       P1  7957  0.88
      L1  H    21    43       P1  7957  0.97
      P1  H  7997  8008       L1    11  0.47
      P1  H  8011  8017       L1    19  0.02

> <Gold.Chemscore.Hbond.Weighted>
-10.7474

> <Gold.Chemscore.Metal.Weighted>
-0.0000

> <Gold.Chemscore.Lipo.Weighted>
-11.2286

> <Gold.Chemscore.Internal_Hbond.Weighted>
0.0000

> <Gold.Chemscore.DEClash.Weighted>
0.2254

> <Gold.Chemscore.DEInternal.Weighted>
0.9952

> <Gold.Chemscore.Rot.Weighted>
8.3598

> <Gold.Chemscore.Internal.Correction.Weighted>
   9.000000E+99

> <Gold.Protein.RotatedTorsions>
[ 6907 6896 6895 6894 ] final   95.61 input  -60.11 | X-H torsion
[ 7974 7965 7964 7962 ] final -103.69 input  175.53 | X-H torsion
[ 8008 7997 7996 7995 ] final  -75.12 input   59.86 | X-H torsion
[ 10167 10162 10161 10158 ] final  134.91 input  -65.29 | X-H torsion
[ 10718 10713 10712 10709 ] final  119.66 input   66.30 | X-H torsion
[ 10763 10752 10751 10750 ] final   24.75 input  -60.55 | X-H torsion
[ 11005 11000 10999 10996 ] final    1.94 input  -57.11 | X-H torsion

> <Gold.Protein.ActiveResidues>
 VAL166  LYS551  ARG553  GLY616  TRP617  ASP618  TYR619  PRO620  LYS621  CYS622 
 ASP623  PHE694  ASN695  SER759  ASP760  ASP761  ALA762  ILE779  LEU786  VAL792 
 PHE793  MET794  SER795  GLU796  ALA797  LYS798  CYS799  TRP800  GLU811  SER814 

> <Gold.Protein.RotatedAtoms>
  152.5442  134.1013  159.8318 H   0  0  0  0  0  0  0  0  0  0  0  0  # atno 6907 bound_to 6896
  151.1091  133.5179  159.2614 H   0  0  0  0  0  0  0  0  0  0  0  0  # atno 6908 bound_to 6896
  151.1905  135.0409  159.8885 H   0  0  0  0  0  0  0  0  0  0  0  0  # atno 6909 bound_to 6896
  145.2527  140.9243  143.3086 H   0  0  0  0  0  0  0  0  0  0  0  0  # atno 7974 bound_to 7965
  154.5389  140.0749  156.8475 H   0  0  0  0  0  0  0  0  0  0  0  0  # atno 8008 bound_to 7997
  155.3221  140.3396  155.4223 H   0  0  0  0  0  0  0  0  0  0  0  0  # atno 8009 bound_to 7997
  156.1855  140.1667  156.8180 H   0  0  0  0  0  0  0  0  0  0  0  0  # atno 8010 bound_to 7997
  139.5238  144.6544  151.5207 H   0  0  0  0  0  0  0  0  0  0  0  0  # atno 10167 bound_to 10162
  157.5946  131.1060  150.7927 H   0  0  0  0  0  0  0  0  0  0  0  0  # atno 10718 bound_to 10713
  153.0741  135.6598  154.0183 H   0  0  0  0  0  0  0  0  0  0  0  0  # atno 10763 bound_to 10752
  153.9821  135.2954  155.3420 H   0  0  0  0  0  0  0  0  0  0  0  0  # atno 10764 bound_to 10752
  154.7124  135.5199  153.8757 H   0  0  0  0  0  0  0  0  0  0  0  0  # atno 10765 bound_to 10752
  140.6098  133.9759  155.8172 H   0  0  0  0  0  0  0  0  0  0  0  0  # atno 11005 bound_to 11000
  144.9488  139.4105  143.6412 LP  0  0  0  0  0  0  0  0  0  0  0  0  # atno 17320 bound_to 7965
  146.3298  139.8485  142.8877 LP  0  0  0  0  0  0  0  0  0  0  0  0  # atno 17321 bound_to 7965
  140.6363  143.8978  150.6650 LP  0  0  0  0  0  0  0  0  0  0  0  0  # atno 17342 bound_to 10162
  140.2298  143.3744  152.1575 LP  0  0  0  0  0  0  0  0  0  0  0  0  # atno 17343 bound_to 10162
  156.8340  130.5025  149.5328 LP  0  0  0  0  0  0  0  0  0  0  0  0  # atno 17370 bound_to 10713
  156.1006  130.5966  150.9888 LP  0  0  0  0  0  0  0  0  0  0  0  0  # atno 17371 bound_to 10713
  141.0816  134.0054  157.3378 LP  0  0  0  0  0  0  0  0  0  0  0  0  # atno 17394 bound_to 11000
  139.9197  135.0199  156.8017 LP  0  0  0  0  0  0  0  0  0  0  0  0  # atno 17395 bound_to 11000

$$$$
