AV-unprocessed.smi:55|AV-procd|sdf|571|dock4
  -GOLD-   2262016473D 1   1.00000     0.00000
 Structure written by MMmdl.
 30 31  0  0  0  0  0  0  0  0  2 V2000
  151.3081  145.0070  158.7480 C   0  0  0  0  0  0  0  0  0  0  0  0
  151.4655  143.5043  158.5950 C   0  0  0  0  0  0  0  0  0  0  0  0
  150.6218  142.7635  157.8422 C   0  0  0  0  0  0  0  0  0  0  0  0
  150.7719  141.3950  157.7048 N   0  0  0  0  0  0  0  0  0  0  0  0
  149.8266  140.5999  156.8366 C   0  0  2  0  0  0  0  0  0  0  0  0
  150.4772  140.2377  155.5076 C   0  0  0  0  0  0  0  0  0  0  0  0
  149.2766  140.1742  154.5708 C   0  0  2  0  0  0  0  0  0  0  0  0
  149.5792  140.8271  153.3516 O   0  0  0  0  0  0  0  0  0  0  0  0
  148.1099  140.8087  155.3680 C   0  0  2  0  0  0  0  0  0  0  0  0
  147.2841  141.8803  154.6313 C   0  0  0  0  0  0  0  0  0  0  0  0
  148.1339  142.8924  154.1341 O   0  0  0  0  0  0  0  0  0  0  0  0
  148.7297  141.3864  156.5109 O   0  0  0  0  0  0  0  0  0  0  0  0
  151.8579  140.7391  158.3396 C   0  0  0  0  0  0  0  0  0  0  0  0
  151.9891  139.5279  158.1603 O   0  0  0  0  0  0  0  0  0  0  0  0
  152.7087  141.4764  159.1094 N   0  5  0  0  0  0  0  0  0  0  0  0
  152.5724  142.8234  159.2783 C   0  0  0  0  0  0  0  0  0  0  0  0
  153.3466  143.4761  159.9780 O   0  0  0  0  0  0  0  0  0  0  0  0
  149.4874  139.7387  157.4156 H   0  0  0  0  0  0  0  0  0  0  0  0
  149.0346  139.1351  154.3444 H   0  0  0  0  0  0  0  0  0  0  0  0
  147.4570  140.0021  155.7069 H   0  0  0  0  0  0  0  0  0  0  0  0
  150.4497  145.3752  158.1857 H   0  0  0  0  0  0  0  0  0  0  0  0
  152.1975  145.5214  158.3828 H   0  0  0  0  0  0  0  0  0  0  0  0
  151.1633  145.2702  159.7961 H   0  0  0  0  0  0  0  0  0  0  0  0
  149.8122  143.2604  157.3282 H   0  0  0  0  0  0  0  0  0  0  0  0
  151.1651  141.0342  155.2174 H   0  0  0  0  0  0  0  0  0  0  0  0
  151.0297  139.3009  155.5851 H   0  0  0  0  0  0  0  0  0  0  0  0
  149.4490  140.2154  152.6434 H   0  0  0  0  0  0  0  0  0  0  0  0
  146.6997  141.4424  153.8213 H   0  0  0  0  0  0  0  0  0  0  0  0
  146.5868  142.3643  155.3155 H   0  0  0  0  0  0  0  0  0  0  0  0
  148.1252  143.6166  154.7410 H   0  0  0  0  0  0  0  0  0  0  0  0
  1  2  1  0  0  0  0
  1 21  1  0  0  0  0
  1 22  1  0  0  0  0
  1 23  1  0  0  0  0
  2 16  1  0  0  0  0
  2  3  2  0  0  0  0
  3  4  1  0  0  0  0
  3 24  1  0  0  0  0
  4  5  1  0  0  0  0
  4 13  1  0  0  0  0
  5 18  1  0  0  0  0
  5 12  1  0  0  0  0
  5  6  1  0  0  0  0
  6  7  1  0  0  0  0
  6 25  1  0  0  0  0
  6 26  1  0  0  0  0
  7 19  1  0  0  0  0
  7  8  1  0  0  0  0
  7  9  1  0  0  0  0
  8 27  1  0  0  0  0
  9 20  1  0  0  0  0
  9 10  1  0  0  0  0
  9 12  1  0  0  0  0
 10 11  1  0  0  0  0
 10 28  1  0  0  0  0
 10 29  1  0  0  0  0
 11 30  1  0  0  0  0
 13 14  2  0  0  0  0
 13 15  1  0  0  0  0
 15 16  1  0  0  0  0
 16 17  2  0  0  0  0
M  CHG  1  15  -1
M  END
> <s_m_source_file>
AV-unprocessed.smi

> <i_m_source_file_index>
55

> <i_lp_mmshare_version>
43012

> <i_f3d_flags>
0

> <s_epik_input>
Tz1jMVtuSF1jKD1PKW4oW2NIXWMxW0NIM10pW0NAQEhdMltDSDJdW0NAQEhdKFtPSF0pW0NAQEhdKE8yKVtDSDJdW09IXQ==

> <s_epik_cmdline>
J2VwaWtfcHl0aG9uJywgJy1waCcsICc3LjAnLCAnLXRuJywgJzgnLCAnLW1hJywgJzIwMCcsICctbWV0YWxfYmluZGluZycsICctaW1hZScsICc8aW5maWxlLm1hZT4nLCAnLW9tYWUnLCAnPG91dGZpbGUubWFlPic=

> <r_lp_tautomer_probability>
0.999537

> <r_epik_Ionization_Penalty>
3.66603

> <r_epik_Ionization_Penalty_Charging>
1.09773e-07

> <r_epik_Ionization_Penalty_Neutral>
3.66603

> <r_epik_State_Penalty>
3.66562

> <r_epik_Charging_Adjusted_Penalty>
3.66562

> <i_epik_Tot_Q>
-1

> <i_epik_Tot_abs_Q>
1

> <r_epik_Metal_State_Penalty>
0.234536

> <b_epik_Metal_Only>
1

> <s_epik_Chemistry_Notes>
This compound contains an acetal/aminal-like group ( X-CH(R)-Y where X, Y are N, S, or O) that may be acid/base labile, releasing an aldehyde.

> <s_lp_Force_Field>
OPLS_2005

> <r_lp_Energy>
40.7454

> <b_lp_Chiralities_Consistent>
1

> <s_lp_Variant>
AV-unprocessed.smi:55-11

> <Gold.Version>
5.8.1

> <Gold.Id.Protein>
6NUR|6NUR_protein|mol2

> <Gold.PLP.Fitness>
43.9767

> <Gold.PLP.PLP>
-32.4705

> <Gold.PLP.part.hbond>
-5.0370

> <Gold.PLP.part.metal>
0.0000

> <Gold.PLP.part.buried>
-2.9589

> <Gold.PLP.part.nonpolar>
-23.9222

> <Gold.PLP.part.repulsive>
0.1003

> <Gold.PLP.ligand.clash>
0.0000

> <Gold.PLP.ligand.torsion>
0.3247

> <Gold.PLP.Chemscore.Hbond>
3.0438

> <Gold.PLP.Chemscore.CHOScore>
1.0000

> <Gold.PLP.Chemscore.Metal>
0.0000

> <Gold.Chemscore.Hbonds>
donor molecule, donor type, donor heavy atom, donor atom, acceptor molecule, acceptor atom, score
      L1  H     8    27       P1  7957  0.80
      L1  H    11    30       P1  8028  1.00
      P1  H  7989  7998       L1     8  0.27
      P1  H  8011  8017       L1     8  0.95
      L1  C     3    24       P1  8028  1.00

> <Gold.PLP.Chemscore.Internal.Correction>
0.0242

> <Gold.Rescore>
     Score         DG    S(hbond)    S(metal)    S(lipo)     H(rot)  DE(clash)    DE(int)     intcor
     11.31     -12.18       2.09        0.00      56.40       2.69       0.43       0.45       ----

> <Gold.Chemscore.Fitness>
11.3069

> <Gold.Chemscore.DG>
-12.1833

> <Gold.Chemscore.ZeroCoef>
-5.4800

> <Gold.Chemscore.Hbond>
2.0910

> <Gold.Chemscore.Metal>
0.0000

> <Gold.Chemscore.Lipo>
56.3968

> <Gold.Chemscore.Internal_Hbond>
0.0000

> <Gold.Chemscore.DEClash>
0.4288

> <Gold.Chemscore.DEInternal>
0.4476

> <Gold.Chemscore.Rot>
2.6871

> <Gold.Chemscore.Internal.Correction>
   9.000000E+99

> <Gold.Chemscore.Hbonds>
donor molecule, donor type, donor heavy atom, donor atom, acceptor molecule, acceptor atom, score
      L1  H     8    27       P1  7957  0.75
      L1  H    11    30       P1  8028  0.77
      P1  H  7989  7998       L1     8  0.02
      P1  H  8011  8017       L1     8  0.21

> <Gold.Chemscore.Hbond.Weighted>
-6.9840

> <Gold.Chemscore.Metal.Weighted>
-0.0000

> <Gold.Chemscore.Lipo.Weighted>
-6.5984

> <Gold.Chemscore.Internal_Hbond.Weighted>
0.0000

> <Gold.Chemscore.DEClash.Weighted>
0.4288

> <Gold.Chemscore.DEInternal.Weighted>
0.4476

> <Gold.Chemscore.Rot.Weighted>
6.8791

> <Gold.Chemscore.Internal.Correction.Weighted>
   9.000000E+99

> <Gold.Protein.RotatedTorsions>
[ 6907 6896 6895 6894 ] final   97.85 input  -60.11 | X-H torsion
[ 7974 7965 7964 7962 ] final  177.50 input  175.53 | X-H torsion
[ 8008 7997 7996 7995 ] final  -15.12 input   59.86 | X-H torsion
[ 10167 10162 10161 10158 ] final -144.03 input  -65.29 | X-H torsion
[ 10718 10713 10712 10709 ] final -155.17 input   66.30 | X-H torsion
[ 10763 10752 10751 10750 ] final   18.96 input  -60.55 | X-H torsion
[ 11005 11000 10999 10996 ] final   92.57 input  -57.11 | X-H torsion

> <Gold.Protein.ActiveResidues>
 VAL166  LYS551  ARG553  GLY616  TRP617  ASP618  TYR619  PRO620  LYS621  CYS622 
 ASP623  PHE694  ASN695  SER759  ASP760  ASP761  ALA762  ILE779  LEU786  VAL792 
 PHE793  MET794  SER795  GLU796  ALA797  LYS798  CYS799  TRP800  GLU811  SER814 

> <Gold.Protein.RotatedAtoms>
  152.5418  134.0670  159.8177 H   0  0  0  0  0  0  0  0  0  0  0  0  # atno 6907 bound_to 6896
  151.0790  133.5398  159.2629 H   0  0  0  0  0  0  0  0  0  0  0  0  # atno 6908 bound_to 6896
  151.2232  135.0535  159.9012 H   0  0  0  0  0  0  0  0  0  0  0  0  # atno 6909 bound_to 6896
  144.7168  140.0256  143.6439 H   0  0  0  0  0  0  0  0  0  0  0  0  # atno 7974 bound_to 7965
  154.5156  140.2205  155.9073 H   0  0  0  0  0  0  0  0  0  0  0  0  # atno 8008 bound_to 7997
  156.1603  140.3143  155.8761 H   0  0  0  0  0  0  0  0  0  0  0  0  # atno 8009 bound_to 7997
  155.3764  140.0470  157.3035 H   0  0  0  0  0  0  0  0  0  0  0  0  # atno 8010 bound_to 7997
  139.7937  143.7930  152.2652 H   0  0  0  0  0  0  0  0  0  0  0  0  # atno 10167 bound_to 10162
  156.5093  130.8427  151.2640 H   0  0  0  0  0  0  0  0  0  0  0  0  # atno 10718 bound_to 10713
  153.1204  135.6717  153.9346 H   0  0  0  0  0  0  0  0  0  0  0  0  # atno 10763 bound_to 10752
  153.8863  135.3052  155.3448 H   0  0  0  0  0  0  0  0  0  0  0  0  # atno 10764 bound_to 10752
  154.7616  135.4985  153.9554 H   0  0  0  0  0  0  0  0  0  0  0  0  # atno 10765 bound_to 10752
  139.8821  134.8740  156.3592 H   0  0  0  0  0  0  0  0  0  0  0  0  # atno 11005 bound_to 11000
  146.0145  139.3198  143.0850 LP  0  0  0  0  0  0  0  0  0  0  0  0  # atno 17320 bound_to 7965
  145.8642  140.9457  143.0684 LP  0  0  0  0  0  0  0  0  0  0  0  0  # atno 17321 bound_to 7965
  139.8029  144.7367  150.9801 LP  0  0  0  0  0  0  0  0  0  0  0  0  # atno 17342 bound_to 10162
  140.7820  143.4327  151.0670 LP  0  0  0  0  0  0  0  0  0  0  0  0  # atno 17343 bound_to 10162
  157.7453  130.9955  150.2746 LP  0  0  0  0  0  0  0  0  0  0  0  0  # atno 17370 bound_to 10713
  156.3256  130.3792  149.7536 LP  0  0  0  0  0  0  0  0  0  0  0  0  # atno 17371 bound_to 10713
  140.9541  133.7431  156.0311 LP  0  0  0  0  0  0  0  0  0  0  0  0  # atno 17394 bound_to 11000
  140.8070  134.3443  157.5423 LP  0  0  0  0  0  0  0  0  0  0  0  0  # atno 17395 bound_to 11000

$$$$
