AV-unprocessed.smi:1640|AV-procd|sdf|6554|dock2
  -GOLD-   22720 7233D 1   1.00000     0.00000
 Structure written by MMmdl.
 47 48  0  0  0  0  0  0  0  0  1 V2000
  152.0352  143.8020  161.5380 C   0  0  0  0  0  0  0  0  0  0  0  0
  152.3329  143.9564  160.0373 C   0  0  0  0  0  0  0  0  0  0  0  0
  151.8067  145.3048  159.5228 C   0  0  0  0  0  0  0  0  0  0  0  0
  151.7608  142.7937  159.2018 C   0  0  0  0  0  0  0  0  0  0  0  0
  152.3259  141.4156  159.5780 C   0  0  0  0  0  0  0  0  0  0  0  0
  151.7803  140.1357  158.3732 S   0  0  0  0  0  0  0  0  0  0  0  0
  152.9702  139.5723  157.7173 O   0  0  0  0  0  0  0  0  0  0  0  0
  150.8132  139.2418  159.0275 O   0  0  0  0  0  0  0  0  0  0  0  0
  150.9251  141.0603  157.1987 N   0  0  0  0  0  0  0  0  0  0  0  0
  149.4642  141.0746  157.2515 C   0  0  0  0  0  0  0  0  0  0  0  0
  148.8298  140.9737  155.8726 C   0  0  0  0  0  0  0  0  0  0  0  0
  147.9235  141.9688  155.4490 C   0  0  0  0  0  0  0  0  0  0  0  0
  147.3324  141.8624  154.1769 C   0  0  0  0  0  0  0  0  0  0  0  0
  147.6702  140.7569  153.3751 C   0  0  0  0  0  0  0  0  0  0  0  0
  148.5338  139.7969  153.7662 N   0  0  0  0  0  0  0  0  0  0  0  0
  149.1073  139.8964  154.9903 C   0  0  0  0  0  0  0  0  0  0  0  0
  150.0211  138.8948  155.3608 N   0  0  0  0  0  0  0  0  0  0  0  0
  149.5302  137.5240  155.2768 C   0  0  0  0  0  0  0  0  0  0  0  0
  150.5737  136.5591  155.8643 C   0  0  0  0  0  0  0  0  0  0  0  0
  151.8136  136.7290  155.1830 O   0  0  0  0  0  0  0  0  0  0  0  0
  152.3273  138.0508  155.3244 C   0  0  0  0  0  0  0  0  0  0  0  0
  151.3278  139.0633  154.7386 C   0  0  0  0  0  0  0  0  0  0  0  0
  150.9626  143.7444  161.7255 H   0  0  0  0  0  0  0  0  0  0  0  0
  152.4256  144.6489  162.1030 H   0  0  0  0  0  0  0  0  0  0  0  0
  152.4952  142.9044  161.9499 H   0  0  0  0  0  0  0  0  0  0  0  0
  153.4162  143.9634  159.9103 H   0  0  0  0  0  0  0  0  0  0  0  0
  150.7218  145.3679  159.6136 H   0  0  0  0  0  0  0  0  0  0  0  0
  152.0620  145.4534  158.4732 H   0  0  0  0  0  0  0  0  0  0  0  0
  152.2359  146.1352  160.0840 H   0  0  0  0  0  0  0  0  0  0  0  0
  150.6732  142.7789  159.2840 H   0  0  0  0  0  0  0  0  0  0  0  0
  151.9798  142.9757  158.1487 H   0  0  0  0  0  0  0  0  0  0  0  0
  153.4158  141.4316  159.5836 H   0  0  0  0  0  0  0  0  0  0  0  0
  151.9899  141.1054  160.5669 H   0  0  0  0  0  0  0  0  0  0  0  0
  151.3115  141.9974  157.0873 H   0  0  0  0  0  0  0  0  0  0  0  0
  149.1277  140.2574  157.8903 H   0  0  0  0  0  0  0  0  0  0  0  0
  149.1282  141.9957  157.7287 H   0  0  0  0  0  0  0  0  0  0  0  0
  147.6803  142.8039  156.0895 H   0  0  0  0  0  0  0  0  0  0  0  0
  146.6357  142.6089  153.8252 H   0  0  0  0  0  0  0  0  0  0  0  0
  147.2367  140.6408  152.3928 H   0  0  0  0  0  0  0  0  0  0  0  0
  148.5882  137.4352  155.8193 H   0  0  0  0  0  0  0  0  0  0  0  0
  149.3336  137.2609  154.2367 H   0  0  0  0  0  0  0  0  0  0  0  0
  150.7055  136.7305  156.9337 H   0  0  0  0  0  0  0  0  0  0  0  0
  150.2414  135.5280  155.7451 H   0  0  0  0  0  0  0  0  0  0  0  0
  152.5269  138.2639  156.3753 H   0  0  0  0  0  0  0  0  0  0  0  0
  153.2809  138.1184  154.8007 H   0  0  0  0  0  0  0  0  0  0  0  0
  151.2362  138.9160  153.6614 H   0  0  0  0  0  0  0  0  0  0  0  0
  151.6915  140.0796  154.8937 H   0  0  0  0  0  0  0  0  0  0  0  0
  1  2  1  0  0  0  0
  1 23  1  0  0  0  0
  1 24  1  0  0  0  0
  1 25  1  0  0  0  0
  2  3  1  0  0  0  0
  2  4  1  0  0  0  0
  2 26  1  0  0  0  0
  3 27  1  0  0  0  0
  3 28  1  0  0  0  0
  3 29  1  0  0  0  0
  4  5  1  0  0  0  0
  4 30  1  0  0  0  0
  4 31  1  0  0  0  0
  5  6  1  0  0  0  0
  5 32  1  0  0  0  0
  5 33  1  0  0  0  0
  6  7  2  0  0  0  0
  6  8  2  0  0  0  0
  6  9  1  0  0  0  0
  9 10  1  0  0  0  0
  9 34  1  0  0  0  0
 10 11  1  0  0  0  0
 10 35  1  0  0  0  0
 10 36  1  0  0  0  0
 11 16  1  0  0  0  0
 11 12  2  0  0  0  0
 12 13  1  0  0  0  0
 12 37  1  0  0  0  0
 13 14  2  0  0  0  0
 13 38  1  0  0  0  0
 14 15  1  0  0  0  0
 14 39  1  0  0  0  0
 15 16  2  0  0  0  0
 16 17  1  0  0  0  0
 17 22  1  0  0  0  0
 17 18  1  0  0  0  0
 18 19  1  0  0  0  0
 18 40  1  0  0  0  0
 18 41  1  0  0  0  0
 19 20  1  0  0  0  0
 19 42  1  0  0  0  0
 19 43  1  0  0  0  0
 20 21  1  0  0  0  0
 21 22  1  0  0  0  0
 21 44  1  0  0  0  0
 21 45  1  0  0  0  0
 22 46  1  0  0  0  0
 22 47  1  0  0  0  0
M  END
> <s_m_source_file>
AV-unprocessed.smi

> <i_m_source_file_index>
1640

> <i_lp_mmshare_version>
43012

> <i_f3d_flags>
0

> <s_epik_input>
W0NIM11bQ0hdKFtDSDNdKVtDSDJdW0NIMl1TKD1PKSg9TylbTkhdW0NIMl1jMVtjSF1bY0hdW2NIXW5jMU4yW0NIMl1bQ0gyXU9bQ0gyXVtDSDJdMg==

> <s_epik_cmdline>
J2VwaWtfcHl0aG9uJywgJy1waCcsICc3LjAnLCAnLXRuJywgJzgnLCAnLW1hJywgJzIwMCcsICctbWV0YWxfYmluZGluZycsICctaW1hZScsICc8aW5maWxlLm1hZT4nLCAnLW9tYWUnLCAnPG91dGZpbGUubWFlPic=

> <r_lp_tautomer_probability>
1

> <r_epik_Ionization_Penalty>
0.00729723

> <r_epik_Ionization_Penalty_Charging>
0

> <r_epik_Ionization_Penalty_Neutral>
0.00729723

> <r_epik_State_Penalty>
0.00542751

> <r_epik_Charging_Adjusted_Penalty>
0.00542751

> <i_epik_Tot_Q>
0

> <i_epik_Tot_abs_Q>
0

> <r_epik_Metal_State_Penalty>
0.0195039

> <b_epik_Metal_Only>
0

> <s_lp_Force_Field>
OPLS_2005

> <r_lp_Energy>
17.806

> <b_lp_Chiralities_Consistent>
1

> <s_lp_Variant>
AV-unprocessed.smi:1640-1

> <Gold.Version>
5.8.1

> <Gold.Id.Protein>
6NUR|6NUR_protein|mol2

> <Gold.PLP.Fitness>
44.4673

> <Gold.PLP.PLP>
-39.8390

> <Gold.PLP.part.hbond>
-2.0407

> <Gold.PLP.part.metal>
0.0000

> <Gold.PLP.part.buried>
-3.2979

> <Gold.PLP.part.nonpolar>
-35.9539

> <Gold.PLP.part.repulsive>
1.9522

> <Gold.PLP.ligand.clash>
0.0000

> <Gold.PLP.ligand.torsion>
1.0697

> <Gold.PLP.Chemscore.Hbond>
2.0000

> <Gold.PLP.Chemscore.CHOScore>
0.1094

> <Gold.PLP.Chemscore.Metal>
0.0000

> <Gold.Chemscore.Hbonds>
donor molecule, donor type, donor heavy atom, donor atom, acceptor molecule, acceptor atom, score
      P1  H  7997  8010       L1     7  1.00
      P1  H 10752 10764       L1    20  1.00
      L1  C    14    39       P1  7957  0.17

> <Gold.PLP.Chemscore.Internal.Correction>
0.4397

> <Gold.Rescore>
     Score         DG    S(hbond)    S(metal)    S(lipo)     H(rot)  DE(clash)    DE(int)     intcor
     16.11     -19.13       1.93        0.00     104.88       1.99       0.48       2.54       ----

> <Gold.Chemscore.Fitness>
16.1137

> <Gold.Chemscore.DG>
-19.1290

> <Gold.Chemscore.ZeroCoef>
-5.4800

> <Gold.Chemscore.Hbond>
1.9345

> <Gold.Chemscore.Metal>
0.0000

> <Gold.Chemscore.Lipo>
104.8791

> <Gold.Chemscore.Internal_Hbond>
0.0000

> <Gold.Chemscore.DEClash>
0.4793

> <Gold.Chemscore.DEInternal>
2.5360

> <Gold.Chemscore.Rot>
1.9856

> <Gold.Chemscore.Internal.Correction>
   9.000000E+99

> <Gold.Chemscore.Hbonds>
donor molecule, donor type, donor heavy atom, donor atom, acceptor molecule, acceptor atom, score
      P1  H  7997  8010       L1     7  1.00
      P1  H 10752 10764       L1    20  0.86

> <Gold.Chemscore.Hbond.Weighted>
-6.4612

> <Gold.Chemscore.Metal.Weighted>
-0.0000

> <Gold.Chemscore.Lipo.Weighted>
-12.2709

> <Gold.Chemscore.Internal_Hbond.Weighted>
0.0000

> <Gold.Chemscore.DEClash.Weighted>
0.4793

> <Gold.Chemscore.DEInternal.Weighted>
2.5360

> <Gold.Chemscore.Rot.Weighted>
5.0830

> <Gold.Chemscore.Internal.Correction.Weighted>
   9.000000E+99

> <Gold.Protein.RotatedTorsions>
[ 6907 6896 6895 6894 ] final  -26.66 input  -60.11 | X-H torsion
[ 7974 7965 7964 7962 ] final -100.45 input  175.53 | X-H torsion
[ 8008 7997 7996 7995 ] final   53.19 input   59.86 | X-H torsion
[ 10167 10162 10161 10158 ] final -108.60 input  -65.29 | X-H torsion
[ 10718 10713 10712 10709 ] final  -57.29 input   66.30 | X-H torsion
[ 10763 10752 10751 10750 ] final  -46.00 input  -60.55 | X-H torsion
[ 11005 11000 10999 10996 ] final   70.74 input  -57.11 | X-H torsion

> <Gold.Protein.ActiveResidues>
 VAL166  LYS551  ARG553  GLY616  TRP617  ASP618  TYR619  PRO620  LYS621  CYS622 
 ASP623  PHE694  ASN695  SER759  ASP760  ASP761  ALA762  ILE779  LEU786  VAL792 
 PHE793  MET794  SER795  GLU796  ALA797  LYS798  CYS799  TRP800  GLU811  SER814 

> <Gold.Protein.RotatedAtoms>
  151.1578  135.0258  159.8696 H   0  0  0  0  0  0  0  0  0  0  0  0  # atno 6907 bound_to 6896
  152.5452  134.1314  159.8451 H   0  0  0  0  0  0  0  0  0  0  0  0  # atno 6908 bound_to 6896
  151.1406  133.4928  159.2629 H   0  0  0  0  0  0  0  0  0  0  0  0  # atno 6909 bound_to 6896
  145.2944  140.9361  143.2859 H   0  0  0  0  0  0  0  0  0  0  0  0  # atno 7974 bound_to 7965
  155.4643  140.3463  155.4317 H   0  0  0  0  0  0  0  0  0  0  0  0  # atno 8008 bound_to 7997
  156.1141  140.1469  156.9326 H   0  0  0  0  0  0  0  0  0  0  0  0  # atno 8009 bound_to 7997
  154.4777  140.0880  156.7280 H   0  0  0  0  0  0  0  0  0  0  0  0  # atno 8010 bound_to 7997
  140.1644  143.4093  152.1401 H   0  0  0  0  0  0  0  0  0  0  0  0  # atno 10167 bound_to 10162
  156.1222  130.4165  150.0420 H   0  0  0  0  0  0  0  0  0  0  0  0  # atno 10718 bound_to 10713
  154.0378  135.6648  153.4787 H   0  0  0  0  0  0  0  0  0  0  0  0  # atno 10763 bound_to 10752
  153.0514  135.5082  154.7871 H   0  0  0  0  0  0  0  0  0  0  0  0  # atno 10764 bound_to 10752
  154.6837  135.3049  154.9542 H   0  0  0  0  0  0  0  0  0  0  0  0  # atno 10765 bound_to 10752
  139.9581  134.7109  156.0707 H   0  0  0  0  0  0  0  0  0  0  0  0  # atno 11005 bound_to 11000
  144.9146  139.4486  143.6570 LP  0  0  0  0  0  0  0  0  0  0  0  0  # atno 17320 bound_to 7965
  146.3174  139.7973  142.8973 LP  0  0  0  0  0  0  0  0  0  0  0  0  # atno 17321 bound_to 7965
  139.5366  144.7215  151.4872 LP  0  0  0  0  0  0  0  0  0  0  0  0  # atno 17342 bound_to 10162
  140.6622  143.8474  150.6901 LP  0  0  0  0  0  0  0  0  0  0  0  0  # atno 17343 bound_to 10162
  156.8355  130.9407  151.3635 LP  0  0  0  0  0  0  0  0  0  0  0  0  # atno 17370 bound_to 10713
  157.6405  130.8802  149.9440 LP  0  0  0  0  0  0  0  0  0  0  0  0  # atno 17371 bound_to 10713
  141.1255  133.6600  156.3325 LP  0  0  0  0  0  0  0  0  0  0  0  0  # atno 17394 bound_to 11000
  140.5563  134.5978  157.5421 LP  0  0  0  0  0  0  0  0  0  0  0  0  # atno 17395 bound_to 11000

$$$$
