AV-unprocessed.smi:281|AV-procd|sdf|2109|dock7
  -GOLD-   2262021403D 1   1.00000     0.00000
 Structure written by MMmdl.
 55 59  0  0  0  0  0  0  0  0  1 V2000
  147.2124  143.5386  159.8176 C   0  0  0  0  0  0  0  0  0  0  0  0
  148.4130  143.4281  158.8725 C   0  0  2  0  0  0  0  0  0  0  0  0
  148.3593  142.1484  158.0202 C   0  0  0  0  0  0  0  0  0  0  0  0
  149.5732  142.0289  157.2215 N   0  0  0  0  0  0  0  0  0  0  0  0
  149.5091  141.1347  156.2026 C   0  0  0  0  0  0  0  0  0  0  0  0
  150.5725  140.3291  155.9372 N   0  0  0  0  0  0  0  0  0  0  0  0
  150.5149  139.4391  154.9426 C   0  0  0  0  0  0  0  0  0  0  0  0
  149.5102  139.1941  154.0998 N   0  0  0  0  0  0  0  0  0  0  0  0
  148.4447  140.0073  154.3505 C   0  0  0  0  0  0  0  0  0  0  0  0
  148.3596  140.9931  155.3743 C   0  0  0  0  0  0  0  0  0  0  0  0
  147.1227  141.6245  155.3191 N   0  0  0  0  0  0  0  0  0  0  0  0
  146.5085  141.0380  154.3287 C   0  0  0  0  0  0  0  0  0  0  0  0
  147.2347  140.0643  153.6802 N   0  0  0  0  0  0  0  0  0  0  0  0
  146.8009  139.2645  152.5442 C   0  0  0  0  0  0  0  0  0  0  0  0
  146.2613  137.8562  152.9106 C   0  0  1  0  0  0  0  0  0  0  0  0
  146.3883  137.0414  151.7616 O   0  0  0  0  0  0  0  0  0  0  0  0
  146.9759  137.1943  154.0882 C   0  0  0  0  0  0  0  0  0  0  0  0
  146.0627  137.4479  155.2940 C   0  0  0  0  0  0  0  0  0  0  0  0
  144.9063  138.1039  154.7886 O   0  0  0  0  0  0  0  0  0  0  0  0
  144.8089  137.8469  153.3970 C   0  0  0  0  0  0  0  0  0  0  0  0
  150.7896  142.0686  158.0283 C   0  0  0  0  0  0  0  0  0  0  0  0
  150.8175  143.3394  158.9149 C   0  0  2  0  0  0  0  0  0  0  0  0
  151.0694  144.6143  158.1148 C   0  0  0  0  0  0  0  0  0  0  0  0
  152.5888  144.6581  158.0058 C   0  0  0  0  0  0  0  0  0  0  0  0
  153.0719  144.0639  159.2039 O   0  0  0  0  0  0  0  0  0  0  0  0
  152.0109  143.4039  159.8902 C   0  0  2  0  0  0  0  0  0  0  0  0
  152.4932  142.0745  160.4880 C   0  0  0  0  0  0  0  0  0  0  0  0
  149.6015  143.4268  159.6640 O   0  0  0  0  0  0  0  0  0  0  0  0
  146.2753  143.5576  159.2608 H   0  0  0  0  0  0  0  0  0  0  0  0
  147.2658  144.4527  160.4093 H   0  0  0  0  0  0  0  0  0  0  0  0
  147.1748  142.6959  160.5087 H   0  0  0  0  0  0  0  0  0  0  0  0
  148.4100  144.3004  158.2178 H   0  0  0  0  0  0  0  0  0  0  0  0
  148.2753  141.2716  158.6639 H   0  0  0  0  0  0  0  0  0  0  0  0
  147.4680  142.1655  157.3944 H   0  0  0  0  0  0  0  0  0  0  0  0
  151.4006  138.8375  154.8019 H   0  0  0  0  0  0  0  0  0  0  0  0
  145.5044  141.3088  154.0368 H   0  0  0  0  0  0  0  0  0  0  0  0
  146.0382  139.8280  152.0050 H   0  0  0  0  0  0  0  0  0  0  0  0
  147.6457  139.1712  151.8604 H   0  0  0  0  0  0  0  0  0  0  0  0
  147.2177  136.5906  151.8044 H   0  0  0  0  0  0  0  0  0  0  0  0
  147.0591  136.1168  153.9354 H   0  0  0  0  0  0  0  0  0  0  0  0
  147.9876  137.5713  154.2378 H   0  0  0  0  0  0  0  0  0  0  0  0
  145.7770  136.5081  155.7679 H   0  0  0  0  0  0  0  0  0  0  0  0
  146.5431  138.0741  156.0464 H   0  0  0  0  0  0  0  0  0  0  0  0
  144.1758  138.5722  152.8866 H   0  0  0  0  0  0  0  0  0  0  0  0
  144.3586  136.8612  153.2650 H   0  0  0  0  0  0  0  0  0  0  0  0
  150.8050  141.1731  158.6506 H   0  0  0  0  0  0  0  0  0  0  0  0
  151.6723  142.0319  157.3887 H   0  0  0  0  0  0  0  0  0  0  0  0
  150.5770  144.6338  157.1421 H   0  0  0  0  0  0  0  0  0  0  0  0
  150.7241  145.4814  158.6799 H   0  0  0  0  0  0  0  0  0  0  0  0
  152.9304  144.0642  157.1575 H   0  0  0  0  0  0  0  0  0  0  0  0
  152.9684  145.6725  157.8823 H   0  0  0  0  0  0  0  0  0  0  0  0
  151.7365  144.0665  160.7131 H   0  0  0  0  0  0  0  0  0  0  0  0
  151.6808  141.5557  160.9974 H   0  0  0  0  0  0  0  0  0  0  0  0
  153.2855  142.2456  161.2170 H   0  0  0  0  0  0  0  0  0  0  0  0
  152.8943  141.4106  159.7219 H   0  0  0  0  0  0  0  0  0  0  0  0
  1  2  1  0  0  0  0
  1 29  1  0  0  0  0
  1 30  1  0  0  0  0
  1 31  1  0  0  0  0
  2 28  1  0  0  0  0
  2  3  1  0  0  0  0
  2 32  1  0  0  0  0
  3  4  1  0  0  0  0
  3 33  1  0  0  0  0
  3 34  1  0  0  0  0
  4  5  1  0  0  0  0
  4 21  1  0  0  0  0
  5 10  1  0  0  0  0
  5  6  2  0  0  0  0
  6  7  1  0  0  0  0
  7  8  2  0  0  0  0
  7 35  1  0  0  0  0
  8  9  1  0  0  0  0
  9 13  1  0  0  0  0
  9 10  2  0  0  0  0
 10 11  1  0  0  0  0
 11 12  2  0  0  0  0
 12 13  1  0  0  0  0
 12 36  1  0  0  0  0
 13 14  1  0  0  0  0
 14 15  1  0  0  0  0
 14 37  1  0  0  0  0
 14 38  1  0  0  0  0
 15 20  1  0  0  0  0
 15 16  1  0  0  0  0
 15 17  1  0  0  0  0
 16 39  1  0  0  0  0
 17 18  1  0  0  0  0
 17 40  1  0  0  0  0
 17 41  1  0  0  0  0
 18 19  1  0  0  0  0
 18 42  1  0  0  0  0
 18 43  1  0  0  0  0
 19 20  1  0  0  0  0
 20 44  1  0  0  0  0
 20 45  1  0  0  0  0
 21 22  1  0  0  0  0
 21 46  1  0  0  0  0
 21 47  1  0  0  0  0
 22 26  1  0  0  0  0
 22 23  1  0  0  0  0
 22 28  1  0  0  0  0
 23 24  1  0  0  0  0
 23 48  1  0  0  0  0
 23 49  1  0  0  0  0
 24 25  1  0  0  0  0
 24 50  1  0  0  0  0
 24 51  1  0  0  0  0
 25 26  1  0  0  0  0
 26 27  1  0  0  0  0
 26 52  1  0  0  0  0
 27 53  1  0  0  0  0
 27 54  1  0  0  0  0
 27 55  1  0  0  0  0
M  END
> <s_m_source_file>
AV-unprocessed.smi

> <i_m_source_file_index>
281

> <i_lp_mmshare_version>
43012

> <i_f3d_flags>
0

> <s_epik_input>
W0NIM11bQ0BASF0xT1tDSDJdW0NIMl1bQ0BAXTEyW0NIMl1OKFtDSDJdW0NASF0oTzIpW0NIM10pYyhuW2NIXW4zKWMoYzM0KW5bY0hdbjRbQ0gyXVtDQEBdNShbT0hdKVtDSDJdW0NIMl1PW0NIMl01

> <s_epik_cmdline>
J2VwaWtfcHl0aG9uJywgJy1waCcsICc3LjAnLCAnLXRuJywgJzgnLCAnLW1hJywgJzIwMCcsICctbWV0YWxfYmluZGluZycsICctaW1hZScsICc8aW5maWxlLm1hZT4nLCAnLW9tYWUnLCAnPG91dGZpbGUubWFlPic=

> <r_lp_tautomer_probability>
1

> <r_epik_Ionization_Penalty>
0.00571331

> <r_epik_Ionization_Penalty_Charging>
0

> <r_epik_Ionization_Penalty_Neutral>
0.00571331

> <r_epik_State_Penalty>
0.00399586

> <r_epik_Charging_Adjusted_Penalty>
0.00399586

> <i_epik_Tot_Q>
0

> <i_epik_Tot_abs_Q>
0

> <r_epik_Metal_State_Penalty>
-0

> <b_epik_Metal_Only>
0

> <s_lp_Force_Field>
OPLS_2005

> <r_lp_Energy>
56.9386

> <b_lp_Chiralities_Consistent>
1

> <s_lp_Variant>
AV-unprocessed.smi:281-9

> <Gold.Version>
5.8.1

> <Gold.Id.Protein>
6NUR|6NUR_protein|mol2

> <Gold.PLP.Fitness>
43.0516

> <Gold.PLP.PLP>
-38.4925

> <Gold.PLP.part.hbond>
-2.0000

> <Gold.PLP.part.metal>
0.0000

> <Gold.PLP.part.buried>
-2.4676

> <Gold.PLP.part.nonpolar>
-36.1002

> <Gold.PLP.part.repulsive>
1.0909

> <Gold.PLP.ligand.clash>
0.0000

> <Gold.PLP.ligand.torsion>
0.9337

> <Gold.PLP.Chemscore.Hbond>
1.0395

> <Gold.PLP.Chemscore.CHOScore>
1.0000

> <Gold.PLP.Chemscore.Metal>
0.0000

> <Gold.Chemscore.Hbonds>
donor molecule, donor type, donor heavy atom, donor atom, acceptor molecule, acceptor atom, score
      L1  H    16    39       P1  7948  1.00
      P1  H  6933  6944       L1    28  0.04
      L1  C    12    36       P1 10175  1.00

> <Gold.PLP.Chemscore.Internal.Correction>
0.3078

> <Gold.Rescore>
     Score         DG    S(hbond)    S(metal)    S(lipo)     H(rot)  DE(clash)    DE(int)     intcor
     10.86     -13.72       1.03        0.00      86.99       2.09       0.38       2.48       ----

> <Gold.Chemscore.Fitness>
10.8647

> <Gold.Chemscore.DG>
-13.7236

> <Gold.Chemscore.ZeroCoef>
-5.4800

> <Gold.Chemscore.Hbond>
1.0250

> <Gold.Chemscore.Metal>
0.0000

> <Gold.Chemscore.Lipo>
86.9856

> <Gold.Chemscore.Internal_Hbond>
0.0000

> <Gold.Chemscore.DEClash>
0.3802

> <Gold.Chemscore.DEInternal>
2.4787

> <Gold.Chemscore.Rot>
2.0927

> <Gold.Chemscore.Internal.Correction>
   9.000000E+99

> <Gold.Chemscore.Hbonds>
donor molecule, donor type, donor heavy atom, donor atom, acceptor molecule, acceptor atom, score
      L1  H    16    39       P1  7948  1.00

> <Gold.Chemscore.Hbond.Weighted>
-3.4236

> <Gold.Chemscore.Metal.Weighted>
-0.0000

> <Gold.Chemscore.Lipo.Weighted>
-10.1773

> <Gold.Chemscore.Internal_Hbond.Weighted>
0.0000

> <Gold.Chemscore.DEClash.Weighted>
0.3802

> <Gold.Chemscore.DEInternal.Weighted>
2.4787

> <Gold.Chemscore.Rot.Weighted>
5.3573

> <Gold.Chemscore.Internal.Correction.Weighted>
   9.000000E+99

> <Gold.Protein.RotatedTorsions>
[ 6907 6896 6895 6894 ] final   -0.83 input  -60.11 | X-H torsion
[ 7974 7965 7964 7962 ] final  121.84 input  175.53 | X-H torsion
[ 8008 7997 7996 7995 ] final  -64.92 input   59.86 | X-H torsion
[ 10167 10162 10161 10158 ] final   75.97 input  -65.29 | X-H torsion
[ 10718 10713 10712 10709 ] final   49.77 input   66.30 | X-H torsion
[ 10763 10752 10751 10750 ] final -104.96 input  -60.55 | X-H torsion
[ 11005 11000 10999 10996 ] final -133.30 input  -57.11 | X-H torsion

> <Gold.Protein.ActiveResidues>
 VAL166  LYS551  ARG553  GLY616  TRP617  ASP618  TYR619  PRO620  LYS621  CYS622 
 ASP623  PHE694  ASN695  SER759  ASP760  ASP761  ALA762  ILE779  LEU786  VAL792 
 PHE793  MET794  SER795  GLU796  ALA797  LYS798  CYS799  TRP800  GLU811  SER814 

> <Gold.Protein.RotatedAtoms>
  151.5559  135.1066  159.9960 H   0  0  0  0  0  0  0  0  0  0  0  0  # atno 6907 bound_to 6896
  152.4469  133.7550  159.6726 H   0  0  0  0  0  0  0  0  0  0  0  0  # atno 6908 bound_to 6896
  150.8387  133.7903  159.3093 H   0  0  0  0  0  0  0  0  0  0  0  0  # atno 6909 bound_to 6896
  145.1146  139.3430  143.4746 H   0  0  0  0  0  0  0  0  0  0  0  0  # atno 7974 bound_to 7965
  154.4640  140.0944  156.6971 H   0  0  0  0  0  0  0  0  0  0  0  0  # atno 8008 bound_to 7997
  155.4910  140.3470  155.4336 H   0  0  0  0  0  0  0  0  0  0  0  0  # atno 8009 bound_to 7997
  156.0923  140.1400  156.9564 H   0  0  0  0  0  0  0  0  0  0  0  0  # atno 8010 bound_to 7997
  139.9973  144.5712  150.7767 H   0  0  0  0  0  0  0  0  0  0  0  0  # atno 10167 bound_to 10162
  157.4819  130.8321  149.8103 H   0  0  0  0  0  0  0  0  0  0  0  0  # atno 10718 bound_to 10713
  154.7914  135.4767  154.0061 H   0  0  0  0  0  0  0  0  0  0  0  0  # atno 10763 bound_to 10752
  153.1637  135.6813  153.8713 H   0  0  0  0  0  0  0  0  0  0  0  0  # atno 10764 bound_to 10752
  153.8318  135.3190  155.3397 H   0  0  0  0  0  0  0  0  0  0  0  0  # atno 10765 bound_to 10752
  140.9093  134.1589  157.4402 H   0  0  0  0  0  0  0  0  0  0  0  0  # atno 11005 bound_to 11000
  146.3524  140.1079  142.8605 LP  0  0  0  0  0  0  0  0  0  0  0  0  # atno 17320 bound_to 7965
  145.0809  140.9220  143.4826 LP  0  0  0  0  0  0  0  0  0  0  0  0  # atno 17321 bound_to 7965
  140.7432  143.2843  151.3508 LP  0  0  0  0  0  0  0  0  0  0  0  0  # atno 17342 bound_to 10162
  139.6297  144.0745  152.2465 LP  0  0  0  0  0  0  0  0  0  0  0  0  # atno 17343 bound_to 10162
  156.0126  130.3827  150.2214 LP  0  0  0  0  0  0  0  0  0  0  0  0  # atno 17370 bound_to 10713
  157.0400  131.0032  151.3286 LP  0  0  0  0  0  0  0  0  0  0  0  0  # atno 17371 bound_to 10713
  139.8754  134.9929  156.5620 LP  0  0  0  0  0  0  0  0  0  0  0  0  # atno 17394 bound_to 11000
  140.8131  133.8413  155.8827 LP  0  0  0  0  0  0  0  0  0  0  0  0  # atno 17395 bound_to 11000

$$$$
