AV-unprocessed.smi:1703|AV-procd|sdf|6857|dock10
  -GOLD-   22720 8 43D 1   1.00000     0.00000
 Structure written by MMmdl.
 48 50  0  0  0  0  0  0  0  0  1 V2000
  146.7954  138.7012  152.6337 C   0  0  0  0  0  0  0  0  0  0  0  0
  147.0847  139.7658  153.6972 C   0  0  1  0  0  0  0  0  0  0  0  0
  148.5738  139.8092  154.0841 C   0  0  0  0  0  0  0  0  0  0  0  0
  148.8571  140.8751  155.0363 N   0  0  0  0  0  0  0  0  0  0  0  0
  150.2654  140.8715  155.4307 C   0  0  0  0  0  0  0  0  0  0  0  0
  150.5566  141.4879  156.8158 C   0  0  2  0  0  0  0  0  0  0  0  0
  150.1798  142.8517  156.8031 O   0  0  0  0  0  0  0  0  0  0  0  0
  152.0496  141.3846  157.1895 C   0  0  0  0  0  0  0  0  0  0  0  0
  152.2909  141.5669  158.6152 N   0  0  0  0  0  0  0  0  0  0  0  0
  152.6620  140.6306  159.5249 C   0  0  0  0  0  0  0  0  0  0  0  0
  152.8869  139.1989  159.1266 C   0  0  0  0  0  0  0  0  0  0  0  0
  153.9005  139.0235  158.1571 O   0  0  0  0  0  0  0  0  0  0  0  0
  152.8197  141.0726  160.7749 N   0  0  0  0  0  0  0  0  0  0  0  0
  152.5250  142.4171  160.6647 C   0  0  0  0  0  0  0  0  0  0  0  0
  152.5128  143.4374  161.6425 C   0  0  0  0  0  0  0  0  0  0  0  0
  152.1756  144.7605  161.2893 C   0  0  0  0  0  0  0  0  0  0  0  0
  151.8478  145.0817  159.9563 C   0  0  0  0  0  0  0  0  0  0  0  0
  151.8547  144.0800  158.9665 C   0  0  0  0  0  0  0  0  0  0  0  0
  152.1910  142.7604  159.3243 C   0  0  0  0  0  0  0  0  0  0  0  0
  148.4394  142.1514  154.4605 C   0  0  0  0  0  0  0  0  0  0  0  0
  146.9612  142.1516  154.0222 C   0  0  2  0  0  0  0  0  0  0  0  0
  145.9773  142.2191  155.2027 C   0  0  0  0  0  0  0  0  0  0  0  0
  146.6951  141.0338  153.1732 O   0  0  0  0  0  0  0  0  0  0  0  0
  147.0591  137.7062  152.9932 H   0  0  0  0  0  0  0  0  0  0  0  0
  147.3621  138.8891  151.7211 H   0  0  0  0  0  0  0  0  0  0  0  0
  145.7371  138.6898  152.3726 H   0  0  0  0  0  0  0  0  0  0  0  0
  146.4859  139.5390  154.5798 H   0  0  0  0  0  0  0  0  0  0  0  0
  148.8594  138.8475  154.5122 H   0  0  0  0  0  0  0  0  0  0  0  0
  149.1813  139.9438  153.1874 H   0  0  0  0  0  0  0  0  0  0  0  0
  150.5922  139.8311  155.4609 H   0  0  0  0  0  0  0  0  0  0  0  0
  150.8809  141.3422  154.6619 H   0  0  0  0  0  0  0  0  0  0  0  0
  149.9662  140.9761  157.5763 H   0  0  0  0  0  0  0  0  0  0  0  0
  149.6987  143.0239  156.0085 H   0  0  0  0  0  0  0  0  0  0  0  0
  152.4474  140.4143  156.8916 H   0  0  0  0  0  0  0  0  0  0  0  0
  152.6299  142.1270  156.6399 H   0  0  0  0  0  0  0  0  0  0  0  0
  153.1544  138.6145  160.0063 H   0  0  0  0  0  0  0  0  0  0  0  0
  151.9561  138.7898  158.7326 H   0  0  0  0  0  0  0  0  0  0  0  0
  153.6972  138.2560  157.6451 H   0  0  0  0  0  0  0  0  0  0  0  0
  152.7627  143.2012  162.6663 H   0  0  0  0  0  0  0  0  0  0  0  0
  152.1687  145.5324  162.0450 H   0  0  0  0  0  0  0  0  0  0  0  0
  151.5905  146.0974  159.6938 H   0  0  0  0  0  0  0  0  0  0  0  0
  151.6023  144.3236  157.9455 H   0  0  0  0  0  0  0  0  0  0  0  0
  148.5961  142.9607  155.1734 H   0  0  0  0  0  0  0  0  0  0  0  0
  149.0642  142.3789  153.5954 H   0  0  0  0  0  0  0  0  0  0  0  0
  146.7923  143.0428  153.4171 H   0  0  0  0  0  0  0  0  0  0  0  0
  146.1209  143.1364  155.7741 H   0  0  0  0  0  0  0  0  0  0  0  0
  146.1047  141.3845  155.8918 H   0  0  0  0  0  0  0  0  0  0  0  0
  144.9457  142.2078  154.8508 H   0  0  0  0  0  0  0  0  0  0  0  0
  1  2  1  0  0  0  0
  1 24  1  0  0  0  0
  1 25  1  0  0  0  0
  1 26  1  0  0  0  0
  2 23  1  0  0  0  0
  2  3  1  0  0  0  0
  2 27  1  0  0  0  0
  3  4  1  0  0  0  0
  3 28  1  0  0  0  0
  3 29  1  0  0  0  0
  4  5  1  0  0  0  0
  4 20  1  0  0  0  0
  5  6  1  0  0  0  0
  5 30  1  0  0  0  0
  5 31  1  0  0  0  0
  6  7  1  0  0  0  0
  6  8  1  0  0  0  0
  6 32  1  0  0  0  0
  7 33  1  0  0  0  0
  8  9  1  0  0  0  0
  8 34  1  0  0  0  0
  8 35  1  0  0  0  0
  9 19  1  0  0  0  0
  9 10  1  0  0  0  0
 10 11  1  0  0  0  0
 10 13  2  0  0  0  0
 11 12  1  0  0  0  0
 11 36  1  0  0  0  0
 11 37  1  0  0  0  0
 12 38  1  0  0  0  0
 13 14  1  0  0  0  0
 14 19  2  0  0  0  0
 14 15  1  0  0  0  0
 15 16  2  0  0  0  0
 15 39  1  0  0  0  0
 16 17  1  0  0  0  0
 16 40  1  0  0  0  0
 17 18  2  0  0  0  0
 17 41  1  0  0  0  0
 18 19  1  0  0  0  0
 18 42  1  0  0  0  0
 20 21  1  0  0  0  0
 20 43  1  0  0  0  0
 20 44  1  0  0  0  0
 21 22  1  0  0  0  0
 21 23  1  0  0  0  0
 21 45  1  0  0  0  0
 22 46  1  0  0  0  0
 22 47  1  0  0  0  0
 22 48  1  0  0  0  0
M  END
> <s_m_source_file>
AV-unprocessed.smi

> <i_m_source_file_index>
1703

> <i_lp_mmshare_version>
43012

> <i_f3d_flags>
0

> <s_epik_input>
W0NIM11bQ0BASF0xW0NIMl1OKFtDSDJdW0NASF0oTzEpW0NIM10pW0NIMl1bQ0BIXShbT0hdKVtDSDJdbihjKG4yKVtDSDJdW09IXSljKGMyMylbY0hdW2NIXVtjSF1bY0hdMw==

> <s_epik_cmdline>
J2VwaWtfcHl0aG9uJywgJy1waCcsICc3LjAnLCAnLXRuJywgJzgnLCAnLW1hJywgJzIwMCcsICctbWV0YWxfYmluZGluZycsICctaW1hZScsICc8aW5maWxlLm1hZT4nLCAnLW9tYWUnLCAnPG91dGZpbGUubWFlPic=

> <r_epik_Ionization_Penalty>
0.307685

> <r_epik_Ionization_Penalty_Charging>
0

> <r_epik_Ionization_Penalty_Neutral>
0.307685

> <r_epik_State_Penalty>
0.277856

> <r_epik_Charging_Adjusted_Penalty>
0.277856

> <i_epik_Tot_Q>
0

> <i_epik_Tot_abs_Q>
0

> <r_epik_Metal_State_Penalty>
0.238959

> <b_epik_Metal_Only>
0

> <s_lp_Force_Field>
OPLS_2005

> <r_lp_Energy>
32.6891

> <b_lp_Chiralities_Consistent>
1

> <s_lp_Variant>
AV-unprocessed.smi:1703-5

> <Gold.Version>
5.8.1

> <Gold.Id.Protein>
6NUR|6NUR_protein|mol2

> <Gold.PLP.Fitness>
47.9750

> <Gold.PLP.PLP>
-44.6975

> <Gold.PLP.part.hbond>
-2.0000

> <Gold.PLP.part.metal>
0.0000

> <Gold.PLP.part.buried>
-0.5046

> <Gold.PLP.part.nonpolar>
-41.9408

> <Gold.PLP.part.repulsive>
0.3099

> <Gold.PLP.ligand.clash>
0.0319

> <Gold.PLP.ligand.torsion>
0.5320

> <Gold.PLP.Chemscore.Hbond>
1.4480

> <Gold.PLP.Chemscore.CHOScore>
0.0000

> <Gold.PLP.Chemscore.Metal>
0.0000

> <Gold.Chemscore.Hbonds>
donor molecule, donor type, donor heavy atom, donor atom, acceptor molecule, acceptor atom, score
      L1  H     7    33       P1  8028  0.45
      P1  H  7997  8010       L1    12  1.00

> <Gold.PLP.Chemscore.Internal.Correction>
0.0294

> <Gold.Rescore>
     Score         DG    S(hbond)    S(metal)    S(lipo)     H(rot)  DE(clash)    DE(int)     intcor
     14.94     -17.76       1.32        0.00     130.22       2.88       2.06       0.75       ----

> <Gold.Chemscore.Fitness>
14.9442

> <Gold.Chemscore.DG>
-17.7559

> <Gold.Chemscore.ZeroCoef>
-5.4800

> <Gold.Chemscore.Hbond>
1.3194

> <Gold.Chemscore.Metal>
0.0000

> <Gold.Chemscore.Lipo>
130.2225

> <Gold.Chemscore.Internal_Hbond>
0.0000

> <Gold.Chemscore.DEClash>
2.0620

> <Gold.Chemscore.DEInternal>
0.7498

> <Gold.Chemscore.Rot>
2.8778

> <Gold.Chemscore.Internal.Correction>
   9.000000E+99

> <Gold.Chemscore.Hbonds>
donor molecule, donor type, donor heavy atom, donor atom, acceptor molecule, acceptor atom, score
      L1  H     7    33       P1  8028  0.44
      P1  H  7997  8010       L1    12  0.65

> <Gold.Chemscore.Hbond.Weighted>
-4.4069

> <Gold.Chemscore.Metal.Weighted>
-0.0000

> <Gold.Chemscore.Lipo.Weighted>
-15.2360

> <Gold.Chemscore.Internal_Hbond.Weighted>
0.0000

> <Gold.Chemscore.DEClash.Weighted>
2.0620

> <Gold.Chemscore.DEInternal.Weighted>
0.7498

> <Gold.Chemscore.Rot.Weighted>
7.3671

> <Gold.Chemscore.Internal.Correction.Weighted>
   9.000000E+99

> <Gold.Protein.RotatedTorsions>
[ 6907 6896 6895 6894 ] final   43.82 input  -60.11 | X-H torsion
[ 7974 7965 7964 7962 ] final  -81.40 input  175.53 | X-H torsion
[ 8008 7997 7996 7995 ] final   13.65 input   59.86 | X-H torsion
[ 10167 10162 10161 10158 ] final   -8.11 input  -65.29 | X-H torsion
[ 10718 10713 10712 10709 ] final  -51.49 input   66.30 | X-H torsion
[ 10763 10752 10751 10750 ] final   20.16 input  -60.55 | X-H torsion
[ 11005 11000 10999 10996 ] final   12.39 input  -57.11 | X-H torsion

> <Gold.Protein.ActiveResidues>
 VAL166  LYS551  ARG553  GLY616  TRP617  ASP618  TYR619  PRO620  LYS621  CYS622 
 ASP623  PHE694  ASN695  SER759  ASP760  ASP761  ALA762  ILE779  LEU786  VAL792 
 PHE793  MET794  SER795  GLU796  ALA797  LYS798  CYS799  TRP800  GLU811  SER814 

> <Gold.Protein.RotatedAtoms>
  152.2250  134.8376  160.0480 H   0  0  0  0  0  0  0  0  0  0  0  0  # atno 6907 bound_to 6896
  151.9146  133.3565  159.3884 H   0  0  0  0  0  0  0  0  0  0  0  0  # atno 6908 bound_to 6896
  150.7010  134.4622  159.5430 H   0  0  0  0  0  0  0  0  0  0  0  0  # atno 6909 bound_to 6896
  145.5471  140.9502  143.1519 H   0  0  0  0  0  0  0  0  0  0  0  0  # atno 7974 bound_to 7965
  154.8374  140.2909  155.5682 H   0  0  0  0  0  0  0  0  0  0  0  0  # atno 8008 bound_to 7997
  156.3009  140.2520  156.3241 H   0  0  0  0  0  0  0  0  0  0  0  0  # atno 8009 bound_to 7997
  154.9164  140.0387  157.1963 H   0  0  0  0  0  0  0  0  0  0  0  0  # atno 8010 bound_to 7997
  140.7049  143.6005  150.8803 H   0  0  0  0  0  0  0  0  0  0  0  0  # atno 10167 bound_to 10162
  156.1705  130.4149  149.9654 H   0  0  0  0  0  0  0  0  0  0  0  0  # atno 10718 bound_to 10713
  153.1100  135.6694  153.9517 H   0  0  0  0  0  0  0  0  0  0  0  0  # atno 10763 bound_to 10752
  153.9063  135.3030  155.3450 H   0  0  0  0  0  0  0  0  0  0  0  0  # atno 10764 bound_to 10752
  154.7520  135.5030  153.9384 H   0  0  0  0  0  0  0  0  0  0  0  0  # atno 10765 bound_to 10752
  140.4925  134.0826  155.7774 H   0  0  0  0  0  0  0  0  0  0  0  0  # atno 11005 bound_to 11000
  144.7548  139.7103  143.7258 LP  0  0  0  0  0  0  0  0  0  0  0  0  # atno 17320 bound_to 7965
  146.1942  139.5198  142.9785 LP  0  0  0  0  0  0  0  0  0  0  0  0  # atno 17321 bound_to 7965
  139.9729  143.6036  152.2968 LP  0  0  0  0  0  0  0  0  0  0  0  0  # atno 17342 bound_to 10162
  139.6630  144.7662  151.1927 LP  0  0  0  0  0  0  0  0  0  0  0  0  # atno 17343 bound_to 10162
  156.7455  130.9096  151.3634 LP  0  0  0  0  0  0  0  0  0  0  0  0  # atno 17370 bound_to 10713
  157.6799  130.9130  150.0242 LP  0  0  0  0  0  0  0  0  0  0  0  0  # atno 17371 bound_to 10713
  141.1477  133.9026  157.2176 LP  0  0  0  0  0  0  0  0  0  0  0  0  # atno 17394 bound_to 11000
  139.9760  135.0113  156.9633 LP  0  0  0  0  0  0  0  0  0  0  0  0  # atno 17395 bound_to 11000

$$$$
