AV-unprocessed.smi:3229|AV-procd|sdf|12327|dock9
  -GOLD-   2272018173D 1   1.00000     0.00000
 Structure written by MMmdl.
 35 36  0  0  0  0  0  0  0  0  1 V2000
  151.5520  143.0785  159.0787 C   0  0  0  0  0  0  0  0  0  0  0  0
  150.4323  142.9063  158.0464 C   0  0  0  0  0  0  0  0  0  0  0  0
  150.6267  141.7226  157.1572 C   0  0  0  0  0  0  0  0  0  0  0  0
  150.3165  141.6180  155.8239 C   0  0  0  0  0  0  0  0  0  0  0  0
  150.6195  140.3730  155.2694 N   0  0  0  0  0  0  0  0  0  0  0  0
  151.1461  139.5305  156.1621 C   0  0  0  0  0  0  0  0  0  0  0  0
  151.5944  138.1435  155.8279 C   0  0  0  0  0  0  0  0  0  0  0  0
  151.2967  137.7234  154.3749 C   0  0  0  0  0  0  0  0  0  0  0  0
  150.3495  136.6164  154.2876 N   0  0  0  0  0  0  0  0  0  0  0  0
  150.2815  135.5870  155.1460 C   0  0  0  0  0  0  0  0  0  0  0  0
  151.0488  135.4564  156.1002 O   0  0  0  0  0  0  0  0  0  0  0  0
  149.1585  134.5690  154.9085 C   0  0  2  0  0  0  0  0  0  0  0  0
  149.1219  133.4159  155.9167 C   0  0  0  0  0  0  0  0  0  0  0  0
  148.4665  132.3215  155.1050 C   0  0  0  0  0  0  0  0  0  0  0  0
  149.0746  132.5484  153.7250 C   0  0  0  0  0  0  0  0  0  0  0  0
  149.3193  133.9492  153.6313 O   0  0  0  0  0  0  0  0  0  0  0  0
  151.3220  140.2401  157.7622 S   0  0  0  0  0  0  0  0  0  0  0  0
  151.3770  143.9586  159.6977 H   0  0  0  0  0  0  0  0  0  0  0  0
  152.5199  143.2007  158.5915 H   0  0  0  0  0  0  0  0  0  0  0  0
  151.6159  142.2144  159.7404 H   0  0  0  0  0  0  0  0  0  0  0  0
  149.4758  142.8164  158.5622 H   0  0  0  0  0  0  0  0  0  0  0  0
  150.3632  143.8096  157.4392 H   0  0  0  0  0  0  0  0  0  0  0  0
  149.8799  142.3783  155.1932 H   0  0  0  0  0  0  0  0  0  0  0  0
  152.6656  138.0707  156.0171 H   0  0  0  0  0  0  0  0  0  0  0  0
  151.1167  137.4494  156.5207 H   0  0  0  0  0  0  0  0  0  0  0  0
  150.8641  138.5665  153.8360 H   0  0  0  0  0  0  0  0  0  0  0  0
  152.2220  137.4690  153.8559 H   0  0  0  0  0  0  0  0  0  0  0  0
  149.6774  136.6460  153.5343 H   0  0  0  0  0  0  0  0  0  0  0  0
  148.1996  135.0897  154.9102 H   0  0  0  0  0  0  0  0  0  0  0  0
  150.1277  133.1105  156.2109 H   0  0  0  0  0  0  0  0  0  0  0  0
  148.5602  133.6615  156.8185 H   0  0  0  0  0  0  0  0  0  0  0  0
  148.6560  131.3217  155.4968 H   0  0  0  0  0  0  0  0  0  0  0  0
  147.3875  132.4777  155.0703 H   0  0  0  0  0  0  0  0  0  0  0  0
  150.0282  132.0257  153.6404 H   0  0  0  0  0  0  0  0  0  0  0  0
  148.4259  132.2009  152.9207 H   0  0  0  0  0  0  0  0  0  0  0  0
  1  2  1  0  0  0  0
  1 18  1  0  0  0  0
  1 19  1  0  0  0  0
  1 20  1  0  0  0  0
  2  3  1  0  0  0  0
  2 21  1  0  0  0  0
  2 22  1  0  0  0  0
  3 17  1  0  0  0  0
  3  4  2  0  0  0  0
  4  5  1  0  0  0  0
  4 23  1  0  0  0  0
  5  6  2  0  0  0  0
  6  7  1  0  0  0  0
  6 17  1  0  0  0  0
  7  8  1  0  0  0  0
  7 24  1  0  0  0  0
  7 25  1  0  0  0  0
  8  9  1  0  0  0  0
  8 26  1  0  0  0  0
  8 27  1  0  0  0  0
  9 10  1  0  0  0  0
  9 28  1  0  0  0  0
 10 11  2  0  0  0  0
 10 12  1  0  0  0  0
 12 16  1  0  0  0  0
 12 13  1  0  0  0  0
 12 29  1  0  0  0  0
 13 14  1  0  0  0  0
 13 30  1  0  0  0  0
 13 31  1  0  0  0  0
 14 15  1  0  0  0  0
 14 32  1  0  0  0  0
 14 33  1  0  0  0  0
 15 16  1  0  0  0  0
 15 34  1  0  0  0  0
 15 35  1  0  0  0  0
M  END
> <s_m_source_file>
AV-unprocessed.smi

> <i_m_source_file_index>
3229

> <i_lp_mmshare_version>
43012

> <i_f3d_flags>
0

> <s_epik_input>
W0NIM11bQ0gyXWMxW2NIXW5jKHMxKVtDSDJdW0NIMl1bTkhdQyg9TylbQ0BASF0yW0NIMl1bQ0gyXVtDSDJdTzI=

> <s_epik_cmdline>
J2VwaWtfcHl0aG9uJywgJy1waCcsICc3LjAnLCAnLXRuJywgJzgnLCAnLW1hJywgJzIwMCcsICctbWV0YWxfYmluZGluZycsICctaW1hZScsICc8aW5maWxlLm1hZT4nLCAnLW9tYWUnLCAnPG91dGZpbGUubWFlPic=

> <r_epik_Ionization_Penalty>
0.000508191

> <r_epik_Ionization_Penalty_Charging>
0

> <r_epik_Ionization_Penalty_Neutral>
0.000508191

> <r_epik_State_Penalty>
0.000316483

> <r_epik_Charging_Adjusted_Penalty>
0.000316483

> <i_epik_Tot_Q>
0

> <i_epik_Tot_abs_Q>
0

> <r_epik_Metal_State_Penalty>
-0

> <b_epik_Metal_Only>
0

> <s_lp_Force_Field>
OPLS_2005

> <r_lp_Energy>
9.62318

> <b_lp_Chiralities_Consistent>
1

> <s_lp_Variant>
AV-unprocessed.smi:3229-1

> <Gold.Version>
5.8.1

> <Gold.Id.Protein>
6NUR|6NUR_protein|mol2

> <Gold.PLP.Fitness>
43.6337

> <Gold.PLP.PLP>
-33.6855

> <Gold.PLP.part.hbond>
-4.0000

> <Gold.PLP.part.metal>
0.0000

> <Gold.PLP.part.buried>
-2.6797

> <Gold.PLP.part.nonpolar>
-27.0465

> <Gold.PLP.part.repulsive>
0.4483

> <Gold.PLP.ligand.clash>
0.0000

> <Gold.PLP.ligand.torsion>
0.8871

> <Gold.PLP.Chemscore.Hbond>
2.8960

> <Gold.PLP.Chemscore.CHOScore>
1.0000

> <Gold.PLP.Chemscore.Metal>
0.0000

> <Gold.Chemscore.Hbonds>
donor molecule, donor type, donor heavy atom, donor atom, acceptor molecule, acceptor atom, score
      L1  H     9    28       P1  7948  1.00
      P1  H  7989  7998       L1     5  0.83
      P1  H 10752 10765       L1    11  0.12
      L1  C     4    23       P1  8028  0.87

> <Gold.PLP.Chemscore.Internal.Correction>
0.0344

> <Gold.Rescore>
     Score         DG    S(hbond)    S(metal)    S(lipo)     H(rot)  DE(clash)    DE(int)     intcor
     14.64     -18.09       2.10        0.00      82.92       1.60       0.31       3.14       ----

> <Gold.Chemscore.Fitness>
14.6390

> <Gold.Chemscore.DG>
-18.0933

> <Gold.Chemscore.ZeroCoef>
-5.4800

> <Gold.Chemscore.Hbond>
2.1012

> <Gold.Chemscore.Metal>
0.0000

> <Gold.Chemscore.Lipo>
82.9187

> <Gold.Chemscore.Internal_Hbond>
0.0000

> <Gold.Chemscore.DEClash>
0.3125

> <Gold.Chemscore.DEInternal>
3.1418

> <Gold.Chemscore.Rot>
1.6040

> <Gold.Chemscore.Internal.Correction>
   9.000000E+99

> <Gold.Chemscore.Hbonds>
donor molecule, donor type, donor heavy atom, donor atom, acceptor molecule, acceptor atom, score
      L1  H     9    28       P1  7948  0.54
      P1  H  7989  7998       L1     5  0.31
      P1  H 10752 10765       L1    11  0.01

> <Gold.Chemscore.Hbond.Weighted>
-7.0180

> <Gold.Chemscore.Metal.Weighted>
-0.0000

> <Gold.Chemscore.Lipo.Weighted>
-9.7015

> <Gold.Chemscore.Internal_Hbond.Weighted>
0.0000

> <Gold.Chemscore.DEClash.Weighted>
0.3125

> <Gold.Chemscore.DEInternal.Weighted>
3.1418

> <Gold.Chemscore.Rot.Weighted>
4.1062

> <Gold.Chemscore.Internal.Correction.Weighted>
   9.000000E+99

> <Gold.Protein.RotatedTorsions>
[ 6907 6896 6895 6894 ] final -111.29 input  -60.11 | X-H torsion
[ 7974 7965 7964 7962 ] final   66.20 input  175.53 | X-H torsion
[ 8008 7997 7996 7995 ] final  -81.43 input   59.86 | X-H torsion
[ 10167 10162 10161 10158 ] final    2.57 input  -65.29 | X-H torsion
[ 10718 10713 10712 10709 ] final  -30.93 input   66.30 | X-H torsion
[ 10763 10752 10751 10750 ] final -173.78 input  -60.55 | X-H torsion
[ 11005 11000 10999 10996 ] final   75.15 input  -57.11 | X-H torsion

> <Gold.Protein.ActiveResidues>
 VAL166  LYS551  ARG553  GLY616  TRP617  ASP618  TYR619  PRO620  LYS621  CYS622 
 ASP623  PHE694  ASN695  SER759  ASP760  ASP761  ALA762  ILE779  LEU786  VAL792 
 PHE793  MET794  SER795  GLU796  ALA797  LYS798  CYS799  TRP800  GLU811  SER814 

> <Gold.Protein.RotatedAtoms>
  150.7680  133.9257  159.3411 H   0  0  0  0  0  0  0  0  0  0  0  0  # atno 6907 bound_to 6896
  151.7151  135.0903  160.0284 H   0  0  0  0  0  0  0  0  0  0  0  0  # atno 6908 bound_to 6896
  152.3685  133.6350  159.6105 H   0  0  0  0  0  0  0  0  0  0  0  0  # atno 6909 bound_to 6896
  145.8295  139.3130  143.0996 H   0  0  0  0  0  0  0  0  0  0  0  0  # atno 7974 bound_to 7965
  154.5983  140.0648  156.9333 H   0  0  0  0  0  0  0  0  0  0  0  0  # atno 8008 bound_to 7997
  155.2176  140.3327  155.4301 H   0  0  0  0  0  0  0  0  0  0  0  0  # atno 8009 bound_to 7997
  156.2301  140.1837  156.7247 H   0  0  0  0  0  0  0  0  0  0  0  0  # atno 8010 bound_to 7997
  140.6629  143.7257  150.7771 H   0  0  0  0  0  0  0  0  0  0  0  0  # atno 10167 bound_to 10162
  156.3936  130.4377  149.7376 H   0  0  0  0  0  0  0  0  0  0  0  0  # atno 10718 bound_to 10713
  154.6038  135.2857  155.0506 H   0  0  0  0  0  0  0  0  0  0  0  0  # atno 10763 bound_to 10752
  154.1761  135.6464  153.5026 H   0  0  0  0  0  0  0  0  0  0  0  0  # atno 10764 bound_to 10752
  153.0167  135.5412  154.6767 H   0  0  0  0  0  0  0  0  0  0  0  0  # atno 10765 bound_to 10752
  139.9357  134.7493  156.1236 H   0  0  0  0  0  0  0  0  0  0  0  0  # atno 11005 bound_to 11000
  145.9587  140.8852  143.0222 LP  0  0  0  0  0  0  0  0  0  0  0  0  # atno 17320 bound_to 7965
  144.6741  140.1782  143.7408 LP  0  0  0  0  0  0  0  0  0  0  0  0  # atno 17321 bound_to 7965
  140.0929  143.4860  152.2468 LP  0  0  0  0  0  0  0  0  0  0  0  0  # atno 17342 bound_to 10162
  139.5868  144.7534  151.3501 LP  0  0  0  0  0  0  0  0  0  0  0  0  # atno 17343 bound_to 10162
  156.4420  130.7865  151.2887 LP  0  0  0  0  0  0  0  0  0  0  0  0  # atno 17370 bound_to 10713
  157.7500  131.0122  150.3375 LP  0  0  0  0  0  0  0  0  0  0  0  0  # atno 17371 bound_to 10713
  141.0969  133.6692  156.2666 LP  0  0  0  0  0  0  0  0  0  0  0  0  # atno 17394 bound_to 11000
  140.6082  134.5485  157.5529 LP  0  0  0  0  0  0  0  0  0  0  0  0  # atno 17395 bound_to 11000

$$$$
