AV-unprocessed.smi:103|AV-procd|sdf|988|dock5
  -GOLD-   2262017563D 1   1.00000     0.00000
 Structure written by MMmdl.
 53 55  0  0  0  0  0  0  0  0  1 V2000
  147.4822  135.3851  162.3130 C   0  0  0  0  0  0  0  0  0  0  0  0
  147.1872  136.2486  161.0939 C   0  0  0  0  0  0  0  0  0  0  0  0
  147.2362  137.4775  161.1469 O   0  0  0  0  0  0  0  0  0  0  0  0
  146.8869  135.5166  160.0121 O   0  0  0  0  0  0  0  0  0  0  0  0
  146.0120  136.0410  159.0272 C   0  0  0  0  0  0  0  0  0  0  0  0
  146.8221  136.4711  157.7989 C   0  0  1  0  0  0  0  0  0  0  0  0
  147.5034  135.3479  157.2628 O   0  0  0  0  0  0  0  0  0  0  0  0
  147.7751  135.5613  155.9149 C   0  0  2  0  0  0  0  0  0  0  0  0
  149.2044  136.0179  155.7798 N   0  0  0  0  0  0  0  0  0  0  0  0
  150.3495  135.3658  156.1987 C   0  0  0  0  0  0  0  0  0  0  0  0
  150.4394  133.7485  156.9622 S   0  0  0  0  0  0  0  0  0  0  0  0
  149.9802  132.6408  155.5677 C   0  0  0  0  0  0  0  0  0  0  0  0
  151.8485  133.5196  157.3189 O   0  0  0  0  0  0  0  0  0  0  0  0
  149.3919  133.6946  157.9934 O   0  0  0  0  0  0  0  0  0  0  0  0
  151.4891  135.9408  155.9304 N   0  0  0  0  0  0  0  0  0  0  0  0
  151.1064  137.1407  155.3536 C   0  0  0  0  0  0  0  0  0  0  0  0
  151.8214  138.2594  154.8562 C   0  0  0  0  0  0  0  0  0  0  0  0
  153.1594  138.3341  154.8651 N   0  0  0  0  0  0  0  0  0  0  0  0
  151.1236  139.3028  154.3522 N   0  0  0  0  0  0  0  0  0  0  0  0
  149.7890  139.2528  154.3353 C   0  0  0  0  0  0  0  0  0  0  0  0
  148.9866  138.2740  154.7595 N   0  0  0  0  0  0  0  0  0  0  0  0
  149.6851  137.2152  155.2684 C   0  0  0  0  0  0  0  0  0  0  0  0
  146.7633  136.5943  155.3865 C   0  0  1  0  0  0  0  0  0  0  0  0
  145.9006  136.0082  154.4202 O   0  0  0  0  0  0  0  0  0  0  0  0
  145.0595  136.7821  153.7116 C   0  0  0  0  0  0  0  0  0  0  0  0
  143.8674  136.0033  153.1727 C   0  0  0  0  0  0  0  0  0  0  0  0
  145.1985  137.9844  153.4858 O   0  0  0  0  0  0  0  0  0  0  0  0
  145.9686  136.9785  156.6292 C   0  0  2  0  0  0  0  0  0  0  0  0
  145.8261  138.3933  156.6638 O   0  0  0  0  0  0  0  0  0  0  0  0
  145.1944  138.9953  157.6855 C   0  0  0  0  0  0  0  0  0  0  0  0
  145.1284  140.5067  157.5139 C   0  0  0  0  0  0  0  0  0  0  0  0
  144.7134  138.4395  158.6728 O   0  0  0  0  0  0  0  0  0  0  0  0
  146.6305  134.7428  162.5374 H   0  0  0  0  0  0  0  0  0  0  0  0
  147.6845  136.0083  163.1844 H   0  0  0  0  0  0  0  0  0  0  0  0
  148.3527  134.7554  162.1277 H   0  0  0  0  0  0  0  0  0  0  0  0
  145.2952  135.2677  158.7486 H   0  0  0  0  0  0  0  0  0  0  0  0
  145.4448  136.8870  159.4188 H   0  0  0  0  0  0  0  0  0  0  0  0
  147.5701  137.2082  158.0898 H   0  0  0  0  0  0  0  0  0  0  0  0
  147.7294  134.6225  155.3680 H   0  0  0  0  0  0  0  0  0  0  0  0
  150.0153  131.6043  155.9017 H   0  0  0  0  0  0  0  0  0  0  0  0
  150.6830  132.7812  154.7465 H   0  0  0  0  0  0  0  0  0  0  0  0
  148.9736  132.8766  155.2257 H   0  0  0  0  0  0  0  0  0  0  0  0
  153.7032  137.5695  155.2387 H   0  0  0  0  0  0  0  0  0  0  0  0
  153.6211  139.1546  154.5003 H   0  0  0  0  0  0  0  0  0  0  0  0
  149.2928  140.1183  153.9217 H   0  0  0  0  0  0  0  0  0  0  0  0
  147.2768  137.4531  154.9561 H   0  0  0  0  0  0  0  0  0  0  0  0
  143.2615  135.6225  153.9951 H   0  0  0  0  0  0  0  0  0  0  0  0
  144.2060  135.1597  152.5712 H   0  0  0  0  0  0  0  0  0  0  0  0
  143.2422  136.6427  152.5495 H   0  0  0  0  0  0  0  0  0  0  0  0
  145.0103  136.4561  156.6168 H   0  0  0  0  0  0  0  0  0  0  0  0
  144.5121  140.7630  156.6520 H   0  0  0  0  0  0  0  0  0  0  0  0
  146.1276  140.9142  157.3597 H   0  0  0  0  0  0  0  0  0  0  0  0
  144.6976  140.9745  158.3995 H   0  0  0  0  0  0  0  0  0  0  0  0
  1  2  1  0  0  0  0
  1 33  1  0  0  0  0
  1 34  1  0  0  0  0
  1 35  1  0  0  0  0
  2  3  2  0  0  0  0
  2  4  1  0  0  0  0
  4  5  1  0  0  0  0
  5  6  1  0  0  0  0
  5 36  1  0  0  0  0
  5 37  1  0  0  0  0
  6 28  1  0  0  0  0
  6  7  1  0  0  0  0
  6 38  1  0  0  0  0
  7  8  1  0  0  0  0
  8  9  1  0  0  0  0
  8 23  1  0  0  0  0
  8 39  1  0  0  0  0
  9 22  1  0  0  0  0
  9 10  1  0  0  0  0
 10 11  1  0  0  0  0
 10 15  2  0  0  0  0
 11 12  1  0  0  0  0
 11 13  2  0  0  0  0
 11 14  2  0  0  0  0
 12 40  1  0  0  0  0
 12 41  1  0  0  0  0
 12 42  1  0  0  0  0
 15 16  1  0  0  0  0
 16 22  2  0  0  0  0
 16 17  1  0  0  0  0
 17 18  1  0  0  0  0
 17 19  2  0  0  0  0
 18 43  1  0  0  0  0
 18 44  1  0  0  0  0
 19 20  1  0  0  0  0
 20 21  2  0  0  0  0
 20 45  1  0  0  0  0
 21 22  1  0  0  0  0
 23 24  1  0  0  0  0
 23 28  1  0  0  0  0
 23 46  1  0  0  0  0
 24 25  1  0  0  0  0
 25 26  1  0  0  0  0
 25 27  2  0  0  0  0
 26 47  1  0  0  0  0
 26 48  1  0  0  0  0
 26 49  1  0  0  0  0
 28 29  1  0  0  0  0
 28 50  1  0  0  0  0
 29 30  1  0  0  0  0
 30 31  1  0  0  0  0
 30 32  2  0  0  0  0
 31 51  1  0  0  0  0
 31 52  1  0  0  0  0
 31 53  1  0  0  0  0
M  END
> <s_m_source_file>
AV-unprocessed.smi

> <i_m_source_file_index>
103

> <i_lp_mmshare_version>
43012

> <i_f3d_flags>
0

> <s_epik_input>
W0NIM11DKD1PKU9bQ0gyXVtDQEBIXTFPW0NASF0oW0NAQEhdKE9DKD1PKVtDSDNdKVtDQEhdMU9DKD1PKVtDSDNdKW4oYyhuMilTKD1PKSg9TylbQ0gzXSljKGMyMyluW2NIXW5jM1tOSDJd

> <s_epik_cmdline>
J2VwaWtfcHl0aG9uJywgJy1waCcsICc3LjAnLCAnLXRuJywgJzgnLCAnLW1hJywgJzIwMCcsICctbWV0YWxfYmluZGluZycsICctaW1hZScsICc8aW5maWxlLm1hZT4nLCAnLW9tYWUnLCAnPG91dGZpbGUubWFlPic=

> <r_lp_tautomer_probability>
1

> <r_epik_Ionization_Penalty>
1.51338e-05

> <r_epik_Ionization_Penalty_Charging>
0

> <r_epik_Ionization_Penalty_Neutral>
1.51338e-05

> <r_epik_State_Penalty>
-0

> <r_epik_Charging_Adjusted_Penalty>
0

> <i_epik_Tot_Q>
0

> <i_epik_Tot_abs_Q>
0

> <r_epik_Metal_State_Penalty>
-0

> <b_epik_Metal_Only>
0

> <s_epik_Chemistry_Notes>
This compound has an ester and may undergo hydrolysis at high or low pH. This compound contains an acetal/aminal-like group ( X-CH(R)-Y where X, Y are N, S, or O) that may be acid/base labile, releasing an aldehyde.

> <s_lp_Force_Field>
OPLS_2005

> <r_lp_Energy>
13.207

> <b_lp_Chiralities_Consistent>
1

> <s_lp_Variant>
AV-unprocessed.smi:103-12

> <Gold.Version>
5.8.1

> <Gold.Id.Protein>
6NUR|6NUR_protein|mol2

> <Gold.PLP.Fitness>
42.0246

> <Gold.PLP.PLP>
-29.5083

> <Gold.PLP.part.hbond>
-6.0000

> <Gold.PLP.part.metal>
0.0000

> <Gold.PLP.part.buried>
-6.3843

> <Gold.PLP.part.nonpolar>
-18.7196

> <Gold.PLP.part.repulsive>
1.0953

> <Gold.PLP.ligand.clash>
0.0000

> <Gold.PLP.ligand.torsion>
2.1525

> <Gold.PLP.Chemscore.Hbond>
4.7772

> <Gold.PLP.Chemscore.CHOScore>
0.0415

> <Gold.PLP.Chemscore.Metal>
0.0000

> <Gold.Chemscore.Hbonds>
donor molecule, donor type, donor heavy atom, donor atom, acceptor molecule, acceptor atom, score
      P1  H  6896  6908       L1    13  0.19
      P1  H  6896  6909       L1    14  0.60
      P1  H  6931  6943       L1     3  0.59
      P1  H  6934  6947       L1     3  1.00
      P1  H  7989  7998       L1    19  1.00
      P1  H 10752 10764       L1    15  1.00
      L1  C    20    45       P1  7957  0.21

> <Gold.PLP.Chemscore.Internal.Correction>
2.3651

> <Gold.Rescore>
     Score         DG    S(hbond)    S(metal)    S(lipo)     H(rot)  DE(clash)    DE(int)     intcor
      4.90     -11.25       4.08        0.00      25.72       4.25       0.01       6.34       ----

> <Gold.Chemscore.Fitness>
4.9026

> <Gold.Chemscore.DG>
-11.2522

> <Gold.Chemscore.ZeroCoef>
-5.4800

> <Gold.Chemscore.Hbond>
4.0813

> <Gold.Chemscore.Metal>
0.0000

> <Gold.Chemscore.Lipo>
25.7209

> <Gold.Chemscore.Internal_Hbond>
0.0000

> <Gold.Chemscore.DEClash>
0.0111

> <Gold.Chemscore.DEInternal>
6.3385

> <Gold.Chemscore.Rot>
4.2456

> <Gold.Chemscore.Internal.Correction>
   9.000000E+99

> <Gold.Chemscore.Hbonds>
donor molecule, donor type, donor heavy atom, donor atom, acceptor molecule, acceptor atom, score
      P1  H  6896  6908       L1    13  0.16
      P1  H  6896  6909       L1    14  0.04
      P1  H  6931  6943       L1     3  0.52
      P1  H  6934  6947       L1     3  0.94
      P1  H  7989  7998       L1    19  0.65
      P1  H 10752 10764       L1    15  0.30

> <Gold.Chemscore.Hbond.Weighted>
-13.6315

> <Gold.Chemscore.Metal.Weighted>
-0.0000

> <Gold.Chemscore.Lipo.Weighted>
-3.0093

> <Gold.Chemscore.Internal_Hbond.Weighted>
0.0000

> <Gold.Chemscore.DEClash.Weighted>
0.0111

> <Gold.Chemscore.DEInternal.Weighted>
6.3385

> <Gold.Chemscore.Rot.Weighted>
10.8687

> <Gold.Chemscore.Internal.Correction.Weighted>
   9.000000E+99

> <Gold.Protein.RotatedTorsions>
[ 6907 6896 6895 6894 ] final   27.50 input  -60.11 | X-H torsion
[ 7974 7965 7964 7962 ] final  177.75 input  175.53 | X-H torsion
[ 8008 7997 7996 7995 ] final  -17.93 input   59.86 | X-H torsion
[ 10167 10162 10161 10158 ] final   55.37 input  -65.29 | X-H torsion
[ 10718 10713 10712 10709 ] final  155.15 input   66.30 | X-H torsion
[ 10763 10752 10751 10750 ] final  -42.36 input  -60.55 | X-H torsion
[ 11005 11000 10999 10996 ] final   84.93 input  -57.11 | X-H torsion

> <Gold.Protein.ActiveResidues>
 VAL166  LYS551  ARG553  GLY616  TRP617  ASP618  TYR619  PRO620  LYS621  CYS622 
 ASP623  PHE694  ASN695  SER759  ASP760  ASP761  ALA762  ILE779  LEU786  VAL792 
 PHE793  MET794  SER795  GLU796  ALA797  LYS798  CYS799  TRP800  GLU811  SER814 

> <Gold.Protein.RotatedAtoms>
  152.0032  134.9917  160.0565 H   0  0  0  0  0  0  0  0  0  0  0  0  # atno 6907 bound_to 6896
  152.1499  133.4511  159.4817 H   0  0  0  0  0  0  0  0  0  0  0  0  # atno 6908 bound_to 6896
  150.6874  134.2119  159.4406 H   0  0  0  0  0  0  0  0  0  0  0  0  # atno 6909 bound_to 6896
  144.7165  140.0294  143.6439 H   0  0  0  0  0  0  0  0  0  0  0  0  # atno 7974 bound_to 7965
  154.4942  140.2129  155.9482 H   0  0  0  0  0  0  0  0  0  0  0  0  # atno 8008 bound_to 7997
  156.1348  140.3190  155.8372 H   0  0  0  0  0  0  0  0  0  0  0  0  # atno 8009 bound_to 7997
  155.4230  140.0498  157.3015 H   0  0  0  0  0  0  0  0  0  0  0  0  # atno 8010 bound_to 7997
  140.2202  144.3796  150.6453 H   0  0  0  0  0  0  0  0  0  0  0  0  # atno 10167 bound_to 10162
  157.2222  131.0721  151.1905 H   0  0  0  0  0  0  0  0  0  0  0  0  # atno 10718 bound_to 10713
  153.9777  135.6720  153.4749 H   0  0  0  0  0  0  0  0  0  0  0  0  # atno 10763 bound_to 10752
  153.0763  135.4947  154.8407 H   0  0  0  0  0  0  0  0  0  0  0  0  # atno 10764 bound_to 10752
  154.7182  135.3111  154.9051 H   0  0  0  0  0  0  0  0  0  0  0  0  # atno 10765 bound_to 10752
  139.8986  134.8251  156.2512 H   0  0  0  0  0  0  0  0  0  0  0  0  # atno 11005 bound_to 11000
  146.0115  139.3173  143.0867 LP  0  0  0  0  0  0  0  0  0  0  0  0  # atno 17320 bound_to 7965
  145.8676  140.9439  143.0667 LP  0  0  0  0  0  0  0  0  0  0  0  0  # atno 17321 bound_to 7965
  140.6260  143.2181  151.6595 LP  0  0  0  0  0  0  0  0  0  0  0  0  # atno 17342 bound_to 10162
  139.5147  144.3402  152.0747 LP  0  0  0  0  0  0  0  0  0  0  0  0  # atno 17343 bound_to 10162
  157.3564  130.7109  149.6473 LP  0  0  0  0  0  0  0  0  0  0  0  0  # atno 17370 bound_to 10713
  155.9681  130.4238  150.4578 LP  0  0  0  0  0  0  0  0  0  0  0  0  # atno 17371 bound_to 10713
  141.0222  133.7035  156.1288 LP  0  0  0  0  0  0  0  0  0  0  0  0  # atno 17394 bound_to 11000
  140.7217  134.4351  157.5574 LP  0  0  0  0  0  0  0  0  0  0  0  0  # atno 17395 bound_to 11000

$$$$
