AV-unprocessed.smi:3329|AV-procd|sdf|12798|dock3
  -GOLD-   2272019153D 1   1.00000     0.00000
 Structure written by MMmdl.
 41 42  0  0  0  0  0  0  0  0  1 V2000
  145.8683  132.1298  149.6174 C   0  0  0  0  0  0  0  0  0  0  0  0
  145.4476  133.2897  150.4732 C   0  0  0  0  0  0  0  0  0  0  0  0
  144.1274  133.7674  150.7128 C   0  0  0  0  0  0  0  0  0  0  0  0
  144.0976  134.8138  151.5220 N   0  0  0  0  0  0  0  0  0  0  0  0
  145.3929  135.0415  151.8257 N   0  0  0  0  0  0  0  0  0  0  0  0
  145.7457  136.1327  152.7165 C   0  0  0  0  0  0  0  0  0  0  0  0
  144.8010  137.3387  152.5748 C   0  0  0  0  0  0  0  0  0  0  0  0
  145.4236  138.5321  153.1297 N   0  0  0  0  0  0  0  0  0  0  0  0
  146.7774  138.7098  152.5960 C   0  0  0  0  0  0  0  0  0  0  0  0
  147.7595  139.1335  153.6868 C   0  0  0  0  0  0  0  0  0  0  0  0
  147.5008  140.1026  154.3986 O   0  0  0  0  0  0  0  0  0  0  0  0
  148.8795  138.3980  153.7990 N   0  0  0  0  0  0  0  0  0  0  0  0
  149.9698  138.5510  154.7654 C   0  0  2  0  0  0  0  0  0  0  0  0
  151.0843  137.5306  154.4590 C   0  0  0  0  0  0  0  0  0  0  0  0
  149.4230  138.2238  156.0954 C   0  0  0  0  0  0  0  0  0  0  0  0
  148.9916  137.9686  157.1388 N   0  0  0  0  0  0  0  0  0  0  0  0
  150.5590  139.9658  154.7910 C   0  0  0  0  0  0  0  0  0  0  0  0
  151.3979  140.4769  155.9414 C   0  0  0  0  0  0  0  0  0  0  0  0
  150.0226  141.0563  155.6909 C   0  0  0  0  0  0  0  0  0  0  0  0
  146.2294  134.1388  151.2039 C   0  0  0  0  0  0  0  0  0  0  0  0
  145.0380  131.4525  149.4161 H   0  0  0  0  0  0  0  0  0  0  0  0
  146.6532  131.5416  150.0933 H   0  0  0  0  0  0  0  0  0  0  0  0
  146.2539  132.4617  148.6532 H   0  0  0  0  0  0  0  0  0  0  0  0
  143.1944  133.3857  150.3250 H   0  0  0  0  0  0  0  0  0  0  0  0
  145.7447  135.7637  153.7433 H   0  0  0  0  0  0  0  0  0  0  0  0
  146.7700  136.4365  152.4967 H   0  0  0  0  0  0  0  0  0  0  0  0
  144.5758  137.5016  151.5201 H   0  0  0  0  0  0  0  0  0  0  0  0
  143.8549  137.1387  153.0803 H   0  0  0  0  0  0  0  0  0  0  0  0
  144.8407  139.3291  152.9158 H   0  0  0  0  0  0  0  0  0  0  0  0
  147.1281  137.7775  152.1507 H   0  0  0  0  0  0  0  0  0  0  0  0
  146.7667  139.4633  151.8068 H   0  0  0  0  0  0  0  0  0  0  0  0
  148.9767  137.6279  153.1529 H   0  0  0  0  0  0  0  0  0  0  0  0
  151.8602  137.5605  155.2249 H   0  0  0  0  0  0  0  0  0  0  0  0
  151.5701  137.7261  153.5030 H   0  0  0  0  0  0  0  0  0  0  0  0
  150.6930  136.5129  154.4307 H   0  0  0  0  0  0  0  0  0  0  0  0
  150.8998  140.3032  153.8144 H   0  0  0  0  0  0  0  0  0  0  0  0
  151.5245  139.8399  156.8141 H   0  0  0  0  0  0  0  0  0  0  0  0
  152.2565  141.0984  155.6951 H   0  0  0  0  0  0  0  0  0  0  0  0
  149.9678  142.0614  155.2778 H   0  0  0  0  0  0  0  0  0  0  0  0
  149.2336  140.8028  156.3956 H   0  0  0  0  0  0  0  0  0  0  0  0
  147.3010  134.1727  151.3360 H   0  0  0  0  0  0  0  0  0  0  0  0
  1  2  1  0  0  0  0
  1 21  1  0  0  0  0
  1 22  1  0  0  0  0
  1 23  1  0  0  0  0
  2 20  2  0  0  0  0
  2  3  1  0  0  0  0
  3  4  2  0  0  0  0
  3 24  1  0  0  0  0
  4  5  1  0  0  0  0
  5  6  1  0  0  0  0
  5 20  1  0  0  0  0
  6  7  1  0  0  0  0
  6 25  1  0  0  0  0
  6 26  1  0  0  0  0
  7  8  1  0  0  0  0
  7 27  1  0  0  0  0
  7 28  1  0  0  0  0
  8  9  1  0  0  0  0
  8 29  1  0  0  0  0
  9 10  1  0  0  0  0
  9 30  1  0  0  0  0
  9 31  1  0  0  0  0
 10 11  2  0  0  0  0
 10 12  1  0  0  0  0
 12 13  1  0  0  0  0
 12 32  1  0  0  0  0
 13 14  1  0  0  0  0
 13 15  1  0  0  0  0
 13 17  1  0  0  0  0
 14 33  1  0  0  0  0
 14 34  1  0  0  0  0
 14 35  1  0  0  0  0
 15 16  3  0  0  0  0
 17 19  1  0  0  0  0
 17 18  1  0  0  0  0
 17 36  1  0  0  0  0
 18 19  1  0  0  0  0
 18 37  1  0  0  0  0
 18 38  1  0  0  0  0
 19 39  1  0  0  0  0
 19 40  1  0  0  0  0
 20 41  1  0  0  0  0
M  END
> <s_m_source_file>
AV-unprocessed.smi

> <i_m_source_file_index>
3329

> <i_lp_mmshare_version>
43012

> <i_f3d_flags>
0

> <s_epik_input>
W0NIM11jMVtjSF1ubihbY0hdMSlbQ0gyXVtDSDJdW05IXVtDSDJdQyg9TylbTkhdW0NAQF0oW0NIM10pKEMjTilbQ0hdMltDSDJdW0NIMl0y

> <s_epik_cmdline>
J2VwaWtfcHl0aG9uJywgJy1waCcsICc3LjAnLCAnLXRuJywgJzgnLCAnLW1hJywgJzIwMCcsICctbWV0YWxfYmluZGluZycsICctaW1hZScsICc8aW5maWxlLm1hZT4nLCAnLW9tYWUnLCAnPG91dGZpbGUubWFlPic=

> <r_lp_tautomer_probability>
1

> <r_epik_Ionization_Penalty>
0.481866

> <r_epik_Ionization_Penalty_Charging>
0

> <r_epik_Ionization_Penalty_Neutral>
0.481866

> <r_epik_State_Penalty>
0.48398

> <r_epik_Charging_Adjusted_Penalty>
0.48398

> <i_epik_Tot_Q>
0

> <i_epik_Tot_abs_Q>
0

> <r_epik_Metal_State_Penalty>
0.5042

> <b_epik_Metal_Only>
0

> <s_lp_Force_Field>
OPLS_2005

> <r_lp_Energy>
14.7625

> <b_lp_Chiralities_Consistent>
1

> <s_lp_Variant>
AV-unprocessed.smi:3329-4

> <Gold.Version>
5.8.1

> <Gold.Id.Protein>
6NUR|6NUR_protein|mol2

> <Gold.PLP.Fitness>
43.5755

> <Gold.PLP.PLP>
-34.4114

> <Gold.PLP.part.hbond>
-2.6038

> <Gold.PLP.part.metal>
0.0000

> <Gold.PLP.part.buried>
-1.3626

> <Gold.PLP.part.nonpolar>
-31.0844

> <Gold.PLP.part.repulsive>
0.2974

> <Gold.PLP.ligand.clash>
0.0000

> <Gold.PLP.ligand.torsion>
1.6514

> <Gold.PLP.Chemscore.Hbond>
2.0000

> <Gold.PLP.Chemscore.CHOScore>
1.6159

> <Gold.PLP.Chemscore.Metal>
0.0000

> <Gold.Chemscore.Hbonds>
donor molecule, donor type, donor heavy atom, donor atom, acceptor molecule, acceptor atom, score
      L1  H     8    29       P1 10175  1.00
      L1  H    12    32       P1  7948  1.00
      L1  C     3    24       P1 10186  0.97
      L1  C    20    41       P1  7948  0.64

> <Gold.PLP.Chemscore.Internal.Correction>
1.6191

> <Gold.Rescore>
     Score         DG    S(hbond)    S(metal)    S(lipo)     H(rot)  DE(clash)    DE(int)     intcor
     13.51     -16.03       2.00        0.00      83.71       2.31       0.90       1.61       ----

> <Gold.Chemscore.Fitness>
13.5142

> <Gold.Chemscore.DG>
-16.0256

> <Gold.Chemscore.ZeroCoef>
-5.4800

> <Gold.Chemscore.Hbond>
1.9980

> <Gold.Chemscore.Metal>
0.0000

> <Gold.Chemscore.Lipo>
83.7058

> <Gold.Chemscore.Internal_Hbond>
0.0000

> <Gold.Chemscore.DEClash>
0.8986

> <Gold.Chemscore.DEInternal>
1.6128

> <Gold.Chemscore.Rot>
2.3129

> <Gold.Chemscore.Internal.Correction>
   9.000000E+99

> <Gold.Chemscore.Hbonds>
donor molecule, donor type, donor heavy atom, donor atom, acceptor molecule, acceptor atom, score
      L1  H     8    29       P1 10175  1.00
      L1  H    12    32       P1  7948  1.00

> <Gold.Chemscore.Hbond.Weighted>
-6.6732

> <Gold.Chemscore.Metal.Weighted>
-0.0000

> <Gold.Chemscore.Lipo.Weighted>
-9.7936

> <Gold.Chemscore.Internal_Hbond.Weighted>
0.0000

> <Gold.Chemscore.DEClash.Weighted>
0.8986

> <Gold.Chemscore.DEInternal.Weighted>
1.6128

> <Gold.Chemscore.Rot.Weighted>
5.9211

> <Gold.Chemscore.Internal.Correction.Weighted>
   9.000000E+99

> <Gold.Protein.RotatedTorsions>
[ 6907 6896 6895 6894 ] final  -84.28 input  -60.11 | X-H torsion
[ 7974 7965 7964 7962 ] final  -56.83 input  175.53 | X-H torsion
[ 8008 7997 7996 7995 ] final  -43.72 input   59.86 | X-H torsion
[ 10167 10162 10161 10158 ] final   75.80 input  -65.29 | X-H torsion
[ 10718 10713 10712 10709 ] final    4.50 input   66.30 | X-H torsion
[ 10763 10752 10751 10750 ] final   34.37 input  -60.55 | X-H torsion
[ 11005 11000 10999 10996 ] final -117.11 input  -57.11 | X-H torsion

> <Gold.Protein.ActiveResidues>
 VAL166  LYS551  ARG553  GLY616  TRP617  ASP618  TYR619  PRO620  LYS621  CYS622 
 ASP623  PHE694  ASN695  SER759  ASP760  ASP761  ALA762  ILE779  LEU786  VAL792 
 PHE793  MET794  SER795  GLU796  ALA797  LYS798  CYS799  TRP800  GLU811  SER814 

> <Gold.Protein.RotatedAtoms>
  150.6878  134.3383  159.4856 H   0  0  0  0  0  0  0  0  0  0  0  0  # atno 6907 bound_to 6896
  152.1239  134.9182  160.0571 H   0  0  0  0  0  0  0  0  0  0  0  0  # atno 6908 bound_to 6896
  152.0377  133.3929  159.4361 H   0  0  0  0  0  0  0  0  0  0  0  0  # atno 6909 bound_to 6896
  145.8581  140.8305  142.9951 H   0  0  0  0  0  0  0  0  0  0  0  0  # atno 7974 bound_to 7965
  154.3997  140.1440  156.3566 H   0  0  0  0  0  0  0  0  0  0  0  0  # atno 8008 bound_to 7997
  155.8220  140.3469  155.5499 H   0  0  0  0  0  0  0  0  0  0  0  0  # atno 8009 bound_to 7997
  155.8278  140.0907  157.1801 H   0  0  0  0  0  0  0  0  0  0  0  0  # atno 8010 bound_to 7997
  139.9990  144.5700  150.7753 H   0  0  0  0  0  0  0  0  0  0  0  0  # atno 10167 bound_to 10162
  156.8936  130.5696  149.5649 H   0  0  0  0  0  0  0  0  0  0  0  0  # atno 10718 bound_to 10713
  153.0167  135.6362  154.1658 H   0  0  0  0  0  0  0  0  0  0  0  0  # atno 10763 bound_to 10752
  154.1397  135.2835  155.3166 H   0  0  0  0  0  0  0  0  0  0  0  0  # atno 10764 bound_to 10752
  154.6134  135.5549  153.7558 H   0  0  0  0  0  0  0  0  0  0  0  0  # atno 10765 bound_to 10752
  141.0377  133.9884  157.3044 H   0  0  0  0  0  0  0  0  0  0  0  0  # atno 11005 bound_to 11000
  144.6727  140.1054  143.7458 LP  0  0  0  0  0  0  0  0  0  0  0  0  # atno 17320 bound_to 7965
  145.9280  139.2588  143.1342 LP  0  0  0  0  0  0  0  0  0  0  0  0  # atno 17321 bound_to 7965
  140.7426  143.2834  151.3533 LP  0  0  0  0  0  0  0  0  0  0  0  0  # atno 17342 bound_to 10162
  139.6285  144.0767  152.2455 LP  0  0  0  0  0  0  0  0  0  0  0  0  # atno 17343 bound_to 10162
  156.0617  130.5668  150.9205 LP  0  0  0  0  0  0  0  0  0  0  0  0  # atno 17370 bound_to 10713
  157.6069  131.0938  150.8864 LP  0  0  0  0  0  0  0  0  0  0  0  0  # atno 17371 bound_to 10713
  139.9253  135.0201  156.8211 LP  0  0  0  0  0  0  0  0  0  0  0  0  # atno 17394 bound_to 11000
  140.6292  133.9922  155.7654 LP  0  0  0  0  0  0  0  0  0  0  0  0  # atno 17395 bound_to 11000

$$$$
