AV-unprocessed.smi:867|AV-procd|sdf|3995|dock7
  -GOLD-   22720 1473D 1   1.00000     0.00000
 Structure written by MMmdl.
 53 56  0  0  0  0  0  0  0  0  2 V2000
  151.2943  136.7746  159.2215 O   0  0  0  0  0  0  0  0  0  0  0  0
  150.5908  137.6230  158.6723 C   0  0  0  0  0  0  0  0  0  0  0  0
  149.2545  137.5055  158.5930 N   0  0  0  0  0  0  0  0  0  0  0  0
  148.4722  136.4085  159.1504 C   0  0  0  0  0  0  0  0  0  0  0  0
  148.5317  136.3979  160.6860 C   0  0  0  0  0  0  0  0  0  0  0  0
  147.3545  135.6629  161.2954 C   0  0  0  0  0  0  0  0  0  0  0  0
  147.5369  134.4372  161.9681 C   0  0  0  0  0  0  0  0  0  0  0  0
  146.4121  133.7893  162.5139 C   0  0  0  0  0  0  0  0  0  0  0  0
  145.1492  134.3961  162.3626 C   0  0  0  0  0  0  0  0  0  0  0  0
  144.9624  135.5686  161.7189 N   0  0  0  0  0  0  0  0  0  0  0  0
  146.0465  136.1835  161.1987 C   0  0  0  0  0  0  0  0  0  0  0  0
  151.0997  138.7054  158.0333 N   0  0  0  0  0  0  0  0  0  0  0  0
  150.3254  139.7267  157.3179 C   0  0  0  0  0  0  0  0  0  0  0  0
  150.2743  141.0172  158.1599 C   0  0  0  0  0  0  0  0  0  0  0  0
  151.6358  141.4996  158.5377 N   0  3  0  0  0  0  0  0  0  0  0  0
  151.6477  142.7252  159.3954 C   0  0  1  0  0  0  0  0  0  0  0  0
  152.9707  143.5220  159.2397 C   0  0  0  0  0  0  0  0  0  0  0  0
  152.5022  144.9417  158.8806 C   0  0  2  0  0  0  0  0  0  0  0  0
  151.8348  145.5886  160.1050 C   0  0  0  0  0  0  0  0  0  0  0  0
  150.5059  144.8201  160.2027 C   0  0  0  0  0  0  0  0  0  0  0  0
  150.5979  143.8155  159.0360 C   0  0  1  0  0  0  0  0  0  0  0  0
  151.3117  144.6485  157.9776 C   0  0  0  0  0  0  0  0  0  0  0  0
  152.4683  140.4090  159.1261 C   0  0  0  0  0  0  0  0  0  0  0  0
  152.4774  139.1534  158.2393 C   0  0  0  0  0  0  0  0  0  0  0  0
  148.7436  138.2224  158.0990 H   0  0  0  0  0  0  0  0  0  0  0  0
  147.4402  136.5283  158.8193 H   0  0  0  0  0  0  0  0  0  0  0  0
  148.8186  135.4557  158.7463 H   0  0  0  0  0  0  0  0  0  0  0  0
  149.4550  135.9275  161.0269 H   0  0  0  0  0  0  0  0  0  0  0  0
  148.5479  137.4200  161.0671 H   0  0  0  0  0  0  0  0  0  0  0  0
  148.5198  133.9994  162.0631 H   0  0  0  0  0  0  0  0  0  0  0  0
  146.5142  132.8491  163.0350 H   0  0  0  0  0  0  0  0  0  0  0  0
  144.2656  133.9263  162.7685 H   0  0  0  0  0  0  0  0  0  0  0  0
  145.8636  137.1174  160.6877 H   0  0  0  0  0  0  0  0  0  0  0  0
  150.8075  139.9281  156.3600 H   0  0  0  0  0  0  0  0  0  0  0  0
  149.3099  139.4166  157.0715 H   0  0  0  0  0  0  0  0  0  0  0  0
  149.7525  141.7638  157.5651 H   0  0  0  0  0  0  0  0  0  0  0  0
  149.6855  140.8506  159.0634 H   0  0  0  0  0  0  0  0  0  0  0  0
  151.5054  142.4109  160.4309 H   0  0  0  0  0  0  0  0  0  0  0  0
  153.5769  143.5010  160.1462 H   0  0  0  0  0  0  0  0  0  0  0  0
  153.5846  143.1382  158.4238 H   0  0  0  0  0  0  0  0  0  0  0  0
  153.2809  145.5583  158.4307 H   0  0  0  0  0  0  0  0  0  0  0  0
  152.4415  145.4917  161.0062 H   0  0  0  0  0  0  0  0  0  0  0  0
  151.6528  146.6505  159.9349 H   0  0  0  0  0  0  0  0  0  0  0  0
  150.3773  144.3297  161.1684 H   0  0  0  0  0  0  0  0  0  0  0  0
  149.6636  145.4990  160.0622 H   0  0  0  0  0  0  0  0  0  0  0  0
  149.6096  143.4615  158.7523 H   0  0  0  0  0  0  0  0  0  0  0  0
  150.7603  145.5443  157.6856 H   0  0  0  0  0  0  0  0  0  0  0  0
  151.5731  144.0811  157.0827 H   0  0  0  0  0  0  0  0  0  0  0  0
  153.4954  140.7415  159.2724 H   0  0  0  0  0  0  0  0  0  0  0  0
  152.0813  140.1535  160.1140 H   0  0  0  0  0  0  0  0  0  0  0  0
  153.1056  138.3817  158.6875 H   0  0  0  0  0  0  0  0  0  0  0  0
  152.9327  139.3787  157.2738 H   0  0  0  0  0  0  0  0  0  0  0  0
  152.0822  141.7581  157.6694 H   0  0  0  0  0  0  0  0  0  0  0  0
  1  2  2  0  0  0  0
  2  3  1  0  0  0  0
  2 12  1  0  0  0  0
  3  4  1  0  0  0  0
  3 25  1  0  0  0  0
  4  5  1  0  0  0  0
  4 26  1  0  0  0  0
  4 27  1  0  0  0  0
  5  6  1  0  0  0  0
  5 28  1  0  0  0  0
  5 29  1  0  0  0  0
  6 11  1  0  0  0  0
  6  7  2  0  0  0  0
  7  8  1  0  0  0  0
  7 30  1  0  0  0  0
  8  9  2  0  0  0  0
  8 31  1  0  0  0  0
  9 10  1  0  0  0  0
  9 32  1  0  0  0  0
 10 11  2  0  0  0  0
 11 33  1  0  0  0  0
 12 24  1  0  0  0  0
 12 13  1  0  0  0  0
 13 14  1  0  0  0  0
 13 34  1  0  0  0  0
 13 35  1  0  0  0  0
 14 15  1  0  0  0  0
 14 36  1  0  0  0  0
 14 37  1  0  0  0  0
 15 16  1  0  0  0  0
 15 23  1  0  0  0  0
 15 53  1  0  0  0  0
 16 21  1  0  0  0  0
 16 17  1  0  0  0  0
 16 38  1  0  0  0  0
 17 18  1  0  0  0  0
 17 39  1  0  0  0  0
 17 40  1  0  0  0  0
 18 22  1  0  0  0  0
 18 19  1  0  0  0  0
 18 41  1  0  0  0  0
 19 20  1  0  0  0  0
 19 42  1  0  0  0  0
 19 43  1  0  0  0  0
 20 21  1  0  0  0  0
 20 44  1  0  0  0  0
 20 45  1  0  0  0  0
 21 22  1  0  0  0  0
 21 46  1  0  0  0  0
 22 47  1  0  0  0  0
 22 48  1  0  0  0  0
 23 24  1  0  0  0  0
 23 49  1  0  0  0  0
 23 50  1  0  0  0  0
 24 51  1  0  0  0  0
 24 52  1  0  0  0  0
M  CHG  1  15   1
M  END
> <s_m_source_file>
AV-unprocessed.smi

> <i_m_source_file_index>
867

> <i_lp_mmshare_version>
43012

> <i_f3d_flags>
0

> <s_epik_input>
W0NIMl0xW0NIMl1bQ0BASF0oW0NIMl0yKVtDQEBIXShbQ0gyXVtDQEhdMTIpTihbQ0gyXVtDSDJdMylbQ0gyXVtDSDJdTjNDKD1PKVtOSF1bQ0gyXVtDSDJdYzRbY0hdW2NIXVtjSF1uW2NIXTQ=

> <s_epik_cmdline>
J2VwaWtfcHl0aG9uJywgJy1waCcsICc3LjAnLCAnLXRuJywgJzgnLCAnLW1hJywgJzIwMCcsICctbWV0YWxfYmluZGluZycsICctaW1hZScsICc8aW5maWxlLm1hZT4nLCAnLW9tYWUnLCAnPG91dGZpbGUubWFlPic=

> <r_epik_Ionization_Penalty>
0.0161279

> <r_epik_Ionization_Penalty_Charging>
0.00262064

> <r_epik_Ionization_Penalty_Neutral>
0.0135072

> <r_epik_State_Penalty>
0.0104914

> <r_epik_Charging_Adjusted_Penalty>
0.013112

> <i_epik_Tot_Q>
1

> <i_epik_Tot_abs_Q>
1

> <r_epik_Metal_State_Penalty>
0.0102536

> <b_epik_Metal_Only>
0

> <s_lp_Force_Field>
OPLS_2005

> <r_lp_Energy>
96.0256

> <b_lp_Chiralities_Consistent>
1

> <s_lp_Variant>
AV-unprocessed.smi:867-2

> <Gold.Version>
5.8.1

> <Gold.Id.Protein>
6NUR|6NUR_protein|mol2

> <Gold.PLP.Fitness>
52.0432

> <Gold.PLP.PLP>
-50.0579

> <Gold.PLP.part.hbond>
-1.0000

> <Gold.PLP.part.metal>
0.0000

> <Gold.PLP.part.buried>
-7.2190

> <Gold.PLP.part.nonpolar>
-42.2966

> <Gold.PLP.part.repulsive>
0.2590

> <Gold.PLP.ligand.clash>
0.0000

> <Gold.PLP.ligand.torsion>
0.5860

> <Gold.PLP.Chemscore.Hbond>
1.0000

> <Gold.PLP.Chemscore.CHOScore>
0.0000

> <Gold.PLP.Chemscore.Metal>
0.0000

> <Gold.Chemscore.Hbonds>
donor molecule, donor type, donor heavy atom, donor atom, acceptor molecule, acceptor atom, score
      P1  H  6896  6908       L1     1  1.00

> <Gold.PLP.Chemscore.Internal.Correction>
0.1574

> <Gold.Rescore>
     Score         DG    S(hbond)    S(metal)    S(lipo)     H(rot)  DE(clash)    DE(int)     intcor
     22.38     -22.92       0.99        0.00     150.76       1.37       0.14       0.40       ----

> <Gold.Chemscore.Fitness>
22.3781

> <Gold.Chemscore.DG>
-22.9157

> <Gold.Chemscore.ZeroCoef>
-5.4800

> <Gold.Chemscore.Hbond>
0.9915

> <Gold.Chemscore.Metal>
0.0000

> <Gold.Chemscore.Lipo>
150.7642

> <Gold.Chemscore.Internal_Hbond>
0.0000

> <Gold.Chemscore.DEClash>
0.1356

> <Gold.Chemscore.DEInternal>
0.4020

> <Gold.Chemscore.Rot>
1.3731

> <Gold.Chemscore.Internal.Correction>
   9.000000E+99

> <Gold.Chemscore.Hbonds>
donor molecule, donor type, donor heavy atom, donor atom, acceptor molecule, acceptor atom, score
      P1  H  6896  6908       L1     1  0.99

> <Gold.Chemscore.Hbond.Weighted>
-3.3115

> <Gold.Chemscore.Metal.Weighted>
-0.0000

> <Gold.Chemscore.Lipo.Weighted>
-17.6394

> <Gold.Chemscore.Internal_Hbond.Weighted>
0.0000

> <Gold.Chemscore.DEClash.Weighted>
0.1356

> <Gold.Chemscore.DEInternal.Weighted>
0.4020

> <Gold.Chemscore.Rot.Weighted>
3.5152

> <Gold.Chemscore.Internal.Correction.Weighted>
   9.000000E+99

> <Gold.Protein.RotatedTorsions>
[ 6907 6896 6895 6894 ] final -132.68 input  -60.11 | X-H torsion
[ 7974 7965 7964 7962 ] final   65.39 input  175.53 | X-H torsion
[ 8008 7997 7996 7995 ] final  -21.94 input   59.86 | X-H torsion
[ 10167 10162 10161 10158 ] final  123.75 input  -65.29 | X-H torsion
[ 10718 10713 10712 10709 ] final -156.58 input   66.30 | X-H torsion
[ 10763 10752 10751 10750 ] final  154.88 input  -60.55 | X-H torsion
[ 11005 11000 10999 10996 ] final  -35.81 input  -57.11 | X-H torsion

> <Gold.Protein.ActiveResidues>
 VAL166  LYS551  ARG553  GLY616  TRP617  ASP618  TYR619  PRO620  LYS621  CYS622 
 ASP623  PHE694  ASN695  SER759  ASP760  ASP761  ALA762  ILE779  LEU786  VAL792 
 PHE793  MET794  SER795  GLU796  ALA797  LYS798  CYS799  TRP800  GLU811  SER814 

> <Gold.Protein.RotatedAtoms>
  150.9652  133.6402  159.2747 H   0  0  0  0  0  0  0  0  0  0  0  0  # atno 6907 bound_to 6896
  151.3710  135.0921  159.9475 H   0  0  0  0  0  0  0  0  0  0  0  0  # atno 6908 bound_to 6896
  152.5163  133.9206  159.7587 H   0  0  0  0  0  0  0  0  0  0  0  0  # atno 6909 bound_to 6896
  145.8390  139.3184  143.0942 H   0  0  0  0  0  0  0  0  0  0  0  0  # atno 7974 bound_to 7965
  154.4674  140.2021  156.0082 H   0  0  0  0  0  0  0  0  0  0  0  0  # atno 8008 bound_to 7997
  156.0952  140.3252  155.7838 H   0  0  0  0  0  0  0  0  0  0  0  0  # atno 8009 bound_to 7997
  155.4891  140.0544  157.2947 H   0  0  0  0  0  0  0  0  0  0  0  0  # atno 8010 bound_to 7997
  139.5781  144.6973  151.3599 H   0  0  0  0  0  0  0  0  0  0  0  0  # atno 10167 bound_to 10162
  156.5285  130.8510  151.2708 H   0  0  0  0  0  0  0  0  0  0  0  0  # atno 10718 bound_to 10713
  154.1594  135.2810  155.3113 H   0  0  0  0  0  0  0  0  0  0  0  0  # atno 10763 bound_to 10752
  154.6158  135.5483  153.7525 H   0  0  0  0  0  0  0  0  0  0  0  0  # atno 10764 bound_to 10752
  153.0197  135.6427  154.1736 H   0  0  0  0  0  0  0  0  0  0  0  0  # atno 10765 bound_to 10752
  140.9826  133.7048  156.1709 H   0  0  0  0  0  0  0  0  0  0  0  0  # atno 11005 bound_to 11000
  145.9486  140.8926  143.0271 LP  0  0  0  0  0  0  0  0  0  0  0  0  # atno 17320 bound_to 7965
  144.6734  140.1648  143.7419 LP  0  0  0  0  0  0  0  0  0  0  0  0  # atno 17321 bound_to 7965
  140.7062  143.7507  150.7486 LP  0  0  0  0  0  0  0  0  0  0  0  0  # atno 17342 bound_to 10162
  140.1033  143.4768  152.2413 LP  0  0  0  0  0  0  0  0  0  0  0  0  # atno 17343 bound_to 10162
  157.7425  130.9893  150.2525 LP  0  0  0  0  0  0  0  0  0  0  0  0  # atno 17370 bound_to 10713
  156.3082  130.3768  149.7686 LP  0  0  0  0  0  0  0  0  0  0  0  0  # atno 17371 bound_to 10713
  140.7164  134.4406  157.5578 LP  0  0  0  0  0  0  0  0  0  0  0  0  # atno 17394 bound_to 11000
  139.8956  134.8678  156.2122 LP  0  0  0  0  0  0  0  0  0  0  0  0  # atno 17395 bound_to 11000

$$$$
