AV-unprocessed.smi:3330|AV-procd|sdf|12812|dock1
  -GOLD-   2272019183D 1   1.00000     0.00000
 Structure written by MMmdl.
 38 39  0  0  0  0  0  0  0  0  3 V2000
  147.1120  140.5975  153.2864 C   0  0  0  0  0  0  0  0  0  0  0  0
  147.2020  139.1022  152.9319 C   0  0  1  0  0  0  0  0  0  0  0  0
  148.6154  138.6644  152.9700 N   0  3  0  0  0  0  0  0  0  0  0  0
  149.2623  138.7003  154.2979 C   0  0  0  0  0  0  0  0  0  0  0  0
  150.5793  137.9013  154.3061 C   0  0  0  0  0  0  0  0  0  0  0  0
  151.4448  138.2537  155.4407 N   0  0  0  0  0  0  0  0  0  0  0  0
  152.0471  137.3675  156.2409 C   0  0  0  0  0  0  0  0  0  0  0  0
  152.0052  136.1392  156.1735 O   0  0  0  0  0  0  0  0  0  0  0  0
  152.8477  138.1423  157.2603 C   0  0  0  0  0  0  0  0  0  0  0  0
  152.6054  139.5107  156.8645 N   0  5  0  0  0  0  0  0  0  0  0  0
  151.7735  139.5098  155.7978 C   0  0  0  0  0  0  0  0  0  0  0  0
  151.3535  140.4939  155.1906 O   0  0  0  0  0  0  0  0  0  0  0  0
  146.3580  138.2050  153.8768 C   0  0  1  0  0  0  0  0  0  0  0  0
  145.6397  138.9952  154.9864 C   0  0  0  0  0  0  0  0  0  0  0  0
  145.3848  137.4136  153.1303 N   0  0  0  0  0  0  0  0  0  0  0  0
  145.6147  136.5397  152.0877 C   0  0  0  0  0  0  0  0  0  0  0  0
  144.4062  136.0324  151.7057 C   0  0  0  0  0  0  0  0  0  0  0  0
  143.4813  136.6619  152.5836 C   0  0  0  0  0  0  0  0  0  0  0  0
  144.0699  137.4810  153.4396 N   0  0  0  0  0  0  0  0  0  0  0  0
  146.0950  140.9750  153.1850 H   0  0  0  0  0  0  0  0  0  0  0  0
  147.7363  141.2006  152.6269 H   0  0  0  0  0  0  0  0  0  0  0  0
  147.4370  140.7831  154.3105 H   0  0  0  0  0  0  0  0  0  0  0  0
  146.8267  138.9681  151.9161 H   0  0  0  0  0  0  0  0  0  0  0  0
  148.6973  137.7402  152.5718 H   0  0  0  0  0  0  0  0  0  0  0  0
  149.4710  139.7374  154.5633 H   0  0  0  0  0  0  0  0  0  0  0  0
  148.5822  138.3097  155.0547 H   0  0  0  0  0  0  0  0  0  0  0  0
  150.3623  136.8324  154.3315 H   0  0  0  0  0  0  0  0  0  0  0  0
  151.1080  138.0678  153.3662 H   0  0  0  0  0  0  0  0  0  0  0  0
  152.4889  137.9149  158.2644 H   0  0  0  0  0  0  0  0  0  0  0  0
  153.8980  137.8553  157.2050 H   0  0  0  0  0  0  0  0  0  0  0  0
  147.0327  137.4975  154.3618 H   0  0  0  0  0  0  0  0  0  0  0  0
  146.3460  139.4706  155.6661 H   0  0  0  0  0  0  0  0  0  0  0  0
  145.0130  138.3369  155.5890 H   0  0  0  0  0  0  0  0  0  0  0  0
  144.9984  139.7736  154.5716 H   0  0  0  0  0  0  0  0  0  0  0  0
  146.6074  136.3560  151.7041 H   0  0  0  0  0  0  0  0  0  0  0  0
  144.2101  135.3251  150.9136 H   0  0  0  0  0  0  0  0  0  0  0  0
  142.4079  136.5489  152.6241 H   0  0  0  0  0  0  0  0  0  0  0  0
  149.1344  139.3079  152.3888 H   0  0  0  0  0  0  0  0  0  0  0  0
  1  2  1  0  0  0  0
  1 20  1  0  0  0  0
  1 21  1  0  0  0  0
  1 22  1  0  0  0  0
  2  3  1  0  0  0  0
  2 13  1  0  0  0  0
  2 23  1  0  0  0  0
  3  4  1  0  0  0  0
  3 24  1  0  0  0  0
  3 38  1  0  0  0  0
  4  5  1  0  0  0  0
  4 25  1  0  0  0  0
  4 26  1  0  0  0  0
  5  6  1  0  0  0  0
  5 27  1  0  0  0  0
  5 28  1  0  0  0  0
  6 11  1  0  0  0  0
  6  7  1  0  0  0  0
  7  8  2  0  0  0  0
  7  9  1  0  0  0  0
  9 10  1  0  0  0  0
  9 29  1  0  0  0  0
  9 30  1  0  0  0  0
 10 11  1  0  0  0  0
 11 12  2  0  0  0  0
 13 14  1  0  0  0  0
 13 15  1  0  0  0  0
 13 31  1  0  0  0  0
 14 32  1  0  0  0  0
 14 33  1  0  0  0  0
 14 34  1  0  0  0  0
 15 19  1  0  0  0  0
 15 16  1  0  0  0  0
 16 17  2  0  0  0  0
 16 35  1  0  0  0  0
 17 18  1  0  0  0  0
 17 36  1  0  0  0  0
 18 19  2  0  0  0  0
 18 37  1  0  0  0  0
M  CHG  1   3   1
M  CHG  1  10  -1
M  END
> <s_m_source_file>
AV-unprocessed.smi

> <i_m_source_file_index>
3330

> <i_lp_mmshare_version>
43012

> <i_f3d_flags>
0

> <s_epik_input>
bjFbY0hdW2NIXVtjSF1uMVtDQEBIXShbQ0gzXSlbQ0BIXShbQ0gzXSlbTkhdW0NIMl1bQ0gyXU4yQyg9TylbQ0gyXVtOSF1DMj1P

> <s_epik_cmdline>
J2VwaWtfcHl0aG9uJywgJy1waCcsICc3LjAnLCAnLXRuJywgJzgnLCAnLW1hJywgJzIwMCcsICctbWV0YWxfYmluZGluZycsICctaW1hZScsICc8aW5maWxlLm1hZT4nLCAnLW9tYWUnLCAnPG91dGZpbGUubWFlPic=

> <r_lp_tautomer_probability>
1

> <r_epik_Ionization_Penalty>
5.18149

> <r_epik_Ionization_Penalty_Charging>
5.18148

> <r_epik_Ionization_Penalty_Neutral>
9.83265e-06

> <r_epik_State_Penalty>
5.18201

> <r_epik_Charging_Adjusted_Penalty>
10.3635

> <i_epik_Tot_Q>
0

> <i_epik_Tot_abs_Q>
2

> <r_epik_Metal_State_Penalty>
1.25422

> <b_epik_Metal_Only>
1

> <s_lp_Force_Field>
OPLS_2005

> <r_lp_Energy>
19.5827

> <b_lp_Chiralities_Consistent>
1

> <s_lp_Variant>
AV-unprocessed.smi:3330-12

> <Gold.Version>
5.8.1

> <Gold.Id.Protein>
6NUR|6NUR_protein|mol2

> <Gold.PLP.Fitness>
49.9564

> <Gold.PLP.PLP>
-29.6871

> <Gold.PLP.part.hbond>
-4.8147

> <Gold.PLP.part.metal>
0.0000

> <Gold.PLP.part.buried>
-4.3862

> <Gold.PLP.part.nonpolar>
-21.9679

> <Gold.PLP.part.repulsive>
0.2880

> <Gold.PLP.ligand.clash>
0.0000

> <Gold.PLP.ligand.torsion>
1.7740

> <Gold.PLP.Chemscore.Hbond>
6.8545

> <Gold.PLP.Chemscore.CHOScore>
1.0000

> <Gold.PLP.Chemscore.Metal>
0.0000

> <Gold.Chemscore.Hbonds>
donor molecule, donor type, donor heavy atom, donor atom, acceptor molecule, acceptor atom, score
      L1  H     3    24       P1  7948  2.00
      L1  H     3    38       P1  7957  0.93
      P1  H  7989  7998       L1    12  0.91
      P1  H  7997  8008       L1    10  2.00
      P1  H 10752 10765       L1     8  1.00
      L1  C    16    35       P1  7948  1.00

> <Gold.PLP.Chemscore.Internal.Correction>
0.2537

> <Gold.Rescore>
     Score         DG    S(hbond)    S(metal)    S(lipo)     H(rot)  DE(clash)    DE(int)     intcor
     15.67     -18.54       4.19        0.00      48.69       2.59       0.00       2.87       ----

> <Gold.Chemscore.Fitness>
15.6676

> <Gold.Chemscore.DG>
-18.5358

> <Gold.Chemscore.ZeroCoef>
-5.4800

> <Gold.Chemscore.Hbond>
4.1885

> <Gold.Chemscore.Metal>
0.0000

> <Gold.Chemscore.Lipo>
48.6937

> <Gold.Chemscore.Internal_Hbond>
0.0000

> <Gold.Chemscore.DEClash>
0.0000

> <Gold.Chemscore.DEInternal>
2.8682

> <Gold.Chemscore.Rot>
2.5903

> <Gold.Chemscore.Internal.Correction>
   9.000000E+99

> <Gold.Chemscore.Hbonds>
donor molecule, donor type, donor heavy atom, donor atom, acceptor molecule, acceptor atom, score
      L1  H     3    24       P1  7948  1.00
      L1  H     3    38       P1  7957  0.88
      P1  H  7989  7998       L1    12  0.89
      P1  H  7997  8008       L1    10  0.24
      P1  H 10752 10765       L1     8  0.82

> <Gold.Chemscore.Hbond.Weighted>
-13.9897

> <Gold.Chemscore.Metal.Weighted>
-0.0000

> <Gold.Chemscore.Lipo.Weighted>
-5.6972

> <Gold.Chemscore.Internal_Hbond.Weighted>
0.0000

> <Gold.Chemscore.DEClash.Weighted>
0.0000

> <Gold.Chemscore.DEInternal.Weighted>
2.8682

> <Gold.Chemscore.Rot.Weighted>
6.6311

> <Gold.Chemscore.Internal.Correction.Weighted>
   9.000000E+99

> <Gold.Protein.RotatedTorsions>
[ 6907 6896 6895 6894 ] final  145.81 input  -60.11 | X-H torsion
[ 7974 7965 7964 7962 ] final  -57.20 input  175.53 | X-H torsion
[ 8008 7997 7996 7995 ] final  -57.13 input   59.86 | X-H torsion
[ 10167 10162 10161 10158 ] final  -83.10 input  -65.29 | X-H torsion
[ 10718 10713 10712 10709 ] final -140.89 input   66.30 | X-H torsion
[ 10763 10752 10751 10750 ] final -156.71 input  -60.55 | X-H torsion
[ 11005 11000 10999 10996 ] final  112.41 input  -57.11 | X-H torsion

> <Gold.Protein.ActiveResidues>
 VAL166  LYS551  ARG553  GLY616  TRP617  ASP618  TYR619  PRO620  LYS621  CYS622 
 ASP623  PHE694  ASN695  SER759  ASP760  ASP761  ALA762  ILE779  LEU786  VAL792 
 PHE793  MET794  SER795  GLU796  ALA797  LYS798  CYS799  TRP800  GLU811  SER814 

> <Gold.Protein.RotatedAtoms>
  152.1761  133.4675  159.4933 H   0  0  0  0  0  0  0  0  0  0  0  0  # atno 6907 bound_to 6896
  150.6927  134.1892  159.4288 H   0  0  0  0  0  0  0  0  0  0  0  0  # atno 6908 bound_to 6896
  151.9802  135.0032  160.0607 H   0  0  0  0  0  0  0  0  0  0  0  0  # atno 6909 bound_to 6896
  145.8539  140.8333  142.9972 H   0  0  0  0  0  0  0  0  0  0  0  0  # atno 7974 bound_to 7965
  154.4256  140.1114  156.5748 H   0  0  0  0  0  0  0  0  0  0  0  0  # atno 8008 bound_to 7997
  155.6174  140.3495  155.4622 H   0  0  0  0  0  0  0  0  0  0  0  0  # atno 8009 bound_to 7997
  156.0051  140.1207  157.0498 H   0  0  0  0  0  0  0  0  0  0  0  0  # atno 8010 bound_to 7997
  140.4258  143.2567  151.8827 H   0  0  0  0  0  0  0  0  0  0  0  0  # atno 10167 bound_to 10162
  156.3275  130.7568  151.1679 H   0  0  0  0  0  0  0  0  0  0  0  0  # atno 10718 bound_to 10713
  154.7692  135.3140  154.8225 H   0  0  0  0  0  0  0  0  0  0  0  0  # atno 10763 bound_to 10752
  153.8965  135.6820  153.4762 H   0  0  0  0  0  0  0  0  0  0  0  0  # atno 10764 bound_to 10752
  153.1302  135.4783  154.9271 H   0  0  0  0  0  0  0  0  0  0  0  0  # atno 10765 bound_to 10752
  139.8927  134.9529  156.6581 H   0  0  0  0  0  0  0  0  0  0  0  0  # atno 11005 bound_to 11000
  144.6728  140.0994  143.7461 LP  0  0  0  0  0  0  0  0  0  0  0  0  # atno 17320 bound_to 7965
  145.9326  139.2616  143.1316 LP  0  0  0  0  0  0  0  0  0  0  0  0  # atno 17321 bound_to 7965
  139.4783  144.5388  151.8559 LP  0  0  0  0  0  0  0  0  0  0  0  0  # atno 17342 bound_to 10162
  140.4483  144.1891  150.5895 LP  0  0  0  0  0  0  0  0  0  0  0  0  # atno 17343 bound_to 10162
  157.7424  131.0490  150.5026 LP  0  0  0  0  0  0  0  0  0  0  0  0  # atno 17370 bound_to 10713
  156.5187  130.4156  149.6262 LP  0  0  0  0  0  0  0  0  0  0  0  0  # atno 17371 bound_to 10713
  140.7468  133.8931  155.8318 LP  0  0  0  0  0  0  0  0  0  0  0  0  # atno 17394 bound_to 11000
  141.0033  134.1120  157.4295 LP  0  0  0  0  0  0  0  0  0  0  0  0  # atno 17395 bound_to 11000

$$$$
