AV-unprocessed.smi:3028|AV-procd|sdf|11517|dock8
  -GOLD-   2272016453D 1   1.00000     0.00000
 Structure written by MMmdl.
 48 49  0  0  0  0  0  0  0  0  2 V2000
  150.6767  142.6493  158.4578 C   0  0  0  0  0  0  0  0  0  0  0  0
  150.5348  141.8499  157.1948 C   0  0  0  0  0  0  0  0  0  0  0  0
  151.5071  141.0175  156.5716 C   0  0  0  0  0  0  0  0  0  0  0  0
  151.0617  140.4481  155.4638 N   0  0  0  0  0  0  0  0  0  0  0  0
  149.7946  140.8966  155.3356 N   0  0  0  0  0  0  0  0  0  0  0  0
  148.9848  140.4614  154.2047 C   0  0  2  0  0  0  0  0  0  0  0  0
  147.7032  141.3111  154.1287 C   0  0  0  0  0  0  0  0  0  0  0  0
  148.7057  138.9350  154.2486 C   0  0  2  0  0  0  0  0  0  0  0  0
  149.9645  138.0987  154.5421 C   0  0  0  0  0  0  0  0  0  0  0  0
  148.1208  138.4784  152.9680 N   0  3  0  0  0  0  0  0  0  0  0  0
  146.6502  138.6029  152.8715 C   0  0  0  0  0  0  0  0  0  0  0  0
  145.9379  137.2550  153.0435 C   0  0  0  0  0  0  0  0  0  0  0  0
  145.0224  137.1432  153.8573 O   0  0  0  0  0  0  0  0  0  0  0  0
  146.3265  136.2049  152.3005 N   0  0  0  0  0  0  0  0  0  0  0  0
  145.7893  134.8446  152.3051 C   0  0  0  0  0  0  0  0  0  0  0  0
  146.9344  133.8309  152.4523 C   0  0  0  0  0  0  0  0  0  0  0  0
  146.4163  132.3944  152.2751 C   0  0  0  0  0  0  0  0  0  0  0  0
  145.7611  132.2635  151.0183 O   0  0  0  0  0  0  0  0  0  0  0  0
  144.6162  133.1009  150.8988 C   0  0  0  0  0  0  0  0  0  0  0  0
  145.0337  134.5774  150.9944 C   0  0  0  0  0  0  0  0  0  0  0  0
  149.4516  141.7451  156.3694 C   0  0  0  0  0  0  0  0  0  0  0  0
  151.6378  142.4748  158.9420 H   0  0  0  0  0  0  0  0  0  0  0  0
  149.9021  142.3978  159.1825 H   0  0  0  0  0  0  0  0  0  0  0  0
  150.6034  143.7199  158.2661 H   0  0  0  0  0  0  0  0  0  0  0  0
  152.5181  140.8103  156.8909 H   0  0  0  0  0  0  0  0  0  0  0  0
  149.5602  140.6658  153.2993 H   0  0  0  0  0  0  0  0  0  0  0  0
  147.1468  141.1153  153.2123 H   0  0  0  0  0  0  0  0  0  0  0  0
  147.9405  142.3756  154.1362 H   0  0  0  0  0  0  0  0  0  0  0  0
  147.0400  141.1133  154.9713 H   0  0  0  0  0  0  0  0  0  0  0  0
  147.9978  138.7341  155.0547 H   0  0  0  0  0  0  0  0  0  0  0  0
  150.3763  138.3151  155.5281 H   0  0  0  0  0  0  0  0  0  0  0  0
  150.7469  138.2885  153.8065 H   0  0  0  0  0  0  0  0  0  0  0  0
  149.7391  137.0321  154.5196 H   0  0  0  0  0  0  0  0  0  0  0  0
  148.5422  139.0035  152.2150 H   0  0  0  0  0  0  0  0  0  0  0  0
  146.3041  139.2940  153.6412 H   0  0  0  0  0  0  0  0  0  0  0  0
  146.3854  139.0230  151.9008 H   0  0  0  0  0  0  0  0  0  0  0  0
  147.0892  136.3676  151.6582 H   0  0  0  0  0  0  0  0  0  0  0  0
  145.0922  134.6877  153.1278 H   0  0  0  0  0  0  0  0  0  0  0  0
  147.7033  134.0269  151.7034 H   0  0  0  0  0  0  0  0  0  0  0  0
  147.4129  133.9386  153.4264 H   0  0  0  0  0  0  0  0  0  0  0  0
  147.2473  131.6898  152.3136 H   0  0  0  0  0  0  0  0  0  0  0  0
  145.7337  132.1250  153.0825 H   0  0  0  0  0  0  0  0  0  0  0  0
  144.1378  132.9084  149.9383 H   0  0  0  0  0  0  0  0  0  0  0  0
  143.8877  132.8514  151.6719 H   0  0  0  0  0  0  0  0  0  0  0  0
  144.1549  135.2197  150.9261 H   0  0  0  0  0  0  0  0  0  0  0  0
  145.6679  134.8236  150.1413 H   0  0  0  0  0  0  0  0  0  0  0  0
  148.4736  142.1993  156.4332 H   0  0  0  0  0  0  0  0  0  0  0  0
  148.3540  137.5038  152.8412 H   0  0  0  0  0  0  0  0  0  0  0  0
  1  2  1  0  0  0  0
  1 22  1  0  0  0  0
  1 23  1  0  0  0  0
  1 24  1  0  0  0  0
  2 21  2  0  0  0  0
  2  3  1  0  0  0  0
  3  4  2  0  0  0  0
  3 25  1  0  0  0  0
  4  5  1  0  0  0  0
  5  6  1  0  0  0  0
  5 21  1  0  0  0  0
  6  7  1  0  0  0  0
  6  8  1  0  0  0  0
  6 26  1  0  0  0  0
  7 27  1  0  0  0  0
  7 28  1  0  0  0  0
  7 29  1  0  0  0  0
  8  9  1  0  0  0  0
  8 10  1  0  0  0  0
  8 30  1  0  0  0  0
  9 31  1  0  0  0  0
  9 32  1  0  0  0  0
  9 33  1  0  0  0  0
 10 11  1  0  0  0  0
 10 34  1  0  0  0  0
 10 48  1  0  0  0  0
 11 12  1  0  0  0  0
 11 35  1  0  0  0  0
 11 36  1  0  0  0  0
 12 13  2  0  0  0  0
 12 14  1  0  0  0  0
 14 15  1  0  0  0  0
 14 37  1  0  0  0  0
 15 20  1  0  0  0  0
 15 16  1  0  0  0  0
 15 38  1  0  0  0  0
 16 17  1  0  0  0  0
 16 39  1  0  0  0  0
 16 40  1  0  0  0  0
 17 18  1  0  0  0  0
 17 41  1  0  0  0  0
 17 42  1  0  0  0  0
 18 19  1  0  0  0  0
 19 20  1  0  0  0  0
 19 43  1  0  0  0  0
 19 44  1  0  0  0  0
 20 45  1  0  0  0  0
 20 46  1  0  0  0  0
 21 47  1  0  0  0  0
M  CHG  1  10   1
M  END
> <s_m_source_file>
AV-unprocessed.smi

> <i_m_source_file_index>
3028

> <i_lp_mmshare_version>
43012

> <i_f3d_flags>
0

> <s_epik_input>
W0NIM11jMVtjSF1ubihbY0hdMSlbQ0BIXShbQ0gzXSlbQ0BIXShbQ0gzXSlbTkhdW0NIMl1DKD1PKVtOSF1bQ0hdMltDSDJdW0NIMl1PW0NIMl1bQ0gyXTI=

> <s_epik_cmdline>
J2VwaWtfcHl0aG9uJywgJy1waCcsICc3LjAnLCAnLXRuJywgJzgnLCAnLW1hJywgJzIwMCcsICctbWV0YWxfYmluZGluZycsICctaW1hZScsICc8aW5maWxlLm1hZT4nLCAnLW9tYWUnLCAnPG91dGZpbGUubWFlPic=

> <r_lp_tautomer_probability>
1

> <r_epik_Ionization_Penalty>
0.151514

> <r_epik_Ionization_Penalty_Charging>
0.151494

> <r_epik_Ionization_Penalty_Neutral>
1.95502e-05

> <r_epik_State_Penalty>
0.141395

> <r_epik_Charging_Adjusted_Penalty>
0.292889

> <i_epik_Tot_Q>
1

> <i_epik_Tot_abs_Q>
1

> <r_epik_Metal_State_Penalty>
0.141632

> <b_epik_Metal_Only>
0

> <s_lp_Force_Field>
OPLS_2005

> <r_lp_Energy>
18.1204

> <b_lp_Chiralities_Consistent>
1

> <s_lp_Variant>
AV-unprocessed.smi:3028-1

> <Gold.Version>
5.8.1

> <Gold.Id.Protein>
6NUR|6NUR_protein|mol2

> <Gold.PLP.Fitness>
50.3439

> <Gold.PLP.PLP>
-38.3046

> <Gold.PLP.part.hbond>
-4.0000

> <Gold.PLP.part.metal>
0.0000

> <Gold.PLP.part.buried>
-2.0899

> <Gold.PLP.part.nonpolar>
-32.5986

> <Gold.PLP.part.repulsive>
0.4190

> <Gold.PLP.ligand.clash>
0.0000

> <Gold.PLP.ligand.torsion>
1.0666

> <Gold.PLP.Chemscore.Hbond>
4.1575

> <Gold.PLP.Chemscore.CHOScore>
0.5278

> <Gold.PLP.Chemscore.Metal>
0.0000

> <Gold.Chemscore.Hbonds>
donor molecule, donor type, donor heavy atom, donor atom, acceptor molecule, acceptor atom, score
      L1  H    10    34       P1  7957  1.00
      L1  H    10    48       P1  7948  1.95
      L1  H    14    37       P1  7948  0.67
      P1  H  7989  7998       L1     4  0.66
      L1  C    21    47       P1  8028  0.33

> <Gold.PLP.Chemscore.Internal.Correction>
0.1164

> <Gold.Rescore>
     Score         DG    S(hbond)    S(metal)    S(lipo)     H(rot)  DE(clash)    DE(int)     intcor
     18.71     -21.88       3.64        0.00      79.89       1.99       0.55       2.62       ----

> <Gold.Chemscore.Fitness>
18.7069

> <Gold.Chemscore.DG>
-21.8835

> <Gold.Chemscore.ZeroCoef>
-5.4800

> <Gold.Chemscore.Hbond>
3.6376

> <Gold.Chemscore.Metal>
0.0000

> <Gold.Chemscore.Lipo>
79.8930

> <Gold.Chemscore.Internal_Hbond>
0.0000

> <Gold.Chemscore.DEClash>
0.5523

> <Gold.Chemscore.DEInternal>
2.6243

> <Gold.Chemscore.Rot>
1.9897

> <Gold.Chemscore.Internal.Correction>
   9.000000E+99

> <Gold.Chemscore.Hbonds>
donor molecule, donor type, donor heavy atom, donor atom, acceptor molecule, acceptor atom, score
      L1  H    10    34       P1  7957  0.99
      L1  H    10    48       P1  7948  0.93
      L1  H    14    37       P1  7948  0.66
      P1  H  7989  7998       L1     4  0.09

> <Gold.Chemscore.Hbond.Weighted>
-12.1496

> <Gold.Chemscore.Metal.Weighted>
-0.0000

> <Gold.Chemscore.Lipo.Weighted>
-9.3475

> <Gold.Chemscore.Internal_Hbond.Weighted>
0.0000

> <Gold.Chemscore.DEClash.Weighted>
0.5523

> <Gold.Chemscore.DEInternal.Weighted>
2.6243

> <Gold.Chemscore.Rot.Weighted>
5.0936

> <Gold.Chemscore.Internal.Correction.Weighted>
   9.000000E+99

> <Gold.Protein.RotatedTorsions>
[ 6907 6896 6895 6894 ] final  139.63 input  -60.11 | X-H torsion
[ 7974 7965 7964 7962 ] final  105.91 input  175.53 | X-H torsion
[ 8008 7997 7996 7995 ] final   65.00 input   59.86 | X-H torsion
[ 10167 10162 10161 10158 ] final  130.51 input  -65.29 | X-H torsion
[ 10718 10713 10712 10709 ] final -165.65 input   66.30 | X-H torsion
[ 10763 10752 10751 10750 ] final  133.41 input  -60.55 | X-H torsion
[ 11005 11000 10999 10996 ] final  -83.93 input  -57.11 | X-H torsion

> <Gold.Protein.ActiveResidues>
 VAL166  LYS551  ARG553  GLY616  TRP617  ASP618  TYR619  PRO620  LYS621  CYS622 
 ASP623  PHE694  ASN695  SER759  ASP760  ASP761  ALA762  ILE779  LEU786  VAL792 
 PHE793  MET794  SER795  GLU796  ALA797  LYS798  CYS799  TRP800  GLU811  SER814 

> <Gold.Protein.RotatedAtoms>
  152.2526  133.5228  159.5334 H   0  0  0  0  0  0  0  0  0  0  0  0  # atno 6907 bound_to 6896
  150.7098  134.0939  159.3950 H   0  0  0  0  0  0  0  0  0  0  0  0  # atno 6908 bound_to 6896
  151.8858  135.0436  160.0544 H   0  0  0  0  0  0  0  0  0  0  0  0  # atno 6909 bound_to 6896
  145.3135  139.2533  143.3750 H   0  0  0  0  0  0  0  0  0  0  0  0  # atno 7974 bound_to 7965
  155.6549  140.3497  155.4761 H   0  0  0  0  0  0  0  0  0  0  0  0  # atno 8008 bound_to 7997
  155.9817  140.1176  157.0744 H   0  0  0  0  0  0  0  0  0  0  0  0  # atno 8009 bound_to 7997
  154.4193  140.1137  156.5430 H   0  0  0  0  0  0  0  0  0  0  0  0  # atno 8010 bound_to 7997
  139.5426  144.6745  151.4574 H   0  0  0  0  0  0  0  0  0  0  0  0  # atno 10167 bound_to 10162
  156.6565  130.9028  151.3022 H   0  0  0  0  0  0  0  0  0  0  0  0  # atno 10718 bound_to 10713
  153.8067  135.3134  155.3396 H   0  0  0  0  0  0  0  0  0  0  0  0  # atno 10763 bound_to 10752
  154.8068  135.4693  154.0415 H   0  0  0  0  0  0  0  0  0  0  0  0  # atno 10764 bound_to 10752
  153.1780  135.6889  153.8605 H   0  0  0  0  0  0  0  0  0  0  0  0  # atno 10765 bound_to 10752
  141.1654  133.7320  156.8793 H   0  0  0  0  0  0  0  0  0  0  0  0  # atno 11005 bound_to 11000
  146.3109  140.3677  142.8671 LP  0  0  0  0  0  0  0  0  0  0  0  0  # atno 17320 bound_to 7965
  144.8996  140.7626  143.5875 LP  0  0  0  0  0  0  0  0  0  0  0  0  # atno 17321 bound_to 7965
  140.6663  143.8392  150.6945 LP  0  0  0  0  0  0  0  0  0  0  0  0  # atno 17342 bound_to 10162
  140.1802  143.4121  152.1938 LP  0  0  0  0  0  0  0  0  0  0  0  0  # atno 17343 bound_to 10162
  157.7124  130.9456  150.1135 LP  0  0  0  0  0  0  0  0  0  0  0  0  # atno 17370 bound_to 10713
  156.2044  130.3662  149.8748 LP  0  0  0  0  0  0  0  0  0  0  0  0  # atno 17371 bound_to 10713
  140.1726  134.9089  157.2852 LP  0  0  0  0  0  0  0  0  0  0  0  0  # atno 17394 bound_to 11000
  140.2485  134.3711  155.7451 LP  0  0  0  0  0  0  0  0  0  0  0  0  # atno 17395 bound_to 11000

$$$$
