AV-unprocessed.smi:2009|AV-procd|sdf|8145|dock1
  -GOLD-   2272010383D 1   1.00000     0.00000
 Structure written by MMmdl.
 38 39  0  0  0  0  0  0  0  0  1 V2000
  153.2600  137.8852  156.3049 C   0  0  0  0  0  0  0  0  0  0  0  0
  151.9243  138.6308  156.1620 C   0  0  2  0  0  0  0  0  0  0  0  0
  151.4160  138.7074  154.7042 C   0  0  0  0  0  0  0  0  0  0  0  0
  150.2205  139.5199  154.5451 N   0  0  0  0  0  0  0  0  0  0  0  0
  148.9896  139.1410  154.0511 C   0  0  0  0  0  0  0  0  0  0  0  0
  148.1792  140.2390  154.0908 C   0  0  0  0  0  0  0  0  0  0  0  0
  149.0166  141.2569  154.6267 C   0  0  0  0  0  0  0  0  0  0  0  0
  150.2383  140.8248  154.8950 N   0  0  0  0  0  0  0  0  0  0  0  0
  152.0616  139.9704  156.7416 N   0  0  0  0  0  0  0  0  0  0  0  0
  152.3702  140.1632  158.4280 S   0  0  0  0  0  0  0  0  0  0  0  0
  151.2313  139.6244  159.1871 O   0  0  0  0  0  0  0  0  0  0  0  0
  153.7414  139.7014  158.6927 O   0  0  0  0  0  0  0  0  0  0  0  0
  152.3259  141.8922  158.5258 N   0  0  0  0  0  0  0  0  0  0  0  0
  152.5186  142.4856  159.8640 C   0  0  0  0  0  0  0  0  0  0  0  0
  152.8232  143.9904  159.7773 C   0  0  0  0  0  0  0  0  0  0  0  0
  151.7433  144.7310  158.9843 C   0  0  0  0  0  0  0  0  0  0  0  0
  151.6135  144.0963  157.5971 C   0  0  0  0  0  0  0  0  0  0  0  0
  151.3180  142.5909  157.6987 C   0  0  0  0  0  0  0  0  0  0  0  0
  153.1969  136.8861  155.8733 H   0  0  0  0  0  0  0  0  0  0  0  0
  153.5353  137.7734  157.3540 H   0  0  0  0  0  0  0  0  0  0  0  0
  154.0734  138.4128  155.8059 H   0  0  0  0  0  0  0  0  0  0  0  0
  151.1825  138.0875  156.7486 H   0  0  0  0  0  0  0  0  0  0  0  0
  152.1998  139.1155  154.0642 H   0  0  0  0  0  0  0  0  0  0  0  0
  151.2068  137.7112  154.3149 H   0  0  0  0  0  0  0  0  0  0  0  0
  148.7958  138.1313  153.7194 H   0  0  0  0  0  0  0  0  0  0  0  0
  147.1464  140.3057  153.7829 H   0  0  0  0  0  0  0  0  0  0  0  0
  148.7751  142.2904  154.8264 H   0  0  0  0  0  0  0  0  0  0  0  0
  152.6116  140.6079  156.1663 H   0  0  0  0  0  0  0  0  0  0  0  0
  151.6216  142.3125  160.4601 H   0  0  0  0  0  0  0  0  0  0  0  0
  153.3394  141.9815  160.3743 H   0  0  0  0  0  0  0  0  0  0  0  0
  152.9028  144.4112  160.7801 H   0  0  0  0  0  0  0  0  0  0  0  0
  153.7938  144.1392  159.3022 H   0  0  0  0  0  0  0  0  0  0  0  0
  150.7895  144.6772  159.5106 H   0  0  0  0  0  0  0  0  0  0  0  0
  151.9969  145.7876  158.8951 H   0  0  0  0  0  0  0  0  0  0  0  0
  150.8224  144.5921  157.0338 H   0  0  0  0  0  0  0  0  0  0  0  0
  152.5357  144.2499  157.0352 H   0  0  0  0  0  0  0  0  0  0  0  0
  151.2920  142.1619  156.6974 H   0  0  0  0  0  0  0  0  0  0  0  0
  150.3308  142.4286  158.1334 H   0  0  0  0  0  0  0  0  0  0  0  0
  1  2  1  0  0  0  0
  1 19  1  0  0  0  0
  1 20  1  0  0  0  0
  1 21  1  0  0  0  0
  2  3  1  0  0  0  0
  2  9  1  0  0  0  0
  2 22  1  0  0  0  0
  3  4  1  0  0  0  0
  3 23  1  0  0  0  0
  3 24  1  0  0  0  0
  4  8  1  0  0  0  0
  4  5  1  0  0  0  0
  5  6  2  0  0  0  0
  5 25  1  0  0  0  0
  6  7  1  0  0  0  0
  6 26  1  0  0  0  0
  7  8  2  0  0  0  0
  7 27  1  0  0  0  0
  9 10  1  0  0  0  0
  9 28  1  0  0  0  0
 10 11  2  0  0  0  0
 10 12  2  0  0  0  0
 10 13  1  0  0  0  0
 13 18  1  0  0  0  0
 13 14  1  0  0  0  0
 14 15  1  0  0  0  0
 14 29  1  0  0  0  0
 14 30  1  0  0  0  0
 15 16  1  0  0  0  0
 15 31  1  0  0  0  0
 15 32  1  0  0  0  0
 16 17  1  0  0  0  0
 16 33  1  0  0  0  0
 16 34  1  0  0  0  0
 17 18  1  0  0  0  0
 17 35  1  0  0  0  0
 17 36  1  0  0  0  0
 18 37  1  0  0  0  0
 18 38  1  0  0  0  0
M  END
> <s_m_source_file>
AV-unprocessed.smi

> <i_m_source_file_index>
2009

> <i_lp_mmshare_version>
43012

> <i_f3d_flags>
0

> <s_epik_input>
bjFbY0hdW2NIXVtjSF1uMVtDSDJdW0NAQEhdKFtDSDNdKVtOSF1TKD1PKSg9TylOMltDSDJdW0NIMl1bQ0gyXVtDSDJdW0NIMl0y

> <s_epik_cmdline>
J2VwaWtfcHl0aG9uJywgJy1waCcsICc3LjAnLCAnLXRuJywgJzgnLCAnLW1hJywgJzIwMCcsICctbWV0YWxfYmluZGluZycsICctaW1hZScsICc8aW5maWxlLm1hZT4nLCAnLW9tYWUnLCAnPG91dGZpbGUubWFlPic=

> <r_lp_tautomer_probability>
1

> <r_epik_Ionization_Penalty>
0.0313937

> <r_epik_Ionization_Penalty_Charging>
0

> <r_epik_Ionization_Penalty_Neutral>
0.0313937

> <r_epik_State_Penalty>
0.0259441

> <r_epik_Charging_Adjusted_Penalty>
0.0259441

> <i_epik_Tot_Q>
0

> <i_epik_Tot_abs_Q>
0

> <r_epik_Metal_State_Penalty>
0.365037

> <b_epik_Metal_Only>
0

> <s_lp_Force_Field>
OPLS_2005

> <r_lp_Energy>
7.7354

> <b_lp_Chiralities_Consistent>
1

> <s_lp_Variant>
AV-unprocessed.smi:2009-1

> <Gold.Version>
5.8.1

> <Gold.Id.Protein>
6NUR|6NUR_protein|mol2

> <Gold.PLP.Fitness>
46.0479

> <Gold.PLP.PLP>
-37.9961

> <Gold.PLP.part.hbond>
-2.3061

> <Gold.PLP.part.metal>
0.0000

> <Gold.PLP.part.buried>
-2.0362

> <Gold.PLP.part.nonpolar>
-34.1897

> <Gold.PLP.part.repulsive>
0.1021

> <Gold.PLP.ligand.clash>
0.0000

> <Gold.PLP.ligand.torsion>
0.6033

> <Gold.PLP.Chemscore.Hbond>
1.0784

> <Gold.PLP.Chemscore.CHOScore>
1.7168

> <Gold.PLP.Chemscore.Metal>
0.0000

> <Gold.Chemscore.Hbonds>
donor molecule, donor type, donor heavy atom, donor atom, acceptor molecule, acceptor atom, score
      P1  H  7989  7998       L1     8  0.08
      P1  H  7997  8009       L1    12  1.00
      L1  C     5    25       P1  7948  0.72
      L1  C     7    27       P1  8028  0.94

> <Gold.PLP.Chemscore.Internal.Correction>
0.8727

> <Gold.Rescore>
     Score         DG    S(hbond)    S(metal)    S(lipo)     H(rot)  DE(clash)    DE(int)     intcor
     15.02     -15.63       0.94        0.00      99.87       1.82       0.06       0.56       ----

> <Gold.Chemscore.Fitness>
15.0152

> <Gold.Chemscore.DG>
-15.6348

> <Gold.Chemscore.ZeroCoef>
-5.4800

> <Gold.Chemscore.Hbond>
0.9397

> <Gold.Chemscore.Metal>
0.0000

> <Gold.Chemscore.Lipo>
99.8709

> <Gold.Chemscore.Internal_Hbond>
0.0000

> <Gold.Chemscore.DEClash>
0.0595

> <Gold.Chemscore.DEInternal>
0.5601

> <Gold.Chemscore.Rot>
1.8237

> <Gold.Chemscore.Internal.Correction>
   9.000000E+99

> <Gold.Chemscore.Hbonds>
donor molecule, donor type, donor heavy atom, donor atom, acceptor molecule, acceptor atom, score
      P1  H  7997  8009       L1    12  0.87

> <Gold.Chemscore.Hbond.Weighted>
-3.1385

> <Gold.Chemscore.Metal.Weighted>
-0.0000

> <Gold.Chemscore.Lipo.Weighted>
-11.6849

> <Gold.Chemscore.Internal_Hbond.Weighted>
0.0000

> <Gold.Chemscore.DEClash.Weighted>
0.0595

> <Gold.Chemscore.DEInternal.Weighted>
0.5601

> <Gold.Chemscore.Rot.Weighted>
4.6686

> <Gold.Chemscore.Internal.Correction.Weighted>
   9.000000E+99

> <Gold.Protein.RotatedTorsions>
[ 6907 6896 6895 6894 ] final -150.23 input  -60.11 | X-H torsion
[ 7974 7965 7964 7962 ] final -121.30 input  175.53 | X-H torsion
[ 8008 7997 7996 7995 ] final  129.55 input   59.86 | X-H torsion
[ 10167 10162 10161 10158 ] final   68.13 input  -65.29 | X-H torsion
[ 10718 10713 10712 10709 ] final  -84.35 input   66.30 | X-H torsion
[ 10763 10752 10751 10750 ] final  -43.08 input  -60.55 | X-H torsion
[ 11005 11000 10999 10996 ] final   61.98 input  -57.11 | X-H torsion

> <Gold.Protein.ActiveResidues>
 VAL166  LYS551  ARG553  GLY616  TRP617  ASP618  TYR619  PRO620  LYS621  CYS622 
 ASP623  PHE694  ASN695  SER759  ASP760  ASP761  ALA762  ILE779  LEU786  VAL792 
 PHE793  MET794  SER795  GLU796  ALA797  LYS798  CYS799  TRP800  GLU811  SER814 

> <Gold.Protein.RotatedAtoms>
  151.1955  133.4641  159.2595 H   0  0  0  0  0  0  0  0  0  0  0  0  # atno 6907 bound_to 6896
  151.1121  135.0032  159.8509 H   0  0  0  0  0  0  0  0  0  0  0  0  # atno 6908 bound_to 6896
  152.5451  134.1874  159.8713 H   0  0  0  0  0  0  0  0  0  0  0  0  # atno 6909 bound_to 6896
  145.0419  140.8151  143.4261 H   0  0  0  0  0  0  0  0  0  0  0  0  # atno 7974 bound_to 7965
  156.2938  140.2617  156.2618 H   0  0  0  0  0  0  0  0  0  0  0  0  # atno 8008 bound_to 7997
  154.9781  140.0390  157.2284 H   0  0  0  0  0  0  0  0  0  0  0  0  # atno 8009 bound_to 7997
  154.7796  140.2793  155.6078 H   0  0  0  0  0  0  0  0  0  0  0  0  # atno 8010 bound_to 7997
  140.0820  144.5063  150.7156 H   0  0  0  0  0  0  0  0  0  0  0  0  # atno 10167 bound_to 10162
  156.0007  130.4695  150.4396 H   0  0  0  0  0  0  0  0  0  0  0  0  # atno 10718 bound_to 10713
  153.9897  135.6707  153.4753 H   0  0  0  0  0  0  0  0  0  0  0  0  # atno 10763 bound_to 10752
  153.0711  135.4974  154.8302 H   0  0  0  0  0  0  0  0  0  0  0  0  # atno 10764 bound_to 10752
  154.7116  135.3098  154.9150 H   0  0  0  0  0  0  0  0  0  0  0  0  # atno 10765 bound_to 10752
  140.0124  134.6277  155.9761 H   0  0  0  0  0  0  0  0  0  0  0  0  # atno 11005 bound_to 11000
  145.1637  139.2443  143.5378 LP  0  0  0  0  0  0  0  0  0  0  0  0  # atno 17320 bound_to 7965
  146.3510  140.1371  142.8595 LP  0  0  0  0  0  0  0  0  0  0  0  0  # atno 17321 bound_to 7965
  140.7073  143.2477  151.4689 LP  0  0  0  0  0  0  0  0  0  0  0  0  # atno 17342 bound_to 10162
  139.5774  144.1788  152.1922 LP  0  0  0  0  0  0  0  0  0  0  0  0  # atno 17343 bound_to 10162
  157.2438  131.0531  151.2420 LP  0  0  0  0  0  0  0  0  0  0  0  0  # atno 17370 bound_to 10713
  157.3594  130.7123  149.6492 LP  0  0  0  0  0  0  0  0  0  0  0  0  # atno 17371 bound_to 10713
  141.1720  133.6538  156.4685 LP  0  0  0  0  0  0  0  0  0  0  0  0  # atno 17394 bound_to 11000
  140.4531  134.6910  157.5049 LP  0  0  0  0  0  0  0  0  0  0  0  0  # atno 17395 bound_to 11000

$$$$
