AV-unprocessed.smi:35|AV-procd|sdf|276|dock8
  -GOLD-   2262016 43D 1   1.00000     0.00000
 Structure written by MMmdl.
 28 29  0  0  0  0  0  0  0  0  2 V2000
  152.3247  135.8134  156.8522 O   0  0  0  0  0  0  0  0  0  0  0  0
  151.9711  136.9448  156.5249 C   0  0  0  0  0  0  0  0  0  0  0  0
  152.7535  137.7798  155.7813 N   0  5  0  0  0  0  0  0  0  0  0  0
  152.3539  139.0332  155.4147 C   0  0  0  0  0  0  0  0  0  0  0  0
  153.0634  139.8036  154.7675 O   0  0  0  0  0  0  0  0  0  0  0  0
  151.0627  139.4839  155.8040 N   0  0  0  0  0  0  0  0  0  0  0  0
  150.6110  140.8715  155.4093 C   0  0  1  0  0  0  0  0  0  0  0  0
  149.8363  140.7862  154.2475 O   0  0  0  0  0  0  0  0  0  0  0  0
  148.5924  141.4541  154.4319 C   0  0  1  0  0  0  0  0  0  0  0  0
  147.5298  140.7967  153.5366 C   0  0  0  0  0  0  0  0  0  0  0  0
  146.2561  141.3547  153.7807 O   0  0  0  0  0  0  0  0  0  0  0  0
  148.3411  141.3288  155.9360 C   0  0  2  0  0  0  0  0  0  0  0  0
  147.4314  142.2861  156.4443 O   0  0  0  0  0  0  0  0  0  0  0  0
  149.7403  141.4809  156.5193 C   0  0  2  0  0  0  0  0  0  0  0  0
  150.0974  142.8317  156.7499 O   0  0  0  0  0  0  0  0  0  0  0  0
  150.2555  138.6680  156.5786 C   0  0  0  0  0  0  0  0  0  0  0  0
  150.6605  137.4351  156.9440 C   0  0  0  0  0  0  0  0  0  0  0  0
  149.4039  136.3783  158.0534 Br  0  0  0  0  0  0  0  0  0  0  0  0
  151.5187  141.4361  155.1891 H   0  0  0  0  0  0  0  0  0  0  0  0
  148.7380  142.5000  154.1550 H   0  0  0  0  0  0  0  0  0  0  0  0
  147.7742  140.9623  152.4871 H   0  0  0  0  0  0  0  0  0  0  0  0
  147.4975  139.7179  153.6920 H   0  0  0  0  0  0  0  0  0  0  0  0
  145.6163  140.8759  153.2766 H   0  0  0  0  0  0  0  0  0  0  0  0
  147.9669  140.3294  156.1623 H   0  0  0  0  0  0  0  0  0  0  0  0
  147.7482  143.1453  156.2102 H   0  0  0  0  0  0  0  0  0  0  0  0
  149.8495  140.9332  157.4567 H   0  0  0  0  0  0  0  0  0  0  0  0
  149.3941  143.3802  156.4361 H   0  0  0  0  0  0  0  0  0  0  0  0
  149.2875  139.0163  156.9057 H   0  0  0  0  0  0  0  0  0  0  0  0
  1  2  2  0  0  0  0
  2 17  1  0  0  0  0
  2  3  1  0  0  0  0
  3  4  1  0  0  0  0
  4  5  2  0  0  0  0
  4  6  1  0  0  0  0
  6  7  1  0  0  0  0
  6 16  1  0  0  0  0
  7 14  1  0  0  0  0
  7  8  1  0  0  0  0
  7 19  1  0  0  0  0
  8  9  1  0  0  0  0
  9 10  1  0  0  0  0
  9 12  1  0  0  0  0
  9 20  1  0  0  0  0
 10 11  1  0  0  0  0
 10 21  1  0  0  0  0
 10 22  1  0  0  0  0
 11 23  1  0  0  0  0
 12 13  1  0  0  0  0
 12 14  1  0  0  0  0
 12 24  1  0  0  0  0
 13 25  1  0  0  0  0
 14 15  1  0  0  0  0
 14 26  1  0  0  0  0
 15 27  1  0  0  0  0
 16 17  2  0  0  0  0
 16 28  1  0  0  0  0
 17 18  1  0  0  0  0
M  CHG  1   3  -1
M  END
> <s_m_source_file>
AV-unprocessed.smi

> <i_m_source_file_index>
35

> <i_lp_mmshare_version>
43012

> <i_f3d_flags>
0

> <s_epik_input>
Tz1jMVtuSF1jKD1PKW4oW2NIXWMxQnIpW0NAQEhdMk9bQ0BASF0oW0NIMl1bT0hdKVtDQEBIXShbT0hdKVtDQEhdMltPSF0=

> <s_epik_cmdline>
J2VwaWtfcHl0aG9uJywgJy1waCcsICc3LjAnLCAnLXRuJywgJzgnLCAnLW1hJywgJzIwMCcsICctbWV0YWxfYmluZGluZycsICctaW1hZScsICc8aW5maWxlLm1hZT4nLCAnLW9tYWUnLCAnPG91dGZpbGUubWFlPic=

> <r_epik_Ionization_Penalty>
1.06112

> <r_epik_Ionization_Penalty_Charging>
2.1796e-09

> <r_epik_Ionization_Penalty_Neutral>
1.06112

> <r_epik_State_Penalty>
1.11484

> <r_epik_Charging_Adjusted_Penalty>
1.11484

> <i_epik_Tot_Q>
-1

> <i_epik_Tot_abs_Q>
1

> <r_epik_Metal_State_Penalty>
0.0032876

> <b_epik_Metal_Only>
0

> <s_epik_Chemistry_Notes>
This compound contains an acetal/aminal-like group ( X-CH(R)-Y where X, Y are N, S, or O) that may be acid/base labile, releasing an aldehyde.

> <s_lp_Force_Field>
OPLS_2005

> <r_lp_Energy>
40.7288

> <b_lp_Chiralities_Consistent>
1

> <s_lp_Variant>
AV-unprocessed.smi:35-30

> <Gold.Version>
5.8.1

> <Gold.Id.Protein>
6NUR|6NUR_protein|mol2

> <Gold.PLP.Fitness>
40.2225

> <Gold.PLP.PLP>
-26.6323

> <Gold.PLP.part.hbond>
-7.6248

> <Gold.PLP.part.metal>
0.0000

> <Gold.PLP.part.buried>
-2.0865

> <Gold.PLP.part.nonpolar>
-16.7644

> <Gold.PLP.part.repulsive>
0.1880

> <Gold.PLP.ligand.clash>
0.0000

> <Gold.PLP.ligand.torsion>
0.7068

> <Gold.PLP.Chemscore.Hbond>
4.9969

> <Gold.PLP.Chemscore.CHOScore>
0.0000

> <Gold.PLP.Chemscore.Metal>
0.0000

> <Gold.Chemscore.Hbonds>
donor molecule, donor type, donor heavy atom, donor atom, acceptor molecule, acceptor atom, score
      L1  H    11    23       P1 10175  0.76
      L1  H    13    25       P1  8028  0.85
      L1  H    15    27       P1  8028  1.00
      P1  H  7989  7998       L1     5  0.24
      P1  H  7997  8008       L1     5  1.00
      P1  H 10752 10763       L1     1  0.90

> <Gold.PLP.Chemscore.Internal.Correction>
0.0129

> <Gold.Rescore>
     Score         DG    S(hbond)    S(metal)    S(lipo)     H(rot)  DE(clash)    DE(int)     intcor
      8.92      -9.78       2.92        0.00      32.65       3.63       0.20       0.67       ----

> <Gold.Chemscore.Fitness>
8.9182

> <Gold.Chemscore.DG>
-9.7849

> <Gold.Chemscore.ZeroCoef>
-5.4800

> <Gold.Chemscore.Hbond>
2.9245

> <Gold.Chemscore.Metal>
0.0000

> <Gold.Chemscore.Lipo>
32.6476

> <Gold.Chemscore.Internal_Hbond>
0.0000

> <Gold.Chemscore.DEClash>
0.1951

> <Gold.Chemscore.DEInternal>
0.6717

> <Gold.Chemscore.Rot>
3.6261

> <Gold.Chemscore.Internal.Correction>
   9.000000E+99

> <Gold.Chemscore.Hbonds>
donor molecule, donor type, donor heavy atom, donor atom, acceptor molecule, acceptor atom, score
      L1  H    11    23       P1 10175  0.49
      L1  H    13    25       P1  8028  0.14
      L1  H    15    27       P1  8028  0.94
      P1  H  7989  7998       L1     5  0.11
      P1  H  7997  8008       L1     5  0.60
      P1  H 10752 10763       L1     1  0.18

> <Gold.Chemscore.Hbond.Weighted>
-9.7680

> <Gold.Chemscore.Metal.Weighted>
-0.0000

> <Gold.Chemscore.Lipo.Weighted>
-3.8198

> <Gold.Chemscore.Internal_Hbond.Weighted>
0.0000

> <Gold.Chemscore.DEClash.Weighted>
0.1951

> <Gold.Chemscore.DEInternal.Weighted>
0.6717

> <Gold.Chemscore.Rot.Weighted>
9.2828

> <Gold.Chemscore.Internal.Correction.Weighted>
   9.000000E+99

> <Gold.Protein.RotatedTorsions>
[ 6907 6896 6895 6894 ] final   -9.77 input  -60.11 | X-H torsion
[ 7974 7965 7964 7962 ] final  173.56 input  175.53 | X-H torsion
[ 8008 7997 7996 7995 ] final  -11.97 input   59.86 | X-H torsion
[ 10167 10162 10161 10158 ] final   -5.56 input  -65.29 | X-H torsion
[ 10718 10713 10712 10709 ] final  -33.05 input   66.30 | X-H torsion
[ 10763 10752 10751 10750 ] final  109.31 input  -60.55 | X-H torsion
[ 11005 11000 10999 10996 ] final  130.37 input  -57.11 | X-H torsion

> <Gold.Protein.ActiveResidues>
 VAL166  LYS551  ARG553  GLY616  TRP617  ASP618  TYR619  PRO620  LYS621  CYS622 
 ASP623  PHE694  ASN695  SER759  ASP760  ASP761  ALA762  ILE779  LEU786  VAL792 
 PHE793  MET794  SER795  GLU796  ALA797  LYS798  CYS799  TRP800  GLU811  SER814 

> <Gold.Protein.RotatedAtoms>
  151.4126  135.0987  159.9589 H   0  0  0  0  0  0  0  0  0  0  0  0  # atno 6907 bound_to 6896
  152.5015  133.8783  159.7344 H   0  0  0  0  0  0  0  0  0  0  0  0  # atno 6908 bound_to 6896
  150.9281  133.6742  159.2845 H   0  0  0  0  0  0  0  0  0  0  0  0  # atno 6909 bound_to 6896
  144.7241  139.9666  143.6436 H   0  0  0  0  0  0  0  0  0  0  0  0  # atno 7974 bound_to 7965
  154.5418  140.2288  155.8628 H   0  0  0  0  0  0  0  0  0  0  0  0  # atno 8008 bound_to 7997
  156.1866  140.3087  155.9212 H   0  0  0  0  0  0  0  0  0  0  0  0  # atno 8009 bound_to 7997
  155.3242  140.0442  157.3031 H   0  0  0  0  0  0  0  0  0  0  0  0  # atno 8010 bound_to 7997
  140.6967  143.6294  150.8537 H   0  0  0  0  0  0  0  0  0  0  0  0  # atno 10167 bound_to 10162
  156.3674  130.4334  149.7573 H   0  0  0  0  0  0  0  0  0  0  0  0  # atno 10718 bound_to 10713
  153.4329  135.3784  155.2181 H   0  0  0  0  0  0  0  0  0  0  0  0  # atno 10763 bound_to 10752
  154.8751  135.3844  154.4245 H   0  0  0  0  0  0  0  0  0  0  0  0  # atno 10764 bound_to 10752
  153.4781  135.7088  153.6017 H   0  0  0  0  0  0  0  0  0  0  0  0  # atno 10765 bound_to 10752
  139.9668  134.9588  156.9284 H   0  0  0  0  0  0  0  0  0  0  0  0  # atno 11005 bound_to 11000
  146.0596  139.3590  143.0590 LP  0  0  0  0  0  0  0  0  0  0  0  0  # atno 17320 bound_to 7965
  145.8110  140.9725  143.0948 LP  0  0  0  0  0  0  0  0  0  0  0  0  # atno 17321 bound_to 7965
  140.0013  143.5741  152.2874 LP  0  0  0  0  0  0  0  0  0  0  0  0  # atno 17342 bound_to 10162
  139.6432  144.7656  151.2297 LP  0  0  0  0  0  0  0  0  0  0  0  0  # atno 17343 bound_to 10162
  156.4714  130.7998  151.3016 LP  0  0  0  0  0  0  0  0  0  0  0  0  # atno 17370 bound_to 10713
  157.7480  131.0034  150.3039 LP  0  0  0  0  0  0  0  0  0  0  0  0  # atno 17371 bound_to 10713
  140.5379  134.0749  155.7333 LP  0  0  0  0  0  0  0  0  0  0  0  0  # atno 17394 bound_to 11000
  141.1348  133.9241  157.2458 LP  0  0  0  0  0  0  0  0  0  0  0  0  # atno 17395 bound_to 11000

$$$$
