AV-unprocessed.smi:2217|AV-procd|sdf|8971|dock3
  -GOLD-   2272012183D 1   1.00000     0.00000
 Structure written by MMmdl.
 45 48  0  0  0  0  0  0  0  0  1 V2000
  144.3019  132.5996  150.4649 C   0  0  0  0  0  0  0  0  0  0  0  0
  144.4986  133.9785  151.0594 C   0  0  0  0  0  0  0  0  0  0  0  0
  145.7779  134.5576  151.1541 C   0  0  0  0  0  0  0  0  0  0  0  0
  145.9008  135.8428  151.7168 C   0  0  0  0  0  0  0  0  0  0  0  0
  144.7469  136.5223  152.1685 C   0  0  0  0  0  0  0  0  0  0  0  0
  144.9997  137.8116  152.7234 N   0  0  0  0  0  0  0  0  0  0  0  0
  145.9898  138.2611  153.5239 C   0  0  0  0  0  0  0  0  0  0  0  0
  146.8884  137.5123  153.9040 O   0  0  0  0  0  0  0  0  0  0  0  0
  145.9309  139.5563  153.8708 N   0  0  0  0  0  0  0  0  0  0  0  0
  146.8771  140.2254  154.7553 C   0  0  1  0  0  0  0  0  0  0  0  0
  148.1903  140.5868  154.0425 C   0  0  2  0  0  0  0  0  0  0  0  0
  149.4754  139.9264  154.4611 C   0  0  0  0  0  0  0  0  0  0  0  0
  150.0668  140.9301  155.4553 C   0  0  0  0  0  0  0  0  0  0  0  0
  148.9531  141.7056  155.8923 O   0  0  0  0  0  0  0  0  0  0  0  0
  148.1134  141.9255  154.7614 C   0  0  2  0  0  0  0  0  0  0  0  0
  146.5964  141.7311  154.9699 C   0  0  0  0  0  0  0  0  0  0  0  0
  146.0074  142.1825  156.3038 C   0  0  0  0  0  0  0  0  0  0  0  0
  145.5144  143.6233  156.1244 C   0  0  0  0  0  0  0  0  0  0  0  0
  145.4155  143.8476  154.6122 C   0  0  0  0  0  0  0  0  0  0  0  0
  145.6994  142.4837  153.9828 C   0  0  0  0  0  0  0  0  0  0  0  0
  143.5190  135.9503  152.0766 N   0  0  0  0  0  0  0  0  0  0  0  0
  143.4011  134.7183  151.5384 C   0  0  0  0  0  0  0  0  0  0  0  0
  145.2213  132.2304  150.0096 H   0  0  0  0  0  0  0  0  0  0  0  0
  143.5283  132.6247  149.6970 H   0  0  0  0  0  0  0  0  0  0  0  0
  143.9962  131.8954  151.2390 H   0  0  0  0  0  0  0  0  0  0  0  0
  146.6526  134.0300  150.8034 H   0  0  0  0  0  0  0  0  0  0  0  0
  146.8764  136.3002  151.7972 H   0  0  0  0  0  0  0  0  0  0  0  0
  144.3435  138.5226  152.4356 H   0  0  0  0  0  0  0  0  0  0  0  0
  145.1616  140.1071  153.5166 H   0  0  0  0  0  0  0  0  0  0  0  0
  147.0561  139.7015  155.6973 H   0  0  0  0  0  0  0  0  0  0  0  0
  148.0658  140.7034  152.9642 H   0  0  0  0  0  0  0  0  0  0  0  0
  149.2815  138.9682  154.9442 H   0  0  0  0  0  0  0  0  0  0  0  0
  150.1482  139.7491  153.6216 H   0  0  0  0  0  0  0  0  0  0  0  0
  150.5716  140.4462  156.2916 H   0  0  0  0  0  0  0  0  0  0  0  0
  150.7822  141.5865  154.9574 H   0  0  0  0  0  0  0  0  0  0  0  0
  148.4135  142.7790  154.1516 H   0  0  0  0  0  0  0  0  0  0  0  0
  145.1635  141.5434  156.5670 H   0  0  0  0  0  0  0  0  0  0  0  0
  146.7199  142.1072  157.1252 H   0  0  0  0  0  0  0  0  0  0  0  0
  144.5529  143.7705  156.6178 H   0  0  0  0  0  0  0  0  0  0  0  0
  146.2200  144.3299  156.5628 H   0  0  0  0  0  0  0  0  0  0  0  0
  144.4444  144.2421  154.3120 H   0  0  0  0  0  0  0  0  0  0  0  0
  146.1751  144.5644  154.2982 H   0  0  0  0  0  0  0  0  0  0  0  0
  146.1512  142.5840  152.9953 H   0  0  0  0  0  0  0  0  0  0  0  0
  144.7528  141.9598  153.8465 H   0  0  0  0  0  0  0  0  0  0  0  0
  142.4010  134.3130  151.4897 H   0  0  0  0  0  0  0  0  0  0  0  0
  1  2  1  0  0  0  0
  1 23  1  0  0  0  0
  1 24  1  0  0  0  0
  1 25  1  0  0  0  0
  2 22  1  0  0  0  0
  2  3  2  0  0  0  0
  3  4  1  0  0  0  0
  3 26  1  0  0  0  0
  4  5  2  0  0  0  0
  4 27  1  0  0  0  0
  5  6  1  0  0  0  0
  5 21  1  0  0  0  0
  6  7  1  0  0  0  0
  6 28  1  0  0  0  0
  7  8  2  0  0  0  0
  7  9  1  0  0  0  0
  9 10  1  0  0  0  0
  9 29  1  0  0  0  0
 10 16  1  0  0  0  0
 10 11  1  0  0  0  0
 10 30  1  0  0  0  0
 11 15  1  0  0  0  0
 11 12  1  0  0  0  0
 11 31  1  0  0  0  0
 12 13  1  0  0  0  0
 12 32  1  0  0  0  0
 12 33  1  0  0  0  0
 13 14  1  0  0  0  0
 13 34  1  0  0  0  0
 13 35  1  0  0  0  0
 14 15  1  0  0  0  0
 15 16  1  0  0  0  0
 15 36  1  0  0  0  0
 16 20  1  0  0  0  0
 16 17  1  0  0  0  0
 17 18  1  0  0  0  0
 17 37  1  0  0  0  0
 17 38  1  0  0  0  0
 18 19  1  0  0  0  0
 18 39  1  0  0  0  0
 18 40  1  0  0  0  0
 19 20  1  0  0  0  0
 19 41  1  0  0  0  0
 19 42  1  0  0  0  0
 20 43  1  0  0  0  0
 20 44  1  0  0  0  0
 21 22  2  0  0  0  0
 22 45  1  0  0  0  0
M  END
> <s_m_source_file>
AV-unprocessed.smi

> <i_m_source_file_index>
2217

> <i_lp_mmshare_version>
43012

> <i_f3d_flags>
0

> <s_epik_input>
W0NIM11jMVtjSF1bY0hdYyhuW2NIXTEpW05IXUMoPU8pW05IXVtDQEBIXTJbQ0BASF0oW0NIMl1bQ0gyXU8zKVtDQEhdM0MyNFtDSDJdW0NIMl1bQ0gyXVtDSDJdNA==

> <s_epik_cmdline>
J2VwaWtfcHl0aG9uJywgJy1waCcsICc3LjAnLCAnLXRuJywgJzgnLCAnLW1hJywgJzIwMCcsICctbWV0YWxfYmluZGluZycsICctaW1hZScsICc8aW5maWxlLm1hZT4nLCAnLW9tYWUnLCAnPG91dGZpbGUubWFlPic=

> <r_lp_tautomer_probability>
1

> <r_epik_Ionization_Penalty>
6.14796e-05

> <r_epik_Ionization_Penalty_Charging>
0

> <r_epik_Ionization_Penalty_Neutral>
6.14796e-05

> <r_epik_State_Penalty>
-0

> <r_epik_Charging_Adjusted_Penalty>
0

> <i_epik_Tot_Q>
0

> <i_epik_Tot_abs_Q>
0

> <r_epik_Metal_State_Penalty>
-0

> <b_epik_Metal_Only>
0

> <s_lp_Force_Field>
OPLS_2005

> <r_lp_Energy>
58.5604

> <b_lp_Chiralities_Consistent>
1

> <s_lp_Variant>
AV-unprocessed.smi:2217-4

> <Gold.Version>
5.8.1

> <Gold.Id.Protein>
6NUR|6NUR_protein|mol2

> <Gold.PLP.Fitness>
38.7253

> <Gold.PLP.PLP>
-31.6001

> <Gold.PLP.part.hbond>
-2.4763

> <Gold.PLP.part.metal>
0.0000

> <Gold.PLP.part.buried>
-0.2439

> <Gold.PLP.part.nonpolar>
-29.5644

> <Gold.PLP.part.repulsive>
1.4831

> <Gold.PLP.ligand.clash>
0.0000

> <Gold.PLP.ligand.torsion>
0.4443

> <Gold.PLP.Chemscore.Hbond>
1.9750

> <Gold.PLP.Chemscore.CHOScore>
0.6344

> <Gold.PLP.Chemscore.Metal>
0.0000

> <Gold.Chemscore.Hbonds>
donor molecule, donor type, donor heavy atom, donor atom, acceptor molecule, acceptor atom, score
      L1  H     6    28       P1 10175  0.99
      L1  H     9    29       P1 10175  1.00
      L1  C    22    45       P1 10186  0.47

> <Gold.PLP.Chemscore.Internal.Correction>
0.1855

> <Gold.Rescore>
     Score         DG    S(hbond)    S(metal)    S(lipo)     H(rot)  DE(clash)    DE(int)     intcor
     16.23     -18.35       1.91        0.00      77.44       1.00       0.46       1.66       ----

> <Gold.Chemscore.Fitness>
16.2253

> <Gold.Chemscore.DG>
-18.3494

> <Gold.Chemscore.ZeroCoef>
-5.4800

> <Gold.Chemscore.Hbond>
1.9069

> <Gold.Chemscore.Metal>
0.0000

> <Gold.Chemscore.Lipo>
77.4403

> <Gold.Chemscore.Internal_Hbond>
0.0000

> <Gold.Chemscore.DEClash>
0.4631

> <Gold.Chemscore.DEInternal>
1.6609

> <Gold.Chemscore.Rot>
1.0000

> <Gold.Chemscore.Internal.Correction>
   9.000000E+99

> <Gold.Chemscore.Hbonds>
donor molecule, donor type, donor heavy atom, donor atom, acceptor molecule, acceptor atom, score
      L1  H     6    28       P1 10175  0.89
      L1  H     9    29       P1 10175  0.99

> <Gold.Chemscore.Hbond.Weighted>
-6.3689

> <Gold.Chemscore.Metal.Weighted>
-0.0000

> <Gold.Chemscore.Lipo.Weighted>
-9.0605

> <Gold.Chemscore.Internal_Hbond.Weighted>
0.0000

> <Gold.Chemscore.DEClash.Weighted>
0.4631

> <Gold.Chemscore.DEInternal.Weighted>
1.6609

> <Gold.Chemscore.Rot.Weighted>
2.5600

> <Gold.Chemscore.Internal.Correction.Weighted>
   9.000000E+99

> <Gold.Protein.RotatedTorsions>
[ 6907 6896 6895 6894 ] final -156.23 input  -60.11 | X-H torsion
[ 7974 7965 7964 7962 ] final  -94.55 input  175.53 | X-H torsion
[ 8008 7997 7996 7995 ] final -177.48 input   59.86 | X-H torsion
[ 10167 10162 10161 10158 ] final  170.59 input  -65.29 | X-H torsion
[ 10718 10713 10712 10709 ] final  -56.08 input   66.30 | X-H torsion
[ 10763 10752 10751 10750 ] final -175.41 input  -60.55 | X-H torsion
[ 11005 11000 10999 10996 ] final   85.50 input  -57.11 | X-H torsion

> <Gold.Protein.ActiveResidues>
 VAL166  LYS551  ARG553  GLY616  TRP617  ASP618  TYR619  PRO620  LYS621  CYS622 
 ASP623  PHE694  ASN695  SER759  ASP760  ASP761  ALA762  ILE779  LEU786  VAL792 
 PHE793  MET794  SER795  GLU796  ALA797  LYS798  CYS799  TRP800  GLU811  SER814 

> <Gold.Protein.RotatedAtoms>
  151.2844  133.4194  159.2628 H   0  0  0  0  0  0  0  0  0  0  0  0  # atno 6907 bound_to 6896
  151.0332  134.9554  159.8132 H   0  0  0  0  0  0  0  0  0  0  0  0  # atno 6908 bound_to 6896
  152.5350  134.2805  159.9058 H   0  0  0  0  0  0  0  0  0  0  0  0  # atno 6909 bound_to 6896
  145.3718  140.9506  143.2443 H   0  0  0  0  0  0  0  0  0  0  0  0  # atno 7974 bound_to 7965
  156.0074  140.1233  157.0487 H   0  0  0  0  0  0  0  0  0  0  0  0  # atno 8008 bound_to 7997
  154.4263  140.1094  156.5851 H   0  0  0  0  0  0  0  0  0  0  0  0  # atno 8009 bound_to 7997
  155.6127  140.3471  155.4629 H   0  0  0  0  0  0  0  0  0  0  0  0  # atno 8010 bound_to 7997
  139.5023  144.3579  151.9855 H   0  0  0  0  0  0  0  0  0  0  0  0  # atno 10167 bound_to 10162
  156.1317  130.4159  150.0257 H   0  0  0  0  0  0  0  0  0  0  0  0  # atno 10718 bound_to 10713
  154.5848  135.2839  155.0696 H   0  0  0  0  0  0  0  0  0  0  0  0  # atno 10763 bound_to 10752
  154.2019  135.6423  153.5093 H   0  0  0  0  0  0  0  0  0  0  0  0  # atno 10764 bound_to 10752
  153.0100  135.5471  154.6513 H   0  0  0  0  0  0  0  0  0  0  0  0  # atno 10765 bound_to 10752
  139.8970  134.8291  156.2591 H   0  0  0  0  0  0  0  0  0  0  0  0  # atno 11005 bound_to 11000
  144.8571  139.5234  143.6829 LP  0  0  0  0  0  0  0  0  0  0  0  0  # atno 17320 bound_to 7965
  146.2882  139.7063  142.9180 LP  0  0  0  0  0  0  0  0  0  0  0  0  # atno 17321 bound_to 7965
  140.3016  144.3640  150.6059 LP  0  0  0  0  0  0  0  0  0  0  0  0  # atno 17342 bound_to 10162
  140.5869  143.2169  151.7325 LP  0  0  0  0  0  0  0  0  0  0  0  0  # atno 17343 bound_to 10162
  156.8167  130.9344  151.3642 LP  0  0  0  0  0  0  0  0  0  0  0  0  # atno 17370 bound_to 10713
  157.6494  130.8872  149.9603 LP  0  0  0  0  0  0  0  0  0  0  0  0  # atno 17371 bound_to 10713
  141.0174  133.7061  156.1211 LP  0  0  0  0  0  0  0  0  0  0  0  0  # atno 17394 bound_to 11000
  140.7282  134.4284  157.5568 LP  0  0  0  0  0  0  0  0  0  0  0  0  # atno 17395 bound_to 11000

$$$$
