AV-unprocessed.smi:1986|AV-procd|sdf|8046|dock4
  -GOLD-   2272010243D 1   1.00000     0.00000
 Structure written by MMmdl.
 46 47  0  0  0  0  0  0  0  0  2 V2000
  151.5436  142.0055  157.3384 C   0  0  0  0  0  0  0  0  0  0  0  0
  151.6228  140.7154  156.5031 C   0  0  0  0  0  0  0  0  0  0  0  0
  150.3595  139.7960  156.5651 C   0  0  1  0  0  0  0  0  0  0  0  0
  150.7565  138.4538  155.8945 C   0  0  0  0  0  0  0  0  0  0  0  0
  150.0239  139.5124  158.0694 C   0  0  0  0  0  0  0  0  0  0  0  0
  148.9976  138.4921  158.2856 N   0  0  0  0  0  0  0  0  0  0  0  0
  149.1871  137.2880  158.8465 C   0  0  0  0  0  0  0  0  0  0  0  0
  150.2887  136.8794  159.2163 O   0  0  0  0  0  0  0  0  0  0  0  0
  147.9330  136.4160  159.0057 C   0  0  0  0  0  0  0  0  0  0  0  0
  147.6258  136.0915  160.4063 N   0  0  0  0  0  0  0  0  0  0  0  0
  147.5893  137.2538  161.2897 N   0  5  0  0  0  0  0  0  0  0  0  0
  147.2747  137.0797  162.6008 C   0  0  0  0  0  0  0  0  0  0  0  0
  147.1988  138.0120  163.3976 O   0  0  0  0  0  0  0  0  0  0  0  0
  147.0251  135.7270  163.0707 C   0  0  0  0  0  0  0  0  0  0  0  0
  147.1008  134.6684  162.2403 C   0  0  0  0  0  0  0  0  0  0  0  0
  147.4260  134.8089  160.8262 C   0  0  0  0  0  0  0  0  0  0  0  0
  147.5090  133.8446  160.0645 O   0  0  0  0  0  0  0  0  0  0  0  0
  149.1912  140.4356  155.8866 N   0  0  0  0  0  0  0  0  0  0  0  0
  149.3902  140.7479  154.4647 C   0  0  0  0  0  0  0  0  0  0  0  0
  148.1112  141.2856  153.8000 C   0  0  0  0  0  0  0  0  0  0  0  0
  147.6479  142.4319  154.5017 O   0  0  0  0  0  0  0  0  0  0  0  0
  147.3787  142.1535  155.8694 C   0  0  0  0  0  0  0  0  0  0  0  0
  148.6537  141.6309  156.5520 C   0  0  0  0  0  0  0  0  0  0  0  0
  152.4518  142.5951  157.2149 H   0  0  0  0  0  0  0  0  0  0  0  0
  151.4373  141.7940  158.4020 H   0  0  0  0  0  0  0  0  0  0  0  0
  150.7048  142.6316  157.0346 H   0  0  0  0  0  0  0  0  0  0  0  0
  151.8499  140.9806  155.4711 H   0  0  0  0  0  0  0  0  0  0  0  0
  152.5095  140.1638  156.8163 H   0  0  0  0  0  0  0  0  0  0  0  0
  151.6497  138.0260  156.3496 H   0  0  0  0  0  0  0  0  0  0  0  0
  150.9871  138.5714  154.8364 H   0  0  0  0  0  0  0  0  0  0  0  0
  149.9707  137.7038  155.9816 H   0  0  0  0  0  0  0  0  0  0  0  0
  150.9209  139.1812  158.5935 H   0  0  0  0  0  0  0  0  0  0  0  0
  149.7106  140.4232  158.5795 H   0  0  0  0  0  0  0  0  0  0  0  0
  148.0571  138.7347  158.0101 H   0  0  0  0  0  0  0  0  0  0  0  0
  147.0728  136.9177  158.5581 H   0  0  0  0  0  0  0  0  0  0  0  0
  148.0806  135.5064  158.4206 H   0  0  0  0  0  0  0  0  0  0  0  0
  146.7764  135.5671  164.1095 H   0  0  0  0  0  0  0  0  0  0  0  0
  146.9094  133.6812  162.6333 H   0  0  0  0  0  0  0  0  0  0  0  0
  150.1839  141.4863  154.3486 H   0  0  0  0  0  0  0  0  0  0  0  0
  149.6934  139.8655  153.9057 H   0  0  0  0  0  0  0  0  0  0  0  0
  148.3105  141.5598  152.7640 H   0  0  0  0  0  0  0  0  0  0  0  0
  147.3338  140.5199  153.7841 H   0  0  0  0  0  0  0  0  0  0  0  0
  147.0357  143.0662  156.3569 H   0  0  0  0  0  0  0  0  0  0  0  0
  146.5707  141.4246  155.9495 H   0  0  0  0  0  0  0  0  0  0  0  0
  148.4012  141.4239  157.5895 H   0  0  0  0  0  0  0  0  0  0  0  0
  149.3965  142.4283  156.5582 H   0  0  0  0  0  0  0  0  0  0  0  0
  1  2  1  0  0  0  0
  1 24  1  0  0  0  0
  1 25  1  0  0  0  0
  1 26  1  0  0  0  0
  2  3  1  0  0  0  0
  2 27  1  0  0  0  0
  2 28  1  0  0  0  0
  3  4  1  0  0  0  0
  3  5  1  0  0  0  0
  3 18  1  0  0  0  0
  4 29  1  0  0  0  0
  4 30  1  0  0  0  0
  4 31  1  0  0  0  0
  5  6  1  0  0  0  0
  5 32  1  0  0  0  0
  5 33  1  0  0  0  0
  6  7  1  0  0  0  0
  6 34  1  0  0  0  0
  7  8  2  0  0  0  0
  7  9  1  0  0  0  0
  9 35  1  0  0  0  0
  9 36  1  0  0  0  0
  9 10  1  0  0  0  0
 10 11  1  0  0  0  0
 10 16  1  0  0  0  0
 11 12  1  0  0  0  0
 12 13  2  0  0  0  0
 12 14  1  0  0  0  0
 14 37  1  0  0  0  0
 14 15  2  0  0  0  0
 15 38  1  0  0  0  0
 15 16  1  0  0  0  0
 16 17  2  0  0  0  0
 18 23  1  0  0  0  0
 18 19  1  0  0  0  0
 19 20  1  0  0  0  0
 19 39  1  0  0  0  0
 19 40  1  0  0  0  0
 20 21  1  0  0  0  0
 20 41  1  0  0  0  0
 20 42  1  0  0  0  0
 21 22  1  0  0  0  0
 22 23  1  0  0  0  0
 22 43  1  0  0  0  0
 22 44  1  0  0  0  0
 23 45  1  0  0  0  0
 23 46  1  0  0  0  0
M  CHG  1  11  -1
M  END
> <s_m_source_file>
AV-unprocessed.smi

> <i_m_source_file_index>
1986

> <i_lp_mmshare_version>
43012

> <i_f3d_flags>
0

> <s_epik_input>
W0NIMl0xW0NIMl1PW0NIMl1bQ0gyXU4xW0NAQF0oW0NIM10pKFtDSDJdW0NIM10pW0NIMl1bTkhdQyg9TylbQ0gyXW4yW25IXWMoPU8pW2NIXVtjSF1jMj1P

> <s_epik_cmdline>
J2VwaWtfcHl0aG9uJywgJy1waCcsICc3LjAnLCAnLXRuJywgJzgnLCAnLW1hJywgJzIwMCcsICctbWV0YWxfYmluZGluZycsICctaW1hZScsICc8aW5maWxlLm1hZT4nLCAnLW9tYWUnLCAnPG91dGZpbGUubWFlPic=

> <r_lp_tautomer_probability>
1

> <r_epik_Ionization_Penalty>
0.416475

> <r_epik_Ionization_Penalty_Charging>
0.0978085

> <r_epik_Ionization_Penalty_Neutral>
0.318667

> <r_epik_State_Penalty>
0.355037

> <r_epik_Charging_Adjusted_Penalty>
0.452845

> <i_epik_Tot_Q>
-1

> <i_epik_Tot_abs_Q>
1

> <r_epik_Metal_State_Penalty>
0.355037

> <b_epik_Metal_Only>
0

> <s_lp_Force_Field>
OPLS_2005

> <r_lp_Energy>
59.1101

> <b_lp_Chiralities_Consistent>
1

> <s_lp_Variant>
AV-unprocessed.smi:1986-1

> <Gold.Version>
5.8.1

> <Gold.Id.Protein>
6NUR|6NUR_protein|mol2

> <Gold.PLP.Fitness>
47.9383

> <Gold.PLP.PLP>
-38.4451

> <Gold.PLP.part.hbond>
-4.6161

> <Gold.PLP.part.metal>
0.0000

> <Gold.PLP.part.buried>
-5.1579

> <Gold.PLP.part.nonpolar>
-30.3529

> <Gold.PLP.part.repulsive>
0.3712

> <Gold.PLP.ligand.clash>
0.0000

> <Gold.PLP.ligand.torsion>
0.2388

> <Gold.PLP.Chemscore.Hbond>
3.2710

> <Gold.PLP.Chemscore.CHOScore>
0.0000

> <Gold.PLP.Chemscore.Metal>
0.0000

> <Gold.Chemscore.Hbonds>
donor molecule, donor type, donor heavy atom, donor atom, acceptor molecule, acceptor atom, score
      P1  H  6896  6907       L1     8  0.89
      P1  H  6931  6943       L1    11  0.55
      P1  H  6934  6947       L1    11  1.73

> <Gold.PLP.Chemscore.Internal.Correction>
0.1579

> <Gold.Rescore>
     Score         DG    S(hbond)    S(metal)    S(lipo)     H(rot)  DE(clash)    DE(int)     intcor
     11.73     -12.76       1.56        0.00      70.54       2.42       0.19       0.84       ----

> <Gold.Chemscore.Fitness>
11.7331

> <Gold.Chemscore.DG>
-12.7622

> <Gold.Chemscore.ZeroCoef>
-5.4800

> <Gold.Chemscore.Hbond>
1.5640

> <Gold.Chemscore.Metal>
0.0000

> <Gold.Chemscore.Lipo>
70.5357

> <Gold.Chemscore.Internal_Hbond>
0.0000

> <Gold.Chemscore.DEClash>
0.1863

> <Gold.Chemscore.DEInternal>
0.8427

> <Gold.Chemscore.Rot>
2.4197

> <Gold.Chemscore.Internal.Correction>
   9.000000E+99

> <Gold.Chemscore.Hbonds>
donor molecule, donor type, donor heavy atom, donor atom, acceptor molecule, acceptor atom, score
      P1  H  6896  6907       L1     8  0.86
      P1  H  6934  6947       L1    11  0.43

> <Gold.Chemscore.Hbond.Weighted>
-5.2238

> <Gold.Chemscore.Metal.Weighted>
-0.0000

> <Gold.Chemscore.Lipo.Weighted>
-8.2527

> <Gold.Chemscore.Internal_Hbond.Weighted>
0.0000

> <Gold.Chemscore.DEClash.Weighted>
0.1863

> <Gold.Chemscore.DEInternal.Weighted>
0.8427

> <Gold.Chemscore.Rot.Weighted>
6.1943

> <Gold.Chemscore.Internal.Correction.Weighted>
   9.000000E+99

> <Gold.Protein.RotatedTorsions>
[ 6907 6896 6895 6894 ] final  -28.93 input  -60.11 | X-H torsion
[ 7974 7965 7964 7962 ] final    9.62 input  175.53 | X-H torsion
[ 8008 7997 7996 7995 ] final  168.70 input   59.86 | X-H torsion
[ 10167 10162 10161 10158 ] final  -91.07 input  -65.29 | X-H torsion
[ 10718 10713 10712 10709 ] final  101.74 input   66.30 | X-H torsion
[ 10763 10752 10751 10750 ] final   10.90 input  -60.55 | X-H torsion
[ 11005 11000 10999 10996 ] final  146.08 input  -57.11 | X-H torsion

> <Gold.Protein.ActiveResidues>
 VAL166  LYS551  ARG553  GLY616  TRP617  ASP618  TYR619  PRO620  LYS621  CYS622 
 ASP623  PHE694  ASN695  SER759  ASP760  ASP761  ALA762  ILE779  LEU786  VAL792 
 PHE793  MET794  SER795  GLU796  ALA797  LYS798  CYS799  TRP800  GLU811  SER814 

> <Gold.Protein.RotatedAtoms>
  151.1262  135.0106  159.8561 H   0  0  0  0  0  0  0  0  0  0  0  0  # atno 6907 bound_to 6896
  152.5449  134.1664  159.8589 H   0  0  0  0  0  0  0  0  0  0  0  0  # atno 6908 bound_to 6896
  151.1727  133.4729  159.2627 H   0  0  0  0  0  0  0  0  0  0  0  0  # atno 6909 bound_to 6896
  146.2401  139.9756  142.8442 H   0  0  0  0  0  0  0  0  0  0  0  0  # atno 7974 bound_to 7965
  156.1524  140.1583  156.8749 H   0  0  0  0  0  0  0  0  0  0  0  0  # atno 8008 bound_to 7997
  154.5083  140.0807  156.7975 H   0  0  0  0  0  0  0  0  0  0  0  0  # atno 8009 bound_to 7997
  155.3870  140.3408  155.4251 H   0  0  0  0  0  0  0  0  0  0  0  0  # atno 8010 bound_to 7997
  140.3485  143.2903  151.9753 H   0  0  0  0  0  0  0  0  0  0  0  0  # atno 10167 bound_to 10162
  157.6821  131.0734  150.5298 H   0  0  0  0  0  0  0  0  0  0  0  0  # atno 10718 bound_to 10713
  153.1983  135.6852  153.8264 H   0  0  0  0  0  0  0  0  0  0  0  0  # atno 10763 bound_to 10752
  153.7539  135.3220  155.3327 H   0  0  0  0  0  0  0  0  0  0  0  0  # atno 10764 bound_to 10752
  154.8157  135.4687  154.0737 H   0  0  0  0  0  0  0  0  0  0  0  0  # atno 10765 bound_to 10752
  140.0764  134.9122  157.1429 H   0  0  0  0  0  0  0  0  0  0  0  0  # atno 11005 bound_to 11000
  145.1640  140.9687  143.4360 LP  0  0  0  0  0  0  0  0  0  0  0  0  # atno 17320 bound_to 7965
  145.0090  139.3528  143.6129 LP  0  0  0  0  0  0  0  0  0  0  0  0  # atno 17321 bound_to 7965
  139.4830  144.6096  151.7458 LP  0  0  0  0  0  0  0  0  0  0  0  0  # atno 17342 bound_to 10162
  140.5241  144.0833  150.6032 LP  0  0  0  0  0  0  0  0  0  0  0  0  # atno 17343 bound_to 10162
  156.5608  130.4255  149.6063 LP  0  0  0  0  0  0  0  0  0  0  0  0  # atno 17370 bound_to 10713
  156.2822  130.7077  151.1904 LP  0  0  0  0  0  0  0  0  0  0  0  0  # atno 17371 bound_to 10713
  140.3552  134.2555  155.7193 LP  0  0  0  0  0  0  0  0  0  0  0  0  # atno 17394 bound_to 11000
  141.2031  133.7921  157.0358 LP  0  0  0  0  0  0  0  0  0  0  0  0  # atno 17395 bound_to 11000

$$$$
