AV-unprocessed.smi:21|AV-procd|sdf|132|dock1
  -GOLD-   2262015323D 1   1.00000     0.00000
 Structure written by MMmdl.
 62 65  0  0  0  0  0  0  0  0  2 V2000
  144.2232  132.6666  149.0953 C   0  0  0  0  0  0  0  0  0  0  0  0
  144.4869  132.4134  150.4660 O   0  0  0  0  0  0  0  0  0  0  0  0
  145.5957  133.1394  150.9761 C   0  0  2  0  0  0  0  0  0  0  0  0
  145.7793  132.9769  152.4809 C   0  0  0  0  0  0  0  0  0  0  0  0
  146.5505  134.2372  152.9053 C   0  0  2  0  0  0  0  0  0  0  0  0
  146.3087  134.6475  154.3814 C   0  0  0  0  0  0  0  0  0  0  0  0
  147.1577  133.9276  155.3325 N   0  0  0  0  0  0  0  0  0  0  0  0
  146.4896  133.0882  156.3244 C   0  0  0  0  0  0  0  0  0  0  0  0
  148.3920  134.4207  155.6339 C   0  0  0  0  0  0  0  0  0  0  0  0
  149.4640  133.5858  155.5625 N   0  0  0  0  0  0  0  0  0  0  0  0
  150.6888  134.0160  155.8754 C   0  0  0  0  0  0  0  0  0  0  0  0
  151.0667  135.2286  156.2793 N   0  0  0  0  0  0  0  0  0  0  0  0
  150.0042  136.0795  156.3449 C   0  0  0  0  0  0  0  0  0  0  0  0
  148.6475  135.7656  156.0400 C   0  0  0  0  0  0  0  0  0  0  0  0
  147.8613  136.9003  156.2128 N   0  0  0  0  0  0  0  0  0  0  0  0
  148.6969  137.8212  156.6070 C   0  0  0  0  0  0  0  0  0  0  0  0
  150.0064  137.4150  156.7078 N   0  0  0  0  0  0  0  0  0  0  0  0
  151.1364  138.2307  157.1202 C   0  0  0  0  0  0  0  0  0  0  0  0
  150.8201  139.7475  157.1644 C   0  0  2  0  0  0  0  0  0  0  0  0
  151.4366  140.4860  155.9479 C   0  0  0  0  0  0  0  0  0  0  0  0
  150.9948  139.9394  154.7231 O   0  0  0  0  0  0  0  0  0  0  0  0
  151.2833  140.3530  158.5187 C   0  0  1  0  0  0  0  0  0  0  0  0
  152.7474  140.1458  158.8695 C   0  0  0  0  0  0  0  0  0  0  0  0
  152.9868  141.2075  159.9370 C   0  0  0  0  0  0  0  0  0  0  0  0
  152.1209  142.2866  159.6076 O   0  0  0  0  0  0  0  0  0  0  0  0
  151.2042  141.8826  158.5960 C   0  0  0  0  0  0  0  0  0  0  0  0
  146.2136  135.2727  151.8821 N   0  3  2  0  0  0  0  0  0  0  0  0
  145.6921  136.5766  152.3561 C   0  0  0  0  0  0  0  0  0  0  0  0
  145.3548  134.6410  150.8557 C   0  0  0  0  0  0  0  0  0  0  0  0
  146.5145  132.8752  150.4489 H   0  0  0  0  0  0  0  0  0  0  0  0
  147.6154  134.0432  152.7705 H   0  0  0  0  0  0  0  0  0  0  0  0
  143.3339  132.1162  148.7885 H   0  0  0  0  0  0  0  0  0  0  0  0
  145.0488  132.3420  148.4613 H   0  0  0  0  0  0  0  0  0  0  0  0
  144.0395  133.7267  148.9168 H   0  0  0  0  0  0  0  0  0  0  0  0
  144.7997  132.9582  152.9605 H   0  0  0  0  0  0  0  0  0  0  0  0
  146.3000  132.0562  152.7454 H   0  0  0  0  0  0  0  0  0  0  0  0
  146.5410  135.7047  154.5076 H   0  0  0  0  0  0  0  0  0  0  0  0
  145.2560  134.5550  154.6334 H   0  0  0  0  0  0  0  0  0  0  0  0
  147.1531  132.2951  156.6718 H   0  0  0  0  0  0  0  0  0  0  0  0
  145.6052  132.6142  155.8982 H   0  0  0  0  0  0  0  0  0  0  0  0
  146.1746  133.6796  157.1851 H   0  0  0  0  0  0  0  0  0  0  0  0
  151.4781  133.2834  155.7912 H   0  0  0  0  0  0  0  0  0  0  0  0
  148.3810  138.8298  156.8312 H   0  0  0  0  0  0  0  0  0  0  0  0
  151.4462  137.8710  158.1012 H   0  0  0  0  0  0  0  0  0  0  0  0
  151.9726  138.0420  156.4457 H   0  0  0  0  0  0  0  0  0  0  0  0
  149.7353  139.8480  157.1002 H   0  0  0  0  0  0  0  0  0  0  0  0
  151.2025  141.5505  155.9810 H   0  0  0  0  0  0  0  0  0  0  0  0
  152.5226  140.4060  155.9359 H   0  0  0  0  0  0  0  0  0  0  0  0
  150.2996  139.3244  154.9019 H   0  0  0  0  0  0  0  0  0  0  0  0
  150.6763  139.9368  159.3249 H   0  0  0  0  0  0  0  0  0  0  0  0
  152.9664  139.1422  159.2341 H   0  0  0  0  0  0  0  0  0  0  0  0
  153.3786  140.3410  158.0012 H   0  0  0  0  0  0  0  0  0  0  0  0
  152.7099  140.8280  160.9214 H   0  0  0  0  0  0  0  0  0  0  0  0
  154.0276  141.5291  159.9782 H   0  0  0  0  0  0  0  0  0  0  0  0
  151.5167  142.3339  157.6532 H   0  0  0  0  0  0  0  0  0  0  0  0
  150.1990  142.2386  158.8234 H   0  0  0  0  0  0  0  0  0  0  0  0
  144.7568  136.4590  152.9046 H   0  0  0  0  0  0  0  0  0  0  0  0
  145.5003  137.2320  151.5059 H   0  0  0  0  0  0  0  0  0  0  0  0
  146.4162  137.0823  152.9948 H   0  0  0  0  0  0  0  0  0  0  0  0
  145.5706  135.0223  149.8573 H   0  0  0  0  0  0  0  0  0  0  0  0
  144.3075  134.8574  151.0762 H   0  0  0  0  0  0  0  0  0  0  0  0
  147.0882  135.4772  151.4199 H   0  0  0  0  0  0  0  0  0  0  0  0
  1  2  1  0  0  0  0
  1 32  1  0  0  0  0
  1 33  1  0  0  0  0
  1 34  1  0  0  0  0
  2  3  1  0  0  0  0
  3 30  1  0  0  0  0
  3 29  1  0  0  0  0
  3  4  1  0  0  0  0
  4  5  1  0  0  0  0
  4 35  1  0  0  0  0
  4 36  1  0  0  0  0
  5 31  1  0  0  0  0
  5  6  1  0  0  0  0
  5 27  1  0  0  0  0
  6  7  1  0  0  0  0
  6 37  1  0  0  0  0
  6 38  1  0  0  0  0
  7  8  1  0  0  0  0
  7  9  1  0  0  0  0
  8 39  1  0  0  0  0
  8 40  1  0  0  0  0
  8 41  1  0  0  0  0
  9 14  1  0  0  0  0
  9 10  2  0  0  0  0
 10 11  1  0  0  0  0
 11 12  2  0  0  0  0
 11 42  1  0  0  0  0
 12 13  1  0  0  0  0
 13 17  1  0  0  0  0
 13 14  2  0  0  0  0
 14 15  1  0  0  0  0
 15 16  2  0  0  0  0
 16 17  1  0  0  0  0
 16 43  1  0  0  0  0
 17 18  1  0  0  0  0
 18 19  1  0  0  0  0
 18 44  1  0  0  0  0
 18 45  1  0  0  0  0
 19 20  1  0  0  0  0
 19 22  1  0  0  0  0
 19 46  1  0  0  0  0
 20 21  1  0  0  0  0
 20 47  1  0  0  0  0
 20 48  1  0  0  0  0
 21 49  1  0  0  0  0
 22 26  1  0  0  0  0
 22 23  1  0  0  0  0
 22 50  1  0  0  0  0
 23 24  1  0  0  0  0
 23 51  1  0  0  0  0
 23 52  1  0  0  0  0
 24 25  1  0  0  0  0
 24 53  1  0  0  0  0
 24 54  1  0  0  0  0
 25 26  1  0  0  0  0
 26 55  1  0  0  0  0
 26 56  1  0  0  0  0
 27 28  1  0  0  0  0
 27 29  1  0  0  0  0
 27 62  1  0  0  0  0
 28 57  1  0  0  0  0
 28 58  1  0  0  0  0
 28 59  1  0  0  0  0
 29 60  1  0  0  0  0
 29 61  1  0  0  0  0
M  CHG  1  27   1
M  END
> <s_m_source_file>
AV-unprocessed.smi

> <i_m_source_file_index>
21

> <i_lp_mmshare_version>
43012

> <i_f3d_flags>
0

> <s_epik_input>
W0NIM11PW0NASF0xW0NIMl1bQ0BIXShOKFtDSDNdKVtDSDJdMSlbQ0gyXU4oW0NIM10pYyhuW2NIXW4yKWMoYzIzKW5bY0hdbjNbQ0gyXVtDQEhdKFtDSDJdW09IXSlbQ0BASF00W0NIMl1bQ0gyXU9bQ0gyXTQ=

> <s_epik_cmdline>
J2VwaWtfcHl0aG9uJywgJy1waCcsICc3LjAnLCAnLXRuJywgJzgnLCAnLW1hJywgJzIwMCcsICctbWV0YWxfYmluZGluZycsICctaW1hZScsICc8aW5maWxlLm1hZT4nLCAnLW9tYWUnLCAnPG91dGZpbGUubWFlPic=

> <r_lp_tautomer_probability>
1

> <r_epik_Ionization_Penalty>
0.0157465

> <r_epik_Ionization_Penalty_Charging>
0.015354

> <r_epik_Ionization_Penalty_Neutral>
0.000392529

> <r_epik_State_Penalty>
0.0120612

> <r_epik_Charging_Adjusted_Penalty>
0.0274152

> <i_epik_Tot_Q>
1

> <i_epik_Tot_abs_Q>
1

> <r_epik_Metal_State_Penalty>
0.0121253

> <b_epik_Metal_Only>
0

> <s_lp_Force_Field>
OPLS_2005

> <r_lp_Energy>
62.0887

> <b_lp_Chiralities_Consistent>
1

> <s_lp_Variant>
AV-unprocessed.smi:21-12

> <Gold.Version>
5.8.1

> <Gold.Id.Protein>
6NUR|6NUR_protein|mol2

> <Gold.PLP.Fitness>
40.8310

> <Gold.PLP.PLP>
-33.8951

> <Gold.PLP.part.hbond>
-3.0000

> <Gold.PLP.part.metal>
0.0000

> <Gold.PLP.part.buried>
-6.9859

> <Gold.PLP.part.nonpolar>
-22.8546

> <Gold.PLP.part.repulsive>
0.2862

> <Gold.PLP.ligand.clash>
0.0000

> <Gold.PLP.ligand.torsion>
2.5146

> <Gold.PLP.Chemscore.Hbond>
3.4943

> <Gold.PLP.Chemscore.CHOScore>
0.0000

> <Gold.PLP.Chemscore.Metal>
0.0000

> <Gold.Chemscore.Hbonds>
donor molecule, donor type, donor heavy atom, donor atom, acceptor molecule, acceptor atom, score
      L1  H    27    62       P1  7948  1.66
      P1  H  7989  7998       L1    21  1.00
      P1  H 10752 10765       L1    12  0.05

> <Gold.PLP.Chemscore.Internal.Correction>
1.4823

> <Gold.Rescore>
     Score         DG    S(hbond)    S(metal)    S(lipo)     H(rot)  DE(clash)    DE(int)     intcor
     12.15     -14.88       2.27        0.00      82.84       3.08       0.38       2.35       ----

> <Gold.Chemscore.Fitness>
12.1538

> <Gold.Chemscore.DG>
-14.8840

> <Gold.Chemscore.ZeroCoef>
-5.4800

> <Gold.Chemscore.Hbond>
2.2711

> <Gold.Chemscore.Metal>
0.0000

> <Gold.Chemscore.Lipo>
82.8445

> <Gold.Chemscore.Internal_Hbond>
0.0000

> <Gold.Chemscore.DEClash>
0.3846

> <Gold.Chemscore.DEInternal>
2.3456

> <Gold.Chemscore.Rot>
3.0758

> <Gold.Chemscore.Internal.Correction>
   9.000000E+99

> <Gold.Chemscore.Hbonds>
donor molecule, donor type, donor heavy atom, donor atom, acceptor molecule, acceptor atom, score
      L1  H    27    62       P1  7948  0.75
      P1  H  7989  7998       L1    21  0.65
      P1  H 10752 10765       L1    12  0.02

> <Gold.Chemscore.Hbond.Weighted>
-7.5853

> <Gold.Chemscore.Metal.Weighted>
-0.0000

> <Gold.Chemscore.Lipo.Weighted>
-9.6928

> <Gold.Chemscore.Internal_Hbond.Weighted>
0.0000

> <Gold.Chemscore.DEClash.Weighted>
0.3846

> <Gold.Chemscore.DEInternal.Weighted>
2.3456

> <Gold.Chemscore.Rot.Weighted>
7.8741

> <Gold.Chemscore.Internal.Correction.Weighted>
   9.000000E+99

> <Gold.Protein.RotatedTorsions>
[ 6907 6896 6895 6894 ] final   55.47 input  -60.11 | X-H torsion
[ 7974 7965 7964 7962 ] final  -93.06 input  175.53 | X-H torsion
[ 8008 7997 7996 7995 ] final  -37.06 input   59.86 | X-H torsion
[ 10167 10162 10161 10158 ] final   67.59 input  -65.29 | X-H torsion
[ 10718 10713 10712 10709 ] final  -30.87 input   66.30 | X-H torsion
[ 10763 10752 10751 10750 ] final -156.87 input  -60.55 | X-H torsion
[ 11005 11000 10999 10996 ] final  -52.46 input  -57.11 | X-H torsion

> <Gold.Protein.ActiveResidues>
 VAL166  LYS551  ARG553  GLY616  TRP617  ASP618  TYR619  PRO620  LYS621  CYS622 
 ASP623  PHE694  ASN695  SER759  ASP760  ASP761  ALA762  ILE779  LEU786  VAL792 
 PHE793  MET794  SER795  GLU796  ALA797  LYS798  CYS799  TRP800  GLU811  SER814 

> <Gold.Protein.RotatedAtoms>
  152.3542  134.6963  160.0226 H   0  0  0  0  0  0  0  0  0  0  0  0  # atno 6907 bound_to 6896
  151.7307  133.3312  159.3347 H   0  0  0  0  0  0  0  0  0  0  0  0  # atno 6908 bound_to 6896
  150.7560  134.6299  159.6225 H   0  0  0  0  0  0  0  0  0  0  0  0  # atno 6909 bound_to 6896
  145.3915  140.9528  143.2337 H   0  0  0  0  0  0  0  0  0  0  0  0  # atno 7974 bound_to 7965
  154.4060  140.1614  156.2475 H   0  0  0  0  0  0  0  0  0  0  0  0  # atno 8008 bound_to 7997
  155.9148  140.3425  155.6104 H   0  0  0  0  0  0  0  0  0  0  0  0  # atno 8009 bound_to 7997
  155.7293  140.0778  157.2286 H   0  0  0  0  0  0  0  0  0  0  0  0  # atno 8010 bound_to 7997
  140.0879  144.5014  150.7118 H   0  0  0  0  0  0  0  0  0  0  0  0  # atno 10167 bound_to 10162
  156.3944  130.4379  149.7370 H   0  0  0  0  0  0  0  0  0  0  0  0  # atno 10718 bound_to 10713
  154.7680  135.3136  154.8248 H   0  0  0  0  0  0  0  0  0  0  0  0  # atno 10763 bound_to 10752
  153.8991  135.6817  153.4760 H   0  0  0  0  0  0  0  0  0  0  0  0  # atno 10764 bound_to 10752
  153.1289  135.4789  154.9250 H   0  0  0  0  0  0  0  0  0  0  0  0  # atno 10765 bound_to 10752
  141.0926  133.6630  156.4028 H   0  0  0  0  0  0  0  0  0  0  0  0  # atno 11005 bound_to 11000
  144.8436  139.5432  143.6888 LP  0  0  0  0  0  0  0  0  0  0  0  0  # atno 17320 bound_to 7965
  146.2795  139.6840  142.9239 LP  0  0  0  0  0  0  0  0  0  0  0  0  # atno 17321 bound_to 7965
  140.7044  143.2457  151.4771 LP  0  0  0  0  0  0  0  0  0  0  0  0  # atno 17342 bound_to 10162
  139.5741  144.1859  152.1879 LP  0  0  0  0  0  0  0  0  0  0  0  0  # atno 17343 bound_to 10162
  156.4411  130.7861  151.2882 LP  0  0  0  0  0  0  0  0  0  0  0  0  # atno 17370 bound_to 10713
  157.7501  131.0124  150.3385 LP  0  0  0  0  0  0  0  0  0  0  0  0  # atno 17371 bound_to 10713
  140.5217  134.6298  157.5320 LP  0  0  0  0  0  0  0  0  0  0  0  0  # atno 17394 bound_to 11000
  139.9755  134.7223  155.9959 LP  0  0  0  0  0  0  0  0  0  0  0  0  # atno 17395 bound_to 11000

$$$$
