AV-unprocessed.smi:45|AV-procd|sdf|407|dock8
  -GOLD-   2262016263D 1   1.00000     0.00000
 Structure written by MMmdl.
 60 63  0  0  0  0  0  0  0  0  1 V2000
  151.2671  141.1697  158.4767 C   0  0  0  0  0  0  0  0  0  0  0  0
  151.8074  140.2107  157.5793 O   0  0  0  0  0  0  0  0  0  0  0  0
  150.9697  139.2282  157.0934 C   0  0  0  0  0  0  0  0  0  0  0  0
  149.6171  139.0802  157.4916 C   0  0  0  0  0  0  0  0  0  0  0  0
  148.8229  138.0464  156.9619 C   0  0  0  0  0  0  0  0  0  0  0  0
  149.3643  137.1472  156.0229 C   0  0  0  0  0  0  0  0  0  0  0  0
  148.5208  136.0001  155.4929 C   0  0  0  0  0  0  0  0  0  0  0  0
  148.1037  135.0563  156.5227 N   0  0  0  0  0  0  0  0  0  0  0  0
  147.6712  133.8033  156.0594 C   0  0  0  0  0  0  0  0  0  0  0  0
  146.9913  133.7840  154.8890 N   0  0  0  0  0  0  0  0  0  0  0  0
  146.6126  132.6002  154.3960 C   0  0  0  0  0  0  0  0  0  0  0  0
  145.9357  132.6158  153.1772 N   0  0  0  0  0  0  0  0  0  0  0  0
  145.2081  131.4487  152.6916 C   0  0  0  0  0  0  0  0  0  0  0  0
  145.2601  131.5259  151.1670 C   0  0  0  0  0  0  0  0  0  0  0  0
  145.3520  133.0233  150.9049 C   0  0  0  0  0  0  0  0  0  0  0  0
  146.2019  133.5412  152.0747 C   0  0  1  0  0  0  0  0  0  0  0  0
  145.8905  135.0118  152.4241 C   0  0  0  0  0  0  0  0  0  0  0  0
  146.4645  135.8708  151.4620 O   0  0  0  0  0  0  0  0  0  0  0  0
  146.8319  131.4155  154.9747 N   0  0  0  0  0  0  0  0  0  0  0  0
  147.5069  131.4108  156.1429 C   0  0  0  0  0  0  0  0  0  0  0  0
  147.9798  132.5985  156.7462 C   0  0  0  0  0  0  0  0  0  0  0  0
  148.7613  132.5562  158.0317 C   0  0  0  0  0  0  0  0  0  0  0  0
  148.7641  133.5084  158.8124 O   0  0  0  0  0  0  0  0  0  0  0  0
  149.4857  131.4416  158.2201 N   0  0  0  0  0  0  0  0  0  0  0  0
  150.3995  131.2151  159.3328 C   0  0  0  0  0  0  0  0  0  0  0  0
  151.8201  130.9538  158.8647 C   0  0  0  0  0  0  0  0  0  0  0  0
  152.7784  131.7152  159.4035 N   0  0  0  0  0  0  0  0  0  0  0  0
  154.0425  131.4958  158.9815 C   0  0  0  0  0  0  0  0  0  0  0  0
  154.3438  130.5050  158.0254 C   0  0  0  0  0  0  0  0  0  0  0  0
  153.2527  129.7597  157.5348 C   0  0  0  0  0  0  0  0  0  0  0  0
  151.9899  129.9873  157.9562 N   0  0  0  0  0  0  0  0  0  0  0  0
  150.7046  137.2915  155.6149 C   0  0  0  0  0  0  0  0  0  0  0  0
  151.5020  138.3223  156.1483 C   0  0  0  0  0  0  0  0  0  0  0  0
  153.1477  138.4583  155.6421 Cl  0  0  0  0  0  0  0  0  0  0  0  0
  147.2572  133.4419  151.8158 H   0  0  0  0  0  0  0  0  0  0  0  0
  152.0524  141.8636  158.7761 H   0  0  0  0  0  0  0  0  0  0  0  0
  150.8837  140.6959  159.3814 H   0  0  0  0  0  0  0  0  0  0  0  0
  150.4730  141.7534  158.0090 H   0  0  0  0  0  0  0  0  0  0  0  0
  149.1645  139.7458  158.2085 H   0  0  0  0  0  0  0  0  0  0  0  0
  147.7988  137.9379  157.2885 H   0  0  0  0  0  0  0  0  0  0  0  0
  147.6267  136.4145  155.0270 H   0  0  0  0  0  0  0  0  0  0  0  0
  149.0594  135.4701  154.7062 H   0  0  0  0  0  0  0  0  0  0  0  0
  148.7449  135.0022  157.3019 H   0  0  0  0  0  0  0  0  0  0  0  0
  145.6414  130.5141  153.0503 H   0  0  0  0  0  0  0  0  0  0  0  0
  144.1788  131.5051  153.0474 H   0  0  0  0  0  0  0  0  0  0  0  0
  146.1617  131.0326  150.8016 H   0  0  0  0  0  0  0  0  0  0  0  0
  144.3994  131.0584  150.6883 H   0  0  0  0  0  0  0  0  0  0  0  0
  145.7845  133.2585  149.9320 H   0  0  0  0  0  0  0  0  0  0  0  0
  144.3508  133.4557  150.9395 H   0  0  0  0  0  0  0  0  0  0  0  0
  144.8144  135.1837  152.4647 H   0  0  0  0  0  0  0  0  0  0  0  0
  146.2919  135.2894  153.3976 H   0  0  0  0  0  0  0  0  0  0  0  0
  147.3991  135.8946  151.6004 H   0  0  0  0  0  0  0  0  0  0  0  0
  147.6791  130.4422  156.5892 H   0  0  0  0  0  0  0  0  0  0  0  0
  149.4423  130.7182  157.5172 H   0  0  0  0  0  0  0  0  0  0  0  0
  150.3846  132.0573  160.0274 H   0  0  0  0  0  0  0  0  0  0  0  0
  150.0408  130.3540  159.8980 H   0  0  0  0  0  0  0  0  0  0  0  0
  154.8189  132.1094  159.4137 H   0  0  0  0  0  0  0  0  0  0  0  0
  155.3542  130.3247  157.6903 H   0  0  0  0  0  0  0  0  0  0  0  0
  153.3938  128.9785  156.8026 H   0  0  0  0  0  0  0  0  0  0  0  0
  151.1307  136.5981  154.9045 H   0  0  0  0  0  0  0  0  0  0  0  0
  1  2  1  0  0  0  0
  1 36  1  0  0  0  0
  1 37  1  0  0  0  0
  1 38  1  0  0  0  0
  2  3  1  0  0  0  0
  3 33  1  0  0  0  0
  3  4  2  0  0  0  0
  4  5  1  0  0  0  0
  4 39  1  0  0  0  0
  5  6  2  0  0  0  0
  5 40  1  0  0  0  0
  6  7  1  0  0  0  0
  6 32  1  0  0  0  0
  7  8  1  0  0  0  0
  7 41  1  0  0  0  0
  7 42  1  0  0  0  0
  8  9  1  0  0  0  0
  8 43  1  0  0  0  0
  9 21  1  0  0  0  0
  9 10  2  0  0  0  0
 10 11  1  0  0  0  0
 11 12  1  0  0  0  0
 11 19  2  0  0  0  0
 12 16  1  0  0  0  0
 12 13  1  0  0  0  0
 13 14  1  0  0  0  0
 13 44  1  0  0  0  0
 13 45  1  0  0  0  0
 14 15  1  0  0  0  0
 14 46  1  0  0  0  0
 14 47  1  0  0  0  0
 15 16  1  0  0  0  0
 15 48  1  0  0  0  0
 15 49  1  0  0  0  0
 16 35  1  0  0  0  0
 16 17  1  0  0  0  0
 17 18  1  0  0  0  0
 17 50  1  0  0  0  0
 17 51  1  0  0  0  0
 18 52  1  0  0  0  0
 19 20  1  0  0  0  0
 20 21  2  0  0  0  0
 20 53  1  0  0  0  0
 21 22  1  0  0  0  0
 22 23  2  0  0  0  0
 22 24  1  0  0  0  0
 24 25  1  0  0  0  0
 24 54  1  0  0  0  0
 25 26  1  0  0  0  0
 25 55  1  0  0  0  0
 25 56  1  0  0  0  0
 26 31  1  0  0  0  0
 26 27  2  0  0  0  0
 27 28  1  0  0  0  0
 28 29  2  0  0  0  0
 28 57  1  0  0  0  0
 29 30  1  0  0  0  0
 29 58  1  0  0  0  0
 30 31  2  0  0  0  0
 30 59  1  0  0  0  0
 32 33  2  0  0  0  0
 32 60  1  0  0  0  0
 33 34  1  0  0  0  0
M  END
> <s_m_source_file>
AV-unprocessed.smi

> <i_m_source_file_index>
45

> <i_lp_mmshare_version>
43012

> <i_f3d_flags>
0

> <s_epik_input>
W0NIM11PYzFbY0hdW2NIXWMoW2NIXWMxQ2wpW0NIMl1bTkhdYzJuYyhOM1tDSDJdW0NIMl1bQ0gyXVtDQEhdM1tDSDJdW09IXSluW2NIXWMyQyg9TylbTkhdW0NIMl1jNG5bY0hdW2NIXVtjSF1uNA==

> <s_epik_cmdline>
J2VwaWtfcHl0aG9uJywgJy1waCcsICc3LjAnLCAnLXRuJywgJzgnLCAnLW1hJywgJzIwMCcsICctbWV0YWxfYmluZGluZycsICctaW1hZScsICc8aW5maWxlLm1hZT4nLCAnLW9tYWUnLCAnPG91dGZpbGUubWFlPic=

> <r_lp_tautomer_probability>
1

> <r_epik_Ionization_Penalty>
0.0522664

> <r_epik_Ionization_Penalty_Charging>
0

> <r_epik_Ionization_Penalty_Neutral>
0.0522664

> <r_epik_State_Penalty>
0.0369431

> <r_epik_Charging_Adjusted_Penalty>
0.0369431

> <i_epik_Tot_Q>
0

> <i_epik_Tot_abs_Q>
0

> <r_epik_Metal_State_Penalty>
0.0404664

> <b_epik_Metal_Only>
0

> <s_epik_Chemistry_Notes>
This compound contains an electron-poor aromatic ring that is susceptible to covalent hydrolysis at low pH, typically resulting in measured values for nitrogen ring protonation that are around two units higher than predicted values.

> <s_lp_Force_Field>
OPLS_2005

> <r_lp_Energy>
30.7934

> <b_lp_Chiralities_Consistent>
1

> <s_lp_Variant>
AV-unprocessed.smi:45-1

> <Gold.Version>
5.8.1

> <Gold.Id.Protein>
6NUR|6NUR_protein|mol2

> <Gold.PLP.Fitness>
54.6434

> <Gold.PLP.PLP>
-47.7414

> <Gold.PLP.part.hbond>
-3.0000

> <Gold.PLP.part.metal>
0.0000

> <Gold.PLP.part.buried>
-6.6468

> <Gold.PLP.part.nonpolar>
-38.6828

> <Gold.PLP.part.repulsive>
0.1664

> <Gold.PLP.ligand.clash>
0.0000

> <Gold.PLP.ligand.torsion>
1.2203

> <Gold.PLP.Chemscore.Hbond>
3.0000

> <Gold.PLP.Chemscore.CHOScore>
0.0000

> <Gold.PLP.Chemscore.Metal>
0.0000

> <Gold.Chemscore.Hbonds>
donor molecule, donor type, donor heavy atom, donor atom, acceptor molecule, acceptor atom, score
      L1  H    18    52       P1  7948  1.00
      P1  H  6896  6907       L1    27  0.06

> <Gold.PLP.Chemscore.Internal.Correction>
0.3426

> <Gold.Rescore>
     Score         DG    S(hbond)    S(metal)    S(lipo)     H(rot)  DE(clash)    DE(int)     intcor
     14.77     -20.74       2.77        0.00     120.52       3.16       2.19       3.78       ----

> <Gold.Chemscore.Fitness>
14.7710

> <Gold.Chemscore.DG>
-20.7433

> <Gold.Chemscore.ZeroCoef>
-5.4800

> <Gold.Chemscore.Hbond>
2.7678

> <Gold.Chemscore.Metal>
0.0000

> <Gold.Chemscore.Lipo>
120.5223

> <Gold.Chemscore.Internal_Hbond>
0.0000

> <Gold.Chemscore.DEClash>
2.1897

> <Gold.Chemscore.DEInternal>
3.7827

> <Gold.Chemscore.Rot>
3.1571

> <Gold.Chemscore.Internal.Correction>
   9.000000E+99

> <Gold.Chemscore.Hbonds>
donor molecule, donor type, donor heavy atom, donor atom, acceptor molecule, acceptor atom, score
      L1  H    18    52       P1  7948  0.97

> <Gold.Chemscore.Hbond.Weighted>
-9.2444

> <Gold.Chemscore.Metal.Weighted>
-0.0000

> <Gold.Chemscore.Lipo.Weighted>
-14.1011

> <Gold.Chemscore.Internal_Hbond.Weighted>
0.0000

> <Gold.Chemscore.DEClash.Weighted>
2.1897

> <Gold.Chemscore.DEInternal.Weighted>
3.7827

> <Gold.Chemscore.Rot.Weighted>
8.0822

> <Gold.Chemscore.Internal.Correction.Weighted>
   9.000000E+99

> <Gold.Protein.RotatedTorsions>
[ 6907 6896 6895 6894 ] final -160.72 input  -60.11 | X-H torsion
[ 7974 7965 7964 7962 ] final   54.69 input  175.53 | X-H torsion
[ 8008 7997 7996 7995 ] final  -52.36 input   59.86 | X-H torsion
[ 10167 10162 10161 10158 ] final -113.34 input  -65.29 | X-H torsion
[ 10718 10713 10712 10709 ] final -137.26 input   66.30 | X-H torsion
[ 10763 10752 10751 10750 ] final  -91.86 input  -60.55 | X-H torsion
[ 11005 11000 10999 10996 ] final   78.53 input  -57.11 | X-H torsion

> <Gold.Protein.ActiveResidues>
 VAL166  LYS551  ARG553  GLY616  TRP617  ASP618  TYR619  PRO620  LYS621  CYS622 
 ASP623  PHE694  ASN695  SER759  ASP760  ASP761  ALA762  ILE779  LEU786  VAL792 
 PHE793  MET794  SER795  GLU796  ALA797  LYS798  CYS799  TRP800  GLU811  SER814 

> <Gold.Protein.RotatedAtoms>
  151.3535  133.3916  159.2682 H   0  0  0  0  0  0  0  0  0  0  0  0  # atno 6907 bound_to 6896
  150.9782  134.9143  159.7839 H   0  0  0  0  0  0  0  0  0  0  0  0  # atno 6908 bound_to 6896
  152.5208  134.3498  159.9299 H   0  0  0  0  0  0  0  0  0  0  0  0  # atno 6909 bound_to 6896
  145.9582  139.4035  143.0264 H   0  0  0  0  0  0  0  0  0  0  0  0  # atno 7974 bound_to 7965
  154.4105  140.1226  156.4978 H   0  0  0  0  0  0  0  0  0  0  0  0  # atno 8008 bound_to 7997
  155.6925  140.3495  155.4880 H   0  0  0  0  0  0  0  0  0  0  0  0  # atno 8009 bound_to 7997
  155.9456  140.1095  157.1009 H   0  0  0  0  0  0  0  0  0  0  0  0  # atno 8010 bound_to 7997
  140.1129  143.4511  152.1741 H   0  0  0  0  0  0  0  0  0  0  0  0  # atno 10167 bound_to 10162
  156.2861  130.7348  151.1360 H   0  0  0  0  0  0  0  0  0  0  0  0  # atno 10718 bound_to 10713
  154.6803  135.5252  153.8254 H   0  0  0  0  0  0  0  0  0  0  0  0  # atno 10763 bound_to 10752
  153.0560  135.6551  154.0586 H   0  0  0  0  0  0  0  0  0  0  0  0  # atno 10764 bound_to 10752
  154.0474  135.2972  155.3325 H   0  0  0  0  0  0  0  0  0  0  0  0  # atno 10765 bound_to 10752
  139.9209  134.7770  156.1661 H   0  0  0  0  0  0  0  0  0  0  0  0  # atno 11005 bound_to 11000
  145.8076  140.9741  143.0966 LP  0  0  0  0  0  0  0  0  0  0  0  0  # atno 17320 bound_to 7965
  144.6809  139.9880  143.7484 LP  0  0  0  0  0  0  0  0  0  0  0  0  # atno 17321 bound_to 7965
  139.5609  144.7405  151.4157 LP  0  0  0  0  0  0  0  0  0  0  0  0  # atno 17342 bound_to 10162
  140.6915  143.7850  150.7263 LP  0  0  0  0  0  0  0  0  0  0  0  0  # atno 17343 bound_to 10162
  157.7329  131.0596  150.5605 LP  0  0  0  0  0  0  0  0  0  0  0  0  # atno 17370 bound_to 10713
  156.5716  130.4281  149.6017 LP  0  0  0  0  0  0  0  0  0  0  0  0  # atno 17371 bound_to 10713
  141.0728  133.6789  156.2176 LP  0  0  0  0  0  0  0  0  0  0  0  0  # atno 17394 bound_to 11000
  140.6478  134.5099  157.5575 LP  0  0  0  0  0  0  0  0  0  0  0  0  # atno 17395 bound_to 11000

$$$$
