AV-unprocessed.smi:1011|AV-procd|sdf|4421|dock7
  -GOLD-   22720 2373D 1   1.00000     0.00000
 Structure written by MMmdl.
 44 46  0  0  0  0  0  0  0  0  2 V2000
  150.9719  142.0727  156.3409 C   0  0  0  0  0  0  0  0  0  0  0  0
  150.1218  141.1987  155.4646 C   0  0  0  0  0  0  0  0  0  0  0  0
  150.4081  139.8832  155.0007 C   0  0  0  0  0  0  0  0  0  0  0  0
  149.4480  139.3866  154.2377 N   0  0  0  0  0  0  0  0  0  0  0  0
  148.5164  140.3624  154.1901 N   0  0  0  0  0  0  0  0  0  0  0  0
  147.3044  140.1644  153.4189 C   0  0  0  0  0  0  0  0  0  0  0  0
  147.1704  138.7145  152.9314 C   0  0  0  0  0  0  0  0  0  0  0  0
  145.9806  138.5878  152.1057 N   0  0  0  0  0  0  0  0  0  0  0  0
  145.5610  137.1968  152.0586 C   0  0  0  0  0  0  0  0  0  0  0  0
  144.1499  137.0215  152.5183 C   0  0  0  0  0  0  0  0  0  0  0  0
  143.2756  138.0330  152.7845 N   0  3  0  0  0  0  0  0  0  0  0  0
  142.0452  137.5060  153.1766 C   0  0  0  0  0  0  0  0  0  0  0  0
  140.8595  138.1347  153.5434 C   0  0  0  0  0  0  0  0  0  0  0  0
  139.7766  137.2977  153.8846 C   0  0  0  0  0  0  0  0  0  0  0  0
  138.2734  138.0063  154.3473 Cl  0  0  0  0  0  0  0  0  0  0  0  0
  139.8997  135.8930  153.8528 C   0  0  0  0  0  0  0  0  0  0  0  0
  141.1075  135.2666  153.4807 C   0  0  0  0  0  0  0  0  0  0  0  0
  142.1726  136.1026  153.1468 C   0  0  0  0  0  0  0  0  0  0  0  0
  143.4876  135.8482  152.7407 N   0  0  0  0  0  0  0  0  0  0  0  0
  143.9350  134.4526  152.6053 C   0  0  0  0  0  0  0  0  0  0  0  0
  144.3642  134.1069  151.1698 C   0  0  0  0  0  0  0  0  0  0  0  0
  143.7843  135.0017  150.2433 O   0  0  0  0  0  0  0  0  0  0  0  0
  148.8975  141.4674  154.9212 C   0  0  0  0  0  0  0  0  0  0  0  0
  152.0104  141.7412  156.3576 H   0  0  0  0  0  0  0  0  0  0  0  0
  150.6178  142.0734  157.3718 H   0  0  0  0  0  0  0  0  0  0  0  0
  150.9720  143.1079  155.9992 H   0  0  0  0  0  0  0  0  0  0  0  0
  151.2820  139.2785  155.1934 H   0  0  0  0  0  0  0  0  0  0  0  0
  146.4506  140.4389  154.0402 H   0  0  0  0  0  0  0  0  0  0  0  0
  147.3170  140.8543  152.5736 H   0  0  0  0  0  0  0  0  0  0  0  0
  148.0506  138.4300  152.3531 H   0  0  0  0  0  0  0  0  0  0  0  0
  147.1029  138.0363  153.7834 H   0  0  0  0  0  0  0  0  0  0  0  0
  145.2459  139.1385  152.5270 H   0  0  0  0  0  0  0  0  0  0  0  0
  145.6300  136.8263  151.0348 H   0  0  0  0  0  0  0  0  0  0  0  0
  146.2344  136.5908  152.6642 H   0  0  0  0  0  0  0  0  0  0  0  0
  140.7649  139.2106  153.5665 H   0  0  0  0  0  0  0  0  0  0  0  0
  139.0499  135.2814  154.1192 H   0  0  0  0  0  0  0  0  0  0  0  0
  141.1880  134.1901  153.4591 H   0  0  0  0  0  0  0  0  0  0  0  0
  144.7613  134.2925  153.2978 H   0  0  0  0  0  0  0  0  0  0  0  0
  143.1337  133.7925  152.9384 H   0  0  0  0  0  0  0  0  0  0  0  0
  145.4494  134.1579  151.0778 H   0  0  0  0  0  0  0  0  0  0  0  0
  144.0671  133.0898  150.9131 H   0  0  0  0  0  0  0  0  0  0  0  0
  142.8951  134.7281  150.0767 H   0  0  0  0  0  0  0  0  0  0  0  0
  148.2732  142.3463  154.9926 H   0  0  0  0  0  0  0  0  0  0  0  0
  143.5116  139.0136  152.7014 H   0  0  0  0  0  0  0  0  0  0  0  0
  1  2  1  0  0  0  0
  1 24  1  0  0  0  0
  1 25  1  0  0  0  0
  1 26  1  0  0  0  0
  2 23  2  0  0  0  0
  2  3  1  0  0  0  0
  3  4  2  0  0  0  0
  3 27  1  0  0  0  0
  4  5  1  0  0  0  0
  5  6  1  0  0  0  0
  5 23  1  0  0  0  0
  6  7  1  0  0  0  0
  6 28  1  0  0  0  0
  6 29  1  0  0  0  0
  7  8  1  0  0  0  0
  7 30  1  0  0  0  0
  7 31  1  0  0  0  0
  8  9  1  0  0  0  0
  8 32  1  0  0  0  0
  9 10  1  0  0  0  0
  9 33  1  0  0  0  0
  9 34  1  0  0  0  0
 10 19  1  0  0  0  0
 10 11  2  0  0  0  0
 11 12  1  0  0  0  0
 11 44  1  0  0  0  0
 12 18  2  0  0  0  0
 12 13  1  0  0  0  0
 13 14  2  0  0  0  0
 13 35  1  0  0  0  0
 14 15  1  0  0  0  0
 14 16  1  0  0  0  0
 16 17  2  0  0  0  0
 16 36  1  0  0  0  0
 17 18  1  0  0  0  0
 17 37  1  0  0  0  0
 18 19  1  0  0  0  0
 19 20  1  0  0  0  0
 20 21  1  0  0  0  0
 20 38  1  0  0  0  0
 20 39  1  0  0  0  0
 21 22  1  0  0  0  0
 21 40  1  0  0  0  0
 21 41  1  0  0  0  0
 22 42  1  0  0  0  0
 23 43  1  0  0  0  0
M  CHG  1  11   1
M  END
> <s_m_source_file>
AV-unprocessed.smi

> <i_m_source_file_index>
1011

> <i_lp_mmshare_version>
43012

> <i_f3d_flags>
0

> <s_epik_input>
W0NIM11jMVtjSF1ubihbY0hdMSlbQ0gyXVtDSDJdW05IXVtDSDJdYyhuMiluKFtDSDJdW0NIMl1bT0hdKWMoYzIzKVtjSF1bY0hdYyhDbClbY0hdMw==

> <s_epik_cmdline>
J2VwaWtfcHl0aG9uJywgJy1waCcsICc3LjAnLCAnLXRuJywgJzgnLCAnLW1hJywgJzIwMCcsICctbWV0YWxfYmluZGluZycsICctaW1hZScsICc8aW5maWxlLm1hZT4nLCAnLW9tYWUnLCAnPG91dGZpbGUubWFlPic=

> <r_epik_Ionization_Penalty>
1.62414

> <r_epik_Ionization_Penalty_Charging>
1.50824

> <r_epik_Ionization_Penalty_Neutral>
0.115896

> <r_epik_State_Penalty>
2.25317

> <r_epik_Charging_Adjusted_Penalty>
3.76141

> <i_epik_Tot_Q>
1

> <i_epik_Tot_abs_Q>
1

> <r_epik_Metal_State_Penalty>
2.26539

> <b_epik_Metal_Only>
0

> <s_lp_Force_Field>
OPLS_2005

> <r_lp_Energy>
12.3838

> <b_lp_Chiralities_Consistent>
1

> <s_lp_Variant>
AV-unprocessed.smi:1011-3

> <Gold.Version>
5.8.1

> <Gold.Id.Protein>
6NUR|6NUR_protein|mol2

> <Gold.PLP.Fitness>
58.7786

> <Gold.PLP.PLP>
-46.7846

> <Gold.PLP.part.hbond>
-4.3528

> <Gold.PLP.part.metal>
0.0000

> <Gold.PLP.part.buried>
-4.4557

> <Gold.PLP.part.nonpolar>
-39.9412

> <Gold.PLP.part.repulsive>
0.1995

> <Gold.PLP.ligand.clash>
0.0000

> <Gold.PLP.ligand.torsion>
0.8860

> <Gold.PLP.Chemscore.Hbond>
3.5512

> <Gold.PLP.Chemscore.CHOScore>
0.9986

> <Gold.PLP.Chemscore.Metal>
0.0000

> <Gold.Chemscore.Hbonds>
donor molecule, donor type, donor heavy atom, donor atom, acceptor molecule, acceptor atom, score
      L1  H     8    32       P1 10175  0.96
      L1  H    11    44       P1 10175  1.56
      L1  H    22    42       P1 10186  1.00
      L1  C    23    43       P1  8028  1.00

> <Gold.PLP.Chemscore.Internal.Correction>
0.1163

> <Gold.Rescore>
     Score         DG    S(hbond)    S(metal)    S(lipo)     H(rot)  DE(clash)    DE(int)     intcor
     18.94     -20.06       2.83        0.00     108.11       2.93       0.34       0.78       ----

> <Gold.Chemscore.Fitness>
18.9449

> <Gold.Chemscore.DG>
-20.0635

> <Gold.Chemscore.ZeroCoef>
-5.4800

> <Gold.Chemscore.Hbond>
2.8280

> <Gold.Chemscore.Metal>
0.0000

> <Gold.Chemscore.Lipo>
108.1104

> <Gold.Chemscore.Internal_Hbond>
0.0000

> <Gold.Chemscore.DEClash>
0.3400

> <Gold.Chemscore.DEInternal>
0.7786

> <Gold.Chemscore.Rot>
2.9340

> <Gold.Chemscore.Internal.Correction>
   9.000000E+99

> <Gold.Chemscore.Hbonds>
donor molecule, donor type, donor heavy atom, donor atom, acceptor molecule, acceptor atom, score
      L1  H     8    32       P1 10175  0.87
      L1  H    11    44       P1 10175  0.77
      L1  H    22    42       P1 10186  0.59

> <Gold.Chemscore.Hbond.Weighted>
-9.4457

> <Gold.Chemscore.Metal.Weighted>
-0.0000

> <Gold.Chemscore.Lipo.Weighted>
-12.6489

> <Gold.Chemscore.Internal_Hbond.Weighted>
0.0000

> <Gold.Chemscore.DEClash.Weighted>
0.3400

> <Gold.Chemscore.DEInternal.Weighted>
0.7786

> <Gold.Chemscore.Rot.Weighted>
7.5111

> <Gold.Chemscore.Internal.Correction.Weighted>
   9.000000E+99

> <Gold.Protein.RotatedTorsions>
[ 6907 6896 6895 6894 ] final  -49.76 input  -60.11 | X-H torsion
[ 7974 7965 7964 7962 ] final   55.81 input  175.53 | X-H torsion
[ 8008 7997 7996 7995 ] final -167.74 input   59.86 | X-H torsion
[ 10167 10162 10161 10158 ] final   12.07 input  -65.29 | X-H torsion
[ 10718 10713 10712 10709 ] final  134.50 input   66.30 | X-H torsion
[ 10763 10752 10751 10750 ] final   69.93 input  -60.55 | X-H torsion
[ 11005 11000 10999 10996 ] final   29.64 input  -57.11 | X-H torsion

> <Gold.Protein.ActiveResidues>
 VAL166  LYS551  ARG553  GLY616  TRP617  ASP618  TYR619  PRO620  LYS621  CYS622 
 ASP623  PHE694  ASN695  SER759  ASP760  ASP761  ALA762  ILE779  LEU786  VAL792 
 PHE793  MET794  SER795  GLU796  ALA797  LYS798  CYS799  TRP800  GLU811  SER814 

> <Gold.Protein.RotatedAtoms>
  150.8773  134.8158  159.7198 H   0  0  0  0  0  0  0  0  0  0  0  0  # atno 6907 bound_to 6896
  152.4755  134.4851  159.9688 H   0  0  0  0  0  0  0  0  0  0  0  0  # atno 6908 bound_to 6896
  151.4931  133.3482  159.2892 H   0  0  0  0  0  0  0  0  0  0  0  0  # atno 6909 bound_to 6896
  145.9465  139.3934  143.0332 H   0  0  0  0  0  0  0  0  0  0  0  0  # atno 7974 bound_to 7965
  155.8818  140.1010  157.1480 H   0  0  0  0  0  0  0  0  0  0  0  0  # atno 8008 bound_to 7997
  154.4006  140.1327  156.4269 H   0  0  0  0  0  0  0  0  0  0  0  0  # atno 8009 bound_to 7997
  155.7634  140.3462  155.5212 H   0  0  0  0  0  0  0  0  0  0  0  0  # atno 8010 bound_to 7997
  140.6091  143.8445  150.7046 H   0  0  0  0  0  0  0  0  0  0  0  0  # atno 10167 bound_to 10162
  157.4666  131.1077  150.9855 H   0  0  0  0  0  0  0  0  0  0  0  0  # atno 10718 bound_to 10713
  153.0314  135.5192  154.7364 H   0  0  0  0  0  0  0  0  0  0  0  0  # atno 10763 bound_to 10752
  154.6376  135.2908  155.0144 H   0  0  0  0  0  0  0  0  0  0  0  0  # atno 10764 bound_to 10752
  154.1073  135.6627  153.4931 H   0  0  0  0  0  0  0  0  0  0  0  0  # atno 10765 bound_to 10752
  140.3029  134.2737  155.7750 H   0  0  0  0  0  0  0  0  0  0  0  0  # atno 11005 bound_to 11000
  145.8230  140.9669  143.0889 LP  0  0  0  0  0  0  0  0  0  0  0  0  # atno 17320 bound_to 7965
  144.6788  140.0065  143.7484 LP  0  0  0  0  0  0  0  0  0  0  0  0  # atno 17321 bound_to 7965
  140.2009  143.3960  152.1792 LP  0  0  0  0  0  0  0  0  0  0  0  0  # atno 17342 bound_to 10162
  139.5348  144.7197  151.4932 LP  0  0  0  0  0  0  0  0  0  0  0  0  # atno 17343 bound_to 10162
  157.0634  130.5834  149.5390 LP  0  0  0  0  0  0  0  0  0  0  0  0  # atno 17370 bound_to 10713
  156.0053  130.5139  150.7808 LP  0  0  0  0  0  0  0  0  0  0  0  0  # atno 17371 bound_to 10713
  141.2124  133.7657  156.9793 LP  0  0  0  0  0  0  0  0  0  0  0  0  # atno 17394 bound_to 11000
  140.1093  134.9486  157.2042 LP  0  0  0  0  0  0  0  0  0  0  0  0  # atno 17395 bound_to 11000

$$$$
