AV-unprocessed.smi:1797|AV-procd|sdf|7257|dock10
  -GOLD-   22720 8513D 1   1.00000     0.00000
 Structure written by MMmdl.
 29 30  0  0  0  0  0  0  0  0  2 V2000
  143.9489  135.2806  162.5415 C   0  0  0  0  0  0  0  0  0  0  0  0
  145.1897  135.8593  161.9528 C   0  0  0  0  0  0  0  0  0  0  0  0
  145.1758  136.9016  161.1184 N   0  0  0  0  0  0  0  0  0  0  0  0
  146.4515  137.2577  160.7053 N   0  0  0  0  0  0  0  0  0  0  0  0
  147.4089  136.4729  161.2203 C   0  0  0  0  0  0  0  0  0  0  0  0
  148.7145  136.6443  160.9418 N   0  5  0  0  0  0  0  0  0  0  0  0
  149.1946  136.6782  159.6708 C   0  0  0  0  0  0  0  0  0  0  0  0
  149.1861  135.7026  158.9212 O   0  0  0  0  0  0  0  0  0  0  0  0
  149.7036  137.8419  159.2211 N   0  0  0  0  0  0  0  0  0  0  0  0
  150.2544  138.0910  157.8924 C   0  0  2  0  0  0  0  0  0  0  0  0
  151.5962  137.3660  157.7079 C   0  0  0  0  0  0  0  0  0  0  0  0
  152.1764  137.6262  156.3085 C   0  0  0  0  0  0  0  0  0  0  0  0
  152.1117  139.1005  155.8816 C   0  0  0  0  0  0  0  0  0  0  0  0
  152.8098  139.4905  154.9482 O   0  0  0  0  0  0  0  0  0  0  0  0
  151.2627  139.9276  156.5168 N   0  0  0  0  0  0  0  0  0  0  0  0
  150.4522  139.6039  157.6905 C   0  0  0  0  0  0  0  0  0  0  0  0
  146.7887  135.2213  162.2962 S   0  0  0  0  0  0  0  0  0  0  0  0
  143.4644  134.6253  161.8178 H   0  0  0  0  0  0  0  0  0  0  0  0
  143.2549  136.0749  162.8176 H   0  0  0  0  0  0  0  0  0  0  0  0
  144.1881  134.7020  163.4339 H   0  0  0  0  0  0  0  0  0  0  0  0
  149.7055  138.6212  159.8626 H   0  0  0  0  0  0  0  0  0  0  0  0
  149.5502  137.7330  157.1386 H   0  0  0  0  0  0  0  0  0  0  0  0
  152.3057  137.6981  158.4675 H   0  0  0  0  0  0  0  0  0  0  0  0
  151.4712  136.2923  157.8529 H   0  0  0  0  0  0  0  0  0  0  0  0
  153.2087  137.2781  156.2617 H   0  0  0  0  0  0  0  0  0  0  0  0
  151.6186  137.0467  155.5721 H   0  0  0  0  0  0  0  0  0  0  0  0
  151.2175  140.8824  156.1915 H   0  0  0  0  0  0  0  0  0  0  0  0
  149.4866  140.1036  157.6064 H   0  0  0  0  0  0  0  0  0  0  0  0
  150.9526  140.0349  158.5590 H   0  0  0  0  0  0  0  0  0  0  0  0
  1  2  1  0  0  0  0
  1 18  1  0  0  0  0
  1 19  1  0  0  0  0
  1 20  1  0  0  0  0
  2 17  1  0  0  0  0
  2  3  2  0  0  0  0
  3  4  1  0  0  0  0
  4  5  2  0  0  0  0
  5  6  1  0  0  0  0
  5 17  1  0  0  0  0
  6  7  1  0  0  0  0
  7  8  2  0  0  0  0
  7  9  1  0  0  0  0
  9 10  1  0  0  0  0
  9 21  1  0  0  0  0
 10 16  1  0  0  0  0
 10 11  1  0  0  0  0
 10 22  1  0  0  0  0
 11 12  1  0  0  0  0
 11 23  1  0  0  0  0
 11 24  1  0  0  0  0
 12 13  1  0  0  0  0
 12 25  1  0  0  0  0
 12 26  1  0  0  0  0
 13 14  2  0  0  0  0
 13 15  1  0  0  0  0
 15 16  1  0  0  0  0
 15 27  1  0  0  0  0
 16 28  1  0  0  0  0
 16 29  1  0  0  0  0
M  CHG  1   6  -1
M  END
> <s_m_source_file>
AV-unprocessed.smi

> <i_m_source_file_index>
1797

> <i_lp_mmshare_version>
43012

> <i_f3d_flags>
0

> <s_epik_input>
W0NIM11jMW5uYyhzMSlbTkhdQyg9TylbTkhdW0NAQEhdMltDSDJdW0NIMl1DKD1PKVtOSF1bQ0gyXTI=

> <s_epik_cmdline>
J2VwaWtfcHl0aG9uJywgJy1waCcsICc3LjAnLCAnLXRuJywgJzgnLCAnLW1hJywgJzIwMCcsICctbWV0YWxfYmluZGluZycsICctaW1hZScsICc8aW5maWxlLm1hZT4nLCAnLW9tYWUnLCAnPG91dGZpbGUubWFlPic=

> <r_lp_tautomer_probability>
1

> <r_epik_Ionization_Penalty>
3.31792

> <r_epik_Ionization_Penalty_Charging>
3.17379

> <r_epik_Ionization_Penalty_Neutral>
0.144127

> <r_epik_State_Penalty>
3.17099

> <r_epik_Charging_Adjusted_Penalty>
6.34478

> <i_epik_Tot_Q>
-1

> <i_epik_Tot_abs_Q>
1

> <r_epik_Metal_State_Penalty>
0.468583

> <b_epik_Metal_Only>
1

> <s_lp_Force_Field>
OPLS_2005

> <r_lp_Energy>
8.3623

> <b_lp_Chiralities_Consistent>
1

> <s_lp_Variant>
AV-unprocessed.smi:1797-3

> <Gold.Version>
5.8.1

> <Gold.Id.Protein>
6NUR|6NUR_protein|mol2

> <Gold.PLP.Fitness>
36.4944

> <Gold.PLP.PLP>
-22.9995

> <Gold.PLP.part.hbond>
-5.0000

> <Gold.PLP.part.metal>
0.0000

> <Gold.PLP.part.buried>
-5.4386

> <Gold.PLP.part.nonpolar>
-14.9856

> <Gold.PLP.part.repulsive>
0.8363

> <Gold.PLP.ligand.clash>
0.0000

> <Gold.PLP.ligand.torsion>
1.2408

> <Gold.PLP.Chemscore.Hbond>
5.3245

> <Gold.PLP.Chemscore.CHOScore>
0.0000

> <Gold.PLP.Chemscore.Metal>
0.0000

> <Gold.Chemscore.Hbonds>
donor molecule, donor type, donor heavy atom, donor atom, acceptor molecule, acceptor atom, score
      P1  H  6896  6907       L1     8  1.00
      P1  H  6931  6943       L1     6  2.00
      P1  H  6934  6947       L1     4  1.00
      P1  H  7989  7998       L1    14  0.19
      P1  H  7997  8010       L1    14  0.99

> <Gold.PLP.Chemscore.Internal.Correction>
0.0030

> <Gold.Rescore>
     Score         DG    S(hbond)    S(metal)    S(lipo)     H(rot)  DE(clash)    DE(int)     intcor
     15.40     -16.95       2.98        0.00      34.77       1.00       0.16       1.38       ----

> <Gold.Chemscore.Fitness>
15.4043

> <Gold.Chemscore.DG>
-16.9451

> <Gold.Chemscore.ZeroCoef>
-5.4800

> <Gold.Chemscore.Hbond>
2.9813

> <Gold.Chemscore.Metal>
0.0000

> <Gold.Chemscore.Lipo>
34.7670

> <Gold.Chemscore.Internal_Hbond>
0.0000

> <Gold.Chemscore.DEClash>
0.1631

> <Gold.Chemscore.DEInternal>
1.3777

> <Gold.Chemscore.Rot>
1.0000

> <Gold.Chemscore.Internal.Correction>
   9.000000E+99

> <Gold.Chemscore.Hbonds>
donor molecule, donor type, donor heavy atom, donor atom, acceptor molecule, acceptor atom, score
      P1  H  6896  6907       L1     8  0.62
      P1  H  6931  6943       L1     6  0.21
      P1  H  6934  6947       L1     4  0.44
      P1  H  7989  7998       L1    14  0.16
      P1  H  7997  8010       L1    14  0.51

> <Gold.Chemscore.Hbond.Weighted>
-9.9574

> <Gold.Chemscore.Metal.Weighted>
-0.0000

> <Gold.Chemscore.Lipo.Weighted>
-4.0677

> <Gold.Chemscore.Internal_Hbond.Weighted>
0.0000

> <Gold.Chemscore.DEClash.Weighted>
0.1631

> <Gold.Chemscore.DEInternal.Weighted>
1.3777

> <Gold.Chemscore.Rot.Weighted>
2.5600

> <Gold.Chemscore.Internal.Correction.Weighted>
   9.000000E+99

> <Gold.Protein.RotatedTorsions>
[ 6907 6896 6895 6894 ] final  -79.42 input  -60.11 | X-H torsion
[ 7974 7965 7964 7962 ] final  -38.24 input  175.53 | X-H torsion
[ 8008 7997 7996 7995 ] final  111.49 input   59.86 | X-H torsion
[ 10167 10162 10161 10158 ] final   43.88 input  -65.29 | X-H torsion
[ 10718 10713 10712 10709 ] final -162.58 input   66.30 | X-H torsion
[ 10763 10752 10751 10750 ] final   52.34 input  -60.55 | X-H torsion
[ 11005 11000 10999 10996 ] final  -46.80 input  -57.11 | X-H torsion

> <Gold.Protein.ActiveResidues>
 VAL166  LYS551  ARG553  GLY616  TRP617  ASP618  TYR619  PRO620  LYS621  CYS622 
 ASP623  PHE694  ASN695  SER759  ASP760  ASP761  ALA762  ILE779  LEU786  VAL792 
 PHE793  MET794  SER795  GLU796  ALA797  LYS798  CYS799  TRP800  GLU811  SER814 

> <Gold.Protein.RotatedAtoms>
  150.6950  134.4124  159.5167 H   0  0  0  0  0  0  0  0  0  0  0  0  # atno 6907 bound_to 6896
  152.1881  134.8693  160.0529 H   0  0  0  0  0  0  0  0  0  0  0  0  # atno 6908 bound_to 6896
  151.9659  133.3675  159.4090 H   0  0  0  0  0  0  0  0  0  0  0  0  # atno 6909 bound_to 6896
  146.0504  140.6489  142.9045 H   0  0  0  0  0  0  0  0  0  0  0  0  # atno 7974 bound_to 7965
  156.2127  140.3018  155.9769 H   0  0  0  0  0  0  0  0  0  0  0  0  # atno 8008 bound_to 7997
  155.2683  140.0432  157.3021 H   0  0  0  0  0  0  0  0  0  0  0  0  # atno 8009 bound_to 7997
  154.5723  140.2351  155.8182 H   0  0  0  0  0  0  0  0  0  0  0  0  # atno 8010 bound_to 7997
  140.3399  144.2483  150.6157 H   0  0  0  0  0  0  0  0  0  0  0  0  # atno 10167 bound_to 10162
  156.6124  130.8856  151.2939 H   0  0  0  0  0  0  0  0  0  0  0  0  # atno 10718 bound_to 10713
  152.9788  135.5816  154.4562 H   0  0  0  0  0  0  0  0  0  0  0  0  # atno 10763 bound_to 10752
  154.4144  135.2770  155.2018 H   0  0  0  0  0  0  0  0  0  0  0  0  # atno 10764 bound_to 10752
  154.3793  135.6150  153.5836 H   0  0  0  0  0  0  0  0  0  0  0  0  # atno 10765 bound_to 10752
  141.0601  133.6712  156.3206 H   0  0  0  0  0  0  0  0  0  0  0  0  # atno 11005 bound_to 11000
  144.7119  140.4071  143.7074 LP  0  0  0  0  0  0  0  0  0  0  0  0  # atno 17320 bound_to 7965
  145.6734  139.1604  143.2741 LP  0  0  0  0  0  0  0  0  0  0  0  0  # atno 17321 bound_to 7965
  140.5318  143.2241  151.8226 LP  0  0  0  0  0  0  0  0  0  0  0  0  # atno 17342 bound_to 10162
  139.4842  144.4710  151.9425 LP  0  0  0  0  0  0  0  0  0  0  0  0  # atno 17343 bound_to 10162
  157.7250  130.9610  150.1598 LP  0  0  0  0  0  0  0  0  0  0  0  0  # atno 17370 bound_to 10713
  156.2378  130.3688  149.8371 LP  0  0  0  0  0  0  0  0  0  0  0  0  # atno 17371 bound_to 10713
  140.5885  134.5674  157.5494 LP  0  0  0  0  0  0  0  0  0  0  0  0  # atno 17394 bound_to 11000
  139.9425  134.7761  156.0643 LP  0  0  0  0  0  0  0  0  0  0  0  0  # atno 17395 bound_to 11000

$$$$
