AV-unprocessed.smi:651|AV-procd|sdf|3185|dock6
  -GOLD-   22720 0113D 1   1.00000     0.00000
 Structure written by MMmdl.
 38 39  0  0  0  0  0  0  0  0  1 V2000
  153.2948  142.9982  163.4675 C   0  0  0  0  0  0  0  0  0  0  0  0
  152.8933  143.0282  162.0078 C   0  0  0  0  0  0  0  0  0  0  0  0
  153.2319  141.9670  161.1419 C   0  0  0  0  0  0  0  0  0  0  0  0
  152.8317  142.0473  159.7941 C   0  0  0  0  0  0  0  0  0  0  0  0
  152.1108  143.1811  159.3651 C   0  0  0  0  0  0  0  0  0  0  0  0
  151.6456  143.3117  157.9242 C   0  0  0  0  0  0  0  0  0  0  0  0
  150.4939  142.3498  157.6194 C   0  0  0  0  0  0  0  0  0  0  0  0
  149.4274  142.4588  158.2236 O   0  0  0  0  0  0  0  0  0  0  0  0
  150.7252  141.4006  156.6987 N   0  0  0  0  0  0  0  0  0  0  0  0
  149.7667  140.3795  156.2753 C   0  0  1  0  0  0  0  0  0  0  0  0
  149.0085  140.8227  155.0095 C   0  0  0  0  0  0  0  0  0  0  0  0
  148.9421  139.6048  154.0797 C   0  0  0  0  0  0  0  0  0  0  0  0
  149.4203  138.4146  154.9152 C   0  0  0  0  0  0  0  0  0  0  0  0
  150.3921  138.9959  155.9533 C   0  0  1  0  0  0  0  0  0  0  0  0
  151.8324  139.0404  155.3976 C   0  0  0  0  0  0  0  0  0  0  0  0
  152.3734  137.8773  155.0264 N   0  0  0  0  0  0  0  0  0  0  0  0
  152.4500  140.1005  155.3107 O   0  0  0  0  0  0  0  0  0  0  0  0
  151.8284  144.1896  160.3112 C   0  0  0  0  0  0  0  0  0  0  0  0
  152.2068  144.1201  161.6052 N   0  0  0  0  0  0  0  0  0  0  0  0
  153.6249  142.0023  163.7648 H   0  0  0  0  0  0  0  0  0  0  0  0
  152.4542  143.2795  164.1025 H   0  0  0  0  0  0  0  0  0  0  0  0
  154.1113  143.6977  163.6479 H   0  0  0  0  0  0  0  0  0  0  0  0
  153.7840  141.1101  161.4994 H   0  0  0  0  0  0  0  0  0  0  0  0
  153.0700  141.2506  159.1048 H   0  0  0  0  0  0  0  0  0  0  0  0
  151.3190  144.3336  157.7268 H   0  0  0  0  0  0  0  0  0  0  0  0
  152.4831  143.1121  157.2541 H   0  0  0  0  0  0  0  0  0  0  0  0
  151.6340  141.3816  156.2584 H   0  0  0  0  0  0  0  0  0  0  0  0
  149.0290  140.2399  157.0682 H   0  0  0  0  0  0  0  0  0  0  0  0
  148.0085  141.1706  155.2708 H   0  0  0  0  0  0  0  0  0  0  0  0
  149.5108  141.6471  154.5007 H   0  0  0  0  0  0  0  0  0  0  0  0
  147.9410  139.4455  153.6784 H   0  0  0  0  0  0  0  0  0  0  0  0
  149.6105  139.7540  153.2309 H   0  0  0  0  0  0  0  0  0  0  0  0
  148.5700  137.9664  155.4311 H   0  0  0  0  0  0  0  0  0  0  0  0
  149.8650  137.6340  154.2957 H   0  0  0  0  0  0  0  0  0  0  0  0
  150.3918  138.3744  156.8506 H   0  0  0  0  0  0  0  0  0  0  0  0
  153.3112  137.8532  154.6529 H   0  0  0  0  0  0  0  0  0  0  0  0
  151.8395  137.0251  155.1173 H   0  0  0  0  0  0  0  0  0  0  0  0
  151.2767  145.0731  160.0254 H   0  0  0  0  0  0  0  0  0  0  0  0
  1  2  1  0  0  0  0
  1 20  1  0  0  0  0
  1 21  1  0  0  0  0
  1 22  1  0  0  0  0
  2 19  1  0  0  0  0
  2  3  2  0  0  0  0
  3  4  1  0  0  0  0
  3 23  1  0  0  0  0
  4  5  2  0  0  0  0
  4 24  1  0  0  0  0
  5  6  1  0  0  0  0
  5 18  1  0  0  0  0
  6  7  1  0  0  0  0
  6 25  1  0  0  0  0
  6 26  1  0  0  0  0
  7  8  2  0  0  0  0
  7  9  1  0  0  0  0
  9 10  1  0  0  0  0
  9 27  1  0  0  0  0
 10 14  1  0  0  0  0
 10 11  1  0  0  0  0
 10 28  1  0  0  0  0
 11 12  1  0  0  0  0
 11 29  1  0  0  0  0
 11 30  1  0  0  0  0
 12 13  1  0  0  0  0
 12 31  1  0  0  0  0
 12 32  1  0  0  0  0
 13 14  1  0  0  0  0
 13 33  1  0  0  0  0
 13 34  1  0  0  0  0
 14 15  1  0  0  0  0
 14 35  1  0  0  0  0
 15 16  1  0  0  0  0
 15 17  2  0  0  0  0
 16 36  1  0  0  0  0
 16 37  1  0  0  0  0
 18 19  2  0  0  0  0
 18 38  1  0  0  0  0
M  END
> <s_m_source_file>
AV-unprocessed.smi

> <i_m_source_file_index>
651

> <i_lp_mmshare_version>
43012

> <i_f3d_flags>
0

> <s_epik_input>
W0NIM11jMVtjSF1bY0hdYyhbY0hdbjEpW0NIMl1DKD1PKVtOSF1bQ0BASF0yW0NIMl1bQ0gyXVtDSDJdW0NASF0yQyg9TylbTkgyXQ==

> <s_epik_cmdline>
J2VwaWtfcHl0aG9uJywgJy1waCcsICc3LjAnLCAnLXRuJywgJzgnLCAnLW1hJywgJzIwMCcsICctbWV0YWxfYmluZGluZycsICctaW1hZScsICc8aW5maWxlLm1hZT4nLCAnLW9tYWUnLCAnPG91dGZpbGUubWFlPic=

> <r_epik_Ionization_Penalty>
0.0159502

> <r_epik_Ionization_Penalty_Charging>
0

> <r_epik_Ionization_Penalty_Neutral>
0.0159502

> <r_epik_State_Penalty>
0.012563

> <r_epik_Charging_Adjusted_Penalty>
0.012563

> <i_epik_Tot_Q>
0

> <i_epik_Tot_abs_Q>
0

> <r_epik_Metal_State_Penalty>
0.0122326

> <b_epik_Metal_Only>
0

> <s_lp_Force_Field>
OPLS_2005

> <r_lp_Energy>
12.2285

> <b_lp_Chiralities_Consistent>
1

> <s_lp_Variant>
AV-unprocessed.smi:651-2

> <Gold.Version>
5.8.1

> <Gold.Id.Protein>
6NUR|6NUR_protein|mol2

> <Gold.PLP.Fitness>
43.1501

> <Gold.PLP.PLP>
-39.6577

> <Gold.PLP.part.hbond>
-2.0000

> <Gold.PLP.part.metal>
0.0000

> <Gold.PLP.part.buried>
-3.0283

> <Gold.PLP.part.nonpolar>
-35.7290

> <Gold.PLP.part.repulsive>
0.6708

> <Gold.PLP.ligand.clash>
0.0000

> <Gold.PLP.ligand.torsion>
0.5059

> <Gold.PLP.Chemscore.Hbond>
1.4929

> <Gold.PLP.Chemscore.CHOScore>
0.0000

> <Gold.PLP.Chemscore.Metal>
0.0000

> <Gold.Chemscore.Hbonds>
donor molecule, donor type, donor heavy atom, donor atom, acceptor molecule, acceptor atom, score
      P1  H  7989  7998       L1    17  0.48
      P1  H  7997  8010       L1    17  0.89

> <Gold.PLP.Chemscore.Internal.Correction>
0.0257

> <Gold.Rescore>
     Score         DG    S(hbond)    S(metal)    S(lipo)     H(rot)  DE(clash)    DE(int)     intcor
     13.13     -15.27       0.93        0.00     100.16       1.97       0.01       2.13       ----

> <Gold.Chemscore.Fitness>
13.1311

> <Gold.Chemscore.DG>
-15.2716

> <Gold.Chemscore.ZeroCoef>
-5.4800

> <Gold.Chemscore.Hbond>
0.9333

> <Gold.Chemscore.Metal>
0.0000

> <Gold.Chemscore.Lipo>
100.1592

> <Gold.Chemscore.Internal_Hbond>
0.0000

> <Gold.Chemscore.DEClash>
0.0075

> <Gold.Chemscore.DEInternal>
2.1330

> <Gold.Chemscore.Rot>
1.9704

> <Gold.Chemscore.Internal.Correction>
   9.000000E+99

> <Gold.Chemscore.Hbonds>
donor molecule, donor type, donor heavy atom, donor atom, acceptor molecule, acceptor atom, score
      P1  H  7989  7998       L1    17  0.14
      P1  H  7997  8010       L1    17  0.83

> <Gold.Chemscore.Hbond.Weighted>
-3.1172

> <Gold.Chemscore.Metal.Weighted>
-0.0000

> <Gold.Chemscore.Lipo.Weighted>
-11.7186

> <Gold.Chemscore.Internal_Hbond.Weighted>
0.0000

> <Gold.Chemscore.DEClash.Weighted>
0.0075

> <Gold.Chemscore.DEInternal.Weighted>
2.1330

> <Gold.Chemscore.Rot.Weighted>
5.0443

> <Gold.Chemscore.Internal.Correction.Weighted>
   9.000000E+99

> <Gold.Protein.RotatedTorsions>
[ 6907 6896 6895 6894 ] final  -91.74 input  -60.11 | X-H torsion
[ 7974 7965 7964 7962 ] final  -44.36 input  175.53 | X-H torsion
[ 8008 7997 7996 7995 ] final   90.98 input   59.86 | X-H torsion
[ 10167 10162 10161 10158 ] final -141.17 input  -65.29 | X-H torsion
[ 10718 10713 10712 10709 ] final   53.17 input   66.30 | X-H torsion
[ 10763 10752 10751 10750 ] final  103.38 input  -60.55 | X-H torsion
[ 11005 11000 10999 10996 ] final  -28.19 input  -57.11 | X-H torsion

> <Gold.Protein.ActiveResidues>
 VAL166  LYS551  ARG553  GLY616  TRP617  ASP618  TYR619  PRO620  LYS621  CYS622 
 ASP623  PHE694  ASN695  SER759  ASP760  ASP761  ALA762  ILE779  LEU786  VAL792 
 PHE793  MET794  SER795  GLU796  ALA797  LYS798  CYS799  TRP800  GLU811  SER814 

> <Gold.Protein.RotatedAtoms>
  150.6896  134.2230  159.4403 H   0  0  0  0  0  0  0  0  0  0  0  0  # atno 6907 bound_to 6896
  152.0185  134.9834  160.0579 H   0  0  0  0  0  0  0  0  0  0  0  0  # atno 6908 bound_to 6896
  152.1420  133.4435  159.4808 H   0  0  0  0  0  0  0  0  0  0  0  0  # atno 6909 bound_to 6896
  145.9928  140.7162  142.9308 H   0  0  0  0  0  0  0  0  0  0  0  0  # atno 7974 bound_to 7965
  156.0183  140.3343  155.7012 H   0  0  0  0  0  0  0  0  0  0  0  0  # atno 8008 bound_to 7997
  155.6059  140.0660  157.2738 H   0  0  0  0  0  0  0  0  0  0  0  0  # atno 8009 bound_to 7997
  154.4306  140.1802  156.1209 H   0  0  0  0  0  0  0  0  0  0  0  0  # atno 8010 bound_to 7997
  139.8211  143.7573  152.2666 H   0  0  0  0  0  0  0  0  0  0  0  0  # atno 10167 bound_to 10162
  157.5142  130.8521  149.8474 H   0  0  0  0  0  0  0  0  0  0  0  0  # atno 10718 bound_to 10713
  153.3519  135.3979  155.1652 H   0  0  0  0  0  0  0  0  0  0  0  0  # atno 10763 bound_to 10752
  154.8664  135.3658  154.5211 H   0  0  0  0  0  0  0  0  0  0  0  0  # atno 10764 bound_to 10752
  153.5663  135.7080  153.5584 H   0  0  0  0  0  0  0  0  0  0  0  0  # atno 10765 bound_to 10752
  140.9186  133.7413  156.0770 H   0  0  0  0  0  0  0  0  0  0  0  0  # atno 11005 bound_to 11000
  144.6894  140.3099  143.7250 LP  0  0  0  0  0  0  0  0  0  0  0  0  # atno 17320 bound_to 7965
  145.7605  139.1823  143.2270 LP  0  0  0  0  0  0  0  0  0  0  0  0  # atno 17321 bound_to 7965
  139.7751  144.7463  151.0168 LP  0  0  0  0  0  0  0  0  0  0  0  0  # atno 17342 bound_to 10162
  140.7813  143.4602  151.0288 LP  0  0  0  0  0  0  0  0  0  0  0  0  # atno 17343 bound_to 10162
  156.0309  130.3765  150.1690 LP  0  0  0  0  0  0  0  0  0  0  0  0  # atno 17370 bound_to 10713
  156.9880  130.9884  151.3421 LP  0  0  0  0  0  0  0  0  0  0  0  0  # atno 17371 bound_to 10713
  140.8017  134.3501  157.5437 LP  0  0  0  0  0  0  0  0  0  0  0  0  # atno 17394 bound_to 11000
  139.8771  134.9201  156.3244 LP  0  0  0  0  0  0  0  0  0  0  0  0  # atno 17395 bound_to 11000

$$$$
