AV-unprocessed.smi:3170|AV-procd|sdf|12109|dock1
  -GOLD-   2272017543D 1   1.00000     0.00000
 Structure written by MMmdl.
 35 36  0  0  0  0  0  0  0  0  1 V2000
  146.1377  138.3050  154.6984 O   0  0  0  0  0  0  0  0  0  0  0  0
  146.9436  137.7775  153.9317 C   0  0  0  0  0  0  0  0  0  0  0  0
  146.6033  136.9412  152.9419 N   0  0  0  0  0  0  0  0  0  0  0  0
  145.2364  136.5843  152.5734 C   0  0  0  0  0  0  0  0  0  0  0  0
  145.1149  136.1396  151.1018 C   0  0  0  0  0  0  0  0  0  0  0  0
  145.3250  134.7132  150.9362 N   0  0  0  0  0  0  0  0  0  0  0  0
  146.4690  133.9908  151.2471 C   0  0  0  0  0  0  0  0  0  0  0  0
  146.2092  132.6810  150.9114 C   0  0  0  0  0  0  0  0  0  0  0  0
  144.9193  132.5753  150.3962 N   0  0  0  0  0  0  0  0  0  0  0  0
  144.4566  133.8177  150.4455 C   0  0  0  0  0  0  0  0  0  0  0  0
  148.2648  137.9968  153.9620 N   0  0  0  0  0  0  0  0  0  0  0  0
  148.9342  138.9412  154.8496 C   0  0  0  0  0  0  0  0  0  0  0  0
  150.4275  139.0950  154.5001 C   0  0  2  0  0  0  0  0  0  0  0  0
  151.2403  137.8185  154.5989 C   0  0  0  0  0  0  0  0  0  0  0  0
  152.6628  138.3626  154.6767 C   0  0  0  0  0  0  0  0  0  0  0  0
  152.5626  139.6084  155.3613 O   0  0  0  0  0  0  0  0  0  0  0  0
  151.1985  140.0118  155.4492 C   0  0  0  0  0  0  0  0  0  0  0  0
  147.3409  136.5616  152.3664 H   0  0  0  0  0  0  0  0  0  0  0  0
  144.9078  135.7797  153.2317 H   0  0  0  0  0  0  0  0  0  0  0  0
  144.5744  137.4299  152.7654 H   0  0  0  0  0  0  0  0  0  0  0  0
  144.1239  136.3861  150.7198 H   0  0  0  0  0  0  0  0  0  0  0  0
  145.8285  136.6748  150.4741 H   0  0  0  0  0  0  0  0  0  0  0  0
  147.3491  134.4557  151.6663 H   0  0  0  0  0  0  0  0  0  0  0  0
  146.8467  131.8136  150.9988 H   0  0  0  0  0  0  0  0  0  0  0  0
  143.4658  134.0848  150.1079 H   0  0  0  0  0  0  0  0  0  0  0  0
  148.8439  137.5138  153.2908 H   0  0  0  0  0  0  0  0  0  0  0  0
  148.4338  139.9101  154.8087 H   0  0  0  0  0  0  0  0  0  0  0  0
  148.8223  138.5796  155.8721 H   0  0  0  0  0  0  0  0  0  0  0  0
  150.5278  139.4905  153.4879 H   0  0  0  0  0  0  0  0  0  0  0  0
  150.9946  137.2790  155.5150 H   0  0  0  0  0  0  0  0  0  0  0  0
  151.0907  137.1451  153.7542 H   0  0  0  0  0  0  0  0  0  0  0  0
  153.3443  137.6800  155.1848 H   0  0  0  0  0  0  0  0  0  0  0  0
  153.0531  138.5478  153.6751 H   0  0  0  0  0  0  0  0  0  0  0  0
  151.0789  141.0659  155.1975 H   0  0  0  0  0  0  0  0  0  0  0  0
  150.8669  139.8713  156.4791 H   0  0  0  0  0  0  0  0  0  0  0  0
  1  2  2  0  0  0  0
  2  3  1  0  0  0  0
  2 11  1  0  0  0  0
  3  4  1  0  0  0  0
  3 18  1  0  0  0  0
  4  5  1  0  0  0  0
  4 19  1  0  0  0  0
  4 20  1  0  0  0  0
  5  6  1  0  0  0  0
  5 21  1  0  0  0  0
  5 22  1  0  0  0  0
  6 10  1  0  0  0  0
  6  7  1  0  0  0  0
  7  8  2  0  0  0  0
  7 23  1  0  0  0  0
  8  9  1  0  0  0  0
  8 24  1  0  0  0  0
  9 10  2  0  0  0  0
 10 25  1  0  0  0  0
 11 12  1  0  0  0  0
 11 26  1  0  0  0  0
 12 13  1  0  0  0  0
 12 27  1  0  0  0  0
 12 28  1  0  0  0  0
 13 17  1  0  0  0  0
 13 14  1  0  0  0  0
 13 29  1  0  0  0  0
 14 15  1  0  0  0  0
 14 30  1  0  0  0  0
 14 31  1  0  0  0  0
 15 16  1  0  0  0  0
 15 32  1  0  0  0  0
 15 33  1  0  0  0  0
 16 17  1  0  0  0  0
 17 34  1  0  0  0  0
 17 35  1  0  0  0  0
M  END
> <s_m_source_file>
AV-unprocessed.smi

> <i_m_source_file_index>
3170

> <i_lp_mmshare_version>
43012

> <i_f3d_flags>
0

> <s_epik_input>
W0NIMl0xT1tDSDJdW0NIMl1bQ0BIXTFbQ0gyXVtOSF1DKD1PKVtOSF1bQ0gyXVtDSDJdbjJbY0hdW2NIXW5bY0hdMg==

> <s_epik_cmdline>
J2VwaWtfcHl0aG9uJywgJy1waCcsICc3LjAnLCAnLXRuJywgJzgnLCAnLW1hJywgJzIwMCcsICctbWV0YWxfYmluZGluZycsICctaW1hZScsICc8aW5maWxlLm1hZT4nLCAnLW9tYWUnLCAnPG91dGZpbGUubWFlPic=

> <r_lp_tautomer_probability>
1

> <r_epik_Ionization_Penalty>
0.621287

> <r_epik_Ionization_Penalty_Charging>
0.621234

> <r_epik_Ionization_Penalty_Neutral>
5.30999e-05

> <r_epik_State_Penalty>
0.637278

> <r_epik_Charging_Adjusted_Penalty>
1.25851

> <i_epik_Tot_Q>
0

> <i_epik_Tot_abs_Q>
0

> <r_epik_Metal_State_Penalty>
0.306756

> <b_epik_Metal_Only>
0

> <s_lp_Force_Field>
OPLS_2005

> <r_lp_Energy>
17.5777

> <b_lp_Chiralities_Consistent>
1

> <s_lp_Variant>
AV-unprocessed.smi:3170-3

> <Gold.Version>
5.8.1

> <Gold.Id.Protein>
6NUR|6NUR_protein|mol2

> <Gold.PLP.Fitness>
48.2301

> <Gold.PLP.PLP>
-31.0020

> <Gold.PLP.part.hbond>
-3.8687

> <Gold.PLP.part.metal>
0.0000

> <Gold.PLP.part.buried>
-2.3147

> <Gold.PLP.part.nonpolar>
-26.0106

> <Gold.PLP.part.repulsive>
0.2455

> <Gold.PLP.ligand.clash>
0.0000

> <Gold.PLP.ligand.torsion>
0.3861

> <Gold.PLP.Chemscore.Hbond>
2.9833

> <Gold.PLP.Chemscore.CHOScore>
3.0000

> <Gold.PLP.Chemscore.Metal>
0.0000

> <Gold.Chemscore.Hbonds>
donor molecule, donor type, donor heavy atom, donor atom, acceptor molecule, acceptor atom, score
      L1  H     3    18       P1  7948  1.00
      L1  H    11    26       P1  7948  0.98
      P1  H  7997  8008       L1    16  1.00
      L1  C     7    23       P1  7948  1.00
      L1  C     8    24       P1 10747  1.00
      L1  C    10    25       P1 10186  0.98

> <Gold.PLP.Chemscore.Internal.Correction>
0.0504

> <Gold.Rescore>
     Score         DG    S(hbond)    S(metal)    S(lipo)     H(rot)  DE(clash)    DE(int)     intcor
     16.06     -16.51       2.88        0.00      61.31       2.25       0.08       0.37       ----

> <Gold.Chemscore.Fitness>
16.0647

> <Gold.Chemscore.DG>
-16.5136

> <Gold.Chemscore.ZeroCoef>
-5.4800

> <Gold.Chemscore.Hbond>
2.8783

> <Gold.Chemscore.Metal>
0.0000

> <Gold.Chemscore.Lipo>
61.3105

> <Gold.Chemscore.Internal_Hbond>
0.0000

> <Gold.Chemscore.DEClash>
0.0764

> <Gold.Chemscore.DEInternal>
0.3724

> <Gold.Chemscore.Rot>
2.2474

> <Gold.Chemscore.Internal.Correction>
   9.000000E+99

> <Gold.Chemscore.Hbonds>
donor molecule, donor type, donor heavy atom, donor atom, acceptor molecule, acceptor atom, score
      L1  H     3    18       P1  7948  0.99
      L1  H    11    26       P1  7948  0.93
      P1  H  7997  8008       L1    16  0.65

> <Gold.Chemscore.Hbond.Weighted>
-9.6135

> <Gold.Chemscore.Metal.Weighted>
-0.0000

> <Gold.Chemscore.Lipo.Weighted>
-7.1733

> <Gold.Chemscore.Internal_Hbond.Weighted>
0.0000

> <Gold.Chemscore.DEClash.Weighted>
0.0764

> <Gold.Chemscore.DEInternal.Weighted>
0.3724

> <Gold.Chemscore.Rot.Weighted>
5.7532

> <Gold.Chemscore.Internal.Correction.Weighted>
   9.000000E+99

> <Gold.Protein.RotatedTorsions>
[ 6907 6896 6895 6894 ] final  139.72 input  -60.11 | X-H torsion
[ 7974 7965 7964 7962 ] final  105.41 input  175.53 | X-H torsion
[ 8008 7997 7996 7995 ] final  -22.65 input   59.86 | X-H torsion
[ 10167 10162 10161 10158 ] final   73.58 input  -65.29 | X-H torsion
[ 10718 10713 10712 10709 ] final  -42.46 input   66.30 | X-H torsion
[ 10763 10752 10751 10750 ] final  -66.25 input  -60.55 | X-H torsion
[ 11005 11000 10999 10996 ] final   55.84 input  -57.11 | X-H torsion

> <Gold.Protein.ActiveResidues>
 VAL166  LYS551  ARG553  GLY616  TRP617  ASP618  TYR619  PRO620  LYS621  CYS622 
 ASP623  PHE694  ASN695  SER759  ASP760  ASP761  ALA762  ILE779  LEU786  VAL792 
 PHE793  MET794  SER795  GLU796  ALA797  LYS798  CYS799  TRP800  GLU811  SER814 

> <Gold.Protein.RotatedAtoms>
  152.2516  133.5219  159.5328 H   0  0  0  0  0  0  0  0  0  0  0  0  # atno 6907 bound_to 6896
  150.7095  134.0953  159.3955 H   0  0  0  0  0  0  0  0  0  0  0  0  # atno 6908 bound_to 6896
  151.8872  135.0430  160.0545 H   0  0  0  0  0  0  0  0  0  0  0  0  # atno 6909 bound_to 6896
  145.3201  139.2515  143.3716 H   0  0  0  0  0  0  0  0  0  0  0  0  # atno 7974 bound_to 7965
  154.4632  140.2002  156.0189 H   0  0  0  0  0  0  0  0  0  0  0  0  # atno 8008 bound_to 7997
  156.0878  140.3262  155.7747 H   0  0  0  0  0  0  0  0  0  0  0  0  # atno 8009 bound_to 7997
  155.5006  140.0553  157.2930 H   0  0  0  0  0  0  0  0  0  0  0  0  # atno 8010 bound_to 7997
  140.0229  144.5526  150.7567 H   0  0  0  0  0  0  0  0  0  0  0  0  # atno 10167 bound_to 10162
  156.2594  130.4195  149.8560 H   0  0  0  0  0  0  0  0  0  0  0  0  # atno 10718 bound_to 10713
  154.3570  135.6124  153.5671 H   0  0  0  0  0  0  0  0  0  0  0  0  # atno 10763 bound_to 10752
  152.9795  135.5806  154.4677 H   0  0  0  0  0  0  0  0  0  0  0  0  # atno 10764 bound_to 10752
  154.4408  135.2850  155.1826 H   0  0  0  0  0  0  0  0  0  0  0  0  # atno 10765 bound_to 10752
  140.0575  134.5649  155.9190 H   0  0  0  0  0  0  0  0  0  0  0  0  # atno 11005 bound_to 11000
  146.3085  140.3756  142.8678 LP  0  0  0  0  0  0  0  0  0  0  0  0  # atno 17320 bound_to 7965
  144.8946  140.7567  143.5905 LP  0  0  0  0  0  0  0  0  0  0  0  0  # atno 17321 bound_to 7965
  140.7335  143.2717  151.3867 LP  0  0  0  0  0  0  0  0  0  0  0  0  # atno 17342 bound_to 10162
  139.6127  144.1065  152.2315 LP  0  0  0  0  0  0  0  0  0  0  0  0  # atno 17343 bound_to 10162
  156.6080  130.8575  151.3447 LP  0  0  0  0  0  0  0  0  0  0  0  0  # atno 17370 bound_to 10713
  157.7245  130.9603  150.1575 LP  0  0  0  0  0  0  0  0  0  0  0  0  # atno 17371 bound_to 10713
  141.1959  133.6589  156.5663 LP  0  0  0  0  0  0  0  0  0  0  0  0  # atno 17394 bound_to 11000
  140.3821  134.7514  157.4667 LP  0  0  0  0  0  0  0  0  0  0  0  0  # atno 17395 bound_to 11000

$$$$
