AV-unprocessed.smi:2661|AV-procd|sdf|10317|dock2
  -GOLD-   2272014333D 1   1.00000     0.00000
 Structure written by MMmdl.
 44 46  0  0  0  0  0  0  0  0  1 V2000
  150.6512  130.2882  154.8349 C   0  0  0  0  0  0  0  0  0  0  0  0
  149.7241  131.3738  154.5464 N   0  0  0  0  0  0  0  0  0  0  0  0
  148.7156  131.2465  153.5091 C   0  0  0  0  0  0  0  0  0  0  0  0
  148.1641  132.6673  153.3265 C   0  0  0  0  0  0  0  0  0  0  0  0
  148.5836  133.4360  154.5944 C   0  0  2  0  0  0  0  0  0  0  0  0
  149.0589  134.7888  154.3115 N   0  0  0  0  0  0  0  0  0  0  0  0
  149.4852  135.6725  155.2249 C   0  0  0  0  0  0  0  0  0  0  0  0
  149.5534  135.4241  156.4285 O   0  0  0  0  0  0  0  0  0  0  0  0
  149.8387  136.8335  154.6472 N   0  0  0  0  0  0  0  0  0  0  0  0
  150.3270  138.0206  155.2583 C   0  0  0  0  0  0  0  0  0  0  0  0
  151.0387  139.0380  154.5811 C   0  0  0  0  0  0  0  0  0  0  0  0
  151.4829  140.1596  155.3073 C   0  0  0  0  0  0  0  0  0  0  0  0
  151.2167  140.2386  156.6948 C   0  0  0  0  0  0  0  0  0  0  0  0
  151.6531  141.3547  157.4421 N   0  0  0  0  0  0  0  0  0  0  0  0
  152.1613  141.0651  158.7809 C   0  0  0  0  0  0  0  0  0  0  0  0
  152.8836  142.2949  159.3580 C   0  0  0  0  0  0  0  0  0  0  0  0
  152.0161  143.4233  159.3284 O   0  0  0  0  0  0  0  0  0  0  0  0
  151.6261  143.7552  158.0001 C   0  0  0  0  0  0  0  0  0  0  0  0
  150.8558  142.5786  157.3772 C   0  0  0  0  0  0  0  0  0  0  0  0
  150.5392  139.2580  157.3408 N   0  0  0  0  0  0  0  0  0  0  0  0
  150.1162  138.1845  156.6416 C   0  0  0  0  0  0  0  0  0  0  0  0
  149.7032  132.5664  155.1502 C   0  0  0  0  0  0  0  0  0  0  0  0
  150.4615  132.9352  156.0469 O   0  0  0  0  0  0  0  0  0  0  0  0
  151.6765  130.5967  154.6270 H   0  0  0  0  0  0  0  0  0  0  0  0
  150.4304  129.4105  154.2268 H   0  0  0  0  0  0  0  0  0  0  0  0
  150.5857  129.9975  155.8841 H   0  0  0  0  0  0  0  0  0  0  0  0
  149.1362  130.8526  152.5831 H   0  0  0  0  0  0  0  0  0  0  0  0
  147.9354  130.5645  153.8502 H   0  0  0  0  0  0  0  0  0  0  0  0
  148.6148  133.1114  152.4371 H   0  0  0  0  0  0  0  0  0  0  0  0
  147.0835  132.6715  153.1802 H   0  0  0  0  0  0  0  0  0  0  0  0
  147.7707  133.4631  155.3219 H   0  0  0  0  0  0  0  0  0  0  0  0
  149.0510  135.0729  153.3426 H   0  0  0  0  0  0  0  0  0  0  0  0
  149.7965  136.8555  153.6387 H   0  0  0  0  0  0  0  0  0  0  0  0
  151.2624  138.9814  153.5276 H   0  0  0  0  0  0  0  0  0  0  0  0
  152.0099  140.9470  154.7895 H   0  0  0  0  0  0  0  0  0  0  0  0
  151.3229  140.7907  159.4226 H   0  0  0  0  0  0  0  0  0  0  0  0
  152.8488  140.2206  158.7804 H   0  0  0  0  0  0  0  0  0  0  0  0
  153.1817  142.1044  160.3890 H   0  0  0  0  0  0  0  0  0  0  0  0
  153.7954  142.5085  158.7976 H   0  0  0  0  0  0  0  0  0  0  0  0
  150.9960  144.6443  158.0261 H   0  0  0  0  0  0  0  0  0  0  0  0
  152.5048  144.0049  157.4032 H   0  0  0  0  0  0  0  0  0  0  0  0
  150.6115  142.8166  156.3411 H   0  0  0  0  0  0  0  0  0  0  0  0
  149.9153  142.4254  157.9081 H   0  0  0  0  0  0  0  0  0  0  0  0
  149.5864  137.4326  157.2082 H   0  0  0  0  0  0  0  0  0  0  0  0
  1  2  1  0  0  0  0
  1 24  1  0  0  0  0
  1 25  1  0  0  0  0
  1 26  1  0  0  0  0
  2 22  1  0  0  0  0
  2  3  1  0  0  0  0
  3  4  1  0  0  0  0
  3 27  1  0  0  0  0
  3 28  1  0  0  0  0
  4  5  1  0  0  0  0
  4 29  1  0  0  0  0
  4 30  1  0  0  0  0
  5  6  1  0  0  0  0
  5 22  1  0  0  0  0
  5 31  1  0  0  0  0
  6  7  1  0  0  0  0
  6 32  1  0  0  0  0
  7  8  2  0  0  0  0
  7  9  1  0  0  0  0
  9 10  1  0  0  0  0
  9 33  1  0  0  0  0
 10 21  1  0  0  0  0
 10 11  2  0  0  0  0
 11 12  1  0  0  0  0
 11 34  1  0  0  0  0
 12 13  2  0  0  0  0
 12 35  1  0  0  0  0
 13 14  1  0  0  0  0
 13 20  1  0  0  0  0
 14 19  1  0  0  0  0
 14 15  1  0  0  0  0
 15 16  1  0  0  0  0
 15 36  1  0  0  0  0
 15 37  1  0  0  0  0
 16 17  1  0  0  0  0
 16 38  1  0  0  0  0
 16 39  1  0  0  0  0
 17 18  1  0  0  0  0
 18 19  1  0  0  0  0
 18 40  1  0  0  0  0
 18 41  1  0  0  0  0
 19 42  1  0  0  0  0
 19 43  1  0  0  0  0
 20 21  2  0  0  0  0
 21 44  1  0  0  0  0
 22 23  2  0  0  0  0
M  END
> <s_m_source_file>
AV-unprocessed.smi

> <i_m_source_file_index>
2661

> <i_lp_mmshare_version>
43012

> <i_f3d_flags>
0

> <s_epik_input>
W0NIM11OMVtDSDJdW0NIMl1bQ0BIXShDMT1PKVtOSF1DKD1PKVtOSF1jMltjSF1bY0hdYyhuW2NIXTIpTjNbQ0gyXVtDSDJdT1tDSDJdW0NIMl0z

> <s_epik_cmdline>
J2VwaWtfcHl0aG9uJywgJy1waCcsICc3LjAnLCAnLXRuJywgJzgnLCAnLW1hJywgJzIwMCcsICctbWV0YWxfYmluZGluZycsICctaW1hZScsICc8aW5maWxlLm1hZT4nLCAnLW9tYWUnLCAnPG91dGZpbGUubWFlPic=

> <r_lp_tautomer_probability>
1

> <r_epik_Ionization_Penalty>
0.00172037

> <r_epik_Ionization_Penalty_Charging>
0

> <r_epik_Ionization_Penalty_Neutral>
0.00172037

> <r_epik_State_Penalty>
0.00114015

> <r_epik_Charging_Adjusted_Penalty>
0.00114015

> <i_epik_Tot_Q>
0

> <i_epik_Tot_abs_Q>
0

> <r_epik_Metal_State_Penalty>
-0

> <b_epik_Metal_Only>
0

> <s_lp_Force_Field>
OPLS_2005

> <r_lp_Energy>
33.1579

> <b_lp_Chiralities_Consistent>
1

> <s_lp_Variant>
AV-unprocessed.smi:2661-2

> <Gold.Version>
5.8.1

> <Gold.Id.Protein>
6NUR|6NUR_protein|mol2

> <Gold.PLP.Fitness>
43.2744

> <Gold.PLP.PLP>
-38.2524

> <Gold.PLP.part.hbond>
-2.0000

> <Gold.PLP.part.metal>
0.0000

> <Gold.PLP.part.buried>
-2.1464

> <Gold.PLP.part.nonpolar>
-34.4133

> <Gold.PLP.part.repulsive>
0.0724

> <Gold.PLP.ligand.clash>
0.0000

> <Gold.PLP.ligand.torsion>
0.6704

> <Gold.PLP.Chemscore.Hbond>
2.0000

> <Gold.PLP.Chemscore.CHOScore>
0.0000

> <Gold.PLP.Chemscore.Metal>
0.0000

> <Gold.Chemscore.Hbonds>
donor molecule, donor type, donor heavy atom, donor atom, acceptor molecule, acceptor atom, score
      L1  H     6    32       P1  7948  1.00
      L1  H     9    33       P1  7948  1.00

> <Gold.PLP.Chemscore.Internal.Correction>
0.3627

> <Gold.Rescore>
     Score         DG    S(hbond)    S(metal)    S(lipo)     H(rot)  DE(clash)    DE(int)     intcor
     14.22     -17.42       1.88        0.00      75.95       1.26       0.05       3.15       ----

> <Gold.Chemscore.Fitness>
14.2217

> <Gold.Chemscore.DG>
-17.4216

> <Gold.Chemscore.ZeroCoef>
-5.4800

> <Gold.Chemscore.Hbond>
1.8832

> <Gold.Chemscore.Metal>
0.0000

> <Gold.Chemscore.Lipo>
75.9521

> <Gold.Chemscore.Internal_Hbond>
0.0000

> <Gold.Chemscore.DEClash>
0.0515

> <Gold.Chemscore.DEInternal>
3.1483

> <Gold.Chemscore.Rot>
1.2636

> <Gold.Chemscore.Internal.Correction>
   9.000000E+99

> <Gold.Chemscore.Hbonds>
donor molecule, donor type, donor heavy atom, donor atom, acceptor molecule, acceptor atom, score
      L1  H     6    32       P1  7948  0.25
      L1  H     9    33       P1  7948  0.50

> <Gold.Chemscore.Hbond.Weighted>
-6.2900

> <Gold.Chemscore.Metal.Weighted>
-0.0000

> <Gold.Chemscore.Lipo.Weighted>
-8.8864

> <Gold.Chemscore.Internal_Hbond.Weighted>
0.0000

> <Gold.Chemscore.DEClash.Weighted>
0.0515

> <Gold.Chemscore.DEInternal.Weighted>
3.1483

> <Gold.Chemscore.Rot.Weighted>
3.2348

> <Gold.Chemscore.Internal.Correction.Weighted>
   9.000000E+99

> <Gold.Protein.RotatedTorsions>
[ 6907 6896 6895 6894 ] final  -94.79 input  -60.11 | X-H torsion
[ 7974 7965 7964 7962 ] final -150.29 input  175.53 | X-H torsion
[ 8008 7997 7996 7995 ] final  -18.88 input   59.86 | X-H torsion
[ 10167 10162 10161 10158 ] final   23.10 input  -65.29 | X-H torsion
[ 10718 10713 10712 10709 ] final  -57.36 input   66.30 | X-H torsion
[ 10763 10752 10751 10750 ] final   75.21 input  -60.55 | X-H torsion
[ 11005 11000 10999 10996 ] final -163.99 input  -57.11 | X-H torsion

> <Gold.Protein.ActiveResidues>
 VAL166  LYS551  ARG553  GLY616  TRP617  ASP618  TYR619  PRO620  LYS621  CYS622 
 ASP623  PHE694  ASN695  SER759  ASP760  ASP761  ALA762  ILE779  LEU786  VAL792 
 PHE793  MET794  SER795  GLU796  ALA797  LYS798  CYS799  TRP800  GLU811  SER814 

> <Gold.Protein.RotatedAtoms>
  150.6949  134.1757  159.4229 H   0  0  0  0  0  0  0  0  0  0  0  0  # atno 6907 bound_to 6896
  151.9733  135.0063  160.0563 H   0  0  0  0  0  0  0  0  0  0  0  0  # atno 6908 bound_to 6896
  152.1821  133.4680  159.5000 H   0  0  0  0  0  0  0  0  0  0  0  0  # atno 6909 bound_to 6896
  144.7916  140.4951  143.5769 H   0  0  0  0  0  0  0  0  0  0  0  0  # atno 7974 bound_to 7965
  154.4875  140.2104  155.9622 H   0  0  0  0  0  0  0  0  0  0  0  0  # atno 8008 bound_to 7997
  156.1257  140.3205  155.8243 H   0  0  0  0  0  0  0  0  0  0  0  0  # atno 8009 bound_to 7997
  155.4387  140.0508  157.3003 H   0  0  0  0  0  0  0  0  0  0  0  0  # atno 8010 bound_to 7997
  140.5296  143.9864  150.6458 H   0  0  0  0  0  0  0  0  0  0  0  0  # atno 10167 bound_to 10162
  156.1216  130.4166  150.0430 H   0  0  0  0  0  0  0  0  0  0  0  0  # atno 10718 bound_to 10713
  153.0639  135.4997  154.8156 H   0  0  0  0  0  0  0  0  0  0  0  0  # atno 10763 bound_to 10752
  154.6924  135.2987  154.9462 H   0  0  0  0  0  0  0  0  0  0  0  0  # atno 10764 bound_to 10752
  154.0212  135.6742  153.4825 H   0  0  0  0  0  0  0  0  0  0  0  0  # atno 10765 bound_to 10752
  140.5919  134.5035  157.5194 H   0  0  0  0  0  0  0  0  0  0  0  0  # atno 11005 bound_to 11000
  145.5780  139.1487  143.3251 LP  0  0  0  0  0  0  0  0  0  0  0  0  # atno 17320 bound_to 7965
  146.2170  140.5911  142.9034 LP  0  0  0  0  0  0  0  0  0  0  0  0  # atno 17321 bound_to 7965
  140.3235  143.3122  152.0759 LP  0  0  0  0  0  0  0  0  0  0  0  0  # atno 17342 bound_to 10162
  139.4950  144.6557  151.6577 LP  0  0  0  0  0  0  0  0  0  0  0  0  # atno 17343 bound_to 10162
  156.8367  130.9411  151.3634 LP  0  0  0  0  0  0  0  0  0  0  0  0  # atno 17370 bound_to 10713
  157.6400  130.8797  149.9430 LP  0  0  0  0  0  0  0  0  0  0  0  0  # atno 17371 bound_to 10713
  139.9270  134.8037  156.1040 LP  0  0  0  0  0  0  0  0  0  0  0  0  # atno 17394 bound_to 11000
  141.0929  133.6707  156.2580 LP  0  0  0  0  0  0  0  0  0  0  0  0  # atno 17395 bound_to 11000

$$$$
