AV-unprocessed.smi:278|AV-procd|sdf|2091|dock10
  -GOLD-   2262021373D 1   1.00000     0.00000
 Structure written by MMmdl.
 50 54  0  0  0  0  0  0  0  0  1 V2000
  147.7289  132.4625  158.7572 O   0  0  0  0  0  0  0  0  0  0  0  0
  148.1795  133.4179  157.7339 S   0  0  0  0  0  0  0  0  0  0  0  0
  149.3310  134.2989  157.9838 O   0  0  0  0  0  0  0  0  0  0  0  0
  148.4460  132.5202  156.1557 C   0  0  0  0  0  0  0  0  0  0  0  0
  147.2285  132.8278  155.2740 C   0  0  0  0  0  0  0  0  0  0  0  0
  146.6696  134.2125  155.6490 C   0  0  2  0  0  0  0  0  0  0  0  0
  147.5051  135.3851  155.1243 C   0  0  0  0  0  0  0  0  0  0  0  0
  147.2961  136.4590  156.0852 N   0  0  0  0  0  0  0  0  0  0  0  0
  147.9958  137.6211  156.0074 C   0  0  0  0  0  0  0  0  0  0  0  0
  148.8333  137.8113  154.9529 N   0  0  0  0  0  0  0  0  0  0  0  0
  149.5379  138.9406  154.8389 C   0  0  0  0  0  0  0  0  0  0  0  0
  149.5517  140.0003  155.6487 N   0  0  0  0  0  0  0  0  0  0  0  0
  148.7043  139.8253  156.7021 C   0  0  0  0  0  0  0  0  0  0  0  0
  147.8964  138.6798  156.9582 C   0  0  0  0  0  0  0  0  0  0  0  0
  147.1607  138.8805  158.1221 N   0  0  0  0  0  0  0  0  0  0  0  0
  147.5190  140.0663  158.5323 C   0  0  0  0  0  0  0  0  0  0  0  0
  148.4409  140.7049  157.7361 N   0  0  0  0  0  0  0  0  0  0  0  0
  149.0091  142.0240  157.9479 C   0  0  0  0  0  0  0  0  0  0  0  0
  150.4467  141.9623  158.4978 C   0  0  2  0  0  0  0  0  0  0  0  0
  150.4653  141.3526  159.7751 O   0  0  0  0  0  0  0  0  0  0  0  0
  151.1277  143.3455  158.5425 C   0  0  2  0  0  0  0  0  0  0  0  0
  152.6397  143.3564  158.7842 C   0  0  0  0  0  0  0  0  0  0  0  0
  152.8393  144.7551  159.3243 C   0  0  0  0  0  0  0  0  0  0  0  0
  151.5905  144.9380  160.1834 C   0  0  0  0  0  0  0  0  0  0  0  0
  150.5605  144.1912  159.5406 O   0  0  0  0  0  0  0  0  0  0  0  0
  146.9010  135.9134  157.3773 C   0  0  0  0  0  0  0  0  0  0  0  0
  146.7281  134.4024  157.1657 C   0  0  2  0  0  0  0  0  0  0  0  0
  145.6424  134.3253  155.2995 H   0  0  0  0  0  0  0  0  0  0  0  0
  145.8398  134.0124  157.6633 H   0  0  0  0  0  0  0  0  0  0  0  0
  149.3599  132.9038  155.7018 H   0  0  0  0  0  0  0  0  0  0  0  0
  148.5753  131.4545  156.3452 H   0  0  0  0  0  0  0  0  0  0  0  0
  147.4701  132.7583  154.2129 H   0  0  0  0  0  0  0  0  0  0  0  0
  146.4590  132.0806  155.4717 H   0  0  0  0  0  0  0  0  0  0  0  0
  148.5655  135.1308  155.0924 H   0  0  0  0  0  0  0  0  0  0  0  0
  147.1942  135.6796  154.1214 H   0  0  0  0  0  0  0  0  0  0  0  0
  150.1816  139.0044  153.9740 H   0  0  0  0  0  0  0  0  0  0  0  0
  147.1194  140.5103  159.4325 H   0  0  0  0  0  0  0  0  0  0  0  0
  148.9913  142.5599  156.9982 H   0  0  0  0  0  0  0  0  0  0  0  0
  148.3597  142.5754  158.6293 H   0  0  0  0  0  0  0  0  0  0  0  0
  151.0386  141.3224  157.8420 H   0  0  0  0  0  0  0  0  0  0  0  0
  150.9868  140.5663  159.7238 H   0  0  0  0  0  0  0  0  0  0  0  0
  150.9420  143.8467  157.5909 H   0  0  0  0  0  0  0  0  0  0  0  0
  152.9339  142.6288  159.5412 H   0  0  0  0  0  0  0  0  0  0  0  0
  153.2166  143.1601  157.8799 H   0  0  0  0  0  0  0  0  0  0  0  0
  153.7657  144.8716  159.8874 H   0  0  0  0  0  0  0  0  0  0  0  0
  152.8420  145.4767  158.5060 H   0  0  0  0  0  0  0  0  0  0  0  0
  151.7500  144.5188  161.1779 H   0  0  0  0  0  0  0  0  0  0  0  0
  151.3127  145.9860  160.2988 H   0  0  0  0  0  0  0  0  0  0  0  0
  147.6235  136.1375  158.1624 H   0  0  0  0  0  0  0  0  0  0  0  0
  145.9493  136.3610  157.6644 H   0  0  0  0  0  0  0  0  0  0  0  0
  1  2  2  0  0  0  0
  2 27  1  0  0  0  0
  2  3  2  0  0  0  0
  2  4  1  0  0  0  0
  4  5  1  0  0  0  0
  4 30  1  0  0  0  0
  4 31  1  0  0  0  0
  5  6  1  0  0  0  0
  5 32  1  0  0  0  0
  5 33  1  0  0  0  0
  6 28  1  0  0  0  0
  6 27  1  0  0  0  0
  6  7  1  0  0  0  0
  7  8  1  0  0  0  0
  7 34  1  0  0  0  0
  7 35  1  0  0  0  0
  8  9  1  0  0  0  0
  8 26  1  0  0  0  0
  9 14  1  0  0  0  0
  9 10  2  0  0  0  0
 10 11  1  0  0  0  0
 11 12  2  0  0  0  0
 11 36  1  0  0  0  0
 12 13  1  0  0  0  0
 13 17  1  0  0  0  0
 13 14  2  0  0  0  0
 14 15  1  0  0  0  0
 15 16  2  0  0  0  0
 16 17  1  0  0  0  0
 16 37  1  0  0  0  0
 17 18  1  0  0  0  0
 18 19  1  0  0  0  0
 18 38  1  0  0  0  0
 18 39  1  0  0  0  0
 19 20  1  0  0  0  0
 19 21  1  0  0  0  0
 19 40  1  0  0  0  0
 20 41  1  0  0  0  0
 21 25  1  0  0  0  0
 21 22  1  0  0  0  0
 21 42  1  0  0  0  0
 22 23  1  0  0  0  0
 22 43  1  0  0  0  0
 22 44  1  0  0  0  0
 23 24  1  0  0  0  0
 23 45  1  0  0  0  0
 23 46  1  0  0  0  0
 24 25  1  0  0  0  0
 24 47  1  0  0  0  0
 24 48  1  0  0  0  0
 26 27  1  0  0  0  0
 26 49  1  0  0  0  0
 26 50  1  0  0  0  0
 27 29  1  0  0  0  0
M  END
> <s_m_source_file>
AV-unprocessed.smi

> <i_m_source_file_index>
278

> <i_lp_mmshare_version>
43012

> <i_f3d_flags>
0

> <s_epik_input>
W0NIMl0xW0NIMl1TKD1PKSg9TylbQ0BASF0oW0NAQEhdMTIpW0NIMl1OKFtDSDJdMiljKG5bY0hdbjMpYyhjMzQpbltjSF1uNFtDSDJdW0NASF0oW09IXSlbQ0BASF01W0NIMl1bQ0gyXVtDSDJdTzU=

> <s_epik_cmdline>
J2VwaWtfcHl0aG9uJywgJy1waCcsICc3LjAnLCAnLXRuJywgJzgnLCAnLW1hJywgJzIwMCcsICctbWV0YWxfYmluZGluZycsICctaW1hZScsICc8aW5maWxlLm1hZT4nLCAnLW9tYWUnLCAnPG91dGZpbGUubWFlPic=

> <r_lp_tautomer_probability>
1

> <r_epik_Ionization_Penalty>
0.000636766

> <r_epik_Ionization_Penalty_Charging>
0

> <r_epik_Ionization_Penalty_Neutral>
0.000636766

> <r_epik_State_Penalty>
0.000329976

> <r_epik_Charging_Adjusted_Penalty>
0.000329976

> <i_epik_Tot_Q>
0

> <i_epik_Tot_abs_Q>
0

> <r_epik_Metal_State_Penalty>
-0

> <b_epik_Metal_Only>
0

> <s_lp_Force_Field>
OPLS_2005

> <r_lp_Energy>
50.4142

> <b_lp_Chiralities_Consistent>
1

> <s_lp_Variant>
AV-unprocessed.smi:278-5

> <Gold.Version>
5.8.1

> <Gold.Id.Protein>
6NUR|6NUR_protein|mol2

> <Gold.PLP.Fitness>
44.5937

> <Gold.PLP.PLP>
-36.3310

> <Gold.PLP.part.hbond>
-3.3526

> <Gold.PLP.part.metal>
0.0000

> <Gold.PLP.part.buried>
-6.1225

> <Gold.PLP.part.nonpolar>
-27.4476

> <Gold.PLP.part.repulsive>
0.2862

> <Gold.PLP.ligand.clash>
0.0000

> <Gold.PLP.ligand.torsion>
0.5096

> <Gold.PLP.Chemscore.Hbond>
3.0000

> <Gold.PLP.Chemscore.CHOScore>
0.0000

> <Gold.PLP.Chemscore.Metal>
0.0000

> <Gold.Chemscore.Hbonds>
donor molecule, donor type, donor heavy atom, donor atom, acceptor molecule, acceptor atom, score
      P1  H  6896  6908       L1     3  1.00

> <Gold.PLP.Chemscore.Internal.Correction>
0.2819

> <Gold.Rescore>
     Score         DG    S(hbond)    S(metal)    S(lipo)     H(rot)  DE(clash)    DE(int)     intcor
     17.79     -18.83       2.41        0.00      92.01       2.13       0.31       0.72       ----

> <Gold.Chemscore.Fitness>
17.7938

> <Gold.Chemscore.DG>
-18.8252

> <Gold.Chemscore.ZeroCoef>
-5.4800

> <Gold.Chemscore.Hbond>
2.4085

> <Gold.Chemscore.Metal>
0.0000

> <Gold.Chemscore.Lipo>
92.0127

> <Gold.Chemscore.Internal_Hbond>
0.0000

> <Gold.Chemscore.DEClash>
0.3083

> <Gold.Chemscore.DEInternal>
0.7231

> <Gold.Chemscore.Rot>
2.1346

> <Gold.Chemscore.Internal.Correction>
   9.000000E+99

> <Gold.Chemscore.Hbonds>
donor molecule, donor type, donor heavy atom, donor atom, acceptor molecule, acceptor atom, score
      P1  H  6896  6908       L1     3  1.00

> <Gold.Chemscore.Hbond.Weighted>
-8.0444

> <Gold.Chemscore.Metal.Weighted>
-0.0000

> <Gold.Chemscore.Lipo.Weighted>
-10.7655

> <Gold.Chemscore.Internal_Hbond.Weighted>
0.0000

> <Gold.Chemscore.DEClash.Weighted>
0.3083

> <Gold.Chemscore.DEInternal.Weighted>
0.7231

> <Gold.Chemscore.Rot.Weighted>
5.4646

> <Gold.Chemscore.Internal.Correction.Weighted>
   9.000000E+99

> <Gold.Protein.RotatedTorsions>
[ 6907 6896 6895 6894 ] final  145.83 input  -60.11 | X-H torsion
[ 7974 7965 7964 7962 ] final  115.32 input  175.53 | X-H torsion
[ 8008 7997 7996 7995 ] final   60.76 input   59.86 | X-H torsion
[ 10167 10162 10161 10158 ] final  -93.80 input  -65.29 | X-H torsion
[ 10718 10713 10712 10709 ] final  -49.25 input   66.30 | X-H torsion
[ 10763 10752 10751 10750 ] final -139.16 input  -60.55 | X-H torsion
[ 11005 11000 10999 10996 ] final  -41.73 input  -57.11 | X-H torsion

> <Gold.Protein.ActiveResidues>
 VAL166  LYS551  ARG553  GLY616  TRP617  ASP618  TYR619  PRO620  LYS621  CYS622 
 ASP623  PHE694  ASN695  SER759  ASP760  ASP761  ALA762  ILE779  LEU786  VAL792 
 PHE793  MET794  SER795  GLU796  ALA797  LYS798  CYS799  TRP800  GLU811  SER814 

> <Gold.Protein.RotatedAtoms>
  152.1757  133.4673  159.4931 H   0  0  0  0  0  0  0  0  0  0  0  0  # atno 6907 bound_to 6896
  150.6926  134.1896  159.4289 H   0  0  0  0  0  0  0  0  0  0  0  0  # atno 6908 bound_to 6896
  151.9805  135.0030  160.0608 H   0  0  0  0  0  0  0  0  0  0  0  0  # atno 6909 bound_to 6896
  145.1935  139.2988  143.4356 H   0  0  0  0  0  0  0  0  0  0  0  0  # atno 7974 bound_to 7965
  155.5875  140.3492  155.4557 H   0  0  0  0  0  0  0  0  0  0  0  0  # atno 8008 bound_to 7997
  156.0326  140.1278  157.0266 H   0  0  0  0  0  0  0  0  0  0  0  0  # atno 8009 bound_to 7997
  154.4358  140.1040  156.6108 H   0  0  0  0  0  0  0  0  0  0  0  0  # atno 8010 bound_to 7997
  140.3209  143.3049  152.0047 H   0  0  0  0  0  0  0  0  0  0  0  0  # atno 10167 bound_to 10162
  156.1911  130.4153  149.9370 H   0  0  0  0  0  0  0  0  0  0  0  0  # atno 10718 bound_to 10713
  154.8617  135.3590  154.5502 H   0  0  0  0  0  0  0  0  0  0  0  0  # atno 10763 bound_to 10752
  153.6120  135.7009  153.5348 H   0  0  0  0  0  0  0  0  0  0  0  0  # atno 10764 bound_to 10752
  153.3201  135.4154  155.1370 H   0  0  0  0  0  0  0  0  0  0  0  0  # atno 10765 bound_to 10752
  141.0266  133.6838  156.2498 H   0  0  0  0  0  0  0  0  0  0  0  0  # atno 11005 bound_to 11000
  146.3431  140.2155  142.8590 LP  0  0  0  0  0  0  0  0  0  0  0  0  # atno 17320 bound_to 7965
  145.0018  140.8638  143.5277 LP  0  0  0  0  0  0  0  0  0  0  0  0  # atno 17321 bound_to 7965
  139.4874  144.6311  151.7067 LP  0  0  0  0  0  0  0  0  0  0  0  0  # atno 17342 bound_to 10162
  140.5484  144.0465  150.6116 LP  0  0  0  0  0  0  0  0  0  0  0  0  # atno 17343 bound_to 10162
  156.7110  130.8970  151.3609 LP  0  0  0  0  0  0  0  0  0  0  0  0  # atno 17370 bound_to 10713
  157.6929  130.9252  150.0564 LP  0  0  0  0  0  0  0  0  0  0  0  0  # atno 17371 bound_to 10713
  140.6480  134.5097  157.5575 LP  0  0  0  0  0  0  0  0  0  0  0  0  # atno 17394 bound_to 11000
  139.9180  134.8206  156.1302 LP  0  0  0  0  0  0  0  0  0  0  0  0  # atno 17395 bound_to 11000

$$$$
