AV-unprocessed.smi:769|AV-procd|sdf|3676|dock10
  -GOLD-   22720 1 93D 1   1.00000     0.00000
 Structure written by MMmdl.
 50 52  0  0  0  0  0  0  0  0  2 V2000
  147.0190  137.8049  154.0862 O   0  0  0  0  0  0  0  0  0  0  0  0
  146.1626  138.5195  153.5658 C   0  0  0  0  0  0  0  0  0  0  0  0
  146.3533  139.8175  153.2894 N   0  0  0  0  0  0  0  0  0  0  0  0
  147.5845  140.5538  153.5493 C   0  0  0  0  0  0  0  0  0  0  0  0
  147.9116  140.5841  155.0554 C   0  0  0  0  0  0  0  0  0  0  0  0
  149.2853  141.0101  155.3182 N   0  0  0  0  0  0  0  0  0  0  0  0
  150.2053  139.8651  155.3375 C   0  0  0  0  0  0  0  0  0  0  0  0
  151.6376  140.3391  155.6500 C   0  0  0  0  0  0  0  0  0  0  0  0
  151.6383  141.0031  156.9566 N   0  0  0  0  0  0  0  0  0  0  0  0
  152.2603  140.5658  158.0780 C   0  0  0  0  0  0  0  0  0  0  0  0
  152.9229  139.5275  158.0942 O   0  0  0  0  0  0  0  0  0  0  0  0
  152.1766  141.4224  159.3573 C   0  0  0  0  0  0  0  0  0  0  0  0
  152.7593  142.8478  159.2626 C   0  0  0  0  0  0  0  0  0  0  0  0
  153.4011  142.6255  160.6348 C   0  0  0  0  0  0  0  0  0  0  0  0
  153.2768  141.1192  160.3893 C   0  0  0  0  0  0  0  0  0  0  0  0
  150.7598  142.1754  156.9266 C   0  0  0  0  0  0  0  0  0  0  0  0
  149.3261  141.7071  156.6088 C   0  0  0  0  0  0  0  0  0  0  0  0
  144.9252  138.1243  153.2186 N   0  0  0  0  0  0  0  0  0  0  0  0
  144.3345  136.8366  153.3409 C   0  0  0  0  0  0  0  0  0  0  0  0
  145.1513  135.7889  153.8218 C   0  0  0  0  0  0  0  0  0  0  0  0
  144.6091  134.4965  153.9742 C   0  0  0  0  0  0  0  0  0  0  0  0
  143.3137  134.2706  153.6683 N   0  3  0  0  0  0  0  0  0  0  0  0
  142.4901  135.2414  153.2185 C   0  0  0  0  0  0  0  0  0  0  0  0
  142.9757  136.5539  153.0464 C   0  0  0  0  0  0  0  0  0  0  0  0
  145.5965  140.3343  152.8657 H   0  0  0  0  0  0  0  0  0  0  0  0
  148.3919  140.1077  152.9682 H   0  0  0  0  0  0  0  0  0  0  0  0
  147.4554  141.5700  153.1761 H   0  0  0  0  0  0  0  0  0  0  0  0
  147.2292  141.2887  155.5335 H   0  0  0  0  0  0  0  0  0  0  0  0
  147.7277  139.6116  155.5152 H   0  0  0  0  0  0  0  0  0  0  0  0
  149.8805  139.1323  156.0782 H   0  0  0  0  0  0  0  0  0  0  0  0
  150.2083  139.3646  154.3704 H   0  0  0  0  0  0  0  0  0  0  0  0
  152.3258  139.4988  155.5853 H   0  0  0  0  0  0  0  0  0  0  0  0
  151.9735  141.0453  154.8890 H   0  0  0  0  0  0  0  0  0  0  0  0
  151.1770  141.4472  159.7950 H   0  0  0  0  0  0  0  0  0  0  0  0
  153.5065  142.9933  158.4810 H   0  0  0  0  0  0  0  0  0  0  0  0
  152.0107  143.6401  159.2478 H   0  0  0  0  0  0  0  0  0  0  0  0
  154.4246  142.9907  160.7249 H   0  0  0  0  0  0  0  0  0  0  0  0
  152.7722  142.9727  161.4560 H   0  0  0  0  0  0  0  0  0  0  0  0
  152.9402  140.5546  161.2594 H   0  0  0  0  0  0  0  0  0  0  0  0
  154.1790  140.6840  159.9551 H   0  0  0  0  0  0  0  0  0  0  0  0
  150.7610  142.7284  157.8666 H   0  0  0  0  0  0  0  0  0  0  0  0
  151.1097  142.8760  156.1667 H   0  0  0  0  0  0  0  0  0  0  0  0
  148.6612  142.5711  156.5794 H   0  0  0  0  0  0  0  0  0  0  0  0
  148.9633  141.0495  157.4005 H   0  0  0  0  0  0  0  0  0  0  0  0
  144.3140  138.8487  152.8711 H   0  0  0  0  0  0  0  0  0  0  0  0
  146.1880  135.9688  154.0678 H   0  0  0  0  0  0  0  0  0  0  0  0
  145.1683  133.6433  154.3300 H   0  0  0  0  0  0  0  0  0  0  0  0
  141.4714  134.9432  153.0169 H   0  0  0  0  0  0  0  0  0  0  0  0
  142.2927  137.3159  152.7043 H   0  0  0  0  0  0  0  0  0  0  0  0
  142.9398  133.3284  153.7863 H   0  0  0  0  0  0  0  0  0  0  0  0
  1  2  2  0  0  0  0
  2  3  1  0  0  0  0
  2 18  1  0  0  0  0
  3  4  1  0  0  0  0
  3 25  1  0  0  0  0
  4  5  1  0  0  0  0
  4 26  1  0  0  0  0
  4 27  1  0  0  0  0
  5  6  1  0  0  0  0
  5 28  1  0  0  0  0
  5 29  1  0  0  0  0
  6 17  1  0  0  0  0
  6  7  1  0  0  0  0
  7  8  1  0  0  0  0
  7 30  1  0  0  0  0
  7 31  1  0  0  0  0
  8  9  1  0  0  0  0
  8 32  1  0  0  0  0
  8 33  1  0  0  0  0
  9 10  1  0  0  0  0
  9 16  1  0  0  0  0
 10 11  2  0  0  0  0
 10 12  1  0  0  0  0
 12 15  1  0  0  0  0
 12 13  1  0  0  0  0
 12 34  1  0  0  0  0
 13 14  1  0  0  0  0
 13 35  1  0  0  0  0
 13 36  1  0  0  0  0
 14 15  1  0  0  0  0
 14 37  1  0  0  0  0
 14 38  1  0  0  0  0
 15 39  1  0  0  0  0
 15 40  1  0  0  0  0
 16 17  1  0  0  0  0
 16 41  1  0  0  0  0
 16 42  1  0  0  0  0
 17 43  1  0  0  0  0
 17 44  1  0  0  0  0
 18 19  1  0  0  0  0
 18 45  1  0  0  0  0
 19 24  1  0  0  0  0
 19 20  2  0  0  0  0
 20 21  1  0  0  0  0
 20 46  1  0  0  0  0
 21 22  2  0  0  0  0
 21 47  1  0  0  0  0
 22 23  1  0  0  0  0
 22 50  1  0  0  0  0
 23 24  2  0  0  0  0
 23 48  1  0  0  0  0
 24 49  1  0  0  0  0
M  CHG  1  22   1
M  END
> <s_m_source_file>
AV-unprocessed.smi

> <i_m_source_file_index>
769

> <i_lp_mmshare_version>
43012

> <i_f3d_flags>
0

> <s_epik_input>
W2NIXTFbY0hdbltjSF1bY0hdYzFbTkhdQyg9TylbTkhdW0NIMl1bQ0gyXU4yW0NIMl1bQ0gyXU4oW0NIMl1bQ0gyXTIpQyg9TylbQ0hdM1tDSDJdW0NIMl1bQ0gyXTM=

> <s_epik_cmdline>
J2VwaWtfcHl0aG9uJywgJy1waCcsICc3LjAnLCAnLXRuJywgJzgnLCAnLW1hJywgJzIwMCcsICctbWV0YWxfYmluZGluZycsICctaW1hZScsICc8aW5maWxlLm1hZT4nLCAnLW9tYWUnLCAnPG91dGZpbGUubWFlPic=

> <r_epik_Ionization_Penalty>
1.23972

> <r_epik_Ionization_Penalty_Charging>
0.991409

> <r_epik_Ionization_Penalty_Neutral>
0.248308

> <r_epik_State_Penalty>
1.32283

> <r_epik_Charging_Adjusted_Penalty>
2.31424

> <i_epik_Tot_Q>
1

> <i_epik_Tot_abs_Q>
1

> <r_epik_Metal_State_Penalty>
1.42026

> <b_epik_Metal_Only>
0

> <s_lp_Force_Field>
OPLS_2005

> <r_lp_Energy>
53.8523

> <b_lp_Chiralities_Consistent>
1

> <s_lp_Variant>
AV-unprocessed.smi:769-3

> <Gold.Version>
5.8.1

> <Gold.Id.Protein>
6NUR|6NUR_protein|mol2

> <Gold.PLP.Fitness>
53.3299

> <Gold.PLP.PLP>
-39.3162

> <Gold.PLP.part.hbond>
-4.0000

> <Gold.PLP.part.metal>
0.0000

> <Gold.PLP.part.buried>
-4.3370

> <Gold.PLP.part.nonpolar>
-31.0890

> <Gold.PLP.part.repulsive>
0.2423

> <Gold.PLP.ligand.clash>
0.0000

> <Gold.PLP.ligand.torsion>
0.7121

> <Gold.PLP.Chemscore.Hbond>
4.9920

> <Gold.PLP.Chemscore.CHOScore>
0.0000

> <Gold.PLP.Chemscore.Metal>
0.0000

> <Gold.Chemscore.Hbonds>
donor molecule, donor type, donor heavy atom, donor atom, acceptor molecule, acceptor atom, score
      L1  H     3    25       P1 10175  0.99
      L1  H    18    45       P1 10175  1.00
      L1  H    22    50       P1 10957  2.00
      P1  H  7997  8009       L1    11  0.96

> <Gold.PLP.Chemscore.Internal.Correction>
0.4620

> <Gold.Rescore>
     Score         DG    S(hbond)    S(metal)    S(lipo)     H(rot)  DE(clash)    DE(int)     intcor
     22.47     -24.79       3.81        0.00      94.01       1.72       0.22       2.10       ----

> <Gold.Chemscore.Fitness>
22.4668

> <Gold.Chemscore.DG>
-24.7860

> <Gold.Chemscore.ZeroCoef>
-5.4800

> <Gold.Chemscore.Hbond>
3.8080

> <Gold.Chemscore.Metal>
0.0000

> <Gold.Chemscore.Lipo>
94.0077

> <Gold.Chemscore.Internal_Hbond>
0.0000

> <Gold.Chemscore.DEClash>
0.2216

> <Gold.Chemscore.DEInternal>
2.0975

> <Gold.Chemscore.Rot>
1.7233

> <Gold.Chemscore.Internal.Correction>
   9.000000E+99

> <Gold.Chemscore.Hbonds>
donor molecule, donor type, donor heavy atom, donor atom, acceptor molecule, acceptor atom, score
      L1  H     3    25       P1 10175  0.84
      L1  H    18    45       P1 10175  1.00
      L1  H    22    50       P1 10957  0.97
      P1  H  7997  8009       L1    11  0.36

> <Gold.Chemscore.Hbond.Weighted>
-12.7187

> <Gold.Chemscore.Metal.Weighted>
-0.0000

> <Gold.Chemscore.Lipo.Weighted>
-10.9989

> <Gold.Chemscore.Internal_Hbond.Weighted>
0.0000

> <Gold.Chemscore.DEClash.Weighted>
0.2216

> <Gold.Chemscore.DEInternal.Weighted>
2.0975

> <Gold.Chemscore.Rot.Weighted>
4.4116

> <Gold.Chemscore.Internal.Correction.Weighted>
   9.000000E+99

> <Gold.Protein.RotatedTorsions>
[ 6907 6896 6895 6894 ] final -117.82 input  -60.11 | X-H torsion
[ 7974 7965 7964 7962 ] final  -83.29 input  175.53 | X-H torsion
[ 8008 7997 7996 7995 ] final  153.68 input   59.86 | X-H torsion
[ 10167 10162 10161 10158 ] final -119.46 input  -65.29 | X-H torsion
[ 10718 10713 10712 10709 ] final -114.22 input   66.30 | X-H torsion
[ 10763 10752 10751 10750 ] final -142.31 input  -60.55 | X-H torsion
[ 11005 11000 10999 10996 ] final  134.08 input  -57.11 | X-H torsion

> <Gold.Protein.ActiveResidues>
 VAL166  LYS551  ARG553  GLY616  TRP617  ASP618  TYR619  PRO620  LYS621  CYS622 
 ASP623  PHE694  ASN695  SER759  ASP760  ASP761  ALA762  ILE779  LEU786  VAL792 
 PHE793  MET794  SER795  GLU796  ALA797  LYS798  CYS799  TRP800  GLU811  SER814 

> <Gold.Protein.RotatedAtoms>
  150.8168  133.8323  159.3156 H   0  0  0  0  0  0  0  0  0  0  0  0  # atno 6907 bound_to 6896
  151.6093  135.1040  160.0087 H   0  0  0  0  0  0  0  0  0  0  0  0  # atno 6908 bound_to 6896
  152.4259  133.7153  159.6559 H   0  0  0  0  0  0  0  0  0  0  0  0  # atno 6909 bound_to 6896
  145.5219  140.9530  143.1650 H   0  0  0  0  0  0  0  0  0  0  0  0  # atno 7974 bound_to 7965
  156.2569  140.1987  156.6527 H   0  0  0  0  0  0  0  0  0  0  0  0  # atno 8008 bound_to 7997
  154.6524  140.0570  156.9995 H   0  0  0  0  0  0  0  0  0  0  0  0  # atno 8009 bound_to 7997
  155.1398  140.3241  155.4457 H   0  0  0  0  0  0  0  0  0  0  0  0  # atno 8010 bound_to 7997
  140.0464  143.5103  152.2104 H   0  0  0  0  0  0  0  0  0  0  0  0  # atno 10167 bound_to 10162
  156.0816  130.6015  150.8746 H   0  0  0  0  0  0  0  0  0  0  0  0  # atno 10718 bound_to 10713
  154.8514  135.3499  154.6007 H   0  0  0  0  0  0  0  0  0  0  0  0  # atno 10763 bound_to 10752
  153.6616  135.6989  153.5180 H   0  0  0  0  0  0  0  0  0  0  0  0  # atno 10764 bound_to 10752
  153.2813  135.4262  155.1038 H   0  0  0  0  0  0  0  0  0  0  0  0  # atno 10765 bound_to 10752
  139.9892  134.9521  156.9815 H   0  0  0  0  0  0  0  0  0  0  0  0  # atno 11005 bound_to 11000
  144.7671  139.6819  143.7210 LP  0  0  0  0  0  0  0  0  0  0  0  0  # atno 17320 bound_to 7965
  146.2100  139.5450  142.9687 LP  0  0  0  0  0  0  0  0  0  0  0  0  # atno 17321 bound_to 7965
  139.5981  144.7573  151.3238 LP  0  0  0  0  0  0  0  0  0  0  0  0  # atno 17342 bound_to 10162
  140.7237  143.7065  150.7804 LP  0  0  0  0  0  0  0  0  0  0  0  0  # atno 17343 bound_to 10162
  157.5935  131.0944  150.9079 LP  0  0  0  0  0  0  0  0  0  0  0  0  # atno 17370 bound_to 10713
  156.9250  130.5329  149.5279 LP  0  0  0  0  0  0  0  0  0  0  0  0  # atno 17371 bound_to 10713
  140.4942  134.1162  155.7238 LP  0  0  0  0  0  0  0  0  0  0  0  0  # atno 17394 bound_to 11000
  141.1551  133.8897  157.1998 LP  0  0  0  0  0  0  0  0  0  0  0  0  # atno 17395 bound_to 11000

$$$$
