AV-unprocessed.smi:2390|AV-procd|sdf|9480|dock4
  -GOLD-   2272013113D 1   1.00000     0.00000
 Structure written by MMmdl.
 46 47  0  0  0  0  0  0  0  0  2 V2000
  153.1084  141.2072  160.2756 C   0  0  0  0  0  0  0  0  0  0  0  0
  152.5957  142.3915  159.4831 C   0  0  0  0  0  0  0  0  0  0  0  0
  152.9448  143.7063  159.8465 C   0  0  0  0  0  0  0  0  0  0  0  0
  152.4255  144.7651  159.0813 C   0  0  0  0  0  0  0  0  0  0  0  0
  151.5900  144.4687  157.9871 C   0  0  0  0  0  0  0  0  0  0  0  0
  151.3033  143.1140  157.6783 C   0  0  0  0  0  0  0  0  0  0  0  0
  150.4417  142.7854  156.5983 N   0  0  0  0  0  0  0  0  0  0  0  0
  149.7069  141.6725  156.4308 C   0  0  0  0  0  0  0  0  0  0  0  0
  149.6618  140.7254  157.2168 O   0  0  0  0  0  0  0  0  0  0  0  0
  149.0123  141.7138  155.2836 N   0  0  0  0  0  0  0  0  0  0  0  0
  148.1052  140.6749  154.7909 C   0  0  1  0  0  0  0  0  0  0  0  0
  146.8870  141.3403  154.1293 C   0  0  0  0  0  0  0  0  0  0  0  0
  148.8313  139.6544  153.8619 C   0  0  1  0  0  0  0  0  0  0  0  0
  150.1202  139.1031  154.5213 C   0  0  0  0  0  0  0  0  0  0  0  0
  147.8769  138.5881  153.4107 N   0  3  0  0  0  0  0  0  0  0  0  0
  147.1301  137.9704  154.5379 C   0  0  0  0  0  0  0  0  0  0  0  0
  146.3027  136.7723  154.0466 C   0  0  0  0  0  0  0  0  0  0  0  0
  145.4040  137.2036  153.0341 O   0  0  0  0  0  0  0  0  0  0  0  0
  146.0938  137.7246  151.9064 C   0  0  0  0  0  0  0  0  0  0  0  0
  146.9306  138.9479  152.3206 C   0  0  0  0  0  0  0  0  0  0  0  0
  151.7916  142.1052  158.4359 N   0  0  0  0  0  0  0  0  0  0  0  0
  154.0426  141.4521  160.7817 H   0  0  0  0  0  0  0  0  0  0  0  0
  153.2920  140.3517  159.6244 H   0  0  0  0  0  0  0  0  0  0  0  0
  152.3764  140.9151  161.0291 H   0  0  0  0  0  0  0  0  0  0  0  0
  153.5868  143.9010  160.6933 H   0  0  0  0  0  0  0  0  0  0  0  0
  152.6580  145.7895  159.3325 H   0  0  0  0  0  0  0  0  0  0  0  0
  151.1749  145.2830  157.4132 H   0  0  0  0  0  0  0  0  0  0  0  0
  150.2936  143.5240  155.9262 H   0  0  0  0  0  0  0  0  0  0  0  0
  149.1104  142.5352  154.7044 H   0  0  0  0  0  0  0  0  0  0  0  0
  147.7017  140.1443  155.6534 H   0  0  0  0  0  0  0  0  0  0  0  0
  146.1984  140.5933  153.7330 H   0  0  0  0  0  0  0  0  0  0  0  0
  147.1709  142.0024  153.3116 H   0  0  0  0  0  0  0  0  0  0  0  0
  146.3340  141.9405  154.8526 H   0  0  0  0  0  0  0  0  0  0  0  0
  149.1573  140.1869  152.9668 H   0  0  0  0  0  0  0  0  0  0  0  0
  150.7897  139.9062  154.8260 H   0  0  0  0  0  0  0  0  0  0  0  0
  150.6962  138.4865  153.8312 H   0  0  0  0  0  0  0  0  0  0  0  0
  149.9028  138.5063  155.4074 H   0  0  0  0  0  0  0  0  0  0  0  0
  147.8108  137.6327  155.3181 H   0  0  0  0  0  0  0  0  0  0  0  0
  146.4730  138.7133  154.9923 H   0  0  0  0  0  0  0  0  0  0  0  0
  146.9496  135.9789  153.6685 H   0  0  0  0  0  0  0  0  0  0  0  0
  145.7277  136.3491  154.8705 H   0  0  0  0  0  0  0  0  0  0  0  0
  146.7269  136.9528  151.4648 H   0  0  0  0  0  0  0  0  0  0  0  0
  145.3646  138.0087  151.1477 H   0  0  0  0  0  0  0  0  0  0  0  0
  146.2773  139.7570  152.6511 H   0  0  0  0  0  0  0  0  0  0  0  0
  147.4659  139.2944  151.4371 H   0  0  0  0  0  0  0  0  0  0  0  0
  148.4587  137.8572  153.0248 H   0  0  0  0  0  0  0  0  0  0  0  0
  1  2  1  0  0  0  0
  1 22  1  0  0  0  0
  1 23  1  0  0  0  0
  1 24  1  0  0  0  0
  2 21  1  0  0  0  0
  2  3  2  0  0  0  0
  3  4  1  0  0  0  0
  3 25  1  0  0  0  0
  4  5  2  0  0  0  0
  4 26  1  0  0  0  0
  5  6  1  0  0  0  0
  5 27  1  0  0  0  0
  6  7  1  0  0  0  0
  6 21  2  0  0  0  0
  7  8  1  0  0  0  0
  7 28  1  0  0  0  0
  8  9  2  0  0  0  0
  8 10  1  0  0  0  0
 10 11  1  0  0  0  0
 10 29  1  0  0  0  0
 11 12  1  0  0  0  0
 11 13  1  0  0  0  0
 11 30  1  0  0  0  0
 12 31  1  0  0  0  0
 12 32  1  0  0  0  0
 12 33  1  0  0  0  0
 13 14  1  0  0  0  0
 13 15  1  0  0  0  0
 13 34  1  0  0  0  0
 14 35  1  0  0  0  0
 14 36  1  0  0  0  0
 14 37  1  0  0  0  0
 15 20  1  0  0  0  0
 15 16  1  0  0  0  0
 15 46  1  0  0  0  0
 16 17  1  0  0  0  0
 16 38  1  0  0  0  0
 16 39  1  0  0  0  0
 17 18  1  0  0  0  0
 17 40  1  0  0  0  0
 17 41  1  0  0  0  0
 18 19  1  0  0  0  0
 19 20  1  0  0  0  0
 19 42  1  0  0  0  0
 19 43  1  0  0  0  0
 20 44  1  0  0  0  0
 20 45  1  0  0  0  0
M  CHG  1  15   1
M  END
> <s_m_source_file>
AV-unprocessed.smi

> <i_m_source_file_index>
2390

> <i_lp_mmshare_version>
43012

> <i_f3d_flags>
0

> <s_epik_input>
W0NIM11jMVtjSF1bY0hdW2NIXWMobjEpW05IXUMoPU8pW05IXVtDQEhdKFtDSDNdKVtDQEhdKFtDSDNdKU4yW0NIMl1bQ0gyXU9bQ0gyXVtDSDJdMg==

> <s_epik_cmdline>
J2VwaWtfcHl0aG9uJywgJy1waCcsICc3LjAnLCAnLXRuJywgJzgnLCAnLW1hJywgJzIwMCcsICctbWV0YWxfYmluZGluZycsICctaW1hZScsICc8aW5maWxlLm1hZT4nLCAnLW9tYWUnLCAnPG91dGZpbGUubWFlPic=

> <r_epik_Ionization_Penalty>
0.60259

> <r_epik_Ionization_Penalty_Charging>
0.602531

> <r_epik_Ionization_Penalty_Neutral>
5.9516e-05

> <r_epik_State_Penalty>
0.617039

> <r_epik_Charging_Adjusted_Penalty>
1.21957

> <i_epik_Tot_Q>
1

> <i_epik_Tot_abs_Q>
1

> <r_epik_Metal_State_Penalty>
0.617047

> <b_epik_Metal_Only>
0

> <s_lp_Force_Field>
OPLS_2005

> <r_lp_Energy>
33.8146

> <b_lp_Chiralities_Consistent>
1

> <s_lp_Variant>
AV-unprocessed.smi:2390-8

> <Gold.Version>
5.8.1

> <Gold.Id.Protein>
6NUR|6NUR_protein|mol2

> <Gold.PLP.Fitness>
48.6906

> <Gold.PLP.PLP>
-41.4744

> <Gold.PLP.part.hbond>
-3.7746

> <Gold.PLP.part.metal>
0.0000

> <Gold.PLP.part.buried>
-0.9323

> <Gold.PLP.part.nonpolar>
-38.3100

> <Gold.PLP.part.repulsive>
0.4644

> <Gold.PLP.ligand.clash>
0.0192

> <Gold.PLP.ligand.torsion>
0.7744

> <Gold.PLP.Chemscore.Hbond>
2.8808

> <Gold.PLP.Chemscore.CHOScore>
0.0000

> <Gold.PLP.Chemscore.Metal>
0.0000

> <Gold.Chemscore.Hbonds>
donor molecule, donor type, donor heavy atom, donor atom, acceptor molecule, acceptor atom, score
      L1  H     7    28       P1  8028  0.67
      L1  H    10    29       P1  8028  0.05
      L1  H    15    46       P1  7948  1.95

> <Gold.PLP.Chemscore.Internal.Correction>
0.1418

> <Gold.Rescore>
     Score         DG    S(hbond)    S(metal)    S(lipo)     H(rot)  DE(clash)    DE(int)     intcor
     17.51     -20.36       1.96        0.00     103.79       1.48       0.44       2.41       ----

> <Gold.Chemscore.Fitness>
17.5118

> <Gold.Chemscore.DG>
-20.3609

> <Gold.Chemscore.ZeroCoef>
-5.4800

> <Gold.Chemscore.Hbond>
1.9574

> <Gold.Chemscore.Metal>
0.0000

> <Gold.Chemscore.Lipo>
103.7877

> <Gold.Chemscore.Internal_Hbond>
0.0000

> <Gold.Chemscore.DEClash>
0.4422

> <Gold.Chemscore.DEInternal>
2.4069

> <Gold.Chemscore.Rot>
1.4844

> <Gold.Chemscore.Internal.Correction>
   9.000000E+99

> <Gold.Chemscore.Hbonds>
donor molecule, donor type, donor heavy atom, donor atom, acceptor molecule, acceptor atom, score
      L1  H     7    28       P1  8028  0.66
      L1  H    10    29       P1  8028  0.06
      L1  H    15    46       P1  7948  0.90

> <Gold.Chemscore.Hbond.Weighted>
-6.5377

> <Gold.Chemscore.Metal.Weighted>
-0.0000

> <Gold.Chemscore.Lipo.Weighted>
-12.1432

> <Gold.Chemscore.Internal_Hbond.Weighted>
0.0000

> <Gold.Chemscore.DEClash.Weighted>
0.4422

> <Gold.Chemscore.DEInternal.Weighted>
2.4069

> <Gold.Chemscore.Rot.Weighted>
3.8000

> <Gold.Chemscore.Internal.Correction.Weighted>
   9.000000E+99

> <Gold.Protein.RotatedTorsions>
[ 6907 6896 6895 6894 ] final  -89.31 input  -60.11 | X-H torsion
[ 7974 7965 7964 7962 ] final    9.56 input  175.53 | X-H torsion
[ 8008 7997 7996 7995 ] final   29.48 input   59.86 | X-H torsion
[ 10167 10162 10161 10158 ] final   45.37 input  -65.29 | X-H torsion
[ 10718 10713 10712 10709 ] final -127.45 input   66.30 | X-H torsion
[ 10763 10752 10751 10750 ] final   82.43 input  -60.55 | X-H torsion
[ 11005 11000 10999 10996 ] final  -90.75 input  -57.11 | X-H torsion

> <Gold.Protein.ActiveResidues>
 VAL166  LYS551  ARG553  GLY616  TRP617  ASP618  TYR619  PRO620  LYS621  CYS622 
 ASP623  PHE694  ASN695  SER759  ASP760  ASP761  ALA762  ILE779  LEU786  VAL792 
 PHE793  MET794  SER795  GLU796  ALA797  LYS798  CYS799  TRP800  GLU811  SER814 

> <Gold.Protein.RotatedAtoms>
  150.6873  134.2606  159.4547 H   0  0  0  0  0  0  0  0  0  0  0  0  # atno 6907 bound_to 6896
  152.0537  134.9635  160.0584 H   0  0  0  0  0  0  0  0  0  0  0  0  # atno 6908 bound_to 6896
  152.1089  133.4255  159.4659 H   0  0  0  0  0  0  0  0  0  0  0  0  # atno 6909 bound_to 6896
  146.2401  139.9765  142.8441 H   0  0  0  0  0  0  0  0  0  0  0  0  # atno 7974 bound_to 7965
  155.0751  140.3204  155.4618 H   0  0  0  0  0  0  0  0  0  0  0  0  # atno 8008 bound_to 7997
  156.2781  140.2105  156.5824 H   0  0  0  0  0  0  0  0  0  0  0  0  # atno 8009 bound_to 7997
  154.7023  140.0506  157.0458 H   0  0  0  0  0  0  0  0  0  0  0  0  # atno 8010 bound_to 7997
  140.3248  144.2661  150.6177 H   0  0  0  0  0  0  0  0  0  0  0  0  # atno 10167 bound_to 10162
  156.1858  130.6763  151.0363 H   0  0  0  0  0  0  0  0  0  0  0  0  # atno 10718 bound_to 10713
  153.1202  135.4728  154.9183 H   0  0  0  0  0  0  0  0  0  0  0  0  # atno 10763 bound_to 10752
  154.7568  135.3120  154.8456 H   0  0  0  0  0  0  0  0  0  0  0  0  # atno 10764 bound_to 10752
  153.9023  135.6874  153.4808 H   0  0  0  0  0  0  0  0  0  0  0  0  # atno 10765 bound_to 10752
  141.1559  133.7712  156.9782 H   0  0  0  0  0  0  0  0  0  0  0  0  # atno 11005 bound_to 11000
  145.1632  140.9683  143.4365 LP  0  0  0  0  0  0  0  0  0  0  0  0  # atno 17320 bound_to 7965
  145.0097  139.3522  143.6126 LP  0  0  0  0  0  0  0  0  0  0  0  0  # atno 17321 bound_to 7965
  140.5451  143.2216  151.8021 LP  0  0  0  0  0  0  0  0  0  0  0  0  # atno 17342 bound_to 10162
  139.4867  144.4550  151.9609 LP  0  0  0  0  0  0  0  0  0  0  0  0  # atno 17343 bound_to 10162
  157.6898  131.0813  150.7140 LP  0  0  0  0  0  0  0  0  0  0  0  0  # atno 17370 bound_to 10713
  156.7197  130.4676  149.5526 LP  0  0  0  0  0  0  0  0  0  0  0  0  # atno 17371 bound_to 10713
  140.1084  134.9492  157.2028 LP  0  0  0  0  0  0  0  0  0  0  0  0  # atno 17394 bound_to 11000
  140.3226  134.2899  155.7243 LP  0  0  0  0  0  0  0  0  0  0  0  0  # atno 17395 bound_to 11000

$$$$
