AV-unprocessed.smi:697|AV-procd|sdf|3395|dock6
  -GOLD-   22720 0373D 1   1.00000     0.00000
 Structure written by MMmdl.
 43 44  0  0  0  0  0  0  0  0  2 V2000
  158.0183  141.8829  167.3812 C   0  0  0  0  0  0  0  0  0  0  0  0
  157.8225  140.6234  166.7499 O   0  0  0  0  0  0  0  0  0  0  0  0
  156.4717  140.2310  166.4706 C   0  0  1  0  0  0  0  0  0  0  0  0
  155.6405  140.2042  167.7596 C   0  0  0  0  0  0  0  0  0  0  0  0
  155.9400  140.9995  165.2458 C   0  0  0  0  0  0  0  0  0  0  0  0
  156.6310  139.9493  164.3783 C   0  0  2  0  0  0  0  0  0  0  0  0
  155.8543  139.5991  163.1937 N   0  0  0  0  0  0  0  0  0  0  0  0
  155.1666  140.4762  162.4505 C   0  0  0  0  0  0  0  0  0  0  0  0
  155.1052  141.6768  162.7147 O   0  0  0  0  0  0  0  0  0  0  0  0
  154.5747  139.8596  161.4115 N   0  0  0  0  0  0  0  0  0  0  0  0
  153.8002  140.3968  160.3680 C   0  0  0  0  0  0  0  0  0  0  0  0
  153.3006  141.6637  160.3367 C   0  0  0  0  0  0  0  0  0  0  0  0
  152.5155  142.1661  159.2162 C   0  0  0  0  0  0  0  0  0  0  0  0
  151.8644  143.5377  159.1933 C   0  0  0  0  0  0  0  0  0  0  0  0
  152.3552  144.2871  158.2061 F   0  0  0  0  0  0  0  0  0  0  0  0
  150.5454  143.4369  159.0294 F   0  0  0  0  0  0  0  0  0  0  0  0
  152.0924  144.1670  160.3450 F   0  0  0  0  0  0  0  0  0  0  0  0
  152.3425  141.2155  158.2290 C   0  0  0  0  0  0  0  0  0  0  0  0
  152.8229  139.9542  158.1695 N   0  5  0  0  0  0  0  0  0  0  0  0
  153.5569  139.4953  159.2224 C   0  0  0  0  0  0  0  0  0  0  0  0
  154.0185  138.3535  159.2355 O   0  0  0  0  0  0  0  0  0  0  0  0
  156.5023  138.9574  165.5633 C   0  0  0  0  0  0  0  0  0  0  0  0
  157.6815  137.9992  165.7654 C   0  0  0  0  0  0  0  0  0  0  0  0
  155.2385  138.0766  165.5935 C   0  0  0  0  0  0  0  0  0  0  0  0
  159.0817  142.1206  167.3768 H   0  0  0  0  0  0  0  0  0  0  0  0
  157.6976  141.8632  168.4227 H   0  0  0  0  0  0  0  0  0  0  0  0
  157.4968  142.6911  166.8695 H   0  0  0  0  0  0  0  0  0  0  0  0
  154.6397  139.8097  167.5884 H   0  0  0  0  0  0  0  0  0  0  0  0
  155.5034  141.2014  168.1766 H   0  0  0  0  0  0  0  0  0  0  0  0
  156.1111  139.5827  168.5217 H   0  0  0  0  0  0  0  0  0  0  0  0
  154.8511  140.9792  165.1743 H   0  0  0  0  0  0  0  0  0  0  0  0
  156.3210  142.0110  165.1096 H   0  0  0  0  0  0  0  0  0  0  0  0
  157.6665  140.2228  164.1629 H   0  0  0  0  0  0  0  0  0  0  0  0
  155.8516  138.6289  162.9148 H   0  0  0  0  0  0  0  0  0  0  0  0
  154.6828  138.8567  161.3679 H   0  0  0  0  0  0  0  0  0  0  0  0
  153.4851  142.3548  161.1417 H   0  0  0  0  0  0  0  0  0  0  0  0
  151.7217  141.5118  157.3566 H   0  0  0  0  0  0  0  0  0  0  0  0
  157.6682  137.1879  165.0367 H   0  0  0  0  0  0  0  0  0  0  0  0
  157.6663  137.5513  166.7594 H   0  0  0  0  0  0  0  0  0  0  0  0
  158.6415  138.5031  165.6512 H   0  0  0  0  0  0  0  0  0  0  0  0
  155.2613  137.3122  164.8159 H   0  0  0  0  0  0  0  0  0  0  0  0
  154.3279  138.6562  165.4411 H   0  0  0  0  0  0  0  0  0  0  0  0
  155.1347  137.5599  166.5479 H   0  0  0  0  0  0  0  0  0  0  0  0
  1  2  1  0  0  0  0
  1 25  1  0  0  0  0
  1 26  1  0  0  0  0
  1 27  1  0  0  0  0
  2  3  1  0  0  0  0
  3 22  1  0  0  0  0
  3  4  1  0  0  0  0
  3  5  1  0  0  0  0
  4 28  1  0  0  0  0
  4 29  1  0  0  0  0
  4 30  1  0  0  0  0
  5  6  1  0  0  0  0
  5 31  1  0  0  0  0
  5 32  1  0  0  0  0
  6  7  1  0  0  0  0
  6 22  1  0  0  0  0
  6 33  1  0  0  0  0
  7  8  1  0  0  0  0
  7 34  1  0  0  0  0
  8  9  2  0  0  0  0
  8 10  1  0  0  0  0
 10 11  1  0  0  0  0
 10 35  1  0  0  0  0
 11 20  1  0  0  0  0
 11 12  2  0  0  0  0
 12 13  1  0  0  0  0
 12 36  1  0  0  0  0
 13 14  1  0  0  0  0
 13 18  2  0  0  0  0
 14 15  1  0  0  0  0
 14 16  1  0  0  0  0
 14 17  1  0  0  0  0
 18 19  1  0  0  0  0
 18 37  1  0  0  0  0
 19 20  1  0  0  0  0
 20 21  2  0  0  0  0
 22 23  1  0  0  0  0
 22 24  1  0  0  0  0
 23 38  1  0  0  0  0
 23 39  1  0  0  0  0
 23 40  1  0  0  0  0
 24 41  1  0  0  0  0
 24 42  1  0  0  0  0
 24 43  1  0  0  0  0
M  CHG  1  19  -1
M  END
> <s_m_source_file>
AV-unprocessed.smi

> <i_m_source_file_index>
697

> <i_lp_mmshare_version>
43012

> <i_f3d_flags>
0

> <s_epik_input>
W0NIM11PW0NAQF0xKFtDSDNdKVtDSDJdW0NASF0oQzEoW0NIM10pW0NIM10pW05IXUMoPU8pW05IXWMyW2NIXWMoQyhGKShGKUYpW2NIXVtuSF1jMj1P

> <s_epik_cmdline>
J2VwaWtfcHl0aG9uJywgJy1waCcsICc3LjAnLCAnLXRuJywgJzgnLCAnLW1hJywgJzIwMCcsICctbWV0YWxfYmluZGluZycsICctaW1hZScsICc8aW5maWxlLm1hZT4nLCAnLW9tYWUnLCAnPG91dGZpbGUubWFlPic=

> <r_lp_tautomer_probability>
1

> <r_epik_Ionization_Penalty>
3.20094

> <r_epik_Ionization_Penalty_Charging>
0.180017

> <r_epik_Ionization_Penalty_Neutral>
3.02092

> <r_epik_State_Penalty>
3.01726

> <r_epik_Charging_Adjusted_Penalty>
3.19727

> <i_epik_Tot_Q>
-1

> <i_epik_Tot_abs_Q>
1

> <r_epik_Metal_State_Penalty>
0.455096

> <b_epik_Metal_Only>
1

> <s_lp_Force_Field>
OPLS_2005

> <r_lp_Energy>
36.256

> <b_lp_Chiralities_Consistent>
1

> <s_lp_Variant>
AV-unprocessed.smi:697-7

> <Gold.Version>
5.8.1

> <Gold.Id.Protein>
6NUR|6NUR_protein|mol2

> <Gold.PLP.Fitness>
43.0585

> <Gold.PLP.PLP>
-37.5522

> <Gold.PLP.part.hbond>
-0.7872

> <Gold.PLP.part.metal>
0.0000

> <Gold.PLP.part.buried>
-1.4415

> <Gold.PLP.part.nonpolar>
-34.6360

> <Gold.PLP.part.repulsive>
0.0000

> <Gold.PLP.ligand.clash>
0.0028

> <Gold.PLP.ligand.torsion>
0.4784

> <Gold.PLP.Chemscore.Hbond>
2.0000

> <Gold.PLP.Chemscore.CHOScore>
0.0000

> <Gold.PLP.Chemscore.Metal>
0.0000

> <Gold.Chemscore.Hbonds>
donor molecule, donor type, donor heavy atom, donor atom, acceptor molecule, acceptor atom, score
      P1  H  7997  8009       L1    19  1.30

> <Gold.PLP.Chemscore.Internal.Correction>
0.4660

> <Gold.Rescore>
     Score         DG    S(hbond)    S(metal)    S(lipo)     H(rot)  DE(clash)    DE(int)     intcor
      7.29     -10.93       0.00        0.00      74.93       1.30       0.61       3.02       ----

> <Gold.Chemscore.Fitness>
7.2911

> <Gold.Chemscore.DG>
-10.9261

> <Gold.Chemscore.ZeroCoef>
-5.4800

> <Gold.Chemscore.Hbond>
0.0000

> <Gold.Chemscore.Metal>
0.0000

> <Gold.Chemscore.Lipo>
74.9325

> <Gold.Chemscore.Internal_Hbond>
0.0000

> <Gold.Chemscore.DEClash>
0.6142

> <Gold.Chemscore.DEInternal>
3.0208

> <Gold.Chemscore.Rot>
1.2973

> <Gold.Chemscore.Internal.Correction>
   9.000000E+99

> <Gold.Chemscore.Hbonds>
donor molecule, donor type, donor heavy atom, donor atom, acceptor molecule, acceptor atom, score
      P1  H  7997  8009       L1    19  0.05

> <Gold.Chemscore.Hbond.Weighted>
-0.0000

> <Gold.Chemscore.Metal.Weighted>
-0.0000

> <Gold.Chemscore.Lipo.Weighted>
-8.7671

> <Gold.Chemscore.Internal_Hbond.Weighted>
0.0000

> <Gold.Chemscore.DEClash.Weighted>
0.6142

> <Gold.Chemscore.DEInternal.Weighted>
3.0208

> <Gold.Chemscore.Rot.Weighted>
3.3210

> <Gold.Chemscore.Internal.Correction.Weighted>
   9.000000E+99

> <Gold.Protein.RotatedTorsions>
[ 6907 6896 6895 6894 ] final  111.83 input  -60.11 | X-H torsion
[ 7974 7965 7964 7962 ] final  -96.60 input  175.53 | X-H torsion
[ 8008 7997 7996 7995 ] final  172.71 input   59.86 | X-H torsion
[ 10167 10162 10161 10158 ] final  150.98 input  -65.29 | X-H torsion
[ 10718 10713 10712 10709 ] final   17.97 input   66.30 | X-H torsion
[ 10763 10752 10751 10750 ] final  -96.62 input  -60.55 | X-H torsion
[ 11005 11000 10999 10996 ] final  -52.03 input  -57.11 | X-H torsion

> <Gold.Protein.ActiveResidues>
 VAL166  LYS551  ARG553  GLY616  TRP617  ASP618  TYR619  PRO620  LYS621  CYS622 
 ASP623  PHE694  ASN695  SER759  ASP760  ASP761  ALA762  ILE779  LEU786  VAL792 
 PHE793  MET794  SER795  GLU796  ALA797  LYS798  CYS799  TRP800  GLU811  SER814 

> <Gold.Protein.RotatedAtoms>
  152.4949  133.8602  159.7246 H   0  0  0  0  0  0  0  0  0  0  0  0  # atno 6907 bound_to 6896
  150.9116  133.6982  159.2860 H   0  0  0  0  0  0  0  0  0  0  0  0  # atno 6908 bound_to 6896
  151.4389  135.1022  159.9717 H   0  0  0  0  0  0  0  0  0  0  0  0  # atno 6909 bound_to 6896
  145.3447  140.9466  143.2588 H   0  0  0  0  0  0  0  0  0  0  0  0  # atno 7974 bound_to 7965
  156.1148  140.1479  156.9288 H   0  0  0  0  0  0  0  0  0  0  0  0  # atno 8008 bound_to 7997
  154.4792  140.0884  156.7380 H   0  0  0  0  0  0  0  0  0  0  0  0  # atno 8009 bound_to 7997
  155.4533  140.3435  155.4306 H   0  0  0  0  0  0  0  0  0  0  0  0  # atno 8010 bound_to 7997
  139.4845  144.5478  151.7454 H   0  0  0  0  0  0  0  0  0  0  0  0  # atno 10167 bound_to 10162
  157.0897  130.6422  149.5846 H   0  0  0  0  0  0  0  0  0  0  0  0  # atno 10718 bound_to 10713
  154.7256  135.5077  153.8880 H   0  0  0  0  0  0  0  0  0  0  0  0  # atno 10763 bound_to 10752
  153.0901  135.6657  153.9879 H   0  0  0  0  0  0  0  0  0  0  0  0  # atno 10764 bound_to 10752
  153.9692  135.3040  155.3408 H   0  0  0  0  0  0  0  0  0  0  0  0  # atno 10765 bound_to 10752
  141.0903  133.6634  156.3965 H   0  0  0  0  0  0  0  0  0  0  0  0  # atno 11005 bound_to 11000
  144.8763  139.4966  143.6744 LP  0  0  0  0  0  0  0  0  0  0  0  0  # atno 17320 bound_to 7965
  146.2993  139.7376  142.9103 LP  0  0  0  0  0  0  0  0  0  0  0  0  # atno 17321 bound_to 7965
  140.5027  144.1145  150.5975 LP  0  0  0  0  0  0  0  0  0  0  0  0  # atno 17342 bound_to 10162
  140.4043  143.2688  151.9909 LP  0  0  0  0  0  0  0  0  0  0  0  0  # atno 17343 bound_to 10162
  155.9901  130.4951  150.7243 LP  0  0  0  0  0  0  0  0  0  0  0  0  # atno 17370 bound_to 10713
  157.4731  131.0895  151.0620 LP  0  0  0  0  0  0  0  0  0  0  0  0  # atno 17371 bound_to 10713
  140.5268  134.6251  157.5337 LP  0  0  0  0  0  0  0  0  0  0  0  0  # atno 17394 bound_to 11000
  139.9727  134.7265  156.0009 LP  0  0  0  0  0  0  0  0  0  0  0  0  # atno 17395 bound_to 11000

$$$$
