AV-unprocessed.smi:186|AV-procd|sdf|1467|dock9
  -GOLD-   2262019283D 1   1.00000     0.00000
 Structure written by MMmdl.
 48 51  0  0  0  0  0  0  0  0  1 V2000
  145.7548  132.4902  150.8280 C   0  0  0  0  0  0  0  0  0  0  0  0
  146.2297  132.5852  152.1594 O   0  0  0  0  0  0  0  0  0  0  0  0
  147.6083  132.9173  152.2214 C   0  0  0  0  0  0  0  0  0  0  0  0
  148.0024  133.2151  153.6691 C   0  0  0  0  0  0  0  0  0  0  0  0
  147.6861  132.4489  154.5798 O   0  0  0  0  0  0  0  0  0  0  0  0
  148.6972  134.3443  153.8679 N   0  0  0  0  0  0  0  0  0  0  0  0
  149.1685  134.8050  155.1675 C   0  0  0  0  0  0  0  0  0  0  0  0
  148.9705  136.3046  155.4043 C   0  0  0  0  0  0  0  0  0  0  0  0
  150.3010  136.2617  155.9992 N   0  0  0  0  0  0  0  0  0  0  0  0
  151.0896  137.4346  155.8269 C   0  0  0  0  0  0  0  0  0  0  0  0
  152.2235  137.3742  155.0780 N   0  0  0  0  0  0  0  0  0  0  0  0
  152.9938  138.4517  154.9031 C   0  0  0  0  0  0  0  0  0  0  0  0
  152.8294  139.6805  155.3920 N   0  0  0  0  0  0  0  0  0  0  0  0
  151.7110  139.7531  156.1670 C   0  0  0  0  0  0  0  0  0  0  0  0
  150.7974  138.6925  156.4301 C   0  0  0  0  0  0  0  0  0  0  0  0
  149.7782  139.1472  157.2589 N   0  0  0  0  0  0  0  0  0  0  0  0
  150.0692  140.4019  157.4680 C   0  0  0  0  0  0  0  0  0  0  0  0
  151.2224  140.8462  156.8619 N   0  0  0  0  0  0  0  0  0  0  0  0
  151.7844  142.1874  156.9290 C   0  0  0  0  0  0  0  0  0  0  0  0
  151.9520  142.7363  158.3692 C   0  0  2  0  0  0  0  0  0  0  0  0
  152.3734  141.6895  159.2243 O   0  0  0  0  0  0  0  0  0  0  0  0
  150.6875  143.3761  158.9492 C   0  0  0  0  0  0  0  0  0  0  0  0
  150.9430  144.8667  158.7772 C   0  0  0  0  0  0  0  0  0  0  0  0
  152.3260  144.9712  159.0620 O   0  0  0  0  0  0  0  0  0  0  0  0
  152.9806  143.8843  158.4205 C   0  0  0  0  0  0  0  0  0  0  0  0
  150.6676  135.1024  155.1909 C   0  0  0  0  0  0  0  0  0  0  0  0
  144.6946  132.2372  150.8337 H   0  0  0  0  0  0  0  0  0  0  0  0
  146.2836  131.7119  150.2764 H   0  0  0  0  0  0  0  0  0  0  0  0
  145.8725  133.4366  150.2987 H   0  0  0  0  0  0  0  0  0  0  0  0
  148.2124  132.0907  151.8435 H   0  0  0  0  0  0  0  0  0  0  0  0
  147.8157  133.7952  151.6074 H   0  0  0  0  0  0  0  0  0  0  0  0
  148.9160  134.9202  153.0680 H   0  0  0  0  0  0  0  0  0  0  0  0
  148.8442  134.1891  156.0100 H   0  0  0  0  0  0  0  0  0  0  0  0
  148.9266  136.8971  154.4882 H   0  0  0  0  0  0  0  0  0  0  0  0
  148.1736  136.5500  156.1067 H   0  0  0  0  0  0  0  0  0  0  0  0
  153.8679  138.3075  154.2856 H   0  0  0  0  0  0  0  0  0  0  0  0
  149.4487  141.0400  158.0804 H   0  0  0  0  0  0  0  0  0  0  0  0
  152.7492  142.1742  156.4201 H   0  0  0  0  0  0  0  0  0  0  0  0
  151.1438  142.8520  156.3474 H   0  0  0  0  0  0  0  0  0  0  0  0
  151.7087  141.5534  159.8819 H   0  0  0  0  0  0  0  0  0  0  0  0
  149.7608  143.0566  158.4758 H   0  0  0  0  0  0  0  0  0  0  0  0
  150.5972  143.1593  160.0150 H   0  0  0  0  0  0  0  0  0  0  0  0
  150.7491  145.1839  157.7513 H   0  0  0  0  0  0  0  0  0  0  0  0
  150.3440  145.4791  159.4512 H   0  0  0  0  0  0  0  0  0  0  0  0
  153.8973  143.6227  158.9509 H   0  0  0  0  0  0  0  0  0  0  0  0
  153.2658  144.2030  157.4168 H   0  0  0  0  0  0  0  0  0  0  0  0
  151.2702  134.3635  155.7196 H   0  0  0  0  0  0  0  0  0  0  0  0
  151.0783  135.3636  154.2134 H   0  0  0  0  0  0  0  0  0  0  0  0
  1  2  1  0  0  0  0
  1 27  1  0  0  0  0
  1 28  1  0  0  0  0
  1 29  1  0  0  0  0
  2  3  1  0  0  0  0
  3  4  1  0  0  0  0
  3 30  1  0  0  0  0
  3 31  1  0  0  0  0
  4  5  2  0  0  0  0
  4  6  1  0  0  0  0
  6  7  1  0  0  0  0
  6 32  1  0  0  0  0
  7 26  1  0  0  0  0
  7  8  1  0  0  0  0
  7 33  1  0  0  0  0
  8  9  1  0  0  0  0
  8 34  1  0  0  0  0
  8 35  1  0  0  0  0
  9 10  1  0  0  0  0
  9 26  1  0  0  0  0
 10 15  1  0  0  0  0
 10 11  2  0  0  0  0
 11 12  1  0  0  0  0
 12 13  2  0  0  0  0
 12 36  1  0  0  0  0
 13 14  1  0  0  0  0
 14 18  1  0  0  0  0
 14 15  2  0  0  0  0
 15 16  1  0  0  0  0
 16 17  2  0  0  0  0
 17 18  1  0  0  0  0
 17 37  1  0  0  0  0
 18 19  1  0  0  0  0
 19 20  1  0  0  0  0
 19 38  1  0  0  0  0
 19 39  1  0  0  0  0
 20 25  1  0  0  0  0
 20 21  1  0  0  0  0
 20 22  1  0  0  0  0
 21 40  1  0  0  0  0
 22 23  1  0  0  0  0
 22 41  1  0  0  0  0
 22 42  1  0  0  0  0
 23 24  1  0  0  0  0
 23 43  1  0  0  0  0
 23 44  1  0  0  0  0
 24 25  1  0  0  0  0
 25 45  1  0  0  0  0
 25 46  1  0  0  0  0
 26 47  1  0  0  0  0
 26 48  1  0  0  0  0
M  END
> <s_m_source_file>
AV-unprocessed.smi

> <i_m_source_file_index>
186

> <i_lp_mmshare_version>
43012

> <i_f3d_flags>
0

> <s_epik_input>
W0NIM11PW0NIMl1DKD1PKVtOSF1bQ0hdMVtDSDJdTihbQ0gyXTEpYyhuW2NIXW4yKWMoYzIzKW5bY0hdbjNbQ0gyXVtDQEBdNChbT0hdKVtDSDJdW0NIMl1PW0NIMl00

> <s_epik_cmdline>
J2VwaWtfcHl0aG9uJywgJy1waCcsICc3LjAnLCAnLXRuJywgJzgnLCAnLW1hJywgJzIwMCcsICctbWV0YWxfYmluZGluZycsICctaW1hZScsICc8aW5maWxlLm1hZT4nLCAnLW9tYWUnLCAnPG91dGZpbGUubWFlPic=

> <r_lp_tautomer_probability>
1

> <r_epik_Ionization_Penalty>
0.00138671

> <r_epik_Ionization_Penalty_Charging>
0

> <r_epik_Ionization_Penalty_Neutral>
0.00138671

> <r_epik_State_Penalty>
0.000746021

> <r_epik_Charging_Adjusted_Penalty>
0.000746021

> <i_epik_Tot_Q>
0

> <i_epik_Tot_abs_Q>
0

> <r_epik_Metal_State_Penalty>
-0

> <b_epik_Metal_Only>
0

> <s_lp_Force_Field>
OPLS_2005

> <r_lp_Energy>
43.6542

> <b_lp_Chiralities_Consistent>
1

> <s_lp_Variant>
AV-unprocessed.smi:186-2

> <Gold.Version>
5.8.1

> <Gold.Id.Protein>
6NUR|6NUR_protein|mol2

> <Gold.PLP.Fitness>
46.8564

> <Gold.PLP.PLP>
-39.0023

> <Gold.PLP.part.hbond>
-4.0000

> <Gold.PLP.part.metal>
0.0000

> <Gold.PLP.part.buried>
-7.2041

> <Gold.PLP.part.nonpolar>
-28.4689

> <Gold.PLP.part.repulsive>
0.3615

> <Gold.PLP.ligand.clash>
0.0000

> <Gold.PLP.ligand.torsion>
0.7848

> <Gold.PLP.Chemscore.Hbond>
2.9703

> <Gold.PLP.Chemscore.CHOScore>
0.0000

> <Gold.PLP.Chemscore.Metal>
0.0000

> <Gold.Chemscore.Hbonds>
donor molecule, donor type, donor heavy atom, donor atom, acceptor molecule, acceptor atom, score
      L1  H     6    32       P1  7948  0.90
      P1  H  7997  8008       L1    13  1.00
      P1  H 10752 10764       L1    11  0.75

> <Gold.PLP.Chemscore.Internal.Correction>
0.5127

> <Gold.Rescore>
     Score         DG    S(hbond)    S(metal)    S(lipo)     H(rot)  DE(clash)    DE(int)     intcor
     11.37     -12.24       1.98        0.00      74.79       3.36       0.06       0.81       ----

> <Gold.Chemscore.Fitness>
11.3717

> <Gold.Chemscore.DG>
-12.2398

> <Gold.Chemscore.ZeroCoef>
-5.4800

> <Gold.Chemscore.Hbond>
1.9807

> <Gold.Chemscore.Metal>
0.0000

> <Gold.Chemscore.Lipo>
74.7944

> <Gold.Chemscore.Internal_Hbond>
0.0000

> <Gold.Chemscore.DEClash>
0.0563

> <Gold.Chemscore.DEInternal>
0.8118

> <Gold.Chemscore.Rot>
3.3620

> <Gold.Chemscore.Internal.Correction>
   9.000000E+99

> <Gold.Chemscore.Hbonds>
donor molecule, donor type, donor heavy atom, donor atom, acceptor molecule, acceptor atom, score
      L1  H     6    32       P1  7948  0.18
      P1  H  7997  8008       L1    13  0.55
      P1  H 10752 10764       L1    11  0.69

> <Gold.Chemscore.Hbond.Weighted>
-6.6156

> <Gold.Chemscore.Metal.Weighted>
-0.0000

> <Gold.Chemscore.Lipo.Weighted>
-8.7509

> <Gold.Chemscore.Internal_Hbond.Weighted>
0.0000

> <Gold.Chemscore.DEClash.Weighted>
0.0563

> <Gold.Chemscore.DEInternal.Weighted>
0.8118

> <Gold.Chemscore.Rot.Weighted>
8.6067

> <Gold.Chemscore.Internal.Correction.Weighted>
   9.000000E+99

> <Gold.Protein.RotatedTorsions>
[ 6907 6896 6895 6894 ] final  171.62 input  -60.11 | X-H torsion
[ 7974 7965 7964 7962 ] final  -98.66 input  175.53 | X-H torsion
[ 8008 7997 7996 7995 ] final  -19.33 input   59.86 | X-H torsion
[ 10167 10162 10161 10158 ] final  156.12 input  -65.29 | X-H torsion
[ 10718 10713 10712 10709 ] final  -49.62 input   66.30 | X-H torsion
[ 10763 10752 10751 10750 ] final  -58.50 input  -60.55 | X-H torsion
[ 11005 11000 10999 10996 ] final  102.12 input  -57.11 | X-H torsion

> <Gold.Protein.ActiveResidues>
 VAL166  LYS551  ARG553  GLY616  TRP617  ASP618  TYR619  PRO620  LYS621  CYS622 
 ASP623  PHE694  ASN695  SER759  ASP760  ASP761  ALA762  ILE779  LEU786  VAL792 
 PHE793  MET794  SER795  GLU796  ALA797  LYS798  CYS799  TRP800  GLU811  SER814 

> <Gold.Protein.RotatedAtoms>
  151.7972  133.3366  159.3516 H   0  0  0  0  0  0  0  0  0  0  0  0  # atno 6907 bound_to 6896
  150.7371  134.5787  159.5937 H   0  0  0  0  0  0  0  0  0  0  0  0  # atno 6908 bound_to 6896
  152.3168  134.7431  160.0374 H   0  0  0  0  0  0  0  0  0  0  0  0  # atno 6909 bound_to 6896
  145.3178  140.9415  143.2733 H   0  0  0  0  0  0  0  0  0  0  0  0  # atno 7974 bound_to 7965
  154.4844  140.2092  155.9689 H   0  0  0  0  0  0  0  0  0  0  0  0  # atno 8008 bound_to 7997
  156.1214  140.3212  155.8183 H   0  0  0  0  0  0  0  0  0  0  0  0  # atno 8009 bound_to 7997
  155.4461  140.0513  157.2996 H   0  0  0  0  0  0  0  0  0  0  0  0  # atno 8010 bound_to 7997
  139.4821  144.5037  151.8129 H   0  0  0  0  0  0  0  0  0  0  0  0  # atno 10167 bound_to 10162
  156.1876  130.4152  149.9417 H   0  0  0  0  0  0  0  0  0  0  0  0  # atno 10718 bound_to 10713
  154.2391  135.6347  153.5201 H   0  0  0  0  0  0  0  0  0  0  0  0  # atno 10763 bound_to 10752
  152.9933  135.5538  154.5930 H   0  0  0  0  0  0  0  0  0  0  0  0  # atno 10764 bound_to 10752
  154.5431  135.2896  155.1052 H   0  0  0  0  0  0  0  0  0  0  0  0  # atno 10765 bound_to 10752
  139.8776  134.9211  156.5010 H   0  0  0  0  0  0  0  0  0  0  0  0  # atno 11005 bound_to 11000
  144.8964  139.4707  143.6653 LP  0  0  0  0  0  0  0  0  0  0  0  0  # atno 17320 bound_to 7965
  146.3094  139.7692  142.9031 LP  0  0  0  0  0  0  0  0  0  0  0  0  # atno 17321 bound_to 7965
  140.4533  144.1824  150.5899 LP  0  0  0  0  0  0  0  0  0  0  0  0  # atno 17342 bound_to 10162
  140.4562  143.2467  151.9282 LP  0  0  0  0  0  0  0  0  0  0  0  0  # atno 17343 bound_to 10162
  156.7167  130.8991  151.3614 LP  0  0  0  0  0  0  0  0  0  0  0  0  # atno 17370 bound_to 10713
  157.6909  130.9232  150.0511 LP  0  0  0  0  0  0  0  0  0  0  0  0  # atno 17371 bound_to 10713
  140.8589  133.8075  155.9245 LP  0  0  0  0  0  0  0  0  0  0  0  0  # atno 17394 bound_to 11000
  140.9069  134.2309  157.5009 LP  0  0  0  0  0  0  0  0  0  0  0  0  # atno 17395 bound_to 11000

$$$$
