AV-unprocessed.smi:2091|AV-procd|sdf|8539|dock8
  -GOLD-   2272011263D 1   1.00000     0.00000
 Structure written by MMmdl.
 36 37  0  0  0  0  0  0  0  0  1 V2000
  145.8642  138.0282  154.7193 O   0  0  0  0  0  0  0  0  0  0  0  0
  146.5363  137.6559  153.7566 C   0  0  0  0  0  0  0  0  0  0  0  0
  145.9142  136.7820  152.6586 C   0  0  0  0  0  0  0  0  0  0  0  0
  144.6200  136.2080  153.0539 N   0  0  0  0  0  0  0  0  0  0  0  0
  143.4395  136.8823  152.7767 C   0  0  0  0  0  0  0  0  0  0  0  0
  142.2147  136.4050  153.1017 C   0  0  0  0  0  0  0  0  0  0  0  0
  142.0783  135.1199  153.7786 C   0  0  0  0  0  0  0  0  0  0  0  0
  141.0143  134.6051  154.1151 O   0  0  0  0  0  0  0  0  0  0  0  0
  143.2884  134.4710  154.0377 N   0  0  0  0  0  0  0  0  0  0  0  0
  144.5537  134.9563  153.7042 C   0  0  0  0  0  0  0  0  0  0  0  0
  145.5588  134.3008  153.9758 O   0  0  0  0  0  0  0  0  0  0  0  0
  147.8348  137.9618  153.6049 N   0  0  0  0  0  0  0  0  0  0  0  0
  148.6211  138.8019  154.5110 C   0  0  1  0  0  0  0  0  0  0  0  0
  150.1020  138.6961  154.0803 C   0  0  0  0  0  0  0  0  0  0  0  0
  151.0999  139.0560  155.1951 C   0  0  0  0  0  0  0  0  0  0  0  0
  151.0509  140.5181  155.6650 C   0  0  0  0  0  0  0  0  0  0  0  0
  149.7043  140.9226  156.2889 C   0  0  0  0  0  0  0  0  0  0  0  0
  148.6852  141.1707  155.2776 N   0  0  0  0  0  0  0  0  0  0  0  0
  148.1688  140.2786  154.4188 C   0  0  0  0  0  0  0  0  0  0  0  0
  147.3525  140.6350  153.5691 O   0  0  0  0  0  0  0  0  0  0  0  0
  143.2441  133.5758  154.5021 H   0  0  0  0  0  0  0  0  0  0  0  0
  145.8009  137.3608  151.7394 H   0  0  0  0  0  0  0  0  0  0  0  0
  146.6236  135.9901  152.4146 H   0  0  0  0  0  0  0  0  0  0  0  0
  143.4918  137.8365  152.2719 H   0  0  0  0  0  0  0  0  0  0  0  0
  141.3308  136.9767  152.8583 H   0  0  0  0  0  0  0  0  0  0  0  0
  148.3080  137.6157  152.7832 H   0  0  0  0  0  0  0  0  0  0  0  0
  148.4994  138.4350  155.5319 H   0  0  0  0  0  0  0  0  0  0  0  0
  150.3132  137.6670  153.7850 H   0  0  0  0  0  0  0  0  0  0  0  0
  150.2952  139.2988  153.1909 H   0  0  0  0  0  0  0  0  0  0  0  0
  150.9410  138.3963  156.0489 H   0  0  0  0  0  0  0  0  0  0  0  0
  152.1082  138.8415  154.8398 H   0  0  0  0  0  0  0  0  0  0  0  0
  151.8330  140.6593  156.4115 H   0  0  0  0  0  0  0  0  0  0  0  0
  151.3011  141.1883  154.8411 H   0  0  0  0  0  0  0  0  0  0  0  0
  149.3597  140.1765  157.0062 H   0  0  0  0  0  0  0  0  0  0  0  0
  149.8325  141.8492  156.8487 H   0  0  0  0  0  0  0  0  0  0  0  0
  148.3608  142.1236  155.1974 H   0  0  0  0  0  0  0  0  0  0  0  0
  1  2  2  0  0  0  0
  2  3  1  0  0  0  0
  2 12  1  0  0  0  0
  3  4  1  0  0  0  0
  3 22  1  0  0  0  0
  3 23  1  0  0  0  0
  4 10  1  0  0  0  0
  4  5  1  0  0  0  0
  5  6  2  0  0  0  0
  5 24  1  0  0  0  0
  6  7  1  0  0  0  0
  6 25  1  0  0  0  0
  7  8  2  0  0  0  0
  7  9  1  0  0  0  0
  9 21  1  0  0  0  0
  9 10  1  0  0  0  0
 10 11  2  0  0  0  0
 12 13  1  0  0  0  0
 12 26  1  0  0  0  0
 13 19  1  0  0  0  0
 13 14  1  0  0  0  0
 13 27  1  0  0  0  0
 14 15  1  0  0  0  0
 14 28  1  0  0  0  0
 14 29  1  0  0  0  0
 15 16  1  0  0  0  0
 15 30  1  0  0  0  0
 15 31  1  0  0  0  0
 16 17  1  0  0  0  0
 16 32  1  0  0  0  0
 16 33  1  0  0  0  0
 17 18  1  0  0  0  0
 17 34  1  0  0  0  0
 17 35  1  0  0  0  0
 18 19  1  0  0  0  0
 18 36  1  0  0  0  0
 19 20  2  0  0  0  0
M  END
> <s_m_source_file>
AV-unprocessed.smi

> <i_m_source_file_index>
2091

> <i_lp_mmshare_version>
43012

> <i_f3d_flags>
0

> <s_epik_input>
Tz1jMVtuSF1jKD1PKVtjSF1bY0hdbjFbQ0gyXUMoPU8pW05IXVtDQEBIXTJbQ0gyXVtDSDJdW0NIMl1bQ0gyXVtOSF1DMj1P

> <s_epik_cmdline>
J2VwaWtfcHl0aG9uJywgJy1waCcsICc3LjAnLCAnLXRuJywgJzgnLCAnLW1hJywgJzIwMCcsICctbWV0YWxfYmluZGluZycsICctaW1hZScsICc8aW5maWxlLm1hZT4nLCAnLW9tYWUnLCAnPG91dGZpbGUubWFlPic=

> <r_lp_tautomer_probability>
0.999537

> <r_epik_Ionization_Penalty>
0.00356328

> <r_epik_Ionization_Penalty_Charging>
0.00356323

> <r_epik_Ionization_Penalty_Neutral>
5.33217e-08

> <r_epik_State_Penalty>
0.00253125

> <r_epik_Charging_Adjusted_Penalty>
0.00609448

> <i_epik_Tot_Q>
0

> <i_epik_Tot_abs_Q>
0

> <r_epik_Metal_State_Penalty>
0.368636

> <b_epik_Metal_Only>
0

> <s_lp_Force_Field>
OPLS_2005

> <r_lp_Energy>
10.1396

> <b_lp_Chiralities_Consistent>
1

> <s_lp_Variant>
AV-unprocessed.smi:2091-2

> <Gold.Version>
5.8.1

> <Gold.Id.Protein>
6NUR|6NUR_protein|mol2

> <Gold.PLP.Fitness>
40.8747

> <Gold.PLP.PLP>
-27.1686

> <Gold.PLP.part.hbond>
-3.8253

> <Gold.PLP.part.metal>
0.0000

> <Gold.PLP.part.buried>
-5.1988

> <Gold.PLP.part.nonpolar>
-19.6129

> <Gold.PLP.part.repulsive>
0.6160

> <Gold.PLP.ligand.clash>
0.0000

> <Gold.PLP.ligand.torsion>
0.6347

> <Gold.PLP.Chemscore.Hbond>
2.9913

> <Gold.PLP.Chemscore.CHOScore>
2.0000

> <Gold.PLP.Chemscore.Metal>
0.0000

> <Gold.Chemscore.Hbonds>
donor molecule, donor type, donor heavy atom, donor atom, acceptor molecule, acceptor atom, score
      L1  H     9    21       P1 10957  1.00
      L1  H    12    26       P1  7948  1.00
      P1  H 11000 11005       L1     8  0.93
      L1  C     5    24       P1 10171  0.87
      L1  C     5    24       P1 10175  0.82

> <Gold.PLP.Chemscore.Internal.Correction>
0.0018

> <Gold.Rescore>
     Score         DG    S(hbond)    S(metal)    S(lipo)     H(rot)  DE(clash)    DE(int)     intcor
     14.70     -15.40       2.97        0.00      41.09       1.88       0.00       0.70       ----

> <Gold.Chemscore.Fitness>
14.6960

> <Gold.Chemscore.DG>
-15.3968

> <Gold.Chemscore.ZeroCoef>
-5.4800

> <Gold.Chemscore.Hbond>
2.9740

> <Gold.Chemscore.Metal>
0.0000

> <Gold.Chemscore.Lipo>
41.0919

> <Gold.Chemscore.Internal_Hbond>
0.0000

> <Gold.Chemscore.DEClash>
0.0000

> <Gold.Chemscore.DEInternal>
0.7009

> <Gold.Chemscore.Rot>
1.8844

> <Gold.Chemscore.Internal.Correction>
   9.000000E+99

> <Gold.Chemscore.Hbonds>
donor molecule, donor type, donor heavy atom, donor atom, acceptor molecule, acceptor atom, score
      L1  H     9    21       P1 10957  0.98
      L1  H    12    26       P1  7948  0.94
      P1  H 11000 11005       L1     8  0.90

> <Gold.Chemscore.Hbond.Weighted>
-9.9333

> <Gold.Chemscore.Metal.Weighted>
-0.0000

> <Gold.Chemscore.Lipo.Weighted>
-4.8078

> <Gold.Chemscore.Internal_Hbond.Weighted>
0.0000

> <Gold.Chemscore.DEClash.Weighted>
0.0000

> <Gold.Chemscore.DEInternal.Weighted>
0.7009

> <Gold.Chemscore.Rot.Weighted>
4.8242

> <Gold.Chemscore.Internal.Correction.Weighted>
   9.000000E+99

> <Gold.Protein.RotatedTorsions>
[ 6907 6896 6895 6894 ] final   -9.02 input  -60.11 | X-H torsion
[ 7974 7965 7964 7962 ] final    6.27 input  175.53 | X-H torsion
[ 8008 7997 7996 7995 ] final    2.17 input   59.86 | X-H torsion
[ 10167 10162 10161 10158 ] final    4.72 input  -65.29 | X-H torsion
[ 10718 10713 10712 10709 ] final  110.68 input   66.30 | X-H torsion
[ 10763 10752 10751 10750 ] final  -53.53 input  -60.55 | X-H torsion
[ 11005 11000 10999 10996 ] final   39.49 input  -57.11 | X-H torsion

> <Gold.Protein.ActiveResidues>
 VAL166  LYS551  ARG553  GLY616  TRP617  ASP618  TYR619  PRO620  LYS621  CYS622 
 ASP623  PHE694  ASN695  SER759  ASP760  ASP761  ALA762  ILE779  LEU786  VAL792 
 PHE793  MET794  SER795  GLU796  ALA797  LYS798  CYS799  TRP800  GLU811  SER814 

> <Gold.Protein.RotatedAtoms>
  151.4244  135.1002  159.9623 H   0  0  0  0  0  0  0  0  0  0  0  0  # atno 6907 bound_to 6896
  152.4977  133.8677  159.7293 H   0  0  0  0  0  0  0  0  0  0  0  0  # atno 6908 bound_to 6896
  150.9200  133.6834  159.2862 H   0  0  0  0  0  0  0  0  0  0  0  0  # atno 6909 bound_to 6896
  146.2436  140.0259  142.8394 H   0  0  0  0  0  0  0  0  0  0  0  0  # atno 7974 bound_to 7965
  154.6884  140.2648  155.6837 H   0  0  0  0  0  0  0  0  0  0  0  0  # atno 8008 bound_to 7997
  156.2723  140.2796  156.1377 H   0  0  0  0  0  0  0  0  0  0  0  0  # atno 8009 bound_to 7997
  155.0931  140.0373  157.2665 H   0  0  0  0  0  0  0  0  0  0  0  0  # atno 8010 bound_to 7997
  140.6520  143.7521  150.7590 H   0  0  0  0  0  0  0  0  0  0  0  0  # atno 10167 bound_to 10162
  157.6482  131.0937  150.6637 H   0  0  0  0  0  0  0  0  0  0  0  0  # atno 10718 bound_to 10713
  154.1604  135.6475  153.4984 H   0  0  0  0  0  0  0  0  0  0  0  0  # atno 10763 bound_to 10752
  153.0112  135.5359  154.6717 H   0  0  0  0  0  0  0  0  0  0  0  0  # atno 10764 bound_to 10752
  154.6029  135.2945  155.0488 H   0  0  0  0  0  0  0  0  0  0  0  0  # atno 10765 bound_to 10752
  140.2023  134.3855  155.8090 H   0  0  0  0  0  0  0  0  0  0  0  0  # atno 11005 bound_to 11000
  145.1199  140.9456  143.4606 LP  0  0  0  0  0  0  0  0  0  0  0  0  # atno 17320 bound_to 7965
  145.0491  139.3196  143.5937 LP  0  0  0  0  0  0  0  0  0  0  0  0  # atno 17321 bound_to 7965
  140.1174  143.4643  152.2334 LP  0  0  0  0  0  0  0  0  0  0  0  0  # atno 17342 bound_to 10162
  139.5736  144.7476  151.3824 LP  0  0  0  0  0  0  0  0  0  0  0  0  # atno 17343 bound_to 10162
  156.6951  130.4606  149.5588 LP  0  0  0  0  0  0  0  0  0  0  0  0  # atno 17370 bound_to 10713
  156.1834  130.6513  151.0978 LP  0  0  0  0  0  0  0  0  0  0  0  0  # atno 17371 bound_to 10713
  141.2227  133.7100  156.8279 LP  0  0  0  0  0  0  0  0  0  0  0  0  # atno 17394 bound_to 11000
  140.2040  134.8876  157.3201 LP  0  0  0  0  0  0  0  0  0  0  0  0  # atno 17395 bound_to 11000

$$$$
