AV-unprocessed.smi:1626|AV-procd|sdf|6515|dock1
  -GOLD-   22720 7183D 1   1.00000     0.00000
 Structure written by MMmdl.
 47 49  0  0  0  0  0  0  0  0  1 V2000
  153.0831  142.7655  161.7590 C   0  0  0  0  0  0  0  0  0  0  0  0
  152.5239  142.4553  160.3815 C   0  0  0  0  0  0  0  0  0  0  0  0
  152.9167  141.2625  159.7330 C   0  0  0  0  0  0  0  0  0  0  0  0
  152.4199  140.9374  158.4517 C   0  0  0  0  0  0  0  0  0  0  0  0
  152.6653  139.8406  157.6432 N   0  0  0  0  0  0  0  0  0  0  0  0
  151.9104  140.1145  156.5828 C   0  0  0  0  0  0  0  0  0  0  0  0
  151.2076  141.2635  156.6076 N   0  0  0  0  0  0  0  0  0  0  0  0
  150.3184  141.7751  155.5786 C   0  0  0  0  0  0  0  0  0  0  0  0
  148.8436  141.3851  155.8167 C   0  0  1  0  0  0  0  0  0  0  0  0
  148.3009  142.2434  156.8018 O   0  0  0  0  0  0  0  0  0  0  0  0
  147.9167  141.4854  154.5842 C   0  0  0  0  0  0  0  0  0  0  0  0
  147.7278  140.2483  153.8200 N   0  0  0  0  0  0  0  0  0  0  0  0
  146.9082  140.4552  152.6199 C   0  0  0  0  0  0  0  0  0  0  0  0
  146.7690  139.1791  151.7725 C   0  0  0  0  0  0  0  0  0  0  0  0
  146.1603  138.0464  152.6137 C   0  0  0  0  0  0  0  0  0  0  0  0
  146.1581  136.8424  151.8756 O   0  0  0  0  0  0  0  0  0  0  0  0
  146.9668  137.8675  153.9095 C   0  0  0  0  0  0  0  0  0  0  0  0
  147.1014  139.2118  154.6459 C   0  0  0  0  0  0  0  0  0  0  0  0
  151.5120  141.8455  157.8327 C   0  0  0  0  0  0  0  0  0  0  0  0
  151.1144  143.0355  158.4669 C   0  0  0  0  0  0  0  0  0  0  0  0
  151.6218  143.3460  159.7458 C   0  0  0  0  0  0  0  0  0  0  0  0
  151.1902  144.6362  160.4198 C   0  0  0  0  0  0  0  0  0  0  0  0
  153.6951  141.9447  162.1343 H   0  0  0  0  0  0  0  0  0  0  0  0
  152.2764  142.9322  162.4730 H   0  0  0  0  0  0  0  0  0  0  0  0
  153.7055  143.6598  161.7237 H   0  0  0  0  0  0  0  0  0  0  0  0
  153.6056  140.5850  160.2159 H   0  0  0  0  0  0  0  0  0  0  0  0
  151.8690  139.4437  155.7370 H   0  0  0  0  0  0  0  0  0  0  0  0
  150.4268  142.8596  155.5292 H   0  0  0  0  0  0  0  0  0  0  0  0
  150.6708  141.3717  154.6308 H   0  0  0  0  0  0  0  0  0  0  0  0
  148.7977  140.3705  156.2147 H   0  0  0  0  0  0  0  0  0  0  0  0
  148.5371  143.1325  156.5852 H   0  0  0  0  0  0  0  0  0  0  0  0
  146.9449  141.8019  154.9668 H   0  0  0  0  0  0  0  0  0  0  0  0
  148.2371  142.2946  153.9260 H   0  0  0  0  0  0  0  0  0  0  0  0
  145.9158  140.8051  152.9082 H   0  0  0  0  0  0  0  0  0  0  0  0
  147.3264  141.2352  151.9914 H   0  0  0  0  0  0  0  0  0  0  0  0
  146.1478  139.3764  150.8982 H   0  0  0  0  0  0  0  0  0  0  0  0
  147.7514  138.8848  151.3995 H   0  0  0  0  0  0  0  0  0  0  0  0
  145.1276  138.2948  152.8624 H   0  0  0  0  0  0  0  0  0  0  0  0
  147.0373  136.6740  151.5725 H   0  0  0  0  0  0  0  0  0  0  0  0
  146.4857  137.1326  154.5557 H   0  0  0  0  0  0  0  0  0  0  0  0
  147.9607  137.4796  153.6808 H   0  0  0  0  0  0  0  0  0  0  0  0
  147.6946  139.0510  155.5469 H   0  0  0  0  0  0  0  0  0  0  0  0
  146.1181  139.5470  154.9802 H   0  0  0  0  0  0  0  0  0  0  0  0
  150.4259  143.7040  157.9710 H   0  0  0  0  0  0  0  0  0  0  0  0
  150.5338  145.2213  159.7752 H   0  0  0  0  0  0  0  0  0  0  0  0
  152.0576  145.2515  160.6594 H   0  0  0  0  0  0  0  0  0  0  0  0
  150.6504  144.4227  161.3426 H   0  0  0  0  0  0  0  0  0  0  0  0
  1  2  1  0  0  0  0
  1 23  1  0  0  0  0
  1 24  1  0  0  0  0
  1 25  1  0  0  0  0
  2 21  1  0  0  0  0
  2  3  2  0  0  0  0
  3  4  1  0  0  0  0
  3 26  1  0  0  0  0
  4 19  2  0  0  0  0
  4  5  1  0  0  0  0
  5  6  2  0  0  0  0
  6  7  1  0  0  0  0
  6 27  1  0  0  0  0
  7  8  1  0  0  0  0
  7 19  1  0  0  0  0
  8  9  1  0  0  0  0
  8 28  1  0  0  0  0
  8 29  1  0  0  0  0
  9 10  1  0  0  0  0
  9 11  1  0  0  0  0
  9 30  1  0  0  0  0
 10 31  1  0  0  0  0
 11 12  1  0  0  0  0
 11 32  1  0  0  0  0
 11 33  1  0  0  0  0
 12 18  1  0  0  0  0
 12 13  1  0  0  0  0
 13 14  1  0  0  0  0
 13 34  1  0  0  0  0
 13 35  1  0  0  0  0
 14 15  1  0  0  0  0
 14 36  1  0  0  0  0
 14 37  1  0  0  0  0
 15 16  1  0  0  0  0
 15 17  1  0  0  0  0
 15 38  1  0  0  0  0
 16 39  1  0  0  0  0
 17 18  1  0  0  0  0
 17 40  1  0  0  0  0
 17 41  1  0  0  0  0
 18 42  1  0  0  0  0
 18 43  1  0  0  0  0
 19 20  1  0  0  0  0
 20 21  2  0  0  0  0
 20 44  1  0  0  0  0
 21 22  1  0  0  0  0
 22 45  1  0  0  0  0
 22 46  1  0  0  0  0
 22 47  1  0  0  0  0
M  END
> <s_m_source_file>
AV-unprocessed.smi

> <i_m_source_file_index>
1626

> <i_lp_mmshare_version>
43012

> <i_f3d_flags>
0

> <s_epik_input>
W0NIM11jKFtjSF0xKWMoW0NIM10pW2NIXWMoYzEyKW4oW2NIXW4yKVtDSDJdW0NASF0oW09IXSlbQ0gyXU4zW0NIMl1bQ0gyXVtDSF0oW09IXSlbQ0gyXVtDSDJdMw==

> <s_epik_cmdline>
J2VwaWtfcHl0aG9uJywgJy1waCcsICc3LjAnLCAnLXRuJywgJzgnLCAnLW1hJywgJzIwMCcsICctbWV0YWxfYmluZGluZycsICctaW1hZScsICc8aW5maWxlLm1hZT4nLCAnLW9tYWUnLCAnPG91dGZpbGUubWFlPic=

> <r_epik_Ionization_Penalty>
2.14395

> <r_epik_Ionization_Penalty_Charging>
0

> <r_epik_Ionization_Penalty_Neutral>
2.14395

> <r_epik_State_Penalty>
2.24477

> <r_epik_Charging_Adjusted_Penalty>
2.24477

> <i_epik_Tot_Q>
0

> <i_epik_Tot_abs_Q>
0

> <r_epik_Metal_State_Penalty>
2.17429

> <b_epik_Metal_Only>
0

> <s_lp_Force_Field>
OPLS_2005

> <r_lp_Energy>
31.4526

> <b_lp_Chiralities_Consistent>
1

> <s_lp_Variant>
AV-unprocessed.smi:1626-10

> <Gold.Version>
5.8.1

> <Gold.Id.Protein>
6NUR|6NUR_protein|mol2

> <Gold.PLP.Fitness>
51.6351

> <Gold.PLP.PLP>
-44.6323

> <Gold.PLP.part.hbond>
-3.0000

> <Gold.PLP.part.metal>
0.0000

> <Gold.PLP.part.buried>
-2.7209

> <Gold.PLP.part.nonpolar>
-38.8226

> <Gold.PLP.part.repulsive>
0.1487

> <Gold.PLP.ligand.clash>
0.0000

> <Gold.PLP.ligand.torsion>
1.0034

> <Gold.PLP.Chemscore.Hbond>
3.0000

> <Gold.PLP.Chemscore.CHOScore>
0.0000

> <Gold.PLP.Chemscore.Metal>
0.0000

> <Gold.Chemscore.Hbonds>
donor molecule, donor type, donor heavy atom, donor atom, acceptor molecule, acceptor atom, score
      L1  H    10    31       P1  8028  1.00
      L1  H    16    39       P1  7948  1.00
      P1  H  7997  8010       L1     5  1.00

> <Gold.PLP.Chemscore.Internal.Correction>
0.0097

> <Gold.Rescore>
     Score         DG    S(hbond)    S(metal)    S(lipo)     H(rot)  DE(clash)    DE(int)     intcor
     19.58     -20.70       2.15        0.00     125.47       2.59       0.15       0.97       ----

> <Gold.Chemscore.Fitness>
19.5815

> <Gold.Chemscore.DG>
-20.7046

> <Gold.Chemscore.ZeroCoef>
-5.4800

> <Gold.Chemscore.Hbond>
2.1518

> <Gold.Chemscore.Metal>
0.0000

> <Gold.Chemscore.Lipo>
125.4691

> <Gold.Chemscore.Internal_Hbond>
0.0000

> <Gold.Chemscore.DEClash>
0.1517

> <Gold.Chemscore.DEInternal>
0.9713

> <Gold.Chemscore.Rot>
2.5947

> <Gold.Chemscore.Internal.Correction>
   9.000000E+99

> <Gold.Chemscore.Hbonds>
donor molecule, donor type, donor heavy atom, donor atom, acceptor molecule, acceptor atom, score
      L1  H    10    31       P1  8028  0.74
      L1  H    16    39       P1  7948  0.96
      P1  H  7997  8010       L1     5  0.21

> <Gold.Chemscore.Hbond.Weighted>
-7.1871

> <Gold.Chemscore.Metal.Weighted>
-0.0000

> <Gold.Chemscore.Lipo.Weighted>
-14.6799

> <Gold.Chemscore.Internal_Hbond.Weighted>
0.0000

> <Gold.Chemscore.DEClash.Weighted>
0.1517

> <Gold.Chemscore.DEInternal.Weighted>
0.9713

> <Gold.Chemscore.Rot.Weighted>
6.6424

> <Gold.Chemscore.Internal.Correction.Weighted>
   9.000000E+99

> <Gold.Protein.RotatedTorsions>
[ 6907 6896 6895 6894 ] final  -77.04 input  -60.11 | X-H torsion
[ 7974 7965 7964 7962 ] final   49.04 input  175.53 | X-H torsion
[ 8008 7997 7996 7995 ] final   39.05 input   59.86 | X-H torsion
[ 10167 10162 10161 10158 ] final -117.87 input  -65.29 | X-H torsion
[ 10718 10713 10712 10709 ] final   91.25 input   66.30 | X-H torsion
[ 10763 10752 10751 10750 ] final   90.38 input  -60.55 | X-H torsion
[ 11005 11000 10999 10996 ] final  148.25 input  -57.11 | X-H torsion

> <Gold.Protein.ActiveResidues>
 VAL166  LYS551  ARG553  GLY616  TRP617  ASP618  TYR619  PRO620  LYS621  CYS622 
 ASP623  PHE694  ASN695  SER759  ASP760  ASP761  ALA762  ILE779  LEU786  VAL792 
 PHE793  MET794  SER795  GLU796  ALA797  LYS798  CYS799  TRP800  GLU811  SER814 

> <Gold.Protein.RotatedAtoms>
  150.7010  134.4481  159.5323 H   0  0  0  0  0  0  0  0  0  0  0  0  # atno 6907 bound_to 6896
  152.2179  134.8438  160.0498 H   0  0  0  0  0  0  0  0  0  0  0  0  # atno 6908 bound_to 6896
  151.9299  133.3573  159.3964 H   0  0  0  0  0  0  0  0  0  0  0  0  # atno 6909 bound_to 6896
  146.0146  139.4582  142.9934 H   0  0  0  0  0  0  0  0  0  0  0  0  # atno 7974 bound_to 7965
  155.2302  140.3337  155.4304 H   0  0  0  0  0  0  0  0  0  0  0  0  # atno 8008 bound_to 7997
  156.2298  140.1845  156.7318 H   0  0  0  0  0  0  0  0  0  0  0  0  # atno 8009 bound_to 7997
  154.5959  140.0630  156.9287 H   0  0  0  0  0  0  0  0  0  0  0  0  # atno 8010 bound_to 7997
  140.0637  143.4943  152.2018 H   0  0  0  0  0  0  0  0  0  0  0  0  # atno 10167 bound_to 10162
  157.6960  131.0400  150.3701 H   0  0  0  0  0  0  0  0  0  0  0  0  # atno 10718 bound_to 10713
  153.1970  135.4436  155.0220 H   0  0  0  0  0  0  0  0  0  0  0  0  # atno 10763 bound_to 10752
  154.8124  135.3300  154.7270 H   0  0  0  0  0  0  0  0  0  0  0  0  # atno 10764 bound_to 10752
  153.7719  135.6984  153.4960 H   0  0  0  0  0  0  0  0  0  0  0  0  # atno 10765 bound_to 10752
  140.0944  134.9021  157.1700 H   0  0  0  0  0  0  0  0  0  0  0  0  # atno 11005 bound_to 11000
  145.7288  141.0049  143.1363 LP  0  0  0  0  0  0  0  0  0  0  0  0  # atno 17320 bound_to 7965
  144.6966  139.8959  143.7456 LP  0  0  0  0  0  0  0  0  0  0  0  0  # atno 17321 bound_to 7965
  139.5878  144.7538  151.3476 LP  0  0  0  0  0  0  0  0  0  0  0  0  # atno 17342 bound_to 10162
  140.7159  143.7266  150.7655 LP  0  0  0  0  0  0  0  0  0  0  0  0  # atno 17343 bound_to 10162
  156.4126  130.3937  149.6880 LP  0  0  0  0  0  0  0  0  0  0  0  0  # atno 17370 bound_to 10713
  156.4159  130.7745  151.2760 LP  0  0  0  0  0  0  0  0  0  0  0  0  # atno 17371 bound_to 10713
  140.3307  134.2813  155.7228 LP  0  0  0  0  0  0  0  0  0  0  0  0  # atno 17394 bound_to 11000
  141.2087  133.7769  157.0040 LP  0  0  0  0  0  0  0  0  0  0  0  0  # atno 17395 bound_to 11000

$$$$
