AV-unprocessed.smi:1805|AV-procd|sdf|7297|dock5
  -GOLD-   22720 8553D 1   1.00000     0.00000
 Structure written by MMmdl.
 29 30  0  0  0  0  0  0  0  0  1 V2000
  150.2406  140.5914  155.9401 O   0  0  0  0  0  0  0  0  0  0  0  0
  149.8239  141.7424  156.0721 C   0  0  0  0  0  0  0  0  0  0  0  0
  150.4152  142.6628  156.8465 N   0  0  0  0  0  0  0  0  0  0  0  0
  151.6134  142.4408  157.6480 C   0  0  0  0  0  0  0  0  0  0  0  0
  151.9864  143.6909  158.4613 C   0  0  2  0  0  0  0  0  0  0  0  0
  152.5322  143.3795  159.8542 C   0  0  0  0  0  0  0  0  0  0  0  0
  152.1996  144.6262  160.6607 C   0  0  0  0  0  0  0  0  0  0  0  0
  151.2120  145.3923  159.7765 C   0  0  0  0  0  0  0  0  0  0  0  0
  150.8416  144.4743  158.7587 O   0  0  0  0  0  0  0  0  0  0  0  0
  148.7324  142.2417  155.4694 N   0  0  0  0  0  0  0  0  0  0  0  0
  147.8617  141.5722  154.5728 C   0  0  0  0  0  0  0  0  0  0  0  0
  148.2353  140.4769  153.7477 C   0  0  0  0  0  0  0  0  0  0  0  0
  147.2153  140.0529  153.0153 N   0  0  0  0  0  0  0  0  0  0  0  0
  146.1940  140.8672  153.3651 N   0  0  0  0  0  0  0  0  0  0  0  0
  146.5413  141.8076  154.3099 C   0  0  0  0  0  0  0  0  0  0  0  0
  145.2760  140.7699  152.9551 H   0  0  0  0  0  0  0  0  0  0  0  0
  150.0018  143.5824  156.8927 H   0  0  0  0  0  0  0  0  0  0  0  0
  151.4925  141.5746  158.3009 H   0  0  0  0  0  0  0  0  0  0  0  0
  152.4255  142.1983  156.9621 H   0  0  0  0  0  0  0  0  0  0  0  0
  152.7049  144.3032  157.9126 H   0  0  0  0  0  0  0  0  0  0  0  0
  152.0102  142.5219  160.2813 H   0  0  0  0  0  0  0  0  0  0  0  0
  153.5984  143.1518  159.8447 H   0  0  0  0  0  0  0  0  0  0  0  0
  151.7541  144.3580  161.6191 H   0  0  0  0  0  0  0  0  0  0  0  0
  153.0874  145.2276  160.8594 H   0  0  0  0  0  0  0  0  0  0  0  0
  150.3392  145.7431  160.3278 H   0  0  0  0  0  0  0  0  0  0  0  0
  151.6967  146.2563  159.3197 H   0  0  0  0  0  0  0  0  0  0  0  0
  148.5022  143.2040  155.6695 H   0  0  0  0  0  0  0  0  0  0  0  0
  149.1929  139.9852  153.6579 H   0  0  0  0  0  0  0  0  0  0  0  0
  145.8364  142.5309  154.6924 H   0  0  0  0  0  0  0  0  0  0  0  0
  1  2  2  0  0  0  0
  2  3  1  0  0  0  0
  2 10  1  0  0  0  0
  3  4  1  0  0  0  0
  3 17  1  0  0  0  0
  4  5  1  0  0  0  0
  4 18  1  0  0  0  0
  4 19  1  0  0  0  0
  5  9  1  0  0  0  0
  5  6  1  0  0  0  0
  5 20  1  0  0  0  0
  6  7  1  0  0  0  0
  6 21  1  0  0  0  0
  6 22  1  0  0  0  0
  7  8  1  0  0  0  0
  7 23  1  0  0  0  0
  7 24  1  0  0  0  0
  8  9  1  0  0  0  0
  8 25  1  0  0  0  0
  8 26  1  0  0  0  0
 10 11  1  0  0  0  0
 10 27  1  0  0  0  0
 11 15  2  0  0  0  0
 11 12  1  0  0  0  0
 12 13  2  0  0  0  0
 12 28  1  0  0  0  0
 13 14  1  0  0  0  0
 14 16  1  0  0  0  0
 14 15  1  0  0  0  0
 15 29  1  0  0  0  0
M  END
> <s_m_source_file>
AV-unprocessed.smi

> <i_m_source_file_index>
1805

> <i_lp_mmshare_version>
43012

> <i_f3d_flags>
0

> <s_epik_input>
W2NIXTFbbkhdbltjSF1jMVtOSF1DKD1PKVtOSF1bQ0gyXVtDQEBIXTJbQ0gyXVtDSDJdW0NIMl1PMg==

> <s_epik_cmdline>
J2VwaWtfcHl0aG9uJywgJy1waCcsICc3LjAnLCAnLXRuJywgJzgnLCAnLW1hJywgJzIwMCcsICctbWV0YWxfYmluZGluZycsICctaW1hZScsICc8aW5maWxlLm1hZT4nLCAnLW9tYWUnLCAnPG91dGZpbGUubWFlPic=

> <r_lp_tautomer_probability>
1

> <r_epik_Ionization_Penalty>
4.81496e-05

> <r_epik_Ionization_Penalty_Charging>
0

> <r_epik_Ionization_Penalty_Neutral>
4.81496e-05

> <r_epik_State_Penalty>
-0

> <r_epik_Charging_Adjusted_Penalty>
0

> <i_epik_Tot_Q>
0

> <i_epik_Tot_abs_Q>
0

> <r_epik_Metal_State_Penalty>
-0

> <b_epik_Metal_Only>
0

> <s_lp_Force_Field>
OPLS_2005

> <r_lp_Energy>
19.369

> <b_lp_Chiralities_Consistent>
1

> <s_lp_Variant>
AV-unprocessed.smi:1805-1

> <Gold.Version>
5.8.1

> <Gold.Id.Protein>
6NUR|6NUR_protein|mol2

> <Gold.PLP.Fitness>
38.7754

> <Gold.PLP.PLP>
-30.4340

> <Gold.PLP.part.hbond>
-2.8400

> <Gold.PLP.part.metal>
0.0000

> <Gold.PLP.part.buried>
-4.2407

> <Gold.PLP.part.nonpolar>
-24.2689

> <Gold.PLP.part.repulsive>
1.3507

> <Gold.PLP.ligand.clash>
0.0000

> <Gold.PLP.ligand.torsion>
0.6154

> <Gold.PLP.Chemscore.Hbond>
2.7360

> <Gold.PLP.Chemscore.CHOScore>
0.4523

> <Gold.PLP.Chemscore.Metal>
0.0000

> <Gold.Chemscore.Hbonds>
donor molecule, donor type, donor heavy atom, donor atom, acceptor molecule, acceptor atom, score
      L1  H     3    17       P1  8028  0.74
      L1  H    10    27       P1  8028  1.00
      L1  H    14    16       P1 10175  1.00
      L1  C    12    28       P1  7957  0.45

> <Gold.PLP.Chemscore.Internal.Correction>
0.0072

> <Gold.Rescore>
     Score         DG    S(hbond)    S(metal)    S(lipo)     H(rot)  DE(clash)    DE(int)     intcor
     18.64     -20.59       2.85        0.00      76.93       1.33       0.27       1.68       ----

> <Gold.Chemscore.Fitness>
18.6405

> <Gold.Chemscore.DG>
-20.5912

> <Gold.Chemscore.ZeroCoef>
-5.4800

> <Gold.Chemscore.Hbond>
2.8492

> <Gold.Chemscore.Metal>
0.0000

> <Gold.Chemscore.Lipo>
76.9310

> <Gold.Chemscore.Internal_Hbond>
0.0000

> <Gold.Chemscore.DEClash>
0.2662

> <Gold.Chemscore.DEInternal>
1.6845

> <Gold.Chemscore.Rot>
1.3306

> <Gold.Chemscore.Internal.Correction>
   9.000000E+99

> <Gold.Chemscore.Hbonds>
donor molecule, donor type, donor heavy atom, donor atom, acceptor molecule, acceptor atom, score
      L1  H     3    17       P1  8028  0.69
      L1  H    10    27       P1  8028  0.90
      L1  H    14    16       P1 10175  0.55

> <Gold.Chemscore.Hbond.Weighted>
-9.5165

> <Gold.Chemscore.Metal.Weighted>
-0.0000

> <Gold.Chemscore.Lipo.Weighted>
-9.0009

> <Gold.Chemscore.Internal_Hbond.Weighted>
0.0000

> <Gold.Chemscore.DEClash.Weighted>
0.2662

> <Gold.Chemscore.DEInternal.Weighted>
1.6845

> <Gold.Chemscore.Rot.Weighted>
3.4063

> <Gold.Chemscore.Internal.Correction.Weighted>
   9.000000E+99

> <Gold.Protein.RotatedTorsions>
[ 6907 6896 6895 6894 ] final  -50.84 input  -60.11 | X-H torsion
[ 7974 7965 7964 7962 ] final -141.07 input  175.53 | X-H torsion
[ 8008 7997 7996 7995 ] final -175.93 input   59.86 | X-H torsion
[ 10167 10162 10161 10158 ] final   42.36 input  -65.29 | X-H torsion
[ 10718 10713 10712 10709 ] final  -92.87 input   66.30 | X-H torsion
[ 10763 10752 10751 10750 ] final  -34.39 input  -60.55 | X-H torsion
[ 11005 11000 10999 10996 ] final  -32.34 input  -57.11 | X-H torsion

> <Gold.Protein.ActiveResidues>
 VAL166  LYS551  ARG553  GLY616  TRP617  ASP618  TYR619  PRO620  LYS621  CYS622 
 ASP623  PHE694  ASN695  SER759  ASP760  ASP761  ALA762  ILE779  LEU786  VAL792 
 PHE793  MET794  SER795  GLU796  ALA797  LYS798  CYS799  TRP800  GLU811  SER814 

> <Gold.Protein.RotatedAtoms>
  150.8668  134.8033  159.7124 H   0  0  0  0  0  0  0  0  0  0  0  0  # atno 6907 bound_to 6896
  152.4687  134.5010  159.9734 H   0  0  0  0  0  0  0  0  0  0  0  0  # atno 6908 bound_to 6896
  151.5105  133.3447  159.2920 H   0  0  0  0  0  0  0  0  0  0  0  0  # atno 6909 bound_to 6896
  144.8548  140.6124  143.5367 H   0  0  0  0  0  0  0  0  0  0  0  0  # atno 7974 bound_to 7965
  155.9886  140.1196  157.0660 H   0  0  0  0  0  0  0  0  0  0  0  0  # atno 8008 bound_to 7997
  154.4204  140.1130  156.5602 H   0  0  0  0  0  0  0  0  0  0  0  0  # atno 8009 bound_to 7997
  155.6374  140.3473  155.4705 H   0  0  0  0  0  0  0  0  0  0  0  0  # atno 8010 bound_to 7997
  140.3552  144.2300  150.6142 H   0  0  0  0  0  0  0  0  0  0  0  0  # atno 10167 bound_to 10162
  156.0007  130.5004  150.5690 H   0  0  0  0  0  0  0  0  0  0  0  0  # atno 10718 bound_to 10713
  153.8460  135.6853  153.4797 H   0  0  0  0  0  0  0  0  0  0  0  0  # atno 10763 bound_to 10752
  153.1425  135.4651  154.9516 H   0  0  0  0  0  0  0  0  0  0  0  0  # atno 10764 bound_to 10752
  154.7824  135.3273  154.7908 H   0  0  0  0  0  0  0  0  0  0  0  0  # atno 10765 bound_to 10752
  140.9544  133.7201  156.1270 H   0  0  0  0  0  0  0  0  0  0  0  0  # atno 11005 bound_to 11000
  145.4428  139.1533  143.3961 LP  0  0  0  0  0  0  0  0  0  0  0  0  # atno 17320 bound_to 7965
  146.2814  140.4551  142.8775 LP  0  0  0  0  0  0  0  0  0  0  0  0  # atno 17321 bound_to 7965
  140.5181  143.2273  151.8432 LP  0  0  0  0  0  0  0  0  0  0  0  0  # atno 17342 bound_to 10162
  139.4821  144.4870  151.9234 LP  0  0  0  0  0  0  0  0  0  0  0  0  # atno 17343 bound_to 10162
  157.3588  131.0746  151.1653 LP  0  0  0  0  0  0  0  0  0  0  0  0  # atno 17370 bound_to 10713
  157.2445  130.6585  149.5904 LP  0  0  0  0  0  0  0  0  0  0  0  0  # atno 17371 bound_to 10713
  140.7557  134.3996  157.5534 LP  0  0  0  0  0  0  0  0  0  0  0  0  # atno 17394 bound_to 11000
  139.8857  134.8928  156.2625 LP  0  0  0  0  0  0  0  0  0  0  0  0  # atno 17395 bound_to 11000

$$$$
