AV-unprocessed.smi:1284|AV-procd|sdf|5365|dock5
  -GOLD-   22720 4503D 1   1.00000     0.00000
 Structure written by MMmdl.
 40 42  0  0  0  0  0  0  0  0  2 V2000
  153.4999  138.1322  156.2943 N   0  0  0  0  0  0  0  0  0  0  0  0
  152.7510  138.6206  155.3023 C   0  0  0  0  0  0  0  0  0  0  0  0
  153.0504  139.6482  154.6973 O   0  0  0  0  0  0  0  0  0  0  0  0
  151.4806  137.8502  154.9349 C   0  0  0  0  0  0  0  0  0  0  0  0
  150.3512  138.7904  154.6348 C   0  0  0  0  0  0  0  0  0  0  0  0
  149.3387  138.5593  153.7488 N   0  3  0  0  0  0  0  0  0  0  0  0
  148.4700  139.6496  153.7222 C   0  0  0  0  0  0  0  0  0  0  0  0
  147.3151  139.8770  152.9802 C   0  0  0  0  0  0  0  0  0  0  0  0
  146.6594  141.1076  153.1922 C   0  0  0  0  0  0  0  0  0  0  0  0
  147.1551  142.0547  154.1119 C   0  0  0  0  0  0  0  0  0  0  0  0
  148.3258  141.8112  154.8599 C   0  0  0  0  0  0  0  0  0  0  0  0
  148.9679  140.5918  154.6445 C   0  0  0  0  0  0  0  0  0  0  0  0
  150.1215  140.0178  155.1912 N   0  0  0  0  0  0  0  0  0  0  0  0
  150.8660  140.7677  156.2168 C   0  0  0  0  0  0  0  0  0  0  0  0
  150.8530  140.0818  157.5972 C   0  0  2  0  0  0  0  0  0  0  0  0
  149.5196  139.8990  158.0318 O   0  0  0  0  0  0  0  0  0  0  0  0
  151.6854  140.8596  158.6038 C   0  0  0  0  0  0  0  0  0  0  0  0
  152.7850  140.2403  159.2360 C   0  0  0  0  0  0  0  0  0  0  0  0
  153.5672  140.9569  160.1628 C   0  0  0  0  0  0  0  0  0  0  0  0
  153.2555  142.2972  160.4611 C   0  0  0  0  0  0  0  0  0  0  0  0
  152.1621  142.9216  159.8309 C   0  0  0  0  0  0  0  0  0  0  0  0
  151.3800  142.2059  158.9037 C   0  0  0  0  0  0  0  0  0  0  0  0
  154.3428  138.6151  156.5709 H   0  0  0  0  0  0  0  0  0  0  0  0
  153.2202  137.2859  156.7701 H   0  0  0  0  0  0  0  0  0  0  0  0
  151.6724  137.2325  154.0570 H   0  0  0  0  0  0  0  0  0  0  0  0
  151.2133  137.1722  155.7450 H   0  0  0  0  0  0  0  0  0  0  0  0
  146.9345  139.1529  152.2747 H   0  0  0  0  0  0  0  0  0  0  0  0
  145.7589  141.3298  152.6378 H   0  0  0  0  0  0  0  0  0  0  0  0
  146.6265  142.9872  154.2467 H   0  0  0  0  0  0  0  0  0  0  0  0
  148.6973  142.5439  155.5610 H   0  0  0  0  0  0  0  0  0  0  0  0
  151.8892  140.9049  155.8648 H   0  0  0  0  0  0  0  0  0  0  0  0
  150.4402  141.7687  156.2816 H   0  0  0  0  0  0  0  0  0  0  0  0
  151.2838  139.0847  157.5003 H   0  0  0  0  0  0  0  0  0  0  0  0
  149.2422  140.6845  158.4788 H   0  0  0  0  0  0  0  0  0  0  0  0
  153.0344  139.2134  159.0122 H   0  0  0  0  0  0  0  0  0  0  0  0
  154.4071  140.4784  160.6447 H   0  0  0  0  0  0  0  0  0  0  0  0
  153.8556  142.8463  161.1716 H   0  0  0  0  0  0  0  0  0  0  0  0
  151.9238  143.9502  160.0582 H   0  0  0  0  0  0  0  0  0  0  0  0
  150.5462  142.6953  158.4220 H   0  0  0  0  0  0  0  0  0  0  0  0
  149.2585  137.7153  153.1956 H   0  0  0  0  0  0  0  0  0  0  0  0
  1  2  1  0  0  0  0
  1 23  1  0  0  0  0
  1 24  1  0  0  0  0
  2  3  2  0  0  0  0
  2  4  1  0  0  0  0
  4  5  1  0  0  0  0
  4 25  1  0  0  0  0
  4 26  1  0  0  0  0
  5 13  1  0  0  0  0
  5  6  2  0  0  0  0
  6  7  1  0  0  0  0
  6 40  1  0  0  0  0
  7 12  2  0  0  0  0
  7  8  1  0  0  0  0
  8  9  2  0  0  0  0
  8 27  1  0  0  0  0
  9 10  1  0  0  0  0
  9 28  1  0  0  0  0
 10 11  2  0  0  0  0
 10 29  1  0  0  0  0
 11 12  1  0  0  0  0
 11 30  1  0  0  0  0
 12 13  1  0  0  0  0
 13 14  1  0  0  0  0
 14 15  1  0  0  0  0
 14 31  1  0  0  0  0
 14 32  1  0  0  0  0
 15 16  1  0  0  0  0
 15 17  1  0  0  0  0
 15 33  1  0  0  0  0
 16 34  1  0  0  0  0
 17 22  1  0  0  0  0
 17 18  2  0  0  0  0
 18 19  1  0  0  0  0
 18 35  1  0  0  0  0
 19 20  2  0  0  0  0
 19 36  1  0  0  0  0
 20 21  1  0  0  0  0
 20 37  1  0  0  0  0
 21 22  2  0  0  0  0
 21 38  1  0  0  0  0
 22 39  1  0  0  0  0
M  CHG  1   6   1
M  END
> <s_m_source_file>
AV-unprocessed.smi

> <i_m_source_file_index>
1284

> <i_lp_mmshare_version>
43012

> <i_f3d_flags>
0

> <s_epik_input>
W2NIXTFbY0hdW2NIXVtjSF1jKGMxMiluKGMobjIpW0NIMl1DKD1PKVtOSDJdKVtDSDJdW0NASF0oW09IXSljM1tjSF1bY0hdW2NIXVtjSF1bY0hdMw==

> <s_epik_cmdline>
J2VwaWtfcHl0aG9uJywgJy1waCcsICc3LjAnLCAnLXRuJywgJzgnLCAnLW1hJywgJzIwMCcsICctbWV0YWxfYmluZGluZycsICctaW1hZScsICc8aW5maWxlLm1hZT4nLCAnLW9tYWUnLCAnPG91dGZpbGUubWFlPic=

> <r_epik_Ionization_Penalty>
1.66646

> <r_epik_Ionization_Penalty_Charging>
1.66645

> <r_epik_Ionization_Penalty_Neutral>
1.67657e-06

> <r_epik_State_Penalty>
1.76975

> <r_epik_Charging_Adjusted_Penalty>
3.43621

> <i_epik_Tot_Q>
1

> <i_epik_Tot_abs_Q>
1

> <r_epik_Metal_State_Penalty>
1.80493

> <b_epik_Metal_Only>
0

> <s_lp_Force_Field>
OPLS_2005

> <r_lp_Energy>
13.978

> <b_lp_Chiralities_Consistent>
1

> <s_lp_Variant>
AV-unprocessed.smi:1284-3

> <Gold.Version>
5.8.1

> <Gold.Id.Protein>
6NUR|6NUR_protein|mol2

> <Gold.PLP.Fitness>
54.7537

> <Gold.PLP.PLP>
-46.6108

> <Gold.PLP.part.hbond>
-4.0000

> <Gold.PLP.part.metal>
0.0000

> <Gold.PLP.part.buried>
0.2250

> <Gold.PLP.part.nonpolar>
-44.4809

> <Gold.PLP.part.repulsive>
1.1467

> <Gold.PLP.ligand.clash>
0.0029

> <Gold.PLP.ligand.torsion>
0.7083

> <Gold.PLP.Chemscore.Hbond>
3.1773

> <Gold.PLP.Chemscore.CHOScore>
0.0000

> <Gold.PLP.Chemscore.Metal>
0.0000

> <Gold.Chemscore.Hbonds>
donor molecule, donor type, donor heavy atom, donor atom, acceptor molecule, acceptor atom, score
      L1  H     6    40       P1  7948  2.00
      P1  H  7989  7998       L1     3  0.22
      P1  H  7997  8009       L1     3  1.00

> <Gold.PLP.Chemscore.Internal.Correction>
0.0304

> <Gold.Rescore>
     Score         DG    S(hbond)    S(metal)    S(lipo)     H(rot)  DE(clash)    DE(int)     intcor
     14.53     -16.23       1.43        0.00     115.08       2.92       0.12       1.58       ----

> <Gold.Chemscore.Fitness>
14.5334

> <Gold.Chemscore.DG>
-16.2341

> <Gold.Chemscore.ZeroCoef>
-5.4800

> <Gold.Chemscore.Hbond>
1.4283

> <Gold.Chemscore.Metal>
0.0000

> <Gold.Chemscore.Lipo>
115.0819

> <Gold.Chemscore.Internal_Hbond>
0.0000

> <Gold.Chemscore.DEClash>
0.1223

> <Gold.Chemscore.DEInternal>
1.5784

> <Gold.Chemscore.Rot>
2.9223

> <Gold.Chemscore.Internal.Correction>
   9.000000E+99

> <Gold.Chemscore.Hbonds>
donor molecule, donor type, donor heavy atom, donor atom, acceptor molecule, acceptor atom, score
      L1  H     6    40       P1  7948  0.95
      P1  H  7989  7998       L1     3  0.22
      P1  H  7997  8009       L1     3  0.26

> <Gold.Chemscore.Hbond.Weighted>
-4.7707

> <Gold.Chemscore.Metal.Weighted>
-0.0000

> <Gold.Chemscore.Lipo.Weighted>
-13.4646

> <Gold.Chemscore.Internal_Hbond.Weighted>
0.0000

> <Gold.Chemscore.DEClash.Weighted>
0.1223

> <Gold.Chemscore.DEInternal.Weighted>
1.5784

> <Gold.Chemscore.Rot.Weighted>
7.4812

> <Gold.Chemscore.Internal.Correction.Weighted>
   9.000000E+99

> <Gold.Protein.RotatedTorsions>
[ 6907 6896 6895 6894 ] final -153.84 input  -60.11 | X-H torsion
[ 7974 7965 7964 7962 ] final  119.32 input  175.53 | X-H torsion
[ 8008 7997 7996 7995 ] final -126.86 input   59.86 | X-H torsion
[ 10167 10162 10161 10158 ] final  -25.09 input  -65.29 | X-H torsion
[ 10718 10713 10712 10709 ] final  -63.30 input   66.30 | X-H torsion
[ 10763 10752 10751 10750 ] final  -29.28 input  -60.55 | X-H torsion
[ 11005 11000 10999 10996 ] final  -94.84 input  -57.11 | X-H torsion

> <Gold.Protein.ActiveResidues>
 VAL166  LYS551  ARG553  GLY616  TRP617  ASP618  TYR619  PRO620  LYS621  CYS622 
 ASP623  PHE694  ASN695  SER759  ASP760  ASP761  ALA762  ILE779  LEU786  VAL792 
 PHE793  MET794  SER795  GLU796  ALA797  LYS798  CYS799  TRP800  GLU811  SER814 

> <Gold.Protein.RotatedAtoms>
  151.2486  133.4362  159.2610 H   0  0  0  0  0  0  0  0  0  0  0  0  # atno 6907 bound_to 6896
  151.0639  134.9754  159.8284 H   0  0  0  0  0  0  0  0  0  0  0  0  # atno 6908 bound_to 6896
  152.5402  134.2434  159.8924 H   0  0  0  0  0  0  0  0  0  0  0  0  # atno 6909 bound_to 6896
  145.1446  139.3247  143.4598 H   0  0  0  0  0  0  0  0  0  0  0  0  # atno 7974 bound_to 7965
  155.2367  140.0427  157.2969 H   0  0  0  0  0  0  0  0  0  0  0  0  # atno 8008 bound_to 7997
  154.5854  140.2412  155.7965 H   0  0  0  0  0  0  0  0  0  0  0  0  # atno 8009 bound_to 7997
  156.2222  140.2966  155.9989 H   0  0  0  0  0  0  0  0  0  0  0  0  # atno 8010 bound_to 7997
  140.7287  143.4295  151.0824 H   0  0  0  0  0  0  0  0  0  0  0  0  # atno 10167 bound_to 10162
  156.0800  130.4219  150.1257 H   0  0  0  0  0  0  0  0  0  0  0  0  # atno 10718 bound_to 10713
  153.7621  135.6918  153.4923 H   0  0  0  0  0  0  0  0  0  0  0  0  # atno 10763 bound_to 10752
  153.1931  135.4463  155.0173 H   0  0  0  0  0  0  0  0  0  0  0  0  # atno 10764 bound_to 10752
  154.8149  135.3394  154.7135 H   0  0  0  0  0  0  0  0  0  0  0  0  # atno 10765 bound_to 10752
  141.1459  133.7984  157.0354 H   0  0  0  0  0  0  0  0  0  0  0  0  # atno 11005 bound_to 11000
  146.3501  140.1497  142.8592 LP  0  0  0  0  0  0  0  0  0  0  0  0  # atno 17320 bound_to 7965
  145.0495  140.9007  143.5004 LP  0  0  0  0  0  0  0  0  0  0  0  0  # atno 17321 bound_to 7965
  139.7950  143.8164  152.3156 LP  0  0  0  0  0  0  0  0  0  0  0  0  # atno 17342 bound_to 10162
  139.8161  144.7315  150.9633 LP  0  0  0  0  0  0  0  0  0  0  0  0  # atno 17343 bound_to 10162
  156.9291  130.9708  151.3536 LP  0  0  0  0  0  0  0  0  0  0  0  0  # atno 17370 bound_to 10713
  157.5912  130.8445  149.8662 LP  0  0  0  0  0  0  0  0  0  0  0  0  # atno 17371 bound_to 10713
  140.0727  134.9693  157.1494 LP  0  0  0  0  0  0  0  0  0  0  0  0  # atno 17394 bound_to 11000
  140.3688  134.2413  155.7180 LP  0  0  0  0  0  0  0  0  0  0  0  0  # atno 17395 bound_to 11000

$$$$
