AV-unprocessed.smi:1464|AV-procd|sdf|5941|dock8
  -GOLD-   22720 6 23D 1   1.00000     0.00000
 Structure written by MMmdl.
 40 41  0  0  0  0  0  0  0  0  2 V2000
  151.0476  142.8196  157.6952 C   0  0  0  0  0  0  0  0  0  0  0  0
  151.1108  141.3035  157.4449 C   0  0  2  0  0  0  0  0  0  0  0  0
  151.4223  140.9796  155.9696 C   0  0  0  0  0  0  0  0  0  0  0  0
  151.5836  139.4677  155.7467 C   0  0  0  0  0  0  0  0  0  0  0  0
  150.3583  138.6890  156.2486 C   0  0  0  0  0  0  0  0  0  0  0  0
  150.0558  139.0133  157.7243 C   0  0  2  0  0  0  0  0  0  0  0  0
  148.9097  138.2284  158.1782 N   0  0  0  0  0  0  0  0  0  0  0  0
  148.9622  137.1987  159.0371 C   0  0  0  0  0  0  0  0  0  0  0  0
  150.0119  136.8015  159.5461 O   0  0  0  0  0  0  0  0  0  0  0  0
  147.6134  136.5372  159.3625 C   0  0  0  0  0  0  0  0  0  0  0  0
  147.4611  136.1391  160.7699 N   0  0  0  0  0  0  0  0  0  0  0  0
  147.7266  137.2165  161.7194 N   0  5  0  0  0  0  0  0  0  0  0  0
  147.6505  136.9587  163.0520 C   0  0  0  0  0  0  0  0  0  0  0  0
  147.8785  137.8091  163.9093 O   0  0  0  0  0  0  0  0  0  0  0  0
  147.2769  135.6174  163.4693 C   0  0  0  0  0  0  0  0  0  0  0  0
  147.0088  134.6501  162.5702 C   0  0  0  0  0  0  0  0  0  0  0  0
  147.0830  134.8799  161.1323 C   0  0  0  0  0  0  0  0  0  0  0  0
  146.8299  134.0035  160.3052 O   0  0  0  0  0  0  0  0  0  0  0  0
  149.8569  140.5384  157.9468 C   0  0  2  0  0  0  0  0  0  0  0  0
  148.5300  141.0726  157.3586 C   0  0  0  0  0  0  0  0  0  0  0  0
  150.2986  143.3039  157.0688 H   0  0  0  0  0  0  0  0  0  0  0  0
  152.0065  143.2893  157.4747 H   0  0  0  0  0  0  0  0  0  0  0  0
  150.8077  143.0373  158.7363 H   0  0  0  0  0  0  0  0  0  0  0  0
  151.9544  140.9383  158.0330 H   0  0  0  0  0  0  0  0  0  0  0  0
  150.6322  141.3646  155.3244 H   0  0  0  0  0  0  0  0  0  0  0  0
  152.3378  141.4873  155.6637 H   0  0  0  0  0  0  0  0  0  0  0  0
  151.7462  139.2629  154.6882 H   0  0  0  0  0  0  0  0  0  0  0  0
  152.4748  139.1167  156.2686 H   0  0  0  0  0  0  0  0  0  0  0  0
  149.4948  138.9231  155.6250 H   0  0  0  0  0  0  0  0  0  0  0  0
  150.5376  137.6195  156.1320 H   0  0  0  0  0  0  0  0  0  0  0  0
  150.9240  138.6960  158.3058 H   0  0  0  0  0  0  0  0  0  0  0  0
  148.0058  138.4897  157.8121 H   0  0  0  0  0  0  0  0  0  0  0  0
  146.8189  137.2293  159.0776 H   0  0  0  0  0  0  0  0  0  0  0  0
  147.4837  135.6651  158.7191 H   0  0  0  0  0  0  0  0  0  0  0  0
  147.2102  135.3926  164.5237 H   0  0  0  0  0  0  0  0  0  0  0  0
  146.7330  133.6685  162.9253 H   0  0  0  0  0  0  0  0  0  0  0  0
  149.7980  140.7013  159.0239 H   0  0  0  0  0  0  0  0  0  0  0  0
  148.4935  140.9778  156.2741 H   0  0  0  0  0  0  0  0  0  0  0  0
  148.3791  142.1233  157.6034 H   0  0  0  0  0  0  0  0  0  0  0  0
  147.6698  140.5394  157.7632 H   0  0  0  0  0  0  0  0  0  0  0  0
  1  2  1  0  0  0  0
  1 21  1  0  0  0  0
  1 22  1  0  0  0  0
  1 23  1  0  0  0  0
  2 19  1  0  0  0  0
  2  3  1  0  0  0  0
  2 24  1  0  0  0  0
  3  4  1  0  0  0  0
  3 25  1  0  0  0  0
  3 26  1  0  0  0  0
  4  5  1  0  0  0  0
  4 27  1  0  0  0  0
  4 28  1  0  0  0  0
  5  6  1  0  0  0  0
  5 29  1  0  0  0  0
  5 30  1  0  0  0  0
  6  7  1  0  0  0  0
  6 19  1  0  0  0  0
  6 31  1  0  0  0  0
  7  8  1  0  0  0  0
  7 32  1  0  0  0  0
  8  9  2  0  0  0  0
  8 10  1  0  0  0  0
 10 33  1  0  0  0  0
 10 34  1  0  0  0  0
 10 11  1  0  0  0  0
 11 12  1  0  0  0  0
 11 17  1  0  0  0  0
 12 13  1  0  0  0  0
 13 14  2  0  0  0  0
 13 15  1  0  0  0  0
 15 35  1  0  0  0  0
 15 16  2  0  0  0  0
 16 36  1  0  0  0  0
 16 17  1  0  0  0  0
 17 18  2  0  0  0  0
 19 20  1  0  0  0  0
 19 37  1  0  0  0  0
 20 38  1  0  0  0  0
 20 39  1  0  0  0  0
 20 40  1  0  0  0  0
M  CHG  1  12  -1
M  END
> <s_m_source_file>
AV-unprocessed.smi

> <i_m_source_file_index>
1464

> <i_lp_mmshare_version>
43012

> <i_f3d_flags>
0

> <s_epik_input>
W0NIM11bQ0BASF0xW0NIMl1bQ0gyXVtDSDJdW0NASF0oW0NASF0xW0NIM10pW05IXUMoPU8pW0NIMl1uMltuSF1jKD1PKVtjSF1bY0hdYzI9Tw==

> <s_epik_cmdline>
J2VwaWtfcHl0aG9uJywgJy1waCcsICc3LjAnLCAnLXRuJywgJzgnLCAnLW1hJywgJzIwMCcsICctbWV0YWxfYmluZGluZycsICctaW1hZScsICc8aW5maWxlLm1hZT4nLCAnLW9tYWUnLCAnPG91dGZpbGUubWFlPic=

> <r_lp_tautomer_probability>
1

> <r_epik_Ionization_Penalty>
0.101366

> <r_epik_Ionization_Penalty_Charging>
0.101366

> <r_epik_Ionization_Penalty_Neutral>
1.90469e-08

> <r_epik_State_Penalty>
0.035861

> <r_epik_Charging_Adjusted_Penalty>
0.137227

> <i_epik_Tot_Q>
-1

> <i_epik_Tot_abs_Q>
1

> <r_epik_Metal_State_Penalty>
0.035861

> <b_epik_Metal_Only>
0

> <s_lp_Force_Field>
OPLS_2005

> <r_lp_Energy>
29.9934

> <b_lp_Chiralities_Consistent>
1

> <s_lp_Variant>
AV-unprocessed.smi:1464-7

> <Gold.Version>
5.8.1

> <Gold.Id.Protein>
6NUR|6NUR_protein|mol2

> <Gold.PLP.Fitness>
43.3742

> <Gold.PLP.PLP>
-33.5305

> <Gold.PLP.part.hbond>
-3.8793

> <Gold.PLP.part.metal>
0.0000

> <Gold.PLP.part.buried>
-3.6806

> <Gold.PLP.part.nonpolar>
-26.6523

> <Gold.PLP.part.repulsive>
0.1870

> <Gold.PLP.ligand.clash>
0.0000

> <Gold.PLP.ligand.torsion>
0.4359

> <Gold.PLP.Chemscore.Hbond>
3.5672

> <Gold.PLP.Chemscore.CHOScore>
0.0000

> <Gold.PLP.Chemscore.Metal>
0.0000

> <Gold.Chemscore.Hbonds>
donor molecule, donor type, donor heavy atom, donor atom, acceptor molecule, acceptor atom, score
      P1  H  6896  6907       L1     9  0.89
      P1  H  6931  6943       L1    12  1.30
      P1  H  6934  6947       L1    12  1.36

> <Gold.PLP.Chemscore.Internal.Correction>
0.0139

> <Gold.Rescore>
     Score         DG    S(hbond)    S(metal)    S(lipo)     H(rot)  DE(clash)    DE(int)     intcor
     13.61     -14.23       1.74        0.00      61.18       1.64       0.26       0.36       ----

> <Gold.Chemscore.Fitness>
13.6089

> <Gold.Chemscore.DG>
-14.2274

> <Gold.Chemscore.ZeroCoef>
-5.4800

> <Gold.Chemscore.Hbond>
1.7357

> <Gold.Chemscore.Metal>
0.0000

> <Gold.Chemscore.Lipo>
61.1806

> <Gold.Chemscore.Internal_Hbond>
0.0000

> <Gold.Chemscore.DEClash>
0.2566

> <Gold.Chemscore.DEInternal>
0.3618

> <Gold.Chemscore.Rot>
1.6438

> <Gold.Chemscore.Internal.Correction>
   9.000000E+99

> <Gold.Chemscore.Hbonds>
donor molecule, donor type, donor heavy atom, donor atom, acceptor molecule, acceptor atom, score
      P1  H  6896  6907       L1     9  0.87
      P1  H  6931  6943       L1    12  0.05
      P1  H  6934  6947       L1    12  0.51

> <Gold.Chemscore.Hbond.Weighted>
-5.7972

> <Gold.Chemscore.Metal.Weighted>
-0.0000

> <Gold.Chemscore.Lipo.Weighted>
-7.1581

> <Gold.Chemscore.Internal_Hbond.Weighted>
0.0000

> <Gold.Chemscore.DEClash.Weighted>
0.2566

> <Gold.Chemscore.DEInternal.Weighted>
0.3618

> <Gold.Chemscore.Rot.Weighted>
4.2080

> <Gold.Chemscore.Internal.Correction.Weighted>
   9.000000E+99

> <Gold.Protein.RotatedTorsions>
[ 6907 6896 6895 6894 ] final  -43.12 input  -60.11 | X-H torsion
[ 7974 7965 7964 7962 ] final   78.99 input  175.53 | X-H torsion
[ 8008 7997 7996 7995 ] final  172.27 input   59.86 | X-H torsion
[ 10167 10162 10161 10158 ] final   -5.59 input  -65.29 | X-H torsion
[ 10718 10713 10712 10709 ] final  -61.70 input   66.30 | X-H torsion
[ 10763 10752 10751 10750 ] final    2.28 input  -60.55 | X-H torsion
[ 11005 11000 10999 10996 ] final -126.65 input  -57.11 | X-H torsion

> <Gold.Protein.ActiveResidues>
 VAL166  LYS551  ARG553  GLY616  TRP617  ASP618  TYR619  PRO620  LYS621  CYS622 
 ASP623  PHE694  ASN695  SER759  ASP760  ASP761  ALA762  ILE779  LEU786  VAL792 
 PHE793  MET794  SER795  GLU796  ALA797  LYS798  CYS799  TRP800  GLU811  SER814 

> <Gold.Protein.RotatedAtoms>
  150.9475  134.8878  159.7650 H   0  0  0  0  0  0  0  0  0  0  0  0  # atno 6907 bound_to 6896
  152.5106  134.3854  159.9375 H   0  0  0  0  0  0  0  0  0  0  0  0  # atno 6908 bound_to 6896
  151.3871  133.3761  159.2751 H   0  0  0  0  0  0  0  0  0  0  0  0  # atno 6909 bound_to 6896
  145.6700  139.2494  143.1874 H   0  0  0  0  0  0  0  0  0  0  0  0  # atno 7974 bound_to 7965
  156.1191  140.1490  156.9231 H   0  0  0  0  0  0  0  0  0  0  0  0  # atno 8008 bound_to 7997
  154.4822  140.0876  156.7446 H   0  0  0  0  0  0  0  0  0  0  0  0  # atno 8009 bound_to 7997
  155.4461  140.3433  155.4297 H   0  0  0  0  0  0  0  0  0  0  0  0  # atno 8010 bound_to 7997
  140.6968  143.6291  150.8540 H   0  0  0  0  0  0  0  0  0  0  0  0  # atno 10167 bound_to 10162
  156.0904  130.4201  150.1030 H   0  0  0  0  0  0  0  0  0  0  0  0  # atno 10718 bound_to 10713
  153.2975  135.6953  153.7234 H   0  0  0  0  0  0  0  0  0  0  0  0  # atno 10763 bound_to 10752
  153.6161  135.3435  155.2996 H   0  0  0  0  0  0  0  0  0  0  0  0  # atno 10764 bound_to 10752
  154.8541  135.4375  154.2076 H   0  0  0  0  0  0  0  0  0  0  0  0  # atno 10765 bound_to 10752
  140.9664  134.0866  157.3916 H   0  0  0  0  0  0  0  0  0  0  0  0  # atno 11005 bound_to 11000
  146.1053  140.7494  142.9529 LP  0  0  0  0  0  0  0  0  0  0  0  0  # atno 17320 bound_to 7965
  144.7060  140.3853  143.7118 LP  0  0  0  0  0  0  0  0  0  0  0  0  # atno 17321 bound_to 7965
  140.0010  143.5744  152.2875 LP  0  0  0  0  0  0  0  0  0  0  0  0  # atno 17342 bound_to 10162
  139.6434  144.7656  151.2293 LP  0  0  0  0  0  0  0  0  0  0  0  0  # atno 17343 bound_to 10162
  156.9042  130.9630  151.3572 LP  0  0  0  0  0  0  0  0  0  0  0  0  # atno 17370 bound_to 10713
  157.6052  130.8542  149.8864 LP  0  0  0  0  0  0  0  0  0  0  0  0  # atno 17371 bound_to 10713
  139.8896  135.0106  156.6688 LP  0  0  0  0  0  0  0  0  0  0  0  0  # atno 17394 bound_to 11000
  140.7393  133.8991  155.8267 LP  0  0  0  0  0  0  0  0  0  0  0  0  # atno 17395 bound_to 11000

$$$$
