AV-unprocessed.smi:1596|AV-procd|sdf|6416|dock9
  -GOLD-   22720 7 53D 1   1.00000     0.00000
 Structure written by MMmdl.
 49 50  0  0  0  0  0  0  0  0  2 V2000
  147.6631  132.1361  153.2086 C   0  0  0  0  0  0  0  0  0  0  0  0
  146.1667  132.3124  153.5084 C   0  0  0  0  0  0  0  0  0  0  0  0
  145.4068  132.8334  152.3695 N   0  0  0  0  0  0  0  0  0  0  0  0
  145.4936  132.1533  151.0771 C   0  0  0  0  0  0  0  0  0  0  0  0
  144.1217  131.8041  150.4814 C   0  0  0  0  0  0  0  0  0  0  0  0
  144.7438  134.0807  152.4749 C   0  0  0  0  0  0  0  0  0  0  0  0
  145.2584  135.2906  151.9444 C   0  0  0  0  0  0  0  0  0  0  0  0
  144.5336  136.4910  152.0928 C   0  0  0  0  0  0  0  0  0  0  0  0
  143.2914  136.4842  152.7597 C   0  0  0  0  0  0  0  0  0  0  0  0
  142.6041  137.7206  152.8997 N   0  0  0  0  0  0  0  0  0  0  0  0
  141.4199  137.9568  153.4906 C   0  0  0  0  0  0  0  0  0  0  0  0
  140.6892  137.0986  153.9850 O   0  0  0  0  0  0  0  0  0  0  0  0
  141.1124  139.2616  153.4585 N   0  0  0  0  0  0  0  0  0  0  0  0
  139.8934  139.8535  154.0022 C   0  0  2  0  0  0  0  0  0  0  0  0
  138.6599  139.3890  153.2000 C   0  0  0  0  0  0  0  0  0  0  0  0
  137.3732  140.0586  153.7096 C   0  0  0  0  0  0  0  0  0  0  0  0
  137.4999  141.5916  153.6898 C   0  0  1  0  0  0  0  0  0  0  0  0
  136.3303  142.1689  154.2299 O   0  0  0  0  0  0  0  0  0  0  0  0
  138.7238  142.0562  154.4979 C   0  0  0  0  0  0  0  0  0  0  0  0
  140.0108  141.3894  153.9854 C   0  0  0  0  0  0  0  0  0  0  0  0
  142.8217  135.2558  153.2806 C   0  0  0  0  0  0  0  0  0  0  0  0
  143.5508  134.1310  153.1173 N   0  3  0  0  0  0  0  0  0  0  0  0
  148.1883  131.7714  154.0913 H   0  0  0  0  0  0  0  0  0  0  0  0
  148.1286  133.0773  152.9157 H   0  0  0  0  0  0  0  0  0  0  0  0
  147.8329  131.4156  152.4100 H   0  0  0  0  0  0  0  0  0  0  0  0
  145.7491  131.3485  153.8003 H   0  0  0  0  0  0  0  0  0  0  0  0
  146.0312  132.9587  154.3760 H   0  0  0  0  0  0  0  0  0  0  0  0
  146.0267  132.7979  150.3776 H   0  0  0  0  0  0  0  0  0  0  0  0
  146.1112  131.2598  151.1640 H   0  0  0  0  0  0  0  0  0  0  0  0
  144.2410  131.2597  149.5445 H   0  0  0  0  0  0  0  0  0  0  0  0
  143.5389  132.6979  150.2634 H   0  0  0  0  0  0  0  0  0  0  0  0
  143.5359  131.1774  151.1536 H   0  0  0  0  0  0  0  0  0  0  0  0
  146.2050  135.3273  151.4276 H   0  0  0  0  0  0  0  0  0  0  0  0
  144.9327  137.4106  151.6904 H   0  0  0  0  0  0  0  0  0  0  0  0
  143.0488  138.5163  152.4657 H   0  0  0  0  0  0  0  0  0  0  0  0
  141.7692  139.8954  153.0271 H   0  0  0  0  0  0  0  0  0  0  0  0
  139.7767  139.5378  155.0409 H   0  0  0  0  0  0  0  0  0  0  0  0
  138.7950  139.6255  152.1435 H   0  0  0  0  0  0  0  0  0  0  0  0
  138.5552  138.3052  153.2626 H   0  0  0  0  0  0  0  0  0  0  0  0
  136.5268  139.7440  153.0980 H   0  0  0  0  0  0  0  0  0  0  0  0
  137.1667  139.7156  154.7246 H   0  0  0  0  0  0  0  0  0  0  0  0
  137.5965  141.9334  152.6584 H   0  0  0  0  0  0  0  0  0  0  0  0
  135.6791  142.2239  153.5472 H   0  0  0  0  0  0  0  0  0  0  0  0
  138.8224  143.1409  154.4404 H   0  0  0  0  0  0  0  0  0  0  0  0
  138.5871  141.8126  155.5526 H   0  0  0  0  0  0  0  0  0  0  0  0
  140.8560  141.7065  154.5978 H   0  0  0  0  0  0  0  0  0  0  0  0
  140.2168  141.7351  152.9712 H   0  0  0  0  0  0  0  0  0  0  0  0
  141.9031  135.1224  153.8315 H   0  0  0  0  0  0  0  0  0  0  0  0
  143.1800  133.2640  153.5065 H   0  0  0  0  0  0  0  0  0  0  0  0
  1  2  1  0  0  0  0
  1 23  1  0  0  0  0
  1 24  1  0  0  0  0
  1 25  1  0  0  0  0
  2  3  1  0  0  0  0
  2 26  1  0  0  0  0
  2 27  1  0  0  0  0
  3  4  1  0  0  0  0
  3  6  1  0  0  0  0
  4  5  1  0  0  0  0
  4 28  1  0  0  0  0
  4 29  1  0  0  0  0
  5 30  1  0  0  0  0
  5 31  1  0  0  0  0
  5 32  1  0  0  0  0
  6 22  1  0  0  0  0
  6  7  2  0  0  0  0
  7  8  1  0  0  0  0
  7 33  1  0  0  0  0
  8  9  2  0  0  0  0
  8 34  1  0  0  0  0
  9 10  1  0  0  0  0
  9 21  1  0  0  0  0
 10 11  1  0  0  0  0
 10 35  1  0  0  0  0
 11 12  2  0  0  0  0
 11 13  1  0  0  0  0
 13 14  1  0  0  0  0
 13 36  1  0  0  0  0
 14 20  1  0  0  0  0
 14 15  1  0  0  0  0
 14 37  1  0  0  0  0
 15 16  1  0  0  0  0
 15 38  1  0  0  0  0
 15 39  1  0  0  0  0
 16 17  1  0  0  0  0
 16 40  1  0  0  0  0
 16 41  1  0  0  0  0
 17 18  1  0  0  0  0
 17 19  1  0  0  0  0
 17 42  1  0  0  0  0
 18 43  1  0  0  0  0
 19 20  1  0  0  0  0
 19 44  1  0  0  0  0
 19 45  1  0  0  0  0
 20 46  1  0  0  0  0
 20 47  1  0  0  0  0
 21 22  2  0  0  0  0
 21 48  1  0  0  0  0
 22 49  1  0  0  0  0
M  CHG  1  22   1
M  END
> <s_m_source_file>
AV-unprocessed.smi

> <i_m_source_file_index>
1596

> <i_lp_mmshare_version>
43012

> <i_f3d_flags>
0

> <s_epik_input>
W0NIM11bQ0gyXU4oW0NIMl1bQ0gzXSljMVtjSF1bY0hdYyhbY0hdbjEpW05IXUMoPU8pW05IXVtDQEBIXTJbQ0gyXVtDSDJdW0NAQEhdKFtPSF0pW0NIMl1bQ0gyXTI=

> <s_epik_cmdline>
J2VwaWtfcHl0aG9uJywgJy1waCcsICc3LjAnLCAnLXRuJywgJzgnLCAnLW1hJywgJzIwMCcsICctbWV0YWxfYmluZGluZycsICctaW1hZScsICc8aW5maWxlLm1hZT4nLCAnLW9tYWUnLCAnPG91dGZpbGUubWFlPic=

> <r_lp_tautomer_probability>
0.999994

> <r_epik_Ionization_Penalty>
0.224167

> <r_epik_Ionization_Penalty_Charging>
0.224146

> <r_epik_Ionization_Penalty_Neutral>
2.1696e-05

> <r_epik_State_Penalty>
0.0144855

> <r_epik_Charging_Adjusted_Penalty>
0.238631

> <i_epik_Tot_Q>
1

> <i_epik_Tot_abs_Q>
1

> <r_epik_Metal_State_Penalty>
0.0446449

> <b_epik_Metal_Only>
0

> <s_lp_Force_Field>
OPLS_2005

> <r_lp_Energy>
22.6617

> <b_lp_Chiralities_Consistent>
1

> <s_lp_Variant>
AV-unprocessed.smi:1596-1

> <Gold.Version>
5.8.1

> <Gold.Id.Protein>
6NUR|6NUR_protein|mol2

> <Gold.PLP.Fitness>
46.7323

> <Gold.PLP.PLP>
-37.6576

> <Gold.PLP.part.hbond>
-4.0000

> <Gold.PLP.part.metal>
0.0000

> <Gold.PLP.part.buried>
-5.5932

> <Gold.PLP.part.nonpolar>
-29.1977

> <Gold.PLP.part.repulsive>
0.1315

> <Gold.PLP.ligand.clash>
0.0000

> <Gold.PLP.ligand.torsion>
1.5142

> <Gold.PLP.Chemscore.Hbond>
4.0000

> <Gold.PLP.Chemscore.CHOScore>
0.0000

> <Gold.PLP.Chemscore.Metal>
0.0000

> <Gold.Chemscore.Hbonds>
donor molecule, donor type, donor heavy atom, donor atom, acceptor molecule, acceptor atom, score
      L1  H    10    35       P1 10175  1.00
      L1  H    13    36       P1 10175  1.00
      L1  H    22    49       P1 10957  2.00

> <Gold.PLP.Chemscore.Internal.Correction>
0.1032

> <Gold.Rescore>
     Score         DG    S(hbond)    S(metal)    S(lipo)     H(rot)  DE(clash)    DE(int)     intcor
     15.71     -18.47       2.64        0.00      75.77       1.83       0.00       2.76       ----

> <Gold.Chemscore.Fitness>
15.7051

> <Gold.Chemscore.DG>
-18.4678

> <Gold.Chemscore.ZeroCoef>
-5.4800

> <Gold.Chemscore.Hbond>
2.6383

> <Gold.Chemscore.Metal>
0.0000

> <Gold.Chemscore.Lipo>
75.7706

> <Gold.Chemscore.Internal_Hbond>
0.0000

> <Gold.Chemscore.DEClash>
0.0048

> <Gold.Chemscore.DEInternal>
2.7578

> <Gold.Chemscore.Rot>
1.8317

> <Gold.Chemscore.Internal.Correction>
   9.000000E+99

> <Gold.Chemscore.Hbonds>
donor molecule, donor type, donor heavy atom, donor atom, acceptor molecule, acceptor atom, score
      L1  H    10    35       P1 10175  0.92
      L1  H    13    36       P1 10175  0.25
      L1  H    22    49       P1 10957  0.91

> <Gold.Chemscore.Hbond.Weighted>
-8.8118

> <Gold.Chemscore.Metal.Weighted>
-0.0000

> <Gold.Chemscore.Lipo.Weighted>
-8.8652

> <Gold.Chemscore.Internal_Hbond.Weighted>
0.0000

> <Gold.Chemscore.DEClash.Weighted>
0.0048

> <Gold.Chemscore.DEInternal.Weighted>
2.7578

> <Gold.Chemscore.Rot.Weighted>
4.6892

> <Gold.Chemscore.Internal.Correction.Weighted>
   9.000000E+99

> <Gold.Protein.RotatedTorsions>
[ 6907 6896 6895 6894 ] final   73.53 input  -60.11 | X-H torsion
[ 7974 7965 7964 7962 ] final  -20.02 input  175.53 | X-H torsion
[ 8008 7997 7996 7995 ] final  -23.04 input   59.86 | X-H torsion
[ 10167 10162 10161 10158 ] final  -69.09 input  -65.29 | X-H torsion
[ 10718 10713 10712 10709 ] final -178.20 input   66.30 | X-H torsion
[ 10763 10752 10751 10750 ] final -177.81 input  -60.55 | X-H torsion
[ 11005 11000 10999 10996 ] final  -69.09 input  -57.11 | X-H torsion

> <Gold.Protein.ActiveResidues>
 VAL166  LYS551  ARG553  GLY616  TRP617  ASP618  TYR619  PRO620  LYS621  CYS622 
 ASP623  PHE694  ASN695  SER759  ASP760  ASP761  ALA762  ILE779  LEU786  VAL792 
 PHE793  MET794  SER795  GLU796  ALA797  LYS798  CYS799  TRP800  GLU811  SER814 

> <Gold.Protein.RotatedAtoms>
  152.4928  134.4408  159.9542 H   0  0  0  0  0  0  0  0  0  0  0  0  # atno 6907 bound_to 6896
  151.4392  133.3642  159.2787 H   0  0  0  0  0  0  0  0  0  0  0  0  # atno 6908 bound_to 6896
  150.9099  134.8539  159.7478 H   0  0  0  0  0  0  0  0  0  0  0  0  # atno 6909 bound_to 6896
  146.1810  140.4144  142.8494 H   0  0  0  0  0  0  0  0  0  0  0  0  # atno 7974 bound_to 7965
  154.4608  140.1991  156.0249 H   0  0  0  0  0  0  0  0  0  0  0  0  # atno 8008 bound_to 7997
  156.0837  140.3268  155.7698 H   0  0  0  0  0  0  0  0  0  0  0  0  # atno 8009 bound_to 7997
  155.5070  140.0558  157.2920 H   0  0  0  0  0  0  0  0  0  0  0  0  # atno 8010 bound_to 7997
  140.5457  143.2313  151.7006 H   0  0  0  0  0  0  0  0  0  0  0  0  # atno 10167 bound_to 10162
  156.8407  130.9685  151.3100 H   0  0  0  0  0  0  0  0  0  0  0  0  # atno 10718 bound_to 10713
  154.5555  135.2816  155.0969 H   0  0  0  0  0  0  0  0  0  0  0  0  # atno 10763 bound_to 10752
  154.2398  135.6359  153.5207 H   0  0  0  0  0  0  0  0  0  0  0  0  # atno 10764 bound_to 10752
  153.0014  135.5557  154.6133 H   0  0  0  0  0  0  0  0  0  0  0  0  # atno 10765 bound_to 10752
  141.1546  133.6756  156.6546 H   0  0  0  0  0  0  0  0  0  0  0  0  # atno 11005 bound_to 11000
  144.8315  140.6715  143.6288 LP  0  0  0  0  0  0  0  0  0  0  0  0  # atno 17320 bound_to 7965
  145.4075  139.1586  143.4143 LP  0  0  0  0  0  0  0  0  0  0  0  0  # atno 17321 bound_to 7965
  139.5006  144.3898  152.0291 LP  0  0  0  0  0  0  0  0  0  0  0  0  # atno 17342 bound_to 10162
  140.3010  144.3646  150.6060 LP  0  0  0  0  0  0  0  0  0  0  0  0  # atno 17343 bound_to 10162
  157.6357  130.8765  149.9354 LP  0  0  0  0  0  0  0  0  0  0  0  0  # atno 17370 bound_to 10713
  156.0882  130.3666  150.0446 LP  0  0  0  0  0  0  0  0  0  0  0  0  # atno 17371 bound_to 10713
  140.3294  134.7941  157.4314 LP  0  0  0  0  0  0  0  0  0  0  0  0  # atno 17394 bound_to 11000
  140.1029  134.5448  155.8336 LP  0  0  0  0  0  0  0  0  0  0  0  0  # atno 17395 bound_to 11000

$$$$
