AV-unprocessed.smi:72|AV-procd|sdf|663|dock1
  -GOLD-   2262016563D 1   1.00000     0.00000
 Structure written by MMmdl.
 29 30  0  0  0  0  0  0  0  0  1 V2000
  151.7318  142.1524  160.3783 N   0  0  0  0  0  0  0  0  0  0  0  0
  151.6369  141.6078  159.2180 C   0  0  0  0  0  0  0  0  0  0  0  0
  150.7191  141.9756  158.2223 N   0  0  0  0  0  0  0  0  0  0  0  0
  150.7452  141.3457  157.0883 C   0  0  0  0  0  0  0  0  0  0  0  0
  151.6985  140.2813  156.8152 N   0  0  0  0  0  0  0  0  0  0  0  0
  151.7036  139.5536  155.4901 C   0  0  2  0  0  0  0  0  0  0  0  0
  150.6812  140.0638  154.6827 O   0  0  0  0  0  0  0  0  0  0  0  0
  149.9173  138.9880  154.1526 C   0  0  2  0  0  0  0  0  0  0  0  0
  148.5031  139.4549  153.7625 C   0  0  0  0  0  0  0  0  0  0  0  0
  148.0021  138.7607  152.6384 O   0  0  0  0  0  0  0  0  0  0  0  0
  150.0226  137.8830  155.2062 C   0  0  1  0  0  0  0  0  0  0  0  0
  149.7496  136.5947  154.6876 O   0  0  0  0  0  0  0  0  0  0  0  0
  151.4574  138.0476  155.7004 C   0  0  1  0  0  0  0  0  0  0  0  0
  152.3861  137.2789  154.9579 O   0  0  0  0  0  0  0  0  0  0  0  0
  152.6087  139.8746  157.8207 C   0  0  0  0  0  0  0  0  0  0  0  0
  153.4038  138.9487  157.6600 O   0  0  0  0  0  0  0  0  0  0  0  0
  152.5436  140.5659  158.9793 N   0  0  0  0  0  0  0  0  0  0  0  0
  152.6604  139.7808  155.0169 H   0  0  0  0  0  0  0  0  0  0  0  0
  150.4367  138.6657  153.2480 H   0  0  0  0  0  0  0  0  0  0  0  0
  149.3456  138.0799  156.0379 H   0  0  0  0  0  0  0  0  0  0  0  0
  151.5541  137.7755  156.7527 H   0  0  0  0  0  0  0  0  0  0  0  0
  152.4642  141.7141  160.9173 H   0  0  0  0  0  0  0  0  0  0  0  0
  150.0557  141.5701  156.2739 H   0  0  0  0  0  0  0  0  0  0  0  0
  147.8157  139.3379  154.6008 H   0  0  0  0  0  0  0  0  0  0  0  0
  148.5249  140.5164  153.5144 H   0  0  0  0  0  0  0  0  0  0  0  0
  148.3831  139.1361  151.8594 H   0  0  0  0  0  0  0  0  0  0  0  0
  149.5797  136.6746  153.7615 H   0  0  0  0  0  0  0  0  0  0  0  0
  152.8389  137.8522  154.3584 H   0  0  0  0  0  0  0  0  0  0  0  0
  153.1847  140.3039  159.7136 H   0  0  0  0  0  0  0  0  0  0  0  0
  1  2  2  0  0  0  0
  1 22  1  0  0  0  0
  2 17  1  0  0  0  0
  2  3  1  0  0  0  0
  3  4  2  0  0  0  0
  4  5  1  0  0  0  0
  4 23  1  0  0  0  0
  5  6  1  0  0  0  0
  5 15  1  0  0  0  0
  6 18  1  0  0  0  0
  6 13  1  0  0  0  0
  6  7  1  0  0  0  0
  7  8  1  0  0  0  0
  8 19  1  0  0  0  0
  8  9  1  0  0  0  0
  8 11  1  0  0  0  0
  9 10  1  0  0  0  0
  9 24  1  0  0  0  0
  9 25  1  0  0  0  0
 10 26  1  0  0  0  0
 11 20  1  0  0  0  0
 11 12  1  0  0  0  0
 11 13  1  0  0  0  0
 12 27  1  0  0  0  0
 13 21  1  0  0  0  0
 13 14  1  0  0  0  0
 14 28  1  0  0  0  0
 15 16  2  0  0  0  0
 15 17  1  0  0  0  0
 17 29  1  0  0  0  0
M  END
> <s_m_source_file>
AV-unprocessed.smi

> <i_m_source_file_index>
72

> <i_lp_mmshare_version>
43012

> <i_f3d_flags>
0

> <s_epik_input>
W05IMl1jMW5bY0hdbihjKD1PKW4xKVtDQEBIXTJPW0NASF0oW0NIMl1bT0hdKVtDQEBIXShbT0hdKVtDQEhdMltPSF0=

> <s_epik_cmdline>
J2VwaWtfcHl0aG9uJywgJy1waCcsICc3LjAnLCAnLXRuJywgJzgnLCAnLW1hJywgJzIwMCcsICctbWV0YWxfYmluZGluZycsICctaW1hZScsICc8aW5maWxlLm1hZT4nLCAnLW9tYWUnLCAnPG91dGZpbGUubWFlPic=

> <r_lp_tautomer_probability>
7.17554e-07

> <r_epik_Ionization_Penalty>
0.0066451

> <r_epik_Ionization_Penalty_Charging>
0.00663793

> <r_epik_Ionization_Penalty_Neutral>
7.17052e-06

> <r_epik_State_Penalty>
0.419231

> <r_epik_Charging_Adjusted_Penalty>
0.425868

> <i_epik_Tot_Q>
0

> <i_epik_Tot_abs_Q>
0

> <r_epik_Metal_State_Penalty>
1.44144

> <b_epik_Metal_Only>
0

> <s_epik_Chemistry_Notes>
This compound contains an acetal/aminal-like group ( X-CH(R)-Y where X, Y are N, S, or O) that may be acid/base labile, releasing an aldehyde.

> <s_lp_Force_Field>
OPLS_2005

> <r_lp_Energy>
44.3383

> <b_lp_Chiralities_Consistent>
1

> <s_lp_Variant>
AV-unprocessed.smi:72-1

> <Gold.Version>
5.8.1

> <Gold.Id.Protein>
6NUR|6NUR_protein|mol2

> <Gold.PLP.Fitness>
37.6867

> <Gold.PLP.PLP>
-25.0936

> <Gold.PLP.part.hbond>
-6.9145

> <Gold.PLP.part.metal>
0.0000

> <Gold.PLP.part.buried>
-1.7129

> <Gold.PLP.part.nonpolar>
-16.6892

> <Gold.PLP.part.repulsive>
0.2428

> <Gold.PLP.ligand.clash>
0.0000

> <Gold.PLP.ligand.torsion>
0.4462

> <Gold.PLP.Chemscore.Hbond>
4.4928

> <Gold.PLP.Chemscore.CHOScore>
0.0000

> <Gold.PLP.Chemscore.Metal>
0.0000

> <Gold.Chemscore.Hbonds>
donor molecule, donor type, donor heavy atom, donor atom, acceptor molecule, acceptor atom, score
      L1  H    10    26       P1  7957  1.00
      L1  H    12    27       P1  7948  1.00
      P1  H  7989  7998       L1     7  1.00
      P1  H  7997  8010       L1    16  0.72
      P1  H 10752 10763       L1    14  0.67

> <Gold.PLP.Chemscore.Internal.Correction>
0.0071

> <Gold.Rescore>
     Score         DG    S(hbond)    S(metal)    S(lipo)     H(rot)  DE(clash)    DE(int)     intcor
      6.48      -8.05       3.08        0.00      23.01       4.06       0.28       1.29       ----

> <Gold.Chemscore.Fitness>
6.4835

> <Gold.Chemscore.DG>
-8.0539

> <Gold.Chemscore.ZeroCoef>
-5.4800

> <Gold.Chemscore.Hbond>
3.0764

> <Gold.Chemscore.Metal>
0.0000

> <Gold.Chemscore.Lipo>
23.0127

> <Gold.Chemscore.Internal_Hbond>
0.0000

> <Gold.Chemscore.DEClash>
0.2766

> <Gold.Chemscore.DEInternal>
1.2938

> <Gold.Chemscore.Rot>
4.0600

> <Gold.Chemscore.Internal.Correction>
   9.000000E+99

> <Gold.Chemscore.Hbonds>
donor molecule, donor type, donor heavy atom, donor atom, acceptor molecule, acceptor atom, score
      L1  H    10    26       P1  7957  0.92
      L1  H    12    27       P1  7948  0.70
      P1  H  7989  7998       L1     7  0.22
      P1  H  7997  8010       L1    16  0.10
      P1  H 10752 10763       L1    14  0.41

> <Gold.Chemscore.Hbond.Weighted>
-10.2750

> <Gold.Chemscore.Metal.Weighted>
-0.0000

> <Gold.Chemscore.Lipo.Weighted>
-2.6925

> <Gold.Chemscore.Internal_Hbond.Weighted>
0.0000

> <Gold.Chemscore.DEClash.Weighted>
0.2766

> <Gold.Chemscore.DEInternal.Weighted>
1.2938

> <Gold.Chemscore.Rot.Weighted>
10.3936

> <Gold.Chemscore.Internal.Correction.Weighted>
   9.000000E+99

> <Gold.Protein.RotatedTorsions>
[ 6907 6896 6895 6894 ] final  -22.52 input  -60.11 | X-H torsion
[ 7974 7965 7964 7962 ] final -163.75 input  175.53 | X-H torsion
[ 8008 7997 7996 7995 ] final   16.31 input   59.86 | X-H torsion
[ 10167 10162 10161 10158 ] final -134.57 input  -65.29 | X-H torsion
[ 10718 10713 10712 10709 ] final  -69.73 input   66.30 | X-H torsion
[ 10763 10752 10751 10750 ] final   62.06 input  -60.55 | X-H torsion
[ 11005 11000 10999 10996 ] final  174.72 input  -57.11 | X-H torsion

> <Gold.Protein.ActiveResidues>
 VAL166  LYS551  ARG553  GLY616  TRP617  ASP618  TYR619  PRO620  LYS621  CYS622 
 ASP623  PHE694  ASN695  SER759  ASP760  ASP761  ALA762  ILE779  LEU786  VAL792 
 PHE793  MET794  SER795  GLU796  ALA797  LYS798  CYS799  TRP800  GLU811  SER814 

> <Gold.Protein.RotatedAtoms>
  151.2174  135.0505  159.8935 H   0  0  0  0  0  0  0  0  0  0  0  0  # atno 6907 bound_to 6896
  152.5419  134.0678  159.8191 H   0  0  0  0  0  0  0  0  0  0  0  0  # atno 6908 bound_to 6896
  151.0840  133.5320  159.2650 H   0  0  0  0  0  0  0  0  0  0  0  0  # atno 6909 bound_to 6896
  144.7317  140.3061  143.6196 H   0  0  0  0  0  0  0  0  0  0  0  0  # atno 7974 bound_to 7965
  154.8751  140.2964  155.5458 H   0  0  0  0  0  0  0  0  0  0  0  0  # atno 8008 bound_to 7997
  156.3022  140.2453  156.3679 H   0  0  0  0  0  0  0  0  0  0  0  0  # atno 8009 bound_to 7997
  154.8776  140.0399  157.1752 H   0  0  0  0  0  0  0  0  0  0  0  0  # atno 8010 bound_to 7997
  139.8867  143.6773  152.2619 H   0  0  0  0  0  0  0  0  0  0  0  0  # atno 10167 bound_to 10162
  156.0441  130.4318  150.2191 H   0  0  0  0  0  0  0  0  0  0  0  0  # atno 10718 bound_to 10713
  152.9970  135.5478  154.6134 H   0  0  0  0  0  0  0  0  0  0  0  0  # atno 10763 bound_to 10752
  154.5449  135.2822  155.1064 H   0  0  0  0  0  0  0  0  0  0  0  0  # atno 10764 bound_to 10752
  154.2326  135.6431  153.5233 H   0  0  0  0  0  0  0  0  0  0  0  0  # atno 10765 bound_to 10752
  140.3544  134.7167  157.4290 H   0  0  0  0  0  0  0  0  0  0  0  0  # atno 11005 bound_to 11000
  145.7711  139.1858  143.2212 LP  0  0  0  0  0  0  0  0  0  0  0  0  # atno 17320 bound_to 7965
  146.0910  140.7656  142.9595 LP  0  0  0  0  0  0  0  0  0  0  0  0  # atno 17321 bound_to 7965
  139.7147  144.7614  151.1054 LP  0  0  0  0  0  0  0  0  0  0  0  0  # atno 17342 bound_to 10162
  140.7734  143.5285  150.9451 LP  0  0  0  0  0  0  0  0  0  0  0  0  # atno 17343 bound_to 10162
  157.0283  131.0000  151.3319 LP  0  0  0  0  0  0  0  0  0  0  0  0  # atno 17370 bound_to 10713
  157.5295  130.8049  149.7901 LP  0  0  0  0  0  0  0  0  0  0  0  0  # atno 17371 bound_to 10713
  140.0677  134.5907  155.8677 LP  0  0  0  0  0  0  0  0  0  0  0  0  # atno 17394 bound_to 11000
  141.2002  133.6611  156.5887 LP  0  0  0  0  0  0  0  0  0  0  0  0  # atno 17395 bound_to 11000

$$$$
