AV-unprocessed.smi:686|AV-procd|sdf|3348|dock1
  -GOLD-   22720 0323D 1   1.00000     0.00000
 Structure written by MMmdl.
 40 41  0  0  0  0  0  0  0  0  3 V2000
  147.3038  135.1079  156.7492 C   0  0  0  0  0  0  0  0  0  0  0  0
  147.8322  134.1675  155.6457 C   0  0  1  0  0  0  0  0  0  0  0  0
  146.9854  134.1365  154.3618 C   0  0  0  0  0  0  0  0  0  0  0  0
  147.9222  133.8836  153.2365 N   0  3  2  0  0  0  0  0  0  0  0  0
  147.4486  132.9064  152.2162 C   0  0  0  0  0  0  0  0  0  0  0  0
  146.2280  133.4367  151.4395 C   0  0  0  0  0  0  0  0  0  0  0  0
  147.0951  131.5565  152.8683 C   0  0  0  0  0  0  0  0  0  0  0  0
  149.2498  133.6051  153.8338 C   0  0  0  0  0  0  0  0  0  0  0  0
  149.2750  134.3811  155.1548 C   0  0  1  0  0  0  0  0  0  0  0  0
  149.5429  135.7957  154.8960 N   0  5  0  0  0  0  0  0  0  0  0  0
  150.6873  136.6107  155.7171 S   0  0  0  0  0  0  0  0  0  0  0  0
  150.1579  137.4256  156.8240 O   0  0  0  0  0  0  0  0  0  0  0  0
  151.8262  135.7356  156.0331 O   0  0  0  0  0  0  0  0  0  0  0  0
  151.3138  137.7956  154.4413 C   0  0  0  0  0  0  0  0  0  0  0  0
  151.0081  139.2068  154.8581 C   0  0  0  0  0  0  0  0  0  0  0  0
  151.5712  139.9564  155.9280 C   0  0  0  0  0  0  0  0  0  0  0  0
  150.9365  141.1616  155.8425 C   0  0  0  0  0  0  0  0  0  0  0  0
  150.0628  141.1658  154.8046 O   0  0  0  0  0  0  0  0  0  0  0  0
  150.1178  139.9146  154.1801 N   0  0  0  0  0  0  0  0  0  0  0  0
  147.2403  136.1452  156.4162 H   0  0  0  0  0  0  0  0  0  0  0  0
  147.9321  135.0802  157.6411 H   0  0  0  0  0  0  0  0  0  0  0  0
  146.3005  134.8090  157.0534 H   0  0  0  0  0  0  0  0  0  0  0  0
  147.8037  133.1582  156.0605 H   0  0  0  0  0  0  0  0  0  0  0  0
  146.2175  133.3657  154.4430 H   0  0  0  0  0  0  0  0  0  0  0  0
  146.4793  135.0873  154.1857 H   0  0  0  0  0  0  0  0  0  0  0  0
  148.2576  132.7440  151.5024 H   0  0  0  0  0  0  0  0  0  0  0  0
  145.8597  132.6905  150.7346 H   0  0  0  0  0  0  0  0  0  0  0  0
  146.4680  134.3264  150.8571 H   0  0  0  0  0  0  0  0  0  0  0  0
  145.4077  133.6874  152.1129 H   0  0  0  0  0  0  0  0  0  0  0  0
  146.7322  130.8469  152.1242 H   0  0  0  0  0  0  0  0  0  0  0  0
  146.3137  131.6739  153.6200 H   0  0  0  0  0  0  0  0  0  0  0  0
  147.9551  131.0948  153.3531 H   0  0  0  0  0  0  0  0  0  0  0  0
  149.3371  132.5373  154.0418 H   0  0  0  0  0  0  0  0  0  0  0  0
  150.0622  133.8770  153.1592 H   0  0  0  0  0  0  0  0  0  0  0  0
  149.9881  133.9468  155.8559 H   0  0  0  0  0  0  0  0  0  0  0  0
  152.3881  137.6463  154.3352 H   0  0  0  0  0  0  0  0  0  0  0  0
  150.8505  137.5615  153.4830 H   0  0  0  0  0  0  0  0  0  0  0  0
  152.3163  139.6528  156.6482 H   0  0  0  0  0  0  0  0  0  0  0  0
  150.9956  142.0738  156.4174 H   0  0  0  0  0  0  0  0  0  0  0  0
  148.0285  134.7729  152.7688 H   0  0  0  0  0  0  0  0  0  0  0  0
  1  2  1  0  0  0  0
  1 20  1  0  0  0  0
  1 21  1  0  0  0  0
  1 22  1  0  0  0  0
  2  9  1  0  0  0  0
  2  3  1  0  0  0  0
  2 23  1  0  0  0  0
  3  4  1  0  0  0  0
  3 24  1  0  0  0  0
  3 25  1  0  0  0  0
  4  5  1  0  0  0  0
  4  8  1  0  0  0  0
  4 40  1  0  0  0  0
  5  6  1  0  0  0  0
  5  7  1  0  0  0  0
  5 26  1  0  0  0  0
  6 27  1  0  0  0  0
  6 28  1  0  0  0  0
  6 29  1  0  0  0  0
  7 30  1  0  0  0  0
  7 31  1  0  0  0  0
  7 32  1  0  0  0  0
  8  9  1  0  0  0  0
  8 33  1  0  0  0  0
  8 34  1  0  0  0  0
  9 10  1  0  0  0  0
  9 35  1  0  0  0  0
 10 11  1  0  0  0  0
 11 12  2  0  0  0  0
 11 13  2  0  0  0  0
 11 14  1  0  0  0  0
 14 15  1  0  0  0  0
 14 36  1  0  0  0  0
 14 37  1  0  0  0  0
 15 19  2  0  0  0  0
 15 16  1  0  0  0  0
 16 17  2  0  0  0  0
 16 38  1  0  0  0  0
 17 18  1  0  0  0  0
 17 39  1  0  0  0  0
 18 19  1  0  0  0  0
M  CHG  1   4   1
M  CHG  1  10  -1
M  END
> <s_m_source_file>
AV-unprocessed.smi

> <i_m_source_file_index>
686

> <i_lp_mmshare_version>
43012

> <i_f3d_flags>
0

> <s_epik_input>
W0NIM11bQ0BASF0xW0NIMl1OKFtDSF0oW0NIM10pW0NIM10pW0NIMl1bQ0BIXTFbTkhdUyg9TykoPU8pW0NIMl1jMltjSF1bY0hdb24y

> <s_epik_cmdline>
J2VwaWtfcHl0aG9uJywgJy1waCcsICc3LjAnLCAnLXRuJywgJzgnLCAnLW1hJywgJzIwMCcsICctbWV0YWxfYmluZGluZycsICctaW1hZScsICc8aW5maWxlLm1hZT4nLCAnLW9tYWUnLCAnPG91dGZpbGUubWFlPic=

> <r_epik_Ionization_Penalty>
3.62478

> <r_epik_Ionization_Penalty_Charging>
3.62478

> <r_epik_Ionization_Penalty_Neutral>
2.03645e-10

> <r_epik_State_Penalty>
3.6247

> <r_epik_Charging_Adjusted_Penalty>
7.24949

> <i_epik_Tot_Q>
0

> <i_epik_Tot_abs_Q>
2

> <r_epik_Metal_State_Penalty>
0.530836

> <b_epik_Metal_Only>
1

> <s_lp_Force_Field>
OPLS_2005

> <r_lp_Energy>
18.5921

> <b_lp_Chiralities_Consistent>
1

> <s_lp_Variant>
AV-unprocessed.smi:686-12

> <Gold.Version>
5.8.1

> <Gold.Id.Protein>
6NUR|6NUR_protein|mol2

> <Gold.PLP.Fitness>
37.8886

> <Gold.PLP.PLP>
-29.4263

> <Gold.PLP.part.hbond>
-4.0000

> <Gold.PLP.part.metal>
0.0000

> <Gold.PLP.part.buried>
-2.4870

> <Gold.PLP.part.nonpolar>
-23.1311

> <Gold.PLP.part.repulsive>
0.4353

> <Gold.PLP.ligand.clash>
0.0000

> <Gold.PLP.ligand.torsion>
0.8619

> <Gold.PLP.Chemscore.Hbond>
3.0000

> <Gold.PLP.Chemscore.CHOScore>
0.0000

> <Gold.PLP.Chemscore.Metal>
0.0000

> <Gold.Chemscore.Hbonds>
donor molecule, donor type, donor heavy atom, donor atom, acceptor molecule, acceptor atom, score
      L1  H     4    40       P1  7948  2.00
      P1  H 10752 10764       L1    13  1.00

> <Gold.PLP.Chemscore.Internal.Correction>
1.1861

> <Gold.Rescore>
     Score         DG    S(hbond)    S(metal)    S(lipo)     H(rot)  DE(clash)    DE(int)     intcor
     13.95     -14.91       1.88        0.00      62.24       1.61       0.01       0.95       ----

> <Gold.Chemscore.Fitness>
13.9461

> <Gold.Chemscore.DG>
-14.9054

> <Gold.Chemscore.ZeroCoef>
-5.4800

> <Gold.Chemscore.Hbond>
1.8796

> <Gold.Chemscore.Metal>
0.0000

> <Gold.Chemscore.Lipo>
62.2371

> <Gold.Chemscore.Internal_Hbond>
0.0000

> <Gold.Chemscore.DEClash>
0.0120

> <Gold.Chemscore.DEInternal>
0.9472

> <Gold.Chemscore.Rot>
1.6149

> <Gold.Chemscore.Internal.Correction>
   9.000000E+99

> <Gold.Chemscore.Hbonds>
donor molecule, donor type, donor heavy atom, donor atom, acceptor molecule, acceptor atom, score
      L1  H     4    40       P1  7948  0.77
      P1  H 10752 10764       L1    13  0.99

> <Gold.Chemscore.Hbond.Weighted>
-6.2777

> <Gold.Chemscore.Metal.Weighted>
-0.0000

> <Gold.Chemscore.Lipo.Weighted>
-7.2817

> <Gold.Chemscore.Internal_Hbond.Weighted>
0.0000

> <Gold.Chemscore.DEClash.Weighted>
0.0120

> <Gold.Chemscore.DEInternal.Weighted>
0.9472

> <Gold.Chemscore.Rot.Weighted>
4.1341

> <Gold.Chemscore.Internal.Correction.Weighted>
   9.000000E+99

> <Gold.Protein.RotatedTorsions>
[ 6907 6896 6895 6894 ] final -119.28 input  -60.11 | X-H torsion
[ 7974 7965 7964 7962 ] final   35.07 input  175.53 | X-H torsion
[ 8008 7997 7996 7995 ] final -124.91 input   59.86 | X-H torsion
[ 10167 10162 10161 10158 ] final -134.30 input  -65.29 | X-H torsion
[ 10718 10713 10712 10709 ] final   60.77 input   66.30 | X-H torsion
[ 10763 10752 10751 10750 ] final  -37.52 input  -60.55 | X-H torsion
[ 11005 11000 10999 10996 ] final  103.66 input  -57.11 | X-H torsion

> <Gold.Protein.ActiveResidues>
 VAL166  LYS551  ARG553  GLY616  TRP617  ASP618  TYR619  PRO620  LYS621  CYS622 
 ASP623  PHE694  ASN695  SER759  ASP760  ASP761  ALA762  ILE779  LEU786  VAL792 
 PHE793  MET794  SER795  GLU796  ALA797  LYS798  CYS799  TRP800  GLU811  SER814 

> <Gold.Protein.RotatedAtoms>
  150.8292  133.8120  159.3105 H   0  0  0  0  0  0  0  0  0  0  0  0  # atno 6907 bound_to 6896
  151.5855  135.1054  160.0036 H   0  0  0  0  0  0  0  0  0  0  0  0  # atno 6908 bound_to 6896
  152.4373  133.7343  159.6661 H   0  0  0  0  0  0  0  0  0  0  0  0  # atno 6909 bound_to 6896
  146.1309  139.6188  142.9227 H   0  0  0  0  0  0  0  0  0  0  0  0  # atno 7974 bound_to 7965
  155.2046  140.0417  157.2923 H   0  0  0  0  0  0  0  0  0  0  0  0  # atno 8008 bound_to 7997
  154.6052  140.2462  155.7712 H   0  0  0  0  0  0  0  0  0  0  0  0  # atno 8009 bound_to 7997
  156.2345  140.2926  156.0286 H   0  0  0  0  0  0  0  0  0  0  0  0  # atno 8010 bound_to 7997
  139.8895  143.6740  152.2614 H   0  0  0  0  0  0  0  0  0  0  0  0  # atno 10167 bound_to 10162
  157.5778  130.8957  149.9377 H   0  0  0  0  0  0  0  0  0  0  0  0  # atno 10718 bound_to 10713
  153.8976  135.6805  153.4757 H   0  0  0  0  0  0  0  0  0  0  0  0  # atno 10763 bound_to 10752
  153.1147  135.4767  154.9092 H   0  0  0  0  0  0  0  0  0  0  0  0  # atno 10764 bound_to 10752
  154.7591  135.3205  154.8366 H   0  0  0  0  0  0  0  0  0  0  0  0  # atno 10765 bound_to 10752
  139.8785  134.9271  156.5243 H   0  0  0  0  0  0  0  0  0  0  0  0  # atno 11005 bound_to 11000
  145.5264  141.0429  143.2407 LP  0  0  0  0  0  0  0  0  0  0  0  0  # atno 17320 bound_to 7965
  144.7689  139.6780  143.7203 LP  0  0  0  0  0  0  0  0  0  0  0  0  # atno 17321 bound_to 7965
  139.7123  144.7618  151.1092 LP  0  0  0  0  0  0  0  0  0  0  0  0  # atno 17342 bound_to 10162
  140.7729  143.5315  150.9418 LP  0  0  0  0  0  0  0  0  0  0  0  0  # atno 17343 bound_to 10162
  156.0822  130.3672  150.0557 LP  0  0  0  0  0  0  0  0  0  0  0  0  # atno 17370 bound_to 10713
  156.8701  130.9521  151.3610 LP  0  0  0  0  0  0  0  0  0  0  0  0  # atno 17371 bound_to 10713
  140.8427  133.8192  155.9091 LP  0  0  0  0  0  0  0  0  0  0  0  0  # atno 17394 bound_to 11000
  140.9221  134.2128  157.4919 LP  0  0  0  0  0  0  0  0  0  0  0  0  # atno 17395 bound_to 11000

$$$$
