AV-unprocessed.smi:3287|AV-procd|sdf|12603|dock3
  -GOLD-   2272018533D 1   1.00000     0.00000
 Structure written by MMmdl.
 43 44  0  0  0  0  0  0  0  0  2 V2000
  146.7846  132.9918  150.9858 C   0  0  0  0  0  0  0  0  0  0  0  0
  146.8728  133.1924  152.5092 C   0  0  1  0  0  0  0  0  0  0  0  0
  148.3426  133.0895  152.9648 C   0  0  0  0  0  0  0  0  0  0  0  0
  148.4961  133.2762  154.4826 C   0  0  0  0  0  0  0  0  0  0  0  0
  147.8859  134.6029  154.9648 C   0  0  1  0  0  0  0  0  0  0  0  0
  148.7070  135.7470  154.5044 N   0  3  0  0  0  0  0  0  0  0  0  0
  148.1888  137.0881  154.8512 C   0  0  0  0  0  0  0  0  0  0  0  0
  149.2585  138.1730  154.6385 C   0  0  1  0  0  0  0  0  0  0  0  0
  150.2869  137.6444  153.8232 O   0  0  0  0  0  0  0  0  0  0  0  0
  148.6509  139.4311  154.0379 C   0  0  0  0  0  0  0  0  0  0  0  0
  149.0165  140.7141  154.5010 C   0  0  0  0  0  0  0  0  0  0  0  0
  148.4239  141.8419  153.8987 C   0  0  0  0  0  0  0  0  0  0  0  0
  147.5238  141.7595  152.8958 N   0  0  0  0  0  0  0  0  0  0  0  0
  147.1798  140.5307  152.4550 C   0  0  0  0  0  0  0  0  0  0  0  0
  147.7123  139.3399  152.9887 C   0  0  0  0  0  0  0  0  0  0  0  0
  146.4165  134.7071  154.5055 C   0  0  0  0  0  0  0  0  0  0  0  0
  146.2439  134.5306  152.9808 C   0  0  2  0  0  0  0  0  0  0  0  0
  144.7557  134.6561  152.6087 C   0  0  0  0  0  0  0  0  0  0  0  0
  147.2534  133.8166  150.4484 H   0  0  0  0  0  0  0  0  0  0  0  0
  145.7522  132.9128  150.6462 H   0  0  0  0  0  0  0  0  0  0  0  0
  147.2862  132.0721  150.6830 H   0  0  0  0  0  0  0  0  0  0  0  0
  146.3234  132.3749  152.9790 H   0  0  0  0  0  0  0  0  0  0  0  0
  148.7509  132.1187  152.6812 H   0  0  0  0  0  0  0  0  0  0  0  0
  148.9432  133.8346  152.4412 H   0  0  0  0  0  0  0  0  0  0  0  0
  148.0025  132.4479  154.9929 H   0  0  0  0  0  0  0  0  0  0  0  0
  149.5487  133.2188  154.7625 H   0  0  0  0  0  0  0  0  0  0  0  0
  147.9137  134.6018  156.0554 H   0  0  0  0  0  0  0  0  0  0  0  0
  149.6195  135.6595  154.9281 H   0  0  0  0  0  0  0  0  0  0  0  0
  147.3038  137.3180  154.2579 H   0  0  0  0  0  0  0  0  0  0  0  0
  147.8799  137.0812  155.8975 H   0  0  0  0  0  0  0  0  0  0  0  0
  149.7061  138.4320  155.5992 H   0  0  0  0  0  0  0  0  0  0  0  0
  149.8947  137.2849  153.0414 H   0  0  0  0  0  0  0  0  0  0  0  0
  149.7349  140.8373  155.2984 H   0  0  0  0  0  0  0  0  0  0  0  0
  148.6819  142.8367  154.2307 H   0  0  0  0  0  0  0  0  0  0  0  0
  146.4589  140.4946  151.6514 H   0  0  0  0  0  0  0  0  0  0  0  0
  147.4037  138.3817  152.5969 H   0  0  0  0  0  0  0  0  0  0  0  0
  145.8398  133.9339  155.0154 H   0  0  0  0  0  0  0  0  0  0  0  0
  145.9788  135.6517  154.8273 H   0  0  0  0  0  0  0  0  0  0  0  0
  146.7712  135.3478  152.4865 H   0  0  0  0  0  0  0  0  0  0  0  0
  144.1746  133.8245  153.0084 H   0  0  0  0  0  0  0  0  0  0  0  0
  144.6077  134.6814  151.5295 H   0  0  0  0  0  0  0  0  0  0  0  0
  144.3296  135.5778  153.0063 H   0  0  0  0  0  0  0  0  0  0  0  0
  148.8156  135.6884  153.5017 H   0  0  0  0  0  0  0  0  0  0  0  0
  1  2  1  0  0  0  0
  1 19  1  0  0  0  0
  1 20  1  0  0  0  0
  1 21  1  0  0  0  0
  2 17  1  0  0  0  0
  2  3  1  0  0  0  0
  2 22  1  0  0  0  0
  3  4  1  0  0  0  0
  3 23  1  0  0  0  0
  3 24  1  0  0  0  0
  4  5  1  0  0  0  0
  4 25  1  0  0  0  0
  4 26  1  0  0  0  0
  5  6  1  0  0  0  0
  5 16  1  0  0  0  0
  5 27  1  0  0  0  0
  6  7  1  0  0  0  0
  6 28  1  0  0  0  0
  6 43  1  0  0  0  0
  7  8  1  0  0  0  0
  7 29  1  0  0  0  0
  7 30  1  0  0  0  0
  8  9  1  0  0  0  0
  8 10  1  0  0  0  0
  8 31  1  0  0  0  0
  9 32  1  0  0  0  0
 10 15  1  0  0  0  0
 10 11  2  0  0  0  0
 11 12  1  0  0  0  0
 11 33  1  0  0  0  0
 12 13  2  0  0  0  0
 12 34  1  0  0  0  0
 13 14  1  0  0  0  0
 14 15  2  0  0  0  0
 14 35  1  0  0  0  0
 15 36  1  0  0  0  0
 16 17  1  0  0  0  0
 16 37  1  0  0  0  0
 16 38  1  0  0  0  0
 17 18  1  0  0  0  0
 17 39  1  0  0  0  0
 18 40  1  0  0  0  0
 18 41  1  0  0  0  0
 18 42  1  0  0  0  0
M  CHG  1   6   1
M  END
> <s_m_source_file>
AV-unprocessed.smi

> <i_m_source_file_index>
3287

> <i_lp_mmshare_version>
43012

> <i_f3d_flags>
0

> <s_epik_input>
W0NIM11bQ0BASF0xW0NIMl1bQ0gyXVtDQEhdKFtDSDJdW0NASF0xW0NIM10pW05IXVtDSDJdW0NASF0oW09IXSljMltjSF1bY0hdbltjSF1bY0hdMg==

> <s_epik_cmdline>
J2VwaWtfcHl0aG9uJywgJy1waCcsICc3LjAnLCAnLXRuJywgJzgnLCAnLW1hJywgJzIwMCcsICctbWV0YWxfYmluZGluZycsICctaW1hZScsICc8aW5maWxlLm1hZT4nLCAnLW9tYWUnLCAnPG91dGZpbGUubWFlPic=

> <r_lp_tautomer_probability>
1

> <r_epik_Ionization_Penalty>
0.00537262

> <r_epik_Ionization_Penalty_Charging>
0.00321624

> <r_epik_Ionization_Penalty_Neutral>
0.00215638

> <r_epik_State_Penalty>
-0

> <r_epik_Charging_Adjusted_Penalty>
0.00321624

> <i_epik_Tot_Q>
1

> <i_epik_Tot_abs_Q>
1

> <r_epik_Metal_State_Penalty>
-0

> <b_epik_Metal_Only>
0

> <s_lp_Force_Field>
OPLS_2005

> <r_lp_Energy>
19.4184

> <b_lp_Chiralities_Consistent>
1

> <s_lp_Variant>
AV-unprocessed.smi:3287-14

> <Gold.Version>
5.8.1

> <Gold.Id.Protein>
6NUR|6NUR_protein|mol2

> <Gold.PLP.Fitness>
40.6620

> <Gold.PLP.PLP>
-27.9292

> <Gold.PLP.part.hbond>
-3.0000

> <Gold.PLP.part.metal>
0.0000

> <Gold.PLP.part.buried>
-0.8892

> <Gold.PLP.part.nonpolar>
-24.3728

> <Gold.PLP.part.repulsive>
0.1802

> <Gold.PLP.ligand.clash>
0.0000

> <Gold.PLP.ligand.torsion>
1.1412

> <Gold.PLP.Chemscore.Hbond>
3.0000

> <Gold.PLP.Chemscore.CHOScore>
2.0000

> <Gold.PLP.Chemscore.Metal>
0.0000

> <Gold.Chemscore.Hbonds>
donor molecule, donor type, donor heavy atom, donor atom, acceptor molecule, acceptor atom, score
      L1  H     6    43       P1  7948  2.00
      L1  H     9    32       P1  7948  1.00
      L1  C    12    34       P1  8028  1.00
      L1  C    14    35       P1 10175  0.08

> <Gold.PLP.Chemscore.Internal.Correction>
0.0152

> <Gold.Rescore>
     Score         DG    S(hbond)    S(metal)    S(lipo)     H(rot)  DE(clash)    DE(int)     intcor
     13.13     -14.40       1.66        0.00      70.46       1.90       0.06       1.22       ----

> <Gold.Chemscore.Fitness>
13.1281

> <Gold.Chemscore.DG>
-14.4020

> <Gold.Chemscore.ZeroCoef>
-5.4800

> <Gold.Chemscore.Hbond>
1.6618

> <Gold.Chemscore.Metal>
0.0000

> <Gold.Chemscore.Lipo>
70.4643

> <Gold.Chemscore.Internal_Hbond>
0.0000

> <Gold.Chemscore.DEClash>
0.0578

> <Gold.Chemscore.DEInternal>
1.2161

> <Gold.Chemscore.Rot>
1.9035

> <Gold.Chemscore.Internal.Correction>
   9.000000E+99

> <Gold.Chemscore.Hbonds>
donor molecule, donor type, donor heavy atom, donor atom, acceptor molecule, acceptor atom, score
      L1  H     6    43       P1  7948  0.95
      L1  H     9    32       P1  7948  0.26

> <Gold.Chemscore.Hbond.Weighted>
-5.5505

> <Gold.Chemscore.Metal.Weighted>
-0.0000

> <Gold.Chemscore.Lipo.Weighted>
-8.2443

> <Gold.Chemscore.Internal_Hbond.Weighted>
0.0000

> <Gold.Chemscore.DEClash.Weighted>
0.0578

> <Gold.Chemscore.DEInternal.Weighted>
1.2161

> <Gold.Chemscore.Rot.Weighted>
4.8729

> <Gold.Chemscore.Internal.Correction.Weighted>
   9.000000E+99

> <Gold.Protein.RotatedTorsions>
[ 6907 6896 6895 6894 ] final   66.82 input  -60.11 | X-H torsion
[ 7974 7965 7964 7962 ] final  -72.07 input  175.53 | X-H torsion
[ 8008 7997 7996 7995 ] final  -11.27 input   59.86 | X-H torsion
[ 10167 10162 10161 10158 ] final -101.56 input  -65.29 | X-H torsion
[ 10718 10713 10712 10709 ] final -125.77 input   66.30 | X-H torsion
[ 10763 10752 10751 10750 ] final  -52.69 input  -60.55 | X-H torsion
[ 11005 11000 10999 10996 ] final   63.49 input  -57.11 | X-H torsion

> <Gold.Protein.ActiveResidues>
 VAL166  LYS551  ARG553  GLY616  TRP617  ASP618  TYR619  PRO620  LYS621  CYS622 
 ASP623  PHE694  ASN695  SER759  ASP760  ASP761  ALA762  ILE779  LEU786  VAL792 
 PHE793  MET794  SER795  GLU796  ALA797  LYS798  CYS799  TRP800  GLU811  SER814 

> <Gold.Protein.RotatedAtoms>
  152.4509  134.5396  159.9834 H   0  0  0  0  0  0  0  0  0  0  0  0  # atno 6907 bound_to 6896
  151.5469  133.3418  159.2954 H   0  0  0  0  0  0  0  0  0  0  0  0  # atno 6908 bound_to 6896
  150.8437  134.7770  159.7016 H   0  0  0  0  0  0  0  0  0  0  0  0  # atno 6909 bound_to 6896
  145.6699  140.9224  143.0888 H   0  0  0  0  0  0  0  0  0  0  0  0  # atno 7974 bound_to 7965
  154.5480  140.2307  155.8532 H   0  0  0  0  0  0  0  0  0  0  0  0  # atno 8008 bound_to 7997
  156.1920  140.3074  155.9313 H   0  0  0  0  0  0  0  0  0  0  0  0  # atno 8009 bound_to 7997
  155.3127  140.0436  157.3026 H   0  0  0  0  0  0  0  0  0  0  0  0  # atno 8010 bound_to 7997
  140.2400  143.3546  152.0811 H   0  0  0  0  0  0  0  0  0  0  0  0  # atno 10167 bound_to 10162
  156.1705  130.6664  151.0173 H   0  0  0  0  0  0  0  0  0  0  0  0  # atno 10718 bound_to 10713
  154.1468  135.6496  153.4954 H   0  0  0  0  0  0  0  0  0  0  0  0  # atno 10763 bound_to 10752
  153.0149  135.5328  154.6848 H   0  0  0  0  0  0  0  0  0  0  0  0  # atno 10764 bound_to 10752
  154.6125  135.2955  155.0387 H   0  0  0  0  0  0  0  0  0  0  0  0  # atno 10765 bound_to 10752
  140.0021  134.6426  155.9913 H   0  0  0  0  0  0  0  0  0  0  0  0  # atno 11005 bound_to 11000
  144.7060  139.8559  143.7429 LP  0  0  0  0  0  0  0  0  0  0  0  0  # atno 17320 bound_to 7965
  146.1054  139.4053  143.0321 LP  0  0  0  0  0  0  0  0  0  0  0  0  # atno 17321 bound_to 7965
  139.5081  144.6843  151.5928 LP  0  0  0  0  0  0  0  0  0  0  0  0  # atno 17342 bound_to 10162
  140.6121  143.9417  150.6461 LP  0  0  0  0  0  0  0  0  0  0  0  0  # atno 17343 bound_to 10162
  157.6799  131.0841  150.7396 LP  0  0  0  0  0  0  0  0  0  0  0  0  # atno 17370 bound_to 10713
  156.7456  130.4752  149.5468 LP  0  0  0  0  0  0  0  0  0  0  0  0  # atno 17371 bound_to 10713
  141.1650  133.6537  156.4448 LP  0  0  0  0  0  0  0  0  0  0  0  0  # atno 17394 bound_to 11000
  140.4708  134.6755  157.5128 LP  0  0  0  0  0  0  0  0  0  0  0  0  # atno 17395 bound_to 11000

$$$$
