AV-unprocessed.smi:879|AV-procd|sdf|4033|dock3
  -GOLD-   22720 1523D 1   1.00000     0.00000
 Structure written by MMmdl.
 39 40  0  0  0  0  0  0  0  0  1 V2000
  149.8720  133.9591  154.8407 C   0  0  0  0  0  0  0  0  0  0  0  0
  149.8717  135.3731  154.4980 N   0  0  0  0  0  0  0  0  0  0  0  0
  150.7329  136.2710  154.9980 C   0  0  0  0  0  0  0  0  0  0  0  0
  151.6165  135.9739  155.8040 O   0  0  0  0  0  0  0  0  0  0  0  0
  150.5643  137.7116  154.4965 C   0  0  0  0  0  0  0  0  0  0  0  0
  151.2192  138.7124  155.3976 C   0  0  0  0  0  0  0  0  0  0  0  0
  152.2363  139.4568  154.9781 N   0  0  0  0  0  0  0  0  0  0  0  0
  152.5536  140.2340  156.1010 O   0  0  0  0  0  0  0  0  0  0  0  0
  151.6780  139.8641  157.0668 C   0  0  0  0  0  0  0  0  0  0  0  0
  151.7801  140.4935  158.4187 C   0  0  0  0  0  0  0  0  0  0  0  0
  152.4833  141.8696  158.4205 C   0  0  0  0  0  0  0  0  0  0  0  0
  153.1125  142.1695  159.8002 C   0  0  0  0  0  0  0  0  0  0  0  0
  152.1791  142.8330  160.8277 C   0  0  0  0  0  0  0  0  0  0  0  0
  152.1936  144.3686  160.7408 C   0  0  0  0  0  0  0  0  0  0  0  0
  151.4893  144.9509  159.5061 C   0  0  0  0  0  0  0  0  0  0  0  0
  152.0123  144.4296  158.1561 C   0  0  0  0  0  0  0  0  0  0  0  0
  151.5694  142.9864  157.8610 C   0  0  0  0  0  0  0  0  0  0  0  0
  150.8357  138.9054  156.6906 N   0  0  0  0  0  0  0  0  0  0  0  0
  149.1017  133.4386  154.2718 H   0  0  0  0  0  0  0  0  0  0  0  0
  149.6661  133.8184  155.9023 H   0  0  0  0  0  0  0  0  0  0  0  0
  150.8349  133.5015  154.6088 H   0  0  0  0  0  0  0  0  0  0  0  0
  149.1740  135.6889  153.8399 H   0  0  0  0  0  0  0  0  0  0  0  0
  150.9913  137.7917  153.4962 H   0  0  0  0  0  0  0  0  0  0  0  0
  149.5025  137.9471  154.4076 H   0  0  0  0  0  0  0  0  0  0  0  0
  150.7754  140.5871  158.8324 H   0  0  0  0  0  0  0  0  0  0  0  0
  152.3135  139.7995  159.0693 H   0  0  0  0  0  0  0  0  0  0  0  0
  153.3246  141.7822  157.7309 H   0  0  0  0  0  0  0  0  0  0  0  0
  153.4977  141.2406  160.2225 H   0  0  0  0  0  0  0  0  0  0  0  0
  153.9961  142.7950  159.6663 H   0  0  0  0  0  0  0  0  0  0  0  0
  151.1637  142.4432  160.7487 H   0  0  0  0  0  0  0  0  0  0  0  0
  152.5262  142.5575  161.8241 H   0  0  0  0  0  0  0  0  0  0  0  0
  151.7090  144.7723  161.6303 H   0  0  0  0  0  0  0  0  0  0  0  0
  153.2222  144.7288  160.7793 H   0  0  0  0  0  0  0  0  0  0  0  0
  150.4159  144.7719  159.5782 H   0  0  0  0  0  0  0  0  0  0  0  0
  151.6073  146.0346  159.5298 H   0  0  0  0  0  0  0  0  0  0  0  0
  151.5997  145.0711  157.3768 H   0  0  0  0  0  0  0  0  0  0  0  0
  153.0954  144.5342  158.0827 H   0  0  0  0  0  0  0  0  0  0  0  0
  151.5101  142.8633  156.7787 H   0  0  0  0  0  0  0  0  0  0  0  0
  150.5490  142.8474  158.2204 H   0  0  0  0  0  0  0  0  0  0  0  0
  1  2  1  0  0  0  0
  1 19  1  0  0  0  0
  1 20  1  0  0  0  0
  1 21  1  0  0  0  0
  2  3  1  0  0  0  0
  2 22  1  0  0  0  0
  3  4  2  0  0  0  0
  3  5  1  0  0  0  0
  5  6  1  0  0  0  0
  5 23  1  0  0  0  0
  5 24  1  0  0  0  0
  6 18  1  0  0  0  0
  6  7  2  0  0  0  0
  7  8  1  0  0  0  0
  8  9  1  0  0  0  0
  9 10  1  0  0  0  0
  9 18  2  0  0  0  0
 10 11  1  0  0  0  0
 10 25  1  0  0  0  0
 10 26  1  0  0  0  0
 11 17  1  0  0  0  0
 11 12  1  0  0  0  0
 11 27  1  0  0  0  0
 12 13  1  0  0  0  0
 12 28  1  0  0  0  0
 12 29  1  0  0  0  0
 13 14  1  0  0  0  0
 13 30  1  0  0  0  0
 13 31  1  0  0  0  0
 14 15  1  0  0  0  0
 14 32  1  0  0  0  0
 14 33  1  0  0  0  0
 15 16  1  0  0  0  0
 15 34  1  0  0  0  0
 15 35  1  0  0  0  0
 16 17  1  0  0  0  0
 16 36  1  0  0  0  0
 16 37  1  0  0  0  0
 17 38  1  0  0  0  0
 17 39  1  0  0  0  0
M  END
> <s_m_source_file>
AV-unprocessed.smi

> <i_m_source_file_index>
879

> <i_lp_mmshare_version>
43012

> <i_f3d_flags>
0

> <s_epik_input>
W0NIM11bTkhdQyg9TylbQ0gyXWMxbm9jKG4xKVtDSDJdW0NIXTJbQ0gyXVtDSDJdW0NIMl1bQ0gyXVtDSDJdW0NIMl0y

> <s_epik_cmdline>
J2VwaWtfcHl0aG9uJywgJy1waCcsICc3LjAnLCAnLXRuJywgJzgnLCAnLW1hJywgJzIwMCcsICctbWV0YWxfYmluZGluZycsICctaW1hZScsICc8aW5maWxlLm1hZT4nLCAnLW9tYWUnLCAnPG91dGZpbGUubWFlPic=

> <r_lp_tautomer_probability>
1

> <r_epik_Ionization_Penalty>
1.02915e-07

> <r_epik_Ionization_Penalty_Charging>
0

> <r_epik_Ionization_Penalty_Neutral>
1.02915e-07

> <r_epik_State_Penalty>
-0

> <r_epik_Charging_Adjusted_Penalty>
0

> <i_epik_Tot_Q>
0

> <i_epik_Tot_abs_Q>
0

> <r_epik_Metal_State_Penalty>
-0

> <b_epik_Metal_Only>
0

> <s_lp_Force_Field>
OPLS_2005

> <r_lp_Energy>
15.7019

> <b_lp_Chiralities_Consistent>
1

> <s_lp_Variant>
AV-unprocessed.smi:879-1

> <Gold.Version>
5.8.1

> <Gold.Id.Protein>
6NUR|6NUR_protein|mol2

> <Gold.PLP.Fitness>
48.0812

> <Gold.PLP.PLP>
-38.8482

> <Gold.PLP.part.hbond>
-4.2956

> <Gold.PLP.part.metal>
0.0000

> <Gold.PLP.part.buried>
-2.5259

> <Gold.PLP.part.nonpolar>
-30.9909

> <Gold.PLP.part.repulsive>
0.1368

> <Gold.PLP.ligand.clash>
0.0000

> <Gold.PLP.ligand.torsion>
0.7840

> <Gold.PLP.Chemscore.Hbond>
3.5840

> <Gold.PLP.Chemscore.CHOScore>
0.0000

> <Gold.PLP.Chemscore.Metal>
0.0000

> <Gold.Chemscore.Hbonds>
donor molecule, donor type, donor heavy atom, donor atom, acceptor molecule, acceptor atom, score
      L1  H     2    22       P1  7948  0.79
      P1  H  7989  7998       L1     7  0.65
      P1  H  7997  8010       L1     8  1.00
      P1  H 10752 10763       L1     4  1.00

> <Gold.PLP.Chemscore.Internal.Correction>
0.0490

> <Gold.Rescore>
     Score         DG    S(hbond)    S(metal)    S(lipo)     H(rot)  DE(clash)    DE(int)     intcor
     20.19     -21.11       2.72        0.00      96.26       1.84       0.07       0.85       ----

> <Gold.Chemscore.Fitness>
20.1946

> <Gold.Chemscore.DG>
-21.1131

> <Gold.Chemscore.ZeroCoef>
-5.4800

> <Gold.Chemscore.Hbond>
2.7188

> <Gold.Chemscore.Metal>
0.0000

> <Gold.Chemscore.Lipo>
96.2613

> <Gold.Chemscore.Internal_Hbond>
0.0000

> <Gold.Chemscore.DEClash>
0.0679

> <Gold.Chemscore.DEInternal>
0.8506

> <Gold.Chemscore.Rot>
1.8399

> <Gold.Chemscore.Internal.Correction>
   9.000000E+99

> <Gold.Chemscore.Hbonds>
donor molecule, donor type, donor heavy atom, donor atom, acceptor molecule, acceptor atom, score
      L1  H     2    22       P1  7948  0.55
      P1  H  7989  7998       L1     7  0.27
      P1  H  7997  8010       L1     8  0.49
      P1  H 10752 10763       L1     4  0.70

> <Gold.Chemscore.Hbond.Weighted>
-9.0807

> <Gold.Chemscore.Metal.Weighted>
-0.0000

> <Gold.Chemscore.Lipo.Weighted>
-11.2626

> <Gold.Chemscore.Internal_Hbond.Weighted>
0.0000

> <Gold.Chemscore.DEClash.Weighted>
0.0679

> <Gold.Chemscore.DEInternal.Weighted>
0.8506

> <Gold.Chemscore.Rot.Weighted>
4.7101

> <Gold.Chemscore.Internal.Correction.Weighted>
   9.000000E+99

> <Gold.Protein.RotatedTorsions>
[ 6907 6896 6895 6894 ] final  -82.74 input  -60.11 | X-H torsion
[ 7974 7965 7964 7962 ] final   -7.53 input  175.53 | X-H torsion
[ 8008 7997 7996 7995 ] final   84.48 input   59.86 | X-H torsion
[ 10167 10162 10161 10158 ] final  148.58 input  -65.29 | X-H torsion
[ 10718 10713 10712 10709 ] final -165.83 input   66.30 | X-H torsion
[ 10763 10752 10751 10750 ] final   80.13 input  -60.55 | X-H torsion
[ 11005 11000 10999 10996 ] final -159.23 input  -57.11 | X-H torsion

> <Gold.Protein.ActiveResidues>
 VAL166  LYS551  ARG553  GLY616  TRP617  ASP618  TYR619  PRO620  LYS621  CYS622 
 ASP623  PHE694  ASN695  SER759  ASP760  ASP761  ALA762  ILE779  LEU786  VAL792 
 PHE793  MET794  SER795  GLU796  ALA797  LYS798  CYS799  TRP800  GLU811  SER814 

> <Gold.Protein.RotatedAtoms>
  150.6893  134.3619  159.4954 H   0  0  0  0  0  0  0  0  0  0  0  0  # atno 6907 bound_to 6896
  152.1447  134.9032  160.0561 H   0  0  0  0  0  0  0  0  0  0  0  0  # atno 6908 bound_to 6896
  152.0153  133.3842  159.4273 H   0  0  0  0  0  0  0  0  0  0  0  0  # atno 6909 bound_to 6896
  146.2304  140.2333  142.8341 H   0  0  0  0  0  0  0  0  0  0  0  0  # atno 7974 bound_to 7965
  155.9376  140.3410  155.6301 H   0  0  0  0  0  0  0  0  0  0  0  0  # atno 8008 bound_to 7997
  155.7079  140.0768  157.2402 H   0  0  0  0  0  0  0  0  0  0  0  0  # atno 8009 bound_to 7997
  154.4096  140.1628  156.2251 H   0  0  0  0  0  0  0  0  0  0  0  0  # atno 8010 bound_to 7997
  139.4873  144.5668  151.7129 H   0  0  0  0  0  0  0  0  0  0  0  0  # atno 10167 bound_to 10162
  156.6591  130.9038  151.3026 H   0  0  0  0  0  0  0  0  0  0  0  0  # atno 10718 bound_to 10713
  153.1008  135.4814  154.8864 H   0  0  0  0  0  0  0  0  0  0  0  0  # atno 10763 bound_to 10752
  154.7377  135.3075  154.8785 H   0  0  0  0  0  0  0  0  0  0  0  0  # atno 10764 bound_to 10752
  153.9403  135.6835  153.4798 H   0  0  0  0  0  0  0  0  0  0  0  0  # atno 10765 bound_to 10752
  140.6448  134.4513  157.5234 H   0  0  0  0  0  0  0  0  0  0  0  0  # atno 11005 bound_to 11000
  144.9541  140.8208  143.5554 LP  0  0  0  0  0  0  0  0  0  0  0  0  # atno 17320 bound_to 7965
  145.2297  139.2120  143.5049 LP  0  0  0  0  0  0  0  0  0  0  0  0  # atno 17321 bound_to 7965
  140.5248  144.0823  150.6034 LP  0  0  0  0  0  0  0  0  0  0  0  0  # atno 17342 bound_to 10162
  140.3793  143.2811  152.0189 LP  0  0  0  0  0  0  0  0  0  0  0  0  # atno 17343 bound_to 10162
  157.7115  130.9446  150.1107 LP  0  0  0  0  0  0  0  0  0  0  0  0  # atno 17370 bound_to 10713
  156.2025  130.3661  149.8771 LP  0  0  0  0  0  0  0  0  0  0  0  0  # atno 17371 bound_to 10713
  139.9067  134.8434  156.1680 LP  0  0  0  0  0  0  0  0  0  0  0  0  # atno 17394 bound_to 11000
  141.0580  133.6855  156.1898 LP  0  0  0  0  0  0  0  0  0  0  0  0  # atno 17395 bound_to 11000

$$$$
