AV-unprocessed.smi:1434|AV-procd|sdf|5851|dock9
  -GOLD-   22720 5523D 1   1.00000     0.00000
 Structure written by MMmdl.
 45 46  0  0  0  0  0  0  0  0  2 V2000
  150.4659  134.0593  155.1639 C   0  0  0  0  0  0  0  0  0  0  0  0
  150.1970  135.8254  155.5943 S   0  0  0  0  0  0  0  0  0  0  0  0
  149.8783  135.9125  157.0275 O   0  0  0  0  0  0  0  0  0  0  0  0
  151.2911  136.6298  155.0301 O   0  0  0  0  0  0  0  0  0  0  0  0
  148.7664  136.2097  154.7112 N   0  0  0  0  0  0  0  0  0  0  0  0
  148.2299  137.5680  154.8076 C   0  0  2  0  0  0  0  0  0  0  0  0
  146.8055  137.6246  154.2155 C   0  0  0  0  0  0  0  0  0  0  0  0
  146.2873  139.0721  154.1165 C   0  0  0  0  0  0  0  0  0  0  0  0
  147.3185  139.9826  153.4251 C   0  0  0  0  0  0  0  0  0  0  0  0
  148.5914  139.9002  154.1624 N   0  0  0  0  0  0  0  0  0  0  0  0
  149.0871  140.8353  155.0115 C   0  0  0  0  0  0  0  0  0  0  0  0
  148.3960  141.7177  155.5228 O   0  0  0  0  0  0  0  0  0  0  0  0
  150.3970  140.7103  155.2856 N   0  0  0  0  0  0  0  0  0  0  0  0
  151.1547  141.5839  156.1740 C   0  0  0  0  0  0  0  0  0  0  0  0
  150.4588  141.7444  157.5360 C   0  0  0  0  0  0  0  0  0  0  0  0
  151.0560  142.8710  158.3566 C   0  0  0  0  0  0  0  0  0  0  0  0
  151.8966  142.6269  159.4644 C   0  0  0  0  0  0  0  0  0  0  0  0
  152.4249  143.7196  160.1828 C   0  0  0  0  0  0  0  0  0  0  0  0
  152.1035  145.0318  159.7782 C   0  0  0  0  0  0  0  0  0  0  0  0
  151.2608  145.2182  158.6635 C   0  0  0  0  0  0  0  0  0  0  0  0
  150.7740  144.1455  158.0012 N   0  3  0  0  0  0  0  0  0  0  0  0
  149.1657  138.5514  154.0781 C   0  0  0  0  0  0  0  0  0  0  0  0
  151.3637  133.6979  155.6649 H   0  0  0  0  0  0  0  0  0  0  0  0
  150.5883  133.9598  154.0857 H   0  0  0  0  0  0  0  0  0  0  0  0
  149.6084  133.4707  155.4894 H   0  0  0  0  0  0  0  0  0  0  0  0
  148.8485  135.9179  153.7377 H   0  0  0  0  0  0  0  0  0  0  0  0
  148.1907  137.8520  155.8608 H   0  0  0  0  0  0  0  0  0  0  0  0
  146.8117  137.1856  153.2168 H   0  0  0  0  0  0  0  0  0  0  0  0
  146.1185  137.0231  154.8112 H   0  0  0  0  0  0  0  0  0  0  0  0
  145.3424  139.0925  153.5726 H   0  0  0  0  0  0  0  0  0  0  0  0
  146.0776  139.4534  155.1166 H   0  0  0  0  0  0  0  0  0  0  0  0
  147.4779  139.6499  152.3984 H   0  0  0  0  0  0  0  0  0  0  0  0
  146.9202  140.9936  153.3399 H   0  0  0  0  0  0  0  0  0  0  0  0
  150.9014  139.9552  154.8441 H   0  0  0  0  0  0  0  0  0  0  0  0
  152.1658  141.1942  156.3050 H   0  0  0  0  0  0  0  0  0  0  0  0
  151.2573  142.5548  155.6889 H   0  0  0  0  0  0  0  0  0  0  0  0
  149.3941  141.9346  157.3927 H   0  0  0  0  0  0  0  0  0  0  0  0
  150.5297  140.8185  158.1086 H   0  0  0  0  0  0  0  0  0  0  0  0
  152.1361  141.6157  159.7605 H   0  0  0  0  0  0  0  0  0  0  0  0
  153.0696  143.5526  161.0334 H   0  0  0  0  0  0  0  0  0  0  0  0
  152.4982  145.8824  160.3149 H   0  0  0  0  0  0  0  0  0  0  0  0
  150.9638  146.1851  158.2842 H   0  0  0  0  0  0  0  0  0  0  0  0
  150.1716  138.4993  154.4983 H   0  0  0  0  0  0  0  0  0  0  0  0
  149.2708  138.2701  153.0291 H   0  0  0  0  0  0  0  0  0  0  0  0
  150.1665  144.3044  157.1970 H   0  0  0  0  0  0  0  0  0  0  0  0
  1  2  1  0  0  0  0
  1 23  1  0  0  0  0
  1 24  1  0  0  0  0
  1 25  1  0  0  0  0
  2  3  2  0  0  0  0
  2  4  2  0  0  0  0
  2  5  1  0  0  0  0
  5  6  1  0  0  0  0
  5 26  1  0  0  0  0
  6 22  1  0  0  0  0
  6  7  1  0  0  0  0
  6 27  1  0  0  0  0
  7  8  1  0  0  0  0
  7 28  1  0  0  0  0
  7 29  1  0  0  0  0
  8  9  1  0  0  0  0
  8 30  1  0  0  0  0
  8 31  1  0  0  0  0
  9 10  1  0  0  0  0
  9 32  1  0  0  0  0
  9 33  1  0  0  0  0
 10 11  1  0  0  0  0
 10 22  1  0  0  0  0
 11 12  2  0  0  0  0
 11 13  1  0  0  0  0
 13 14  1  0  0  0  0
 13 34  1  0  0  0  0
 14 15  1  0  0  0  0
 14 35  1  0  0  0  0
 14 36  1  0  0  0  0
 15 16  1  0  0  0  0
 15 37  1  0  0  0  0
 15 38  1  0  0  0  0
 16 21  1  0  0  0  0
 16 17  2  0  0  0  0
 17 18  1  0  0  0  0
 17 39  1  0  0  0  0
 18 19  2  0  0  0  0
 18 40  1  0  0  0  0
 19 20  1  0  0  0  0
 19 41  1  0  0  0  0
 20 21  2  0  0  0  0
 20 42  1  0  0  0  0
 21 45  1  0  0  0  0
 22 43  1  0  0  0  0
 22 44  1  0  0  0  0
M  CHG  1  21   1
M  END
> <s_m_source_file>
AV-unprocessed.smi

> <i_m_source_file_index>
1434

> <i_lp_mmshare_version>
43012

> <i_f3d_flags>
0

> <s_epik_input>
W0NIM11TKD1PKSg9TylbTkhdW0NAQEhdMVtDSDJdW0NIMl1bQ0gyXU4oW0NIMl0xKUMoPU8pW05IXVtDSDJdW0NIMl1jMltjSF1bY0hdW2NIXVtjSF1uMg==

> <s_epik_cmdline>
J2VwaWtfcHl0aG9uJywgJy1waCcsICc3LjAnLCAnLXRuJywgJzgnLCAnLW1hJywgJzIwMCcsICctbWV0YWxfYmluZGluZycsICctaW1hZScsICc8aW5maWxlLm1hZT4nLCAnLW9tYWUnLCAnPG91dGZpbGUubWFlPic=

> <r_epik_Ionization_Penalty>
1.55113

> <r_epik_Ionization_Penalty_Charging>
1.55107

> <r_epik_Ionization_Penalty_Neutral>
6.01346e-05

> <r_epik_State_Penalty>
1.64529

> <r_epik_Charging_Adjusted_Penalty>
3.19637

> <i_epik_Tot_Q>
1

> <i_epik_Tot_abs_Q>
1

> <r_epik_Metal_State_Penalty>
1.69621

> <b_epik_Metal_Only>
0

> <s_lp_Force_Field>
OPLS_2005

> <r_lp_Energy>
27.1225

> <b_lp_Chiralities_Consistent>
1

> <s_lp_Variant>
AV-unprocessed.smi:1434-3

> <Gold.Version>
5.8.1

> <Gold.Id.Protein>
6NUR|6NUR_protein|mol2

> <Gold.PLP.Fitness>
47.8152

> <Gold.PLP.PLP>
-36.8589

> <Gold.PLP.part.hbond>
-2.9418

> <Gold.PLP.part.metal>
0.0000

> <Gold.PLP.part.buried>
-6.2834

> <Gold.PLP.part.nonpolar>
-28.6799

> <Gold.PLP.part.repulsive>
1.1748

> <Gold.PLP.ligand.clash>
0.0000

> <Gold.PLP.ligand.torsion>
0.6036

> <Gold.PLP.Chemscore.Hbond>
4.0000

> <Gold.PLP.Chemscore.CHOScore>
0.0000

> <Gold.PLP.Chemscore.Metal>
0.0000

> <Gold.Chemscore.Hbonds>
donor molecule, donor type, donor heavy atom, donor atom, acceptor molecule, acceptor atom, score
      L1  H     5    26       P1  7948  1.00
      L1  H    21    45       P1  8028  2.00
      P1  H 10752 10764       L1     4  1.00

> <Gold.PLP.Chemscore.Internal.Correction>
0.1635

> <Gold.Rescore>
     Score         DG    S(hbond)    S(metal)    S(lipo)     H(rot)  DE(clash)    DE(int)     intcor
     17.41     -20.18       2.69        0.00      95.46       2.13       0.19       2.59       ----

> <Gold.Chemscore.Fitness>
17.4058

> <Gold.Chemscore.DG>
-20.1800

> <Gold.Chemscore.ZeroCoef>
-5.4800

> <Gold.Chemscore.Hbond>
2.6918

> <Gold.Chemscore.Metal>
0.0000

> <Gold.Chemscore.Lipo>
95.4606

> <Gold.Chemscore.Internal_Hbond>
0.0000

> <Gold.Chemscore.DEClash>
0.1879

> <Gold.Chemscore.DEInternal>
2.5864

> <Gold.Chemscore.Rot>
2.1326

> <Gold.Chemscore.Internal.Correction>
   9.000000E+99

> <Gold.Chemscore.Hbonds>
donor molecule, donor type, donor heavy atom, donor atom, acceptor molecule, acceptor atom, score
      L1  H     5    26       P1  7948  0.96
      L1  H    21    45       P1  8028  0.66
      P1  H 10752 10764       L1     4  0.85

> <Gold.Chemscore.Hbond.Weighted>
-8.9907

> <Gold.Chemscore.Metal.Weighted>
-0.0000

> <Gold.Chemscore.Lipo.Weighted>
-11.1689

> <Gold.Chemscore.Internal_Hbond.Weighted>
0.0000

> <Gold.Chemscore.DEClash.Weighted>
0.1879

> <Gold.Chemscore.DEInternal.Weighted>
2.5864

> <Gold.Chemscore.Rot.Weighted>
5.4595

> <Gold.Chemscore.Internal.Correction.Weighted>
   9.000000E+99

> <Gold.Protein.RotatedTorsions>
[ 6907 6896 6895 6894 ] final   17.06 input  -60.11 | X-H torsion
[ 7974 7965 7964 7962 ] final  -56.37 input  175.53 | X-H torsion
[ 8008 7997 7996 7995 ] final  -17.35 input   59.86 | X-H torsion
[ 10167 10162 10161 10158 ] final   55.09 input  -65.29 | X-H torsion
[ 10718 10713 10712 10709 ] final -128.40 input   66.30 | X-H torsion
[ 10763 10752 10751 10750 ] final  -58.68 input  -60.55 | X-H torsion
[ 11005 11000 10999 10996 ] final  -40.47 input  -57.11 | X-H torsion

> <Gold.Protein.ActiveResidues>
 VAL166  LYS551  ARG553  GLY616  TRP617  ASP618  TYR619  PRO620  LYS621  CYS622 
 ASP623  PHE694  ASN695  SER759  ASP760  ASP761  ALA762  ILE779  LEU786  VAL792 
 PHE793  MET794  SER795  GLU796  ALA797  LYS798  CYS799  TRP800  GLU811  SER814 

> <Gold.Protein.RotatedAtoms>
  151.8437  135.0581  160.0450 H   0  0  0  0  0  0  0  0  0  0  0  0  # atno 6907 bound_to 6896
  152.2789  133.5447  159.5494 H   0  0  0  0  0  0  0  0  0  0  0  0  # atno 6908 bound_to 6896
  150.7181  134.0508  159.3840 H   0  0  0  0  0  0  0  0  0  0  0  0  # atno 6909 bound_to 6896
  145.8634  140.8269  142.9925 H   0  0  0  0  0  0  0  0  0  0  0  0  # atno 7974 bound_to 7965
  154.4985  140.2145  155.9397 H   0  0  0  0  0  0  0  0  0  0  0  0  # atno 8008 bound_to 7997
  156.1402  140.3181  155.8451 H   0  0  0  0  0  0  0  0  0  0  0  0  # atno 8009 bound_to 7997
  155.4134  140.0492  157.3021 H   0  0  0  0  0  0  0  0  0  0  0  0  # atno 8010 bound_to 7997
  140.2232  144.3766  150.6442 H   0  0  0  0  0  0  0  0  0  0  0  0  # atno 10167 bound_to 10162
  156.1947  130.6818  151.0467 H   0  0  0  0  0  0  0  0  0  0  0  0  # atno 10718 bound_to 10713
  154.2419  135.6342  153.5210 H   0  0  0  0  0  0  0  0  0  0  0  0  # atno 10763 bound_to 10752
  152.9928  135.5544  154.5902 H   0  0  0  0  0  0  0  0  0  0  0  0  # atno 10764 bound_to 10752
  154.5409  135.2894  155.1071 H   0  0  0  0  0  0  0  0  0  0  0  0  # atno 10765 bound_to 10752
  141.0177  133.6877  156.2326 H   0  0  0  0  0  0  0  0  0  0  0  0  # atno 11005 bound_to 11000
  144.6726  140.1130  143.7454 LP  0  0  0  0  0  0  0  0  0  0  0  0  # atno 17320 bound_to 7965
  145.9221  139.2552  143.1375 LP  0  0  0  0  0  0  0  0  0  0  0  0  # atno 17321 bound_to 7965
  140.6240  143.2179  151.6635 LP  0  0  0  0  0  0  0  0  0  0  0  0  # atno 17342 bound_to 10162
  139.5137  144.3436  152.0718 LP  0  0  0  0  0  0  0  0  0  0  0  0  # atno 17343 bound_to 10162
  157.6950  131.0797  150.6994 LP  0  0  0  0  0  0  0  0  0  0  0  0  # atno 17370 bound_to 10713
  156.7051  130.4635  149.5562 LP  0  0  0  0  0  0  0  0  0  0  0  0  # atno 17371 bound_to 10713
  140.6626  134.4951  157.5584 LP  0  0  0  0  0  0  0  0  0  0  0  0  # atno 17394 bound_to 11000
  139.9127  134.8311  156.1473 LP  0  0  0  0  0  0  0  0  0  0  0  0  # atno 17395 bound_to 11000

$$$$
