AV-unprocessed.smi:3134|AV-procd|sdf|11944|dock6
  -GOLD-   2272017333D 1   1.00000     0.00000
 Structure written by MMmdl.
 36 36  0  0  0  0  0  0  0  0  1 V2000
  153.4687  138.4046  154.5565 C   0  0  0  0  0  0  0  0  0  0  0  0
  152.0861  138.4054  155.2281 C   0  0  0  0  0  0  0  0  0  0  0  0
  151.2277  137.2231  154.7595 C   0  0  0  0  0  0  0  0  0  0  0  0
  151.3862  139.6552  154.9483 N   0  0  0  0  0  0  0  0  0  0  0  0
  150.2746  140.0809  155.5690 C   0  0  0  0  0  0  0  0  0  0  0  0
  149.7112  139.4436  156.4597 O   0  0  0  0  0  0  0  0  0  0  0  0
  149.7366  141.4578  155.1438 C   0  0  1  0  0  0  0  0  0  0  0  0
  148.2762  141.3523  154.6763 C   0  0  0  0  0  0  0  0  0  0  0  0
  149.8472  142.4801  156.2005 N   0  0  0  0  0  0  0  0  0  0  0  0
  149.5045  142.0065  157.5370 C   0  0  0  0  0  0  0  0  0  0  0  0
  150.7846  141.8715  158.3731 C   0  0  0  0  0  0  0  0  0  0  0  0
  151.2756  143.1659  158.8034 N   0  0  0  0  0  0  0  0  0  0  0  0
  151.3583  144.3349  158.0770 C   0  0  0  0  0  0  0  0  0  0  0  0
  151.8775  145.2900  158.9034 C   0  0  0  0  0  0  0  0  0  0  0  0
  152.0814  144.5999  160.1312 C   0  0  0  0  0  0  0  0  0  0  0  0
  151.7184  143.3289  160.0687 N   0  0  0  0  0  0  0  0  0  0  0  0
  154.0030  137.4771  154.7630 H   0  0  0  0  0  0  0  0  0  0  0  0
  154.0871  139.2259  154.9202 H   0  0  0  0  0  0  0  0  0  0  0  0
  153.3844  138.5065  153.4740 H   0  0  0  0  0  0  0  0  0  0  0  0
  152.2231  138.3090  156.3066 H   0  0  0  0  0  0  0  0  0  0  0  0
  151.7155  136.2736  154.9812 H   0  0  0  0  0  0  0  0  0  0  0  0
  151.0488  137.2620  153.6845 H   0  0  0  0  0  0  0  0  0  0  0  0
  150.2583  137.2187  155.2592 H   0  0  0  0  0  0  0  0  0  0  0  0
  151.7848  140.2501  154.2362 H   0  0  0  0  0  0  0  0  0  0  0  0
  150.3243  141.7993  154.2896 H   0  0  0  0  0  0  0  0  0  0  0  0
  148.1685  140.6198  153.8754 H   0  0  0  0  0  0  0  0  0  0  0  0
  147.9204  142.3087  154.2916 H   0  0  0  0  0  0  0  0  0  0  0  0
  147.6116  141.0573  155.4896 H   0  0  0  0  0  0  0  0  0  0  0  0
  149.3061  143.3039  155.9789 H   0  0  0  0  0  0  0  0  0  0  0  0
  148.8241  142.7022  158.0293 H   0  0  0  0  0  0  0  0  0  0  0  0
  148.9983  141.0424  157.4681 H   0  0  0  0  0  0  0  0  0  0  0  0
  150.6068  141.2536  159.2548 H   0  0  0  0  0  0  0  0  0  0  0  0
  151.5691  141.3811  157.7948 H   0  0  0  0  0  0  0  0  0  0  0  0
  151.0433  144.3891  157.0452 H   0  0  0  0  0  0  0  0  0  0  0  0
  152.0805  146.3240  158.6675 H   0  0  0  0  0  0  0  0  0  0  0  0
  152.4788  144.9822  161.0596 H   0  0  0  0  0  0  0  0  0  0  0  0
  1  2  1  0  0  0  0
  1 17  1  0  0  0  0
  1 18  1  0  0  0  0
  1 19  1  0  0  0  0
  2  3  1  0  0  0  0
  2  4  1  0  0  0  0
  2 20  1  0  0  0  0
  3 21  1  0  0  0  0
  3 22  1  0  0  0  0
  3 23  1  0  0  0  0
  4  5  1  0  0  0  0
  4 24  1  0  0  0  0
  5  6  2  0  0  0  0
  5  7  1  0  0  0  0
  7  8  1  0  0  0  0
  7  9  1  0  0  0  0
  7 25  1  0  0  0  0
  8 26  1  0  0  0  0
  8 27  1  0  0  0  0
  8 28  1  0  0  0  0
  9 10  1  0  0  0  0
  9 29  1  0  0  0  0
 10 11  1  0  0  0  0
 10 30  1  0  0  0  0
 10 31  1  0  0  0  0
 11 12  1  0  0  0  0
 11 32  1  0  0  0  0
 11 33  1  0  0  0  0
 12 16  1  0  0  0  0
 12 13  1  0  0  0  0
 13 14  2  0  0  0  0
 13 34  1  0  0  0  0
 14 15  1  0  0  0  0
 14 35  1  0  0  0  0
 15 16  2  0  0  0  0
 15 36  1  0  0  0  0
M  END
> <s_m_source_file>
AV-unprocessed.smi

> <i_m_source_file_index>
3134

> <i_lp_mmshare_version>
43012

> <i_f3d_flags>
0

> <s_epik_input>
W0NIM11bQ0hdKFtDSDNdKVtOSF1DKD1PKVtDQEhdKFtDSDNdKVtOSF1bQ0gyXVtDSDJdbjFbY0hdW2NIXVtjSF1uMQ==

> <s_epik_cmdline>
J2VwaWtfcHl0aG9uJywgJy1waCcsICc3LjAnLCAnLXRuJywgJzgnLCAnLW1hJywgJzIwMCcsICctbWV0YWxfYmluZGluZycsICctaW1hZScsICc8aW5maWxlLm1hZT4nLCAnLW9tYWUnLCAnPG91dGZpbGUubWFlPic=

> <r_lp_tautomer_probability>
1

> <r_epik_Ionization_Penalty>
0.731872

> <r_epik_Ionization_Penalty_Charging>
0

> <r_epik_Ionization_Penalty_Neutral>
0.731872

> <r_epik_State_Penalty>
0.75611

> <r_epik_Charging_Adjusted_Penalty>
0.75611

> <i_epik_Tot_Q>
0

> <i_epik_Tot_abs_Q>
0

> <r_epik_Metal_State_Penalty>
0.755373

> <b_epik_Metal_Only>
0

> <s_lp_Force_Field>
OPLS_2005

> <r_lp_Energy>
3.64981

> <b_lp_Chiralities_Consistent>
1

> <s_lp_Variant>
AV-unprocessed.smi:3134-4

> <Gold.Version>
5.8.1

> <Gold.Id.Protein>
6NUR|6NUR_protein|mol2

> <Gold.PLP.Fitness>
38.4566

> <Gold.PLP.PLP>
-34.4264

> <Gold.PLP.part.hbond>
-0.9144

> <Gold.PLP.part.metal>
0.0000

> <Gold.PLP.part.buried>
-6.1443

> <Gold.PLP.part.nonpolar>
-30.0653

> <Gold.PLP.part.repulsive>
1.9514

> <Gold.PLP.ligand.clash>
0.0000

> <Gold.PLP.ligand.torsion>
0.9946

> <Gold.PLP.Chemscore.Hbond>
0.9913

> <Gold.PLP.Chemscore.CHOScore>
0.9967

> <Gold.PLP.Chemscore.Metal>
0.0000

> <Gold.Chemscore.Hbonds>
donor molecule, donor type, donor heavy atom, donor atom, acceptor molecule, acceptor atom, score
      L1  H     9    29       P1  8028  0.96
      L1  C    13    34       P1  8028  0.94

> <Gold.PLP.Chemscore.Internal.Correction>
0.0556

> <Gold.Rescore>
     Score         DG    S(hbond)    S(metal)    S(lipo)     H(rot)  DE(clash)    DE(int)     intcor
     11.28     -13.72       1.00        0.00      86.89       2.05       0.17       2.28       ----

> <Gold.Chemscore.Fitness>
11.2762

> <Gold.Chemscore.DG>
-13.7188

> <Gold.Chemscore.ZeroCoef>
-5.4800

> <Gold.Chemscore.Hbond>
0.9966

> <Gold.Chemscore.Metal>
0.0000

> <Gold.Chemscore.Lipo>
86.8864

> <Gold.Chemscore.Internal_Hbond>
0.0000

> <Gold.Chemscore.DEClash>
0.1675

> <Gold.Chemscore.DEInternal>
2.2752

> <Gold.Chemscore.Rot>
2.0529

> <Gold.Chemscore.Internal.Correction>
   9.000000E+99

> <Gold.Chemscore.Hbonds>
donor molecule, donor type, donor heavy atom, donor atom, acceptor molecule, acceptor atom, score
      L1  H     9    29       P1  8028  0.90

> <Gold.Chemscore.Hbond.Weighted>
-3.3285

> <Gold.Chemscore.Metal.Weighted>
-0.0000

> <Gold.Chemscore.Lipo.Weighted>
-10.1657

> <Gold.Chemscore.Internal_Hbond.Weighted>
0.0000

> <Gold.Chemscore.DEClash.Weighted>
0.1675

> <Gold.Chemscore.DEInternal.Weighted>
2.2752

> <Gold.Chemscore.Rot.Weighted>
5.2554

> <Gold.Chemscore.Internal.Correction.Weighted>
   9.000000E+99

> <Gold.Protein.RotatedTorsions>
[ 6907 6896 6895 6894 ] final   96.11 input  -60.11 | X-H torsion
[ 7974 7965 7964 7962 ] final -161.50 input  175.53 | X-H torsion
[ 8008 7997 7996 7995 ] final  157.15 input   59.86 | X-H torsion
[ 10167 10162 10161 10158 ] final  161.58 input  -65.29 | X-H torsion
[ 10718 10713 10712 10709 ] final  -27.64 input   66.30 | X-H torsion
[ 10763 10752 10751 10750 ] final   96.69 input  -60.55 | X-H torsion
[ 11005 11000 10999 10996 ] final   -6.35 input  -57.11 | X-H torsion

> <Gold.Protein.ActiveResidues>
 VAL166  LYS551  ARG553  GLY616  TRP617  ASP618  TYR619  PRO620  LYS621  CYS622 
 ASP623  PHE694  ASN695  SER759  ASP760  ASP761  ALA762  ILE779  LEU786  VAL792 
 PHE793  MET794  SER795  GLU796  ALA797  LYS798  CYS799  TRP800  GLU811  SER814 

> <Gold.Protein.RotatedAtoms>
  152.5438  134.0937  159.8287 H   0  0  0  0  0  0  0  0  0  0  0  0  # atno 6907 bound_to 6896
  151.1023  133.5227  159.2616 H   0  0  0  0  0  0  0  0  0  0  0  0  # atno 6908 bound_to 6896
  151.1977  135.0438  159.8913 H   0  0  0  0  0  0  0  0  0  0  0  0  # atno 6909 bound_to 6896
  144.7389  140.3388  143.6139 H   0  0  0  0  0  0  0  0  0  0  0  0  # atno 7974 bound_to 7965
  156.2381  140.1893  156.7064 H   0  0  0  0  0  0  0  0  0  0  0  0  # atno 8008 bound_to 7997
  154.6145  140.0617  156.9563 H   0  0  0  0  0  0  0  0  0  0  0  0  # atno 8009 bound_to 7997
  155.1963  140.3288  155.4353 H   0  0  0  0  0  0  0  0  0  0  0  0  # atno 8010 bound_to 7997
  139.4851  144.4522  151.8815 H   0  0  0  0  0  0  0  0  0  0  0  0  # atno 10167 bound_to 10162
  156.4355  130.4454  149.7088 H   0  0  0  0  0  0  0  0  0  0  0  0  # atno 10718 bound_to 10713
  153.2680  135.4209  155.0959 H   0  0  0  0  0  0  0  0  0  0  0  0  # atno 10763 bound_to 10752
  154.8445  135.3465  154.6285 H   0  0  0  0  0  0  0  0  0  0  0  0  # atno 10764 bound_to 10752
  153.6705  135.7044  153.5206 H   0  0  0  0  0  0  0  0  0  0  0  0  # atno 10765 bound_to 10752
  140.7011  133.8989  155.8684 H   0  0  0  0  0  0  0  0  0  0  0  0  # atno 11005 bound_to 11000
  145.7396  139.1760  143.2384 LP  0  0  0  0  0  0  0  0  0  0  0  0  # atno 17320 bound_to 7965
  146.1144  140.7388  142.9487 LP  0  0  0  0  0  0  0  0  0  0  0  0  # atno 17321 bound_to 7965
  140.3980  144.2530  150.5895 LP  0  0  0  0  0  0  0  0  0  0  0  0  # atno 17342 bound_to 10162
  140.5084  143.2297  151.8572 LP  0  0  0  0  0  0  0  0  0  0  0  0  # atno 17343 bound_to 10162
  156.3973  130.7657  151.2662 LP  0  0  0  0  0  0  0  0  0  0  0  0  # atno 17370 bound_to 10713
  157.7507  131.0250  150.3901 LP  0  0  0  0  0  0  0  0  0  0  0  0  # atno 17371 bound_to 10713
  141.0163  134.0951  157.4168 LP  0  0  0  0  0  0  0  0  0  0  0  0  # atno 17394 bound_to 11000
  139.8897  135.0106  156.6692 LP  0  0  0  0  0  0  0  0  0  0  0  0  # atno 17395 bound_to 11000

$$$$
