AV-unprocessed.smi:1469|AV-procd|sdf|5958|dock4
  -GOLD-   22720 6 43D 1   1.00000     0.00000
 Structure written by MMmdl.
 41 42  0  0  0  0  0  0  0  0  2 V2000
  148.7727  132.1017  154.6065 C   0  0  0  0  0  0  0  0  0  0  0  0
  148.9736  133.5091  153.9989 C   0  0  2  0  0  0  0  0  0  0  0  0
  149.2944  134.5567  155.0968 C   0  0  0  0  0  0  0  0  0  0  0  0
  150.0040  135.7247  154.5805 N   0  0  0  0  0  0  0  0  0  0  0  0
  151.0775  136.3004  155.1441 C   0  0  0  0  0  0  0  0  0  0  0  0
  151.6120  135.8715  156.1678 O   0  0  0  0  0  0  0  0  0  0  0  0
  151.6306  137.5350  154.4169 C   0  0  0  0  0  0  0  0  0  0  0  0
  150.8912  138.7753  154.7065 N   0  0  0  0  0  0  0  0  0  0  0  0
  149.5792  138.8718  154.2012 C   0  0  0  0  0  0  0  0  0  0  0  0
  148.8156  139.9559  154.4107 C   0  0  0  0  0  0  0  0  0  0  0  0
  149.3720  141.0449  155.1784 C   0  0  0  0  0  0  0  0  0  0  0  0
  150.6273  140.9647  155.6630 C   0  0  0  0  0  0  0  0  0  0  0  0
  151.4662  139.7824  155.4346 C   0  0  0  0  0  0  0  0  0  0  0  0
  152.6150  139.7016  155.8704 O   0  0  0  0  0  0  0  0  0  0  0  0
  147.7787  133.9300  153.2093 N   0  3  0  0  0  0  0  0  0  0  0  0
  147.3981  133.0174  152.1001 C   0  0  0  0  0  0  0  0  0  0  0  0
  145.8646  132.9689  152.0520 C   0  0  0  0  0  0  0  0  0  0  0  0
  145.4105  134.0924  152.9755 C   0  0  0  0  0  0  0  0  0  0  0  0
  146.5460  134.1825  153.9882 C   0  0  0  0  0  0  0  0  0  0  0  0
  149.6514  131.7725  155.1602 H   0  0  0  0  0  0  0  0  0  0  0  0
  148.6018  131.3426  153.8436 H   0  0  0  0  0  0  0  0  0  0  0  0
  147.9249  132.0852  155.2924 H   0  0  0  0  0  0  0  0  0  0  0  0
  149.8214  133.4569  153.3134 H   0  0  0  0  0  0  0  0  0  0  0  0
  148.3786  134.9377  155.5475 H   0  0  0  0  0  0  0  0  0  0  0  0
  149.8526  134.0892  155.9100 H   0  0  0  0  0  0  0  0  0  0  0  0
  149.6382  136.1414  153.7363 H   0  0  0  0  0  0  0  0  0  0  0  0
  152.6818  137.6469  154.6873 H   0  0  0  0  0  0  0  0  0  0  0  0
  151.6324  137.3437  153.3421 H   0  0  0  0  0  0  0  0  0  0  0  0
  149.2396  138.0175  153.6338 H   0  0  0  0  0  0  0  0  0  0  0  0
  147.8128  140.0132  154.0136 H   0  0  0  0  0  0  0  0  0  0  0  0
  148.7791  141.9286  155.3640 H   0  0  0  0  0  0  0  0  0  0  0  0
  151.0272  141.7898  156.2340 H   0  0  0  0  0  0  0  0  0  0  0  0
  147.8122  133.3981  151.1658 H   0  0  0  0  0  0  0  0  0  0  0  0
  147.7892  132.0101  152.2512 H   0  0  0  0  0  0  0  0  0  0  0  0
  145.4720  133.0772  151.0403 H   0  0  0  0  0  0  0  0  0  0  0  0
  145.5160  132.0115  152.4415 H   0  0  0  0  0  0  0  0  0  0  0  0
  145.3366  135.0260  152.4163 H   0  0  0  0  0  0  0  0  0  0  0  0
  144.4425  133.8979  153.4384 H   0  0  0  0  0  0  0  0  0  0  0  0
  146.4234  133.4083  154.7478 H   0  0  0  0  0  0  0  0  0  0  0  0
  146.5679  135.1522  154.4867 H   0  0  0  0  0  0  0  0  0  0  0  0
  148.0101  134.8123  152.7750 H   0  0  0  0  0  0  0  0  0  0  0  0
  1  2  1  0  0  0  0
  1 20  1  0  0  0  0
  1 21  1  0  0  0  0
  1 22  1  0  0  0  0
  2  3  1  0  0  0  0
  2 15  1  0  0  0  0
  2 23  1  0  0  0  0
  3  4  1  0  0  0  0
  3 24  1  0  0  0  0
  3 25  1  0  0  0  0
  4  5  1  0  0  0  0
  4 26  1  0  0  0  0
  5  6  2  0  0  0  0
  5  7  1  0  0  0  0
  7  8  1  0  0  0  0
  7 27  1  0  0  0  0
  7 28  1  0  0  0  0
  8 13  1  0  0  0  0
  8  9  1  0  0  0  0
  9 10  2  0  0  0  0
  9 29  1  0  0  0  0
 10 11  1  0  0  0  0
 10 30  1  0  0  0  0
 11 12  2  0  0  0  0
 11 31  1  0  0  0  0
 12 13  1  0  0  0  0
 12 32  1  0  0  0  0
 13 14  2  0  0  0  0
 15 19  1  0  0  0  0
 15 16  1  0  0  0  0
 15 41  1  0  0  0  0
 16 17  1  0  0  0  0
 16 33  1  0  0  0  0
 16 34  1  0  0  0  0
 17 18  1  0  0  0  0
 17 35  1  0  0  0  0
 17 36  1  0  0  0  0
 18 19  1  0  0  0  0
 18 37  1  0  0  0  0
 18 38  1  0  0  0  0
 19 39  1  0  0  0  0
 19 40  1  0  0  0  0
M  CHG  1  15   1
M  END
> <s_m_source_file>
AV-unprocessed.smi

> <i_m_source_file_index>
1469

> <i_lp_mmshare_version>
43012

> <i_f3d_flags>
0

> <s_epik_input>
W0NIMl0xW0NIMl1bQ0gyXVtDSDJdTjFbQ0BIXShbQ0gzXSlbQ0gyXVtOSF1DKD1PKVtDSDJdbjJbY0hdW2NIXVtjSF1bY0hdYzI9Tw==

> <s_epik_cmdline>
J2VwaWtfcHl0aG9uJywgJy1waCcsICc3LjAnLCAnLXRuJywgJzgnLCAnLW1hJywgJzIwMCcsICctbWV0YWxfYmluZGluZycsICctaW1hZScsICc8aW5maWxlLm1hZT4nLCAnLW9tYWUnLCAnPG91dGZpbGUubWFlPic=

> <r_lp_tautomer_probability>
1

> <r_epik_Ionization_Penalty>
0.00497231

> <r_epik_Ionization_Penalty_Charging>
0.00497223

> <r_epik_Ionization_Penalty_Neutral>
8.2288e-08

> <r_epik_State_Penalty>
0.0036131

> <r_epik_Charging_Adjusted_Penalty>
0.00858533

> <i_epik_Tot_Q>
1

> <i_epik_Tot_abs_Q>
1

> <r_epik_Metal_State_Penalty>
-0

> <b_epik_Metal_Only>
0

> <s_lp_Force_Field>
OPLS_2005

> <r_lp_Energy>
39.8185

> <b_lp_Chiralities_Consistent>
1

> <s_lp_Variant>
AV-unprocessed.smi:1469-1

> <Gold.Version>
5.8.1

> <Gold.Id.Protein>
6NUR|6NUR_protein|mol2

> <Gold.PLP.Fitness>
49.7637

> <Gold.PLP.PLP>
-36.0885

> <Gold.PLP.part.hbond>
-4.4673

> <Gold.PLP.part.metal>
0.0000

> <Gold.PLP.part.buried>
0.5386

> <Gold.PLP.part.nonpolar>
-32.3895

> <Gold.PLP.part.repulsive>
0.0754

> <Gold.PLP.ligand.clash>
0.0000

> <Gold.PLP.ligand.torsion>
0.6797

> <Gold.PLP.Chemscore.Hbond>
4.0000

> <Gold.PLP.Chemscore.CHOScore>
1.0000

> <Gold.PLP.Chemscore.Metal>
0.0000

> <Gold.Chemscore.Hbonds>
donor molecule, donor type, donor heavy atom, donor atom, acceptor molecule, acceptor atom, score
      L1  H     4    26       P1  7948  1.00
      L1  H    15    41       P1  7948  2.00
      P1  H  7997  8009       L1    14  1.00
      L1  C     9    29       P1  7948  1.00

> <Gold.PLP.Chemscore.Internal.Correction>
0.0346

> <Gold.Rescore>
     Score         DG    S(hbond)    S(metal)    S(lipo)     H(rot)  DE(clash)    DE(int)     intcor
     15.59     -16.60       2.40        0.00      67.82       1.89       0.10       0.91       ----

> <Gold.Chemscore.Fitness>
15.5907

> <Gold.Chemscore.DG>
-16.6014

> <Gold.Chemscore.ZeroCoef>
-5.4800

> <Gold.Chemscore.Hbond>
2.4014

> <Gold.Chemscore.Metal>
0.0000

> <Gold.Chemscore.Lipo>
67.8174

> <Gold.Chemscore.Internal_Hbond>
0.0000

> <Gold.Chemscore.DEClash>
0.0985

> <Gold.Chemscore.DEInternal>
0.9122

> <Gold.Chemscore.Rot>
1.8882

> <Gold.Chemscore.Internal.Correction>
   9.000000E+99

> <Gold.Chemscore.Hbonds>
donor molecule, donor type, donor heavy atom, donor atom, acceptor molecule, acceptor atom, score
      L1  H     4    26       P1  7948  0.44
      L1  H    15    41       P1  7948  0.82
      P1  H  7997  8009       L1    14  1.00

> <Gold.Chemscore.Hbond.Weighted>
-8.0206

> <Gold.Chemscore.Metal.Weighted>
-0.0000

> <Gold.Chemscore.Lipo.Weighted>
-7.9346

> <Gold.Chemscore.Internal_Hbond.Weighted>
0.0000

> <Gold.Chemscore.DEClash.Weighted>
0.0985

> <Gold.Chemscore.DEInternal.Weighted>
0.9122

> <Gold.Chemscore.Rot.Weighted>
4.8338

> <Gold.Chemscore.Internal.Correction.Weighted>
   9.000000E+99

> <Gold.Protein.RotatedTorsions>
[ 6907 6896 6895 6894 ] final  -12.70 input  -60.11 | X-H torsion
[ 7974 7965 7964 7962 ] final  103.70 input  175.53 | X-H torsion
[ 8008 7997 7996 7995 ] final -160.13 input   59.86 | X-H torsion
[ 10167 10162 10161 10158 ] final   66.79 input  -65.29 | X-H torsion
[ 10718 10713 10712 10709 ] final -171.22 input   66.30 | X-H torsion
[ 10763 10752 10751 10750 ] final   59.50 input  -60.55 | X-H torsion
[ 11005 11000 10999 10996 ] final   88.18 input  -57.11 | X-H torsion

> <Gold.Protein.ActiveResidues>
 VAL166  LYS551  ARG553  GLY616  TRP617  ASP618  TYR619  PRO620  LYS621  CYS622 
 ASP623  PHE694  ASN695  SER759  ASP760  ASP761  ALA762  ILE779  LEU786  VAL792 
 PHE793  MET794  SER795  GLU796  ALA797  LYS798  CYS799  TRP800  GLU811  SER814 

> <Gold.Protein.RotatedAtoms>
  151.3664  135.0914  159.9451 H   0  0  0  0  0  0  0  0  0  0  0  0  # atno 6907 bound_to 6896
  152.5147  133.9207  159.7543 H   0  0  0  0  0  0  0  0  0  0  0  0  # atno 6908 bound_to 6896
  150.9612  133.6388  159.2783 H   0  0  0  0  0  0  0  0  0  0  0  0  # atno 6909 bound_to 6896
  145.3424  139.2459  143.3602 H   0  0  0  0  0  0  0  0  0  0  0  0  # atno 7974 bound_to 7965
  155.7728  140.0854  157.2099 H   0  0  0  0  0  0  0  0  0  0  0  0  # atno 8008 bound_to 7997
  154.3995  140.1522  156.3019 H   0  0  0  0  0  0  0  0  0  0  0  0  # atno 8009 bound_to 7997
  155.8730  140.3424  155.5837 H   0  0  0  0  0  0  0  0  0  0  0  0  # atno 8010 bound_to 7997
  140.0966  144.4941  150.7064 H   0  0  0  0  0  0  0  0  0  0  0  0  # atno 10167 bound_to 10162
  156.7377  130.9330  151.3108 H   0  0  0  0  0  0  0  0  0  0  0  0  # atno 10718 bound_to 10713
  152.9896  135.5569  154.5724 H   0  0  0  0  0  0  0  0  0  0  0  0  # atno 10763 bound_to 10752
  154.5121  135.2803  155.1335 H   0  0  0  0  0  0  0  0  0  0  0  0  # atno 10764 bound_to 10752
  154.2723  135.6360  153.5368 H   0  0  0  0  0  0  0  0  0  0  0  0  # atno 10765 bound_to 10752
  139.8902  134.8471  156.2965 H   0  0  0  0  0  0  0  0  0  0  0  0  # atno 11005 bound_to 11000
  146.3002  140.4024  142.8707 LP  0  0  0  0  0  0  0  0  0  0  0  0  # atno 17320 bound_to 7965
  144.8780  140.7362  143.6005 LP  0  0  0  0  0  0  0  0  0  0  0  0  # atno 17321 bound_to 7965
  140.7000  143.2428  151.4891 LP  0  0  0  0  0  0  0  0  0  0  0  0  # atno 17342 bound_to 10162
  139.5694  144.1963  152.1814 LP  0  0  0  0  0  0  0  0  0  0  0  0  # atno 17343 bound_to 10162
  157.6832  130.9160  150.0319 LP  0  0  0  0  0  0  0  0  0  0  0  0  # atno 17370 bound_to 10713
  156.1486  130.3642  149.9473 LP  0  0  0  0  0  0  0  0  0  0  0  0  # atno 17371 bound_to 10713
  140.9942  133.7190  156.0860 LP  0  0  0  0  0  0  0  0  0  0  0  0  # atno 17394 bound_to 11000
  140.7585  134.3966  157.5530 LP  0  0  0  0  0  0  0  0  0  0  0  0  # atno 17395 bound_to 11000

$$$$
