AV-unprocessed.smi:1824|AV-procd|sdf|7409|dock10
  -GOLD-   22720 9 83D 1   1.00000     0.00000
 Structure written by MMmdl.
 45 47  0  0  0  0  0  0  0  0  2 V2000
  146.6048  139.1701  154.3540 C   0  0  0  0  0  0  0  0  0  0  0  0
  147.5129  139.9818  153.4145 C   0  0  2  0  0  0  0  0  0  0  0  0
  148.8932  140.3002  154.0225 C   0  0  0  0  0  0  0  0  0  0  0  0
  148.8337  141.3252  155.0596 N   0  0  0  0  0  0  0  0  0  0  0  0
  150.1665  141.5896  155.6045 C   0  0  0  0  0  0  0  0  0  0  0  0
  150.1974  142.1736  157.0310 C   0  0  1  0  0  0  0  0  0  0  0  0
  150.1301  141.1020  157.9511 O   0  0  0  0  0  0  0  0  0  0  0  0
  151.4834  142.9857  157.2791 C   0  0  0  0  0  0  0  0  0  0  0  0
  151.3739  143.8937  158.4304 N   0  0  0  0  0  0  0  0  0  0  0  0
  150.7948  145.1221  158.5139 C   0  0  0  0  0  0  0  0  0  0  0  0
  150.9522  145.5654  159.7919 N   0  3  0  0  0  0  0  0  0  0  0  0
  151.6404  144.6054  160.5372 C   0  0  0  0  0  0  0  0  0  0  0  0
  152.0336  144.5979  161.8717 C   0  0  0  0  0  0  0  0  0  0  0  0
  152.7218  143.4532  162.3248 C   0  0  0  0  0  0  0  0  0  0  0  0
  153.1263  143.3932  163.6156 F   0  0  0  0  0  0  0  0  0  0  0  0
  152.9952  142.3716  161.4611 C   0  0  0  0  0  0  0  0  0  0  0  0
  153.6569  141.2904  161.9374 F   0  0  0  0  0  0  0  0  0  0  0  0
  152.5931  142.3919  160.1093 C   0  0  0  0  0  0  0  0  0  0  0  0
  151.9139  143.5274  159.6693 C   0  0  0  0  0  0  0  0  0  0  0  0
  148.2008  142.5192  154.5054 C   0  0  0  0  0  0  0  0  0  0  0  0
  146.7970  142.2211  153.9472 C   0  0  1  0  0  0  0  0  0  0  0  0
  146.1694  143.4501  153.2808 C   0  0  0  0  0  0  0  0  0  0  0  0
  146.8812  141.1839  152.9718 O   0  0  0  0  0  0  0  0  0  0  0  0
  147.0586  138.2086  154.5953 H   0  0  0  0  0  0  0  0  0  0  0  0
  145.6401  138.9716  153.8868 H   0  0  0  0  0  0  0  0  0  0  0  0
  146.4204  139.6872  155.2953 H   0  0  0  0  0  0  0  0  0  0  0  0
  147.6722  139.3738  152.5236 H   0  0  0  0  0  0  0  0  0  0  0  0
  149.3318  139.3862  154.4247 H   0  0  0  0  0  0  0  0  0  0  0  0
  149.5590  140.6330  153.2244 H   0  0  0  0  0  0  0  0  0  0  0  0
  150.7434  140.6633  155.6102 H   0  0  0  0  0  0  0  0  0  0  0  0
  150.6984  142.2616  154.9293 H   0  0  0  0  0  0  0  0  0  0  0  0
  149.3434  142.8276  157.2021 H   0  0  0  0  0  0  0  0  0  0  0  0
  150.8841  140.5477  157.8153 H   0  0  0  0  0  0  0  0  0  0  0  0
  152.3466  142.3334  157.4144 H   0  0  0  0  0  0  0  0  0  0  0  0
  151.7032  143.6031  156.4073 H   0  0  0  0  0  0  0  0  0  0  0  0
  150.3000  145.6502  157.7111 H   0  0  0  0  0  0  0  0  0  0  0  0
  151.8252  145.4229  162.5369 H   0  0  0  0  0  0  0  0  0  0  0  0
  152.8024  141.5550  159.4601 H   0  0  0  0  0  0  0  0  0  0  0  0
  148.1083  143.2908  155.2681 H   0  0  0  0  0  0  0  0  0  0  0  0
  148.8274  142.9352  153.7148 H   0  0  0  0  0  0  0  0  0  0  0  0
  146.1434  141.9016  154.7595 H   0  0  0  0  0  0  0  0  0  0  0  0
  146.0709  144.2736  153.9885 H   0  0  0  0  0  0  0  0  0  0  0  0
  145.1744  143.2204  152.8989 H   0  0  0  0  0  0  0  0  0  0  0  0
  146.7755  143.7980  152.4437 H   0  0  0  0  0  0  0  0  0  0  0  0
  150.6126  146.4578  160.1278 H   0  0  0  0  0  0  0  0  0  0  0  0
  1  2  1  0  0  0  0
  1 24  1  0  0  0  0
  1 25  1  0  0  0  0
  1 26  1  0  0  0  0
  2 23  1  0  0  0  0
  2  3  1  0  0  0  0
  2 27  1  0  0  0  0
  3  4  1  0  0  0  0
  3 28  1  0  0  0  0
  3 29  1  0  0  0  0
  4  5  1  0  0  0  0
  4 20  1  0  0  0  0
  5  6  1  0  0  0  0
  5 30  1  0  0  0  0
  5 31  1  0  0  0  0
  6  7  1  0  0  0  0
  6  8  1  0  0  0  0
  6 32  1  0  0  0  0
  7 33  1  0  0  0  0
  8  9  1  0  0  0  0
  8 34  1  0  0  0  0
  8 35  1  0  0  0  0
  9 19  1  0  0  0  0
  9 10  1  0  0  0  0
 10 11  2  0  0  0  0
 10 36  1  0  0  0  0
 11 12  1  0  0  0  0
 11 45  1  0  0  0  0
 12 19  2  0  0  0  0
 12 13  1  0  0  0  0
 13 14  2  0  0  0  0
 13 37  1  0  0  0  0
 14 15  1  0  0  0  0
 14 16  1  0  0  0  0
 16 17  1  0  0  0  0
 16 18  2  0  0  0  0
 18 19  1  0  0  0  0
 18 38  1  0  0  0  0
 20 21  1  0  0  0  0
 20 39  1  0  0  0  0
 20 40  1  0  0  0  0
 21 22  1  0  0  0  0
 21 23  1  0  0  0  0
 21 41  1  0  0  0  0
 22 42  1  0  0  0  0
 22 43  1  0  0  0  0
 22 44  1  0  0  0  0
M  CHG  1  11   1
M  END
> <s_m_source_file>
AV-unprocessed.smi

> <i_m_source_file_index>
1824

> <i_lp_mmshare_version>
43012

> <i_f3d_flags>
0

> <s_epik_input>
W0NIM11bQ0BASF0xW0NIMl1OKFtDSDJdW0NASF0oTzEpW0NIM10pW0NIMl1bQ0BIXShbT0hdKVtDSDJdbihbY0hdbjIpYyhjMjMpW2NIXWMoRiljKEYpW2NIXTM=

> <s_epik_cmdline>
J2VwaWtfcHl0aG9uJywgJy1waCcsICc3LjAnLCAnLXRuJywgJzgnLCAnLW1hJywgJzIwMCcsICctbWV0YWxfYmluZGluZycsICctaW1hZScsICc8aW5maWxlLm1hZT4nLCAnLW9tYWUnLCAnPG91dGZpbGUubWFlPic=

> <r_epik_Ionization_Penalty>
2.58709

> <r_epik_Ionization_Penalty_Charging>
2.37273

> <r_epik_Ionization_Penalty_Neutral>
0.214359

> <r_epik_State_Penalty>
2.71799

> <r_epik_Charging_Adjusted_Penalty>
5.09071

> <i_epik_Tot_Q>
1

> <i_epik_Tot_abs_Q>
1

> <r_epik_Metal_State_Penalty>
6.80217

> <b_epik_Metal_Only>
0

> <s_lp_Force_Field>
OPLS_2005

> <r_lp_Energy>
35.2621

> <b_lp_Chiralities_Consistent>
1

> <s_lp_Variant>
AV-unprocessed.smi:1824-17

> <Gold.Version>
5.8.1

> <Gold.Id.Protein>
6NUR|6NUR_protein|mol2

> <Gold.PLP.Fitness>
54.4294

> <Gold.PLP.PLP>
-53.6751

> <Gold.PLP.part.hbond>
0.0000

> <Gold.PLP.part.metal>
0.0000

> <Gold.PLP.part.buried>
-2.0551

> <Gold.PLP.part.nonpolar>
-50.5440

> <Gold.PLP.part.repulsive>
0.4939

> <Gold.PLP.ligand.clash>
0.0000

> <Gold.PLP.ligand.torsion>
0.9745

> <Gold.PLP.Chemscore.Hbond>
0.0000

> <Gold.PLP.Chemscore.CHOScore>
0.8943

> <Gold.PLP.Chemscore.Metal>
0.0000

> <Gold.Chemscore.Hbonds>
donor molecule, donor type, donor heavy atom, donor atom, acceptor molecule, acceptor atom, score
      L1  C    10    36       P1  8028  0.13
      L1  C    10    36       P1  8029  0.52

> <Gold.PLP.Chemscore.Internal.Correction>
0.0206

> <Gold.Rescore>
     Score         DG    S(hbond)    S(metal)    S(lipo)     H(rot)  DE(clash)    DE(int)     intcor
     11.45     -14.06       0.00        0.00     124.12       2.32       1.65       0.96       ----

> <Gold.Chemscore.Fitness>
11.4492

> <Gold.Chemscore.DG>
-14.0600

> <Gold.Chemscore.ZeroCoef>
-5.4800

> <Gold.Chemscore.Hbond>
0.0000

> <Gold.Chemscore.Metal>
0.0000

> <Gold.Chemscore.Lipo>
124.1164

> <Gold.Chemscore.Internal_Hbond>
0.0000

> <Gold.Chemscore.DEClash>
1.6502

> <Gold.Chemscore.DEInternal>
0.9606

> <Gold.Chemscore.Rot>
2.3210

> <Gold.Chemscore.Internal.Correction>
   9.000000E+99

> <Gold.Chemscore.Hbond.Weighted>
-0.0000

> <Gold.Chemscore.Metal.Weighted>
-0.0000

> <Gold.Chemscore.Lipo.Weighted>
-14.5216

> <Gold.Chemscore.Internal_Hbond.Weighted>
0.0000

> <Gold.Chemscore.DEClash.Weighted>
1.6502

> <Gold.Chemscore.DEInternal.Weighted>
0.9606

> <Gold.Chemscore.Rot.Weighted>
5.9416

> <Gold.Chemscore.Internal.Correction.Weighted>
   9.000000E+99

> <Gold.Protein.RotatedTorsions>
[ 6907 6896 6895 6894 ] final   49.42 input  -60.11 | X-H torsion
[ 7974 7965 7964 7962 ] final    0.01 input  175.53 | X-H torsion
[ 8008 7997 7996 7995 ] final   65.44 input   59.86 | X-H torsion
[ 10167 10162 10161 10158 ] final  -16.76 input  -65.29 | X-H torsion
[ 10718 10713 10712 10709 ] final  111.91 input   66.30 | X-H torsion
[ 10763 10752 10751 10750 ] final  148.07 input  -60.55 | X-H torsion
[ 11005 11000 10999 10996 ] final   33.35 input  -57.11 | X-H torsion

> <Gold.Protein.ActiveResidues>
 VAL166  LYS551  ARG553  GLY616  TRP617  ASP618  TYR619  PRO620  LYS621  CYS622 
 ASP623  PHE694  ASN695  SER759  ASP760  ASP761  ALA762  ILE779  LEU786  VAL792 
 PHE793  MET794  SER795  GLU796  ALA797  LYS798  CYS799  TRP800  GLU811  SER814 

> <Gold.Protein.RotatedAtoms>
  152.2906  134.7726  160.0378 H   0  0  0  0  0  0  0  0  0  0  0  0  # atno 6907 bound_to 6896
  151.8273  133.3398  159.3611 H   0  0  0  0  0  0  0  0  0  0  0  0  # atno 6908 bound_to 6896
  150.7228  134.5445  159.5808 H   0  0  0  0  0  0  0  0  0  0  0  0  # atno 6909 bound_to 6896
  146.2431  140.1203  142.8341 H   0  0  0  0  0  0  0  0  0  0  0  0  # atno 7974 bound_to 7965
  155.6617  140.3497  155.4785 H   0  0  0  0  0  0  0  0  0  0  0  0  # atno 8008 bound_to 7997
  155.9762  140.1165  157.0790 H   0  0  0  0  0  0  0  0  0  0  0  0  # atno 8009 bound_to 7997
  154.4179  140.1147  156.5360 H   0  0  0  0  0  0  0  0  0  0  0  0  # atno 8010 bound_to 7997
  140.7238  143.5084  150.9781 H   0  0  0  0  0  0  0  0  0  0  0  0  # atno 10167 bound_to 10162
  157.6420  131.0959  150.6817 H   0  0  0  0  0  0  0  0  0  0  0  0  # atno 10718 bound_to 10713
  154.0488  135.2883  155.3344 H   0  0  0  0  0  0  0  0  0  0  0  0  # atno 10763 bound_to 10752
  154.6883  135.5236  153.8359 H   0  0  0  0  0  0  0  0  0  0  0  0  # atno 10764 bound_to 10752
  153.0569  135.6599  154.0686 H   0  0  0  0  0  0  0  0  0  0  0  0  # atno 10765 bound_to 10752
  140.2641  134.3158  155.7848 H   0  0  0  0  0  0  0  0  0  0  0  0  # atno 11005 bound_to 11000
  145.0412  140.8947  143.5051 LP  0  0  0  0  0  0  0  0  0  0  0  0  # atno 17320 bound_to 7965
  145.1284  139.2648  143.5552 LP  0  0  0  0  0  0  0  0  0  0  0  0  # atno 17321 bound_to 7965
  139.8796  143.7088  152.3158 LP  0  0  0  0  0  0  0  0  0  0  0  0  # atno 17342 bound_to 10162
  139.7366  144.7570  151.0718 LP  0  0  0  0  0  0  0  0  0  0  0  0  # atno 17343 bound_to 10162
  156.7140  130.4660  149.5540 LP  0  0  0  0  0  0  0  0  0  0  0  0  # atno 17370 bound_to 10713
  156.1711  130.6437  151.0838 LP  0  0  0  0  0  0  0  0  0  0  0  0  # atno 17371 bound_to 10713
  141.2186  133.7427  156.9232 LP  0  0  0  0  0  0  0  0  0  0  0  0  # atno 17394 bound_to 11000
  140.1436  134.9277  157.2500 LP  0  0  0  0  0  0  0  0  0  0  0  0  # atno 17395 bound_to 11000

$$$$
