AV-unprocessed.smi:376|AV-procd|sdf|2455|dock9
  -GOLD-   2262022393D 1   1.00000     0.00000
 Structure written by MMmdl.
 32 33  0  0  0  0  0  0  0  0  1 V2000
  146.5083  143.4104  154.1779 C   0  0  0  0  0  0  0  0  0  0  0  0
  146.8709  142.2648  153.9611 C   0  0  0  0  0  0  0  0  0  0  0  0
  147.3023  140.8839  153.6847 C   0  0  0  0  0  0  0  0  0  0  0  0
  148.6933  140.6436  154.0520 N   0  0  0  0  0  0  0  0  0  0  0  0
  149.1895  140.6989  155.2980 C   0  0  0  0  0  0  0  0  0  0  0  0
  148.5027  140.9643  156.2859 O   0  0  0  0  0  0  0  0  0  0  0  0
  150.6915  140.4028  155.4314 C   0  0  0  0  0  0  0  0  0  0  0  0
  151.1972  140.5122  156.8175 N   0  0  0  0  0  0  0  0  0  0  0  0
  151.5435  139.3242  157.5110 C   0  0  0  0  0  0  0  0  0  0  0  0
  151.4518  138.2220  156.9678 O   0  0  0  0  0  0  0  0  0  0  0  0
  151.9907  139.5085  158.8897 C   0  0  0  0  0  0  0  0  0  0  0  0
  152.3167  138.3356  159.6311 C   0  0  0  0  0  0  0  0  0  0  0  0
  152.5697  137.3690  160.2150 N   0  0  0  0  0  0  0  0  0  0  0  0
  152.0823  140.7403  159.4320 C   0  0  0  0  0  0  0  0  0  0  0  0
  151.7782  141.8848  158.7276 N   0  0  0  0  0  0  0  0  0  0  0  0
  151.7325  143.1682  159.3695 C   0  0  0  0  0  0  0  0  0  0  0  0
  152.5320  144.3314  158.8150 C   0  0  0  0  0  0  0  0  0  0  0  0
  152.9600  143.6666  160.1005 C   0  0  0  0  0  0  0  0  0  0  0  0
  151.2738  141.7952  157.4119 C   0  0  0  0  0  0  0  0  0  0  0  0
  150.9006  142.8001  156.8013 O   0  0  0  0  0  0  0  0  0  0  0  0
  146.1879  144.4102  154.3676 H   0  0  0  0  0  0  0  0  0  0  0  0
  146.6655  140.2131  154.2613 H   0  0  0  0  0  0  0  0  0  0  0  0
  147.1260  140.6656  152.6303 H   0  0  0  0  0  0  0  0  0  0  0  0
  149.3282  140.4166  153.3001 H   0  0  0  0  0  0  0  0  0  0  0  0
  150.8848  139.4100  155.0221 H   0  0  0  0  0  0  0  0  0  0  0  0
  151.2373  141.0728  154.7650 H   0  0  0  0  0  0  0  0  0  0  0  0
  152.4112  140.8365  160.4568 H   0  0  0  0  0  0  0  0  0  0  0  0
  150.7762  143.4257  159.8214 H   0  0  0  0  0  0  0  0  0  0  0  0
  153.1520  144.1595  157.9372 H   0  0  0  0  0  0  0  0  0  0  0  0
  152.0877  145.3222  158.8841 H   0  0  0  0  0  0  0  0  0  0  0  0
  152.8037  144.2161  161.0265 H   0  0  0  0  0  0  0  0  0  0  0  0
  153.8598  143.0553  160.0682 H   0  0  0  0  0  0  0  0  0  0  0  0
  1  2  3  0  0  0  0
  1 21  1  0  0  0  0
  2  3  1  0  0  0  0
  3  4  1  0  0  0  0
  3 22  1  0  0  0  0
  3 23  1  0  0  0  0
  4  5  1  0  0  0  0
  4 24  1  0  0  0  0
  5  6  2  0  0  0  0
  5  7  1  0  0  0  0
  7  8  1  0  0  0  0
  7 25  1  0  0  0  0
  7 26  1  0  0  0  0
  8 19  1  0  0  0  0
  8  9  1  0  0  0  0
  9 10  2  0  0  0  0
  9 11  1  0  0  0  0
 11 12  1  0  0  0  0
 11 14  2  0  0  0  0
 12 13  3  0  0  0  0
 14 15  1  0  0  0  0
 14 27  1  0  0  0  0
 15 16  1  0  0  0  0
 15 19  1  0  0  0  0
 16 18  1  0  0  0  0
 16 17  1  0  0  0  0
 16 28  1  0  0  0  0
 17 18  1  0  0  0  0
 17 29  1  0  0  0  0
 17 30  1  0  0  0  0
 18 31  1  0  0  0  0
 18 32  1  0  0  0  0
 19 20  2  0  0  0  0
M  END
> <s_m_source_file>
AV-unprocessed.smi

> <i_m_source_file_index>
376

> <i_lp_mmshare_version>
43012

> <i_f3d_flags>
0

> <s_epik_input>
W0NIXSNDW0NIMl1bTkhdQyg9TylbQ0gyXW4xYyg9TyljKEMjTilbY0hdbihjMT1PKVtDSF0yW0NIMl1bQ0gyXTI=

> <s_epik_cmdline>
J2VwaWtfcHl0aG9uJywgJy1waCcsICc3LjAnLCAnLXRuJywgJzgnLCAnLW1hJywgJzIwMCcsICctbWV0YWxfYmluZGluZycsICctaW1hZScsICc8aW5maWxlLm1hZT4nLCAnLW9tYWUnLCAnPG91dGZpbGUubWFlPic=

> <r_lp_tautomer_probability>
1

> <r_epik_Ionization_Penalty>
1.51832e-07

> <r_epik_Ionization_Penalty_Charging>
6.72035e-11

> <r_epik_Ionization_Penalty_Neutral>
1.51764e-07

> <r_epik_State_Penalty>
-0

> <r_epik_Charging_Adjusted_Penalty>
6.72035e-11

> <i_epik_Tot_Q>
0

> <i_epik_Tot_abs_Q>
0

> <r_epik_Metal_State_Penalty>
-0

> <b_epik_Metal_Only>
0

> <s_lp_Force_Field>
OPLS_2005

> <r_lp_Energy>
28.1194

> <b_lp_Chiralities_Consistent>
1

> <s_lp_Variant>
AV-unprocessed.smi:376-1

> <Gold.Version>
5.8.1

> <Gold.Id.Protein>
6NUR|6NUR_protein|mol2

> <Gold.PLP.Fitness>
44.7900

> <Gold.PLP.PLP>
-39.0815

> <Gold.PLP.part.hbond>
-2.0000

> <Gold.PLP.part.metal>
0.0000

> <Gold.PLP.part.buried>
-4.8618

> <Gold.PLP.part.nonpolar>
-32.8412

> <Gold.PLP.part.repulsive>
0.2855

> <Gold.PLP.ligand.clash>
0.0000

> <Gold.PLP.ligand.torsion>
0.2386

> <Gold.PLP.Chemscore.Hbond>
1.9920

> <Gold.PLP.Chemscore.CHOScore>
0.0000

> <Gold.PLP.Chemscore.Metal>
0.0000

> <Gold.Chemscore.Hbonds>
donor molecule, donor type, donor heavy atom, donor atom, acceptor molecule, acceptor atom, score
      L1  H     4    24       P1  7957  0.58
      P1  H  6896  6909       L1    13  0.18

> <Gold.PLP.Chemscore.Internal.Correction>
0.2096

> <Gold.Rescore>
     Score         DG    S(hbond)    S(metal)    S(lipo)     H(rot)  DE(clash)    DE(int)     intcor
     15.51     -15.92       1.96        0.00      75.29       1.92       0.05       0.36       ----

> <Gold.Chemscore.Fitness>
15.5099

> <Gold.Chemscore.DG>
-15.9232

> <Gold.Chemscore.ZeroCoef>
-5.4800

> <Gold.Chemscore.Hbond>
1.9612

> <Gold.Chemscore.Metal>
0.0000

> <Gold.Chemscore.Lipo>
75.2861

> <Gold.Chemscore.Internal_Hbond>
0.0000

> <Gold.Chemscore.DEClash>
0.0485

> <Gold.Chemscore.DEInternal>
0.3648

> <Gold.Chemscore.Rot>
1.9202

> <Gold.Chemscore.Internal.Correction>
   9.000000E+99

> <Gold.Chemscore.Hbonds>
donor molecule, donor type, donor heavy atom, donor atom, acceptor molecule, acceptor atom, score
      L1  H     4    24       P1  7957  0.56
      P1  H  6896  6909       L1    13  0.19

> <Gold.Chemscore.Hbond.Weighted>
-6.5504

> <Gold.Chemscore.Metal.Weighted>
-0.0000

> <Gold.Chemscore.Lipo.Weighted>
-8.8085

> <Gold.Chemscore.Internal_Hbond.Weighted>
0.0000

> <Gold.Chemscore.DEClash.Weighted>
0.0485

> <Gold.Chemscore.DEInternal.Weighted>
0.3648

> <Gold.Chemscore.Rot.Weighted>
4.9158

> <Gold.Chemscore.Internal.Correction.Weighted>
   9.000000E+99

> <Gold.Protein.RotatedTorsions>
[ 6907 6896 6895 6894 ] final  137.49 input  -60.11 | X-H torsion
[ 7974 7965 7964 7962 ] final  119.44 input  175.53 | X-H torsion
[ 8008 7997 7996 7995 ] final   23.27 input   59.86 | X-H torsion
[ 10167 10162 10161 10158 ] final  -82.79 input  -65.29 | X-H torsion
[ 10718 10713 10712 10709 ] final  -97.60 input   66.30 | X-H torsion
[ 10763 10752 10751 10750 ] final  -49.99 input  -60.55 | X-H torsion
[ 11005 11000 10999 10996 ] final   96.67 input  -57.11 | X-H torsion

> <Gold.Protein.ActiveResidues>
 VAL166  LYS551  ARG553  GLY616  TRP617  ASP618  TYR619  PRO620  LYS621  CYS622 
 ASP623  PHE694  ASN695  SER759  ASP760  ASP761  ALA762  ILE779  LEU786  VAL792 
 PHE793  MET794  SER795  GLU796  ALA797  LYS798  CYS799  TRP800  GLU811  SER814 

> <Gold.Protein.RotatedAtoms>
  152.2774  133.5438  159.5476 H   0  0  0  0  0  0  0  0  0  0  0  0  # atno 6907 bound_to 6896
  150.7182  134.0612  159.3841 H   0  0  0  0  0  0  0  0  0  0  0  0  # atno 6908 bound_to 6896
  151.8524  135.0553  160.0511 H   0  0  0  0  0  0  0  0  0  0  0  0  # atno 6909 bound_to 6896
  145.1431  139.3256  143.4606 H   0  0  0  0  0  0  0  0  0  0  0  0  # atno 7974 bound_to 7965
  154.9783  140.3099  155.4957 H   0  0  0  0  0  0  0  0  0  0  0  0  # atno 8008 bound_to 7997
  156.2957  140.2271  156.4820 H   0  0  0  0  0  0  0  0  0  0  0  0  # atno 8009 bound_to 7997
  154.7813  140.0446  157.1117 H   0  0  0  0  0  0  0  0  0  0  0  0  # atno 8010 bound_to 7997
  140.4287  143.2556  151.8789 H   0  0  0  0  0  0  0  0  0  0  0  0  # atno 10167 bound_to 10162
  156.0087  130.5201  150.6399 H   0  0  0  0  0  0  0  0  0  0  0  0  # atno 10718 bound_to 10713
  154.1031  135.6560  153.4871 H   0  0  0  0  0  0  0  0  0  0  0  0  # atno 10763 bound_to 10752
  153.0282  135.5229  154.7267 H   0  0  0  0  0  0  0  0  0  0  0  0  # atno 10764 bound_to 10752
  154.6425  135.2990  155.0056 H   0  0  0  0  0  0  0  0  0  0  0  0  # atno 10765 bound_to 10752
  139.8780  134.8962  156.4193 H   0  0  0  0  0  0  0  0  0  0  0  0  # atno 11005 bound_to 11000
  146.3503  140.1475  142.8593 LP  0  0  0  0  0  0  0  0  0  0  0  0  # atno 17320 bound_to 7965
  145.0511  140.9018  143.4995 LP  0  0  0  0  0  0  0  0  0  0  0  0  # atno 17321 bound_to 7965
  139.4784  144.5358  151.8600 LP  0  0  0  0  0  0  0  0  0  0  0  0  # atno 17342 bound_to 10162
  140.4452  144.1932  150.5893 LP  0  0  0  0  0  0  0  0  0  0  0  0  # atno 17343 bound_to 10162
  157.4181  131.0833  151.1157 LP  0  0  0  0  0  0  0  0  0  0  0  0  # atno 17370 bound_to 10713
  157.1768  130.6291  149.5658 LP  0  0  0  0  0  0  0  0  0  0  0  0  # atno 17371 bound_to 10713
  140.9145  133.7688  155.9831 LP  0  0  0  0  0  0  0  0  0  0  0  0  # atno 17394 bound_to 11000
  140.8509  134.2955  157.5275 LP  0  0  0  0  0  0  0  0  0  0  0  0  # atno 17395 bound_to 11000

$$$$
