AV-unprocessed.smi:646|AV-procd|sdf|3167|dock7
  -GOLD-   22720 0 93D 1   1.00000     0.00000
 Structure written by MMmdl.
 44 45  0  0  0  0  0  0  0  0  1 V2000
  148.4031  139.1360  157.4527 C   0  0  0  0  0  0  0  0  0  0  0  0
  147.8040  139.8427  156.3735 O   0  0  0  0  0  0  0  0  0  0  0  0
  147.8228  139.2163  155.0832 C   0  0  1  0  0  0  0  0  0  0  0  0
  149.2656  138.9502  154.6365 C   0  0  0  0  0  0  0  0  0  0  0  0
  146.7919  138.0722  155.0277 C   0  0  0  0  0  0  0  0  0  0  0  0
  145.7391  139.1352  154.7221 C   0  0  2  0  0  0  0  0  0  0  0  0
  144.7519  138.6854  153.7485 N   0  0  0  0  0  0  0  0  0  0  0  0
  144.0823  137.5261  153.8284 C   0  0  0  0  0  0  0  0  0  0  0  0
  144.2958  136.6760  154.6923 O   0  0  0  0  0  0  0  0  0  0  0  0
  142.9802  137.3069  152.7930 C   0  0  0  0  0  0  0  0  0  0  0  0
  141.9643  136.3368  153.3417 C   0  0  0  0  0  0  0  0  0  0  0  0
  141.9681  134.9151  153.2470 C   0  0  0  0  0  0  0  0  0  0  0  0
  142.9788  134.0256  152.5819 C   0  0  0  0  0  0  0  0  0  0  0  0
  140.9283  134.3764  153.8611 N   0  0  0  0  0  0  0  0  0  0  0  0
  140.1971  135.4459  154.3866 O   0  0  0  0  0  0  0  0  0  0  0  0
  140.8353  136.6004  154.0675 C   0  0  0  0  0  0  0  0  0  0  0  0
  140.2143  137.8655  154.5544 C   0  0  0  0  0  0  0  0  0  0  0  0
  146.8719  140.0161  154.1334 C   0  0  0  0  0  0  0  0  0  0  0  0
  146.7509  141.5220  154.3908 C   0  0  0  0  0  0  0  0  0  0  0  0
  147.1485  139.8726  152.6237 C   0  0  0  0  0  0  0  0  0  0  0  0
  148.1911  139.6636  158.3826 H   0  0  0  0  0  0  0  0  0  0  0  0
  149.4871  139.0883  157.3515 H   0  0  0  0  0  0  0  0  0  0  0  0
  148.0157  138.1228  157.5534 H   0  0  0  0  0  0  0  0  0  0  0  0
  149.3112  138.5757  153.6145 H   0  0  0  0  0  0  0  0  0  0  0  0
  149.7518  138.1964  155.2553 H   0  0  0  0  0  0  0  0  0  0  0  0
  149.8669  139.8586  154.6788 H   0  0  0  0  0  0  0  0  0  0  0  0
  146.9695  137.3820  154.2007 H   0  0  0  0  0  0  0  0  0  0  0  0
  146.6231  137.5304  155.9576 H   0  0  0  0  0  0  0  0  0  0  0  0
  145.3061  139.5494  155.6357 H   0  0  0  0  0  0  0  0  0  0  0  0
  144.5144  139.3250  153.0044 H   0  0  0  0  0  0  0  0  0  0  0  0
  142.5287  138.2689  152.5475 H   0  0  0  0  0  0  0  0  0  0  0  0
  143.4231  136.9344  151.8687 H   0  0  0  0  0  0  0  0  0  0  0  0
  143.3535  134.4761  151.6627 H   0  0  0  0  0  0  0  0  0  0  0  0
  142.5532  133.0554  152.3236 H   0  0  0  0  0  0  0  0  0  0  0  0
  143.8329  133.8521  153.2370 H   0  0  0  0  0  0  0  0  0  0  0  0
  140.9781  138.5659  154.8928 H   0  0  0  0  0  0  0  0  0  0  0  0
  139.5393  137.6757  155.3895 H   0  0  0  0  0  0  0  0  0  0  0  0
  139.6434  138.3447  153.7592 H   0  0  0  0  0  0  0  0  0  0  0  0
  146.0167  141.9848  153.7301 H   0  0  0  0  0  0  0  0  0  0  0  0
  147.7029  142.0300  154.2347 H   0  0  0  0  0  0  0  0  0  0  0  0
  146.4308  141.7375  155.4103 H   0  0  0  0  0  0  0  0  0  0  0  0
  146.3542  140.3180  152.0239 H   0  0  0  0  0  0  0  0  0  0  0  0
  147.2305  138.8301  152.3158 H   0  0  0  0  0  0  0  0  0  0  0  0
  148.0782  140.3663  152.3392 H   0  0  0  0  0  0  0  0  0  0  0  0
  1  2  1  0  0  0  0
  1 21  1  0  0  0  0
  1 22  1  0  0  0  0
  1 23  1  0  0  0  0
  2  3  1  0  0  0  0
  3 18  1  0  0  0  0
  3  4  1  0  0  0  0
  3  5  1  0  0  0  0
  4 24  1  0  0  0  0
  4 25  1  0  0  0  0
  4 26  1  0  0  0  0
  5  6  1  0  0  0  0
  5 27  1  0  0  0  0
  5 28  1  0  0  0  0
  6  7  1  0  0  0  0
  6 18  1  0  0  0  0
  6 29  1  0  0  0  0
  7  8  1  0  0  0  0
  7 30  1  0  0  0  0
  8  9  2  0  0  0  0
  8 10  1  0  0  0  0
 10 11  1  0  0  0  0
 10 31  1  0  0  0  0
 10 32  1  0  0  0  0
 11 16  2  0  0  0  0
 11 12  1  0  0  0  0
 12 13  1  0  0  0  0
 12 14  2  0  0  0  0
 13 33  1  0  0  0  0
 13 34  1  0  0  0  0
 13 35  1  0  0  0  0
 14 15  1  0  0  0  0
 15 16  1  0  0  0  0
 16 17  1  0  0  0  0
 17 36  1  0  0  0  0
 17 37  1  0  0  0  0
 17 38  1  0  0  0  0
 18 19  1  0  0  0  0
 18 20  1  0  0  0  0
 19 39  1  0  0  0  0
 19 40  1  0  0  0  0
 19 41  1  0  0  0  0
 20 42  1  0  0  0  0
 20 43  1  0  0  0  0
 20 44  1  0  0  0  0
M  END
> <s_m_source_file>
AV-unprocessed.smi

> <i_m_source_file_index>
646

> <i_lp_mmshare_version>
43012

> <i_f3d_flags>
0

> <s_epik_input>
W0NIM11PW0NAQF0xKFtDSDNdKVtDSDJdW0NASF0oQzEoW0NIM10pW0NIM10pW05IXUMoPU8pW0NIMl1jMmMoW0NIM10pbm9jMltDSDNd

> <s_epik_cmdline>
J2VwaWtfcHl0aG9uJywgJy1waCcsICc3LjAnLCAnLXRuJywgJzgnLCAnLW1hJywgJzIwMCcsICctbWV0YWxfYmluZGluZycsICctaW1hZScsICc8aW5maWxlLm1hZT4nLCAnLW9tYWUnLCAnPG91dGZpbGUubWFlPic=

> <r_lp_tautomer_probability>
1

> <r_epik_Ionization_Penalty>
2.13169e-08

> <r_epik_Ionization_Penalty_Charging>
0

> <r_epik_Ionization_Penalty_Neutral>
2.13169e-08

> <r_epik_State_Penalty>
-0

> <r_epik_Charging_Adjusted_Penalty>
0

> <i_epik_Tot_Q>
0

> <i_epik_Tot_abs_Q>
0

> <r_epik_Metal_State_Penalty>
-0

> <b_epik_Metal_Only>
0

> <s_lp_Force_Field>
OPLS_2005

> <r_lp_Energy>
15.7725

> <b_lp_Chiralities_Consistent>
1

> <s_lp_Variant>
AV-unprocessed.smi:646-3

> <Gold.Version>
5.8.1

> <Gold.Id.Protein>
6NUR|6NUR_protein|mol2

> <Gold.PLP.Fitness>
30.5752

> <Gold.PLP.PLP>
-26.2504

> <Gold.PLP.part.hbond>
-4.0243

> <Gold.PLP.part.metal>
0.0000

> <Gold.PLP.part.buried>
-3.0061

> <Gold.PLP.part.nonpolar>
-19.7177

> <Gold.PLP.part.repulsive>
0.4363

> <Gold.PLP.ligand.clash>
0.0000

> <Gold.PLP.ligand.torsion>
1.0314

> <Gold.PLP.Chemscore.Hbond>
2.0014

> <Gold.PLP.Chemscore.CHOScore>
0.0000

> <Gold.PLP.Chemscore.Metal>
0.0000

> <Gold.Chemscore.Hbonds>
donor molecule, donor type, donor heavy atom, donor atom, acceptor molecule, acceptor atom, score
      L1  H     7    30       P1 10175  0.94
      P1  H 10995 11001       L1    14  0.02
      P1  H 11000 11005       L1    15  0.45

> <Gold.PLP.Chemscore.Internal.Correction>
0.3835

> <Gold.Rescore>
     Score         DG    S(hbond)    S(metal)    S(lipo)     H(rot)  DE(clash)    DE(int)     intcor
     10.79     -14.40       1.82        0.00      56.90       1.49       1.10       2.50       ----

> <Gold.Chemscore.Fitness>
10.7907

> <Gold.Chemscore.DG>
-14.3959

> <Gold.Chemscore.ZeroCoef>
-5.4800

> <Gold.Chemscore.Hbond>
1.8204

> <Gold.Chemscore.Metal>
0.0000

> <Gold.Chemscore.Lipo>
56.9014

> <Gold.Chemscore.Internal_Hbond>
0.0000

> <Gold.Chemscore.DEClash>
1.1025

> <Gold.Chemscore.DEInternal>
2.5028

> <Gold.Chemscore.Rot>
1.4928

> <Gold.Chemscore.Internal.Correction>
   9.000000E+99

> <Gold.Chemscore.Hbonds>
donor molecule, donor type, donor heavy atom, donor atom, acceptor molecule, acceptor atom, score
      L1  H     7    30       P1 10175  0.85
      P1  H 11000 11005       L1    15  0.02

> <Gold.Chemscore.Hbond.Weighted>
-6.0801

> <Gold.Chemscore.Metal.Weighted>
-0.0000

> <Gold.Chemscore.Lipo.Weighted>
-6.6575

> <Gold.Chemscore.Internal_Hbond.Weighted>
0.0000

> <Gold.Chemscore.DEClash.Weighted>
1.1025

> <Gold.Chemscore.DEInternal.Weighted>
2.5028

> <Gold.Chemscore.Rot.Weighted>
3.8217

> <Gold.Chemscore.Internal.Correction.Weighted>
   9.000000E+99

> <Gold.Protein.RotatedTorsions>
[ 6907 6896 6895 6894 ] final  -97.26 input  -60.11 | X-H torsion
[ 7974 7965 7964 7962 ] final  -62.67 input  175.53 | X-H torsion
[ 8008 7997 7996 7995 ] final -170.22 input   59.86 | X-H torsion
[ 10167 10162 10161 10158 ] final -109.85 input  -65.29 | X-H torsion
[ 10718 10713 10712 10709 ] final   -1.39 input   66.30 | X-H torsion
[ 10763 10752 10751 10750 ] final -143.58 input  -60.55 | X-H torsion
[ 11005 11000 10999 10996 ] final   54.95 input  -57.11 | X-H torsion

> <Gold.Protein.ActiveResidues>
 VAL166  LYS551  ARG553  GLY616  TRP617  ASP618  TYR619  PRO620  LYS621  CYS622 
 ASP623  PHE694  ASN695  SER759  ASP760  ASP761  ALA762  ILE779  LEU786  VAL792 
 PHE793  MET794  SER795  GLU796  ALA797  LYS798  CYS799  TRP800  GLU811  SER814 

> <Gold.Protein.RotatedAtoms>
  150.7011  134.1376  159.4092 H   0  0  0  0  0  0  0  0  0  0  0  0  # atno 6907 bound_to 6896
  151.9361  135.0232  160.0542 H   0  0  0  0  0  0  0  0  0  0  0  0  # atno 6908 bound_to 6896
  152.2134  133.4893  159.5159 H   0  0  0  0  0  0  0  0  0  0  0  0  # atno 6909 bound_to 6896
  145.7885  140.8723  143.0293 H   0  0  0  0  0  0  0  0  0  0  0  0  # atno 7974 bound_to 7965
  155.9154  140.1065  157.1247 H   0  0  0  0  0  0  0  0  0  0  0  0  # atno 8008 bound_to 7997
  154.4046  140.1266  156.4676 H   0  0  0  0  0  0  0  0  0  0  0  0  # atno 8009 bound_to 7997
  155.7260  140.3469  155.5040 H   0  0  0  0  0  0  0  0  0  0  0  0  # atno 8010 bound_to 7997
  140.1508  143.4200  152.1496 H   0  0  0  0  0  0  0  0  0  0  0  0  # atno 10167 bound_to 10162
  156.8064  130.5410  149.5714 H   0  0  0  0  0  0  0  0  0  0  0  0  # atno 10718 bound_to 10713
  154.8464  135.3464  154.6211 H   0  0  0  0  0  0  0  0  0  0  0  0  # atno 10763 bound_to 10752
  153.6819  135.6979  153.5120 H   0  0  0  0  0  0  0  0  0  0  0  0  # atno 10764 bound_to 10752
  153.2661  135.4307  155.0898 H   0  0  0  0  0  0  0  0  0  0  0  0  # atno 10765 bound_to 10752
  140.0645  134.5555  155.9114 H   0  0  0  0  0  0  0  0  0  0  0  0  # atno 11005 bound_to 11000
  144.6785  140.0089  143.7484 LP  0  0  0  0  0  0  0  0  0  0  0  0  # atno 17320 bound_to 7965
  146.0001  139.3084  143.0932 LP  0  0  0  0  0  0  0  0  0  0  0  0  # atno 17321 bound_to 7965
  139.5427  144.7271  151.4683 LP  0  0  0  0  0  0  0  0  0  0  0  0  # atno 17342 bound_to 10162
  140.6703  143.8308  150.6992 LP  0  0  0  0  0  0  0  0  0  0  0  0  # atno 17343 bound_to 10162
  156.1070  130.6012  150.9987 LP  0  0  0  0  0  0  0  0  0  0  0  0  # atno 17370 bound_to 10713
  157.6528  131.0894  150.8013 LP  0  0  0  0  0  0  0  0  0  0  0  0  # atno 17371 bound_to 10713
  141.1987  133.6603  156.5806 LP  0  0  0  0  0  0  0  0  0  0  0  0  # atno 17394 bound_to 11000
  140.3719  134.7598  157.4604 LP  0  0  0  0  0  0  0  0  0  0  0  0  # atno 17395 bound_to 11000

$$$$
