AV-unprocessed.smi:429|AV-procd|sdf|2545|dock2
  -GOLD-   2262022503D 1   1.00000     0.00000
 Structure written by MMmdl.
 43 44  0  0  0  0  0  0  0  0  1 V2000
  151.6301  144.5879  160.5347 C   0  0  0  0  0  0  0  0  0  0  0  0
  152.4168  143.3246  160.9002 C   0  0  0  0  0  0  0  0  0  0  0  0
  152.7552  142.4649  159.6738 C   0  0  0  0  0  0  0  0  0  0  0  0
  151.5486  141.6471  159.1781 C   0  0  0  0  0  0  0  0  0  0  0  0
  151.8791  140.7558  157.9768 C   0  0  0  0  0  0  0  0  0  0  0  0
  152.7486  139.8879  158.0601 O   0  0  0  0  0  0  0  0  0  0  0  0
  151.1793  140.9882  156.8556 N   0  0  0  0  0  0  0  0  0  0  0  0
  151.3394  140.2553  155.6034 C   0  0  0  0  0  0  0  0  0  0  0  0
  151.0465  138.7652  155.7071 C   0  0  0  0  0  0  0  0  0  0  0  0
  150.2456  138.2303  156.7375 C   0  0  0  0  0  0  0  0  0  0  0  0
  150.0176  136.8416  156.7753 C   0  0  0  0  0  0  0  0  0  0  0  0
  150.5978  136.0181  155.7810 C   0  0  0  0  0  0  0  0  0  0  0  0
  150.3762  134.6234  155.7939 N   0  0  0  0  0  0  0  0  0  0  0  0
  151.3824  133.7759  156.4318 C   0  0  0  0  0  0  0  0  0  0  0  0
  150.8482  132.3441  156.6035 C   0  0  0  0  0  0  0  0  0  0  0  0
  150.4222  131.8371  155.3435 O   0  0  0  0  0  0  0  0  0  0  0  0
  149.3635  132.6129  154.7925 C   0  0  0  0  0  0  0  0  0  0  0  0
  149.8414  134.0564  154.5581 C   0  0  0  0  0  0  0  0  0  0  0  0
  151.3807  136.5356  154.8019 N   0  0  0  0  0  0  0  0  0  0  0  0
  151.5952  137.8676  154.7696 C   0  0  0  0  0  0  0  0  0  0  0  0
  151.4086  145.1785  161.4238 H   0  0  0  0  0  0  0  0  0  0  0  0
  150.6823  144.3372  160.0573 H   0  0  0  0  0  0  0  0  0  0  0  0
  152.1950  145.2190  159.8482 H   0  0  0  0  0  0  0  0  0  0  0  0
  153.3366  143.6108  161.4112 H   0  0  0  0  0  0  0  0  0  0  0  0
  151.8381  142.7350  161.6121 H   0  0  0  0  0  0  0  0  0  0  0  0
  153.1163  143.1123  158.8732 H   0  0  0  0  0  0  0  0  0  0  0  0
  153.5772  141.7917  159.9221 H   0  0  0  0  0  0  0  0  0  0  0  0
  151.1714  141.0253  159.9918 H   0  0  0  0  0  0  0  0  0  0  0  0
  150.7364  142.3172  158.8942 H   0  0  0  0  0  0  0  0  0  0  0  0
  150.4848  141.7211  156.8715 H   0  0  0  0  0  0  0  0  0  0  0  0
  150.7098  140.7048  154.8333 H   0  0  0  0  0  0  0  0  0  0  0  0
  152.3696  140.3771  155.2683 H   0  0  0  0  0  0  0  0  0  0  0  0
  149.8116  138.8679  157.4934 H   0  0  0  0  0  0  0  0  0  0  0  0
  149.4158  136.4266  157.5698 H   0  0  0  0  0  0  0  0  0  0  0  0
  152.2862  133.7659  155.8211 H   0  0  0  0  0  0  0  0  0  0  0  0
  151.6521  134.1791  157.4086 H   0  0  0  0  0  0  0  0  0  0  0  0
  151.6301  131.6969  157.0006 H   0  0  0  0  0  0  0  0  0  0  0  0
  150.0222  132.3196  157.3163 H   0  0  0  0  0  0  0  0  0  0  0  0
  149.0487  132.1646  153.8501 H   0  0  0  0  0  0  0  0  0  0  0  0
  148.4990  132.5931  155.4582 H   0  0  0  0  0  0  0  0  0  0  0  0
  149.0111  134.6434  154.1686 H   0  0  0  0  0  0  0  0  0  0  0  0
  150.6236  134.0711  153.7979 H   0  0  0  0  0  0  0  0  0  0  0  0
  152.2236  138.2261  153.9678 H   0  0  0  0  0  0  0  0  0  0  0  0
  1  2  1  0  0  0  0
  1 21  1  0  0  0  0
  1 22  1  0  0  0  0
  1 23  1  0  0  0  0
  2  3  1  0  0  0  0
  2 24  1  0  0  0  0
  2 25  1  0  0  0  0
  3  4  1  0  0  0  0
  3 26  1  0  0  0  0
  3 27  1  0  0  0  0
  4  5  1  0  0  0  0
  4 28  1  0  0  0  0
  4 29  1  0  0  0  0
  5  6  2  0  0  0  0
  5  7  1  0  0  0  0
  7  8  1  0  0  0  0
  7 30  1  0  0  0  0
  8  9  1  0  0  0  0
  8 31  1  0  0  0  0
  8 32  1  0  0  0  0
  9 20  1  0  0  0  0
  9 10  2  0  0  0  0
 10 11  1  0  0  0  0
 10 33  1  0  0  0  0
 11 12  2  0  0  0  0
 11 34  1  0  0  0  0
 12 13  1  0  0  0  0
 12 19  1  0  0  0  0
 13 18  1  0  0  0  0
 13 14  1  0  0  0  0
 14 15  1  0  0  0  0
 14 35  1  0  0  0  0
 14 36  1  0  0  0  0
 15 16  1  0  0  0  0
 15 37  1  0  0  0  0
 15 38  1  0  0  0  0
 16 17  1  0  0  0  0
 17 18  1  0  0  0  0
 17 39  1  0  0  0  0
 17 40  1  0  0  0  0
 18 41  1  0  0  0  0
 18 42  1  0  0  0  0
 19 20  2  0  0  0  0
 20 43  1  0  0  0  0
M  END
> <s_m_source_file>
AV-unprocessed.smi

> <i_m_source_file_index>
429

> <i_lp_mmshare_version>
43012

> <i_f3d_flags>
0

> <s_epik_input>
W0NIM11bQ0gyXVtDSDJdW0NIMl1DKD1PKVtOSF1bQ0gyXWMxW2NIXVtjSF1jKG5bY0hdMSlOMltDSDJdW0NIMl1PW0NIMl1bQ0gyXTI=

> <s_epik_cmdline>
J2VwaWtfcHl0aG9uJywgJy1waCcsICc3LjAnLCAnLXRuJywgJzgnLCAnLW1hJywgJzIwMCcsICctbWV0YWxfYmluZGluZycsICctaW1hZScsICc8aW5maWxlLm1hZT4nLCAnLW9tYWUnLCAnPG91dGZpbGUubWFlPic=

> <r_lp_tautomer_probability>
1

> <r_epik_Ionization_Penalty>
0.00508978

> <r_epik_Ionization_Penalty_Charging>
0

> <r_epik_Ionization_Penalty_Neutral>
0.00508978

> <r_epik_State_Penalty>
0.0037045

> <r_epik_Charging_Adjusted_Penalty>
0.0037045

> <i_epik_Tot_Q>
0

> <i_epik_Tot_abs_Q>
0

> <r_epik_Metal_State_Penalty>
-0

> <b_epik_Metal_Only>
0

> <s_lp_Force_Field>
OPLS_2005

> <r_lp_Energy>
15.7693

> <b_lp_Chiralities_Consistent>
1

> <s_lp_Variant>
AV-unprocessed.smi:429-1

> <Gold.Version>
5.8.1

> <Gold.Id.Protein>
6NUR|6NUR_protein|mol2

> <Gold.PLP.Fitness>
40.5023

> <Gold.PLP.PLP>
-35.6613

> <Gold.PLP.part.hbond>
-2.0000

> <Gold.PLP.part.metal>
0.0000

> <Gold.PLP.part.buried>
-4.9420

> <Gold.PLP.part.nonpolar>
-28.6891

> <Gold.PLP.part.repulsive>
0.3256

> <Gold.PLP.ligand.clash>
0.0000

> <Gold.PLP.ligand.torsion>
0.7571

> <Gold.PLP.Chemscore.Hbond>
2.0000

> <Gold.PLP.Chemscore.CHOScore>
0.0000

> <Gold.PLP.Chemscore.Metal>
0.0000

> <Gold.Chemscore.Hbonds>
donor molecule, donor type, donor heavy atom, donor atom, acceptor molecule, acceptor atom, score
      P1  H  7997  8008       L1     6  0.75
      P1  H 10752 10763       L1    19  1.00

> <Gold.PLP.Chemscore.Internal.Correction>
0.3552

> <Gold.Rescore>
     Score         DG    S(hbond)    S(metal)    S(lipo)     H(rot)  DE(clash)    DE(int)     intcor
     15.81     -18.01       1.77        0.00      95.20       1.77       1.60       0.59       ----

> <Gold.Chemscore.Fitness>
15.8081

> <Gold.Chemscore.DG>
-18.0060

> <Gold.Chemscore.ZeroCoef>
-5.4800

> <Gold.Chemscore.Hbond>
1.7708

> <Gold.Chemscore.Metal>
0.0000

> <Gold.Chemscore.Lipo>
95.2026

> <Gold.Chemscore.Internal_Hbond>
0.0000

> <Gold.Chemscore.DEClash>
1.6030

> <Gold.Chemscore.DEInternal>
0.5949

> <Gold.Chemscore.Rot>
1.7684

> <Gold.Chemscore.Internal.Correction>
   9.000000E+99

> <Gold.Chemscore.Hbonds>
donor molecule, donor type, donor heavy atom, donor atom, acceptor molecule, acceptor atom, score
      P1  H  7997  8008       L1     6  0.67
      P1  H 10752 10763       L1    19  0.67

> <Gold.Chemscore.Hbond.Weighted>
-5.9144

> <Gold.Chemscore.Metal.Weighted>
-0.0000

> <Gold.Chemscore.Lipo.Weighted>
-11.1387

> <Gold.Chemscore.Internal_Hbond.Weighted>
0.0000

> <Gold.Chemscore.DEClash.Weighted>
1.6030

> <Gold.Chemscore.DEInternal.Weighted>
0.5949

> <Gold.Chemscore.Rot.Weighted>
4.5271

> <Gold.Chemscore.Internal.Correction.Weighted>
   9.000000E+99

> <Gold.Protein.RotatedTorsions>
[ 6907 6896 6895 6894 ] final  177.37 input  -60.11 | X-H torsion
[ 7974 7965 7964 7962 ] final  145.04 input  175.53 | X-H torsion
[ 8008 7997 7996 7995 ] final  -64.65 input   59.86 | X-H torsion
[ 10167 10162 10161 10158 ] final  -56.06 input  -65.29 | X-H torsion
[ 10718 10713 10712 10709 ] final -173.08 input   66.30 | X-H torsion
[ 10763 10752 10751 10750 ] final   59.11 input  -60.55 | X-H torsion
[ 11005 11000 10999 10996 ] final  179.08 input  -57.11 | X-H torsion

> <Gold.Protein.ActiveResidues>
 VAL166  LYS551  ARG553  GLY616  TRP617  ASP618  TYR619  PRO620  LYS621  CYS622 
 ASP623  PHE694  ASN695  SER759  ASP760  ASP761  ALA762  ILE779  LEU786  VAL792 
 PHE793  MET794  SER795  GLU796  ALA797  LYS798  CYS799  TRP800  GLU811  SER814 

> <Gold.Protein.RotatedAtoms>
  151.7051  133.3311  159.3276 H   0  0  0  0  0  0  0  0  0  0  0  0  # atno 6907 bound_to 6896
  150.7718  134.6581  159.6334 H   0  0  0  0  0  0  0  0  0  0  0  0  # atno 6908 bound_to 6896
  152.3746  134.6686  160.0216 H   0  0  0  0  0  0  0  0  0  0  0  0  # atno 6909 bound_to 6896
  144.8785  139.5735  143.5854 H   0  0  0  0  0  0  0  0  0  0  0  0  # atno 7974 bound_to 7965
  154.4624  140.0949  156.6929 H   0  0  0  0  0  0  0  0  0  0  0  0  # atno 8008 bound_to 7997
  155.4955  140.3472  155.4344 H   0  0  0  0  0  0  0  0  0  0  0  0  # atno 8009 bound_to 7997
  156.0895  140.1393  156.9599 H   0  0  0  0  0  0  0  0  0  0  0  0  # atno 8010 bound_to 7997
  140.6339  143.2472  151.5169 H   0  0  0  0  0  0  0  0  0  0  0  0  # atno 10167 bound_to 10162
  156.7651  130.9428  151.3119 H   0  0  0  0  0  0  0  0  0  0  0  0  # atno 10718 bound_to 10713
  152.9886  135.5583  154.5661 H   0  0  0  0  0  0  0  0  0  0  0  0  # atno 10763 bound_to 10752
  154.5070  135.2800  155.1376 H   0  0  0  0  0  0  0  0  0  0  0  0  # atno 10764 bound_to 10752
  154.2783  135.6350  153.5390 H   0  0  0  0  0  0  0  0  0  0  0  0  # atno 10765 bound_to 10752
  140.4022  134.6767  157.4568 H   0  0  0  0  0  0  0  0  0  0  0  0  # atno 11005 bound_to 11000
  146.2979  139.7334  142.9113 LP  0  0  0  0  0  0  0  0  0  0  0  0  # atno 17320 bound_to 7965
  145.3998  141.0383  143.3077 LP  0  0  0  0  0  0  0  0  0  0  0  0  # atno 17321 bound_to 7965
  139.5551  144.2297  152.1598 LP  0  0  0  0  0  0  0  0  0  0  0  0  # atno 17342 bound_to 10162
  140.1548  144.5081  150.6666 LP  0  0  0  0  0  0  0  0  0  0  0  0  # atno 17343 bound_to 10162
  157.6717  130.9057  150.0055 LP  0  0  0  0  0  0  0  0  0  0  0  0  # atno 17370 bound_to 10713
  156.1314  130.3643  149.9726 LP  0  0  0  0  0  0  0  0  0  0  0  0  # atno 17371 bound_to 10713
  140.0328  134.6381  155.9084 LP  0  0  0  0  0  0  0  0  0  0  0  0  # atno 17394 bound_to 11000
  141.1852  133.6554  156.5190 LP  0  0  0  0  0  0  0  0  0  0  0  0  # atno 17395 bound_to 11000

$$$$
