AV-unprocessed.smi:3330|AV-procd|sdf|12804|dock6
  -GOLD-   2272019163D 1   1.00000     0.00000
 Structure written by MMmdl.
 39 40  0  0  0  0  0  0  0  0  2 V2000
  151.7812  137.9393  154.5110 C   0  0  0  0  0  0  0  0  0  0  0  0
  150.4189  138.5768  154.1907 C   0  0  1  0  0  0  0  0  0  0  0  0
  149.3998  137.5013  154.1470 N   0  3  0  0  0  0  0  0  0  0  0  0
  149.3623  136.6255  155.3359 C   0  0  0  0  0  0  0  0  0  0  0  0
  148.5219  135.3694  155.0662 C   0  0  0  0  0  0  0  0  0  0  0  0
  149.2614  134.1546  155.4168 N   0  0  0  0  0  0  0  0  0  0  0  0
  149.4527  133.1202  154.5882 C   0  0  0  0  0  0  0  0  0  0  0  0
  149.0627  133.0106  153.4264 O   0  0  0  0  0  0  0  0  0  0  0  0
  150.2367  132.0557  155.3242 C   0  0  0  0  0  0  0  0  0  0  0  0
  150.3762  132.7120  156.6069 N   0  0  0  0  0  0  0  0  0  0  0  0
  149.7982  133.9198  156.6282 C   0  0  0  0  0  0  0  0  0  0  0  0
  149.7614  134.6727  157.6002 O   0  0  0  0  0  0  0  0  0  0  0  0
  150.0189  139.6752  155.2154 C   0  0  1  0  0  0  0  0  0  0  0  0
  151.1746  140.6310  155.5680 C   0  0  0  0  0  0  0  0  0  0  0  0
  148.8651  140.4406  154.7542 N   0  0  0  0  0  0  0  0  0  0  0  0
  148.7409  141.8051  154.5763 C   0  0  0  0  0  0  0  0  0  0  0  0
  147.4921  142.0406  154.0774 C   0  0  0  0  0  0  0  0  0  0  0  0
  146.9191  140.7430  153.9729 C   0  0  0  0  0  0  0  0  0  0  0  0
  147.7449  139.7887  154.3698 N   0  0  0  0  0  0  0  0  0  0  0  0
  152.5931  138.6631  154.4420 H   0  0  0  0  0  0  0  0  0  0  0  0
  152.0123  137.1388  153.8073 H   0  0  0  0  0  0  0  0  0  0  0  0
  151.7956  137.5132  155.5147 H   0  0  0  0  0  0  0  0  0  0  0  0
  150.4984  139.0282  153.2000 H   0  0  0  0  0  0  0  0  0  0  0  0
  148.4889  137.9256  154.0463 H   0  0  0  0  0  0  0  0  0  0  0  0
  150.3747  136.3322  155.6116 H   0  0  0  0  0  0  0  0  0  0  0  0
  148.9532  137.1856  156.1775 H   0  0  0  0  0  0  0  0  0  0  0  0
  147.5869  135.4164  155.6273 H   0  0  0  0  0  0  0  0  0  0  0  0
  148.2352  135.3330  154.0135 H   0  0  0  0  0  0  0  0  0  0  0  0
  149.6749  131.1249  155.4070 H   0  0  0  0  0  0  0  0  0  0  0  0
  151.2051  131.8727  154.8578 H   0  0  0  0  0  0  0  0  0  0  0  0
  150.8509  132.2897  157.3919 H   0  0  0  0  0  0  0  0  0  0  0  0
  149.7264  139.1796  156.1434 H   0  0  0  0  0  0  0  0  0  0  0  0
  151.9724  140.1169  156.1032 H   0  0  0  0  0  0  0  0  0  0  0  0
  150.8309  141.4389  156.2151 H   0  0  0  0  0  0  0  0  0  0  0  0
  151.6095  141.0825  154.6759 H   0  0  0  0  0  0  0  0  0  0  0  0
  149.5433  142.4889  154.8109 H   0  0  0  0  0  0  0  0  0  0  0  0
  147.0551  142.9943  153.8208 H   0  0  0  0  0  0  0  0  0  0  0  0
  145.9376  140.4674  153.6162 H   0  0  0  0  0  0  0  0  0  0  0  0
  149.5807  136.9334  153.3310 H   0  0  0  0  0  0  0  0  0  0  0  0
  1  2  1  0  0  0  0
  1 20  1  0  0  0  0
  1 21  1  0  0  0  0
  1 22  1  0  0  0  0
  2  3  1  0  0  0  0
  2 13  1  0  0  0  0
  2 23  1  0  0  0  0
  3  4  1  0  0  0  0
  3 24  1  0  0  0  0
  3 39  1  0  0  0  0
  4  5  1  0  0  0  0
  4 25  1  0  0  0  0
  4 26  1  0  0  0  0
  5  6  1  0  0  0  0
  5 27  1  0  0  0  0
  5 28  1  0  0  0  0
  6 11  1  0  0  0  0
  6  7  1  0  0  0  0
  7  8  2  0  0  0  0
  7  9  1  0  0  0  0
  9 10  1  0  0  0  0
  9 29  1  0  0  0  0
  9 30  1  0  0  0  0
 10 11  1  0  0  0  0
 10 31  1  0  0  0  0
 11 12  2  0  0  0  0
 13 14  1  0  0  0  0
 13 15  1  0  0  0  0
 13 32  1  0  0  0  0
 14 33  1  0  0  0  0
 14 34  1  0  0  0  0
 14 35  1  0  0  0  0
 15 19  1  0  0  0  0
 15 16  1  0  0  0  0
 16 17  2  0  0  0  0
 16 36  1  0  0  0  0
 17 18  1  0  0  0  0
 17 37  1  0  0  0  0
 18 19  2  0  0  0  0
 18 38  1  0  0  0  0
M  CHG  1   3   1
M  END
> <s_m_source_file>
AV-unprocessed.smi

> <i_m_source_file_index>
3330

> <i_lp_mmshare_version>
43012

> <i_f3d_flags>
0

> <s_epik_input>
bjFbY0hdW2NIXVtjSF1uMVtDQEBIXShbQ0gzXSlbQ0BIXShbQ0gzXSlbTkhdW0NIMl1bQ0gyXU4yQyg9TylbQ0gyXVtOSF1DMj1P

> <s_epik_cmdline>
J2VwaWtfcHl0aG9uJywgJy1waCcsICc3LjAnLCAnLXRuJywgJzgnLCAnLW1hJywgJzIwMCcsICctbWV0YWxfYmluZGluZycsICctaW1hZScsICc8aW5maWxlLm1hZT4nLCAnLW9tYWUnLCAnPG91dGZpbGUubWFlPic=

> <r_lp_tautomer_probability>
1

> <r_epik_Ionization_Penalty>
0.0124905

> <r_epik_Ionization_Penalty_Charging>
0.0123685

> <r_epik_Ionization_Penalty_Neutral>
0.000122059

> <r_epik_State_Penalty>
0.00957041

> <r_epik_Charging_Adjusted_Penalty>
0.0219389

> <i_epik_Tot_Q>
1

> <i_epik_Tot_abs_Q>
1

> <r_epik_Metal_State_Penalty>
0.0858301

> <b_epik_Metal_Only>
0

> <s_lp_Force_Field>
OPLS_2005

> <r_lp_Energy>
25.1369

> <b_lp_Chiralities_Consistent>
1

> <s_lp_Variant>
AV-unprocessed.smi:3330-4

> <Gold.Version>
5.8.1

> <Gold.Id.Protein>
6NUR|6NUR_protein|mol2

> <Gold.PLP.Fitness>
44.7273

> <Gold.PLP.PLP>
-31.6793

> <Gold.PLP.part.hbond>
-2.0000

> <Gold.PLP.part.metal>
0.0000

> <Gold.PLP.part.buried>
-3.5395

> <Gold.PLP.part.nonpolar>
-27.6999

> <Gold.PLP.part.repulsive>
0.3864

> <Gold.PLP.ligand.clash>
0.0000

> <Gold.PLP.ligand.torsion>
0.6837

> <Gold.PLP.Chemscore.Hbond>
2.8800

> <Gold.PLP.Chemscore.CHOScore>
1.8566

> <Gold.PLP.Chemscore.Metal>
0.0000

> <Gold.Chemscore.Hbonds>
donor molecule, donor type, donor heavy atom, donor atom, acceptor molecule, acceptor atom, score
      L1  H     3    39       P1  7948  1.95
      P1  H  6896  6907       L1    12  0.95
      L1  C    16    36       P1  8028  0.73
      L1  C    18    38       P1 10175  1.00

> <Gold.PLP.Chemscore.Internal.Correction>
0.2054

> <Gold.Rescore>
     Score         DG    S(hbond)    S(metal)    S(lipo)     H(rot)  DE(clash)    DE(int)     intcor
      9.93     -12.03       1.96        0.00      58.47       2.67       0.02       2.08       ----

> <Gold.Chemscore.Fitness>
9.9327

> <Gold.Chemscore.DG>
-12.0292

> <Gold.Chemscore.ZeroCoef>
-5.4800

> <Gold.Chemscore.Hbond>
1.9566

> <Gold.Chemscore.Metal>
0.0000

> <Gold.Chemscore.Lipo>
58.4674

> <Gold.Chemscore.Internal_Hbond>
0.0000

> <Gold.Chemscore.DEClash>
0.0215

> <Gold.Chemscore.DEInternal>
2.0750

> <Gold.Chemscore.Rot>
2.6666

> <Gold.Chemscore.Internal.Correction>
   9.000000E+99

> <Gold.Chemscore.Hbonds>
donor molecule, donor type, donor heavy atom, donor atom, acceptor molecule, acceptor atom, score
      L1  H     3    39       P1  7948  0.69
      P1  H  6896  6907       L1    12  0.85

> <Gold.Chemscore.Hbond.Weighted>
-6.5350

> <Gold.Chemscore.Metal.Weighted>
-0.0000

> <Gold.Chemscore.Lipo.Weighted>
-6.8407

> <Gold.Chemscore.Internal_Hbond.Weighted>
0.0000

> <Gold.Chemscore.DEClash.Weighted>
0.0215

> <Gold.Chemscore.DEInternal.Weighted>
2.0750

> <Gold.Chemscore.Rot.Weighted>
6.8265

> <Gold.Chemscore.Internal.Correction.Weighted>
   9.000000E+99

> <Gold.Protein.RotatedTorsions>
[ 6907 6896 6895 6894 ] final  -96.41 input  -60.11 | X-H torsion
[ 7974 7965 7964 7962 ] final  135.23 input  175.53 | X-H torsion
[ 8008 7997 7996 7995 ] final    2.93 input   59.86 | X-H torsion
[ 10167 10162 10161 10158 ] final -138.03 input  -65.29 | X-H torsion
[ 10718 10713 10712 10709 ] final  138.04 input   66.30 | X-H torsion
[ 10763 10752 10751 10750 ] final   20.98 input  -60.55 | X-H torsion
[ 11005 11000 10999 10996 ] final   29.82 input  -57.11 | X-H torsion

> <Gold.Protein.ActiveResidues>
 VAL166  LYS551  ARG553  GLY616  TRP617  ASP618  TYR619  PRO620  LYS621  CYS622 
 ASP623  PHE694  ASN695  SER759  ASP760  ASP761  ALA762  ILE779  LEU786  VAL792 
 PHE793  MET794  SER795  GLU796  ALA797  LYS798  CYS799  TRP800  GLU811  SER814 

> <Gold.Protein.RotatedAtoms>
  150.6988  134.1507  159.4139 H   0  0  0  0  0  0  0  0  0  0  0  0  # atno 6907 bound_to 6896
  151.9490  135.0176  160.0550 H   0  0  0  0  0  0  0  0  0  0  0  0  # atno 6908 bound_to 6896
  152.2027  133.4818  159.5104 H   0  0  0  0  0  0  0  0  0  0  0  0  # atno 6909 bound_to 6896
  144.9684  139.4633  143.5445 H   0  0  0  0  0  0  0  0  0  0  0  0  # atno 7974 bound_to 7965
  154.6975  140.2666  155.6751 H   0  0  0  0  0  0  0  0  0  0  0  0  # atno 8008 bound_to 7997
  156.2754  140.2779  156.1498 H   0  0  0  0  0  0  0  0  0  0  0  0  # atno 8009 bound_to 7997
  155.0810  140.0372  157.2629 H   0  0  0  0  0  0  0  0  0  0  0  0  # atno 8010 bound_to 7997
  139.8518  143.7188  152.2657 H   0  0  0  0  0  0  0  0  0  0  0  0  # atno 10167 bound_to 10162
  157.4296  131.1047  151.0264 H   0  0  0  0  0  0  0  0  0  0  0  0  # atno 10718 bound_to 10713
  153.1032  135.6678  153.9634 H   0  0  0  0  0  0  0  0  0  0  0  0  # atno 10763 bound_to 10752
  153.9198  135.3015  155.3449 H   0  0  0  0  0  0  0  0  0  0  0  0  # atno 10764 bound_to 10752
  154.7453  135.5060  153.9269 H   0  0  0  0  0  0  0  0  0  0  0  0  # atno 10765 bound_to 10752
  140.3009  134.2757  155.7754 H   0  0  0  0  0  0  0  0  0  0  0  0  # atno 11005 bound_to 11000
  146.3374  139.8880  142.8813 LP  0  0  0  0  0  0  0  0  0  0  0  0  # atno 17320 bound_to 7965
  145.2596  141.0072  143.3834 LP  0  0  0  0  0  0  0  0  0  0  0  0  # atno 17321 bound_to 7965
  139.7458  144.7547  151.0583 LP  0  0  0  0  0  0  0  0  0  0  0  0  # atno 17342 bound_to 10162
  140.7786  143.4918  150.9883 LP  0  0  0  0  0  0  0  0  0  0  0  0  # atno 17343 bound_to 10162
  157.1165  130.6044  149.5494 LP  0  0  0  0  0  0  0  0  0  0  0  0  # atno 17370 bound_to 10713
  155.9908  130.4961  150.7275 LP  0  0  0  0  0  0  0  0  0  0  0  0  # atno 17371 bound_to 10713
  141.2128  133.7646  156.9766 LP  0  0  0  0  0  0  0  0  0  0  0  0  # atno 17394 bound_to 11000
  140.1110  134.9477  157.2065 LP  0  0  0  0  0  0  0  0  0  0  0  0  # atno 17395 bound_to 11000

$$$$
