AV-unprocessed.smi:484|AV-procd|sdf|2690|dock10
  -GOLD-   2262023123D 1   1.00000     0.00000
 Structure written by MMmdl.
 47 49  0  0  0  0  0  0  0  0  2 V2000
  134.5058  138.3376  154.9288 C   0  0  0  0  0  0  0  0  0  0  0  0
  135.4556  139.4374  154.4419 C   0  0  0  0  0  0  0  0  0  0  0  0
  136.8544  138.9130  154.1790 C   0  0  0  0  0  0  0  0  0  0  0  0
  137.8657  139.7826  153.7244 C   0  0  0  0  0  0  0  0  0  0  0  0
  139.1638  139.2927  153.4850 C   0  0  0  0  0  0  0  0  0  0  0  0
  139.4727  137.9331  153.6938 C   0  0  0  0  0  0  0  0  0  0  0  0
  140.7656  137.5386  153.4256 O   0  0  0  0  0  0  0  0  0  0  0  0
  141.2195  136.3052  153.9661 C   0  0  0  0  0  0  0  0  0  0  0  0
  142.7104  136.1357  153.6306 C   0  0  1  0  0  0  0  0  0  0  0  0
  143.1524  134.9220  154.2028 O   0  0  0  0  0  0  0  0  0  0  0  0
  143.0390  136.1652  152.1183 C   0  0  0  0  0  0  0  0  0  0  0  0
  144.3685  135.6275  151.7661 N   0  0  0  0  0  0  0  0  0  0  0  0
  145.5969  136.2283  151.7449 C   0  0  0  0  0  0  0  0  0  0  0  0
  145.9266  137.6489  152.0792 C   0  0  0  0  0  0  0  0  0  0  0  0
  147.2134  138.0292  151.6420 O   0  0  0  0  0  0  0  0  0  0  0  0
  146.4985  135.2866  151.3467 N   0  3  0  0  0  0  0  0  0  0  0  0
  145.8529  134.0710  151.1292 C   0  0  0  0  0  0  0  0  0  0  0  0
  146.3518  132.8359  150.7264 C   0  0  0  0  0  0  0  0  0  0  0  0
  145.4190  131.7856  150.6055 C   0  0  0  0  0  0  0  0  0  0  0  0
  144.0511  131.9846  150.8823 C   0  0  0  0  0  0  0  0  0  0  0  0
  143.5582  133.2418  151.2899 C   0  0  0  0  0  0  0  0  0  0  0  0
  144.4855  134.2783  151.4033 C   0  0  0  0  0  0  0  0  0  0  0  0
  138.4519  137.0634  154.1537 C   0  0  0  0  0  0  0  0  0  0  0  0
  137.1532  137.5526  154.3935 C   0  0  0  0  0  0  0  0  0  0  0  0
  133.5087  138.7386  155.1118 H   0  0  0  0  0  0  0  0  0  0  0  0
  134.8617  137.8924  155.8584 H   0  0  0  0  0  0  0  0  0  0  0  0
  134.4133  137.5412  154.1894 H   0  0  0  0  0  0  0  0  0  0  0  0
  135.0644  139.8865  153.5282 H   0  0  0  0  0  0  0  0  0  0  0  0
  135.5034  140.2386  155.1806 H   0  0  0  0  0  0  0  0  0  0  0  0
  137.6502  140.8282  153.5593 H   0  0  0  0  0  0  0  0  0  0  0  0
  139.9308  139.9682  153.1354 H   0  0  0  0  0  0  0  0  0  0  0  0
  141.0895  136.3213  155.0498 H   0  0  0  0  0  0  0  0  0  0  0  0
  140.6414  135.4664  153.5757 H   0  0  0  0  0  0  0  0  0  0  0  0
  143.2670  136.9353  154.1206 H   0  0  0  0  0  0  0  0  0  0  0  0
  143.8754  134.5944  153.6901 H   0  0  0  0  0  0  0  0  0  0  0  0
  142.2963  135.5841  151.5724 H   0  0  0  0  0  0  0  0  0  0  0  0
  142.9540  137.1786  151.7250 H   0  0  0  0  0  0  0  0  0  0  0  0
  145.1908  138.3026  151.6109 H   0  0  0  0  0  0  0  0  0  0  0  0
  145.8671  137.8085  153.1551 H   0  0  0  0  0  0  0  0  0  0  0  0
  147.8537  137.5210  152.1170 H   0  0  0  0  0  0  0  0  0  0  0  0
  147.4001  132.6813  150.5169 H   0  0  0  0  0  0  0  0  0  0  0  0
  145.7592  130.8077  150.2960 H   0  0  0  0  0  0  0  0  0  0  0  0
  143.3653  131.1560  150.7798 H   0  0  0  0  0  0  0  0  0  0  0  0
  142.5078  133.3799  151.4977 H   0  0  0  0  0  0  0  0  0  0  0  0
  138.6393  136.0155  154.3317 H   0  0  0  0  0  0  0  0  0  0  0  0
  136.3855  136.8791  154.7457 H   0  0  0  0  0  0  0  0  0  0  0  0
  147.4888  135.4681  151.2438 H   0  0  0  0  0  0  0  0  0  0  0  0
  1  2  1  0  0  0  0
  1 25  1  0  0  0  0
  1 26  1  0  0  0  0
  1 27  1  0  0  0  0
  2  3  1  0  0  0  0
  2 28  1  0  0  0  0
  2 29  1  0  0  0  0
  3 24  1  0  0  0  0
  3  4  2  0  0  0  0
  4  5  1  0  0  0  0
  4 30  1  0  0  0  0
  5  6  2  0  0  0  0
  5 31  1  0  0  0  0
  6  7  1  0  0  0  0
  6 23  1  0  0  0  0
  7  8  1  0  0  0  0
  8  9  1  0  0  0  0
  8 32  1  0  0  0  0
  8 33  1  0  0  0  0
  9 10  1  0  0  0  0
  9 11  1  0  0  0  0
  9 34  1  0  0  0  0
 10 35  1  0  0  0  0
 11 12  1  0  0  0  0
 11 36  1  0  0  0  0
 11 37  1  0  0  0  0
 12 22  1  0  0  0  0
 12 13  1  0  0  0  0
 13 14  1  0  0  0  0
 13 16  2  0  0  0  0
 14 15  1  0  0  0  0
 14 38  1  0  0  0  0
 14 39  1  0  0  0  0
 15 40  1  0  0  0  0
 16 17  1  0  0  0  0
 16 47  1  0  0  0  0
 17 22  2  0  0  0  0
 17 18  1  0  0  0  0
 18 19  2  0  0  0  0
 18 41  1  0  0  0  0
 19 20  1  0  0  0  0
 19 42  1  0  0  0  0
 20 21  2  0  0  0  0
 20 43  1  0  0  0  0
 21 22  1  0  0  0  0
 21 44  1  0  0  0  0
 23 24  2  0  0  0  0
 23 45  1  0  0  0  0
 24 46  1  0  0  0  0
M  CHG  1  16   1
M  END
> <s_m_source_file>
AV-unprocessed.smi

> <i_m_source_file_index>
484

> <i_lp_mmshare_version>
43012

> <i_f3d_flags>
0

> <s_epik_input>
W0NIM11bQ0gyXWMxW2NIXVtjSF1jKFtjSF1bY0hdMSlPW0NIMl1bQ0BIXShbT0hdKVtDSDJdbihjKG4yKVtDSDJdW09IXSljKGMyMylbY0hdW2NIXVtjSF1bY0hdMw==

> <s_epik_cmdline>
J2VwaWtfcHl0aG9uJywgJy1waCcsICc3LjAnLCAnLXRuJywgJzgnLCAnLW1hJywgJzIwMCcsICctbWV0YWxfYmluZGluZycsICctaW1hZScsICc8aW5maWxlLm1hZT4nLCAnLW9tYWUnLCAnPG91dGZpbGUubWFlPic=

> <r_lp_tautomer_probability>
1

> <r_epik_Ionization_Penalty>
1.43166

> <r_epik_Ionization_Penalty_Charging>
1.43081

> <r_epik_Ionization_Penalty_Neutral>
0.000858184

> <r_epik_State_Penalty>
1.51538

> <r_epik_Charging_Adjusted_Penalty>
2.94618

> <i_epik_Tot_Q>
1

> <i_epik_Tot_abs_Q>
1

> <r_epik_Metal_State_Penalty>
5.56039

> <b_epik_Metal_Only>
0

> <s_lp_Force_Field>
OPLS_2005

> <r_lp_Energy>
17.0937

> <b_lp_Chiralities_Consistent>
1

> <s_lp_Variant>
AV-unprocessed.smi:484-4

> <Gold.Version>
5.8.1

> <Gold.Id.Protein>
6NUR|6NUR_protein|mol2

> <Gold.PLP.Fitness>
55.0429

> <Gold.PLP.PLP>
-46.1653

> <Gold.PLP.part.hbond>
-3.8334

> <Gold.PLP.part.metal>
0.0000

> <Gold.PLP.part.buried>
-6.4586

> <Gold.PLP.part.nonpolar>
-37.5284

> <Gold.PLP.part.repulsive>
0.2587

> <Gold.PLP.ligand.clash>
0.0000

> <Gold.PLP.ligand.torsion>
0.9308

> <Gold.PLP.Chemscore.Hbond>
3.5020

> <Gold.PLP.Chemscore.CHOScore>
0.0000

> <Gold.PLP.Chemscore.Metal>
0.0000

> <Gold.Chemscore.Hbonds>
donor molecule, donor type, donor heavy atom, donor atom, acceptor molecule, acceptor atom, score
      L1  H    15    40       P1  7948  0.77
      L1  H    16    47       P1  7948  2.00
      P1  H  7954  7966       L1    15  0.70

> <Gold.PLP.Chemscore.Internal.Correction>
0.2332

> <Gold.Rescore>
     Score         DG    S(hbond)    S(metal)    S(lipo)     H(rot)  DE(clash)    DE(int)     intcor
     16.28     -17.73       1.91        0.00     119.74       3.18       0.44       1.00       ----

> <Gold.Chemscore.Fitness>
16.2828

> <Gold.Chemscore.DG>
-17.7279

> <Gold.Chemscore.ZeroCoef>
-5.4800

> <Gold.Chemscore.Hbond>
1.9099

> <Gold.Chemscore.Metal>
0.0000

> <Gold.Chemscore.Lipo>
119.7424

> <Gold.Chemscore.Internal_Hbond>
0.0000

> <Gold.Chemscore.DEClash>
0.4418

> <Gold.Chemscore.DEInternal>
1.0033

> <Gold.Chemscore.Rot>
3.1801

> <Gold.Chemscore.Internal.Correction>
   9.000000E+99

> <Gold.Chemscore.Hbonds>
donor molecule, donor type, donor heavy atom, donor atom, acceptor molecule, acceptor atom, score
      L1  H    15    40       P1  7948  0.78
      L1  H    16    47       P1  7948  0.71
      P1  H  7954  7966       L1    15  0.07

> <Gold.Chemscore.Hbond.Weighted>
-6.3790

> <Gold.Chemscore.Metal.Weighted>
-0.0000

> <Gold.Chemscore.Lipo.Weighted>
-14.0099

> <Gold.Chemscore.Internal_Hbond.Weighted>
0.0000

> <Gold.Chemscore.DEClash.Weighted>
0.4418

> <Gold.Chemscore.DEInternal.Weighted>
1.0033

> <Gold.Chemscore.Rot.Weighted>
8.1410

> <Gold.Chemscore.Internal.Correction.Weighted>
   9.000000E+99

> <Gold.Protein.RotatedTorsions>
[ 6907 6896 6895 6894 ] final   87.52 input  -60.11 | X-H torsion
[ 7974 7965 7964 7962 ] final   88.85 input  175.53 | X-H torsion
[ 8008 7997 7996 7995 ] final  -69.08 input   59.86 | X-H torsion
[ 10167 10162 10161 10158 ] final -139.16 input  -65.29 | X-H torsion
[ 10718 10713 10712 10709 ] final  103.35 input   66.30 | X-H torsion
[ 10763 10752 10751 10750 ] final   97.74 input  -60.55 | X-H torsion
[ 11005 11000 10999 10996 ] final  -38.70 input  -57.11 | X-H torsion

> <Gold.Protein.ActiveResidues>
 VAL166  LYS551  ARG553  GLY616  TRP617  ASP618  TYR619  PRO620  LYS621  CYS622 
 ASP623  PHE694  ASN695  SER759  ASP760  ASP761  ALA762  ILE779  LEU786  VAL792 
 PHE793  MET794  SER795  GLU796  ALA797  LYS798  CYS799  TRP800  GLU811  SER814 

> <Gold.Protein.RotatedAtoms>
  152.5412  134.2263  159.8807 H   0  0  0  0  0  0  0  0  0  0  0  0  # atno 6907 bound_to 6896
  151.2238  133.4481  159.2609 H   0  0  0  0  0  0  0  0  0  0  0  0  # atno 6908 bound_to 6896
  151.0781  134.9854  159.8398 H   0  0  0  0  0  0  0  0  0  0  0  0  # atno 6909 bound_to 6896
  145.5402  139.2288  143.2570 H   0  0  0  0  0  0  0  0  0  0  0  0  # atno 7974 bound_to 7965
  154.4913  140.0860  156.7600 H   0  0  0  0  0  0  0  0  0  0  0  0  # atno 8008 bound_to 7997
  155.4224  140.3446  155.4254 H   0  0  0  0  0  0  0  0  0  0  0  0  # atno 8009 bound_to 7997
  156.1333  140.1508  156.9020 H   0  0  0  0  0  0  0  0  0  0  0  0  # atno 8010 bound_to 7997
  139.8406  143.7326  152.2663 H   0  0  0  0  0  0  0  0  0  0  0  0  # atno 10167 bound_to 10162
  157.6775  131.0776  150.5542 H   0  0  0  0  0  0  0  0  0  0  0  0  # atno 10718 bound_to 10713
  153.2805  135.4173  155.1074 H   0  0  0  0  0  0  0  0  0  0  0  0  # atno 10763 bound_to 10752
  154.8488  135.3494  154.6118 H   0  0  0  0  0  0  0  0  0  0  0  0  # atno 10764 bound_to 10752
  153.6539  135.7051  153.5257 H   0  0  0  0  0  0  0  0  0  0  0  0  # atno 10765 bound_to 10752
  141.0047  133.6937  156.2089 H   0  0  0  0  0  0  0  0  0  0  0  0  # atno 11005 bound_to 11000
  146.1986  140.6221  142.9112 LP  0  0  0  0  0  0  0  0  0  0  0  0  # atno 17320 bound_to 7965
  144.7581  140.5356  143.6755 LP  0  0  0  0  0  0  0  0  0  0  0  0  # atno 17321 bound_to 7965
  139.7562  144.7520  151.0431 LP  0  0  0  0  0  0  0  0  0  0  0  0  # atno 17342 bound_to 10162
  140.7798  143.4802  151.0028 LP  0  0  0  0  0  0  0  0  0  0  0  0  # atno 17343 bound_to 10162
  156.5846  130.4313  149.5962 LP  0  0  0  0  0  0  0  0  0  0  0  0  # atno 17370 bound_to 10713
  156.2633  130.6975  151.1750 LP  0  0  0  0  0  0  0  0  0  0  0  0  # atno 17371 bound_to 10713
  140.6831  134.4745  157.5589 LP  0  0  0  0  0  0  0  0  0  0  0  0  # atno 17394 bound_to 11000
  139.9057  134.8454  156.1715 LP  0  0  0  0  0  0  0  0  0  0  0  0  # atno 17395 bound_to 11000

$$$$
