AV-unprocessed.smi:1388|AV-procd|sdf|5645|dock5
  -GOLD-   22720 5263D 1   1.00000     0.00000
 Structure written by MMmdl.
 45 46  0  0  0  0  0  0  0  0  3 V2000
  143.8469  146.0045  156.5656 C   0  0  0  0  0  0  0  0  0  0  0  0
  143.7748  144.7535  155.8196 N   0  5  0  0  0  0  0  0  0  0  0  0
  144.3065  143.5818  156.2655 C   0  0  0  0  0  0  0  0  0  0  0  0
  144.9825  143.3340  157.2688 O   0  0  0  0  0  0  0  0  0  0  0  0
  143.9689  142.4262  155.3152 C   0  0  0  0  0  0  0  0  0  0  0  0
  145.2006  141.8649  154.7029 N   0  3  2  0  0  0  0  0  0  0  0  0
  145.9573  141.0022  155.6449 C   0  0  0  0  0  0  0  0  0  0  0  0
  147.1441  140.3156  154.9444 C   0  0  0  0  0  0  0  0  0  0  0  0
  148.0778  141.3300  154.2624 C   0  0  2  0  0  0  0  0  0  0  0  0
  148.8240  142.0900  155.2648 N   0  0  0  0  0  0  0  0  0  0  0  0
  149.7224  141.5777  156.1186 C   0  0  0  0  0  0  0  0  0  0  0  0
  150.0315  140.3863  156.1430 O   0  0  0  0  0  0  0  0  0  0  0  0
  150.2257  142.5318  156.9218 N   0  0  0  0  0  0  0  0  0  0  0  0
  151.1850  142.3974  157.9649 C   0  0  0  0  0  0  0  0  0  0  0  0
  151.3090  141.2665  158.7038 N   0  0  0  0  0  0  0  0  0  0  0  0
  152.2374  141.2082  159.6805 C   0  0  0  0  0  0  0  0  0  0  0  0
  153.1022  142.2741  159.9818 C   0  0  0  0  0  0  0  0  0  0  0  0
  152.9882  143.4526  159.2247 C   0  0  0  0  0  0  0  0  0  0  0  0
  152.0195  143.5227  158.2010 C   0  0  0  0  0  0  0  0  0  0  0  0
  151.8950  144.7968  157.3813 C   0  0  0  0  0  0  0  0  0  0  0  0
  147.2563  142.2515  153.3397 C   0  0  0  0  0  0  0  0  0  0  0  0
  146.0697  142.8970  154.0771 C   0  0  0  0  0  0  0  0  0  0  0  0
  143.4186  146.8349  156.0049 H   0  0  0  0  0  0  0  0  0  0  0  0
  144.8726  146.2894  156.8023 H   0  0  0  0  0  0  0  0  0  0  0  0
  143.3056  145.9568  157.5109 H   0  0  0  0  0  0  0  0  0  0  0  0
  143.4145  141.6449  155.8377 H   0  0  0  0  0  0  0  0  0  0  0  0
  143.3034  142.8152  154.5425 H   0  0  0  0  0  0  0  0  0  0  0  0
  146.3054  141.6010  156.4878 H   0  0  0  0  0  0  0  0  0  0  0  0
  145.2954  140.2373  156.0528 H   0  0  0  0  0  0  0  0  0  0  0  0
  147.7015  139.7084  155.6588 H   0  0  0  0  0  0  0  0  0  0  0  0
  146.7603  139.6230  154.1939 H   0  0  0  0  0  0  0  0  0  0  0  0
  148.7956  140.7739  153.6564 H   0  0  0  0  0  0  0  0  0  0  0  0
  148.6311  143.0793  155.3202 H   0  0  0  0  0  0  0  0  0  0  0  0
  149.8776  143.4675  156.7764 H   0  0  0  0  0  0  0  0  0  0  0  0
  152.2913  140.2845  160.2373 H   0  0  0  0  0  0  0  0  0  0  0  0
  153.8334  142.1895  160.7722 H   0  0  0  0  0  0  0  0  0  0  0  0
  153.6380  144.2904  159.4299 H   0  0  0  0  0  0  0  0  0  0  0  0
  152.6182  145.5472  157.7019 H   0  0  0  0  0  0  0  0  0  0  0  0
  150.8979  145.2248  157.4893 H   0  0  0  0  0  0  0  0  0  0  0  0
  152.0725  144.5905  156.3256 H   0  0  0  0  0  0  0  0  0  0  0  0
  147.8908  143.0235  152.9025 H   0  0  0  0  0  0  0  0  0  0  0  0
  146.8744  141.6676  152.5010 H   0  0  0  0  0  0  0  0  0  0  0  0
  145.4940  143.4907  153.3665 H   0  0  0  0  0  0  0  0  0  0  0  0
  146.4291  143.5867  154.8423 H   0  0  0  0  0  0  0  0  0  0  0  0
  144.8756  141.2620  153.9594 H   0  0  0  0  0  0  0  0  0  0  0  0
  1  2  1  0  0  0  0
  1 23  1  0  0  0  0
  1 24  1  0  0  0  0
  1 25  1  0  0  0  0
  2  3  1  0  0  0  0
  3  4  2  0  0  0  0
  3  5  1  0  0  0  0
  5  6  1  0  0  0  0
  5 26  1  0  0  0  0
  5 27  1  0  0  0  0
  6 22  1  0  0  0  0
  6  7  1  0  0  0  0
  6 45  1  0  0  0  0
  7  8  1  0  0  0  0
  7 28  1  0  0  0  0
  7 29  1  0  0  0  0
  8  9  1  0  0  0  0
  8 30  1  0  0  0  0
  8 31  1  0  0  0  0
  9 10  1  0  0  0  0
  9 21  1  0  0  0  0
  9 32  1  0  0  0  0
 10 11  1  0  0  0  0
 10 33  1  0  0  0  0
 11 12  2  0  0  0  0
 11 13  1  0  0  0  0
 13 14  1  0  0  0  0
 13 34  1  0  0  0  0
 14 19  1  0  0  0  0
 14 15  2  0  0  0  0
 15 16  1  0  0  0  0
 16 17  2  0  0  0  0
 16 35  1  0  0  0  0
 17 18  1  0  0  0  0
 17 36  1  0  0  0  0
 18 19  2  0  0  0  0
 18 37  1  0  0  0  0
 19 20  1  0  0  0  0
 20 38  1  0  0  0  0
 20 39  1  0  0  0  0
 20 40  1  0  0  0  0
 21 22  1  0  0  0  0
 21 41  1  0  0  0  0
 21 42  1  0  0  0  0
 22 43  1  0  0  0  0
 22 44  1  0  0  0  0
M  CHG  1   2  -1
M  CHG  1   6   1
M  END
> <s_m_source_file>
AV-unprocessed.smi

> <i_m_source_file_index>
1388

> <i_lp_mmshare_version>
43012

> <i_f3d_flags>
0

> <s_epik_input>
W0NIM11bTkhdQyg9TylbQ0gyXU4xW0NIMl1bQ0gyXVtDSF0oW0NIMl1bQ0gyXTEpW05IXUMoPU8pW05IXWMybltjSF1bY0hdW2NIXWMyW0NIM10=

> <s_epik_cmdline>
J2VwaWtfcHl0aG9uJywgJy1waCcsICc3LjAnLCAnLXRuJywgJzgnLCAnLW1hJywgJzIwMCcsICctbWV0YWxfYmluZGluZycsICctaW1hZScsICc8aW5maWxlLm1hZT4nLCAnLW9tYWUnLCAnPG91dGZpbGUubWFlPic=

> <r_epik_Ionization_Penalty>
6.13951

> <r_epik_Ionization_Penalty_Charging>
6.13946

> <r_epik_Ionization_Penalty_Neutral>
4.54304e-05

> <r_epik_State_Penalty>
6.9595

> <r_epik_Charging_Adjusted_Penalty>
13.099

> <i_epik_Tot_Q>
0

> <i_epik_Tot_abs_Q>
2

> <r_epik_Metal_State_Penalty>
2.89141

> <b_epik_Metal_Only>
1

> <s_lp_Force_Field>
OPLS_2005

> <r_lp_Energy>
12.9207

> <b_lp_Chiralities_Consistent>
1

> <s_lp_Variant>
AV-unprocessed.smi:1388-5

> <Gold.Version>
5.8.1

> <Gold.Id.Protein>
6NUR|6NUR_protein|mol2

> <Gold.PLP.Fitness>
48.7257

> <Gold.PLP.PLP>
-37.3650

> <Gold.PLP.part.hbond>
-3.0000

> <Gold.PLP.part.metal>
0.0000

> <Gold.PLP.part.buried>
-7.0337

> <Gold.PLP.part.nonpolar>
-28.1038

> <Gold.PLP.part.repulsive>
0.3573

> <Gold.PLP.ligand.clash>
0.0000

> <Gold.PLP.ligand.torsion>
0.3265

> <Gold.PLP.Chemscore.Hbond>
3.9745

> <Gold.PLP.Chemscore.CHOScore>
0.0000

> <Gold.PLP.Chemscore.Metal>
0.0000

> <Gold.Chemscore.Hbonds>
donor molecule, donor type, donor heavy atom, donor atom, acceptor molecule, acceptor atom, score
      L1  H     6    45       P1 10175  1.95
      L1  H    10    33       P1  8028  1.00
      L1  H    13    34       P1  8028  0.99

> <Gold.PLP.Chemscore.Internal.Correction>
0.0902

> <Gold.Rescore>
     Score         DG    S(hbond)    S(metal)    S(lipo)     H(rot)  DE(clash)    DE(int)     intcor
     18.19     -21.84       2.74        0.00      97.38       1.63       2.93       0.73       ----

> <Gold.Chemscore.Fitness>
18.1852

> <Gold.Chemscore.DG>
-21.8380

> <Gold.Chemscore.ZeroCoef>
-5.4800

> <Gold.Chemscore.Hbond>
2.7359

> <Gold.Chemscore.Metal>
0.0000

> <Gold.Chemscore.Lipo>
97.3804

> <Gold.Chemscore.Internal_Hbond>
0.0000

> <Gold.Chemscore.DEClash>
2.9260

> <Gold.Chemscore.DEInternal>
0.7268

> <Gold.Chemscore.Rot>
1.6303

> <Gold.Chemscore.Internal.Correction>
   9.000000E+99

> <Gold.Chemscore.Hbonds>
donor molecule, donor type, donor heavy atom, donor atom, acceptor molecule, acceptor atom, score
      L1  H     6    45       P1 10175  0.51
      L1  H    10    33       P1  8028  0.99
      L1  H    13    34       P1  8028  0.94

> <Gold.Chemscore.Hbond.Weighted>
-9.1380

> <Gold.Chemscore.Metal.Weighted>
-0.0000

> <Gold.Chemscore.Lipo.Weighted>
-11.3935

> <Gold.Chemscore.Internal_Hbond.Weighted>
0.0000

> <Gold.Chemscore.DEClash.Weighted>
2.9260

> <Gold.Chemscore.DEInternal.Weighted>
0.7268

> <Gold.Chemscore.Rot.Weighted>
4.1735

> <Gold.Chemscore.Internal.Correction.Weighted>
   9.000000E+99

> <Gold.Protein.RotatedTorsions>
[ 6907 6896 6895 6894 ] final  104.58 input  -60.11 | X-H torsion
[ 7974 7965 7964 7962 ] final   20.95 input  175.53 | X-H torsion
[ 8008 7997 7996 7995 ] final   -3.48 input   59.86 | X-H torsion
[ 10167 10162 10161 10158 ] final  112.02 input  -65.29 | X-H torsion
[ 10718 10713 10712 10709 ] final  -35.44 input   66.30 | X-H torsion
[ 10763 10752 10751 10750 ] final -153.25 input  -60.55 | X-H torsion
[ 11005 11000 10999 10996 ] final   36.18 input  -57.11 | X-H torsion

> <Gold.Protein.ActiveResidues>
 VAL166  LYS551  ARG553  GLY616  TRP617  ASP618  TYR619  PRO620  LYS621  CYS622 
 ASP623  PHE694  ASN695  SER759  ASP760  ASP761  ALA762  ILE779  LEU786  VAL792 
 PHE793  MET794  SER795  GLU796  ALA797  LYS798  CYS799  TRP800  GLU811  SER814 

> <Gold.Protein.RotatedAtoms>
  152.5259  133.9655  159.7737 H   0  0  0  0  0  0  0  0  0  0  0  0  # atno 6907 bound_to 6896
  150.9938  133.6115  159.2711 H   0  0  0  0  0  0  0  0  0  0  0  0  # atno 6908 bound_to 6896
  151.3249  135.0834  159.9372 H   0  0  0  0  0  0  0  0  0  0  0  0  # atno 6909 bound_to 6896
  146.2091  139.8096  142.8703 H   0  0  0  0  0  0  0  0  0  0  0  0  # atno 7974 bound_to 7965
  154.6244  140.2508  155.7509 H   0  0  0  0  0  0  0  0  0  0  0  0  # atno 8008 bound_to 7997
  156.2445  140.2920  156.0487 H   0  0  0  0  0  0  0  0  0  0  0  0  # atno 8009 bound_to 7997
  155.1844  140.0390  157.2879 H   0  0  0  0  0  0  0  0  0  0  0  0  # atno 8010 bound_to 7997
  139.6567  144.7129  151.1943 H   0  0  0  0  0  0  0  0  0  0  0  0  # atno 10167 bound_to 10162
  156.3386  130.4290  149.7808 H   0  0  0  0  0  0  0  0  0  0  0  0  # atno 10718 bound_to 10713
  154.7940  135.3217  154.7710 H   0  0  0  0  0  0  0  0  0  0  0  0  # atno 10763 bound_to 10752
  153.8392  135.6872  153.4809 H   0  0  0  0  0  0  0  0  0  0  0  0  # atno 10764 bound_to 10752
  153.1623  135.4656  154.9731 H   0  0  0  0  0  0  0  0  0  0  0  0  # atno 10765 bound_to 10752
  140.2351  134.3481  155.7948 H   0  0  0  0  0  0  0  0  0  0  0  0  # atno 11005 bound_to 11000
  145.3210  141.0244  143.3500 LP  0  0  0  0  0  0  0  0  0  0  0  0  # atno 17320 bound_to 7965
  144.8867  139.4830  143.6697 LP  0  0  0  0  0  0  0  0  0  0  0  0  # atno 17321 bound_to 7965
  140.7562  143.6061  150.8652 LP  0  0  0  0  0  0  0  0  0  0  0  0  # atno 17342 bound_to 10162
  139.9714  143.6052  152.2972 LP  0  0  0  0  0  0  0  0  0  0  0  0  # atno 17343 bound_to 10162
  156.5053  130.8147  151.3148 LP  0  0  0  0  0  0  0  0  0  0  0  0  # atno 17370 bound_to 10713
  157.7443  130.9931  150.2661 LP  0  0  0  0  0  0  0  0  0  0  0  0  # atno 17371 bound_to 10713
  141.2215  133.7267  156.8795 LP  0  0  0  0  0  0  0  0  0  0  0  0  # atno 17394 bound_to 11000
  140.1710  134.9100  157.2833 LP  0  0  0  0  0  0  0  0  0  0  0  0  # atno 17395 bound_to 11000

$$$$
