AV-unprocessed.smi:1266|AV-procd|sdf|5321|dock5
  -GOLD-   22720 4443D 1   1.00000     0.00000
 Structure written by MMmdl.
 40 41  0  0  0  0  0  0  0  0  3 V2000
  153.1258  139.5821  158.5696 O   0  0  0  0  0  0  0  0  0  0  0  0
  153.8243  139.8019  159.5602 C   0  0  0  0  0  0  0  0  0  0  0  0
  154.9585  138.8453  159.9550 C   0  0  0  0  0  0  0  0  0  0  0  0
  154.8090  138.2825  161.3078 N   0  0  0  0  0  0  0  0  0  0  0  0
  155.5774  138.8687  162.3331 C   0  0  0  0  0  0  0  0  0  0  0  0
  155.5202  138.4358  163.6079 C   0  0  0  0  0  0  0  0  0  0  0  0
  156.3202  139.0466  164.6468 N   0  3  0  0  0  0  0  0  0  0  0  0
  157.0308  140.0036  164.3563 O   0  0  0  0  0  0  0  0  0  0  0  0
  156.2662  138.5913  165.7855 O   0  5  0  0  0  0  0  0  0  0  0  0
  154.6292  137.3311  163.9050 C   0  0  0  0  0  0  0  0  0  0  0  0
  153.8962  136.7621  162.9278 C   0  0  0  0  0  0  0  0  0  0  0  0
  153.9649  137.2308  161.5399 C   0  0  0  0  0  0  0  0  0  0  0  0
  153.3034  136.7105  160.6414 O   0  0  0  0  0  0  0  0  0  0  0  0
  153.6646  140.8747  160.3506 N   0  0  0  0  0  0  0  0  0  0  0  0
  152.6581  141.9195  160.1759 C   0  0  0  0  0  0  0  0  0  0  0  0
  152.7628  142.4730  158.7391 C   0  0  0  0  0  0  0  0  0  0  0  0
  151.5500  143.3241  158.3256 C   0  0  0  0  0  0  0  0  0  0  0  0
  151.6275  144.8165  158.6930 C   0  0  0  0  0  0  0  0  0  0  0  0
  152.2287  145.1557  160.0680 C   0  0  0  0  0  0  0  0  0  0  0  0
  151.8738  144.1789  161.2003 C   0  0  0  0  0  0  0  0  0  0  0  0
  152.8380  142.9830  161.2789 C   0  0  0  0  0  0  0  0  0  0  0  0
  155.0035  138.0468  159.2130 H   0  0  0  0  0  0  0  0  0  0  0  0
  155.9134  139.3673  159.8684 H   0  0  0  0  0  0  0  0  0  0  0  0
  156.2133  139.6797  162.0081 H   0  0  0  0  0  0  0  0  0  0  0  0
  154.5432  136.9518  164.9127 H   0  0  0  0  0  0  0  0  0  0  0  0
  153.2395  135.9398  163.1712 H   0  0  0  0  0  0  0  0  0  0  0  0
  154.2861  140.9745  161.1402 H   0  0  0  0  0  0  0  0  0  0  0  0
  151.6709  141.4671  160.2880 H   0  0  0  0  0  0  0  0  0  0  0  0
  153.6922  143.0256  158.5949 H   0  0  0  0  0  0  0  0  0  0  0  0
  152.8127  141.6257  158.0535 H   0  0  0  0  0  0  0  0  0  0  0  0
  151.4236  143.2550  157.2444 H   0  0  0  0  0  0  0  0  0  0  0  0
  150.6419  142.8899  158.7453 H   0  0  0  0  0  0  0  0  0  0  0  0
  152.2036  145.3431  157.9316 H   0  0  0  0  0  0  0  0  0  0  0  0
  150.6202  145.2306  158.6332 H   0  0  0  0  0  0  0  0  0  0  0  0
  153.3134  145.2323  159.9832 H   0  0  0  0  0  0  0  0  0  0  0  0
  151.8929  146.1560  160.3433 H   0  0  0  0  0  0  0  0  0  0  0  0
  151.9458  144.7204  162.1442 H   0  0  0  0  0  0  0  0  0  0  0  0
  150.8374  143.8477  161.1264 H   0  0  0  0  0  0  0  0  0  0  0  0
  152.6968  142.5020  162.2477 H   0  0  0  0  0  0  0  0  0  0  0  0
  153.8669  143.3457  161.2819 H   0  0  0  0  0  0  0  0  0  0  0  0
  1  2  2  0  0  0  0
  2  3  1  0  0  0  0
  2 14  1  0  0  0  0
  3  4  1  0  0  0  0
  3 22  1  0  0  0  0
  3 23  1  0  0  0  0
  4 12  1  0  0  0  0
  4  5  1  0  0  0  0
  5  6  2  0  0  0  0
  5 24  1  0  0  0  0
  6  7  1  0  0  0  0
  6 10  1  0  0  0  0
  7  8  2  0  0  0  0
  7  9  1  0  0  0  0
 10 11  2  0  0  0  0
 10 25  1  0  0  0  0
 11 12  1  0  0  0  0
 11 26  1  0  0  0  0
 12 13  2  0  0  0  0
 14 15  1  0  0  0  0
 14 27  1  0  0  0  0
 15 21  1  0  0  0  0
 15 16  1  0  0  0  0
 15 28  1  0  0  0  0
 16 17  1  0  0  0  0
 16 29  1  0  0  0  0
 16 30  1  0  0  0  0
 17 18  1  0  0  0  0
 17 31  1  0  0  0  0
 17 32  1  0  0  0  0
 18 19  1  0  0  0  0
 18 33  1  0  0  0  0
 18 34  1  0  0  0  0
 19 20  1  0  0  0  0
 19 35  1  0  0  0  0
 19 36  1  0  0  0  0
 20 21  1  0  0  0  0
 20 37  1  0  0  0  0
 20 38  1  0  0  0  0
 21 39  1  0  0  0  0
 21 40  1  0  0  0  0
M  CHG  1   7   1
M  CHG  1   9  -1
M  END
> <s_m_source_file>
AV-unprocessed.smi

> <i_m_source_file_index>
1266

> <i_lp_mmshare_version>
43012

> <i_f3d_flags>
0

> <s_epik_input>
W0NIMl0xW0NIMl1bQ0gyXVtDSDJdW0NIMl1bQ0gyXVtDSF0xW05IXUMoPU8pW0NIMl1uMltjSF1jKFtOK10oPU8pW08tXSlbY0hdW2NIXWMyPU8=

> <s_epik_cmdline>
J2VwaWtfcHl0aG9uJywgJy1waCcsICc3LjAnLCAnLXRuJywgJzgnLCAnLW1hJywgJzIwMCcsICctbWV0YWxfYmluZGluZycsICctaW1hZScsICc8aW5maWxlLm1hZT4nLCAnLW9tYWUnLCAnPG91dGZpbGUubWFlPic=

> <r_lp_tautomer_probability>
1

> <r_epik_Ionization_Penalty>
2.02954e-08

> <r_epik_Ionization_Penalty_Charging>
8.05481e-11

> <r_epik_Ionization_Penalty_Neutral>
2.02148e-08

> <r_epik_State_Penalty>
-0

> <r_epik_Charging_Adjusted_Penalty>
8.05481e-11

> <i_epik_Tot_Q>
0

> <i_epik_Tot_abs_Q>
2

> <r_epik_Metal_State_Penalty>
-0

> <b_epik_Metal_Only>
0

> <s_lp_Force_Field>
OPLS_2005

> <r_lp_Energy>
25.8216

> <b_lp_Chiralities_Consistent>
1

> <s_lp_Variant>
AV-unprocessed.smi:1266-1

> <Gold.Version>
5.8.1

> <Gold.Id.Protein>
6NUR|6NUR_protein|mol2

> <Gold.PLP.Fitness>
50.0822

> <Gold.PLP.PLP>
-45.9408

> <Gold.PLP.part.hbond>
-1.8650

> <Gold.PLP.part.metal>
0.0000

> <Gold.PLP.part.buried>
-6.6954

> <Gold.PLP.part.nonpolar>
-37.3780

> <Gold.PLP.part.repulsive>
0.1698

> <Gold.PLP.ligand.clash>
0.0000

> <Gold.PLP.ligand.torsion>
0.2995

> <Gold.PLP.Chemscore.Hbond>
1.5688

> <Gold.PLP.Chemscore.CHOScore>
0.0000

> <Gold.PLP.Chemscore.Metal>
0.0000

> <Gold.Chemscore.Hbonds>
donor molecule, donor type, donor heavy atom, donor atom, acceptor molecule, acceptor atom, score
      P1  H  6896  6907       L1    13  0.68
      P1  H  7997  8009       L1     1  0.55

> <Gold.PLP.Chemscore.Internal.Correction>
0.0342

> <Gold.Rescore>
     Score         DG    S(hbond)    S(metal)    S(lipo)     H(rot)  DE(clash)    DE(int)     intcor
     18.78     -20.59       1.69        0.00     114.83       1.55       0.04       1.77       ----

> <Gold.Chemscore.Fitness>
18.7779

> <Gold.Chemscore.DG>
-20.5930

> <Gold.Chemscore.ZeroCoef>
-5.4800

> <Gold.Chemscore.Hbond>
1.6906

> <Gold.Chemscore.Metal>
0.0000

> <Gold.Chemscore.Lipo>
114.8336

> <Gold.Chemscore.Internal_Hbond>
0.0000

> <Gold.Chemscore.DEClash>
0.0431

> <Gold.Chemscore.DEInternal>
1.7719

> <Gold.Chemscore.Rot>
1.5505

> <Gold.Chemscore.Internal.Correction>
   9.000000E+99

> <Gold.Chemscore.Hbonds>
donor molecule, donor type, donor heavy atom, donor atom, acceptor molecule, acceptor atom, score
      P1  H  6896  6907       L1    13  0.69
      P1  H  7997  8009       L1     1  0.09

> <Gold.Chemscore.Hbond.Weighted>
-5.6466

> <Gold.Chemscore.Metal.Weighted>
-0.0000

> <Gold.Chemscore.Lipo.Weighted>
-13.4355

> <Gold.Chemscore.Internal_Hbond.Weighted>
0.0000

> <Gold.Chemscore.DEClash.Weighted>
0.0431

> <Gold.Chemscore.DEInternal.Weighted>
1.7719

> <Gold.Chemscore.Rot.Weighted>
3.9692

> <Gold.Chemscore.Internal.Correction.Weighted>
   9.000000E+99

> <Gold.Protein.RotatedTorsions>
[ 6907 6896 6895 6894 ] final   30.01 input  -60.11 | X-H torsion
[ 7974 7965 7964 7962 ] final  -56.15 input  175.53 | X-H torsion
[ 8008 7997 7996 7995 ] final  151.88 input   59.86 | X-H torsion
[ 10167 10162 10161 10158 ] final -169.41 input  -65.29 | X-H torsion
[ 10718 10713 10712 10709 ] final   63.93 input   66.30 | X-H torsion
[ 10763 10752 10751 10750 ] final   73.85 input  -60.55 | X-H torsion
[ 11005 11000 10999 10996 ] final -141.27 input  -57.11 | X-H torsion

> <Gold.Protein.ActiveResidues>
 VAL166  LYS551  ARG553  GLY616  TRP617  ASP618  TYR619  PRO620  LYS621  CYS622 
 ASP623  PHE694  ASN695  SER759  ASP760  ASP761  ALA762  ILE779  LEU786  VAL792 
 PHE793  MET794  SER795  GLU796  ALA797  LYS798  CYS799  TRP800  GLU811  SER814 

> <Gold.Protein.RotatedAtoms>
  152.0398  134.9718  160.0573 H   0  0  0  0  0  0  0  0  0  0  0  0  # atno 6907 bound_to 6896
  152.1161  133.4323  159.4662 H   0  0  0  0  0  0  0  0  0  0  0  0  # atno 6908 bound_to 6896
  150.6846  134.2509  159.4553 H   0  0  0  0  0  0  0  0  0  0  0  0  # atno 6909 bound_to 6896
  145.8660  140.8251  142.9912 H   0  0  0  0  0  0  0  0  0  0  0  0  # atno 7974 bound_to 7965
  156.2654  140.2036  156.6246 H   0  0  0  0  0  0  0  0  0  0  0  0  # atno 8008 bound_to 7997
  154.6730  140.0548  157.0210 H   0  0  0  0  0  0  0  0  0  0  0  0  # atno 8009 bound_to 7997
  155.1109  140.3215  155.4525 H   0  0  0  0  0  0  0  0  0  0  0  0  # atno 8010 bound_to 7997
  139.5924  144.1184  152.1650 H   0  0  0  0  0  0  0  0  0  0  0  0  # atno 10167 bound_to 10162
  157.6005  130.9132  149.9780 H   0  0  0  0  0  0  0  0  0  0  0  0  # atno 10718 bound_to 10713
  153.0548  135.5047  154.7955 H   0  0  0  0  0  0  0  0  0  0  0  0  # atno 10763 bound_to 10752
  154.6789  135.2965  154.9643 H   0  0  0  0  0  0  0  0  0  0  0  0  # atno 10764 bound_to 10752
  154.0435  135.6713  153.4845 H   0  0  0  0  0  0  0  0  0  0  0  0  # atno 10765 bound_to 10752
  140.8340  134.2482  157.4843 H   0  0  0  0  0  0  0  0  0  0  0  0  # atno 11005 bound_to 11000
  144.6726  140.1167  143.7452 LP  0  0  0  0  0  0  0  0  0  0  0  0  # atno 17320 bound_to 7965
  145.9192  139.2535  143.1391 LP  0  0  0  0  0  0  0  0  0  0  0  0  # atno 17321 bound_to 7965
  140.0761  144.5739  150.7156 LP  0  0  0  0  0  0  0  0  0  0  0  0  # atno 17342 bound_to 10162
  140.7184  143.2566  151.4358 LP  0  0  0  0  0  0  0  0  0  0  0  0  # atno 17343 bound_to 10162
  156.1077  130.3651  150.0104 LP  0  0  0  0  0  0  0  0  0  0  0  0  # atno 17370 bound_to 10713
  156.8208  130.9358  151.3641 LP  0  0  0  0  0  0  0  0  0  0  0  0  # atno 17371 bound_to 10713
  139.8704  134.9601  156.4353 LP  0  0  0  0  0  0  0  0  0  0  0  0  # atno 17394 bound_to 11000
  140.8967  133.7809  155.9633 LP  0  0  0  0  0  0  0  0  0  0  0  0  # atno 17395 bound_to 11000

$$$$
