AV-unprocessed.smi:1229|AV-procd|sdf|5150|dock1
  -GOLD-   22720 4223D 1   1.00000     0.00000
 Structure written by MMmdl.
 46 47  0  0  0  0  0  0  0  0  2 V2000
  147.6392  133.0134  152.2774 C   0  0  0  0  0  0  0  0  0  0  0  0
  146.2870  132.9677  151.5844 C   0  0  0  0  0  0  0  0  0  0  0  0
  145.6465  131.7234  151.4030 C   0  0  0  0  0  0  0  0  0  0  0  0
  144.3964  131.6826  150.7623 C   0  0  0  0  0  0  0  0  0  0  0  0
  143.8368  132.8957  150.3261 C   0  0  0  0  0  0  0  0  0  0  0  0
  144.4421  134.0891  150.4946 N   0  0  0  0  0  0  0  0  0  0  0  0
  145.6489  134.1462  151.1125 C   0  0  0  0  0  0  0  0  0  0  0  0
  146.3463  135.3693  151.3240 N   0  0  0  0  0  0  0  0  0  0  0  0
  145.8384  136.5941  151.5477 C   0  0  0  0  0  0  0  0  0  0  0  0
  144.6403  136.8705  151.6165 O   0  0  0  0  0  0  0  0  0  0  0  0
  146.8118  137.5070  151.6842 N   0  0  0  0  0  0  0  0  0  0  0  0
  146.5952  138.9285  151.9374 C   0  0  0  0  0  0  0  0  0  0  0  0
  147.4266  139.4357  153.1341 C   0  0  2  0  0  0  0  0  0  0  0  0
  148.5825  138.6277  153.2401 O   0  0  0  0  0  0  0  0  0  0  0  0
  146.6480  139.3131  154.4596 C   0  0  0  0  0  0  0  0  0  0  0  0
  145.7187  140.4513  154.6780 N   0  3  0  0  0  0  0  0  0  0  0  0
  146.3839  141.7681  154.4994 C   0  0  0  0  0  0  0  0  0  0  0  0
  145.3671  142.9197  154.5822 C   0  0  0  0  0  0  0  0  0  0  0  0
  144.5882  142.8748  155.9032 C   0  0  0  0  0  0  0  0  0  0  0  0
  143.9421  141.4952  156.0844 C   0  0  0  0  0  0  0  0  0  0  0  0
  144.9929  140.3777  155.9749 C   0  0  0  0  0  0  0  0  0  0  0  0
  147.9608  132.0186  152.5867 H   0  0  0  0  0  0  0  0  0  0  0  0
  147.5919  133.6416  153.1676 H   0  0  0  0  0  0  0  0  0  0  0  0
  148.3979  133.4175  151.6066 H   0  0  0  0  0  0  0  0  0  0  0  0
  146.1047  130.8088  151.7500 H   0  0  0  0  0  0  0  0  0  0  0  0
  143.8805  130.7461  150.6090 H   0  0  0  0  0  0  0  0  0  0  0  0
  142.8781  132.9093  149.8290 H   0  0  0  0  0  0  0  0  0  0  0  0
  147.3527  135.3005  151.2977 H   0  0  0  0  0  0  0  0  0  0  0  0
  147.7703  137.1970  151.6160 H   0  0  0  0  0  0  0  0  0  0  0  0
  146.8644  139.4789  151.0340 H   0  0  0  0  0  0  0  0  0  0  0  0
  145.5313  139.1121  152.0936 H   0  0  0  0  0  0  0  0  0  0  0  0
  147.7279  140.4692  152.9678 H   0  0  0  0  0  0  0  0  0  0  0  0
  149.2443  138.9735  152.6597 H   0  0  0  0  0  0  0  0  0  0  0  0
  146.0800  138.3819  154.4887 H   0  0  0  0  0  0  0  0  0  0  0  0
  147.3668  139.2533  155.2787 H   0  0  0  0  0  0  0  0  0  0  0  0
  147.1593  141.8923  155.2571 H   0  0  0  0  0  0  0  0  0  0  0  0
  146.8796  141.8023  153.5284 H   0  0  0  0  0  0  0  0  0  0  0  0
  145.8791  143.8774  154.4838 H   0  0  0  0  0  0  0  0  0  0  0  0
  144.6715  142.8533  153.7446 H   0  0  0  0  0  0  0  0  0  0  0  0
  145.2617  143.0794  156.7365 H   0  0  0  0  0  0  0  0  0  0  0  0
  143.8257  143.6540  155.9190 H   0  0  0  0  0  0  0  0  0  0  0  0
  143.4411  141.4427  157.0514 H   0  0  0  0  0  0  0  0  0  0  0  0
  143.1704  141.3477  155.3276 H   0  0  0  0  0  0  0  0  0  0  0  0
  144.4952  139.4148  156.0819 H   0  0  0  0  0  0  0  0  0  0  0  0
  145.7065  140.4546  156.7970 H   0  0  0  0  0  0  0  0  0  0  0  0
  145.0252  140.3877  153.9461 H   0  0  0  0  0  0  0  0  0  0  0  0
  1  2  1  0  0  0  0
  1 22  1  0  0  0  0
  1 23  1  0  0  0  0
  1 24  1  0  0  0  0
  2  7  1  0  0  0  0
  2  3  2  0  0  0  0
  3  4  1  0  0  0  0
  3 25  1  0  0  0  0
  4  5  2  0  0  0  0
  4 26  1  0  0  0  0
  5  6  1  0  0  0  0
  5 27  1  0  0  0  0
  6  7  2  0  0  0  0
  7  8  1  0  0  0  0
  8  9  1  0  0  0  0
  8 28  1  0  0  0  0
  9 10  2  0  0  0  0
  9 11  1  0  0  0  0
 11 12  1  0  0  0  0
 11 29  1  0  0  0  0
 12 13  1  0  0  0  0
 12 30  1  0  0  0  0
 12 31  1  0  0  0  0
 13 14  1  0  0  0  0
 13 15  1  0  0  0  0
 13 32  1  0  0  0  0
 14 33  1  0  0  0  0
 15 16  1  0  0  0  0
 15 34  1  0  0  0  0
 15 35  1  0  0  0  0
 16 21  1  0  0  0  0
 16 17  1  0  0  0  0
 16 46  1  0  0  0  0
 17 18  1  0  0  0  0
 17 36  1  0  0  0  0
 17 37  1  0  0  0  0
 18 19  1  0  0  0  0
 18 38  1  0  0  0  0
 18 39  1  0  0  0  0
 19 20  1  0  0  0  0
 19 40  1  0  0  0  0
 19 41  1  0  0  0  0
 20 21  1  0  0  0  0
 20 42  1  0  0  0  0
 20 43  1  0  0  0  0
 21 44  1  0  0  0  0
 21 45  1  0  0  0  0
M  CHG  1  16   1
M  END
> <s_m_source_file>
AV-unprocessed.smi

> <i_m_source_file_index>
1229

> <i_lp_mmshare_version>
43012

> <i_f3d_flags>
0

> <s_epik_input>
W0NIM11jMVtjSF1bY0hdW2NIXW5jMVtOSF1DKD1PKVtOSF1bQ0gyXVtDQEhdKFtPSF0pW0NIMl1OMltDSDJdW0NIMl1bQ0gyXVtDSDJdW0NIMl0y

> <s_epik_cmdline>
J2VwaWtfcHl0aG9uJywgJy1waCcsICc3LjAnLCAnLXRuJywgJzgnLCAnLW1hJywgJzIwMCcsICctbWV0YWxfYmluZGluZycsICctaW1hZScsICc8aW5maWxlLm1hZT4nLCAnLW9tYWUnLCAnPG91dGZpbGUubWFlPic=

> <r_epik_Ionization_Penalty>
0.00511007

> <r_epik_Ionization_Penalty_Charging>
0.00506051

> <r_epik_Ionization_Penalty_Neutral>
4.95577e-05

> <r_epik_State_Penalty>
0.00368188

> <r_epik_Charging_Adjusted_Penalty>
0.0087424

> <i_epik_Tot_Q>
1

> <i_epik_Tot_abs_Q>
1

> <r_epik_Metal_State_Penalty>
-0

> <b_epik_Metal_Only>
0

> <s_lp_Force_Field>
OPLS_2005

> <r_lp_Energy>
20.9384

> <b_lp_Chiralities_Consistent>
1

> <s_lp_Variant>
AV-unprocessed.smi:1229-1

> <Gold.Version>
5.8.1

> <Gold.Id.Protein>
6NUR|6NUR_protein|mol2

> <Gold.PLP.Fitness>
51.8686

> <Gold.PLP.PLP>
-35.9649

> <Gold.PLP.part.hbond>
-4.9803

> <Gold.PLP.part.metal>
0.0000

> <Gold.PLP.part.buried>
-4.6564

> <Gold.PLP.part.nonpolar>
-30.4934

> <Gold.PLP.part.repulsive>
3.0621

> <Gold.PLP.ligand.clash>
0.0000

> <Gold.PLP.ligand.torsion>
0.8995

> <Gold.PLP.Chemscore.Hbond>
4.8640

> <Gold.PLP.Chemscore.CHOScore>
0.9890

> <Gold.PLP.Chemscore.Metal>
0.0000

> <Gold.Chemscore.Hbonds>
donor molecule, donor type, donor heavy atom, donor atom, acceptor molecule, acceptor atom, score
      L1  H     8    28       P1  7948  0.86
      L1  H    11    29       P1  7948  0.96
      L1  H    14    33       P1  7957  0.93
      L1  H    16    46       P1 10175  2.00
      L1  C     5    27       P1 10186  1.00

> <Gold.PLP.Chemscore.Internal.Correction>
0.1437

> <Gold.Rescore>
     Score         DG    S(hbond)    S(metal)    S(lipo)     H(rot)  DE(clash)    DE(int)     intcor
     17.48     -20.93       3.84        0.00      73.05       2.31       1.42       2.04       ----

> <Gold.Chemscore.Fitness>
17.4765

> <Gold.Chemscore.DG>
-20.9331

> <Gold.Chemscore.ZeroCoef>
-5.4800

> <Gold.Chemscore.Hbond>
3.8379

> <Gold.Chemscore.Metal>
0.0000

> <Gold.Chemscore.Lipo>
73.0513

> <Gold.Chemscore.Internal_Hbond>
0.0000

> <Gold.Chemscore.DEClash>
1.4182

> <Gold.Chemscore.DEInternal>
2.0383

> <Gold.Chemscore.Rot>
2.3095

> <Gold.Chemscore.Internal.Correction>
   9.000000E+99

> <Gold.Chemscore.Hbonds>
donor molecule, donor type, donor heavy atom, donor atom, acceptor molecule, acceptor atom, score
      L1  H     8    28       P1  7948  0.63
      L1  H    11    29       P1  7948  0.89
      L1  H    14    33       P1  7957  0.89
      L1  H    16    46       P1 10175  0.97

> <Gold.Chemscore.Hbond.Weighted>
-12.8185

> <Gold.Chemscore.Metal.Weighted>
-0.0000

> <Gold.Chemscore.Lipo.Weighted>
-8.5470

> <Gold.Chemscore.Internal_Hbond.Weighted>
0.0000

> <Gold.Chemscore.DEClash.Weighted>
1.4182

> <Gold.Chemscore.DEInternal.Weighted>
2.0383

> <Gold.Chemscore.Rot.Weighted>
5.9124

> <Gold.Chemscore.Internal.Correction.Weighted>
   9.000000E+99

> <Gold.Protein.RotatedTorsions>
[ 6907 6896 6895 6894 ] final -160.92 input  -60.11 | X-H torsion
[ 7974 7965 7964 7962 ] final  -50.61 input  175.53 | X-H torsion
[ 8008 7997 7996 7995 ] final  -57.40 input   59.86 | X-H torsion
[ 10167 10162 10161 10158 ] final    3.80 input  -65.29 | X-H torsion
[ 10718 10713 10712 10709 ] final  117.04 input   66.30 | X-H torsion
[ 10763 10752 10751 10750 ] final -115.60 input  -60.55 | X-H torsion
[ 11005 11000 10999 10996 ] final -168.75 input  -57.11 | X-H torsion

> <Gold.Protein.ActiveResidues>
 VAL166  LYS551  ARG553  GLY616  TRP617  ASP618  TYR619  PRO620  LYS621  CYS622 
 ASP623  PHE694  ASN695  SER759  ASP760  ASP761  ALA762  ILE779  LEU786  VAL792 
 PHE793  MET794  SER795  GLU796  ALA797  LYS798  CYS799  TRP800  GLU811  SER814 

> <Gold.Protein.RotatedAtoms>
  151.3566  133.3905  159.2685 H   0  0  0  0  0  0  0  0  0  0  0  0  # atno 6907 bound_to 6896
  150.9759  134.9124  159.7826 H   0  0  0  0  0  0  0  0  0  0  0  0  # atno 6908 bound_to 6896
  152.5200  134.3529  159.9310 H   0  0  0  0  0  0  0  0  0  0  0  0  # atno 6909 bound_to 6896
  145.9279  140.7775  142.9614 H   0  0  0  0  0  0  0  0  0  0  0  0  # atno 7974 bound_to 7965
  154.4267  140.1107  156.5792 H   0  0  0  0  0  0  0  0  0  0  0  0  # atno 8008 bound_to 7997
  155.6131  140.3494  155.4609 H   0  0  0  0  0  0  0  0  0  0  0  0  # atno 8009 bound_to 7997
  156.0084  140.1214  157.0468 H   0  0  0  0  0  0  0  0  0  0  0  0  # atno 8010 bound_to 7997
  140.6567  143.7408  150.7666 H   0  0  0  0  0  0  0  0  0  0  0  0  # atno 10167 bound_to 10162
  157.6122  131.1032  150.7558 H   0  0  0  0  0  0  0  0  0  0  0  0  # atno 10718 bound_to 10713
  154.8487  135.4376  154.1688 H   0  0  0  0  0  0  0  0  0  0  0  0  # atno 10763 bound_to 10752
  153.2807  135.6953  153.7395 H   0  0  0  0  0  0  0  0  0  0  0  0  # atno 10764 bound_to 10752
  153.6600  135.3436  155.3099 H   0  0  0  0  0  0  0  0  0  0  0  0  # atno 10765 bound_to 10752
  140.5385  134.5546  157.5093 H   0  0  0  0  0  0  0  0  0  0  0  0  # atno 11005 bound_to 11000
  144.6761  140.2080  143.7380 LP  0  0  0  0  0  0  0  0  0  0  0  0  # atno 17320 bound_to 7965
  145.8464  139.2154  143.1797 LP  0  0  0  0  0  0  0  0  0  0  0  0  # atno 17321 bound_to 7965
  140.1069  143.4735  152.2392 LP  0  0  0  0  0  0  0  0  0  0  0  0  # atno 17342 bound_to 10162
  139.5791  144.7502  151.3686 LP  0  0  0  0  0  0  0  0  0  0  0  0  # atno 17343 bound_to 10162
  156.7933  130.4897  149.5381 LP  0  0  0  0  0  0  0  0  0  0  0  0  # atno 17370 bound_to 10713
  156.1229  130.6123  151.0221 LP  0  0  0  0  0  0  0  0  0  0  0  0  # atno 17371 bound_to 10713
  139.9516  134.7606  156.0435 LP  0  0  0  0  0  0  0  0  0  0  0  0  # atno 17394 bound_to 11000
  141.1241  133.6604  156.3290 LP  0  0  0  0  0  0  0  0  0  0  0  0  # atno 17395 bound_to 11000

$$$$
