AV-unprocessed.smi:2668|AV-procd|sdf|10342|dock2
  -GOLD-   2272014363D 1   1.00000     0.00000
 Structure written by MMmdl.
 53 54  0  0  0  0  0  0  0  0  2 V2000
  144.9455  134.9406  155.2696 C   0  0  0  0  0  0  0  0  0  0  0  0
  145.7066  135.7374  154.3098 N   0  0  0  0  0  0  0  0  0  0  0  0
  146.4327  134.7897  153.4666 C   0  0  0  0  0  0  0  0  0  0  0  0
  144.8415  136.6326  153.5155 C   0  0  2  0  0  0  0  0  0  0  0  0
  145.6218  137.4502  152.4614 C   0  0  0  0  0  0  0  0  0  0  0  0
  146.5149  138.5255  153.1049 C   0  0  0  0  0  0  0  0  0  0  0  0
  145.7210  139.4673  153.9500 N   0  3  2  0  0  0  0  0  0  0  0  0
  146.4656  140.6863  154.4380 C   0  0  0  0  0  0  0  0  0  0  0  0
  147.2061  141.3625  153.2559 C   0  0  0  0  0  0  0  0  0  0  0  0
  145.4556  141.7388  154.9628 C   0  0  0  0  0  0  0  0  0  0  0  0
  147.4907  140.3117  155.5509 C   0  0  0  0  0  0  0  0  0  0  0  0
  148.3772  141.4137  155.9236 N   0  0  0  0  0  0  0  0  0  0  0  0
  149.3599  141.3514  156.8338 C   0  0  0  0  0  0  0  0  0  0  0  0
  149.6189  140.3390  157.4839 O   0  0  0  0  0  0  0  0  0  0  0  0
  150.0140  142.5222  156.9211 N   0  0  0  0  0  0  0  0  0  0  0  0
  151.1073  142.8653  157.7619 C   0  0  0  0  0  0  0  0  0  0  0  0
  151.7536  141.9618  158.6402 C   0  0  0  0  0  0  0  0  0  0  0  0
  152.8159  142.4308  159.4367 C   0  0  0  0  0  0  0  0  0  0  0  0
  153.1892  143.7846  159.3318 C   0  0  0  0  0  0  0  0  0  0  0  0
  152.5738  144.6599  158.5093 N   0  0  0  0  0  0  0  0  0  0  0  0
  151.5556  144.2034  157.7494 C   0  0  0  0  0  0  0  0  0  0  0  0
  144.9586  138.7197  154.9951 C   0  0  0  0  0  0  0  0  0  0  0  0
  144.0487  137.6459  154.3724 C   0  0  0  0  0  0  0  0  0  0  0  0
  144.5190  135.5603  156.0568 H   0  0  0  0  0  0  0  0  0  0  0  0
  145.5902  134.2179  155.7718 H   0  0  0  0  0  0  0  0  0  0  0  0
  144.1391  134.3914  154.7812 H   0  0  0  0  0  0  0  0  0  0  0  0
  147.1640  135.2885  152.8330 H   0  0  0  0  0  0  0  0  0  0  0  0
  145.7531  134.2195  152.8316 H   0  0  0  0  0  0  0  0  0  0  0  0
  146.9965  134.0823  154.0763 H   0  0  0  0  0  0  0  0  0  0  0  0
  144.1220  136.0010  152.9918 H   0  0  0  0  0  0  0  0  0  0  0  0
  146.2055  136.8203  151.7924 H   0  0  0  0  0  0  0  0  0  0  0  0
  144.9036  137.9484  151.8086 H   0  0  0  0  0  0  0  0  0  0  0  0
  147.2902  138.0442  153.7013 H   0  0  0  0  0  0  0  0  0  0  0  0
  147.0187  139.0468  152.2942 H   0  0  0  0  0  0  0  0  0  0  0  0
  147.5815  142.3501  153.5271 H   0  0  0  0  0  0  0  0  0  0  0  0
  146.5471  141.4969  152.3972 H   0  0  0  0  0  0  0  0  0  0  0  0
  148.0760  140.7936  152.9287 H   0  0  0  0  0  0  0  0  0  0  0  0
  145.9256  142.7107  155.1169 H   0  0  0  0  0  0  0  0  0  0  0  0
  145.0258  141.4595  155.9245 H   0  0  0  0  0  0  0  0  0  0  0  0
  144.6367  141.8914  154.2588 H   0  0  0  0  0  0  0  0  0  0  0  0
  146.9846  139.9324  156.4391 H   0  0  0  0  0  0  0  0  0  0  0  0
  148.1397  139.5042  155.2135 H   0  0  0  0  0  0  0  0  0  0  0  0
  148.2403  142.2882  155.4379 H   0  0  0  0  0  0  0  0  0  0  0  0
  149.7351  143.2364  156.2642 H   0  0  0  0  0  0  0  0  0  0  0  0
  151.4502  140.9304  158.7305 H   0  0  0  0  0  0  0  0  0  0  0  0
  153.3299  141.7679  160.1168 H   0  0  0  0  0  0  0  0  0  0  0  0
  153.9992  144.1762  159.9292 H   0  0  0  0  0  0  0  0  0  0  0  0
  151.0849  144.9321  157.1055 H   0  0  0  0  0  0  0  0  0  0  0  0
  145.6443  138.2498  155.7002 H   0  0  0  0  0  0  0  0  0  0  0  0
  144.3185  139.3827  155.5730 H   0  0  0  0  0  0  0  0  0  0  0  0
  143.3206  138.1450  153.7313 H   0  0  0  0  0  0  0  0  0  0  0  0
  143.4464  137.1617  155.1393 H   0  0  0  0  0  0  0  0  0  0  0  0
  145.0147  139.8383  153.3307 H   0  0  0  0  0  0  0  0  0  0  0  0
  1  2  1  0  0  0  0
  1 24  1  0  0  0  0
  1 25  1  0  0  0  0
  1 26  1  0  0  0  0
  2  3  1  0  0  0  0
  2  4  1  0  0  0  0
  3 27  1  0  0  0  0
  3 28  1  0  0  0  0
  3 29  1  0  0  0  0
  4 23  1  0  0  0  0
  4  5  1  0  0  0  0
  4 30  1  0  0  0  0
  5  6  1  0  0  0  0
  5 31  1  0  0  0  0
  5 32  1  0  0  0  0
  6  7  1  0  0  0  0
  6 33  1  0  0  0  0
  6 34  1  0  0  0  0
  7  8  1  0  0  0  0
  7 22  1  0  0  0  0
  7 53  1  0  0  0  0
  8  9  1  0  0  0  0
  8 10  1  0  0  0  0
  8 11  1  0  0  0  0
  9 35  1  0  0  0  0
  9 36  1  0  0  0  0
  9 37  1  0  0  0  0
 10 38  1  0  0  0  0
 10 39  1  0  0  0  0
 10 40  1  0  0  0  0
 11 12  1  0  0  0  0
 11 41  1  0  0  0  0
 11 42  1  0  0  0  0
 12 13  1  0  0  0  0
 12 43  1  0  0  0  0
 13 14  2  0  0  0  0
 13 15  1  0  0  0  0
 15 16  1  0  0  0  0
 15 44  1  0  0  0  0
 16 21  1  0  0  0  0
 16 17  2  0  0  0  0
 17 18  1  0  0  0  0
 17 45  1  0  0  0  0
 18 19  2  0  0  0  0
 18 46  1  0  0  0  0
 19 20  1  0  0  0  0
 19 47  1  0  0  0  0
 20 21  2  0  0  0  0
 21 48  1  0  0  0  0
 22 23  1  0  0  0  0
 22 49  1  0  0  0  0
 22 50  1  0  0  0  0
 23 51  1  0  0  0  0
 23 52  1  0  0  0  0
M  CHG  1   7   1
M  END
> <s_m_source_file>
AV-unprocessed.smi

> <i_m_source_file_index>
2668

> <i_lp_mmshare_version>
43012

> <i_f3d_flags>
0

> <s_epik_input>
W0NIM11OKFtDSDNdKVtDSF0xW0NIMl1bQ0gyXU4oW0NIMl1bQ0gyXTEpQyhbQ0gzXSkoW0NIM10pW0NIMl1bTkhdQyg9TylbTkhdYzJbY0hdW2NIXVtjSF1uW2NIXTI=

> <s_epik_cmdline>
J2VwaWtfcHl0aG9uJywgJy1waCcsICc3LjAnLCAnLXRuJywgJzgnLCAnLW1hJywgJzIwMCcsICctbWV0YWxfYmluZGluZycsICctaW1hZScsICc8aW5maWxlLm1hZT4nLCAnLW9tYWUnLCAnPG91dGZpbGUubWFlPic=

> <r_epik_Ionization_Penalty>
1.32573

> <r_epik_Ionization_Penalty_Charging>
0.00219175

> <r_epik_Ionization_Penalty_Neutral>
1.32353

> <r_epik_State_Penalty>
1.51166

> <r_epik_Charging_Adjusted_Penalty>
1.51385

> <i_epik_Tot_Q>
1

> <i_epik_Tot_abs_Q>
1

> <r_epik_Metal_State_Penalty>
1.51178

> <b_epik_Metal_Only>
0

> <s_lp_Force_Field>
OPLS_2005

> <r_lp_Energy>
39.6139

> <b_lp_Chiralities_Consistent>
1

> <s_lp_Variant>
AV-unprocessed.smi:2668-5

> <Gold.Version>
5.8.1

> <Gold.Id.Protein>
6NUR|6NUR_protein|mol2

> <Gold.PLP.Fitness>
42.0009

> <Gold.PLP.PLP>
-30.5612

> <Gold.PLP.part.hbond>
-2.0000

> <Gold.PLP.part.metal>
0.0000

> <Gold.PLP.part.buried>
-5.9875

> <Gold.PLP.part.nonpolar>
-23.5340

> <Gold.PLP.part.repulsive>
0.1113

> <Gold.PLP.ligand.clash>
0.0000

> <Gold.PLP.ligand.torsion>
0.1903

> <Gold.PLP.Chemscore.Hbond>
3.0000

> <Gold.PLP.Chemscore.CHOScore>
0.9000

> <Gold.PLP.Chemscore.Metal>
0.0000

> <Gold.Chemscore.Hbonds>
donor molecule, donor type, donor heavy atom, donor atom, acceptor molecule, acceptor atom, score
      L1  H     7    53       P1 10175  2.00
      L1  H    15    44       P1  8028  1.00
      L1  C    21    48       P1  8028  0.84

> <Gold.PLP.Chemscore.Internal.Correction>
0.1203

> <Gold.Rescore>
     Score         DG    S(hbond)    S(metal)    S(lipo)     H(rot)  DE(clash)    DE(int)     intcor
     18.79     -20.63       2.54        0.00      92.57       1.62       0.49       1.35       ----

> <Gold.Chemscore.Fitness>
18.7882

> <Gold.Chemscore.DG>
-20.6309

> <Gold.Chemscore.ZeroCoef>
-5.4800

> <Gold.Chemscore.Hbond>
2.5372

> <Gold.Chemscore.Metal>
0.0000

> <Gold.Chemscore.Lipo>
92.5741

> <Gold.Chemscore.Internal_Hbond>
0.0000

> <Gold.Chemscore.DEClash>
0.4935

> <Gold.Chemscore.DEInternal>
1.3492

> <Gold.Chemscore.Rot>
1.6228

> <Gold.Chemscore.Internal.Correction>
   9.000000E+99

> <Gold.Chemscore.Hbonds>
donor molecule, donor type, donor heavy atom, donor atom, acceptor molecule, acceptor atom, score
      L1  H     7    53       P1 10175  1.00
      L1  H    12    43       P1  8028  0.01
      L1  H    15    44       P1  8028  0.99

> <Gold.Chemscore.Hbond.Weighted>
-8.4742

> <Gold.Chemscore.Metal.Weighted>
-0.0000

> <Gold.Chemscore.Lipo.Weighted>
-10.8312

> <Gold.Chemscore.Internal_Hbond.Weighted>
0.0000

> <Gold.Chemscore.DEClash.Weighted>
0.4935

> <Gold.Chemscore.DEInternal.Weighted>
1.3492

> <Gold.Chemscore.Rot.Weighted>
4.1545

> <Gold.Chemscore.Internal.Correction.Weighted>
   9.000000E+99

> <Gold.Protein.RotatedTorsions>
[ 6907 6896 6895 6894 ] final  -97.74 input  -60.11 | X-H torsion
[ 7974 7965 7964 7962 ] final  -87.24 input  175.53 | X-H torsion
[ 8008 7997 7996 7995 ] final -157.12 input   59.86 | X-H torsion
[ 10167 10162 10161 10158 ] final    3.95 input  -65.29 | X-H torsion
[ 10718 10713 10712 10709 ] final  -36.24 input   66.30 | X-H torsion
[ 10763 10752 10751 10750 ] final  177.78 input  -60.55 | X-H torsion
[ 11005 11000 10999 10996 ] final -177.87 input  -57.11 | X-H torsion

> <Gold.Protein.ActiveResidues>
 VAL166  LYS551  ARG553  GLY616  TRP617  ASP618  TYR619  PRO620  LYS621  CYS622 
 ASP623  PHE694  ASN695  SER759  ASP760  ASP761  ALA762  ILE779  LEU786  VAL792 
 PHE793  MET794  SER795  GLU796  ALA797  LYS798  CYS799  TRP800  GLU811  SER814 

> <Gold.Protein.RotatedAtoms>
  150.7025  134.1302  159.4066 H   0  0  0  0  0  0  0  0  0  0  0  0  # atno 6907 bound_to 6896
  151.9287  135.0264  160.0537 H   0  0  0  0  0  0  0  0  0  0  0  0  # atno 6908 bound_to 6896
  152.2194  133.4936  159.5190 H   0  0  0  0  0  0  0  0  0  0  0  0  # atno 6909 bound_to 6896
  145.4692  140.9560  143.1926 H   0  0  0  0  0  0  0  0  0  0  0  0  # atno 7974 bound_to 7965
  155.7276  140.0798  157.2303 H   0  0  0  0  0  0  0  0  0  0  0  0  # atno 8008 bound_to 7997
  154.4037  140.1601  156.2526 H   0  0  0  0  0  0  0  0  0  0  0  0  # atno 8009 bound_to 7997
  155.9139  140.3402  155.6123 H   0  0  0  0  0  0  0  0  0  0  0  0  # atno 8010 bound_to 7997
  140.6560  143.7427  150.7654 H   0  0  0  0  0  0  0  0  0  0  0  0  # atno 10167 bound_to 10162
  156.3292  130.4277  149.7888 H   0  0  0  0  0  0  0  0  0  0  0  0  # atno 10718 bound_to 10713
  154.4991  135.2782  155.1435 H   0  0  0  0  0  0  0  0  0  0  0  0  # atno 10763 bound_to 10752
  154.3076  135.6235  153.5455 H   0  0  0  0  0  0  0  0  0  0  0  0  # atno 10764 bound_to 10752
  152.9899  135.5712  154.5429 H   0  0  0  0  0  0  0  0  0  0  0  0  # atno 10765 bound_to 10752
  140.4361  134.6475  157.4735 H   0  0  0  0  0  0  0  0  0  0  0  0  # atno 11005 bound_to 11000
  144.7955  139.6242  143.7094 LP  0  0  0  0  0  0  0  0  0  0  0  0  # atno 17320 bound_to 7965
  146.2406  139.5994  142.9494 LP  0  0  0  0  0  0  0  0  0  0  0  0  # atno 17321 bound_to 7965
  140.1087  143.4720  152.2383 LP  0  0  0  0  0  0  0  0  0  0  0  0  # atno 17342 bound_to 10162
  139.5782  144.7498  151.3708 LP  0  0  0  0  0  0  0  0  0  0  0  0  # atno 17343 bound_to 10162
  156.5167  130.8196  151.3189 LP  0  0  0  0  0  0  0  0  0  0  0  0  # atno 17370 bound_to 10713
  157.7427  130.9896  150.2536 LP  0  0  0  0  0  0  0  0  0  0  0  0  # atno 17371 bound_to 10713
  140.0101  134.6703  155.9393 LP  0  0  0  0  0  0  0  0  0  0  0  0  # atno 17394 bound_to 11000
  141.1725  133.6538  156.4706 LP  0  0  0  0  0  0  0  0  0  0  0  0  # atno 17395 bound_to 11000

$$$$
