AV-unprocessed.smi:638|AV-procd|sdf|3143|dock6
  -GOLD-   22720 0 73D 1   1.00000     0.00000
 Structure written by MMmdl.
 41 42  0  0  0  0  0  0  0  0  3 V2000
  153.0645  136.4302  156.7078 N   0  0  0  0  0  0  0  0  0  0  0  0
  152.2690  137.2657  156.7992 C   0  0  0  0  0  0  0  0  0  0  0  0
  151.2540  138.3317  156.9144 C   0  0  0  0  0  0  0  0  0  0  0  0
  149.9237  137.7414  157.1035 N   0  0  0  0  0  0  0  0  0  0  0  0
  149.5360  136.9132  158.0872 C   0  0  0  0  0  0  0  0  0  0  0  0
  150.2809  136.5413  158.9941 O   0  0  0  0  0  0  0  0  0  0  0  0
  148.0696  136.4627  158.0454 C   0  0  0  0  0  0  0  0  0  0  0  0
  147.7220  135.5385  159.1373 N   0  0  0  0  0  0  0  0  0  0  0  0
  147.8636  136.0194  160.4540 C   0  0  0  0  0  0  0  0  0  0  0  0
  147.5851  135.2556  161.5285 C   0  0  0  0  0  0  0  0  0  0  0  0
  147.7447  135.7624  162.8739 N   0  3  0  0  0  0  0  0  0  0  0  0
  147.4889  135.0199  163.8163 O   0  0  0  0  0  0  0  0  0  0  0  0
  148.1297  136.9170  163.0335 O   0  5  0  0  0  0  0  0  0  0  0  0
  147.1238  133.9013  161.2917 C   0  0  0  0  0  0  0  0  0  0  0  0
  146.9899  133.4345  160.0348 C   0  0  0  0  0  0  0  0  0  0  0  0
  147.2994  134.2657  158.8672 C   0  0  0  0  0  0  0  0  0  0  0  0
  147.1857  133.8440  157.7160 O   0  0  0  0  0  0  0  0  0  0  0  0
  151.6413  139.2546  158.1033 C   0  0  0  0  0  0  0  0  0  0  0  0
  150.5955  140.3195  158.4953 C   0  0  0  0  0  0  0  0  0  0  0  0
  150.6733  141.6467  157.7211 C   0  0  0  0  0  0  0  0  0  0  0  0
  150.9577  141.5539  156.2121 C   0  0  0  0  0  0  0  0  0  0  0  0
  150.3491  140.3398  155.4930 C   0  0  0  0  0  0  0  0  0  0  0  0
  151.2492  139.0913  155.5697 C   0  0  0  0  0  0  0  0  0  0  0  0
  149.2315  137.9884  156.4114 H   0  0  0  0  0  0  0  0  0  0  0  0
  147.4413  137.3536  158.0823 H   0  0  0  0  0  0  0  0  0  0  0  0
  147.8536  136.0030  157.0790 H   0  0  0  0  0  0  0  0  0  0  0  0
  148.2204  137.0370  160.5236 H   0  0  0  0  0  0  0  0  0  0  0  0
  146.8835  133.2511  162.1200 H   0  0  0  0  0  0  0  0  0  0  0  0
  146.6456  132.4221  159.8812 H   0  0  0  0  0  0  0  0  0  0  0  0
  151.8113  138.6265  158.9784 H   0  0  0  0  0  0  0  0  0  0  0  0
  152.6027  139.7328  157.9117 H   0  0  0  0  0  0  0  0  0  0  0  0
  149.5864  139.9162  158.4210 H   0  0  0  0  0  0  0  0  0  0  0  0
  150.7207  140.5517  159.5534 H   0  0  0  0  0  0  0  0  0  0  0  0
  149.7339  142.1792  157.8735 H   0  0  0  0  0  0  0  0  0  0  0  0
  151.4400  142.2781  158.1716 H   0  0  0  0  0  0  0  0  0  0  0  0
  150.5844  142.4661  155.7452 H   0  0  0  0  0  0  0  0  0  0  0  0
  152.0352  141.5704  156.0439 H   0  0  0  0  0  0  0  0  0  0  0  0
  149.3386  140.1347  155.8478 H   0  0  0  0  0  0  0  0  0  0  0  0
  150.2432  140.5993  154.4392 H   0  0  0  0  0  0  0  0  0  0  0  0
  152.2703  139.3717  155.3067 H   0  0  0  0  0  0  0  0  0  0  0  0
  150.9378  138.3988  154.7860 H   0  0  0  0  0  0  0  0  0  0  0  0
  1  2  3  0  0  0  0
  2  3  1  0  0  0  0
  3 23  1  0  0  0  0
  3  4  1  0  0  0  0
  3 18  1  0  0  0  0
  4  5  1  0  0  0  0
  4 24  1  0  0  0  0
  5  6  2  0  0  0  0
  5  7  1  0  0  0  0
  7  8  1  0  0  0  0
  7 25  1  0  0  0  0
  7 26  1  0  0  0  0
  8 16  1  0  0  0  0
  8  9  1  0  0  0  0
  9 10  2  0  0  0  0
  9 27  1  0  0  0  0
 10 11  1  0  0  0  0
 10 14  1  0  0  0  0
 11 12  2  0  0  0  0
 11 13  1  0  0  0  0
 14 15  2  0  0  0  0
 14 28  1  0  0  0  0
 15 16  1  0  0  0  0
 15 29  1  0  0  0  0
 16 17  2  0  0  0  0
 18 19  1  0  0  0  0
 18 30  1  0  0  0  0
 18 31  1  0  0  0  0
 19 20  1  0  0  0  0
 19 32  1  0  0  0  0
 19 33  1  0  0  0  0
 20 21  1  0  0  0  0
 20 34  1  0  0  0  0
 20 35  1  0  0  0  0
 21 22  1  0  0  0  0
 21 36  1  0  0  0  0
 21 37  1  0  0  0  0
 22 23  1  0  0  0  0
 22 38  1  0  0  0  0
 22 39  1  0  0  0  0
 23 40  1  0  0  0  0
 23 41  1  0  0  0  0
M  CHG  1  11   1
M  CHG  1  13  -1
M  END
> <s_m_source_file>
AV-unprocessed.smi

> <i_m_source_file_index>
638

> <i_lp_mmshare_version>
43012

> <i_f3d_flags>
0

> <s_epik_input>
W0NIMl0xW0NIMl1bQ0gyXVtDSDJdW0NIMl1bQ0gyXUMxKEMjTilbTkhdQyg9TylbQ0gyXW4yW2NIXWMoW04rXSg9TylbTy1dKVtjSF1bY0hdYzI9Tw==

> <s_epik_cmdline>
J2VwaWtfcHl0aG9uJywgJy1waCcsICc3LjAnLCAnLXRuJywgJzgnLCAnLW1hJywgJzIwMCcsICctbWV0YWxfYmluZGluZycsICctaW1hZScsICc8aW5maWxlLm1hZT4nLCAnLW9tYWUnLCAnPG91dGZpbGUubWFlPic=

> <r_lp_tautomer_probability>
1

> <r_epik_Ionization_Penalty>
4.51205e-07

> <r_epik_Ionization_Penalty_Charging>
6.24361e-11

> <r_epik_Ionization_Penalty_Neutral>
4.51142e-07

> <r_epik_State_Penalty>
-0

> <r_epik_Charging_Adjusted_Penalty>
6.24361e-11

> <i_epik_Tot_Q>
0

> <i_epik_Tot_abs_Q>
2

> <r_epik_Metal_State_Penalty>
-0

> <b_epik_Metal_Only>
0

> <s_lp_Force_Field>
OPLS_2005

> <r_lp_Energy>
29.2466

> <b_lp_Chiralities_Consistent>
1

> <s_lp_Variant>
AV-unprocessed.smi:638-1

> <Gold.Version>
5.8.1

> <Gold.Id.Protein>
6NUR|6NUR_protein|mol2

> <Gold.PLP.Fitness>
42.4516

> <Gold.PLP.PLP>
-33.8492

> <Gold.PLP.part.hbond>
-5.0000

> <Gold.PLP.part.metal>
0.0000

> <Gold.PLP.part.buried>
-4.9729

> <Gold.PLP.part.nonpolar>
-24.2344

> <Gold.PLP.part.repulsive>
0.0739

> <Gold.PLP.ligand.clash>
0.0000

> <Gold.PLP.ligand.torsion>
0.0266

> <Gold.PLP.Chemscore.Hbond>
2.8817

> <Gold.PLP.Chemscore.CHOScore>
0.0000

> <Gold.PLP.Chemscore.Metal>
0.0000

> <Gold.Chemscore.Hbonds>
donor molecule, donor type, donor heavy atom, donor atom, acceptor molecule, acceptor atom, score
      P1  H  6888  6897       L1    12  0.11
      P1  H  6896  6908       L1     6  1.00
      P1  H  6931  6943       L1    13  0.78
      P1  H 10752 10763       L1     1  1.00

> <Gold.PLP.Chemscore.Internal.Correction>
0.0105

> <Gold.Rescore>
     Score         DG    S(hbond)    S(metal)    S(lipo)     H(rot)  DE(clash)    DE(int)     intcor
     16.37     -17.73       2.79        0.00      60.72       1.63       0.05       1.30       ----

> <Gold.Chemscore.Fitness>
16.3719

> <Gold.Chemscore.DG>
-17.7254

> <Gold.Chemscore.ZeroCoef>
-5.4800

> <Gold.Chemscore.Hbond>
2.7877

> <Gold.Chemscore.Metal>
0.0000

> <Gold.Chemscore.Lipo>
60.7166

> <Gold.Chemscore.Internal_Hbond>
0.0000

> <Gold.Chemscore.DEClash>
0.0508

> <Gold.Chemscore.DEInternal>
1.3027

> <Gold.Chemscore.Rot>
1.6287

> <Gold.Chemscore.Internal.Correction>
   9.000000E+99

> <Gold.Chemscore.Hbonds>
donor molecule, donor type, donor heavy atom, donor atom, acceptor molecule, acceptor atom, score
      P1  H  6888  6897       L1    12  0.10
      P1  H  6896  6908       L1     6  0.99
      P1  H  6931  6943       L1    13  0.77
      P1  H 10752 10763       L1     1  0.98

> <Gold.Chemscore.Hbond.Weighted>
-9.3110

> <Gold.Chemscore.Metal.Weighted>
-0.0000

> <Gold.Chemscore.Lipo.Weighted>
-7.1038

> <Gold.Chemscore.Internal_Hbond.Weighted>
0.0000

> <Gold.Chemscore.DEClash.Weighted>
0.0508

> <Gold.Chemscore.DEInternal.Weighted>
1.3027

> <Gold.Chemscore.Rot.Weighted>
4.1694

> <Gold.Chemscore.Internal.Correction.Weighted>
   9.000000E+99

> <Gold.Protein.RotatedTorsions>
[ 6907 6896 6895 6894 ] final -166.89 input  -60.11 | X-H torsion
[ 7974 7965 7964 7962 ] final  179.80 input  175.53 | X-H torsion
[ 8008 7997 7996 7995 ] final   85.25 input   59.86 | X-H torsion
[ 10167 10162 10161 10158 ] final  -59.34 input  -65.29 | X-H torsion
[ 10718 10713 10712 10709 ] final   73.07 input   66.30 | X-H torsion
[ 10763 10752 10751 10750 ] final  109.79 input  -60.55 | X-H torsion
[ 11005 11000 10999 10996 ] final   33.42 input  -57.11 | X-H torsion

> <Gold.Protein.ActiveResidues>
 VAL166  LYS551  ARG553  GLY616  TRP617  ASP618  TYR619  PRO620  LYS621  CYS622 
 ASP623  PHE694  ASN695  SER759  ASP760  ASP761  ALA762  ILE779  LEU786  VAL792 
 PHE793  MET794  SER795  GLU796  ALA797  LYS798  CYS799  TRP800  GLU811  SER814 

> <Gold.Protein.RotatedAtoms>
  151.4507  133.3618  159.2794 H   0  0  0  0  0  0  0  0  0  0  0  0  # atno 6907 bound_to 6896
  150.9093  134.8510  159.7425 H   0  0  0  0  0  0  0  0  0  0  0  0  # atno 6908 bound_to 6896
  152.4923  134.4435  159.9603 H   0  0  0  0  0  0  0  0  0  0  0  0  # atno 6909 bound_to 6896
  144.7142  140.0602  143.6433 H   0  0  0  0  0  0  0  0  0  0  0  0  # atno 7974 bound_to 7965
  155.9476  140.3403  155.6380 H   0  0  0  0  0  0  0  0  0  0  0  0  # atno 8008 bound_to 7997
  155.6961  140.0754  157.2447 H   0  0  0  0  0  0  0  0  0  0  0  0  # atno 8009 bound_to 7997
  154.4115  140.1648  156.2127 H   0  0  0  0  0  0  0  0  0  0  0  0  # atno 8010 bound_to 7997
  140.6141  143.2396  151.5640 H   0  0  0  0  0  0  0  0  0  0  0  0  # atno 10167 bound_to 10162
  157.6531  130.9610  150.1018 H   0  0  0  0  0  0  0  0  0  0  0  0  # atno 10718 bound_to 10713
  153.4397  135.3769  155.2220 H   0  0  0  0  0  0  0  0  0  0  0  0  # atno 10763 bound_to 10752
  154.8753  135.3860  154.4168 H   0  0  0  0  0  0  0  0  0  0  0  0  # atno 10764 bound_to 10752
  153.4712  135.7087  153.6056 H   0  0  0  0  0  0  0  0  0  0  0  0  # atno 10765 bound_to 10752
  140.2633  134.3167  155.7851 H   0  0  0  0  0  0  0  0  0  0  0  0  # atno 11005 bound_to 11000
  145.9870  139.2985  143.1007 LP  0  0  0  0  0  0  0  0  0  0  0  0  # atno 17320 bound_to 7965
  145.8946  140.9282  143.0534 LP  0  0  0  0  0  0  0  0  0  0  0  0  # atno 17321 bound_to 7965
  139.5384  144.2715  152.1300 LP  0  0  0  0  0  0  0  0  0  0  0  0  # atno 17342 bound_to 10162
  140.1921  144.4741  150.6474 LP  0  0  0  0  0  0  0  0  0  0  0  0  # atno 17343 bound_to 10162
  156.1938  130.3656  149.8875 LP  0  0  0  0  0  0  0  0  0  0  0  0  # atno 17370 bound_to 10713
  156.6796  130.8853  151.3574 LP  0  0  0  0  0  0  0  0  0  0  0  0  # atno 17371 bound_to 10713
  141.2187  133.7422  156.9220 LP  0  0  0  0  0  0  0  0  0  0  0  0  # atno 17394 bound_to 11000
  140.1444  134.9272  157.2509 LP  0  0  0  0  0  0  0  0  0  0  0  0  # atno 17395 bound_to 11000

$$$$
