AV-unprocessed.smi:2832|AV-procd|sdf|10912|dock7
  -GOLD-   2272015363D 1   1.00000     0.00000
 Structure written by MMmdl.
 33 33  0  0  0  0  0  0  0  0  2 V2000
  154.3811  135.8194  157.8934 C   0  0  0  0  0  0  0  0  0  0  0  0
  153.2194  136.8078  158.0403 C   0  0  0  0  0  0  0  0  0  0  0  0
  152.8782  137.5132  156.7077 C   0  0  0  0  0  0  0  0  0  0  0  0
  152.0780  138.8526  156.7905 C   0  0  1  0  0  0  0  0  0  0  0  0
  150.6270  138.5487  157.2290 C   0  0  0  0  0  0  0  0  0  0  0  0
  152.6171  139.8435  157.7390 N   0  0  0  0  0  0  0  0  0  0  0  0
  152.1726  141.0625  158.0967 C   0  0  0  0  0  0  0  0  0  0  0  0
  151.2246  141.6449  157.5716 O   0  0  0  0  0  0  0  0  0  0  0  0
  152.9398  141.7461  159.2296 C   0  0  0  0  0  0  0  0  0  0  0  0
  152.5008  143.1190  159.4136 N   0  0  0  0  0  0  0  0  0  0  0  0
  152.3825  144.1158  158.4670 C   0  0  0  0  0  0  0  0  0  0  0  0
  151.9372  145.2358  159.1089 C   0  0  0  0  0  0  0  0  0  0  0  0
  151.8079  144.8195  160.4634 C   0  0  0  0  0  0  0  0  0  0  0  0
  152.1431  143.5522  160.6424 N   0  0  0  0  0  0  0  0  0  0  0  0
  152.0872  139.4992  155.3823 C   0  0  0  0  0  0  0  0  0  0  0  0
  150.9870  139.8036  154.8695 O   0  0  0  0  0  0  0  0  0  0  0  0
  153.1950  139.6724  154.8243 O   0  5  0  0  0  0  0  0  0  0  0  0
  154.6134  135.3495  158.8492 H   0  0  0  0  0  0  0  0  0  0  0  0
  155.2827  136.3212  157.5409 H   0  0  0  0  0  0  0  0  0  0  0  0
  154.1362  135.0283  157.1842 H   0  0  0  0  0  0  0  0  0  0  0  0
  152.3528  136.2742  158.4278 H   0  0  0  0  0  0  0  0  0  0  0  0
  153.4863  137.5440  158.7983 H   0  0  0  0  0  0  0  0  0  0  0  0
  153.8182  137.7037  156.1868 H   0  0  0  0  0  0  0  0  0  0  0  0
  152.3522  136.8151  156.0568 H   0  0  0  0  0  0  0  0  0  0  0  0
  150.1537  137.8047  156.5869 H   0  0  0  0  0  0  0  0  0  0  0  0
  150.0055  139.4453  157.2111 H   0  0  0  0  0  0  0  0  0  0  0  0
  150.6002  138.1559  158.2460 H   0  0  0  0  0  0  0  0  0  0  0  0
  153.4170  139.5103  158.2581 H   0  0  0  0  0  0  0  0  0  0  0  0
  152.7891  141.2049  160.1644 H   0  0  0  0  0  0  0  0  0  0  0  0
  154.0096  141.7254  159.0144 H   0  0  0  0  0  0  0  0  0  0  0  0
  152.6264  143.9461  157.4285 H   0  0  0  0  0  0  0  0  0  0  0  0
  151.7358  146.2048  158.6771 H   0  0  0  0  0  0  0  0  0  0  0  0
  151.4819  145.3962  161.3165 H   0  0  0  0  0  0  0  0  0  0  0  0
  1  2  1  0  0  0  0
  1 18  1  0  0  0  0
  1 19  1  0  0  0  0
  1 20  1  0  0  0  0
  2  3  1  0  0  0  0
  2 21  1  0  0  0  0
  2 22  1  0  0  0  0
  3  4  1  0  0  0  0
  3 23  1  0  0  0  0
  3 24  1  0  0  0  0
  4  5  1  0  0  0  0
  4  6  1  0  0  0  0
  4 15  1  0  0  0  0
  5 25  1  0  0  0  0
  5 26  1  0  0  0  0
  5 27  1  0  0  0  0
  6  7  1  0  0  0  0
  6 28  1  0  0  0  0
  7  8  2  0  0  0  0
  7  9  1  0  0  0  0
  9 10  1  0  0  0  0
  9 29  1  0  0  0  0
  9 30  1  0  0  0  0
 10 14  1  0  0  0  0
 10 11  1  0  0  0  0
 11 12  2  0  0  0  0
 11 31  1  0  0  0  0
 12 13  1  0  0  0  0
 12 32  1  0  0  0  0
 13 14  2  0  0  0  0
 13 33  1  0  0  0  0
 15 16  2  0  0  0  0
 15 17  1  0  0  0  0
M  CHG  1  17  -1
M  END
> <s_m_source_file>
AV-unprocessed.smi

> <i_m_source_file_index>
2832

> <i_lp_mmshare_version>
43012

> <i_f3d_flags>
0

> <s_epik_input>
W0NIM11bQ0gyXVtDSDJdW0NAXShbQ0gzXSkoQyg9TylbT0hdKVtOSF1DKD1PKVtDSDJdbjFbY0hdW2NIXVtjSF1uMQ==

> <s_epik_cmdline>
J2VwaWtfcHl0aG9uJywgJy1waCcsICc3LjAnLCAnLXRuJywgJzgnLCAnLW1hJywgJzIwMCcsICctbWV0YWxfYmluZGluZycsICctaW1hZScsICc8aW5maWxlLm1hZT4nLCAnLW9tYWUnLCAnPG91dGZpbGUubWFlPic=

> <r_lp_tautomer_probability>
1

> <r_epik_Ionization_Penalty>
0.000287256

> <r_epik_Ionization_Penalty_Charging>
0.00026921

> <r_epik_Ionization_Penalty_Neutral>
1.80463e-05

> <r_epik_State_Penalty>
-0

> <r_epik_Charging_Adjusted_Penalty>
0.00026921

> <i_epik_Tot_Q>
-1

> <i_epik_Tot_abs_Q>
1

> <r_epik_Metal_State_Penalty>
-0

> <b_epik_Metal_Only>
0

> <s_lp_Force_Field>
OPLS_2005

> <r_lp_Energy>
4.0175

> <b_lp_Chiralities_Consistent>
1

> <s_lp_Variant>
AV-unprocessed.smi:2832-1

> <Gold.Version>
5.8.1

> <Gold.Id.Protein>
6NUR|6NUR_protein|mol2

> <Gold.PLP.Fitness>
42.6783

> <Gold.PLP.PLP>
-34.6405

> <Gold.PLP.part.hbond>
-3.0000

> <Gold.PLP.part.metal>
0.0000

> <Gold.PLP.part.buried>
-5.3431

> <Gold.PLP.part.nonpolar>
-26.1873

> <Gold.PLP.part.repulsive>
0.7015

> <Gold.PLP.ligand.clash>
0.0000

> <Gold.PLP.ligand.torsion>
0.5104

> <Gold.PLP.Chemscore.Hbond>
3.0000

> <Gold.PLP.Chemscore.CHOScore>
0.0000

> <Gold.PLP.Chemscore.Metal>
0.0000

> <Gold.Chemscore.Hbonds>
donor molecule, donor type, donor heavy atom, donor atom, acceptor molecule, acceptor atom, score
      P1  H  7989  7998       L1    16  0.90
      P1  H  7997  8008       L1    17  2.00

> <Gold.PLP.Chemscore.Internal.Correction>
0.0586

> <Gold.Rescore>
     Score         DG    S(hbond)    S(metal)    S(lipo)     H(rot)  DE(clash)    DE(int)     intcor
     12.89     -13.77       1.89        0.00      70.91       2.47       0.03       0.84       ----

> <Gold.Chemscore.Fitness>
12.8941

> <Gold.Chemscore.DG>
-13.7655

> <Gold.Chemscore.ZeroCoef>
-5.4800

> <Gold.Chemscore.Hbond>
1.8917

> <Gold.Chemscore.Metal>
0.0000

> <Gold.Chemscore.Lipo>
70.9145

> <Gold.Chemscore.Internal_Hbond>
0.0000

> <Gold.Chemscore.DEClash>
0.0305

> <Gold.Chemscore.DEInternal>
0.8409

> <Gold.Chemscore.Rot>
2.4726

> <Gold.Chemscore.Internal.Correction>
   9.000000E+99

> <Gold.Chemscore.Hbonds>
donor molecule, donor type, donor heavy atom, donor atom, acceptor molecule, acceptor atom, score
      P1  H  7989  7998       L1    16  0.18
      P1  H  7997  8008       L1    17  0.98

> <Gold.Chemscore.Hbond.Weighted>
-6.3182

> <Gold.Chemscore.Metal.Weighted>
-0.0000

> <Gold.Chemscore.Lipo.Weighted>
-8.2970

> <Gold.Chemscore.Internal_Hbond.Weighted>
0.0000

> <Gold.Chemscore.DEClash.Weighted>
0.0305

> <Gold.Chemscore.DEInternal.Weighted>
0.8409

> <Gold.Chemscore.Rot.Weighted>
6.3297

> <Gold.Chemscore.Internal.Correction.Weighted>
   9.000000E+99

> <Gold.Protein.RotatedTorsions>
[ 6907 6896 6895 6894 ] final   41.46 input  -60.11 | X-H torsion
[ 7974 7965 7964 7962 ] final  130.04 input  175.53 | X-H torsion
[ 8008 7997 7996 7995 ] final   -2.95 input   59.86 | X-H torsion
[ 10167 10162 10161 10158 ] final   32.81 input  -65.29 | X-H torsion
[ 10718 10713 10712 10709 ] final  -30.94 input   66.30 | X-H torsion
[ 10763 10752 10751 10750 ] final  -20.13 input  -60.55 | X-H torsion
[ 11005 11000 10999 10996 ] final  111.82 input  -57.11 | X-H torsion

> <Gold.Protein.ActiveResidues>
 VAL166  LYS551  ARG553  GLY616  TRP617  ASP618  TYR619  PRO620  LYS621  CYS622 
 ASP623  PHE694  ASN695  SER759  ASP760  ASP761  ALA762  ILE779  LEU786  VAL792 
 PHE793  MET794  SER795  GLU796  ALA797  LYS798  CYS799  TRP800  GLU811  SER814 

> <Gold.Protein.RotatedAtoms>
  152.1956  134.8634  160.0512 H   0  0  0  0  0  0  0  0  0  0  0  0  # atno 6907 bound_to 6896
  151.9506  133.3660  159.4007 H   0  0  0  0  0  0  0  0  0  0  0  0  # atno 6908 bound_to 6896
  150.6944  134.4268  159.5274 H   0  0  0  0  0  0  0  0  0  0  0  0  # atno 6909 bound_to 6896
  145.0222  139.4121  143.5191 H   0  0  0  0  0  0  0  0  0  0  0  0  # atno 7974 bound_to 7965
  154.6302  140.2521  155.7443 H   0  0  0  0  0  0  0  0  0  0  0  0  # atno 8008 bound_to 7997
  156.2475  140.2908  156.0570 H   0  0  0  0  0  0  0  0  0  0  0  0  # atno 8009 bound_to 7997
  155.1758  140.0387  157.2862 H   0  0  0  0  0  0  0  0  0  0  0  0  # atno 8010 bound_to 7997
  140.4464  144.1112  150.6183 H   0  0  0  0  0  0  0  0  0  0  0  0  # atno 10167 bound_to 10162
  156.3935  130.4377  149.7376 H   0  0  0  0  0  0  0  0  0  0  0  0  # atno 10718 bound_to 10713
  153.6156  135.6994  153.5330 H   0  0  0  0  0  0  0  0  0  0  0  0  # atno 10763 bound_to 10752
  153.2980  135.4137  155.1226 H   0  0  0  0  0  0  0  0  0  0  0  0  # atno 10764 bound_to 10752
  154.8554  135.3642  154.5696 H   0  0  0  0  0  0  0  0  0  0  0  0  # atno 10765 bound_to 10752
  139.8912  134.9516  156.6491 H   0  0  0  0  0  0  0  0  0  0  0  0  # atno 11005 bound_to 11000
  146.3487  139.9726  142.8704 LP  0  0  0  0  0  0  0  0  0  0  0  0  # atno 17320 bound_to 7965
  145.1880  140.9798  143.4227 LP  0  0  0  0  0  0  0  0  0  0  0  0  # atno 17321 bound_to 7965
  140.4258  143.2590  151.9658 LP  0  0  0  0  0  0  0  0  0  0  0  0  # atno 17342 bound_to 10162
  139.4793  144.5789  151.7965 LP  0  0  0  0  0  0  0  0  0  0  0  0  # atno 17343 bound_to 10162
  156.4420  130.7866  151.2887 LP  0  0  0  0  0  0  0  0  0  0  0  0  # atno 17370 bound_to 10713
  157.7500  131.0122  150.3374 LP  0  0  0  0  0  0  0  0  0  0  0  0  # atno 17371 bound_to 10713
  140.7534  133.8878  155.8364 LP  0  0  0  0  0  0  0  0  0  0  0  0  # atno 17394 bound_to 11000
  140.9982  134.1187  157.4343 LP  0  0  0  0  0  0  0  0  0  0  0  0  # atno 17395 bound_to 11000

$$$$
