AV-unprocessed.smi:798|AV-procd|sdf|3782|dock6
  -GOLD-   22720 1213D 1   1.00000     0.00000
 Structure written by MMmdl.
 33 35  0  0  0  0  0  0  0  0  2 V2000
  153.2240  139.9268  159.5604 O   0  0  0  0  0  0  0  0  0  0  0  0
  152.3097  139.9852  158.7352 C   0  0  0  0  0  0  0  0  0  0  0  0
  151.6687  138.9353  158.1728 N   0  5  0  0  0  0  0  0  0  0  0  0
  151.6184  138.8139  156.8360 C   0  0  0  0  0  0  0  0  0  0  0  0
  152.1043  139.7550  156.0109 N   0  0  0  0  0  0  0  0  0  0  0  0
  151.9423  139.4406  154.6683 N   0  0  0  0  0  0  0  0  0  0  0  0
  151.3287  138.2676  154.5145 C   0  0  0  0  0  0  0  0  0  0  0  0
  150.8915  137.4415  155.9950 S   0  0  0  0  0  0  0  0  0  0  0  0
  151.8594  141.1765  158.3176 N   0  0  0  0  0  0  0  0  0  0  0  0
  152.3461  142.4822  158.7589 C   0  0  1  0  0  0  0  0  0  0  0  0
  151.6896  143.6086  157.9306 C   0  0  2  0  0  0  0  0  0  0  0  0
  152.4909  144.9073  158.1341 C   0  0  0  0  0  0  0  0  0  0  0  0
  152.1140  145.3093  159.5722 C   0  0  0  0  0  0  0  0  0  0  0  0
  151.1634  144.1744  160.0110 C   0  0  1  0  0  0  0  0  0  0  0  0
  150.4136  143.9073  158.7123 C   0  0  0  0  0  0  0  0  0  0  0  0
  151.9089  142.8301  160.2058 C   0  0  2  0  0  0  0  0  0  0  0  0
  153.0632  142.8356  161.2271 C   0  0  0  0  0  0  0  0  0  0  0  0
  152.5804  143.1364  162.5195 O   0  0  0  0  0  0  0  0  0  0  0  0
  151.1291  137.8881  153.5237 H   0  0  0  0  0  0  0  0  0  0  0  0
  151.1105  141.1756  157.6408 H   0  0  0  0  0  0  0  0  0  0  0  0
  153.4309  142.5161  158.6411 H   0  0  0  0  0  0  0  0  0  0  0  0
  151.5405  143.3575  156.8796 H   0  0  0  0  0  0  0  0  0  0  0  0
  153.5642  144.7604  158.0089 H   0  0  0  0  0  0  0  0  0  0  0  0
  152.1744  145.6749  157.4268 H   0  0  0  0  0  0  0  0  0  0  0  0
  152.9808  145.4256  160.2212 H   0  0  0  0  0  0  0  0  0  0  0  0
  151.5865  146.2638  159.5687 H   0  0  0  0  0  0  0  0  0  0  0  0
  150.5249  144.4427  160.8533 H   0  0  0  0  0  0  0  0  0  0  0  0
  149.8691  144.7757  158.3373 H   0  0  0  0  0  0  0  0  0  0  0  0
  149.7310  143.0577  158.7707 H   0  0  0  0  0  0  0  0  0  0  0  0
  151.1753  142.0956  160.5453 H   0  0  0  0  0  0  0  0  0  0  0  0
  153.5340  141.8531  161.2597 H   0  0  0  0  0  0  0  0  0  0  0  0
  153.8451  143.5438  160.9554 H   0  0  0  0  0  0  0  0  0  0  0  0
  152.9054  143.9877  162.7696 H   0  0  0  0  0  0  0  0  0  0  0  0
  1  2  2  0  0  0  0
  2  3  1  0  0  0  0
  2  9  1  0  0  0  0
  3  4  1  0  0  0  0
  4  8  1  0  0  0  0
  4  5  2  0  0  0  0
  5  6  1  0  0  0  0
  6  7  2  0  0  0  0
  7  8  1  0  0  0  0
  7 19  1  0  0  0  0
  9 10  1  0  0  0  0
  9 20  1  0  0  0  0
 10 16  1  0  0  0  0
 10 11  1  0  0  0  0
 10 21  1  0  0  0  0
 11 15  1  0  0  0  0
 11 12  1  0  0  0  0
 11 22  1  0  0  0  0
 12 13  1  0  0  0  0
 12 23  1  0  0  0  0
 12 24  1  0  0  0  0
 13 14  1  0  0  0  0
 13 25  1  0  0  0  0
 13 26  1  0  0  0  0
 14 15  1  0  0  0  0
 14 16  1  0  0  0  0
 14 27  1  0  0  0  0
 15 28  1  0  0  0  0
 15 29  1  0  0  0  0
 16 17  1  0  0  0  0
 16 30  1  0  0  0  0
 17 18  1  0  0  0  0
 17 31  1  0  0  0  0
 17 32  1  0  0  0  0
 18 33  1  0  0  0  0
M  CHG  1   3  -1
M  END
> <s_m_source_file>
AV-unprocessed.smi

> <i_m_source_file_index>
798

> <i_lp_mmshare_version>
43012

> <i_f3d_flags>
0

> <s_epik_input>
W0NIMl0xW0NIMl1bQ0BASF0oW0NIMl0yKVtDQEBIXShbQ0gyXVtPSF0pW0NAQEhdKFtDQEhdMTIpW05IXUMoPU8pW05IXWMzbm5bY0hdczM=

> <s_epik_cmdline>
J2VwaWtfcHl0aG9uJywgJy1waCcsICc3LjAnLCAnLXRuJywgJzgnLCAnLW1hJywgJzIwMCcsICctbWV0YWxfYmluZGluZycsICctaW1hZScsICc8aW5maWxlLm1hZT4nLCAnLW9tYWUnLCAnPG91dGZpbGUubWFlPic=

> <r_lp_tautomer_probability>
1

> <r_epik_Ionization_Penalty>
4.53732

> <r_epik_Ionization_Penalty_Charging>
4.48632

> <r_epik_Ionization_Penalty_Neutral>
0.0510007

> <r_epik_State_Penalty>
4.48602

> <r_epik_Charging_Adjusted_Penalty>
8.97234

> <i_epik_Tot_Q>
-1

> <i_epik_Tot_abs_Q>
1

> <r_epik_Metal_State_Penalty>
0.812492

> <b_epik_Metal_Only>
1

> <s_lp_Force_Field>
OPLS_2005

> <r_lp_Energy>
47.3152

> <b_lp_Chiralities_Consistent>
1

> <s_lp_Variant>
AV-unprocessed.smi:798-14

> <Gold.Version>
5.8.1

> <Gold.Id.Protein>
6NUR|6NUR_protein|mol2

> <Gold.PLP.Fitness>
44.4296

> <Gold.PLP.PLP>
-39.2515

> <Gold.PLP.part.hbond>
-2.8862

> <Gold.PLP.part.metal>
0.0000

> <Gold.PLP.part.buried>
-7.7510

> <Gold.PLP.part.nonpolar>
-28.5527

> <Gold.PLP.part.repulsive>
0.1400

> <Gold.PLP.ligand.clash>
0.0000

> <Gold.PLP.ligand.torsion>
0.6072

> <Gold.PLP.Chemscore.Hbond>
1.7200

> <Gold.PLP.Chemscore.CHOScore>
0.4022

> <Gold.PLP.Chemscore.Metal>
0.0000

> <Gold.Chemscore.Hbonds>
donor molecule, donor type, donor heavy atom, donor atom, acceptor molecule, acceptor atom, score
      P1  H  7989  7998       L1     6  0.94
      P1  H  7997  8008       L1     5  0.37
      L1  C     7    19       P1  7949  0.38

> <Gold.PLP.Chemscore.Internal.Correction>
0.0258

> <Gold.Rescore>
     Score         DG    S(hbond)    S(metal)    S(lipo)     H(rot)  DE(clash)    DE(int)     intcor
     17.13     -18.20       1.59        0.00     105.32       1.92       0.06       1.02       ----

> <Gold.Chemscore.Fitness>
17.1261

> <Gold.Chemscore.DG>
-18.2012

> <Gold.Chemscore.ZeroCoef>
-5.4800

> <Gold.Chemscore.Hbond>
1.5914

> <Gold.Chemscore.Metal>
0.0000

> <Gold.Chemscore.Lipo>
105.3230

> <Gold.Chemscore.Internal_Hbond>
0.0000

> <Gold.Chemscore.DEClash>
0.0577

> <Gold.Chemscore.DEInternal>
1.0175

> <Gold.Chemscore.Rot>
1.9207

> <Gold.Chemscore.Internal.Correction>
   9.000000E+99

> <Gold.Chemscore.Hbonds>
donor molecule, donor type, donor heavy atom, donor atom, acceptor molecule, acceptor atom, score
      P1  H  7989  7998       L1     6  0.85
      P1  H  7997  8008       L1     5  0.15

> <Gold.Chemscore.Hbond.Weighted>
-5.3153

> <Gold.Chemscore.Metal.Weighted>
-0.0000

> <Gold.Chemscore.Lipo.Weighted>
-12.3228

> <Gold.Chemscore.Internal_Hbond.Weighted>
0.0000

> <Gold.Chemscore.DEClash.Weighted>
0.0577

> <Gold.Chemscore.DEInternal.Weighted>
1.0175

> <Gold.Chemscore.Rot.Weighted>
4.9169

> <Gold.Chemscore.Internal.Correction.Weighted>
   9.000000E+99

> <Gold.Protein.RotatedTorsions>
[ 6907 6896 6895 6894 ] final -176.34 input  -60.11 | X-H torsion
[ 7974 7965 7964 7962 ] final   80.12 input  175.53 | X-H torsion
[ 8008 7997 7996 7995 ] final  -36.46 input   59.86 | X-H torsion
[ 10167 10162 10161 10158 ] final   38.40 input  -65.29 | X-H torsion
[ 10718 10713 10712 10709 ] final  178.25 input   66.30 | X-H torsion
[ 10763 10752 10751 10750 ] final  -39.28 input  -60.55 | X-H torsion
[ 11005 11000 10999 10996 ] final -146.50 input  -57.11 | X-H torsion

> <Gold.Protein.ActiveResidues>
 VAL166  LYS551  ARG553  GLY616  TRP617  ASP618  TYR619  PRO620  LYS621  CYS622 
 ASP623  PHE694  ASN695  SER759  ASP760  ASP761  ALA762  ILE779  LEU786  VAL792 
 PHE793  MET794  SER795  GLU796  ALA797  LYS798  CYS799  TRP800  GLU811  SER814 

> <Gold.Protein.RotatedAtoms>
  151.6032  133.3354  159.3051 H   0  0  0  0  0  0  0  0  0  0  0  0  # atno 6907 bound_to 6896
  150.8197  134.7401  159.6772 H   0  0  0  0  0  0  0  0  0  0  0  0  # atno 6908 bound_to 6896
  152.4291  134.5818  160.0001 H   0  0  0  0  0  0  0  0  0  0  0  0  # atno 6909 bound_to 6896
  145.6554  139.2458  143.1953 H   0  0  0  0  0  0  0  0  0  0  0  0  # atno 7974 bound_to 7965
  154.4072  140.1630  156.2378 H   0  0  0  0  0  0  0  0  0  0  0  0  # atno 8008 bound_to 7997
  155.9227  140.3420  155.6163 H   0  0  0  0  0  0  0  0  0  0  0  0  # atno 8009 bound_to 7997
  155.7202  140.0767  157.2324 H   0  0  0  0  0  0  0  0  0  0  0  0  # atno 8010 bound_to 7997
  140.3940  144.1814  150.6131 H   0  0  0  0  0  0  0  0  0  0  0  0  # atno 10167 bound_to 10162
  156.8933  130.9854  151.3046 H   0  0  0  0  0  0  0  0  0  0  0  0  # atno 10718 bound_to 10713
  153.9267  135.6776  153.4746 H   0  0  0  0  0  0  0  0  0  0  0  0  # atno 10763 bound_to 10752
  153.1000  135.4832  154.8847 H   0  0  0  0  0  0  0  0  0  0  0  0  # atno 10764 bound_to 10752
  154.7449  135.3170  154.8619 H   0  0  0  0  0  0  0  0  0  0  0  0  # atno 10765 bound_to 10752
  140.7813  134.3076  157.5044 H   0  0  0  0  0  0  0  0  0  0  0  0  # atno 11005 bound_to 11000
  146.1169  140.7358  142.9476 LP  0  0  0  0  0  0  0  0  0  0  0  0  # atno 17320 bound_to 7965
  144.7108  140.4030  143.7082 LP  0  0  0  0  0  0  0  0  0  0  0  0  # atno 17321 bound_to 7965
  140.4810  143.2379  151.8955 LP  0  0  0  0  0  0  0  0  0  0  0  0  # atno 17342 bound_to 10162
  139.4787  144.5269  151.8722 LP  0  0  0  0  0  0  0  0  0  0  0  0  # atno 17343 bound_to 10162
  157.6070  130.8555  149.8891 LP  0  0  0  0  0  0  0  0  0  0  0  0  # atno 17370 bound_to 10713
  156.0618  130.3698  150.0965 LP  0  0  0  0  0  0  0  0  0  0  0  0  # atno 17371 bound_to 10713
  139.8742  134.9320  156.3543 LP  0  0  0  0  0  0  0  0  0  0  0  0  # atno 17394 bound_to 11000
  140.9480  133.7470  156.0233 LP  0  0  0  0  0  0  0  0  0  0  0  0  # atno 17395 bound_to 11000

$$$$
