AV-unprocessed.smi:902|AV-procd|sdf|4094|dock6
  -GOLD-   22720 1583D 1   1.00000     0.00000
 Structure written by MMmdl.
 42 44  0  0  0  0  0  0  0  0  1 V2000
  152.9208  137.8270  158.0826 C   0  0  0  0  0  0  0  0  0  0  0  0
  152.2687  139.1154  158.2129 N   0  0  0  0  0  0  0  0  0  0  0  0
  153.0028  140.2481  158.2014 N   0  0  0  0  0  0  0  0  0  0  0  0
  152.1240  141.2371  158.3342 C   0  0  0  0  0  0  0  0  0  0  0  0
  152.6008  142.6644  158.3607 C   0  0  0  0  0  0  0  0  0  0  0  0
  153.0370  143.3143  159.6817 C   0  0  0  0  0  0  0  0  0  0  0  0
  152.4368  144.6325  159.1817 C   0  0  0  0  0  0  0  0  0  0  0  0
  151.6063  143.8205  158.1822 C   0  0  0  0  0  0  0  0  0  0  0  0
  150.7824  140.7663  158.4355 C   0  0  0  0  0  0  0  0  0  0  0  0
  150.9308  139.4091  158.3517 C   0  0  0  0  0  0  0  0  0  0  0  0
  149.9775  138.4406  158.3860 N   0  0  0  0  0  0  0  0  0  0  0  0
  149.9296  137.3339  159.1475 C   0  0  0  0  0  0  0  0  0  0  0  0
  150.7845  136.9904  159.9643 O   0  0  0  0  0  0  0  0  0  0  0  0
  148.8133  136.6322  158.9063 N   0  0  0  0  0  0  0  0  0  0  0  0
  148.4320  135.4028  159.5925 C   0  0  0  0  0  0  0  0  0  0  0  0
  147.5445  135.5556  160.8270 C   0  0  0  0  0  0  0  0  0  0  0  0
  146.1965  136.1935  160.5047 C   0  0  0  0  0  0  0  0  0  0  0  0
  146.3357  137.5500  160.1357 O   0  0  0  0  0  0  0  0  0  0  0  0
  147.5666  134.4297  161.8428 C   0  0  0  0  0  0  0  0  0  0  0  0
  148.1663  135.7657  162.1928 C   0  0  0  0  0  0  0  0  0  0  0  0
  152.5535  137.1487  158.8532 H   0  0  0  0  0  0  0  0  0  0  0  0
  154.0011  137.9312  158.1925 H   0  0  0  0  0  0  0  0  0  0  0  0
  152.7021  137.4058  157.1014 H   0  0  0  0  0  0  0  0  0  0  0  0
  153.4062  142.7852  157.6336 H   0  0  0  0  0  0  0  0  0  0  0  0
  152.5084  142.9177  160.5501 H   0  0  0  0  0  0  0  0  0  0  0  0
  154.1151  143.3353  159.8435 H   0  0  0  0  0  0  0  0  0  0  0  0
  151.8514  145.1768  159.9233 H   0  0  0  0  0  0  0  0  0  0  0  0
  153.1729  145.2740  158.6949 H   0  0  0  0  0  0  0  0  0  0  0  0
  151.5689  144.2367  157.1753 H   0  0  0  0  0  0  0  0  0  0  0  0
  150.6087  143.5897  158.5589 H   0  0  0  0  0  0  0  0  0  0  0  0
  149.8784  141.3455  158.5481 H   0  0  0  0  0  0  0  0  0  0  0  0
  149.2002  138.5806  157.7577 H   0  0  0  0  0  0  0  0  0  0  0  0
  148.1656  136.9885  158.2189 H   0  0  0  0  0  0  0  0  0  0  0  0
  147.9062  134.7763  158.8716 H   0  0  0  0  0  0  0  0  0  0  0  0
  149.3331  134.8485  159.8612 H   0  0  0  0  0  0  0  0  0  0  0  0
  145.7026  135.6412  159.7047 H   0  0  0  0  0  0  0  0  0  0  0  0
  145.5457  136.1456  161.3784 H   0  0  0  0  0  0  0  0  0  0  0  0
  145.5872  137.7988  159.6151 H   0  0  0  0  0  0  0  0  0  0  0  0
  146.6329  134.1590  162.3319 H   0  0  0  0  0  0  0  0  0  0  0  0
  148.2552  133.6038  161.6742 H   0  0  0  0  0  0  0  0  0  0  0  0
  149.2508  135.8281  162.2534 H   0  0  0  0  0  0  0  0  0  0  0  0
  147.6258  136.3894  162.9022 H   0  0  0  0  0  0  0  0  0  0  0  0
  1  2  1  0  0  0  0
  1 21  1  0  0  0  0
  1 22  1  0  0  0  0
  1 23  1  0  0  0  0
  2 10  1  0  0  0  0
  2  3  1  0  0  0  0
  3  4  2  0  0  0  0
  4  5  1  0  0  0  0
  4  9  1  0  0  0  0
  5  8  1  0  0  0  0
  5  6  1  0  0  0  0
  5 24  1  0  0  0  0
  6  7  1  0  0  0  0
  6 25  1  0  0  0  0
  6 26  1  0  0  0  0
  7  8  1  0  0  0  0
  7 27  1  0  0  0  0
  7 28  1  0  0  0  0
  8 29  1  0  0  0  0
  8 30  1  0  0  0  0
  9 10  2  0  0  0  0
  9 31  1  0  0  0  0
 10 11  1  0  0  0  0
 11 12  1  0  0  0  0
 11 32  1  0  0  0  0
 12 13  2  0  0  0  0
 12 14  1  0  0  0  0
 14 15  1  0  0  0  0
 14 33  1  0  0  0  0
 15 16  1  0  0  0  0
 15 34  1  0  0  0  0
 15 35  1  0  0  0  0
 16 20  1  0  0  0  0
 16 17  1  0  0  0  0
 16 19  1  0  0  0  0
 17 18  1  0  0  0  0
 17 36  1  0  0  0  0
 17 37  1  0  0  0  0
 18 38  1  0  0  0  0
 19 20  1  0  0  0  0
 19 39  1  0  0  0  0
 19 40  1  0  0  0  0
 20 41  1  0  0  0  0
 20 42  1  0  0  0  0
M  END
> <s_m_source_file>
AV-unprocessed.smi

> <i_m_source_file_index>
902

> <i_lp_mmshare_version>
43012

> <i_f3d_flags>
0

> <s_epik_input>
W0NIMl0xW0NIMl1bQ0gyXVtDSF0xYyhubjJbQ0gzXSlbY0hdYzJbTkhdQyg9TylbTkhdW0NIMl1DMyhbQ0gyXVtPSF0pW0NIMl1bQ0gyXTM=

> <s_epik_cmdline>
J2VwaWtfcHl0aG9uJywgJy1waCcsICc3LjAnLCAnLXRuJywgJzgnLCAnLW1hJywgJzIwMCcsICctbWV0YWxfYmluZGluZycsICctaW1hZScsICc8aW5maWxlLm1hZT4nLCAnLW9tYWUnLCAnPG91dGZpbGUubWFlPic=

> <r_lp_tautomer_probability>
1

> <r_epik_Ionization_Penalty>
9.68756e-05

> <r_epik_Ionization_Penalty_Charging>
0

> <r_epik_Ionization_Penalty_Neutral>
9.68756e-05

> <r_epik_State_Penalty>
-0

> <r_epik_Charging_Adjusted_Penalty>
0

> <i_epik_Tot_Q>
0

> <i_epik_Tot_abs_Q>
0

> <r_epik_Metal_State_Penalty>
-0

> <b_epik_Metal_Only>
0

> <s_lp_Force_Field>
OPLS_2005

> <r_lp_Energy>
26.4992

> <b_lp_Chiralities_Consistent>
1

> <s_lp_Variant>
AV-unprocessed.smi:902-1

> <Gold.Version>
5.8.1

> <Gold.Id.Protein>
6NUR|6NUR_protein|mol2

> <Gold.PLP.Fitness>
40.9714

> <Gold.PLP.PLP>
-34.3600

> <Gold.PLP.part.hbond>
-3.8392

> <Gold.PLP.part.metal>
0.0000

> <Gold.PLP.part.buried>
-4.0626

> <Gold.PLP.part.nonpolar>
-27.2110

> <Gold.PLP.part.repulsive>
0.3062

> <Gold.PLP.ligand.clash>
0.0000

> <Gold.PLP.ligand.torsion>
1.7750

> <Gold.PLP.Chemscore.Hbond>
2.9429

> <Gold.PLP.Chemscore.CHOScore>
0.0000

> <Gold.PLP.Chemscore.Metal>
0.0000

> <Gold.Chemscore.Hbonds>
donor molecule, donor type, donor heavy atom, donor atom, acceptor molecule, acceptor atom, score
      P1  H  6896  6907       L1    13  1.00
      P1  H  6934  6947       L1    18  1.00
      P1  H  7997  8009       L1     3  0.94

> <Gold.PLP.Chemscore.Internal.Correction>
1.3329

> <Gold.Rescore>
     Score         DG    S(hbond)    S(metal)    S(lipo)     H(rot)  DE(clash)    DE(int)     intcor
     16.57     -19.75       2.67        0.00      95.25       2.26       0.34       2.84       ----

> <Gold.Chemscore.Fitness>
16.5696

> <Gold.Chemscore.DG>
-19.7494

> <Gold.Chemscore.ZeroCoef>
-5.4800

> <Gold.Chemscore.Hbond>
2.6699

> <Gold.Chemscore.Metal>
0.0000

> <Gold.Chemscore.Lipo>
95.2492

> <Gold.Chemscore.Internal_Hbond>
0.0000

> <Gold.Chemscore.DEClash>
0.3352

> <Gold.Chemscore.DEInternal>
2.8446

> <Gold.Chemscore.Rot>
2.2626

> <Gold.Chemscore.Internal.Correction>
   9.000000E+99

> <Gold.Chemscore.Hbonds>
donor molecule, donor type, donor heavy atom, donor atom, acceptor molecule, acceptor atom, score
      P1  H  6896  6907       L1    13  0.88
      P1  H  6934  6947       L1    18  0.78
      P1  H  7997  8009       L1     3  0.70

> <Gold.Chemscore.Hbond.Weighted>
-8.9174

> <Gold.Chemscore.Metal.Weighted>
-0.0000

> <Gold.Chemscore.Lipo.Weighted>
-11.1442

> <Gold.Chemscore.Internal_Hbond.Weighted>
0.0000

> <Gold.Chemscore.DEClash.Weighted>
0.3352

> <Gold.Chemscore.DEInternal.Weighted>
2.8446

> <Gold.Chemscore.Rot.Weighted>
5.7922

> <Gold.Chemscore.Internal.Correction.Weighted>
   9.000000E+99

> <Gold.Protein.RotatedTorsions>
[ 6907 6896 6895 6894 ] final  -21.58 input  -60.11 | X-H torsion
[ 7974 7965 7964 7962 ] final   67.87 input  175.53 | X-H torsion
[ 8008 7997 7996 7995 ] final  156.52 input   59.86 | X-H torsion
[ 10167 10162 10161 10158 ] final  -45.73 input  -65.29 | X-H torsion
[ 10718 10713 10712 10709 ] final  -53.11 input   66.30 | X-H torsion
[ 10763 10752 10751 10750 ] final   80.93 input  -60.55 | X-H torsion
[ 11005 11000 10999 10996 ] final   53.43 input  -57.11 | X-H torsion

> <Gold.Protein.ActiveResidues>
 VAL166  LYS551  ARG553  GLY616  TRP617  ASP618  TYR619  PRO620  LYS621  CYS622 
 ASP623  PHE694  ASN695  SER759  ASP760  ASP761  ALA762  ILE779  LEU786  VAL792 
 PHE793  MET794  SER795  GLU796  ALA797  LYS798  CYS799  TRP800  GLU811  SER814 

> <Gold.Protein.RotatedAtoms>
  151.2313  135.0555  159.8988 H   0  0  0  0  0  0  0  0  0  0  0  0  # atno 6907 bound_to 6896
  152.5404  134.0534  159.8130 H   0  0  0  0  0  0  0  0  0  0  0  0  # atno 6908 bound_to 6896
  151.0714  133.5414  159.2658 H   0  0  0  0  0  0  0  0  0  0  0  0  # atno 6909 bound_to 6896
  145.8095  139.3024  143.1108 H   0  0  0  0  0  0  0  0  0  0  0  0  # atno 7974 bound_to 7965
  156.2417  140.1910  156.6969 H   0  0  0  0  0  0  0  0  0  0  0  0  # atno 8008 bound_to 7997
  154.6211  140.0608  156.9642 H   0  0  0  0  0  0  0  0  0  0  0  0  # atno 8009 bound_to 7997
  155.1861  140.3280  155.4369 H   0  0  0  0  0  0  0  0  0  0  0  0  # atno 8010 bound_to 7997
  140.6846  143.2865  151.3681 H   0  0  0  0  0  0  0  0  0  0  0  0  # atno 10167 bound_to 10162
  156.1563  130.4150  149.9864 H   0  0  0  0  0  0  0  0  0  0  0  0  # atno 10718 bound_to 10713
  153.1074  135.4784  154.8976 H   0  0  0  0  0  0  0  0  0  0  0  0  # atno 10763 bound_to 10752
  154.7445  135.3090  154.8672 H   0  0  0  0  0  0  0  0  0  0  0  0  # atno 10764 bound_to 10752
  153.9270  135.6849  153.4800 H   0  0  0  0  0  0  0  0  0  0  0  0  # atno 10765 bound_to 10752
  140.0768  134.5394  155.8988 H   0  0  0  0  0  0  0  0  0  0  0  0  # atno 11005 bound_to 11000
  145.9793  140.8696  143.0123 LP  0  0  0  0  0  0  0  0  0  0  0  0  # atno 17320 bound_to 7965
  144.6759  140.2057  143.7382 LP  0  0  0  0  0  0  0  0  0  0  0  0  # atno 17321 bound_to 7965
  139.6194  144.0936  152.2377 LP  0  0  0  0  0  0  0  0  0  0  0  0  # atno 17342 bound_to 10162
  140.0376  144.6032  150.7437 LP  0  0  0  0  0  0  0  0  0  0  0  0  # atno 17343 bound_to 10162
  156.7706  130.9185  151.3644 LP  0  0  0  0  0  0  0  0  0  0  0  0  # atno 17370 bound_to 10713
  157.6697  130.9040  150.0013 LP  0  0  0  0  0  0  0  0  0  0  0  0  # atno 17371 bound_to 10713
  141.2032  133.6630  156.6050 LP  0  0  0  0  0  0  0  0  0  0  0  0  # atno 17394 bound_to 11000
  140.3546  134.7739  157.4491 LP  0  0  0  0  0  0  0  0  0  0  0  0  # atno 17395 bound_to 11000

$$$$
