AV-unprocessed.smi:3270|AV-procd|sdf|12514|dock7
  -GOLD-   2272018423D 1   1.00000     0.00000
 Structure written by MMmdl.
 39 40  0  0  0  0  0  0  0  0  2 V2000
  151.5329  145.3207  160.0589 C   0  0  0  0  0  0  0  0  0  0  0  0
  151.9950  143.9662  159.4835 C   0  0  2  0  0  0  0  0  0  0  0  0
  150.8593  143.1803  158.8031 C   0  0  0  0  0  0  0  0  0  0  0  0
  149.8085  142.9422  159.4002 O   0  0  0  0  0  0  0  0  0  0  0  0
  151.0770  142.7940  157.5353 N   0  0  0  0  0  0  0  0  0  0  0  0
  150.1315  142.0477  156.7140 C   0  0  0  0  0  0  0  0  0  0  0  0
  149.9768  140.5984  157.2131 C   0  0  0  0  0  0  0  0  0  0  0  0
  151.0126  139.6895  156.6613 N   0  3  0  0  0  0  0  0  0  0  0  0
  151.3691  140.0305  155.2630 C   0  0  0  0  0  0  0  0  0  0  0  0
  152.4067  139.0386  154.7111 C   0  0  0  0  0  0  0  0  0  0  0  0
  153.5564  139.0391  155.5477 O   0  0  0  0  0  0  0  0  0  0  0  0
  153.2484  138.6253  156.8727 C   0  0  0  0  0  0  0  0  0  0  0  0
  152.2350  139.5991  157.4989 C   0  0  0  0  0  0  0  0  0  0  0  0
  152.6623  143.1513  160.4933 N   0  0  0  0  0  0  0  0  0  0  0  0
  152.8037  143.4161  161.8406 C   0  0  0  0  0  0  0  0  0  0  0  0
  153.5197  142.3905  162.3880 C   0  0  0  0  0  0  0  0  0  0  0  0
  153.7826  141.5347  161.2826 C   0  0  0  0  0  0  0  0  0  0  0  0
  153.2747  141.9941  160.1508 N   0  0  0  0  0  0  0  0  0  0  0  0
  151.1032  145.9537  159.2815 H   0  0  0  0  0  0  0  0  0  0  0  0
  152.3721  145.8647  160.4933 H   0  0  0  0  0  0  0  0  0  0  0  0
  150.7806  145.1974  160.8391 H   0  0  0  0  0  0  0  0  0  0  0  0
  152.7314  144.1819  158.7079 H   0  0  0  0  0  0  0  0  0  0  0  0
  151.9659  143.0253  157.1154 H   0  0  0  0  0  0  0  0  0  0  0  0
  149.1809  142.5778  156.7580 H   0  0  0  0  0  0  0  0  0  0  0  0
  150.4482  142.0631  155.6696 H   0  0  0  0  0  0  0  0  0  0  0  0
  150.0583  140.5981  158.3012 H   0  0  0  0  0  0  0  0  0  0  0  0
  148.9834  140.2127  156.9787 H   0  0  0  0  0  0  0  0  0  0  0  0
  150.4764  140.0108  154.6365 H   0  0  0  0  0  0  0  0  0  0  0  0
  151.7661  141.0462  155.2239 H   0  0  0  0  0  0  0  0  0  0  0  0
  151.9889  138.0327  154.6442 H   0  0  0  0  0  0  0  0  0  0  0  0
  152.7038  139.3279  153.7029 H   0  0  0  0  0  0  0  0  0  0  0  0
  152.8582  137.6062  156.8673 H   0  0  0  0  0  0  0  0  0  0  0  0
  154.1670  138.6111  157.4596 H   0  0  0  0  0  0  0  0  0  0  0  0
  152.6843  140.5883  157.6003 H   0  0  0  0  0  0  0  0  0  0  0  0
  151.9871  139.2562  158.5027 H   0  0  0  0  0  0  0  0  0  0  0  0
  152.3871  144.3035  162.2939 H   0  0  0  0  0  0  0  0  0  0  0  0
  153.8125  142.2706  163.4204 H   0  0  0  0  0  0  0  0  0  0  0  0
  154.3262  140.6016  161.2680 H   0  0  0  0  0  0  0  0  0  0  0  0
  150.6027  138.7667  156.6321 H   0  0  0  0  0  0  0  0  0  0  0  0
  1  2  1  0  0  0  0
  1 19  1  0  0  0  0
  1 20  1  0  0  0  0
  1 21  1  0  0  0  0
  2  3  1  0  0  0  0
  2 14  1  0  0  0  0
  2 22  1  0  0  0  0
  3  4  2  0  0  0  0
  3  5  1  0  0  0  0
  5  6  1  0  0  0  0
  5 23  1  0  0  0  0
  6  7  1  0  0  0  0
  6 24  1  0  0  0  0
  6 25  1  0  0  0  0
  7  8  1  0  0  0  0
  7 26  1  0  0  0  0
  7 27  1  0  0  0  0
  8 13  1  0  0  0  0
  8  9  1  0  0  0  0
  8 39  1  0  0  0  0
  9 10  1  0  0  0  0
  9 28  1  0  0  0  0
  9 29  1  0  0  0  0
 10 11  1  0  0  0  0
 10 30  1  0  0  0  0
 10 31  1  0  0  0  0
 11 12  1  0  0  0  0
 12 13  1  0  0  0  0
 12 32  1  0  0  0  0
 12 33  1  0  0  0  0
 13 34  1  0  0  0  0
 13 35  1  0  0  0  0
 14 18  1  0  0  0  0
 14 15  1  0  0  0  0
 15 16  2  0  0  0  0
 15 36  1  0  0  0  0
 16 17  1  0  0  0  0
 16 37  1  0  0  0  0
 17 18  2  0  0  0  0
 17 38  1  0  0  0  0
M  CHG  1   8   1
M  END
> <s_m_source_file>
AV-unprocessed.smi

> <i_m_source_file_index>
3270

> <i_lp_mmshare_version>
43012

> <i_f3d_flags>
0

> <s_epik_input>
bjFbY0hdW2NIXVtjSF1uMVtDQEhdKFtDSDNdKUMoPU8pW05IXVtDSDJdW0NIMl1OMltDSDJdW0NIMl1PW0NIMl1bQ0gyXTI=

> <s_epik_cmdline>
J2VwaWtfcHl0aG9uJywgJy1waCcsICc3LjAnLCAnLXRuJywgJzgnLCAnLW1hJywgJzIwMCcsICctbWV0YWxfYmluZGluZycsICctaW1hZScsICc8aW5maWxlLm1hZT4nLCAnLW9tYWUnLCAnPG91dGZpbGUubWFlPic=

> <r_lp_tautomer_probability>
1

> <r_epik_Ionization_Penalty>
0.73255

> <r_epik_Ionization_Penalty_Charging>
0.732531

> <r_epik_Ionization_Penalty_Neutral>
1.96965e-05

> <r_epik_State_Penalty>
0.757939

> <r_epik_Charging_Adjusted_Penalty>
1.49047

> <i_epik_Tot_Q>
1

> <i_epik_Tot_abs_Q>
1

> <r_epik_Metal_State_Penalty>
0.757952

> <b_epik_Metal_Only>
0

> <s_lp_Force_Field>
OPLS_2005

> <r_lp_Energy>
19.6504

> <b_lp_Chiralities_Consistent>
1

> <s_lp_Variant>
AV-unprocessed.smi:3270-3

> <Gold.Version>
5.8.1

> <Gold.Id.Protein>
6NUR|6NUR_protein|mol2

> <Gold.PLP.Fitness>
43.9903

> <Gold.PLP.PLP>
-42.8185

> <Gold.PLP.part.hbond>
-1.7863

> <Gold.PLP.part.metal>
0.0000

> <Gold.PLP.part.buried>
-5.1263

> <Gold.PLP.part.nonpolar>
-35.3810

> <Gold.PLP.part.repulsive>
0.1816

> <Gold.PLP.ligand.clash>
0.0000

> <Gold.PLP.ligand.torsion>
0.7253

> <Gold.PLP.Chemscore.Hbond>
0.8320

> <Gold.PLP.Chemscore.CHOScore>
0.0000

> <Gold.PLP.Chemscore.Metal>
0.0000

> <Gold.Chemscore.Hbonds>
donor molecule, donor type, donor heavy atom, donor atom, acceptor molecule, acceptor atom, score
      P1  H  7997  8009       L1    11  0.08

> <Gold.PLP.Chemscore.Internal.Correction>
0.1265

> <Gold.Rescore>
     Score         DG    S(hbond)    S(metal)    S(lipo)     H(rot)  DE(clash)    DE(int)     intcor
     13.03     -13.57       0.55        0.00      95.27       1.91       0.02       0.51       ----

> <Gold.Chemscore.Fitness>
13.0319

> <Gold.Chemscore.DG>
-13.5701

> <Gold.Chemscore.ZeroCoef>
-5.4800

> <Gold.Chemscore.Hbond>
0.5494

> <Gold.Chemscore.Metal>
0.0000

> <Gold.Chemscore.Lipo>
95.2729

> <Gold.Chemscore.Internal_Hbond>
0.0000

> <Gold.Chemscore.DEClash>
0.0249

> <Gold.Chemscore.DEInternal>
0.5133

> <Gold.Chemscore.Rot>
1.9109

> <Gold.Chemscore.Internal.Correction>
   9.000000E+99

> <Gold.Chemscore.Hbond.Weighted>
-1.8351

> <Gold.Chemscore.Metal.Weighted>
-0.0000

> <Gold.Chemscore.Lipo.Weighted>
-11.1469

> <Gold.Chemscore.Internal_Hbond.Weighted>
0.0000

> <Gold.Chemscore.DEClash.Weighted>
0.0249

> <Gold.Chemscore.DEInternal.Weighted>
0.5133

> <Gold.Chemscore.Rot.Weighted>
4.8919

> <Gold.Chemscore.Internal.Correction.Weighted>
   9.000000E+99

> <Gold.Protein.RotatedTorsions>
[ 6907 6896 6895 6894 ] final    5.65 input  -60.11 | X-H torsion
[ 7974 7965 7964 7962 ] final -120.31 input  175.53 | X-H torsion
[ 8008 7997 7996 7995 ] final -160.84 input   59.86 | X-H torsion
[ 10167 10162 10161 10158 ] final   37.58 input  -65.29 | X-H torsion
[ 10718 10713 10712 10709 ] final  128.10 input   66.30 | X-H torsion
[ 10763 10752 10751 10750 ] final  -56.32 input  -60.55 | X-H torsion
[ 11005 11000 10999 10996 ] final   -2.53 input  -57.11 | X-H torsion

> <Gold.Protein.ActiveResidues>
 VAL166  LYS551  ARG553  GLY616  TRP617  ASP618  TYR619  PRO620  LYS621  CYS622 
 ASP623  PHE694  ASN695  SER759  ASP760  ASP761  ALA762  ILE779  LEU786  VAL792 
 PHE793  MET794  SER795  GLU796  ALA797  LYS798  CYS799  TRP800  GLU811  SER814 

> <Gold.Protein.RotatedAtoms>
  151.6610  135.0989  160.0179 H   0  0  0  0  0  0  0  0  0  0  0  0  # atno 6907 bound_to 6896
  152.3947  133.6725  159.6274 H   0  0  0  0  0  0  0  0  0  0  0  0  # atno 6908 bound_to 6896
  150.7856  133.8812  159.3327 H   0  0  0  0  0  0  0  0  0  0  0  0  # atno 6909 bound_to 6896
  145.0528  140.8231  143.4199 H   0  0  0  0  0  0  0  0  0  0  0  0  # atno 7974 bound_to 7965
  155.7834  140.0868  157.2047 H   0  0  0  0  0  0  0  0  0  0  0  0  # atno 8008 bound_to 7997
  154.3989  140.1503  156.3137 H   0  0  0  0  0  0  0  0  0  0  0  0  # atno 8009 bound_to 7997
  155.8630  140.3429  155.5772 H   0  0  0  0  0  0  0  0  0  0  0  0  # atno 8010 bound_to 7997
  140.4019  144.1712  150.6134 H   0  0  0  0  0  0  0  0  0  0  0  0  # atno 10167 bound_to 10162
  157.5275  131.1098  150.9061 H   0  0  0  0  0  0  0  0  0  0  0  0  # atno 10718 bound_to 10713
  154.2049  135.6404  153.5098 H   0  0  0  0  0  0  0  0  0  0  0  0  # atno 10763 bound_to 10752
  153.0003  135.5460  154.6277 H   0  0  0  0  0  0  0  0  0  0  0  0  # atno 10764 bound_to 10752
  154.5699  135.2916  155.0811 H   0  0  0  0  0  0  0  0  0  0  0  0  # atno 10765 bound_to 10752
  140.6594  133.9334  155.8427 H   0  0  0  0  0  0  0  0  0  0  0  0  # atno 11005 bound_to 11000
  145.1506  139.2517  143.5443 LP  0  0  0  0  0  0  0  0  0  0  0  0  # atno 17320 bound_to 7965
  146.3519  140.1208  142.8600 LP  0  0  0  0  0  0  0  0  0  0  0  0  # atno 17321 bound_to 7965
  140.4731  143.2406  151.9061 LP  0  0  0  0  0  0  0  0  0  0  0  0  # atno 17342 bound_to 10162
  139.4784  144.5349  151.8613 LP  0  0  0  0  0  0  0  0  0  0  0  0  # atno 17343 bound_to 10162
  156.9652  130.5470  149.5288 LP  0  0  0  0  0  0  0  0  0  0  0  0  # atno 17370 bound_to 10713
  156.0397  130.5481  150.8742 LP  0  0  0  0  0  0  0  0  0  0  0  0  # atno 17371 bound_to 10713
  141.0477  134.0530  157.3823 LP  0  0  0  0  0  0  0  0  0  0  0  0  # atno 17394 bound_to 11000
  139.9018  135.0167  156.7304 LP  0  0  0  0  0  0  0  0  0  0  0  0  # atno 17395 bound_to 11000

$$$$
