AV-unprocessed.smi:3337|AV-procd|sdf|12861|dock9
  -GOLD-   2272019263D 1   1.00000     0.00000
 Structure written by MMmdl.
 46 47  0  0  0  0  0  0  0  0  2 V2000
  144.4542  133.5197  150.2338 C   0  0  0  0  0  0  0  0  0  0  0  0
  145.3791  134.2552  151.2139 C   0  0  2  0  0  0  0  0  0  0  0  0
  145.0383  133.9060  152.6737 C   0  0  0  0  0  0  0  0  0  0  0  0
  145.9194  134.6862  153.6662 C   0  0  1  0  0  0  0  0  0  0  0  0
  147.3623  134.1559  153.7330 C   0  0  0  0  0  0  0  0  0  0  0  0
  145.8663  136.1972  153.3645 C   0  0  0  0  0  0  0  0  0  0  0  0
  146.2222  136.4921  151.9517 N   0  3  2  0  0  0  0  0  0  0  0  0
  146.3081  137.9512  151.6914 C   0  0  0  0  0  0  0  0  0  0  0  0
  146.8787  138.7329  152.8912 C   0  0  0  0  0  0  0  0  0  0  0  0
  148.2857  138.4208  153.1125 N   0  0  0  0  0  0  0  0  0  0  0  0
  149.0417  138.9386  154.0935 C   0  0  0  0  0  0  0  0  0  0  0  0
  148.6067  139.7408  154.9206 O   0  0  0  0  0  0  0  0  0  0  0  0
  150.5068  138.4795  154.1445 C   0  0  2  0  0  0  0  0  0  0  0  0
  150.6354  136.9665  154.4132 C   0  0  0  0  0  0  0  0  0  0  0  0
  151.2514  139.2790  155.1095 N   0  0  0  0  0  0  0  0  0  0  0  0
  152.0633  138.8942  156.0970 C   0  0  0  0  0  0  0  0  0  0  0  0
  152.6175  139.8982  156.7617 N   0  0  0  0  0  0  0  0  0  0  0  0
  152.0763  140.9501  156.0788 C   0  0  0  0  0  0  0  0  0  0  0  0
  151.2613  140.6351  155.0723 N   0  0  0  0  0  0  0  0  0  0  0  0
  145.3240  135.7807  151.0032 C   0  0  0  0  0  0  0  0  0  0  0  0
  143.4125  133.8089  150.3773 H   0  0  0  0  0  0  0  0  0  0  0  0
  144.5208  132.4397  150.3671 H   0  0  0  0  0  0  0  0  0  0  0  0
  144.7210  133.7401  149.1998 H   0  0  0  0  0  0  0  0  0  0  0  0
  146.3966  133.9213  151.0074 H   0  0  0  0  0  0  0  0  0  0  0  0
  143.9911  134.1460  152.8645 H   0  0  0  0  0  0  0  0  0  0  0  0
  145.1387  132.8331  152.8424 H   0  0  0  0  0  0  0  0  0  0  0  0
  145.4944  134.5377  154.6598 H   0  0  0  0  0  0  0  0  0  0  0  0
  147.8923  134.2902  152.7901 H   0  0  0  0  0  0  0  0  0  0  0  0
  147.3777  133.0926  153.9740 H   0  0  0  0  0  0  0  0  0  0  0  0
  147.9317  134.6733  154.5054 H   0  0  0  0  0  0  0  0  0  0  0  0
  144.8644  136.5805  153.5654 H   0  0  0  0  0  0  0  0  0  0  0  0
  146.5420  136.7247  154.0394 H   0  0  0  0  0  0  0  0  0  0  0  0
  146.8967  138.1245  150.7892 H   0  0  0  0  0  0  0  0  0  0  0  0
  145.3099  138.3402  151.4846 H   0  0  0  0  0  0  0  0  0  0  0  0
  146.7946  139.8047  152.7094 H   0  0  0  0  0  0  0  0  0  0  0  0
  146.3225  138.5293  153.8065 H   0  0  0  0  0  0  0  0  0  0  0  0
  148.7181  137.7708  152.4717 H   0  0  0  0  0  0  0  0  0  0  0  0
  150.9494  138.6694  153.1651 H   0  0  0  0  0  0  0  0  0  0  0  0
  150.1153  136.3873  153.6496 H   0  0  0  0  0  0  0  0  0  0  0  0
  150.2206  136.6823  155.3813 H   0  0  0  0  0  0  0  0  0  0  0  0
  151.6814  136.6584  154.3996 H   0  0  0  0  0  0  0  0  0  0  0  0
  152.2558  137.8579  156.3332 H   0  0  0  0  0  0  0  0  0  0  0  0
  152.2944  141.9786  156.3264 H   0  0  0  0  0  0  0  0  0  0  0  0
  145.6095  136.0044  149.9761 H   0  0  0  0  0  0  0  0  0  0  0  0
  144.3023  136.1435  151.1298 H   0  0  0  0  0  0  0  0  0  0  0  0
  147.1515  136.1215  151.8138 H   0  0  0  0  0  0  0  0  0  0  0  0
  1  2  1  0  0  0  0
  1 21  1  0  0  0  0
  1 22  1  0  0  0  0
  1 23  1  0  0  0  0
  2 20  1  0  0  0  0
  2  3  1  0  0  0  0
  2 24  1  0  0  0  0
  3  4  1  0  0  0  0
  3 25  1  0  0  0  0
  3 26  1  0  0  0  0
  4  5  1  0  0  0  0
  4  6  1  0  0  0  0
  4 27  1  0  0  0  0
  5 28  1  0  0  0  0
  5 29  1  0  0  0  0
  5 30  1  0  0  0  0
  6  7  1  0  0  0  0
  6 31  1  0  0  0  0
  6 32  1  0  0  0  0
  7  8  1  0  0  0  0
  7 20  1  0  0  0  0
  7 46  1  0  0  0  0
  8  9  1  0  0  0  0
  8 33  1  0  0  0  0
  8 34  1  0  0  0  0
  9 10  1  0  0  0  0
  9 35  1  0  0  0  0
  9 36  1  0  0  0  0
 10 11  1  0  0  0  0
 10 37  1  0  0  0  0
 11 12  2  0  0  0  0
 11 13  1  0  0  0  0
 13 14  1  0  0  0  0
 13 15  1  0  0  0  0
 13 38  1  0  0  0  0
 14 39  1  0  0  0  0
 14 40  1  0  0  0  0
 14 41  1  0  0  0  0
 15 19  1  0  0  0  0
 15 16  1  0  0  0  0
 16 17  2  0  0  0  0
 16 42  1  0  0  0  0
 17 18  1  0  0  0  0
 18 19  2  0  0  0  0
 18 43  1  0  0  0  0
 20 44  1  0  0  0  0
 20 45  1  0  0  0  0
M  CHG  1   7   1
M  END
> <s_m_source_file>
AV-unprocessed.smi

> <i_m_source_file_index>
3337

> <i_lp_mmshare_version>
43012

> <i_f3d_flags>
0

> <s_epik_input>
W0NIM11bQ0BASF0xW0NIMl1bQ0BASF0oW0NIM10pW0NIMl1OKFtDSDJdMSlbQ0gyXVtDSDJdW05IXUMoPU8pW0NASF0oW0NIM10pbjJbY0hdbltjSF1uMg==

> <s_epik_cmdline>
J2VwaWtfcHl0aG9uJywgJy1waCcsICc3LjAnLCAnLXRuJywgJzgnLCAnLW1hJywgJzIwMCcsICctbWV0YWxfYmluZGluZycsICctaW1hZScsICc8aW5maWxlLm1hZT4nLCAnLW9tYWUnLCAnPG91dGZpbGUubWFlPic=

> <r_lp_tautomer_probability>
1

> <r_epik_Ionization_Penalty>
0.00175613

> <r_epik_Ionization_Penalty_Charging>
0.00174812

> <r_epik_Ionization_Penalty_Neutral>
8.01354e-06

> <r_epik_State_Penalty>
0.00118332

> <r_epik_Charging_Adjusted_Penalty>
0.00293143

> <i_epik_Tot_Q>
1

> <i_epik_Tot_abs_Q>
1

> <r_epik_Metal_State_Penalty>
-0

> <b_epik_Metal_Only>
0

> <s_lp_Force_Field>
OPLS_2005

> <r_lp_Energy>
24.9418

> <b_lp_Chiralities_Consistent>
1

> <s_lp_Variant>
AV-unprocessed.smi:3337-1

> <Gold.Version>
5.8.1

> <Gold.Id.Protein>
6NUR|6NUR_protein|mol2

> <Gold.PLP.Fitness>
45.6621

> <Gold.PLP.PLP>
-31.7383

> <Gold.PLP.part.hbond>
-5.0000

> <Gold.PLP.part.metal>
0.0000

> <Gold.PLP.part.buried>
-2.0748

> <Gold.PLP.part.nonpolar>
-25.6354

> <Gold.PLP.part.repulsive>
0.1995

> <Gold.PLP.ligand.clash>
0.0000

> <Gold.PLP.ligand.torsion>
0.3977

> <Gold.PLP.Chemscore.Hbond>
4.8640

> <Gold.PLP.Chemscore.CHOScore>
0.0000

> <Gold.PLP.Chemscore.Metal>
0.0000

> <Gold.Chemscore.Hbonds>
donor molecule, donor type, donor heavy atom, donor atom, acceptor molecule, acceptor atom, score
      L1  H     7    46       P1  7948  2.00
      L1  H    10    37       P1  7948  1.00
      P1  H  7989  7998       L1    19  0.88
      P1  H  7997  8009       L1    17  1.00

> <Gold.PLP.Chemscore.Internal.Correction>
0.1273

> <Gold.Rescore>
     Score         DG    S(hbond)    S(metal)    S(lipo)     H(rot)  DE(clash)    DE(int)     intcor
     11.65     -13.63       2.22        0.00      61.23       2.51       0.34       1.64       ----

> <Gold.Chemscore.Fitness>
11.6537

> <Gold.Chemscore.DG>
-13.6288

> <Gold.Chemscore.ZeroCoef>
-5.4800

> <Gold.Chemscore.Hbond>
2.2209

> <Gold.Chemscore.Metal>
0.0000

> <Gold.Chemscore.Lipo>
61.2328

> <Gold.Chemscore.Internal_Hbond>
0.0000

> <Gold.Chemscore.DEClash>
0.3397

> <Gold.Chemscore.DEInternal>
1.6354

> <Gold.Chemscore.Rot>
2.5129

> <Gold.Chemscore.Internal.Correction>
   9.000000E+99

> <Gold.Chemscore.Hbonds>
donor molecule, donor type, donor heavy atom, donor atom, acceptor molecule, acceptor atom, score
      L1  H     7    46       P1  7948  0.98
      L1  H    10    37       P1  7948  0.97
      P1  H  7989  7998       L1    19  0.26
      P1  H  7997  8009       L1    17  0.62

> <Gold.Chemscore.Hbond.Weighted>
-7.4176

> <Gold.Chemscore.Metal.Weighted>
-0.0000

> <Gold.Chemscore.Lipo.Weighted>
-7.1642

> <Gold.Chemscore.Internal_Hbond.Weighted>
0.0000

> <Gold.Chemscore.DEClash.Weighted>
0.3397

> <Gold.Chemscore.DEInternal.Weighted>
1.6354

> <Gold.Chemscore.Rot.Weighted>
6.4331

> <Gold.Chemscore.Internal.Correction.Weighted>
   9.000000E+99

> <Gold.Protein.RotatedTorsions>
[ 6907 6896 6895 6894 ] final   55.75 input  -60.11 | X-H torsion
[ 7974 7965 7964 7962 ] final  176.75 input  175.53 | X-H torsion
[ 8008 7997 7996 7995 ] final  173.82 input   59.86 | X-H torsion
[ 10167 10162 10161 10158 ] final  -34.95 input  -65.29 | X-H torsion
[ 10718 10713 10712 10709 ] final -110.02 input   66.30 | X-H torsion
[ 10763 10752 10751 10750 ] final -168.25 input  -60.55 | X-H torsion
[ 11005 11000 10999 10996 ] final   20.19 input  -57.11 | X-H torsion

> <Gold.Protein.ActiveResidues>
 VAL166  LYS551  ARG553  GLY616  TRP617  ASP618  TYR619  PRO620  LYS621  CYS622 
 ASP623  PHE694  ASN695  SER759  ASP760  ASP761  ALA762  ILE779  LEU786  VAL792 
 PHE793  MET794  SER795  GLU796  ALA797  LYS798  CYS799  TRP800  GLU811  SER814 

> <Gold.Protein.RotatedAtoms>
  152.3570  134.6926  160.0218 H   0  0  0  0  0  0  0  0  0  0  0  0  # atno 6907 bound_to 6896
  151.7262  133.3310  159.3336 H   0  0  0  0  0  0  0  0  0  0  0  0  # atno 6908 bound_to 6896
  150.7578  134.6338  159.6245 H   0  0  0  0  0  0  0  0  0  0  0  0  # atno 6909 bound_to 6896
  144.7179  140.0144  143.6440 H   0  0  0  0  0  0  0  0  0  0  0  0  # atno 7974 bound_to 7965
  156.1037  140.1450  156.9433 H   0  0  0  0  0  0  0  0  0  0  0  0  # atno 8008 bound_to 7997
  154.4719  140.0907  156.7212 H   0  0  0  0  0  0  0  0  0  0  0  0  # atno 8009 bound_to 7997
  155.4716  140.3442  155.4329 H   0  0  0  0  0  0  0  0  0  0  0  0  # atno 8010 bound_to 7997
  140.7175  143.3511  151.2154 H   0  0  0  0  0  0  0  0  0  0  0  0  # atno 10167 bound_to 10162
  156.0568  130.5794  150.8179 H   0  0  0  0  0  0  0  0  0  0  0  0  # atno 10718 bound_to 10713
  154.6648  135.2930  154.9819 H   0  0  0  0  0  0  0  0  0  0  0  0  # atno 10763 bound_to 10752
  154.0866  135.6597  153.4850 H   0  0  0  0  0  0  0  0  0  0  0  0  # atno 10764 bound_to 10752
  153.0451  135.5210  154.7616 H   0  0  0  0  0  0  0  0  0  0  0  0  # atno 10765 bound_to 10752
  140.4054  134.1674  155.7665 H   0  0  0  0  0  0  0  0  0  0  0  0  # atno 11005 bound_to 11000
  146.0232  139.3269  143.0800 LP  0  0  0  0  0  0  0  0  0  0  0  0  # atno 17320 bound_to 7965
  145.8543  140.9511  143.0733 LP  0  0  0  0  0  0  0  0  0  0  0  0  # atno 17321 bound_to 7965
  139.7042  143.9482  152.2919 LP  0  0  0  0  0  0  0  0  0  0  0  0  # atno 17342 bound_to 10162
  139.9186  144.6813  150.8486 LP  0  0  0  0  0  0  0  0  0  0  0  0  # atno 17343 bound_to 10162
  157.5544  131.0944  150.9649 LP  0  0  0  0  0  0  0  0  0  0  0  0  # atno 17370 bound_to 10713
  156.9901  130.5560  149.5302 LP  0  0  0  0  0  0  0  0  0  0  0  0  # atno 17371 bound_to 10713
  141.1841  133.8350  157.1151 LP  0  0  0  0  0  0  0  0  0  0  0  0  # atno 17394 bound_to 11000
  140.0306  134.9903  157.0772 LP  0  0  0  0  0  0  0  0  0  0  0  0  # atno 17395 bound_to 11000

$$$$
