AV-unprocessed.smi:184|AV-procd|sdf|1462|dock3
  -GOLD-   2262019273D 1   1.00000     0.00000
 Structure written by MMmdl.
 54 58  0  0  0  0  0  0  0  0  1 V2000
  154.0044  135.8461  160.0905 O   0  0  0  0  0  0  0  0  0  0  0  0
  153.9311  137.0575  159.8976 C   0  0  0  0  0  0  0  0  0  0  0  0
  153.5078  137.5799  158.5126 C   0  0  0  0  0  0  0  0  0  0  0  0
  153.4118  139.0447  158.3917 N   0  0  0  0  0  0  0  0  0  0  0  0
  152.7254  139.3902  157.2758 C   0  0  0  0  0  0  0  0  0  0  0  0
  153.2274  139.0943  156.0475 N   0  0  0  0  0  0  0  0  0  0  0  0
  152.5601  139.4555  154.9476 C   0  0  0  0  0  0  0  0  0  0  0  0
  151.4020  140.1123  154.8518 N   0  0  0  0  0  0  0  0  0  0  0  0
  150.9022  140.4201  156.0828 C   0  0  0  0  0  0  0  0  0  0  0  0
  151.4987  140.1036  157.3354 C   0  0  0  0  0  0  0  0  0  0  0  0
  150.7097  140.5804  158.3739 N   0  0  0  0  0  0  0  0  0  0  0  0
  149.7009  141.1462  157.7688 C   0  0  0  0  0  0  0  0  0  0  0  0
  149.7299  141.0878  156.3928 N   0  0  0  0  0  0  0  0  0  0  0  0
  148.7386  141.6325  155.4759 C   0  0  0  0  0  0  0  0  0  0  0  0
  148.4786  140.7492  154.2247 C   0  0  0  0  0  0  0  0  0  0  0  0
  149.5346  140.9824  153.3109 O   0  0  0  0  0  0  0  0  0  0  0  0
  148.4993  139.2467  154.5702 C   0  0  0  0  0  0  0  0  0  0  0  0
  147.2134  138.8117  155.2961 C   0  0  0  0  0  0  0  0  0  0  0  0
  146.0731  139.1462  154.5122 O   0  0  0  0  0  0  0  0  0  0  0  0
  145.9414  140.5455  154.2874 C   0  0  0  0  0  0  0  0  0  0  0  0
  147.1546  141.0644  153.4958 C   0  0  0  0  0  0  0  0  0  0  0  0
  153.1674  139.8173  159.6160 C   0  0  2  0  0  0  0  0  0  0  0  0
  153.2640  141.3510  159.4191 C   0  0  0  0  0  0  0  0  0  0  0  0
  153.0123  142.0971  160.7408 C   0  0  0  0  0  0  0  0  0  0  0  0
  153.9710  141.6294  161.8474 C   0  0  0  0  0  0  0  0  0  0  0  0
  153.9152  140.1040  162.0291 C   0  0  0  0  0  0  0  0  0  0  0  0
  154.1861  139.3872  160.6951 C   0  0  1  0  0  0  0  0  0  0  0  0
  154.1935  137.9408  160.8735 N   0  0  0  0  0  0  0  0  0  0  0  0
  154.2279  137.2126  157.7802 H   0  0  0  0  0  0  0  0  0  0  0  0
  152.5479  137.1198  158.2688 H   0  0  0  0  0  0  0  0  0  0  0  0
  153.0206  139.1804  154.0103 H   0  0  0  0  0  0  0  0  0  0  0  0
  148.8974  141.6204  158.3138 H   0  0  0  0  0  0  0  0  0  0  0  0
  147.8109  141.7754  156.0321 H   0  0  0  0  0  0  0  0  0  0  0  0
  149.0644  142.6303  155.1834 H   0  0  0  0  0  0  0  0  0  0  0  0
  149.4266  140.4012  152.5735 H   0  0  0  0  0  0  0  0  0  0  0  0
  148.5863  138.6600  153.6543 H   0  0  0  0  0  0  0  0  0  0  0  0
  149.3744  139.0015  155.1730 H   0  0  0  0  0  0  0  0  0  0  0  0
  147.2237  137.7329  155.4523 H   0  0  0  0  0  0  0  0  0  0  0  0
  147.1376  139.2692  156.2832 H   0  0  0  0  0  0  0  0  0  0  0  0
  145.0258  140.7244  153.7238 H   0  0  0  0  0  0  0  0  0  0  0  0
  145.8320  141.0675  155.2382 H   0  0  0  0  0  0  0  0  0  0  0  0
  147.0514  142.1311  153.2971 H   0  0  0  0  0  0  0  0  0  0  0  0
  147.1521  140.5783  152.5189 H   0  0  0  0  0  0  0  0  0  0  0  0
  152.1629  139.5740  159.9691 H   0  0  0  0  0  0  0  0  0  0  0  0
  154.2497  141.6120  159.0310 H   0  0  0  0  0  0  0  0  0  0  0  0
  152.5428  141.7044  158.6829 H   0  0  0  0  0  0  0  0  0  0  0  0
  153.1198  143.1714  160.5872 H   0  0  0  0  0  0  0  0  0  0  0  0
  151.9819  141.9329  161.0592 H   0  0  0  0  0  0  0  0  0  0  0  0
  154.9893  141.9282  161.5954 H   0  0  0  0  0  0  0  0  0  0  0  0
  153.7271  142.1268  162.7866 H   0  0  0  0  0  0  0  0  0  0  0  0
  154.6469  139.7975  162.7777 H   0  0  0  0  0  0  0  0  0  0  0  0
  152.9364  139.8152  162.4148 H   0  0  0  0  0  0  0  0  0  0  0  0
  155.1887  139.6580  160.3584 H   0  0  0  0  0  0  0  0  0  0  0  0
  154.4534  137.5866  161.7827 H   0  0  0  0  0  0  0  0  0  0  0  0
  1  2  2  0  0  0  0
  2 28  1  0  0  0  0
  2  3  1  0  0  0  0
  3  4  1  0  0  0  0
  3 29  1  0  0  0  0
  3 30  1  0  0  0  0
  4  5  1  0  0  0  0
  4 22  1  0  0  0  0
  5 10  1  0  0  0  0
  5  6  2  0  0  0  0
  6  7  1  0  0  0  0
  7  8  2  0  0  0  0
  7 31  1  0  0  0  0
  8  9  1  0  0  0  0
  9 13  1  0  0  0  0
  9 10  2  0  0  0  0
 10 11  1  0  0  0  0
 11 12  2  0  0  0  0
 12 13  1  0  0  0  0
 12 32  1  0  0  0  0
 13 14  1  0  0  0  0
 14 15  1  0  0  0  0
 14 33  1  0  0  0  0
 14 34  1  0  0  0  0
 15 21  1  0  0  0  0
 15 16  1  0  0  0  0
 15 17  1  0  0  0  0
 16 35  1  0  0  0  0
 17 18  1  0  0  0  0
 17 36  1  0  0  0  0
 17 37  1  0  0  0  0
 18 19  1  0  0  0  0
 18 38  1  0  0  0  0
 18 39  1  0  0  0  0
 19 20  1  0  0  0  0
 20 21  1  0  0  0  0
 20 40  1  0  0  0  0
 20 41  1  0  0  0  0
 21 42  1  0  0  0  0
 21 43  1  0  0  0  0
 22 27  1  0  0  0  0
 22 23  1  0  0  0  0
 22 44  1  0  0  0  0
 23 24  1  0  0  0  0
 23 45  1  0  0  0  0
 23 46  1  0  0  0  0
 24 25  1  0  0  0  0
 24 47  1  0  0  0  0
 24 48  1  0  0  0  0
 25 26  1  0  0  0  0
 25 49  1  0  0  0  0
 25 50  1  0  0  0  0
 26 27  1  0  0  0  0
 26 51  1  0  0  0  0
 26 52  1  0  0  0  0
 27 28  1  0  0  0  0
 27 53  1  0  0  0  0
 28 54  1  0  0  0  0
M  END
> <s_m_source_file>
AV-unprocessed.smi

> <i_m_source_file_index>
184

> <i_lp_mmshare_version>
43012

> <i_f3d_flags>
0

> <s_epik_input>
W0NIMl0xW0NIMl1bQ0gyXVtDSDJdW0NASF0oW0NASF0xMilbTkhdQyg9TylbQ0gyXU4yYyhuW2NIXW4zKWMoYzM0KW5bY0hdbjRbQ0gyXUM1KFtPSF0pW0NIMl1bQ0gyXU9bQ0gyXVtDSDJdNQ==

> <s_epik_cmdline>
J2VwaWtfcHl0aG9uJywgJy1waCcsICc3LjAnLCAnLXRuJywgJzgnLCAnLW1hJywgJzIwMCcsICctbWV0YWxfYmluZGluZycsICctaW1hZScsICc8aW5maWxlLm1hZT4nLCAnLW9tYWUnLCAnPG91dGZpbGUubWFlPic=

> <r_lp_tautomer_probability>
1

> <r_epik_Ionization_Penalty>
0.000822761

> <r_epik_Ionization_Penalty_Charging>
0

> <r_epik_Ionization_Penalty_Neutral>
0.000822761

> <r_epik_State_Penalty>
0.000403048

> <r_epik_Charging_Adjusted_Penalty>
0.000403048

> <i_epik_Tot_Q>
0

> <i_epik_Tot_abs_Q>
0

> <r_epik_Metal_State_Penalty>
-0

> <b_epik_Metal_Only>
0

> <s_lp_Force_Field>
OPLS_2005

> <r_lp_Energy>
34.5881

> <b_lp_Chiralities_Consistent>
1

> <s_lp_Variant>
AV-unprocessed.smi:184-2

> <Gold.Version>
5.8.1

> <Gold.Id.Protein>
6NUR|6NUR_protein|mol2

> <Gold.PLP.Fitness>
49.1423

> <Gold.PLP.PLP>
-37.5479

> <Gold.PLP.part.hbond>
-6.1934

> <Gold.PLP.part.metal>
0.0000

> <Gold.PLP.part.buried>
0.1525

> <Gold.PLP.part.nonpolar>
-31.9618

> <Gold.PLP.part.repulsive>
0.1560

> <Gold.PLP.ligand.clash>
0.0000

> <Gold.PLP.ligand.torsion>
0.9432

> <Gold.PLP.Chemscore.Hbond>
4.3637

> <Gold.PLP.Chemscore.CHOScore>
0.0000

> <Gold.PLP.Chemscore.Metal>
0.0000

> <Gold.Chemscore.Hbonds>
donor molecule, donor type, donor heavy atom, donor atom, acceptor molecule, acceptor atom, score
      L1  H    16    35       P1  7957  0.84
      P1  H  6896  6907       L1     1  1.00
      P1  H  7989  7998       L1     8  0.95
      P1  H  7997  8008       L1     6  0.85
      P1  H  8011  8017       L1    16  0.70

> <Gold.PLP.Chemscore.Internal.Correction>
0.3899

> <Gold.Rescore>
     Score         DG    S(hbond)    S(metal)    S(lipo)     H(rot)  DE(clash)    DE(int)     intcor
     14.48     -19.32       2.73        0.00      87.94       2.17       0.10       4.74       ----

> <Gold.Chemscore.Fitness>
14.4788

> <Gold.Chemscore.DG>
-19.3249

> <Gold.Chemscore.ZeroCoef>
-5.4800

> <Gold.Chemscore.Hbond>
2.7274

> <Gold.Chemscore.Metal>
0.0000

> <Gold.Chemscore.Lipo>
87.9368

> <Gold.Chemscore.Internal_Hbond>
0.0000

> <Gold.Chemscore.DEClash>
0.1019

> <Gold.Chemscore.DEInternal>
4.7442

> <Gold.Chemscore.Rot>
2.1693

> <Gold.Chemscore.Internal.Correction>
   9.000000E+99

> <Gold.Chemscore.Hbonds>
donor molecule, donor type, donor heavy atom, donor atom, acceptor molecule, acceptor atom, score
      L1  H    16    35       P1  7957  0.79
      P1  H  6896  6907       L1     1  0.98
      P1  H  7989  7998       L1     8  0.21
      P1  H  7997  8008       L1     6  0.05
      P1  H  8011  8017       L1    16  0.07

> <Gold.Chemscore.Hbond.Weighted>
-9.1096

> <Gold.Chemscore.Metal.Weighted>
-0.0000

> <Gold.Chemscore.Lipo.Weighted>
-10.2886

> <Gold.Chemscore.Internal_Hbond.Weighted>
0.0000

> <Gold.Chemscore.DEClash.Weighted>
0.1019

> <Gold.Chemscore.DEInternal.Weighted>
4.7442

> <Gold.Chemscore.Rot.Weighted>
5.5533

> <Gold.Chemscore.Internal.Correction.Weighted>
   9.000000E+99

> <Gold.Protein.RotatedTorsions>
[ 6907 6896 6895 6894 ] final   56.45 input  -60.11 | X-H torsion
[ 7974 7965 7964 7962 ] final   -1.30 input  175.53 | X-H torsion
[ 8008 7997 7996 7995 ] final  -19.51 input   59.86 | X-H torsion
[ 10167 10162 10161 10158 ] final  -88.76 input  -65.29 | X-H torsion
[ 10718 10713 10712 10709 ] final  104.54 input   66.30 | X-H torsion
[ 10763 10752 10751 10750 ] final   69.90 input  -60.55 | X-H torsion
[ 11005 11000 10999 10996 ] final -143.02 input  -57.11 | X-H torsion

> <Gold.Protein.ActiveResidues>
 VAL166  LYS551  ARG553  GLY616  TRP617  ASP618  TYR619  PRO620  LYS621  CYS622 
 ASP623  PHE694  ASN695  SER759  ASP760  ASP761  ALA762  ILE779  LEU786  VAL792 
 PHE793  MET794  SER795  GLU796  ALA797  LYS798  CYS799  TRP800  GLU811  SER814 

> <Gold.Protein.RotatedAtoms>
  152.3637  134.6835  160.0198 H   0  0  0  0  0  0  0  0  0  0  0  0  # atno 6907 bound_to 6896
  151.7150  133.3307  159.3308 H   0  0  0  0  0  0  0  0  0  0  0  0  # atno 6908 bound_to 6896
  150.7623  134.6433  159.6293 H   0  0  0  0  0  0  0  0  0  0  0  0  # atno 6909 bound_to 6896
  146.2418  140.1399  142.8336 H   0  0  0  0  0  0  0  0  0  0  0  0  # atno 7974 bound_to 7965
  154.4832  140.2087  155.9715 H   0  0  0  0  0  0  0  0  0  0  0  0  # atno 8008 bound_to 7997
  156.1197  140.3215  155.8159 H   0  0  0  0  0  0  0  0  0  0  0  0  # atno 8009 bound_to 7997
  155.4490  140.0515  157.2994 H   0  0  0  0  0  0  0  0  0  0  0  0  # atno 8010 bound_to 7997
  140.3715  143.2792  151.9494 H   0  0  0  0  0  0  0  0  0  0  0  0  # atno 10167 bound_to 10162
  157.6737  131.0806  150.5721 H   0  0  0  0  0  0  0  0  0  0  0  0  # atno 10718 bound_to 10713
  153.0312  135.5193  154.7359 H   0  0  0  0  0  0  0  0  0  0  0  0  # atno 10763 bound_to 10752
  154.6373  135.2908  155.0148 H   0  0  0  0  0  0  0  0  0  0  0  0  # atno 10764 bound_to 10752
  154.1078  135.6626  153.4932 H   0  0  0  0  0  0  0  0  0  0  0  0  # atno 10765 bound_to 10752
  140.8167  134.2680  157.4918 H   0  0  0  0  0  0  0  0  0  0  0  0  # atno 11005 bound_to 11000
  145.0255  140.8829  143.5141 LP  0  0  0  0  0  0  0  0  0  0  0  0  # atno 17320 bound_to 7965
  145.1455  139.2546  143.5468 LP  0  0  0  0  0  0  0  0  0  0  0  0  # atno 17321 bound_to 7965
  139.4803  144.5902  151.7784 LP  0  0  0  0  0  0  0  0  0  0  0  0  # atno 17342 bound_to 10162
  140.5028  144.1143  150.5975 LP  0  0  0  0  0  0  0  0  0  0  0  0  # atno 17343 bound_to 10162
  156.6022  130.4357  149.5892 LP  0  0  0  0  0  0  0  0  0  0  0  0  # atno 17370 bound_to 10713
  156.2497  130.6900  151.1633 LP  0  0  0  0  0  0  0  0  0  0  0  0  # atno 17371 bound_to 10713
  139.8711  134.9513  156.4080 LP  0  0  0  0  0  0  0  0  0  0  0  0  # atno 17394 bound_to 11000
  140.9142  133.7690  155.9828 LP  0  0  0  0  0  0  0  0  0  0  0  0  # atno 17395 bound_to 11000

$$$$
