AV-unprocessed.smi:620|AV-procd|sdf|3087|dock6
  -GOLD-   22720 0 13D 1   1.00000     0.00000
 Structure written by MMmdl.
 33 35  0  0  0  0  0  0  0  0  1 V2000
  150.3795  130.1725  155.0217 C   0  0  0  0  0  0  0  0  0  0  0  0
  150.3292  131.6622  155.0202 C   0  0  0  0  0  0  0  0  0  0  0  0
  150.8325  132.4074  156.0125 N   0  0  0  0  0  0  0  0  0  0  0  0
  150.6742  133.7681  155.7848 N   0  0  0  0  0  0  0  0  0  0  0  0
  150.0534  134.0113  154.6271 C   0  0  0  0  0  0  0  0  0  0  0  0
  149.8292  135.3619  154.2609 N   0  0  0  0  0  0  0  0  0  0  0  0
  150.0640  136.4648  154.9899 C   0  0  0  0  0  0  0  0  0  0  0  0
  150.5514  136.4795  156.1200 O   0  0  0  0  0  0  0  0  0  0  0  0
  149.6987  137.5705  154.3251 N   0  0  0  0  0  0  0  0  0  0  0  0
  149.8057  138.9379  154.8235 C   0  0  0  0  0  0  0  0  0  0  0  0
  149.0373  139.9322  153.9674 C   0  0  0  0  0  0  0  0  0  0  0  0
  148.6950  141.3123  154.4774 C   0  0  0  0  0  0  0  0  0  0  0  0
  147.6013  140.2897  154.2732 C   0  0  0  0  0  0  0  0  0  0  0  0
  151.2555  139.3672  154.9577 C   0  0  0  0  0  0  0  0  0  0  0  0
  152.0409  139.0757  156.2139 C   0  0  0  0  0  0  0  0  0  0  0  0
  151.6620  140.4992  155.8715 C   0  0  0  0  0  0  0  0  0  0  0  0
  149.6041  132.5767  153.7043 S   0  0  0  0  0  0  0  0  0  0  0  0
  150.8475  129.8028  155.9349 H   0  0  0  0  0  0  0  0  0  0  0  0
  150.9565  129.8198  154.1669 H   0  0  0  0  0  0  0  0  0  0  0  0
  149.3706  129.7648  154.9561 H   0  0  0  0  0  0  0  0  0  0  0  0
  149.4378  135.5025  153.3413 H   0  0  0  0  0  0  0  0  0  0  0  0
  149.3112  137.4591  153.3997 H   0  0  0  0  0  0  0  0  0  0  0  0
  149.3748  138.9659  155.8267 H   0  0  0  0  0  0  0  0  0  0  0  0
  149.2953  139.8799  152.9109 H   0  0  0  0  0  0  0  0  0  0  0  0
  148.9581  141.5593  155.5038 H   0  0  0  0  0  0  0  0  0  0  0  0
  148.7528  142.1370  153.7701 H   0  0  0  0  0  0  0  0  0  0  0  0
  146.9291  140.4295  153.4293 H   0  0  0  0  0  0  0  0  0  0  0  0
  147.1467  139.8629  155.1649 H   0  0  0  0  0  0  0  0  0  0  0  0
  151.8155  139.2936  154.0271 H   0  0  0  0  0  0  0  0  0  0  0  0
  151.5165  138.6007  157.0408 H   0  0  0  0  0  0  0  0  0  0  0  0
  153.0848  138.7908  156.0987 H   0  0  0  0  0  0  0  0  0  0  0  0
  152.4531  141.1621  155.5270 H   0  0  0  0  0  0  0  0  0  0  0  0
  150.8912  140.9692  156.4789 H   0  0  0  0  0  0  0  0  0  0  0  0
  1  2  1  0  0  0  0
  1 18  1  0  0  0  0
  1 19  1  0  0  0  0
  1 20  1  0  0  0  0
  2 17  1  0  0  0  0
  2  3  2  0  0  0  0
  3  4  1  0  0  0  0
  4  5  2  0  0  0  0
  5  6  1  0  0  0  0
  5 17  1  0  0  0  0
  6  7  1  0  0  0  0
  6 21  1  0  0  0  0
  7  8  2  0  0  0  0
  7  9  1  0  0  0  0
  9 10  1  0  0  0  0
  9 22  1  0  0  0  0
 10 11  1  0  0  0  0
 10 14  1  0  0  0  0
 10 23  1  0  0  0  0
 11 13  1  0  0  0  0
 11 12  1  0  0  0  0
 11 24  1  0  0  0  0
 12 13  1  0  0  0  0
 12 25  1  0  0  0  0
 12 26  1  0  0  0  0
 13 27  1  0  0  0  0
 13 28  1  0  0  0  0
 14 16  1  0  0  0  0
 14 15  1  0  0  0  0
 14 29  1  0  0  0  0
 15 16  1  0  0  0  0
 15 30  1  0  0  0  0
 15 31  1  0  0  0  0
 16 32  1  0  0  0  0
 16 33  1  0  0  0  0
M  END
> <s_m_source_file>
AV-unprocessed.smi

> <i_m_source_file_index>
620

> <i_lp_mmshare_version>
43012

> <i_f3d_flags>
0

> <s_epik_input>
W0NIM11jMW5uYyhzMSlbTkhdQyg9TylbTkhdW0NIXShbQ0hdMltDSDJdW0NIMl0yKVtDSF0zW0NIMl1bQ0gyXTM=

> <s_epik_cmdline>
J2VwaWtfcHl0aG9uJywgJy1waCcsICc3LjAnLCAnLXRuJywgJzgnLCAnLW1hJywgJzIwMCcsICctbWV0YWxfYmluZGluZycsICctaW1hZScsICc8aW5maWxlLm1hZT4nLCAnLW9tYWUnLCAnPG91dGZpbGUubWFlPic=

> <r_lp_tautomer_probability>
1

> <r_epik_Ionization_Penalty>
0.000349386

> <r_epik_Ionization_Penalty_Charging>
0

> <r_epik_Ionization_Penalty_Neutral>
0.000349386

> <r_epik_State_Penalty>
-0

> <r_epik_Charging_Adjusted_Penalty>
0

> <i_epik_Tot_Q>
0

> <i_epik_Tot_abs_Q>
0

> <r_epik_Metal_State_Penalty>
0.178889

> <b_epik_Metal_Only>
0

> <s_lp_Force_Field>
OPLS_2005

> <r_lp_Energy>
21.1743

> <b_lp_Chiralities_Consistent>
1

> <s_lp_Variant>
AV-unprocessed.smi:620-1

> <Gold.Version>
5.8.1

> <Gold.Id.Protein>
6NUR|6NUR_protein|mol2

> <Gold.PLP.Fitness>
34.2640

> <Gold.PLP.PLP>
-28.7035

> <Gold.PLP.part.hbond>
-2.2045

> <Gold.PLP.part.metal>
0.0000

> <Gold.PLP.part.buried>
0.3948

> <Gold.PLP.part.nonpolar>
-26.4105

> <Gold.PLP.part.repulsive>
0.0828

> <Gold.PLP.ligand.clash>
0.0000

> <Gold.PLP.ligand.torsion>
1.1974

> <Gold.PLP.Chemscore.Hbond>
1.9440

> <Gold.PLP.Chemscore.CHOScore>
0.0000

> <Gold.PLP.Chemscore.Metal>
0.0000

> <Gold.Chemscore.Hbonds>
donor molecule, donor type, donor heavy atom, donor atom, acceptor molecule, acceptor atom, score
      L1  H     6    21       P1  7948  0.80
      L1  H     9    22       P1  7948  0.94

> <Gold.PLP.Chemscore.Internal.Correction>
2.1232

> <Gold.Rescore>
     Score         DG    S(hbond)    S(metal)    S(lipo)     H(rot)  DE(clash)    DE(int)     intcor
     10.97     -13.93       1.46        0.00      62.07       1.44       0.23       2.72       ----

> <Gold.Chemscore.Fitness>
10.9746

> <Gold.Chemscore.DG>
-13.9293

> <Gold.Chemscore.ZeroCoef>
-5.4800

> <Gold.Chemscore.Hbond>
1.4590

> <Gold.Chemscore.Metal>
0.0000

> <Gold.Chemscore.Lipo>
62.0728

> <Gold.Chemscore.Internal_Hbond>
0.0000

> <Gold.Chemscore.DEClash>
0.2304

> <Gold.Chemscore.DEInternal>
2.7242

> <Gold.Chemscore.Rot>
1.4400

> <Gold.Chemscore.Internal.Correction>
   9.000000E+99

> <Gold.Chemscore.Hbonds>
donor molecule, donor type, donor heavy atom, donor atom, acceptor molecule, acceptor atom, score
      L1  H     6    21       P1  7948  0.12
      L1  H     9    22       P1  7948  0.87

> <Gold.Chemscore.Hbond.Weighted>
-4.8732

> <Gold.Chemscore.Metal.Weighted>
-0.0000

> <Gold.Chemscore.Lipo.Weighted>
-7.2625

> <Gold.Chemscore.Internal_Hbond.Weighted>
0.0000

> <Gold.Chemscore.DEClash.Weighted>
0.2304

> <Gold.Chemscore.DEInternal.Weighted>
2.7242

> <Gold.Chemscore.Rot.Weighted>
3.6864

> <Gold.Chemscore.Internal.Correction.Weighted>
   9.000000E+99

> <Gold.Protein.RotatedTorsions>
[ 6907 6896 6895 6894 ] final -117.24 input  -60.11 | X-H torsion
[ 7974 7965 7964 7962 ] final  169.27 input  175.53 | X-H torsion
[ 8008 7997 7996 7995 ] final  144.84 input   59.86 | X-H torsion
[ 10167 10162 10161 10158 ] final   61.54 input  -65.29 | X-H torsion
[ 10718 10713 10712 10709 ] final -177.10 input   66.30 | X-H torsion
[ 10763 10752 10751 10750 ] final -106.11 input  -60.55 | X-H torsion
[ 11005 11000 10999 10996 ] final  157.72 input  -57.11 | X-H torsion

> <Gold.Protein.ActiveResidues>
 VAL166  LYS551  ARG553  GLY616  TRP617  ASP618  TYR619  PRO620  LYS621  CYS622 
 ASP623  PHE694  ASN695  SER759  ASP760  ASP761  ALA762  ILE779  LEU786  VAL792 
 PHE793  MET794  SER795  GLU796  ALA797  LYS798  CYS799  TRP800  GLU811  SER814 

> <Gold.Protein.RotatedAtoms>
  150.8121  133.8403  159.3177 H   0  0  0  0  0  0  0  0  0  0  0  0  # atno 6907 bound_to 6896
  151.6186  135.1032  160.0106 H   0  0  0  0  0  0  0  0  0  0  0  0  # atno 6908 bound_to 6896
  152.4213  133.7080  159.6519 H   0  0  0  0  0  0  0  0  0  0  0  0  # atno 6909 bound_to 6896
  144.7360  139.9030  143.6410 H   0  0  0  0  0  0  0  0  0  0  0  0  # atno 7974 bound_to 7965
  156.2898  140.2225  156.5118 H   0  0  0  0  0  0  0  0  0  0  0  0  # atno 8008 bound_to 7997
  154.7602  140.0474  157.0989 H   0  0  0  0  0  0  0  0  0  0  0  0  # atno 8009 bound_to 7997
  155.0000  140.3100  155.4874 H   0  0  0  0  0  0  0  0  0  0  0  0  # atno 8010 bound_to 7997
  140.1536  144.4438  150.6746 H   0  0  0  0  0  0  0  0  0  0  0  0  # atno 10167 bound_to 10162
  156.8245  130.9631  151.3110 H   0  0  0  0  0  0  0  0  0  0  0  0  # atno 10718 bound_to 10713
  154.7991  135.4724  154.0232 H   0  0  0  0  0  0  0  0  0  0  0  0  # atno 10763 bound_to 10752
  153.1752  135.6831  153.8560 H   0  0  0  0  0  0  0  0  0  0  0  0  # atno 10764 bound_to 10752
  153.8129  135.3214  155.3380 H   0  0  0  0  0  0  0  0  0  0  0  0  # atno 10765 bound_to 10752
  140.1796  134.8485  157.2787 H   0  0  0  0  0  0  0  0  0  0  0  0  # atno 11005 bound_to 11000
  146.1058  139.4057  143.0318 LP  0  0  0  0  0  0  0  0  0  0  0  0  # atno 17320 bound_to 7965
  145.7514  140.9971  143.1248 LP  0  0  0  0  0  0  0  0  0  0  0  0  # atno 17321 bound_to 7965
  140.6687  143.2277  151.5679 LP  0  0  0  0  0  0  0  0  0  0  0  0  # atno 17342 bound_to 10162
  139.5414  144.2638  152.1358 LP  0  0  0  0  0  0  0  0  0  0  0  0  # atno 17343 bound_to 10162
  157.6439  130.8828  149.9501 LP  0  0  0  0  0  0  0  0  0  0  0  0  # atno 17370 bound_to 10713
  156.0969  130.3658  150.0289 LP  0  0  0  0  0  0  0  0  0  0  0  0  # atno 17371 bound_to 10713
  140.2282  134.3940  155.7534 LP  0  0  0  0  0  0  0  0  0  0  0  0  # atno 17394 bound_to 11000
  141.2222  133.7201  156.8599 LP  0  0  0  0  0  0  0  0  0  0  0  0  # atno 17395 bound_to 11000

$$$$
