AV-unprocessed.smi:1014|AV-procd|sdf|4430|dock10
  -GOLD-   22720 2383D 1   1.00000     0.00000
 Structure written by MMmdl.
 34 34  0  0  0  0  0  0  0  0  2 V2000
  146.8434  142.3972  154.3715 C   0  0  0  0  0  0  0  0  0  0  0  0
  147.9283  141.4626  153.8141 C   0  0  0  0  0  0  0  0  0  0  0  0
  148.8328  140.8162  154.8859 C   0  0  2  0  0  0  0  0  0  0  0  0
  149.7644  141.8384  155.4144 N   0  3  0  0  0  0  0  0  0  0  0  0
  150.0274  141.7674  156.8691 C   0  0  0  0  0  0  0  0  0  0  0  0
  151.0736  142.8056  157.3055 C   0  0  0  0  0  0  0  0  0  0  0  0
  151.7305  142.4375  158.5470 N   0  0  0  0  0  0  0  0  0  0  0  0
  151.7649  143.1329  159.7370 C   0  0  0  0  0  0  0  0  0  0  0  0
  152.5068  142.4005  160.6202 C   0  0  0  0  0  0  0  0  0  0  0  0
  152.8481  142.7152  162.0482 C   0  0  0  0  0  0  0  0  0  0  0  0
  152.8863  141.2556  159.8638 C   0  0  0  0  0  0  0  0  0  0  0  0
  152.4223  141.2808  158.6249 N   0  0  0  0  0  0  0  0  0  0  0  0
  149.6015  139.6108  154.3204 C   0  0  0  0  0  0  0  0  0  0  0  0
  148.8968  138.6932  153.6533 N   0  0  0  0  0  0  0  0  0  0  0  0
  150.8172  139.5136  154.4778 O   0  0  0  0  0  0  0  0  0  0  0  0
  146.2895  142.8697  153.5599 H   0  0  0  0  0  0  0  0  0  0  0  0
  147.2813  143.1903  154.9780 H   0  0  0  0  0  0  0  0  0  0  0  0
  146.1219  141.8603  154.9872 H   0  0  0  0  0  0  0  0  0  0  0  0
  147.4600  140.6892  153.2032 H   0  0  0  0  0  0  0  0  0  0  0  0
  148.5509  142.0431  153.1316 H   0  0  0  0  0  0  0  0  0  0  0  0
  148.1982  140.4846  155.7099 H   0  0  0  0  0  0  0  0  0  0  0  0
  150.6393  141.7675  154.9140 H   0  0  0  0  0  0  0  0  0  0  0  0
  149.0991  141.9228  157.4207 H   0  0  0  0  0  0  0  0  0  0  0  0
  150.3844  140.7684  157.1210 H   0  0  0  0  0  0  0  0  0  0  0  0
  151.8388  142.9026  156.5342 H   0  0  0  0  0  0  0  0  0  0  0  0
  150.6196  143.7915  157.4186 H   0  0  0  0  0  0  0  0  0  0  0  0
  151.2645  144.0826  159.8569 H   0  0  0  0  0  0  0  0  0  0  0  0
  152.9643  141.8101  162.6446 H   0  0  0  0  0  0  0  0  0  0  0  0
  152.0746  143.3164  162.5270 H   0  0  0  0  0  0  0  0  0  0  0  0
  153.7817  143.2727  162.1240 H   0  0  0  0  0  0  0  0  0  0  0  0
  153.4833  140.4118  160.1770 H   0  0  0  0  0  0  0  0  0  0  0  0
  149.3553  137.8794  153.2695 H   0  0  0  0  0  0  0  0  0  0  0  0
  147.9001  138.8129  153.5407 H   0  0  0  0  0  0  0  0  0  0  0  0
  149.3640  142.7471  155.2285 H   0  0  0  0  0  0  0  0  0  0  0  0
  1  2  1  0  0  0  0
  1 16  1  0  0  0  0
  1 17  1  0  0  0  0
  1 18  1  0  0  0  0
  2  3  1  0  0  0  0
  2 19  1  0  0  0  0
  2 20  1  0  0  0  0
  3  4  1  0  0  0  0
  3 13  1  0  0  0  0
  3 21  1  0  0  0  0
  4  5  1  0  0  0  0
  4 22  1  0  0  0  0
  4 34  1  0  0  0  0
  5  6  1  0  0  0  0
  5 23  1  0  0  0  0
  5 24  1  0  0  0  0
  6  7  1  0  0  0  0
  6 25  1  0  0  0  0
  6 26  1  0  0  0  0
  7 12  1  0  0  0  0
  7  8  1  0  0  0  0
  8  9  2  0  0  0  0
  8 27  1  0  0  0  0
  9 10  1  0  0  0  0
  9 11  1  0  0  0  0
 10 28  1  0  0  0  0
 10 29  1  0  0  0  0
 10 30  1  0  0  0  0
 11 12  2  0  0  0  0
 11 31  1  0  0  0  0
 13 14  1  0  0  0  0
 13 15  2  0  0  0  0
 14 32  1  0  0  0  0
 14 33  1  0  0  0  0
M  CHG  1   4   1
M  END
> <s_m_source_file>
AV-unprocessed.smi

> <i_m_source_file_index>
1014

> <i_lp_mmshare_version>
43012

> <i_f3d_flags>
0

> <s_epik_input>
W0NIM11bQ0gyXVtDQEBIXShDKD1PKVtOSDJdKVtOSF1bQ0gyXVtDSDJdbjFbY0hdYyhbQ0gzXSlbY0hdbjE=

> <s_epik_cmdline>
J2VwaWtfcHl0aG9uJywgJy1waCcsICc3LjAnLCAnLXRuJywgJzgnLCAnLW1hJywgJzIwMCcsICctbWV0YWxfYmluZGluZycsICctaW1hZScsICc8aW5maWxlLm1hZT4nLCAnLW9tYWUnLCAnPG91dGZpbGUubWFlPic=

> <r_lp_tautomer_probability>
1

> <r_epik_Ionization_Penalty>
0.19042

> <r_epik_Ionization_Penalty_Charging>
0.190412

> <r_epik_Ionization_Penalty_Neutral>
7.5834e-06

> <r_epik_State_Penalty>
0.180404

> <r_epik_Charging_Adjusted_Penalty>
0.370816

> <i_epik_Tot_Q>
1

> <i_epik_Tot_abs_Q>
1

> <r_epik_Metal_State_Penalty>
0.180563

> <b_epik_Metal_Only>
0

> <s_lp_Force_Field>
OPLS_2005

> <r_lp_Energy>
2.67467

> <b_lp_Chiralities_Consistent>
1

> <s_lp_Variant>
AV-unprocessed.smi:1014-1

> <Gold.Version>
5.8.1

> <Gold.Id.Protein>
6NUR|6NUR_protein|mol2

> <Gold.PLP.Fitness>
45.9887

> <Gold.PLP.PLP>
-37.4881

> <Gold.PLP.part.hbond>
-3.9973

> <Gold.PLP.part.metal>
0.0000

> <Gold.PLP.part.buried>
-4.7263

> <Gold.PLP.part.nonpolar>
-30.3220

> <Gold.PLP.part.repulsive>
0.3541

> <Gold.PLP.ligand.clash>
0.0000

> <Gold.PLP.ligand.torsion>
0.9055

> <Gold.PLP.Chemscore.Hbond>
3.4155

> <Gold.PLP.Chemscore.CHOScore>
0.0000

> <Gold.PLP.Chemscore.Metal>
0.0000

> <Gold.Chemscore.Hbonds>
donor molecule, donor type, donor heavy atom, donor atom, acceptor molecule, acceptor atom, score
      L1  H     4    34       P1  8028  1.82
      L1  H    14    32       P1  7948  0.53
      P1  H  7989  7998       L1    15  1.00

> <Gold.PLP.Chemscore.Internal.Correction>
0.0651

> <Gold.Rescore>
     Score         DG    S(hbond)    S(metal)    S(lipo)     H(rot)  DE(clash)    DE(int)     intcor
     15.33     -16.15       2.45        0.00      77.88       2.59       0.00       0.81       ----

> <Gold.Chemscore.Fitness>
15.3344

> <Gold.Chemscore.DG>
-16.1486

> <Gold.Chemscore.ZeroCoef>
-5.4800

> <Gold.Chemscore.Hbond>
2.4495

> <Gold.Chemscore.Metal>
0.0000

> <Gold.Chemscore.Lipo>
77.8797

> <Gold.Chemscore.Internal_Hbond>
0.0000

> <Gold.Chemscore.DEClash>
0.0038

> <Gold.Chemscore.DEInternal>
0.8104

> <Gold.Chemscore.Rot>
2.5878

> <Gold.Chemscore.Internal.Correction>
   9.000000E+99

> <Gold.Chemscore.Hbonds>
donor molecule, donor type, donor heavy atom, donor atom, acceptor molecule, acceptor atom, score
      L1  H     4    34       P1  8028  0.86
      L1  H    14    32       P1  7948  0.51
      P1  H  7989  7998       L1    15  0.65

> <Gold.Chemscore.Hbond.Weighted>
-8.1814

> <Gold.Chemscore.Metal.Weighted>
-0.0000

> <Gold.Chemscore.Lipo.Weighted>
-9.1119

> <Gold.Chemscore.Internal_Hbond.Weighted>
0.0000

> <Gold.Chemscore.DEClash.Weighted>
0.0038

> <Gold.Chemscore.DEInternal.Weighted>
0.8104

> <Gold.Chemscore.Rot.Weighted>
6.6247

> <Gold.Chemscore.Internal.Correction.Weighted>
   9.000000E+99

> <Gold.Protein.RotatedTorsions>
[ 6907 6896 6895 6894 ] final  112.92 input  -60.11 | X-H torsion
[ 7974 7965 7964 7962 ] final  121.84 input  175.53 | X-H torsion
[ 8008 7997 7996 7995 ] final -153.28 input   59.86 | X-H torsion
[ 10167 10162 10161 10158 ] final   -4.73 input  -65.29 | X-H torsion
[ 10718 10713 10712 10709 ] final -143.47 input   66.30 | X-H torsion
[ 10763 10752 10751 10750 ] final   98.91 input  -60.55 | X-H torsion
[ 11005 11000 10999 10996 ] final  115.75 input  -57.11 | X-H torsion

> <Gold.Protein.ActiveResidues>
 VAL166  LYS551  ARG553  GLY616  TRP617  ASP618  TYR619  PRO620  LYS621  CYS622 
 ASP623  PHE694  ASN695  SER759  ASP760  ASP761  ALA762  ILE779  LEU786  VAL792 
 PHE793  MET794  SER795  GLU796  ALA797  LYS798  CYS799  TRP800  GLU811  SER814 

> <Gold.Protein.RotatedAtoms>
  152.4890  133.8448  159.7171 H   0  0  0  0  0  0  0  0  0  0  0  0  # atno 6907 bound_to 6896
  150.9002  133.7119  159.2888 H   0  0  0  0  0  0  0  0  0  0  0  0  # atno 6908 bound_to 6896
  151.4563  135.1038  159.9764 H   0  0  0  0  0  0  0  0  0  0  0  0  # atno 6909 bound_to 6896
  145.1145  139.3430  143.4746 H   0  0  0  0  0  0  0  0  0  0  0  0  # atno 7974 bound_to 7965
  155.6684  140.0730  157.2529 H   0  0  0  0  0  0  0  0  0  0  0  0  # atno 8008 bound_to 7997
  154.4128  140.1703  156.1903 H   0  0  0  0  0  0  0  0  0  0  0  0  # atno 8009 bound_to 7997
  155.9638  140.3367  155.6517 H   0  0  0  0  0  0  0  0  0  0  0  0  # atno 8010 bound_to 7997
  140.6938  143.6389  150.8453 H   0  0  0  0  0  0  0  0  0  0  0  0  # atno 10167 bound_to 10162
  156.3584  130.7725  151.1889 H   0  0  0  0  0  0  0  0  0  0  0  0  # atno 10718 bound_to 10713
  153.2949  135.4132  155.1200 H   0  0  0  0  0  0  0  0  0  0  0  0  # atno 10763 bound_to 10752
  154.8532  135.3527  154.5931 H   0  0  0  0  0  0  0  0  0  0  0  0  # atno 10764 bound_to 10752
  153.6354  135.7059  153.5318 H   0  0  0  0  0  0  0  0  0  0  0  0  # atno 10765 bound_to 10752
  139.9019  134.9588  156.7093 H   0  0  0  0  0  0  0  0  0  0  0  0  # atno 11005 bound_to 11000
  146.3524  140.1079  142.8605 LP  0  0  0  0  0  0  0  0  0  0  0  0  # atno 17320 bound_to 7965
  145.0809  140.9220  143.4826 LP  0  0  0  0  0  0  0  0  0  0  0  0  # atno 17321 bound_to 7965
  140.0105  143.5647  152.2841 LP  0  0  0  0  0  0  0  0  0  0  0  0  # atno 17342 bound_to 10162
  139.6370  144.7651  151.2418 LP  0  0  0  0  0  0  0  0  0  0  0  0  # atno 17343 bound_to 10162
  157.7470  131.0407  150.4612 LP  0  0  0  0  0  0  0  0  0  0  0  0  # atno 17370 bound_to 10713
  156.4818  130.4075  149.6457 LP  0  0  0  0  0  0  0  0  0  0  0  0  # atno 17371 bound_to 10713
  140.7088  133.9241  155.8071 LP  0  0  0  0  0  0  0  0  0  0  0  0  # atno 17394 bound_to 11000
  141.0316  134.0748  157.4007 LP  0  0  0  0  0  0  0  0  0  0  0  0  # atno 17395 bound_to 11000

$$$$
