AV-unprocessed.smi:2824|AV-procd|sdf|10886|dock8
  -GOLD-   2272015333D 1   1.00000     0.00000
 Structure written by MMmdl.
 38 39  0  0  0  0  0  0  0  0  1 V2000
  153.8896  140.3818  160.1557 C   0  0  0  0  0  0  0  0  0  0  0  0
  153.4316  141.5795  160.9667 C   0  0  0  0  0  0  0  0  0  0  0  0
  153.8986  141.7463  162.2875 C   0  0  0  0  0  0  0  0  0  0  0  0
  153.4843  142.8519  163.0519 C   0  0  0  0  0  0  0  0  0  0  0  0
  152.6000  143.7939  162.4970 C   0  0  0  0  0  0  0  0  0  0  0  0
  152.1313  143.6324  161.1794 C   0  0  0  0  0  0  0  0  0  0  0  0
  152.5433  142.5224  160.3979 C   0  0  0  0  0  0  0  0  0  0  0  0
  152.1257  142.3010  159.1014 O   0  0  0  0  0  0  0  0  0  0  0  0
  151.0401  143.0678  158.5974 C   0  0  0  0  0  0  0  0  0  0  0  0
  150.3301  142.2620  157.4967 C   0  0  2  0  0  0  0  0  0  0  0  0
  149.8177  141.0888  158.0986 O   0  0  0  0  0  0  0  0  0  0  0  0
  151.3096  141.8340  156.3809 C   0  0  0  0  0  0  0  0  0  0  0  0
  150.7759  140.7378  155.5634 N   0  0  0  0  0  0  0  0  0  0  0  0
  149.4869  140.9526  155.1077 N   0  0  0  0  0  0  0  0  0  0  0  0
  148.8801  140.0801  154.3693 C   0  0  0  0  0  0  0  0  0  0  0  0
  147.4773  140.4061  153.9190 C   0  0  0  0  0  0  0  0  0  0  0  0
  146.6353  140.4342  154.9526 F   0  0  0  0  0  0  0  0  0  0  0  0
  147.4532  141.5978  153.3211 F   0  0  0  0  0  0  0  0  0  0  0  0
  147.0505  139.4893  153.0500 F   0  0  0  0  0  0  0  0  0  0  0  0
  149.5705  138.8500  154.0187 C   0  0  0  0  0  0  0  0  0  0  0  0
  150.8272  138.6418  154.4666 C   0  0  0  0  0  0  0  0  0  0  0  0
  151.5187  139.6236  155.2983 C   0  0  0  0  0  0  0  0  0  0  0  0
  152.6642  139.4646  155.7196 O   0  0  0  0  0  0  0  0  0  0  0  0
  154.5776  139.7537  160.7226 H   0  0  0  0  0  0  0  0  0  0  0  0
  154.4000  140.7110  159.2503 H   0  0  0  0  0  0  0  0  0  0  0  0
  153.0339  139.7714  159.8658 H   0  0  0  0  0  0  0  0  0  0  0  0
  154.5779  141.0263  162.7200 H   0  0  0  0  0  0  0  0  0  0  0  0
  153.8437  142.9769  164.0625 H   0  0  0  0  0  0  0  0  0  0  0  0
  152.2796  144.6426  163.0832 H   0  0  0  0  0  0  0  0  0  0  0  0
  151.4529  144.3768  160.7916 H   0  0  0  0  0  0  0  0  0  0  0  0
  150.3441  143.2501  159.4179 H   0  0  0  0  0  0  0  0  0  0  0  0
  151.3713  144.0361  158.2178 H   0  0  0  0  0  0  0  0  0  0  0  0
  149.5135  142.8550  157.0827 H   0  0  0  0  0  0  0  0  0  0  0  0
  148.9166  140.9837  157.8347 H   0  0  0  0  0  0  0  0  0  0  0  0
  151.5178  142.6810  155.7243 H   0  0  0  0  0  0  0  0  0  0  0  0
  152.2793  141.5673  156.8063 H   0  0  0  0  0  0  0  0  0  0  0  0
  149.0794  138.1102  153.4041 H   0  0  0  0  0  0  0  0  0  0  0  0
  151.3365  137.7264  154.2032 H   0  0  0  0  0  0  0  0  0  0  0  0
  1  2  1  0  0  0  0
  1 24  1  0  0  0  0
  1 25  1  0  0  0  0
  1 26  1  0  0  0  0
  2  7  1  0  0  0  0
  2  3  2  0  0  0  0
  3  4  1  0  0  0  0
  3 27  1  0  0  0  0
  4  5  2  0  0  0  0
  4 28  1  0  0  0  0
  5  6  1  0  0  0  0
  5 29  1  0  0  0  0
  6  7  2  0  0  0  0
  6 30  1  0  0  0  0
  7  8  1  0  0  0  0
  8  9  1  0  0  0  0
  9 10  1  0  0  0  0
  9 31  1  0  0  0  0
  9 32  1  0  0  0  0
 10 11  1  0  0  0  0
 10 12  1  0  0  0  0
 10 33  1  0  0  0  0
 11 34  1  0  0  0  0
 12 13  1  0  0  0  0
 12 35  1  0  0  0  0
 12 36  1  0  0  0  0
 13 22  1  0  0  0  0
 13 14  1  0  0  0  0
 14 15  2  0  0  0  0
 15 16  1  0  0  0  0
 15 20  1  0  0  0  0
 16 17  1  0  0  0  0
 16 18  1  0  0  0  0
 16 19  1  0  0  0  0
 20 21  2  0  0  0  0
 20 37  1  0  0  0  0
 21 22  1  0  0  0  0
 21 38  1  0  0  0  0
 22 23  2  0  0  0  0
M  END
> <s_m_source_file>
AV-unprocessed.smi

> <i_m_source_file_index>
2824

> <i_lp_mmshare_version>
43012

> <i_f3d_flags>
0

> <s_epik_input>
W0NIM11jMVtjSF1bY0hdW2NIXVtjSF1jMU9bQ0gyXVtDQEhdKFtPSF0pW0NIMl1uMm5jKEMoRikoRilGKVtjSF1bY0hdYzI9Tw==

> <s_epik_cmdline>
J2VwaWtfcHl0aG9uJywgJy1waCcsICc3LjAnLCAnLXRuJywgJzgnLCAnLW1hJywgJzIwMCcsICctbWV0YWxfYmluZGluZycsICctaW1hZScsICc8aW5maWxlLm1hZT4nLCAnLW9tYWUnLCAnPG91dGZpbGUubWFlPic=

> <r_lp_tautomer_probability>
1

> <r_epik_Ionization_Penalty>
1.2156e-07

> <r_epik_Ionization_Penalty_Charging>
4.38548e-09

> <r_epik_Ionization_Penalty_Neutral>
1.17174e-07

> <r_epik_State_Penalty>
-0

> <r_epik_Charging_Adjusted_Penalty>
4.38548e-09

> <i_epik_Tot_Q>
0

> <i_epik_Tot_abs_Q>
0

> <r_epik_Metal_State_Penalty>
-0

> <b_epik_Metal_Only>
0

> <s_lp_Force_Field>
OPLS_2005

> <r_lp_Energy>
34.0835

> <b_lp_Chiralities_Consistent>
1

> <s_lp_Variant>
AV-unprocessed.smi:2824-1

> <Gold.Version>
5.8.1

> <Gold.Id.Protein>
6NUR|6NUR_protein|mol2

> <Gold.PLP.Fitness>
53.7861

> <Gold.PLP.PLP>
-52.0906

> <Gold.PLP.part.hbond>
-1.0000

> <Gold.PLP.part.metal>
0.0000

> <Gold.PLP.part.buried>
-3.8387

> <Gold.PLP.part.nonpolar>
-46.1155

> <Gold.PLP.part.repulsive>
0.0991

> <Gold.PLP.ligand.clash>
0.0000

> <Gold.PLP.ligand.torsion>
0.6797

> <Gold.PLP.Chemscore.Hbond>
1.0000

> <Gold.PLP.Chemscore.CHOScore>
0.0000

> <Gold.PLP.Chemscore.Metal>
0.0000

> <Gold.Chemscore.Hbonds>
donor molecule, donor type, donor heavy atom, donor atom, acceptor molecule, acceptor atom, score
      P1  H  7997  8009       L1    23  1.00

> <Gold.PLP.Chemscore.Internal.Correction>
0.0548

> <Gold.Rescore>
     Score         DG    S(hbond)    S(metal)    S(lipo)     H(rot)  DE(clash)    DE(int)     intcor
     15.01     -16.85       1.00        0.00     125.51       2.60       0.17       1.67       ----

> <Gold.Chemscore.Fitness>
15.0136

> <Gold.Chemscore.DG>
-16.8540

> <Gold.Chemscore.ZeroCoef>
-5.4800

> <Gold.Chemscore.Hbond>
1.0000

> <Gold.Chemscore.Metal>
0.0000

> <Gold.Chemscore.Lipo>
125.5073

> <Gold.Chemscore.Internal_Hbond>
0.0000

> <Gold.Chemscore.DEClash>
0.1698

> <Gold.Chemscore.DEInternal>
1.6706

> <Gold.Chemscore.Rot>
2.5978

> <Gold.Chemscore.Internal.Correction>
   9.000000E+99

> <Gold.Chemscore.Hbonds>
donor molecule, donor type, donor heavy atom, donor atom, acceptor molecule, acceptor atom, score
      P1  H  7997  8009       L1    23  1.00

> <Gold.Chemscore.Hbond.Weighted>
-3.3400

> <Gold.Chemscore.Metal.Weighted>
-0.0000

> <Gold.Chemscore.Lipo.Weighted>
-14.6844

> <Gold.Chemscore.Internal_Hbond.Weighted>
0.0000

> <Gold.Chemscore.DEClash.Weighted>
0.1698

> <Gold.Chemscore.DEInternal.Weighted>
1.6706

> <Gold.Chemscore.Rot.Weighted>
6.6504

> <Gold.Chemscore.Internal.Correction.Weighted>
   9.000000E+99

> <Gold.Protein.RotatedTorsions>
[ 6907 6896 6895 6894 ] final  -75.44 input  -60.11 | X-H torsion
[ 7974 7965 7964 7962 ] final -128.00 input  175.53 | X-H torsion
[ 8008 7997 7996 7995 ] final -151.27 input   59.86 | X-H torsion
[ 10167 10162 10161 10158 ] final -163.08 input  -65.29 | X-H torsion
[ 10718 10713 10712 10709 ] final   74.26 input   66.30 | X-H torsion
[ 10763 10752 10751 10750 ] final -174.74 input  -60.55 | X-H torsion
[ 11005 11000 10999 10996 ] final -167.12 input  -57.11 | X-H torsion

> <Gold.Protein.ActiveResidues>
 VAL166  LYS551  ARG553  GLY616  TRP617  ASP618  TYR619  PRO620  LYS621  CYS622 
 ASP623  PHE694  ASN695  SER759  ASP760  ASP761  ALA762  ILE779  LEU786  VAL792 
 PHE793  MET794  SER795  GLU796  ALA797  LYS798  CYS799  TRP800  GLU811  SER814 

> <Gold.Protein.RotatedAtoms>
  150.7059  134.4720  159.5429 H   0  0  0  0  0  0  0  0  0  0  0  0  # atno 6907 bound_to 6896
  152.2375  134.8259  160.0474 H   0  0  0  0  0  0  0  0  0  0  0  0  # atno 6908 bound_to 6896
  151.9053  133.3513  159.3881 H   0  0  0  0  0  0  0  0  0  0  0  0  # atno 6909 bound_to 6896
  144.9714  140.7549  143.4668 H   0  0  0  0  0  0  0  0  0  0  0  0  # atno 7974 bound_to 7965
  155.6368  140.0697  157.2631 H   0  0  0  0  0  0  0  0  0  0  0  0  # atno 8008 bound_to 7997
  154.4193  140.1757  156.1580 H   0  0  0  0  0  0  0  0  0  0  0  0  # atno 8009 bound_to 7997
  155.9888  140.3347  155.6736 H   0  0  0  0  0  0  0  0  0  0  0  0  # atno 8010 bound_to 7997
  139.6346  144.0375  152.2043 H   0  0  0  0  0  0  0  0  0  0  0  0  # atno 10167 bound_to 10162
  157.6584  130.9669  150.1186 H   0  0  0  0  0  0  0  0  0  0  0  0  # atno 10718 bound_to 10713
  154.5927  135.2846  155.0618 H   0  0  0  0  0  0  0  0  0  0  0  0  # atno 10763 bound_to 10752
  154.1913  135.6440  153.5064 H   0  0  0  0  0  0  0  0  0  0  0  0  # atno 10764 bound_to 10752
  153.0127  135.5447  154.6618 H   0  0  0  0  0  0  0  0  0  0  0  0  # atno 10765 bound_to 10752
  140.5568  134.5373  157.5134 H   0  0  0  0  0  0  0  0  0  0  0  0  # atno 11005 bound_to 11000
  145.2553  139.2014  143.4921 LP  0  0  0  0  0  0  0  0  0  0  0  0  # atno 17320 bound_to 7965
  146.3383  140.2473  142.8597 LP  0  0  0  0  0  0  0  0  0  0  0  0  # atno 17321 bound_to 7965
  140.0049  144.6266  150.7698 LP  0  0  0  0  0  0  0  0  0  0  0  0  # atno 17342 bound_to 10162
  140.7458  143.2881  151.3407 LP  0  0  0  0  0  0  0  0  0  0  0  0  # atno 17343 bound_to 10162
  156.2064  130.3663  149.8725 LP  0  0  0  0  0  0  0  0  0  0  0  0  # atno 17370 bound_to 10713
  156.6615  130.8784  151.3548 LP  0  0  0  0  0  0  0  0  0  0  0  0  # atno 17371 bound_to 10713
  139.9427  134.7757  156.0637 LP  0  0  0  0  0  0  0  0  0  0  0  0  # atno 17394 bound_to 11000
  141.1138  133.6634  156.3045 LP  0  0  0  0  0  0  0  0  0  0  0  0  # atno 17395 bound_to 11000

$$$$
