AV-unprocessed.smi:798|AV-procd|sdf|3770|dock6
  -GOLD-   22720 1203D 1   1.00000     0.00000
 Structure written by MMmdl.
 34 36  0  0  0  0  0  0  0  0  1 V2000
  142.0531  134.8769  154.5135 O   0  0  0  0  0  0  0  0  0  0  0  0
  142.1023  135.6517  153.5580 C   0  0  0  0  0  0  0  0  0  0  0  0
  141.2368  136.6526  153.3209 N   0  0  0  0  0  0  0  0  0  0  0  0
  140.1299  137.0664  154.1076 C   0  0  0  0  0  0  0  0  0  0  0  0
  139.7903  136.4964  155.2743 N   0  0  0  0  0  0  0  0  0  0  0  0
  138.6724  137.0968  155.8396 N   0  0  0  0  0  0  0  0  0  0  0  0
  138.2142  138.0945  155.0782 C   0  0  0  0  0  0  0  0  0  0  0  0
  139.1045  138.3997  153.5968 S   0  0  0  0  0  0  0  0  0  0  0  0
  143.0515  135.6011  152.6123 N   0  0  0  0  0  0  0  0  0  0  0  0
  144.1448  134.6295  152.5555 C   0  0  1  0  0  0  0  0  0  0  0  0
  143.8231  133.5340  151.5164 C   0  0  2  0  0  0  0  0  0  0  0  0
  144.7690  132.3386  151.7325 C   0  0  0  0  0  0  0  0  0  0  0  0
  146.1184  132.8849  151.2282 C   0  0  0  0  0  0  0  0  0  0  0  0
  145.7665  134.3221  150.7949 C   0  0  1  0  0  0  0  0  0  0  0  0
  144.3674  134.1310  150.2239 C   0  0  0  0  0  0  0  0  0  0  0  0
  145.5105  135.1902  152.0519 C   0  0  1  0  0  0  0  0  0  0  0  0
  145.5649  136.7089  151.7687 C   0  0  0  0  0  0  0  0  0  0  0  0
  146.7915  137.0552  151.1612 O   0  0  0  0  0  0  0  0  0  0  0  0
  141.3971  137.1935  152.4840 H   0  0  0  0  0  0  0  0  0  0  0  0
  137.3465  138.6557  155.3917 H   0  0  0  0  0  0  0  0  0  0  0  0
  143.0130  136.2794  151.8655 H   0  0  0  0  0  0  0  0  0  0  0  0
  144.2605  134.1756  153.5417 H   0  0  0  0  0  0  0  0  0  0  0  0
  142.7711  133.2470  151.4849 H   0  0  0  0  0  0  0  0  0  0  0  0
  144.8100  132.0210  152.7750 H   0  0  0  0  0  0  0  0  0  0  0  0
  144.4558  131.4820  151.1343 H   0  0  0  0  0  0  0  0  0  0  0  0
  146.8933  132.8584  151.9953 H   0  0  0  0  0  0  0  0  0  0  0  0
  146.4722  132.2997  150.3785 H   0  0  0  0  0  0  0  0  0  0  0  0
  146.4900  134.7454  150.0976 H   0  0  0  0  0  0  0  0  0  0  0  0
  144.3350  133.4386  149.3806 H   0  0  0  0  0  0  0  0  0  0  0  0
  143.8813  135.0641  149.9356 H   0  0  0  0  0  0  0  0  0  0  0  0
  146.2741  134.9759  152.8020 H   0  0  0  0  0  0  0  0  0  0  0  0
  144.7447  137.0274  151.1251 H   0  0  0  0  0  0  0  0  0  0  0  0
  145.4900  137.2737  152.6980 H   0  0  0  0  0  0  0  0  0  0  0  0
  147.4880  136.6021  151.6114 H   0  0  0  0  0  0  0  0  0  0  0  0
  1  2  2  0  0  0  0
  2  3  1  0  0  0  0
  2  9  1  0  0  0  0
  3  4  1  0  0  0  0
  3 19  1  0  0  0  0
  4  8  1  0  0  0  0
  4  5  2  0  0  0  0
  5  6  1  0  0  0  0
  6  7  2  0  0  0  0
  7  8  1  0  0  0  0
  7 20  1  0  0  0  0
  9 10  1  0  0  0  0
  9 21  1  0  0  0  0
 10 16  1  0  0  0  0
 10 11  1  0  0  0  0
 10 22  1  0  0  0  0
 11 15  1  0  0  0  0
 11 12  1  0  0  0  0
 11 23  1  0  0  0  0
 12 13  1  0  0  0  0
 12 24  1  0  0  0  0
 12 25  1  0  0  0  0
 13 14  1  0  0  0  0
 13 26  1  0  0  0  0
 13 27  1  0  0  0  0
 14 15  1  0  0  0  0
 14 16  1  0  0  0  0
 14 28  1  0  0  0  0
 15 29  1  0  0  0  0
 15 30  1  0  0  0  0
 16 17  1  0  0  0  0
 16 31  1  0  0  0  0
 17 18  1  0  0  0  0
 17 32  1  0  0  0  0
 17 33  1  0  0  0  0
 18 34  1  0  0  0  0
M  END
> <s_m_source_file>
AV-unprocessed.smi

> <i_m_source_file_index>
798

> <i_lp_mmshare_version>
43012

> <i_f3d_flags>
0

> <s_epik_input>
W0NIMl0xW0NIMl1bQ0BASF0oW0NIMl0yKVtDQEBIXShbQ0gyXVtPSF0pW0NAQEhdKFtDQEhdMTIpW05IXUMoPU8pW05IXWMzbm5bY0hdczM=

> <s_epik_cmdline>
J2VwaWtfcHl0aG9uJywgJy1waCcsICc3LjAnLCAnLXRuJywgJzgnLCAnLW1hJywgJzIwMCcsICctbWV0YWxfYmluZGluZycsICctaW1hZScsICc8aW5maWxlLm1hZT4nLCAnLW9tYWUnLCAnPG91dGZpbGUubWFlPic=

> <r_lp_tautomer_probability>
1

> <r_epik_Ionization_Penalty>
0.000329046

> <r_epik_Ionization_Penalty_Charging>
0

> <r_epik_Ionization_Penalty_Neutral>
0.000329046

> <r_epik_State_Penalty>
-0

> <r_epik_Charging_Adjusted_Penalty>
0

> <i_epik_Tot_Q>
0

> <i_epik_Tot_abs_Q>
0

> <r_epik_Metal_State_Penalty>
0.173433

> <b_epik_Metal_Only>
0

> <s_lp_Force_Field>
OPLS_2005

> <r_lp_Energy>
49.2939

> <b_lp_Chiralities_Consistent>
1

> <s_lp_Variant>
AV-unprocessed.smi:798-2

> <Gold.Version>
5.8.1

> <Gold.Id.Protein>
6NUR|6NUR_protein|mol2

> <Gold.PLP.Fitness>
37.4093

> <Gold.PLP.PLP>
-30.8443

> <Gold.PLP.part.hbond>
-3.5796

> <Gold.PLP.part.metal>
0.0000

> <Gold.PLP.part.buried>
-3.7409

> <Gold.PLP.part.nonpolar>
-22.5302

> <Gold.PLP.part.repulsive>
0.4071

> <Gold.PLP.ligand.clash>
0.0000

> <Gold.PLP.ligand.torsion>
0.3057

> <Gold.PLP.Chemscore.Hbond>
2.3876

> <Gold.PLP.Chemscore.CHOScore>
0.0000

> <Gold.PLP.Chemscore.Metal>
0.0000

> <Gold.Chemscore.Hbonds>
donor molecule, donor type, donor heavy atom, donor atom, acceptor molecule, acceptor atom, score
      L1  H    18    34       P1  7948  0.93
      P1  H  7954  7966       L1    18  0.45
      P1  H 11000 11005       L1     5  0.99

> <Gold.PLP.Chemscore.Internal.Correction>
0.0136

> <Gold.Rescore>
     Score         DG    S(hbond)    S(metal)    S(lipo)     H(rot)  DE(clash)    DE(int)     intcor
     12.08     -13.77       1.84        0.00      60.97       1.94       0.22       1.48       ----

> <Gold.Chemscore.Fitness>
12.0761

> <Gold.Chemscore.DG>
-13.7748

> <Gold.Chemscore.ZeroCoef>
-5.4800

> <Gold.Chemscore.Hbond>
1.8379

> <Gold.Chemscore.Metal>
0.0000

> <Gold.Chemscore.Lipo>
60.9682

> <Gold.Chemscore.Internal_Hbond>
0.0000

> <Gold.Chemscore.DEClash>
0.2236

> <Gold.Chemscore.DEInternal>
1.4751

> <Gold.Chemscore.Rot>
1.9442

> <Gold.Chemscore.Internal.Correction>
   9.000000E+99

> <Gold.Chemscore.Hbonds>
donor molecule, donor type, donor heavy atom, donor atom, acceptor molecule, acceptor atom, score
      L1  H    18    34       P1  7948  0.85
      P1  H  7954  7966       L1    18  0.01
      P1  H 11000 11005       L1     5  0.62

> <Gold.Chemscore.Hbond.Weighted>
-6.1386

> <Gold.Chemscore.Metal.Weighted>
-0.0000

> <Gold.Chemscore.Lipo.Weighted>
-7.1333

> <Gold.Chemscore.Internal_Hbond.Weighted>
0.0000

> <Gold.Chemscore.DEClash.Weighted>
0.2236

> <Gold.Chemscore.DEInternal.Weighted>
1.4751

> <Gold.Chemscore.Rot.Weighted>
4.9771

> <Gold.Chemscore.Internal.Correction.Weighted>
   9.000000E+99

> <Gold.Protein.RotatedTorsions>
[ 6907 6896 6895 6894 ] final   97.57 input  -60.11 | X-H torsion
[ 7974 7965 7964 7962 ] final  111.30 input  175.53 | X-H torsion
[ 8008 7997 7996 7995 ] final  111.75 input   59.86 | X-H torsion
[ 10167 10162 10161 10158 ] final  180.00 input  -65.29 | X-H torsion
[ 10718 10713 10712 10709 ] final  106.58 input   66.30 | X-H torsion
[ 10763 10752 10751 10750 ] final  -20.19 input  -60.55 | X-H torsion
[ 11005 11000 10999 10996 ] final   67.63 input  -57.11 | X-H torsion

> <Gold.Protein.ActiveResidues>
 VAL166  LYS551  ARG553  GLY616  TRP617  ASP618  TYR619  PRO620  LYS621  CYS622 
 ASP623  PHE694  ASN695  SER759  ASP760  ASP761  ALA762  ILE779  LEU786  VAL792 
 PHE793  MET794  SER795  GLU796  ALA797  LYS798  CYS799  TRP800  GLU811  SER814 

> <Gold.Protein.RotatedAtoms>
  152.5421  134.0713  159.8194 H   0  0  0  0  0  0  0  0  0  0  0  0  # atno 6907 bound_to 6896
  151.0827  133.5370  159.2627 H   0  0  0  0  0  0  0  0  0  0  0  0  # atno 6908 bound_to 6896
  151.2191  135.0520  159.8996 H   0  0  0  0  0  0  0  0  0  0  0  0  # atno 6909 bound_to 6896
  145.2440  139.2767  143.4102 H   0  0  0  0  0  0  0  0  0  0  0  0  # atno 7974 bound_to 7965
  156.2146  140.3013  155.9809 H   0  0  0  0  0  0  0  0  0  0  0  0  # atno 8008 bound_to 7997
  155.2639  140.0431  157.3017 H   0  0  0  0  0  0  0  0  0  0  0  0  # atno 8009 bound_to 7997
  154.5748  140.2358  155.8146 H   0  0  0  0  0  0  0  0  0  0  0  0  # atno 8010 bound_to 7997
  139.5361  144.2494  152.0797 H   0  0  0  0  0  0  0  0  0  0  0  0  # atno 10167 bound_to 10162
  157.6662  131.0854  150.6028 H   0  0  0  0  0  0  0  0  0  0  0  0  # atno 10718 bound_to 10713
  153.6165  135.6994  153.5327 H   0  0  0  0  0  0  0  0  0  0  0  0  # atno 10763 bound_to 10752
  153.2973  135.4139  155.1221 H   0  0  0  0  0  0  0  0  0  0  0  0  # atno 10764 bound_to 10752
  154.8552  135.3640  154.5705 H   0  0  0  0  0  0  0  0  0  0  0  0  # atno 10765 bound_to 10752
  139.9759  134.6823  156.0355 H   0  0  0  0  0  0  0  0  0  0  0  0  # atno 11005 bound_to 11000
  146.3321  140.2812  142.8610 LP  0  0  0  0  0  0  0  0  0  0  0  0  # atno 17320 bound_to 7965
  144.9563  140.8230  143.5541 LP  0  0  0  0  0  0  0  0  0  0  0  0  # atno 17321 bound_to 7965
  140.1965  144.4701  150.6453 LP  0  0  0  0  0  0  0  0  0  0  0  0  # atno 17342 bound_to 10162
  140.6568  143.2240  151.5950 LP  0  0  0  0  0  0  0  0  0  0  0  0  # atno 17343 bound_to 10162
  156.6329  130.4437  149.5780 LP  0  0  0  0  0  0  0  0  0  0  0  0  # atno 17370 bound_to 10713
  156.2268  130.6770  151.1424 LP  0  0  0  0  0  0  0  0  0  0  0  0  # atno 17371 bound_to 10713
  141.1436  133.6560  156.3801 LP  0  0  0  0  0  0  0  0  0  0  0  0  # atno 17394 bound_to 11000
  140.5196  134.6317  157.5313 LP  0  0  0  0  0  0  0  0  0  0  0  0  # atno 17395 bound_to 11000

$$$$
