AV-unprocessed.smi:1824|AV-procd|sdf|7393|dock9
  -GOLD-   22720 9 63D 1   1.00000     0.00000
 Structure written by MMmdl.
 44 46  0  0  0  0  0  0  0  0  1 V2000
  145.2188  139.2158  156.1307 C   0  0  0  0  0  0  0  0  0  0  0  0
  146.3896  139.4169  155.1535 C   0  0  2  0  0  0  0  0  0  0  0  0
  147.7606  139.5110  155.8525 C   0  0  0  0  0  0  0  0  0  0  0  0
  147.9572  140.7804  156.5445 N   0  0  0  0  0  0  0  0  0  0  0  0
  149.2687  140.8268  157.1906 C   0  0  0  0  0  0  0  0  0  0  0  0
  150.3818  141.5125  156.3699 C   0  0  2  0  0  0  0  0  0  0  0  0
  150.6111  140.7694  155.1872 O   0  0  0  0  0  0  0  0  0  0  0  0
  151.7038  141.6039  157.1575 C   0  0  0  0  0  0  0  0  0  0  0  0
  151.6182  142.5147  158.2854 N   0  0  0  0  0  0  0  0  0  0  0  0
  150.9201  143.6647  158.3530 C   0  0  0  0  0  0  0  0  0  0  0  0
  150.9839  144.3500  159.4913 N   0  0  0  0  0  0  0  0  0  0  0  0
  151.8220  143.5522  160.2515 C   0  0  0  0  0  0  0  0  0  0  0  0
  152.2955  143.7162  161.5728 C   0  0  0  0  0  0  0  0  0  0  0  0
  153.1551  142.7574  162.1485 C   0  0  0  0  0  0  0  0  0  0  0  0
  153.5996  142.9299  163.4160 F   0  0  0  0  0  0  0  0  0  0  0  0
  153.5536  141.6216  161.4124 C   0  0  0  0  0  0  0  0  0  0  0  0
  154.3784  140.7055  161.9727 F   0  0  0  0  0  0  0  0  0  0  0  0
  153.0950  141.4371  160.0939 C   0  0  0  0  0  0  0  0  0  0  0  0
  152.2376  142.3961  159.5245 C   0  0  0  0  0  0  0  0  0  0  0  0
  147.7580  141.8729  155.5978 C   0  0  0  0  0  0  0  0  0  0  0  0
  146.3674  141.8180  154.9395 C   0  0  1  0  0  0  0  0  0  0  0  0
  146.1905  142.9081  153.8774 C   0  0  0  0  0  0  0  0  0  0  0  0
  146.1878  140.5511  154.3090 O   0  0  0  0  0  0  0  0  0  0  0  0
  145.3355  138.2868  156.6891 H   0  0  0  0  0  0  0  0  0  0  0  0
  144.2707  139.1624  155.5953 H   0  0  0  0  0  0  0  0  0  0  0  0
  145.1471  140.0249  156.8574 H   0  0  0  0  0  0  0  0  0  0  0  0
  146.4078  138.5464  154.4972 H   0  0  0  0  0  0  0  0  0  0  0  0
  147.8691  138.6822  156.5532 H   0  0  0  0  0  0  0  0  0  0  0  0
  148.5444  139.3833  155.1039 H   0  0  0  0  0  0  0  0  0  0  0  0
  149.1543  141.3905  158.1175 H   0  0  0  0  0  0  0  0  0  0  0  0
  149.5795  139.8274  157.4994 H   0  0  0  0  0  0  0  0  0  0  0  0
  150.0690  142.5206  156.0938 H   0  0  0  0  0  0  0  0  0  0  0  0
  149.8073  140.3366  154.9433 H   0  0  0  0  0  0  0  0  0  0  0  0
  151.9830  140.6216  157.5406 H   0  0  0  0  0  0  0  0  0  0  0  0
  152.5169  141.9271  156.5054 H   0  0  0  0  0  0  0  0  0  0  0  0
  150.3298  144.0178  157.5199 H   0  0  0  0  0  0  0  0  0  0  0  0
  151.9972  144.5818  162.1457 H   0  0  0  0  0  0  0  0  0  0  0  0
  153.3972  140.5684  159.5280 H   0  0  0  0  0  0  0  0  0  0  0  0
  147.8631  142.8321  156.1042 H   0  0  0  0  0  0  0  0  0  0  0  0
  148.5305  141.8389  154.8277 H   0  0  0  0  0  0  0  0  0  0  0  0
  145.5991  141.9548  155.7012 H   0  0  0  0  0  0  0  0  0  0  0  0
  146.3064  143.9012  154.3118 H   0  0  0  0  0  0  0  0  0  0  0  0
  145.1987  142.8558  153.4277 H   0  0  0  0  0  0  0  0  0  0  0  0
  146.9246  142.8040  153.0781 H   0  0  0  0  0  0  0  0  0  0  0  0
  1  2  1  0  0  0  0
  1 24  1  0  0  0  0
  1 25  1  0  0  0  0
  1 26  1  0  0  0  0
  2 23  1  0  0  0  0
  2  3  1  0  0  0  0
  2 27  1  0  0  0  0
  3  4  1  0  0  0  0
  3 28  1  0  0  0  0
  3 29  1  0  0  0  0
  4  5  1  0  0  0  0
  4 20  1  0  0  0  0
  5  6  1  0  0  0  0
  5 30  1  0  0  0  0
  5 31  1  0  0  0  0
  6  7  1  0  0  0  0
  6  8  1  0  0  0  0
  6 32  1  0  0  0  0
  7 33  1  0  0  0  0
  8  9  1  0  0  0  0
  8 34  1  0  0  0  0
  8 35  1  0  0  0  0
  9 19  1  0  0  0  0
  9 10  1  0  0  0  0
 10 11  2  0  0  0  0
 10 36  1  0  0  0  0
 11 12  1  0  0  0  0
 12 19  2  0  0  0  0
 12 13  1  0  0  0  0
 13 14  2  0  0  0  0
 13 37  1  0  0  0  0
 14 15  1  0  0  0  0
 14 16  1  0  0  0  0
 16 17  1  0  0  0  0
 16 18  2  0  0  0  0
 18 19  1  0  0  0  0
 18 38  1  0  0  0  0
 20 21  1  0  0  0  0
 20 39  1  0  0  0  0
 20 40  1  0  0  0  0
 21 22  1  0  0  0  0
 21 23  1  0  0  0  0
 21 41  1  0  0  0  0
 22 42  1  0  0  0  0
 22 43  1  0  0  0  0
 22 44  1  0  0  0  0
M  END
> <s_m_source_file>
AV-unprocessed.smi

> <i_m_source_file_index>
1824

> <i_lp_mmshare_version>
43012

> <i_f3d_flags>
0

> <s_epik_input>
W0NIM11bQ0BASF0xW0NIMl1OKFtDSDJdW0NASF0oTzEpW0NIM10pW0NIMl1bQ0BIXShbT0hdKVtDSDJdbihbY0hdbjIpYyhjMjMpW2NIXWMoRiljKEYpW2NIXTM=

> <s_epik_cmdline>
J2VwaWtfcHl0aG9uJywgJy1waCcsICc3LjAnLCAnLXRuJywgJzgnLCAnLW1hJywgJzIwMCcsICctbWV0YWxfYmluZGluZycsICctaW1hZScsICc8aW5maWxlLm1hZT4nLCAnLW9tYWUnLCAnPG91dGZpbGUubWFlPic=

> <r_epik_Ionization_Penalty>
0.273778

> <r_epik_Ionization_Penalty_Charging>
0

> <r_epik_Ionization_Penalty_Neutral>
0.273778

> <r_epik_State_Penalty>
0.246794

> <r_epik_Charging_Adjusted_Penalty>
0.246794

> <i_epik_Tot_Q>
0

> <i_epik_Tot_abs_Q>
0

> <r_epik_Metal_State_Penalty>
0.238234

> <b_epik_Metal_Only>
0

> <s_lp_Force_Field>
OPLS_2005

> <r_lp_Energy>
29.8683

> <b_lp_Chiralities_Consistent>
1

> <s_lp_Variant>
AV-unprocessed.smi:1824-1

> <Gold.Version>
5.8.1

> <Gold.Id.Protein>
6NUR|6NUR_protein|mol2

> <Gold.PLP.Fitness>
49.8009

> <Gold.PLP.PLP>
-45.8787

> <Gold.PLP.part.hbond>
-1.0000

> <Gold.PLP.part.metal>
0.0000

> <Gold.PLP.part.buried>
-5.7977

> <Gold.PLP.part.nonpolar>
-38.4624

> <Gold.PLP.part.repulsive>
0.3665

> <Gold.PLP.ligand.clash>
0.0000

> <Gold.PLP.ligand.torsion>
0.8461

> <Gold.PLP.Chemscore.Hbond>
0.8640

> <Gold.PLP.Chemscore.CHOScore>
1.0000

> <Gold.PLP.Chemscore.Metal>
0.0000

> <Gold.Chemscore.Hbonds>
donor molecule, donor type, donor heavy atom, donor atom, acceptor molecule, acceptor atom, score
      P1  H  7989  7998       L1     7  0.85
      L1  C    10    36       P1  8028  1.00

> <Gold.PLP.Chemscore.Internal.Correction>
0.0224

> <Gold.Rescore>
     Score         DG    S(hbond)    S(metal)    S(lipo)     H(rot)  DE(clash)    DE(int)     intcor
     12.70     -14.01       0.74        0.00     101.19       2.26       0.55       0.76       ----

> <Gold.Chemscore.Fitness>
12.7013

> <Gold.Chemscore.DG>
-14.0112

> <Gold.Chemscore.ZeroCoef>
-5.4800

> <Gold.Chemscore.Hbond>
0.7432

> <Gold.Chemscore.Metal>
0.0000

> <Gold.Chemscore.Lipo>
101.1899

> <Gold.Chemscore.Internal_Hbond>
0.0000

> <Gold.Chemscore.DEClash>
0.5539

> <Gold.Chemscore.DEInternal>
0.7560

> <Gold.Chemscore.Rot>
2.2619

> <Gold.Chemscore.Internal.Correction>
   9.000000E+99

> <Gold.Chemscore.Hbonds>
donor molecule, donor type, donor heavy atom, donor atom, acceptor molecule, acceptor atom, score
      P1  H  7989  7998       L1     7  0.37

> <Gold.Chemscore.Hbond.Weighted>
-2.4824

> <Gold.Chemscore.Metal.Weighted>
-0.0000

> <Gold.Chemscore.Lipo.Weighted>
-11.8392

> <Gold.Chemscore.Internal_Hbond.Weighted>
0.0000

> <Gold.Chemscore.DEClash.Weighted>
0.5539

> <Gold.Chemscore.DEInternal.Weighted>
0.7560

> <Gold.Chemscore.Rot.Weighted>
5.7904

> <Gold.Chemscore.Internal.Correction.Weighted>
   9.000000E+99

> <Gold.Protein.RotatedTorsions>
[ 6907 6896 6895 6894 ] final -130.51 input  -60.11 | X-H torsion
[ 7974 7965 7964 7962 ] final    7.30 input  175.53 | X-H torsion
[ 8008 7997 7996 7995 ] final  153.51 input   59.86 | X-H torsion
[ 10167 10162 10161 10158 ] final  160.56 input  -65.29 | X-H torsion
[ 10718 10713 10712 10709 ] final -150.06 input   66.30 | X-H torsion
[ 10763 10752 10751 10750 ] final  170.40 input  -60.55 | X-H torsion
[ 11005 11000 10999 10996 ] final  -67.31 input  -57.11 | X-H torsion

> <Gold.Protein.ActiveResidues>
 VAL166  LYS551  ARG553  GLY616  TRP617  ASP618  TYR619  PRO620  LYS621  CYS622 
 ASP623  PHE694  ASN695  SER759  ASP760  ASP761  ALA762  ILE779  LEU786  VAL792 
 PHE793  MET794  SER795  GLU796  ALA797  LYS798  CYS799  TRP800  GLU811  SER814 

> <Gold.Protein.RotatedAtoms>
  150.9406  133.6661  159.2791 H   0  0  0  0  0  0  0  0  0  0  0  0  # atno 6907 bound_to 6896
  151.4052  135.0976  159.9578 H   0  0  0  0  0  0  0  0  0  0  0  0  # atno 6908 bound_to 6896
  152.5067  133.8891  159.7439 H   0  0  0  0  0  0  0  0  0  0  0  0  # atno 6909 bound_to 6896
  146.2428  140.0103  142.8407 H   0  0  0  0  0  0  0  0  0  0  0  0  # atno 7974 bound_to 7965
  156.2578  140.1992  156.6501 H   0  0  0  0  0  0  0  0  0  0  0  0  # atno 8008 bound_to 7997
  154.6543  140.0568  157.0016 H   0  0  0  0  0  0  0  0  0  0  0  0  # atno 8009 bound_to 7997
  155.1371  140.3239  155.4463 H   0  0  0  0  0  0  0  0  0  0  0  0  # atno 8010 bound_to 7997
  139.4841  144.4622  151.8689 H   0  0  0  0  0  0  0  0  0  0  0  0  # atno 10167 bound_to 10162
  156.4412  130.8123  151.2352 H   0  0  0  0  0  0  0  0  0  0  0  0  # atno 10718 bound_to 10713
  154.3970  135.2754  155.2120 H   0  0  0  0  0  0  0  0  0  0  0  0  # atno 10763 bound_to 10752
  154.4162  135.6011  153.5986 H   0  0  0  0  0  0  0  0  0  0  0  0  # atno 10764 bound_to 10752
  152.9831  135.5961  154.4233 H   0  0  0  0  0  0  0  0  0  0  0  0  # atno 10765 bound_to 10752
  141.1505  133.6716  156.6274 H   0  0  0  0  0  0  0  0  0  0  0  0  # atno 11005 bound_to 11000
  145.1334  140.9530  143.4531 LP  0  0  0  0  0  0  0  0  0  0  0  0  # atno 17320 bound_to 7965
  145.0366  139.3295  143.5998 LP  0  0  0  0  0  0  0  0  0  0  0  0  # atno 17321 bound_to 7965
  140.4085  144.2400  150.5890 LP  0  0  0  0  0  0  0  0  0  0  0  0  # atno 17342 bound_to 10162
  140.4989  143.2324  151.8708 LP  0  0  0  0  0  0  0  0  0  0  0  0  # atno 17343 bound_to 10162
  157.7506  131.0167  150.3557 LP  0  0  0  0  0  0  0  0  0  0  0  0  # atno 17370 bound_to 10713
  156.3915  130.3899  149.7026 LP  0  0  0  0  0  0  0  0  0  0  0  0  # atno 17371 bound_to 10713
  140.3493  134.7782  157.4455 LP  0  0  0  0  0  0  0  0  0  0  0  0  # atno 17394 bound_to 11000
  140.0873  134.5648  155.8479 LP  0  0  0  0  0  0  0  0  0  0  0  0  # atno 17395 bound_to 11000

$$$$
