AV-unprocessed.smi:2331|AV-procd|sdf|9316|dock6
  -GOLD-   2272012533D 1   1.00000     0.00000
 Structure written by MMmdl.
 50 51  0  0  0  0  0  0  0  0  2 V2000
  145.0792  136.2433  153.8764 C   0  0  0  0  0  0  0  0  0  0  0  0
  145.2459  136.2031  152.3376 C   0  0  0  0  0  0  0  0  0  0  0  0
  143.8231  136.1862  151.7387 C   0  0  0  0  0  0  0  0  0  0  0  0
  145.9655  137.4999  151.8740 C   0  0  0  0  0  0  0  0  0  0  0  0
  147.1920  137.7702  152.6217 N   0  0  0  0  0  0  0  0  0  0  0  0
  147.3045  138.5780  153.6895 C   0  0  0  0  0  0  0  0  0  0  0  0
  146.3710  139.2620  154.1072 O   0  0  0  0  0  0  0  0  0  0  0  0
  148.5580  138.6242  154.1968 N   0  0  0  0  0  0  0  0  0  0  0  0
  149.4790  137.4831  154.1232 C   0  0  0  0  0  0  0  0  0  0  0  0
  150.2606  137.5045  155.4295 C   0  0  0  0  0  0  0  0  0  0  0  0
  150.3178  138.9811  155.7717 C   0  0  0  0  0  0  0  0  0  0  0  0
  148.9911  139.5669  155.2497 C   0  0  1  0  0  0  0  0  0  0  0  0
  149.1240  141.0542  154.7777 C   0  0  0  0  0  0  0  0  0  0  0  0
  147.7514  141.6785  154.4514 C   0  0  0  0  0  0  0  0  0  0  0  0
  149.9098  141.9518  155.7552 C   0  0  0  0  0  0  0  0  0  0  0  0
  149.7983  141.0759  153.5351 O   0  0  0  0  0  0  0  0  0  0  0  0
  146.0230  134.9598  151.8583 C   0  0  0  0  0  0  0  0  0  0  0  0
  146.0403  134.5444  150.5012 C   0  0  0  0  0  0  0  0  0  0  0  0
  146.7519  133.3851  150.1317 C   0  0  0  0  0  0  0  0  0  0  0  0
  147.4154  132.6742  151.0669 N   0  3  0  0  0  0  0  0  0  0  0  0
  147.4327  133.0243  152.3694 C   0  0  0  0  0  0  0  0  0  0  0  0
  146.7366  134.1728  152.7965 C   0  0  0  0  0  0  0  0  0  0  0  0
  144.5318  137.1331  154.1896 H   0  0  0  0  0  0  0  0  0  0  0  0
  146.0360  136.2638  154.3974 H   0  0  0  0  0  0  0  0  0  0  0  0
  144.5212  135.3806  154.2424 H   0  0  0  0  0  0  0  0  0  0  0  0
  143.2404  137.0434  152.0787 H   0  0  0  0  0  0  0  0  0  0  0  0
  143.2811  135.2864  152.0323 H   0  0  0  0  0  0  0  0  0  0  0  0
  143.8323  136.2219  150.6495 H   0  0  0  0  0  0  0  0  0  0  0  0
  146.2580  137.4089  150.8276 H   0  0  0  0  0  0  0  0  0  0  0  0
  145.2868  138.3539  151.9112 H   0  0  0  0  0  0  0  0  0  0  0  0
  148.0226  137.2826  152.3191 H   0  0  0  0  0  0  0  0  0  0  0  0
  148.9745  136.5230  153.9984 H   0  0  0  0  0  0  0  0  0  0  0  0
  150.1468  137.6274  153.2729 H   0  0  0  0  0  0  0  0  0  0  0  0
  149.7069  136.9683  156.2016 H   0  0  0  0  0  0  0  0  0  0  0  0
  151.2472  137.0488  155.3421 H   0  0  0  0  0  0  0  0  0  0  0  0
  150.4642  139.1566  156.8379 H   0  0  0  0  0  0  0  0  0  0  0  0
  151.1673  139.4185  155.2465 H   0  0  0  0  0  0  0  0  0  0  0  0
  148.2711  139.5094  156.0690 H   0  0  0  0  0  0  0  0  0  0  0  0
  147.1413  141.8150  155.3442 H   0  0  0  0  0  0  0  0  0  0  0  0
  147.1862  141.0549  153.7572 H   0  0  0  0  0  0  0  0  0  0  0  0
  147.8598  142.6622  153.9925 H   0  0  0  0  0  0  0  0  0  0  0  0
  149.4429  141.9715  156.7396 H   0  0  0  0  0  0  0  0  0  0  0  0
  149.9553  142.9806  155.3964 H   0  0  0  0  0  0  0  0  0  0  0  0
  150.9378  141.6135  155.8846 H   0  0  0  0  0  0  0  0  0  0  0  0
  149.4094  140.4268  152.9692 H   0  0  0  0  0  0  0  0  0  0  0  0
  145.5175  135.0877  149.7294 H   0  0  0  0  0  0  0  0  0  0  0  0
  146.8084  133.0075  149.1211 H   0  0  0  0  0  0  0  0  0  0  0  0
  147.9963  132.3788  153.0272 H   0  0  0  0  0  0  0  0  0  0  0  0
  146.7507  134.4386  153.8430 H   0  0  0  0  0  0  0  0  0  0  0  0
  147.9243  131.8384  150.7773 H   0  0  0  0  0  0  0  0  0  0  0  0
  1  2  1  0  0  0  0
  1 23  1  0  0  0  0
  1 24  1  0  0  0  0
  1 25  1  0  0  0  0
  2  3  1  0  0  0  0
  2  4  1  0  0  0  0
  2 17  1  0  0  0  0
  3 26  1  0  0  0  0
  3 27  1  0  0  0  0
  3 28  1  0  0  0  0
  4  5  1  0  0  0  0
  4 29  1  0  0  0  0
  4 30  1  0  0  0  0
  5  6  1  0  0  0  0
  5 31  1  0  0  0  0
  6  7  2  0  0  0  0
  6  8  1  0  0  0  0
  8 12  1  0  0  0  0
  8  9  1  0  0  0  0
  9 10  1  0  0  0  0
  9 32  1  0  0  0  0
  9 33  1  0  0  0  0
 10 11  1  0  0  0  0
 10 34  1  0  0  0  0
 10 35  1  0  0  0  0
 11 12  1  0  0  0  0
 11 36  1  0  0  0  0
 11 37  1  0  0  0  0
 12 13  1  0  0  0  0
 12 38  1  0  0  0  0
 13 14  1  0  0  0  0
 13 15  1  0  0  0  0
 13 16  1  0  0  0  0
 14 39  1  0  0  0  0
 14 40  1  0  0  0  0
 14 41  1  0  0  0  0
 15 42  1  0  0  0  0
 15 43  1  0  0  0  0
 15 44  1  0  0  0  0
 16 45  1  0  0  0  0
 17 22  1  0  0  0  0
 17 18  2  0  0  0  0
 18 19  1  0  0  0  0
 18 46  1  0  0  0  0
 19 20  2  0  0  0  0
 19 47  1  0  0  0  0
 20 21  1  0  0  0  0
 20 50  1  0  0  0  0
 21 22  2  0  0  0  0
 21 48  1  0  0  0  0
 22 49  1  0  0  0  0
M  CHG  1  20   1
M  END
> <s_m_source_file>
AV-unprocessed.smi

> <i_m_source_file_index>
2331

> <i_lp_mmshare_version>
43012

> <i_f3d_flags>
0

> <s_epik_input>
W2NIXTFbY0hdbltjSF1bY0hdYzFDKFtDSDNdKShbQ0gzXSlbQ0gyXVtOSF1DKD1PKU4yW0NIMl1bQ0gyXVtDSDJdW0NASF0yQyhbQ0gzXSkoW0NIM10pW09IXQ==

> <s_epik_cmdline>
J2VwaWtfcHl0aG9uJywgJy1waCcsICc3LjAnLCAnLXRuJywgJzgnLCAnLW1hJywgJzIwMCcsICctbWV0YWxfYmluZGluZycsICctaW1hZScsICc8aW5maWxlLm1hZT4nLCAnLW9tYWUnLCAnPG91dGZpbGUubWFlPic=

> <r_epik_Ionization_Penalty>
1.40501

> <r_epik_Ionization_Penalty_Charging>
1.40494

> <r_epik_Ionization_Penalty_Neutral>
7.00889e-05

> <r_epik_State_Penalty>
1.48741

> <r_epik_Charging_Adjusted_Penalty>
2.89235

> <i_epik_Tot_Q>
1

> <i_epik_Tot_abs_Q>
1

> <r_epik_Metal_State_Penalty>
1.54092

> <b_epik_Metal_Only>
0

> <s_lp_Force_Field>
OPLS_2005

> <r_lp_Energy>
55.517

> <b_lp_Chiralities_Consistent>
1

> <s_lp_Variant>
AV-unprocessed.smi:2331-3

> <Gold.Version>
5.8.1

> <Gold.Id.Protein>
6NUR|6NUR_protein|mol2

> <Gold.PLP.Fitness>
39.4634

> <Gold.PLP.PLP>
-29.9561

> <Gold.PLP.part.hbond>
-4.4481

> <Gold.PLP.part.metal>
0.0000

> <Gold.PLP.part.buried>
1.8341

> <Gold.PLP.part.nonpolar>
-26.2894

> <Gold.PLP.part.repulsive>
0.2022

> <Gold.PLP.ligand.clash>
0.0000

> <Gold.PLP.ligand.torsion>
1.1573

> <Gold.PLP.Chemscore.Hbond>
3.7840

> <Gold.PLP.Chemscore.CHOScore>
0.0000

> <Gold.PLP.Chemscore.Metal>
0.0000

> <Gold.Chemscore.Hbonds>
donor molecule, donor type, donor heavy atom, donor atom, acceptor molecule, acceptor atom, score
      L1  H     5    31       P1  7948  0.83
      L1  H    16    45       P1  7957  0.66
      L1  H    20    50       P1 10747  0.98
      P1  H  7989  7998       L1    16  0.24
      P1  H  8011  8017       L1    16  0.79

> <Gold.PLP.Chemscore.Internal.Correction>
0.4698

> <Gold.Rescore>
     Score         DG    S(hbond)    S(metal)    S(lipo)     H(rot)  DE(clash)    DE(int)     intcor
     16.55     -21.46       3.38        0.00      84.22       2.02       2.94       1.97       ----

> <Gold.Chemscore.Fitness>
16.5513

> <Gold.Chemscore.DG>
-21.4562

> <Gold.Chemscore.ZeroCoef>
-5.4800

> <Gold.Chemscore.Hbond>
3.3808

> <Gold.Chemscore.Metal>
0.0000

> <Gold.Chemscore.Lipo>
84.2169

> <Gold.Chemscore.Internal_Hbond>
0.0000

> <Gold.Chemscore.DEClash>
2.9393

> <Gold.Chemscore.DEInternal>
1.9656

> <Gold.Chemscore.Rot>
2.0192

> <Gold.Chemscore.Internal.Correction>
   9.000000E+99

> <Gold.Chemscore.Hbonds>
donor molecule, donor type, donor heavy atom, donor atom, acceptor molecule, acceptor atom, score
      L1  H     5    31       P1  7948  0.82
      L1  H    16    45       P1  7957  0.64
      L1  H    20    50       P1 10747  0.92
      P1  H  7989  7998       L1    16  0.17
      P1  H  8011  8017       L1    16  0.11

> <Gold.Chemscore.Hbond.Weighted>
-11.2919

> <Gold.Chemscore.Metal.Weighted>
-0.0000

> <Gold.Chemscore.Lipo.Weighted>
-9.8534

> <Gold.Chemscore.Internal_Hbond.Weighted>
0.0000

> <Gold.Chemscore.DEClash.Weighted>
2.9393

> <Gold.Chemscore.DEInternal.Weighted>
1.9656

> <Gold.Chemscore.Rot.Weighted>
5.1691

> <Gold.Chemscore.Internal.Correction.Weighted>
   9.000000E+99

> <Gold.Protein.RotatedTorsions>
[ 6907 6896 6895 6894 ] final  -44.45 input  -60.11 | X-H torsion
[ 7974 7965 7964 7962 ] final  -53.92 input  175.53 | X-H torsion
[ 8008 7997 7996 7995 ] final  102.32 input   59.86 | X-H torsion
[ 10167 10162 10161 10158 ] final   38.89 input  -65.29 | X-H torsion
[ 10718 10713 10712 10709 ] final  157.38 input   66.30 | X-H torsion
[ 10763 10752 10751 10750 ] final   -5.78 input  -60.55 | X-H torsion
[ 11005 11000 10999 10996 ] final -148.14 input  -57.11 | X-H torsion

> <Gold.Protein.ActiveResidues>
 VAL166  LYS551  ARG553  GLY616  TRP617  ASP618  TYR619  PRO620  LYS621  CYS622 
 ASP623  PHE694  ASN695  SER759  ASP760  ASP761  ALA762  ILE779  LEU786  VAL792 
 PHE793  MET794  SER795  GLU796  ALA797  LYS798  CYS799  TRP800  GLU811  SER814 

> <Gold.Protein.RotatedAtoms>
  150.9327  134.8741  159.7561 H   0  0  0  0  0  0  0  0  0  0  0  0  # atno 6907 bound_to 6896
  152.5045  134.4055  159.9441 H   0  0  0  0  0  0  0  0  0  0  0  0  # atno 6908 bound_to 6896
  151.4081  133.3696  159.2775 H   0  0  0  0  0  0  0  0  0  0  0  0  # atno 6909 bound_to 6896
  145.8914  140.8067  142.9789 H   0  0  0  0  0  0  0  0  0  0  0  0  # atno 7974 bound_to 7965
  156.1382  140.3183  155.8454 H   0  0  0  0  0  0  0  0  0  0  0  0  # atno 8008 bound_to 7997
  155.4204  140.0512  157.3043 H   0  0  0  0  0  0  0  0  0  0  0  0  # atno 8009 bound_to 7997
  154.4954  140.2109  155.9470 H   0  0  0  0  0  0  0  0  0  0  0  0  # atno 8010 bound_to 7997
  140.3892  144.1875  150.6130 H   0  0  0  0  0  0  0  0  0  0  0  0  # atno 10167 bound_to 10162
  157.1922  131.0657  151.2073 H   0  0  0  0  0  0  0  0  0  0  0  0  # atno 10718 bound_to 10713
  153.4032  135.7005  153.6411 H   0  0  0  0  0  0  0  0  0  0  0  0  # atno 10763 bound_to 10752
  153.4936  135.3667  155.2504 H   0  0  0  0  0  0  0  0  0  0  0  0  # atno 10764 bound_to 10752
  154.8712  135.4095  154.3371 H   0  0  0  0  0  0  0  0  0  0  0  0  # atno 10765 bound_to 10752
  140.7643  134.3262  157.5093 H   0  0  0  0  0  0  0  0  0  0  0  0  # atno 11005 bound_to 11000
  144.6730  140.1536  143.7428 LP  0  0  0  0  0  0  0  0  0  0  0  0  # atno 17320 bound_to 7965
  145.8903  139.2372  143.1553 LP  0  0  0  0  0  0  0  0  0  0  0  0  # atno 17321 bound_to 7965
  140.4857  143.2364  151.8891 LP  0  0  0  0  0  0  0  0  0  0  0  0  # atno 17342 bound_to 10162
  139.4790  144.5221  151.8787 LP  0  0  0  0  0  0  0  0  0  0  0  0  # atno 17343 bound_to 10162
  157.3849  130.7251  149.6656 LP  0  0  0  0  0  0  0  0  0  0  0  0  # atno 17370 bound_to 10713
  155.9710  130.4162  150.4220 LP  0  0  0  0  0  0  0  0  0  0  0  0  # atno 17371 bound_to 10713
  139.8766  134.9221  156.3293 LP  0  0  0  0  0  0  0  0  0  0  0  0  # atno 17394 bound_to 11000
  140.9634  133.7374  156.0432 LP  0  0  0  0  0  0  0  0  0  0  0  0  # atno 17395 bound_to 11000

$$$$
