AV-unprocessed.smi:2207|AV-procd|sdf|8944|dock4
  -GOLD-   2272012163D 1   1.00000     0.00000
 Structure written by MMmdl.
 18 18  0  0  0  0  0  0  0  0  1 V2000
  146.0582  133.6709  150.2002 N   0  0  0  0  0  0  0  0  0  0  0  0
  145.9060  134.3317  151.3510 C   0  0  0  0  0  0  0  0  0  0  0  0
  146.2645  133.8655  152.4303 O   0  0  0  0  0  0  0  0  0  0  0  0
  145.2538  135.7137  151.2819 C   0  0  0  0  0  0  0  0  0  0  0  0
  144.1383  135.8158  152.2061 N   0  0  0  0  0  0  0  0  0  0  0  0
  143.4219  136.9431  152.5623 C   0  0  0  0  0  0  0  0  0  0  0  0
  142.4646  136.5567  153.4574 C   0  0  0  0  0  0  0  0  0  0  0  0
  142.6887  135.1591  153.5778 C   0  0  0  0  0  0  0  0  0  0  0  0
  141.9290  134.3337  154.4024 N   0  0  0  0  0  0  0  0  0  0  0  0
  143.6840  134.7084  152.8364 N   0  0  0  0  0  0  0  0  0  0  0  0
  146.4890  132.7577  150.1988 H   0  0  0  0  0  0  0  0  0  0  0  0
  145.7471  134.0890  149.3352 H   0  0  0  0  0  0  0  0  0  0  0  0
  145.9890  136.4885  151.5054 H   0  0  0  0  0  0  0  0  0  0  0  0
  144.8877  135.9016  150.2716 H   0  0  0  0  0  0  0  0  0  0  0  0
  143.6510  137.9153  152.1513 H   0  0  0  0  0  0  0  0  0  0  0  0
  141.7256  137.1756  153.9444 H   0  0  0  0  0  0  0  0  0  0  0  0
  141.1713  134.6978  154.9617 H   0  0  0  0  0  0  0  0  0  0  0  0
  142.1170  133.3440  154.4719 H   0  0  0  0  0  0  0  0  0  0  0  0
  1  2  1  0  0  0  0
  1 11  1  0  0  0  0
  1 12  1  0  0  0  0
  2  3  2  0  0  0  0
  2  4  1  0  0  0  0
  4  5  1  0  0  0  0
  4 13  1  0  0  0  0
  4 14  1  0  0  0  0
  5 10  1  0  0  0  0
  5  6  1  0  0  0  0
  6  7  2  0  0  0  0
  6 15  1  0  0  0  0
  7  8  1  0  0  0  0
  7 16  1  0  0  0  0
  8  9  1  0  0  0  0
  8 10  2  0  0  0  0
  9 17  1  0  0  0  0
  9 18  1  0  0  0  0
M  END
> <s_m_source_file>
AV-unprocessed.smi

> <i_m_source_file_index>
2207

> <i_lp_mmshare_version>
43012

> <i_f3d_flags>
0

> <s_epik_input>
W05IMl1DKD1PKVtDSDJdbjFbY0hdW2NIXWMobjEpW05IMl0=

> <s_epik_cmdline>
J2VwaWtfcHl0aG9uJywgJy1waCcsICc3LjAnLCAnLXRuJywgJzgnLCAnLW1hJywgJzIwMCcsICctbWV0YWxfYmluZGluZycsICctaW1hZScsICc8aW5maWxlLm1hZT4nLCAnLW9tYWUnLCAnPG91dGZpbGUubWFlPic=

> <r_lp_tautomer_probability>
1

> <r_epik_Ionization_Penalty>
0.000204489

> <r_epik_Ionization_Penalty_Charging>
0

> <r_epik_Ionization_Penalty_Neutral>
0.000204489

> <r_epik_State_Penalty>
-0

> <r_epik_Charging_Adjusted_Penalty>
0

> <i_epik_Tot_Q>
0

> <i_epik_Tot_abs_Q>
0

> <r_epik_Metal_State_Penalty>
-0

> <b_epik_Metal_Only>
0

> <s_lp_Force_Field>
OPLS_2005

> <r_lp_Energy>
0.150193

> <b_lp_Chiralities_Consistent>
1

> <s_lp_Variant>
AV-unprocessed.smi:2207-1

> <Gold.Version>
5.8.1

> <Gold.Id.Protein>
6NUR|6NUR_protein|mol2

> <Gold.PLP.Fitness>
30.9024

> <Gold.PLP.PLP>
-17.2481

> <Gold.PLP.part.hbond>
-3.0000

> <Gold.PLP.part.metal>
0.0000

> <Gold.PLP.part.buried>
-2.9806

> <Gold.PLP.part.nonpolar>
-11.1556

> <Gold.PLP.part.repulsive>
0.4012

> <Gold.PLP.ligand.clash>
0.0000

> <Gold.PLP.ligand.torsion>
0.1427

> <Gold.PLP.Chemscore.Hbond>
2.6640

> <Gold.PLP.Chemscore.CHOScore>
1.9825

> <Gold.PLP.Chemscore.Metal>
0.0000

> <Gold.Chemscore.Hbonds>
donor molecule, donor type, donor heavy atom, donor atom, acceptor molecule, acceptor atom, score
      L1  H     1    12       P1  7921  0.99
      L1  H     9    17       P1 11000  0.67
      L1  H     9    18       P1 10957  1.00
      L1  C     6    15       P1 10171  0.99
      L1  C     6    15       P1 10175  0.99

> <Gold.PLP.Chemscore.Internal.Correction>
0.0001

> <Gold.Rescore>
     Score         DG    S(hbond)    S(metal)    S(lipo)     H(rot)  DE(clash)    DE(int)     intcor
      9.18     -10.73       2.40        0.00      12.98       1.67       0.02       1.54       ----

> <Gold.Chemscore.Fitness>
9.1751

> <Gold.Chemscore.DG>
-10.7338

> <Gold.Chemscore.ZeroCoef>
-5.4800

> <Gold.Chemscore.Hbond>
2.3994

> <Gold.Chemscore.Metal>
0.0000

> <Gold.Chemscore.Lipo>
12.9837

> <Gold.Chemscore.Internal_Hbond>
0.0000

> <Gold.Chemscore.DEClash>
0.0234

> <Gold.Chemscore.DEInternal>
1.5353

> <Gold.Chemscore.Rot>
1.6716

> <Gold.Chemscore.Internal.Correction>
   9.000000E+99

> <Gold.Chemscore.Hbonds>
donor molecule, donor type, donor heavy atom, donor atom, acceptor molecule, acceptor atom, score
      L1  H     1    12       P1  7921  0.47
      L1  H     9    17       P1 11000  0.48
      L1  H     9    18       P1 10957  1.00

> <Gold.Chemscore.Hbond.Weighted>
-8.0141

> <Gold.Chemscore.Metal.Weighted>
-0.0000

> <Gold.Chemscore.Lipo.Weighted>
-1.5191

> <Gold.Chemscore.Internal_Hbond.Weighted>
0.0000

> <Gold.Chemscore.DEClash.Weighted>
0.0234

> <Gold.Chemscore.DEInternal.Weighted>
1.5353

> <Gold.Chemscore.Rot.Weighted>
4.2794

> <Gold.Chemscore.Internal.Correction.Weighted>
   9.000000E+99

> <Gold.Protein.RotatedTorsions>
[ 6907 6896 6895 6894 ] final  117.04 input  -60.11 | X-H torsion
[ 7974 7965 7964 7962 ] final  -78.71 input  175.53 | X-H torsion
[ 8008 7997 7996 7995 ] final  -72.24 input   59.86 | X-H torsion
[ 10167 10162 10161 10158 ] final  153.55 input  -65.29 | X-H torsion
[ 10718 10713 10712 10709 ] final  -38.02 input   66.30 | X-H torsion
[ 10763 10752 10751 10750 ] final   80.50 input  -60.55 | X-H torsion
[ 11005 11000 10999 10996 ] final  157.44 input  -57.11 | X-H torsion

> <Gold.Protein.ActiveResidues>
 VAL166  LYS551  ARG553  GLY616  TRP617  ASP618  TYR619  PRO620  LYS621  CYS622 
 ASP623  PHE694  ASN695  SER759  ASP760  ASP761  ALA762  ILE779  LEU786  VAL792 
 PHE793  MET794  SER795  GLU796  ALA797  LYS798  CYS799  TRP800  GLU811  SER814 

> <Gold.Protein.RotatedAtoms>
  152.4638  133.7880  159.6886 H   0  0  0  0  0  0  0  0  0  0  0  0  # atno 6907 bound_to 6896
  150.8594  133.7657  159.3004 H   0  0  0  0  0  0  0  0  0  0  0  0  # atno 6908 bound_to 6896
  151.5227  135.1070  159.9934 H   0  0  0  0  0  0  0  0  0  0  0  0  # atno 6909 bound_to 6896
  145.5828  140.9445  143.1334 H   0  0  0  0  0  0  0  0  0  0  0  0  # atno 7974 bound_to 7965
  154.5150  140.0801  156.8064 H   0  0  0  0  0  0  0  0  0  0  0  0  # atno 8008 bound_to 7997
  155.3700  140.3422  155.4225 H   0  0  0  0  0  0  0  0  0  0  0  0  # atno 8009 bound_to 7997
  156.1617  140.1591  156.8587 H   0  0  0  0  0  0  0  0  0  0  0  0  # atno 8010 bound_to 7997
  139.4826  144.5263  151.7795 H   0  0  0  0  0  0  0  0  0  0  0  0  # atno 10167 bound_to 10162
  156.3086  130.4249  149.8073 H   0  0  0  0  0  0  0  0  0  0  0  0  # atno 10718 bound_to 10713
  153.1039  135.4800  154.8916 H   0  0  0  0  0  0  0  0  0  0  0  0  # atno 10763 bound_to 10752
  154.7408  135.3082  154.8733 H   0  0  0  0  0  0  0  0  0  0  0  0  # atno 10764 bound_to 10752
  153.9341  135.6841  153.4798 H   0  0  0  0  0  0  0  0  0  0  0  0  # atno 10765 bound_to 10752
  140.1769  134.8503  157.2757 H   0  0  0  0  0  0  0  0  0  0  0  0  # atno 11005 bound_to 11000
  144.7386  139.7513  143.7319 LP  0  0  0  0  0  0  0  0  0  0  0  0  # atno 17320 bound_to 7965
  146.1704  139.4852  142.9931 LP  0  0  0  0  0  0  0  0  0  0  0  0  # atno 17321 bound_to 7965
  140.4783  144.1486  150.5928 LP  0  0  0  0  0  0  0  0  0  0  0  0  # atno 17342 bound_to 10162
  140.4306  143.2570  151.9600 LP  0  0  0  0  0  0  0  0  0  0  0  0  # atno 17343 bound_to 10162
  156.5424  130.8306  151.3273 LP  0  0  0  0  0  0  0  0  0  0  0  0  # atno 17370 bound_to 10713
  157.7385  130.9815  150.2259 LP  0  0  0  0  0  0  0  0  0  0  0  0  # atno 17371 bound_to 10713
  140.2312  134.3907  155.7521 LP  0  0  0  0  0  0  0  0  0  0  0  0  # atno 17394 bound_to 11000
  141.2221  133.7216  156.8643 LP  0  0  0  0  0  0  0  0  0  0  0  0  # atno 17395 bound_to 11000

$$$$
