AV-unprocessed.smi:527|AV-procd|sdf|2817|dock9
  -GOLD-   2262023293D 1   1.00000     0.00000
 Structure written by MMmdl.
 42 43  0  0  0  0  0  0  0  0  1 V2000
  153.0291  142.3190  161.7177 C   0  0  0  0  0  0  0  0  0  0  0  0
  152.7397  143.1695  160.4669 C   0  0  2  0  0  0  0  0  0  0  0  0
  152.2593  144.5696  160.8973 C   0  0  0  0  0  0  0  0  0  0  0  0
  151.9947  145.4755  159.6904 C   0  0  0  0  0  0  0  0  0  0  0  0
  150.9597  144.8393  158.7586 C   0  0  0  0  0  0  0  0  0  0  0  0
  151.4043  143.4386  158.2967 C   0  0  2  0  0  0  0  0  0  0  0  0
  150.3529  142.8619  157.4595 N   0  0  0  0  0  0  0  0  0  0  0  0
  150.5459  142.0170  156.4356 C   0  0  0  0  0  0  0  0  0  0  0  0
  151.5765  141.3568  156.2859 O   0  0  0  0  0  0  0  0  0  0  0  0
  149.4772  142.0020  155.6155 N   0  0  0  0  0  0  0  0  0  0  0  0
  149.1908  141.1003  154.6544 C   0  0  0  0  0  0  0  0  0  0  0  0
  149.8777  140.1101  154.3893 O   0  0  0  0  0  0  0  0  0  0  0  0
  147.9002  141.3832  153.8740 C   0  0  0  0  0  0  0  0  0  0  0  0
  147.2630  140.1767  153.3739 N   0  0  0  0  0  0  0  0  0  0  0  0
  146.9797  139.8643  152.0502 C   0  0  0  0  0  0  0  0  0  0  0  0
  146.3814  138.6246  152.0584 C   0  0  0  0  0  0  0  0  0  0  0  0
  146.2870  138.1580  153.3675 N   0  0  0  0  0  0  0  0  0  0  0  0
  146.8312  139.1289  154.0898 C   0  0  0  0  0  0  0  0  0  0  0  0
  151.7242  142.5034  159.4948 C   0  0  1  0  0  0  0  0  0  0  0  0
  152.2157  141.1244  159.0025 C   0  0  0  0  0  0  0  0  0  0  0  0
  152.1111  142.0769  162.2543 H   0  0  0  0  0  0  0  0  0  0  0  0
  153.6847  142.8507  162.4081 H   0  0  0  0  0  0  0  0  0  0  0  0
  153.5313  141.3849  161.4685 H   0  0  0  0  0  0  0  0  0  0  0  0
  153.6831  143.2968  159.9337 H   0  0  0  0  0  0  0  0  0  0  0  0
  151.3487  144.4809  161.4914 H   0  0  0  0  0  0  0  0  0  0  0  0
  153.0032  145.0389  161.5422 H   0  0  0  0  0  0  0  0  0  0  0  0
  151.6425  146.4512  160.0266 H   0  0  0  0  0  0  0  0  0  0  0  0
  152.9243  145.6501  159.1469 H   0  0  0  0  0  0  0  0  0  0  0  0
  150.0008  144.7735  159.2750 H   0  0  0  0  0  0  0  0  0  0  0  0
  150.8018  145.4868  157.8950 H   0  0  0  0  0  0  0  0  0  0  0  0
  152.3186  143.5476  157.7095 H   0  0  0  0  0  0  0  0  0  0  0  0
  149.4055  143.1338  157.6779 H   0  0  0  0  0  0  0  0  0  0  0  0
  148.8154  142.7552  155.7302 H   0  0  0  0  0  0  0  0  0  0  0  0
  147.1959  141.9124  154.5173 H   0  0  0  0  0  0  0  0  0  0  0  0
  148.1187  142.0357  153.0274 H   0  0  0  0  0  0  0  0  0  0  0  0
  147.2229  140.5301  151.2352 H   0  0  0  0  0  0  0  0  0  0  0  0
  146.0154  138.0371  151.2293 H   0  0  0  0  0  0  0  0  0  0  0  0
  146.9182  139.0769  155.1652 H   0  0  0  0  0  0  0  0  0  0  0  0
  150.7964  142.3420  160.0462 H   0  0  0  0  0  0  0  0  0  0  0  0
  153.1725  141.2084  158.4863 H   0  0  0  0  0  0  0  0  0  0  0  0
  151.5099  140.6625  158.3125 H   0  0  0  0  0  0  0  0  0  0  0  0
  152.3401  140.4208  159.8245 H   0  0  0  0  0  0  0  0  0  0  0  0
  1  2  1  0  0  0  0
  1 21  1  0  0  0  0
  1 22  1  0  0  0  0
  1 23  1  0  0  0  0
  2 19  1  0  0  0  0
  2  3  1  0  0  0  0
  2 24  1  0  0  0  0
  3  4  1  0  0  0  0
  3 25  1  0  0  0  0
  3 26  1  0  0  0  0
  4  5  1  0  0  0  0
  4 27  1  0  0  0  0
  4 28  1  0  0  0  0
  5  6  1  0  0  0  0
  5 29  1  0  0  0  0
  5 30  1  0  0  0  0
  6  7  1  0  0  0  0
  6 19  1  0  0  0  0
  6 31  1  0  0  0  0
  7  8  1  0  0  0  0
  7 32  1  0  0  0  0
  8  9  2  0  0  0  0
  8 10  1  0  0  0  0
 10 11  1  0  0  0  0
 10 33  1  0  0  0  0
 11 12  2  0  0  0  0
 11 13  1  0  0  0  0
 13 14  1  0  0  0  0
 13 34  1  0  0  0  0
 13 35  1  0  0  0  0
 14 18  1  0  0  0  0
 14 15  1  0  0  0  0
 15 16  2  0  0  0  0
 15 36  1  0  0  0  0
 16 17  1  0  0  0  0
 16 37  1  0  0  0  0
 17 18  2  0  0  0  0
 18 38  1  0  0  0  0
 19 20  1  0  0  0  0
 19 39  1  0  0  0  0
 20 40  1  0  0  0  0
 20 41  1  0  0  0  0
 20 42  1  0  0  0  0
M  END
> <s_m_source_file>
AV-unprocessed.smi

> <i_m_source_file_index>
527

> <i_lp_mmshare_version>
43012

> <i_f3d_flags>
0

> <s_epik_input>
W0NIM11bQ0BASF0xW0NIMl1bQ0gyXVtDSDJdW0NASF0oW0NASF0xW0NIM10pW05IXUMoPU8pW05IXUMoPU8pW0NIMl1uMltjSF1bY0hdbltjSF0y

> <s_epik_cmdline>
J2VwaWtfcHl0aG9uJywgJy1waCcsICc3LjAnLCAnLXRuJywgJzgnLCAnLW1hJywgJzIwMCcsICctbWV0YWxfYmluZGluZycsICctaW1hZScsICc8aW5maWxlLm1hZT4nLCAnLW9tYWUnLCAnPG91dGZpbGUubWFlPic=

> <r_lp_tautomer_probability>
1

> <r_epik_Ionization_Penalty>
0.172132

> <r_epik_Ionization_Penalty_Charging>
0.172105

> <r_epik_Ionization_Penalty_Neutral>
2.71747e-05

> <r_epik_State_Penalty>
0.161503

> <r_epik_Charging_Adjusted_Penalty>
0.333607

> <i_epik_Tot_Q>
0

> <i_epik_Tot_abs_Q>
0

> <r_epik_Metal_State_Penalty>
0.124763

> <b_epik_Metal_Only>
0

> <s_lp_Force_Field>
OPLS_2005

> <r_lp_Energy>
15.8984

> <b_lp_Chiralities_Consistent>
1

> <s_lp_Variant>
AV-unprocessed.smi:527-3

> <Gold.Version>
5.8.1

> <Gold.Id.Protein>
6NUR|6NUR_protein|mol2

> <Gold.PLP.Fitness>
51.8590

> <Gold.PLP.PLP>
-45.4463

> <Gold.PLP.part.hbond>
-3.0000

> <Gold.PLP.part.metal>
0.0000

> <Gold.PLP.part.buried>
0.5559

> <Gold.PLP.part.nonpolar>
-43.8584

> <Gold.PLP.part.repulsive>
0.5488

> <Gold.PLP.ligand.clash>
0.0000

> <Gold.PLP.ligand.torsion>
0.8789

> <Gold.PLP.Chemscore.Hbond>
1.7600

> <Gold.PLP.Chemscore.CHOScore>
0.9574

> <Gold.PLP.Chemscore.Metal>
0.0000

> <Gold.Chemscore.Hbonds>
donor molecule, donor type, donor heavy atom, donor atom, acceptor molecule, acceptor atom, score
      L1  H    10    33       P1  8028  0.74
      P1  H  7989  7998       L1    12  0.80
      L1  C    15    36       P1  7957  0.36
      L1  C    16    37       P1 10171  0.70

> <Gold.PLP.Chemscore.Internal.Correction>
0.0185

> <Gold.Rescore>
     Score         DG    S(hbond)    S(metal)    S(lipo)     H(rot)  DE(clash)    DE(int)     intcor
     15.02     -18.82       1.34        0.00     112.17       1.66       1.33       2.48       ----

> <Gold.Chemscore.Fitness>
15.0214

> <Gold.Chemscore.DG>
-18.8248

> <Gold.Chemscore.ZeroCoef>
-5.4800

> <Gold.Chemscore.Hbond>
1.3406

> <Gold.Chemscore.Metal>
0.0000

> <Gold.Chemscore.Lipo>
112.1714

> <Gold.Chemscore.Internal_Hbond>
0.0000

> <Gold.Chemscore.DEClash>
1.3277

> <Gold.Chemscore.DEInternal>
2.4756

> <Gold.Chemscore.Rot>
1.6629

> <Gold.Chemscore.Internal.Correction>
   9.000000E+99

> <Gold.Chemscore.Hbonds>
donor molecule, donor type, donor heavy atom, donor atom, acceptor molecule, acceptor atom, score
      L1  H    10    33       P1  8028  0.71
      P1  H  7989  7998       L1    12  0.37

> <Gold.Chemscore.Hbond.Weighted>
-4.4776

> <Gold.Chemscore.Metal.Weighted>
-0.0000

> <Gold.Chemscore.Lipo.Weighted>
-13.1241

> <Gold.Chemscore.Internal_Hbond.Weighted>
0.0000

> <Gold.Chemscore.DEClash.Weighted>
1.3277

> <Gold.Chemscore.DEInternal.Weighted>
2.4756

> <Gold.Chemscore.Rot.Weighted>
4.2569

> <Gold.Chemscore.Internal.Correction.Weighted>
   9.000000E+99

> <Gold.Protein.RotatedTorsions>
[ 6907 6896 6895 6894 ] final  122.83 input  -60.11 | X-H torsion
[ 7974 7965 7964 7962 ] final  -42.28 input  175.53 | X-H torsion
[ 8008 7997 7996 7995 ] final   14.63 input   59.86 | X-H torsion
[ 10167 10162 10161 10158 ] final  162.89 input  -65.29 | X-H torsion
[ 10718 10713 10712 10709 ] final   16.08 input   66.30 | X-H torsion
[ 10763 10752 10751 10750 ] final -177.93 input  -60.55 | X-H torsion
[ 11005 11000 10999 10996 ] final  163.13 input  -57.11 | X-H torsion

> <Gold.Protein.ActiveResidues>
 VAL166  LYS551  ARG553  GLY616  TRP617  ASP618  TYR619  PRO620  LYS621  CYS622 
 ASP623  PHE694  ASN695  SER759  ASP760  ASP761  ALA762  ILE779  LEU786  VAL792 
 PHE793  MET794  SER795  GLU796  ALA797  LYS798  CYS799  TRP800  GLU811  SER814 

> <Gold.Protein.RotatedAtoms>
  152.4211  133.7118  159.6482 H   0  0  0  0  0  0  0  0  0  0  0  0  # atno 6907 bound_to 6896
  150.8087  133.8451  159.3199 H   0  0  0  0  0  0  0  0  0  0  0  0  # atno 6908 bound_to 6896
  151.6167  135.1037  160.0144 H   0  0  0  0  0  0  0  0  0  0  0  0  # atno 6909 bound_to 6896
  146.0131  140.6941  142.9215 H   0  0  0  0  0  0  0  0  0  0  0  0  # atno 7974 bound_to 7965
  154.8512  140.2930  155.5597 H   0  0  0  0  0  0  0  0  0  0  0  0  # atno 8008 bound_to 7997
  156.3016  140.2495  156.3403 H   0  0  0  0  0  0  0  0  0  0  0  0  # atno 8009 bound_to 7997
  154.9019  140.0391  157.1887 H   0  0  0  0  0  0  0  0  0  0  0  0  # atno 8010 bound_to 7997
  139.4866  144.4392  151.8974 H   0  0  0  0  0  0  0  0  0  0  0  0  # atno 10167 bound_to 10162
  157.0627  130.6315  149.5789 H   0  0  0  0  0  0  0  0  0  0  0  0  # atno 10718 bound_to 10713
  154.5540  135.2815  155.0982 H   0  0  0  0  0  0  0  0  0  0  0  0  # atno 10763 bound_to 10752
  154.2417  135.6355  153.5213 H   0  0  0  0  0  0  0  0  0  0  0  0  # atno 10764 bound_to 10752
  153.0010  135.5561  154.6114 H   0  0  0  0  0  0  0  0  0  0  0  0  # atno 10765 bound_to 10752
  140.2327  134.8111  157.3333 H   0  0  0  0  0  0  0  0  0  0  0  0  # atno 11005 bound_to 11000
  144.6960  140.3433  143.7195 LP  0  0  0  0  0  0  0  0  0  0  0  0  # atno 17320 bound_to 7965
  145.7311  139.1736  143.2429 LP  0  0  0  0  0  0  0  0  0  0  0  0  # atno 17321 bound_to 7965
  140.3843  144.2697  150.5905 LP  0  0  0  0  0  0  0  0  0  0  0  0  # atno 17342 bound_to 10162
  140.5205  143.2267  151.8396 LP  0  0  0  0  0  0  0  0  0  0  0  0  # atno 17343 bound_to 10162
  155.9974  130.5045  150.7531 LP  0  0  0  0  0  0  0  0  0  0  0  0  # atno 17370 bound_to 10713
  157.4942  131.0913  151.0391 LP  0  0  0  0  0  0  0  0  0  0  0  0  # atno 17371 bound_to 10713
  140.1734  134.4580  155.7817 LP  0  0  0  0  0  0  0  0  0  0  0  0  # atno 17394 bound_to 11000
  141.2216  133.6951  156.7745 LP  0  0  0  0  0  0  0  0  0  0  0  0  # atno 17395 bound_to 11000

$$$$
