AV-unprocessed.smi:2573|AV-procd|sdf|10113|dock5
  -GOLD-   2272014133D 1   1.00000     0.00000
 Structure written by MMmdl.
 38 39  0  0  0  0  0  0  0  0  1 V2000
  150.5505  135.6139  155.1246 C   0  0  0  0  0  0  0  0  0  0  0  0
  151.0024  137.0260  155.5110 C   0  0  0  0  0  0  0  0  0  0  0  0
  150.9778  137.9969  154.3203 C   0  0  0  0  0  0  0  0  0  0  0  0
  150.6123  139.3460  154.7448 N   0  0  0  0  0  0  0  0  0  0  0  0
  151.3327  140.1635  155.5479 C   0  0  0  0  0  0  0  0  0  0  0  0
  152.4194  139.8985  156.0615 O   0  0  0  0  0  0  0  0  0  0  0  0
  150.6523  141.3264  155.6844 N   0  0  0  0  0  0  0  0  0  0  0  0
  151.0753  142.4920  156.4609 C   0  0  0  0  0  0  0  0  0  0  0  0
  150.2130  142.7054  157.7222 C   0  0  1  0  0  0  0  0  0  0  0  0
  150.6197  141.7435  158.6741 O   0  0  0  0  0  0  0  0  0  0  0  0
  150.3462  144.1223  158.3236 C   0  0  0  0  0  0  0  0  0  0  0  0
  151.7792  144.5199  158.7205 C   0  0  0  0  0  0  0  0  0  0  0  0
  151.7245  145.5403  159.5757 F   0  0  0  0  0  0  0  0  0  0  0  0
  152.3944  143.4990  159.3170 F   0  0  0  0  0  0  0  0  0  0  0  0
  152.4880  144.8991  157.6573 F   0  0  0  0  0  0  0  0  0  0  0  0
  149.4668  141.2544  154.9367 C   0  0  0  0  0  0  0  0  0  0  0  0
  148.4291  142.1850  154.7506 C   0  0  0  0  0  0  0  0  0  0  0  0
  147.3516  141.7958  153.9209 C   0  0  0  0  0  0  0  0  0  0  0  0
  147.3320  140.5167  153.3067 C   0  0  0  0  0  0  0  0  0  0  0  0
  148.3876  139.5982  153.5125 C   0  0  0  0  0  0  0  0  0  0  0  0
  149.4437  140.0089  154.3446 C   0  0  0  0  0  0  0  0  0  0  0  0
  150.5790  134.9472  155.9866 H   0  0  0  0  0  0  0  0  0  0  0  0
  151.1974  135.1909  154.3557 H   0  0  0  0  0  0  0  0  0  0  0  0
  149.5303  135.6182  154.7404 H   0  0  0  0  0  0  0  0  0  0  0  0
  150.3589  137.4036  156.3067 H   0  0  0  0  0  0  0  0  0  0  0  0
  152.0100  136.9778  155.9257 H   0  0  0  0  0  0  0  0  0  0  0  0
  151.9532  138.0223  153.8337 H   0  0  0  0  0  0  0  0  0  0  0  0
  150.2740  137.6441  153.5646 H   0  0  0  0  0  0  0  0  0  0  0  0
  152.1183  142.3483  156.7487 H   0  0  0  0  0  0  0  0  0  0  0  0
  151.0634  143.3865  155.8380 H   0  0  0  0  0  0  0  0  0  0  0  0
  149.1685  142.5082  157.4793 H   0  0  0  0  0  0  0  0  0  0  0  0
  151.2670  142.1353  159.2409 H   0  0  0  0  0  0  0  0  0  0  0  0
  149.9380  144.8569  157.6280 H   0  0  0  0  0  0  0  0  0  0  0  0
  149.7310  144.1884  159.2210 H   0  0  0  0  0  0  0  0  0  0  0  0
  148.4452  143.1569  155.2207 H   0  0  0  0  0  0  0  0  0  0  0  0
  146.5341  142.4810  153.7523 H   0  0  0  0  0  0  0  0  0  0  0  0
  146.5004  140.2404  152.6754 H   0  0  0  0  0  0  0  0  0  0  0  0
  148.3779  138.6234  153.0478 H   0  0  0  0  0  0  0  0  0  0  0  0
  1  2  1  0  0  0  0
  1 22  1  0  0  0  0
  1 23  1  0  0  0  0
  1 24  1  0  0  0  0
  2  3  1  0  0  0  0
  2 25  1  0  0  0  0
  2 26  1  0  0  0  0
  3  4  1  0  0  0  0
  3 27  1  0  0  0  0
  3 28  1  0  0  0  0
  4 21  1  0  0  0  0
  4  5  1  0  0  0  0
  5  6  2  0  0  0  0
  5  7  1  0  0  0  0
  7  8  1  0  0  0  0
  7 16  1  0  0  0  0
  8  9  1  0  0  0  0
  8 29  1  0  0  0  0
  8 30  1  0  0  0  0
  9 10  1  0  0  0  0
  9 11  1  0  0  0  0
  9 31  1  0  0  0  0
 10 32  1  0  0  0  0
 11 12  1  0  0  0  0
 11 33  1  0  0  0  0
 11 34  1  0  0  0  0
 12 13  1  0  0  0  0
 12 14  1  0  0  0  0
 12 15  1  0  0  0  0
 16 21  2  0  0  0  0
 16 17  1  0  0  0  0
 17 18  2  0  0  0  0
 17 35  1  0  0  0  0
 18 19  1  0  0  0  0
 18 36  1  0  0  0  0
 19 20  2  0  0  0  0
 19 37  1  0  0  0  0
 20 21  1  0  0  0  0
 20 38  1  0  0  0  0
M  END
> <s_m_source_file>
AV-unprocessed.smi

> <i_m_source_file_index>
2573

> <i_lp_mmshare_version>
43012

> <i_f3d_flags>
0

> <s_epik_input>
W2NIXTFbY0hdW2NIXVtjSF1jKGMxMiluKFtDSDJdW0NIMl1bQ0gzXSljKD1PKW4yW0NIMl1bQ0BIXShbT0hdKVtDSDJdQyhGKShGKUY=

> <s_epik_cmdline>
J2VwaWtfcHl0aG9uJywgJy1waCcsICc3LjAnLCAnLXRuJywgJzgnLCAnLW1hJywgJzIwMCcsICctbWV0YWxfYmluZGluZycsICctaW1hZScsICc8aW5maWxlLm1hZT4nLCAnLW9tYWUnLCAnPG91dGZpbGUubWFlPic=

> <r_lp_tautomer_probability>
1

> <r_epik_Ionization_Penalty>
2.4024e-06

> <r_epik_Ionization_Penalty_Charging>
3.10219e-09

> <r_epik_Ionization_Penalty_Neutral>
2.3993e-06

> <r_epik_State_Penalty>
-0

> <r_epik_Charging_Adjusted_Penalty>
3.10219e-09

> <i_epik_Tot_Q>
0

> <i_epik_Tot_abs_Q>
0

> <r_epik_Metal_State_Penalty>
-0

> <b_epik_Metal_Only>
0

> <s_lp_Force_Field>
OPLS_2005

> <r_lp_Energy>
39.6684

> <b_lp_Chiralities_Consistent>
1

> <s_lp_Variant>
AV-unprocessed.smi:2573-2

> <Gold.Version>
5.8.1

> <Gold.Id.Protein>
6NUR|6NUR_protein|mol2

> <Gold.PLP.Fitness>
55.0745

> <Gold.PLP.PLP>
-53.4581

> <Gold.PLP.part.hbond>
-1.3052

> <Gold.PLP.part.metal>
0.0000

> <Gold.PLP.part.buried>
-0.0454

> <Gold.PLP.part.nonpolar>
-52.1510

> <Gold.PLP.part.repulsive>
0.0000

> <Gold.PLP.ligand.clash>
0.0000

> <Gold.PLP.ligand.torsion>
0.7418

> <Gold.PLP.Chemscore.Hbond>
1.0000

> <Gold.PLP.Chemscore.CHOScore>
0.0000

> <Gold.PLP.Chemscore.Metal>
0.0000

> <Gold.Chemscore.Hbonds>
donor molecule, donor type, donor heavy atom, donor atom, acceptor molecule, acceptor atom, score
      P1  H  7997  8008       L1     6  1.00

> <Gold.PLP.Chemscore.Internal.Correction>
0.0999

> <Gold.Rescore>
     Score         DG    S(hbond)    S(metal)    S(lipo)     H(rot)  DE(clash)    DE(int)     intcor
      9.99     -13.42       0.99        0.00      93.83       2.48       0.98       2.45       ----

> <Gold.Chemscore.Fitness>
9.9893

> <Gold.Chemscore.DG>
-13.4192

> <Gold.Chemscore.ZeroCoef>
-5.4800

> <Gold.Chemscore.Hbond>
0.9918

> <Gold.Chemscore.Metal>
0.0000

> <Gold.Chemscore.Lipo>
93.8332

> <Gold.Chemscore.Internal_Hbond>
0.0000

> <Gold.Chemscore.DEClash>
0.9818

> <Gold.Chemscore.DEInternal>
2.4482

> <Gold.Chemscore.Rot>
2.4812

> <Gold.Chemscore.Internal.Correction>
   9.000000E+99

> <Gold.Chemscore.Hbonds>
donor molecule, donor type, donor heavy atom, donor atom, acceptor molecule, acceptor atom, score
      P1  H  7997  8008       L1     6  0.99

> <Gold.Chemscore.Hbond.Weighted>
-3.3125

> <Gold.Chemscore.Metal.Weighted>
-0.0000

> <Gold.Chemscore.Lipo.Weighted>
-10.9785

> <Gold.Chemscore.Internal_Hbond.Weighted>
0.0000

> <Gold.Chemscore.DEClash.Weighted>
0.9818

> <Gold.Chemscore.DEInternal.Weighted>
2.4482

> <Gold.Chemscore.Rot.Weighted>
6.3518

> <Gold.Chemscore.Internal.Correction.Weighted>
   9.000000E+99

> <Gold.Protein.RotatedTorsions>
[ 6907 6896 6895 6894 ] final  126.17 input  -60.11 | X-H torsion
[ 7974 7965 7964 7962 ] final -112.61 input  175.53 | X-H torsion
[ 8008 7997 7996 7995 ] final  -32.12 input   59.86 | X-H torsion
[ 10167 10162 10161 10158 ] final -136.76 input  -65.29 | X-H torsion
[ 10718 10713 10712 10709 ] final   61.99 input   66.30 | X-H torsion
[ 10763 10752 10751 10750 ] final  119.45 input  -60.55 | X-H torsion
[ 11005 11000 10999 10996 ] final -146.56 input  -57.11 | X-H torsion

> <Gold.Protein.ActiveResidues>
 VAL166  LYS551  ARG553  GLY616  TRP617  ASP618  TYR619  PRO620  LYS621  CYS622 
 ASP623  PHE694  ASN695  SER759  ASP760  ASP761  ALA762  ILE779  LEU786  VAL792 
 PHE793  MET794  SER795  GLU796  ALA797  LYS798  CYS799  TRP800  GLU811  SER814 

> <Gold.Protein.RotatedAtoms>
  152.3927  133.6702  159.6250 H   0  0  0  0  0  0  0  0  0  0  0  0  # atno 6907 bound_to 6896
  150.7832  133.8927  159.3327 H   0  0  0  0  0  0  0  0  0  0  0  0  # atno 6908 bound_to 6896
  151.6710  135.0977  160.0249 H   0  0  0  0  0  0  0  0  0  0  0  0  # atno 6909 bound_to 6896
  145.1419  140.8782  143.3697 H   0  0  0  0  0  0  0  0  0  0  0  0  # atno 7974 bound_to 7965
  154.4190  140.1746  156.1675 H   0  0  0  0  0  0  0  0  0  0  0  0  # atno 8008 bound_to 7997
  155.9787  140.3379  155.6619 H   0  0  0  0  0  0  0  0  0  0  0  0  # atno 8009 bound_to 7997
  155.6529  140.0692  157.2571 H   0  0  0  0  0  0  0  0  0  0  0  0  # atno 8010 bound_to 7997
  139.8646  143.7034  152.2646 H   0  0  0  0  0  0  0  0  0  0  0  0  # atno 10167 bound_to 10162
  157.5868  130.9025  149.9531 H   0  0  0  0  0  0  0  0  0  0  0  0  # atno 10718 bound_to 10713
  153.5832  135.3480  155.2883 H   0  0  0  0  0  0  0  0  0  0  0  0  # atno 10763 bound_to 10752
  154.8664  135.4187  154.2597 H   0  0  0  0  0  0  0  0  0  0  0  0  # atno 10764 bound_to 10752
  153.3388  135.7048  153.6955 H   0  0  0  0  0  0  0  0  0  0  0  0  # atno 10765 bound_to 10752
  140.7807  134.3082  157.5046 H   0  0  0  0  0  0  0  0  0  0  0  0  # atno 11005 bound_to 11000
  145.0523  139.3172  143.5922 LP  0  0  0  0  0  0  0  0  0  0  0  0  # atno 17320 bound_to 7965
  146.3504  139.9935  142.8683 LP  0  0  0  0  0  0  0  0  0  0  0  0  # atno 17321 bound_to 7965
  139.7341  144.7575  151.0754 LP  0  0  0  0  0  0  0  0  0  0  0  0  # atno 17342 bound_to 10162
  140.7770  143.5051  150.9722 LP  0  0  0  0  0  0  0  0  0  0  0  0  # atno 17343 bound_to 10162
  156.0918  130.3662  150.0380 LP  0  0  0  0  0  0  0  0  0  0  0  0  # atno 17370 bound_to 10713
  156.8510  130.9459  151.3625 LP  0  0  0  0  0  0  0  0  0  0  0  0  # atno 17371 bound_to 10713
  139.8743  134.9316  156.3534 LP  0  0  0  0  0  0  0  0  0  0  0  0  # atno 17394 bound_to 11000
  140.9485  133.7467  156.0240 LP  0  0  0  0  0  0  0  0  0  0  0  0  # atno 17395 bound_to 11000

$$$$
