AV-unprocessed.smi:250|AV-procd|sdf|1932|dock9
  -GOLD-   2262021 53D 1   1.00000     0.00000
 Structure written by MMmdl.
 56 60  0  0  0  0  0  0  0  0  1 V2000
  152.4979  143.7801  160.9011 C   0  0  0  0  0  0  0  0  0  0  0  0
  151.9541  143.6616  159.5546 N   0  0  0  0  0  0  0  0  0  0  0  0
  151.3971  144.6376  158.8069 C   0  0  0  0  0  0  0  0  0  0  0  0
  151.2782  145.8201  159.1220 O   0  0  0  0  0  0  0  0  0  0  0  0
  150.9854  144.0982  157.6464 N   0  0  0  0  0  0  0  0  0  0  0  0
  151.5183  142.7626  157.5063 C   0  0  2  0  0  0  0  0  0  0  0  0
  150.7426  141.6661  156.7801 C   0  0  0  0  0  0  0  0  0  0  0  0
  151.5218  140.4218  156.9002 N   0  0  0  0  0  0  0  0  0  0  0  0
  151.1398  139.4253  156.0602 C   0  0  0  0  0  0  0  0  0  0  0  0
  150.6187  139.7345  154.8423 N   0  0  0  0  0  0  0  0  0  0  0  0
  150.2460  138.7673  153.9995 C   0  0  0  0  0  0  0  0  0  0  0  0
  150.3050  137.4457  154.1689 N   0  0  0  0  0  0  0  0  0  0  0  0
  150.8205  137.1257  155.3900 C   0  0  0  0  0  0  0  0  0  0  0  0
  151.2539  138.0438  156.3889 C   0  0  0  0  0  0  0  0  0  0  0  0
  151.6917  137.3466  157.5089 N   0  0  0  0  0  0  0  0  0  0  0  0
  151.5365  136.0918  157.1865 C   0  0  0  0  0  0  0  0  0  0  0  0
  151.0350  135.8666  155.9243 N   0  0  0  0  0  0  0  0  0  0  0  0
  150.7620  134.5731  155.3131 C   0  0  0  0  0  0  0  0  0  0  0  0
  149.2895  134.0817  155.4472 C   0  0  0  0  0  0  0  0  0  0  0  0
  148.8887  133.9277  156.9427 C   0  0  0  0  0  0  0  0  0  0  0  0
  149.7956  133.1136  157.6592 O   0  0  0  0  0  0  0  0  0  0  0  0
  148.3698  135.0943  154.7192 C   0  0  0  0  0  0  0  0  0  0  0  0
  146.9335  134.5747  154.5280 C   0  0  0  0  0  0  0  0  0  0  0  0
  146.9553  133.3395  153.8250 O   0  0  0  0  0  0  0  0  0  0  0  0
  147.6505  132.3177  154.5274 C   0  0  0  0  0  0  0  0  0  0  0  0
  149.1237  132.7203  154.7257 C   0  0  0  0  0  0  0  0  0  0  0  0
  151.9956  140.0304  158.2460 C   0  0  0  0  0  0  0  0  0  0  0  0
  152.6443  141.2017  159.0326 C   0  0  0  0  0  0  0  0  0  0  0  0
  151.6649  142.3732  158.9573 C   0  0  1  0  0  0  0  0  0  0  0  0
  152.4966  142.8731  157.0309 H   0  0  0  0  0  0  0  0  0  0  0  0
  150.7043  142.0536  159.3704 H   0  0  0  0  0  0  0  0  0  0  0  0
  152.5473  144.8181  161.2328 H   0  0  0  0  0  0  0  0  0  0  0  0
  153.5064  143.3681  160.9356 H   0  0  0  0  0  0  0  0  0  0  0  0
  151.8783  143.2271  161.6073 H   0  0  0  0  0  0  0  0  0  0  0  0
  150.5530  144.6107  156.8914 H   0  0  0  0  0  0  0  0  0  0  0  0
  149.7560  141.5255  157.2238 H   0  0  0  0  0  0  0  0  0  0  0  0
  150.5905  141.9541  155.7412 H   0  0  0  0  0  0  0  0  0  0  0  0
  149.8448  139.0997  153.0534 H   0  0  0  0  0  0  0  0  0  0  0  0
  151.7898  135.2896  157.8642 H   0  0  0  0  0  0  0  0  0  0  0  0
  151.0455  134.6341  154.2616 H   0  0  0  0  0  0  0  0  0  0  0  0
  151.4433  133.8447  155.7551 H   0  0  0  0  0  0  0  0  0  0  0  0
  148.8447  134.8905  157.4487 H   0  0  0  0  0  0  0  0  0  0  0  0
  147.8914  133.4982  157.0363 H   0  0  0  0  0  0  0  0  0  0  0  0
  150.4200  132.7509  157.0493 H   0  0  0  0  0  0  0  0  0  0  0  0
  148.3508  136.0486  155.2465 H   0  0  0  0  0  0  0  0  0  0  0  0
  148.7805  135.3105  153.7319 H   0  0  0  0  0  0  0  0  0  0  0  0
  146.4162  134.4599  155.4810 H   0  0  0  0  0  0  0  0  0  0  0  0
  146.3558  135.2934  153.9467 H   0  0  0  0  0  0  0  0  0  0  0  0
  147.1578  132.1112  155.4776 H   0  0  0  0  0  0  0  0  0  0  0  0
  147.5949  131.3984  153.9444 H   0  0  0  0  0  0  0  0  0  0  0  0
  149.5916  132.7724  153.7418 H   0  0  0  0  0  0  0  0  0  0  0  0
  149.6450  131.9306  155.2679 H   0  0  0  0  0  0  0  0  0  0  0  0
  151.1479  139.6455  158.8149 H   0  0  0  0  0  0  0  0  0  0  0  0
  152.7144  139.2145  158.1592 H   0  0  0  0  0  0  0  0  0  0  0  0
  152.8270  140.9087  160.0668 H   0  0  0  0  0  0  0  0  0  0  0  0
  153.6082  141.4713  158.5993 H   0  0  0  0  0  0  0  0  0  0  0  0
  1  2  1  0  0  0  0
  1 32  1  0  0  0  0
  1 33  1  0  0  0  0
  1 34  1  0  0  0  0
  2 29  1  0  0  0  0
  2  3  1  0  0  0  0
  3  4  2  0  0  0  0
  3  5  1  0  0  0  0
  5  6  1  0  0  0  0
  5 35  1  0  0  0  0
  6 30  1  0  0  0  0
  6 29  1  0  0  0  0
  6  7  1  0  0  0  0
  7  8  1  0  0  0  0
  7 36  1  0  0  0  0
  7 37  1  0  0  0  0
  8  9  1  0  0  0  0
  8 27  1  0  0  0  0
  9 14  1  0  0  0  0
  9 10  2  0  0  0  0
 10 11  1  0  0  0  0
 11 12  2  0  0  0  0
 11 38  1  0  0  0  0
 12 13  1  0  0  0  0
 13 17  1  0  0  0  0
 13 14  2  0  0  0  0
 14 15  1  0  0  0  0
 15 16  2  0  0  0  0
 16 17  1  0  0  0  0
 16 39  1  0  0  0  0
 17 18  1  0  0  0  0
 18 19  1  0  0  0  0
 18 40  1  0  0  0  0
 18 41  1  0  0  0  0
 19 26  1  0  0  0  0
 19 20  1  0  0  0  0
 19 22  1  0  0  0  0
 20 21  1  0  0  0  0
 20 42  1  0  0  0  0
 20 43  1  0  0  0  0
 21 44  1  0  0  0  0
 22 23  1  0  0  0  0
 22 45  1  0  0  0  0
 22 46  1  0  0  0  0
 23 24  1  0  0  0  0
 23 47  1  0  0  0  0
 23 48  1  0  0  0  0
 24 25  1  0  0  0  0
 25 26  1  0  0  0  0
 25 49  1  0  0  0  0
 25 50  1  0  0  0  0
 26 51  1  0  0  0  0
 26 52  1  0  0  0  0
 27 28  1  0  0  0  0
 27 53  1  0  0  0  0
 27 54  1  0  0  0  0
 28 29  1  0  0  0  0
 28 55  1  0  0  0  0
 28 56  1  0  0  0  0
 29 31  1  0  0  0  0
M  END
> <s_m_source_file>
AV-unprocessed.smi

> <i_m_source_file_index>
250

> <i_lp_mmshare_version>
43012

> <i_f3d_flags>
0

> <s_epik_input>
Tz1DKFtOSF0xKU4oW0NIM10pW0NASF0oW0NASF0xMilbQ0gyXVtDSDJdTihbQ0gyXTIpYyhuW2NIXW4zKWMoYzM0KW5bY0hdbjRbQ0gyXUM1KFtDSDJdW09IXSlbQ0gyXVtDSDJdT1tDSDJdW0NIMl01

> <s_epik_cmdline>
J2VwaWtfcHl0aG9uJywgJy1waCcsICc3LjAnLCAnLXRuJywgJzgnLCAnLW1hJywgJzIwMCcsICctbWV0YWxfYmluZGluZycsICctaW1hZScsICc8aW5maWxlLm1hZT4nLCAnLW9tYWUnLCAnPG91dGZpbGUubWFlPic=

> <r_lp_tautomer_probability>
1

> <r_epik_Ionization_Penalty>
0.00229024

> <r_epik_Ionization_Penalty_Charging>
0

> <r_epik_Ionization_Penalty_Neutral>
0.00229024

> <r_epik_State_Penalty>
0.0013961

> <r_epik_Charging_Adjusted_Penalty>
0.0013961

> <i_epik_Tot_Q>
0

> <i_epik_Tot_abs_Q>
0

> <r_epik_Metal_State_Penalty>
-0

> <b_epik_Metal_Only>
0

> <s_lp_Force_Field>
OPLS_2005

> <r_lp_Energy>
71.8921

> <b_lp_Chiralities_Consistent>
1

> <s_lp_Variant>
AV-unprocessed.smi:250-3

> <Gold.Version>
5.8.1

> <Gold.Id.Protein>
6NUR|6NUR_protein|mol2

> <Gold.PLP.Fitness>
50.4032

> <Gold.PLP.PLP>
-39.9512

> <Gold.PLP.part.hbond>
-4.3322

> <Gold.PLP.part.metal>
0.0000

> <Gold.PLP.part.buried>
-4.3612

> <Gold.PLP.part.nonpolar>
-33.2510

> <Gold.PLP.part.repulsive>
2.0488

> <Gold.PLP.ligand.clash>
0.0000

> <Gold.PLP.ligand.torsion>
0.5800

> <Gold.PLP.Chemscore.Hbond>
2.7699

> <Gold.PLP.Chemscore.CHOScore>
1.0000

> <Gold.PLP.Chemscore.Metal>
0.0000

> <Gold.Chemscore.Hbonds>
donor molecule, donor type, donor heavy atom, donor atom, acceptor molecule, acceptor atom, score
      L1  H     5    35       P1  8028  0.89
      P1  H  6896  6907       L1    21  1.00
      P1  H  7989  7998       L1    10  0.85
      L1  C    11    38       P1  7957  1.00

> <Gold.PLP.Chemscore.Internal.Correction>
0.3024

> <Gold.Rescore>
     Score         DG    S(hbond)    S(metal)    S(lipo)     H(rot)  DE(clash)    DE(int)     intcor
     11.35     -15.63       1.84        0.00      82.79       2.22       2.35       1.93       ----

> <Gold.Chemscore.Fitness>
11.3460

> <Gold.Chemscore.DG>
-15.6252

> <Gold.Chemscore.ZeroCoef>
-5.4800

> <Gold.Chemscore.Hbond>
1.8365

> <Gold.Chemscore.Metal>
0.0000

> <Gold.Chemscore.Lipo>
82.7935

> <Gold.Chemscore.Internal_Hbond>
0.0000

> <Gold.Chemscore.DEClash>
2.3462

> <Gold.Chemscore.DEInternal>
1.9330

> <Gold.Chemscore.Rot>
2.2170

> <Gold.Chemscore.Internal.Correction>
   9.000000E+99

> <Gold.Chemscore.Hbonds>
donor molecule, donor type, donor heavy atom, donor atom, acceptor molecule, acceptor atom, score
      L1  H     5    35       P1  8028  0.71
      P1  H  6896  6907       L1    21  0.33
      P1  H  7989  7998       L1    10  0.14

> <Gold.Chemscore.Hbond.Weighted>
-6.1340

> <Gold.Chemscore.Metal.Weighted>
-0.0000

> <Gold.Chemscore.Lipo.Weighted>
-9.6868

> <Gold.Chemscore.Internal_Hbond.Weighted>
0.0000

> <Gold.Chemscore.DEClash.Weighted>
2.3462

> <Gold.Chemscore.DEInternal.Weighted>
1.9330

> <Gold.Chemscore.Rot.Weighted>
5.6756

> <Gold.Chemscore.Internal.Correction.Weighted>
   9.000000E+99

> <Gold.Protein.RotatedTorsions>
[ 6907 6896 6895 6894 ] final -136.37 input  -60.11 | X-H torsion
[ 7974 7965 7964 7962 ] final  -97.03 input  175.53 | X-H torsion
[ 8008 7997 7996 7995 ] final   30.44 input   59.86 | X-H torsion
[ 10167 10162 10161 10158 ] final  -72.19 input  -65.29 | X-H torsion
[ 10718 10713 10712 10709 ] final    4.31 input   66.30 | X-H torsion
[ 10763 10752 10751 10750 ] final   20.64 input  -60.55 | X-H torsion
[ 11005 11000 10999 10996 ] final -103.82 input  -57.11 | X-H torsion

> <Gold.Protein.ActiveResidues>
 VAL166  LYS551  ARG553  GLY616  TRP617  ASP618  TYR619  PRO620  LYS621  CYS622 
 ASP623  PHE694  ASN695  SER759  ASP760  ASP761  ALA762  ILE779  LEU786  VAL792 
 PHE793  MET794  SER795  GLU796  ALA797  LYS798  CYS799  TRP800  GLU811  SER814 

> <Gold.Protein.RotatedAtoms>
  151.0093  133.5981  159.2684 H   0  0  0  0  0  0  0  0  0  0  0  0  # atno 6907 bound_to 6896
  151.3138  135.0800  159.9291 H   0  0  0  0  0  0  0  0  0  0  0  0  # atno 6908 bound_to 6896
  152.5295  133.9752  159.7835 H   0  0  0  0  0  0  0  0  0  0  0  0  # atno 6909 bound_to 6896
  145.3390  140.9456  143.2618 H   0  0  0  0  0  0  0  0  0  0  0  0  # atno 7974 bound_to 7965
  155.0905  140.3219  155.4575 H   0  0  0  0  0  0  0  0  0  0  0  0  # atno 8008 bound_to 7997
  156.2744  140.2079  156.5978 H   0  0  0  0  0  0  0  0  0  0  0  0  # atno 8009 bound_to 7997
  154.6907  140.0516  157.0348 H   0  0  0  0  0  0  0  0  0  0  0  0  # atno 8010 bound_to 7997
  140.5213  143.2331  151.7425 H   0  0  0  0  0  0  0  0  0  0  0  0  # atno 10167 bound_to 10162
  156.8907  130.5686  149.5650 H   0  0  0  0  0  0  0  0  0  0  0  0  # atno 10718 bound_to 10713
  153.1061  135.6685  153.9584 H   0  0  0  0  0  0  0  0  0  0  0  0  # atno 10763 bound_to 10752
  153.9141  135.3022  155.3450 H   0  0  0  0  0  0  0  0  0  0  0  0  # atno 10764 bound_to 10752
  154.7482  135.5047  153.9317 H   0  0  0  0  0  0  0  0  0  0  0  0  # atno 10765 bound_to 10752
  141.1128  133.8672  157.1534 H   0  0  0  0  0  0  0  0  0  0  0  0  # atno 11005 bound_to 11000
  144.8805  139.4911  143.6725 LP  0  0  0  0  0  0  0  0  0  0  0  0  # atno 17320 bound_to 7965
  146.3015  139.7441  142.9088 LP  0  0  0  0  0  0  0  0  0  0  0  0  # atno 17321 bound_to 7965
  139.4924  144.4251  151.9935 LP  0  0  0  0  0  0  0  0  0  0  0  0  # atno 17342 bound_to 10162
  140.3348  144.3274  150.5979 LP  0  0  0  0  0  0  0  0  0  0  0  0  # atno 17343 bound_to 10162
  156.0631  130.5679  150.9233 LP  0  0  0  0  0  0  0  0  0  0  0  0  # atno 17370 bound_to 10713
  157.6086  131.0937  150.8836 LP  0  0  0  0  0  0  0  0  0  0  0  0  # atno 17371 bound_to 10713
  140.0032  135.0019  157.0236 LP  0  0  0  0  0  0  0  0  0  0  0  0  # atno 17394 bound_to 11000
  140.4728  134.1369  155.7205 LP  0  0  0  0  0  0  0  0  0  0  0  0  # atno 17395 bound_to 11000

$$$$
