AV-unprocessed.smi:3287|AV-procd|sdf|12600|dock10
  -GOLD-   2272018523D 1   1.00000     0.00000
 Structure written by MMmdl.
 43 44  0  0  0  0  0  0  0  0  2 V2000
  152.1057  144.2313  161.2614 C   0  0  0  0  0  0  0  0  0  0  0  0
  152.8524  143.9391  159.9442 C   0  0  2  0  0  0  0  0  0  0  0  0
  152.3468  144.8326  158.7930 C   0  0  0  0  0  0  0  0  0  0  0  0
  150.9547  144.4129  158.2900 C   0  0  0  0  0  0  0  0  0  0  0  0
  150.9311  142.9297  157.8672 C   0  0  2  0  0  0  0  0  0  0  0  0
  149.5785  142.5053  157.4447 N   0  3  0  0  0  0  0  0  0  0  0  0
  149.4647  141.0948  157.0148 C   0  0  0  0  0  0  0  0  0  0  0  0
  150.4278  140.7802  155.8571 C   0  0  2  0  0  0  0  0  0  0  0  0
  149.7708  141.0461  154.6326 O   0  0  0  0  0  0  0  0  0  0  0  0
  150.9227  139.3442  155.9321 C   0  0  0  0  0  0  0  0  0  0  0  0
  151.7193  138.9173  157.0152 C   0  0  0  0  0  0  0  0  0  0  0  0
  152.1487  137.5751  157.0484 C   0  0  0  0  0  0  0  0  0  0  0  0
  151.8339  136.6722  156.0954 N   0  0  0  0  0  0  0  0  0  0  0  0
  151.0693  137.0846  155.0621 C   0  0  0  0  0  0  0  0  0  0  0  0
  150.5885  138.4030  154.9340 C   0  0  0  0  0  0  0  0  0  0  0  0
  151.4229  142.0318  159.0177 C   0  0  0  0  0  0  0  0  0  0  0  0
  152.8221  142.4508  159.5122 C   0  0  2  0  0  0  0  0  0  0  0  0
  153.3582  141.4927  160.5887 C   0  0  0  0  0  0  0  0  0  0  0  0
  151.0558  143.9437  161.2139 H   0  0  0  0  0  0  0  0  0  0  0  0
  152.1427  145.2946  161.5001 H   0  0  0  0  0  0  0  0  0  0  0  0
  152.5560  143.7039  162.1020 H   0  0  0  0  0  0  0  0  0  0  0  0
  153.8954  144.2074  160.1187 H   0  0  0  0  0  0  0  0  0  0  0  0
  152.3313  145.8774  159.1053 H   0  0  0  0  0  0  0  0  0  0  0  0
  153.0528  144.7792  157.9631 H   0  0  0  0  0  0  0  0  0  0  0  0
  150.2116  144.5906  159.0683 H   0  0  0  0  0  0  0  0  0  0  0  0
  150.6774  145.0529  157.4526 H   0  0  0  0  0  0  0  0  0  0  0  0
  151.6098  142.7909  157.0241 H   0  0  0  0  0  0  0  0  0  0  0  0
  148.9607  142.6204  158.2359 H   0  0  0  0  0  0  0  0  0  0  0  0
  149.6929  140.4459  157.8604 H   0  0  0  0  0  0  0  0  0  0  0  0
  148.4364  140.8834  156.7173 H   0  0  0  0  0  0  0  0  0  0  0  0
  151.2902  141.4461  155.9151 H   0  0  0  0  0  0  0  0  0  0  0  0
  149.7845  141.9794  154.4815 H   0  0  0  0  0  0  0  0  0  0  0  0
  151.9981  139.5976  157.8064 H   0  0  0  0  0  0  0  0  0  0  0  0
  152.7600  137.2173  157.8635 H   0  0  0  0  0  0  0  0  0  0  0  0
  150.8322  136.3420  154.3148 H   0  0  0  0  0  0  0  0  0  0  0  0
  149.9764  138.6795  154.0880 H   0  0  0  0  0  0  0  0  0  0  0  0
  150.7116  142.0596  159.8440 H   0  0  0  0  0  0  0  0  0  0  0  0
  151.4531  140.9949  158.6799 H   0  0  0  0  0  0  0  0  0  0  0  0
  153.4992  142.3581  158.6612 H   0  0  0  0  0  0  0  0  0  0  0  0
  152.6977  141.4453  161.4545 H   0  0  0  0  0  0  0  0  0  0  0  0
  154.3448  141.8022  160.9348 H   0  0  0  0  0  0  0  0  0  0  0  0
  153.4524  140.4800  160.1958 H   0  0  0  0  0  0  0  0  0  0  0  0
  149.2602  143.1099  156.7011 H   0  0  0  0  0  0  0  0  0  0  0  0
  1  2  1  0  0  0  0
  1 19  1  0  0  0  0
  1 20  1  0  0  0  0
  1 21  1  0  0  0  0
  2 17  1  0  0  0  0
  2  3  1  0  0  0  0
  2 22  1  0  0  0  0
  3  4  1  0  0  0  0
  3 23  1  0  0  0  0
  3 24  1  0  0  0  0
  4  5  1  0  0  0  0
  4 25  1  0  0  0  0
  4 26  1  0  0  0  0
  5  6  1  0  0  0  0
  5 16  1  0  0  0  0
  5 27  1  0  0  0  0
  6  7  1  0  0  0  0
  6 28  1  0  0  0  0
  6 43  1  0  0  0  0
  7  8  1  0  0  0  0
  7 29  1  0  0  0  0
  7 30  1  0  0  0  0
  8  9  1  0  0  0  0
  8 10  1  0  0  0  0
  8 31  1  0  0  0  0
  9 32  1  0  0  0  0
 10 15  1  0  0  0  0
 10 11  2  0  0  0  0
 11 12  1  0  0  0  0
 11 33  1  0  0  0  0
 12 13  2  0  0  0  0
 12 34  1  0  0  0  0
 13 14  1  0  0  0  0
 14 15  2  0  0  0  0
 14 35  1  0  0  0  0
 15 36  1  0  0  0  0
 16 17  1  0  0  0  0
 16 37  1  0  0  0  0
 16 38  1  0  0  0  0
 17 18  1  0  0  0  0
 17 39  1  0  0  0  0
 18 40  1  0  0  0  0
 18 41  1  0  0  0  0
 18 42  1  0  0  0  0
M  CHG  1   6   1
M  END
> <s_m_source_file>
AV-unprocessed.smi

> <i_m_source_file_index>
3287

> <i_lp_mmshare_version>
43012

> <i_f3d_flags>
0

> <s_epik_input>
W0NIM11bQ0BASF0xW0NIMl1bQ0gyXVtDQEhdKFtDSDJdW0NASF0xW0NIM10pW05IXVtDSDJdW0NASF0oW09IXSljMltjSF1bY0hdbltjSF1bY0hdMg==

> <s_epik_cmdline>
J2VwaWtfcHl0aG9uJywgJy1waCcsICc3LjAnLCAnLXRuJywgJzgnLCAnLW1hJywgJzIwMCcsICctbWV0YWxfYmluZGluZycsICctaW1hZScsICc8aW5maWxlLm1hZT4nLCAnLW9tYWUnLCAnPG91dGZpbGUubWFlPic=

> <r_lp_tautomer_probability>
1

> <r_epik_Ionization_Penalty>
0.00537262

> <r_epik_Ionization_Penalty_Charging>
0.00321624

> <r_epik_Ionization_Penalty_Neutral>
0.00215638

> <r_epik_State_Penalty>
-0

> <r_epik_Charging_Adjusted_Penalty>
0.00321624

> <i_epik_Tot_Q>
1

> <i_epik_Tot_abs_Q>
1

> <r_epik_Metal_State_Penalty>
-0

> <b_epik_Metal_Only>
0

> <s_lp_Force_Field>
OPLS_2005

> <r_lp_Energy>
17.0862

> <b_lp_Chiralities_Consistent>
1

> <s_lp_Variant>
AV-unprocessed.smi:3287-11

> <Gold.Version>
5.8.1

> <Gold.Id.Protein>
6NUR|6NUR_protein|mol2

> <Gold.PLP.Fitness>
56.6658

> <Gold.PLP.PLP>
-45.4351

> <Gold.PLP.part.hbond>
-4.0000

> <Gold.PLP.part.metal>
0.0000

> <Gold.PLP.part.buried>
-4.1491

> <Gold.PLP.part.nonpolar>
-38.2202

> <Gold.PLP.part.repulsive>
0.0919

> <Gold.PLP.ligand.clash>
0.0000

> <Gold.PLP.ligand.torsion>
0.4698

> <Gold.PLP.Chemscore.Hbond>
2.9789

> <Gold.PLP.Chemscore.CHOScore>
1.0711

> <Gold.PLP.Chemscore.Metal>
0.0000

> <Gold.Chemscore.Hbonds>
donor molecule, donor type, donor heavy atom, donor atom, acceptor molecule, acceptor atom, score
      L1  H     6    43       P1  8028  2.00
      P1  H  7989  7998       L1     9  0.10
      P1  H 10752 10765       L1    13  0.32
      L1  C    14    35       P1  7949  0.15

> <Gold.PLP.Chemscore.Internal.Correction>
0.0203

> <Gold.Rescore>
     Score         DG    S(hbond)    S(metal)    S(lipo)     H(rot)  DE(clash)    DE(int)     intcor
     19.66     -21.81       1.73        0.00     131.73       1.90       1.65       0.49       ----

> <Gold.Chemscore.Fitness>
19.6576

> <Gold.Chemscore.DG>
-21.8051

> <Gold.Chemscore.ZeroCoef>
-5.4800

> <Gold.Chemscore.Hbond>
1.7324

> <Gold.Chemscore.Metal>
0.0000

> <Gold.Chemscore.Lipo>
131.7251

> <Gold.Chemscore.Internal_Hbond>
0.0000

> <Gold.Chemscore.DEClash>
1.6533

> <Gold.Chemscore.DEInternal>
0.4941

> <Gold.Chemscore.Rot>
1.9035

> <Gold.Chemscore.Internal.Correction>
   9.000000E+99

> <Gold.Chemscore.Hbonds>
donor molecule, donor type, donor heavy atom, donor atom, acceptor molecule, acceptor atom, score
      L1  H     6    43       P1  8028  0.98
      P1  H 10752 10765       L1    13  0.01

> <Gold.Chemscore.Hbond.Weighted>
-5.7861

> <Gold.Chemscore.Metal.Weighted>
-0.0000

> <Gold.Chemscore.Lipo.Weighted>
-15.4118

> <Gold.Chemscore.Internal_Hbond.Weighted>
0.0000

> <Gold.Chemscore.DEClash.Weighted>
1.6533

> <Gold.Chemscore.DEInternal.Weighted>
0.4941

> <Gold.Chemscore.Rot.Weighted>
4.8729

> <Gold.Chemscore.Internal.Correction.Weighted>
   9.000000E+99

> <Gold.Protein.RotatedTorsions>
[ 6907 6896 6895 6894 ] final  -35.37 input  -60.11 | X-H torsion
[ 7974 7965 7964 7962 ] final -137.05 input  175.53 | X-H torsion
[ 8008 7997 7996 7995 ] final   12.48 input   59.86 | X-H torsion
[ 10167 10162 10161 10158 ] final   28.15 input  -65.29 | X-H torsion
[ 10718 10713 10712 10709 ] final -101.88 input   66.30 | X-H torsion
[ 10763 10752 10751 10750 ] final -175.15 input  -60.55 | X-H torsion
[ 11005 11000 10999 10996 ] final  124.98 input  -57.11 | X-H torsion

> <Gold.Protein.ActiveResidues>
 VAL166  LYS551  ARG553  GLY616  TRP617  ASP618  TYR619  PRO620  LYS621  CYS622 
 ASP623  PHE694  ASN695  SER759  ASP760  ASP761  ALA762  ILE779  LEU786  VAL792 
 PHE793  MET794  SER795  GLU796  ALA797  LYS798  CYS799  TRP800  GLU811  SER814 

> <Gold.Protein.RotatedAtoms>
  151.0406  134.9604  159.8159 H   0  0  0  0  0  0  0  0  0  0  0  0  # atno 6907 bound_to 6896
  152.5363  134.2663  159.8964 H   0  0  0  0  0  0  0  0  0  0  0  0  # atno 6908 bound_to 6896
  151.2675  133.4229  159.2653 H   0  0  0  0  0  0  0  0  0  0  0  0  # atno 6909 bound_to 6896
  144.8874  140.6594  143.5167 H   0  0  0  0  0  0  0  0  0  0  0  0  # atno 7974 bound_to 7965
  154.8212  140.2884  155.5785 H   0  0  0  0  0  0  0  0  0  0  0  0  # atno 8008 bound_to 7997
  156.2998  140.2550  156.3050 H   0  0  0  0  0  0  0  0  0  0  0  0  # atno 8009 bound_to 7997
  154.9336  140.0383  157.2050 H   0  0  0  0  0  0  0  0  0  0  0  0  # atno 8010 bound_to 7997
  140.4877  144.0516  150.6286 H   0  0  0  0  0  0  0  0  0  0  0  0  # atno 10167 bound_to 10162
  156.0209  130.5394  150.7027 H   0  0  0  0  0  0  0  0  0  0  0  0  # atno 10718 bound_to 10713
  154.5878  135.2842  155.0666 H   0  0  0  0  0  0  0  0  0  0  0  0  # atno 10763 bound_to 10752
  154.1978  135.6429  153.5082 H   0  0  0  0  0  0  0  0  0  0  0  0  # atno 10764 bound_to 10752
  153.0110  135.5462  154.6554 H   0  0  0  0  0  0  0  0  0  0  0  0  # atno 10765 bound_to 10752
  139.9385  134.9637  156.8491 H   0  0  0  0  0  0  0  0  0  0  0  0  # atno 11005 bound_to 11000
  145.3844  139.1630  143.4263 LP  0  0  0  0  0  0  0  0  0  0  0  0  # atno 17320 bound_to 7965
  146.3033  140.3927  142.8696 LP  0  0  0  0  0  0  0  0  0  0  0  0  # atno 17321 bound_to 7965
  140.3776  143.2820  152.0207 LP  0  0  0  0  0  0  0  0  0  0  0  0  # atno 17342 bound_to 10162
  139.4845  144.6180  151.7309 LP  0  0  0  0  0  0  0  0  0  0  0  0  # atno 17343 bound_to 10162
  157.4683  131.0890  151.0670 LP  0  0  0  0  0  0  0  0  0  0  0  0  # atno 17370 bound_to 10713
  157.1138  130.6032  149.5488 LP  0  0  0  0  0  0  0  0  0  0  0  0  # atno 17371 bound_to 10713
  140.6014  134.0168  155.7539 LP  0  0  0  0  0  0  0  0  0  0  0  0  # atno 17394 bound_to 11000
  141.1009  133.9770  157.3081 LP  0  0  0  0  0  0  0  0  0  0  0  0  # atno 17395 bound_to 11000

$$$$
