AV-unprocessed.smi:1870|AV-procd|sdf|7593|dock6
  -GOLD-   22720 9303D 1   1.00000     0.00000
 Structure written by MMmdl.
 48 50  0  0  0  0  0  0  0  0  2 V2000
  147.0277  137.3623  163.0228 C   0  0  0  0  0  0  0  0  0  0  0  0
  147.4940  136.5478  161.8463 C   0  0  0  0  0  0  0  0  0  0  0  0
  148.4045  137.0790  161.0981 N   0  0  0  0  0  0  0  0  0  0  0  0
  148.9079  136.4157  159.9958 N   0  0  0  0  0  0  0  0  0  0  0  0
  149.9232  137.1731  159.2534 C   0  0  0  0  0  0  0  0  0  0  0  0
  149.2953  138.0234  158.1268 C   0  0  2  0  0  0  0  0  0  0  0  0
  149.7047  137.4941  156.8804 O   0  0  0  0  0  0  0  0  0  0  0  0
  149.7858  139.4853  158.1794 C   0  0  0  0  0  0  0  0  0  0  0  0
  151.1619  139.6620  157.6374 N   0  3  1  0  0  0  0  0  0  0  0  0
  151.2526  140.3963  156.3489 C   0  0  0  0  0  0  0  0  0  0  0  0
  150.8308  141.8680  156.5005 C   0  0  0  0  0  0  0  0  0  0  0  0
  151.4488  142.5303  157.7213 C   0  0  0  0  0  0  0  0  0  0  0  0
  151.4086  143.9342  157.8476 C   0  0  0  0  0  0  0  0  0  0  0  0
  151.9395  144.5581  158.9925 C   0  0  0  0  0  0  0  0  0  0  0  0
  152.5083  143.7799  160.0183 C   0  0  0  0  0  0  0  0  0  0  0  0
  152.5498  142.3777  159.8981 C   0  0  0  0  0  0  0  0  0  0  0  0
  152.0230  141.7458  158.7524 C   0  0  0  0  0  0  0  0  0  0  0  0
  152.1117  140.2283  158.6288 C   0  0  0  0  0  0  0  0  0  0  0  0
  148.5106  135.1771  159.5871 C   0  0  0  0  0  0  0  0  0  0  0  0
  148.9775  134.6281  158.5884 O   0  0  0  0  0  0  0  0  0  0  0  0
  147.4796  134.5805  160.4390 C   0  0  0  0  0  0  0  0  0  0  0  0
  147.0401  133.2791  160.0507 C   0  0  0  0  0  0  0  0  0  0  0  0
  146.7019  132.2189  159.7324 N   0  0  0  0  0  0  0  0  0  0  0  0
  146.9755  135.2225  161.5224 C   0  0  0  0  0  0  0  0  0  0  0  0
  145.9022  134.6452  162.4353 C   0  0  0  0  0  0  0  0  0  0  0  0
  146.0088  137.7163  162.8664 H   0  0  0  0  0  0  0  0  0  0  0  0
  147.6603  138.2355  163.1884 H   0  0  0  0  0  0  0  0  0  0  0  0
  147.0438  136.7708  163.9381 H   0  0  0  0  0  0  0  0  0  0  0  0
  150.4278  137.8326  159.9624 H   0  0  0  0  0  0  0  0  0  0  0  0
  150.7154  136.5271  158.8693 H   0  0  0  0  0  0  0  0  0  0  0  0
  148.2093  137.9828  158.2035 H   0  0  0  0  0  0  0  0  0  0  0  0
  150.5650  137.1137  156.9816 H   0  0  0  0  0  0  0  0  0  0  0  0
  149.0913  140.1395  157.6524 H   0  0  0  0  0  0  0  0  0  0  0  0
  149.7678  139.8137  159.2200 H   0  0  0  0  0  0  0  0  0  0  0  0
  152.2902  140.3544  156.0146 H   0  0  0  0  0  0  0  0  0  0  0  0
  150.6732  139.9076  155.5667 H   0  0  0  0  0  0  0  0  0  0  0  0
  151.1131  142.4239  155.6058 H   0  0  0  0  0  0  0  0  0  0  0  0
  149.7461  141.9458  156.5792 H   0  0  0  0  0  0  0  0  0  0  0  0
  150.9645  144.5370  157.0685 H   0  0  0  0  0  0  0  0  0  0  0  0
  151.9072  145.6337  159.0856 H   0  0  0  0  0  0  0  0  0  0  0  0
  152.9154  144.2590  160.8967 H   0  0  0  0  0  0  0  0  0  0  0  0
  152.9951  141.7884  160.6865 H   0  0  0  0  0  0  0  0  0  0  0  0
  151.9742  139.7600  159.6044 H   0  0  0  0  0  0  0  0  0  0  0  0
  153.1258  139.9807  158.3128 H   0  0  0  0  0  0  0  0  0  0  0  0
  145.4625  133.7353  162.0280 H   0  0  0  0  0  0  0  0  0  0  0  0
  145.0899  135.3578  162.5805 H   0  0  0  0  0  0  0  0  0  0  0  0
  146.3254  134.4018  163.4102 H   0  0  0  0  0  0  0  0  0  0  0  0
  151.4890  138.7236  157.4550 H   0  0  0  0  0  0  0  0  0  0  0  0
  1  2  1  0  0  0  0
  1 26  1  0  0  0  0
  1 27  1  0  0  0  0
  1 28  1  0  0  0  0
  2 24  1  0  0  0  0
  2  3  2  0  0  0  0
  3  4  1  0  0  0  0
  4  5  1  0  0  0  0
  4 19  1  0  0  0  0
  5  6  1  0  0  0  0
  5 29  1  0  0  0  0
  5 30  1  0  0  0  0
  6  7  1  0  0  0  0
  6  8  1  0  0  0  0
  6 31  1  0  0  0  0
  7 32  1  0  0  0  0
  8  9  1  0  0  0  0
  8 33  1  0  0  0  0
  8 34  1  0  0  0  0
  9 18  1  0  0  0  0
  9 10  1  0  0  0  0
  9 48  1  0  0  0  0
 10 11  1  0  0  0  0
 10 35  1  0  0  0  0
 10 36  1  0  0  0  0
 11 12  1  0  0  0  0
 11 37  1  0  0  0  0
 11 38  1  0  0  0  0
 12 17  2  0  0  0  0
 12 13  1  0  0  0  0
 13 14  2  0  0  0  0
 13 39  1  0  0  0  0
 14 15  1  0  0  0  0
 14 40  1  0  0  0  0
 15 16  2  0  0  0  0
 15 41  1  0  0  0  0
 16 17  1  0  0  0  0
 16 42  1  0  0  0  0
 17 18  1  0  0  0  0
 18 43  1  0  0  0  0
 18 44  1  0  0  0  0
 19 20  2  0  0  0  0
 19 21  1  0  0  0  0
 21 22  1  0  0  0  0
 21 24  2  0  0  0  0
 22 23  3  0  0  0  0
 24 25  1  0  0  0  0
 25 45  1  0  0  0  0
 25 46  1  0  0  0  0
 25 47  1  0  0  0  0
M  CHG  1   9   1
M  END
> <s_m_source_file>
AV-unprocessed.smi

> <i_m_source_file_index>
1870

> <i_lp_mmshare_version>
43012

> <i_f3d_flags>
0

> <s_epik_input>
TiNDYyhjMVtDSDNdKWMoPU8pbihuYzFbQ0gzXSlbQ0gyXVtDQEhdKFtPSF0pW0NIMl1OKFtDSDJdW0NIMl0yKVtDSDJdYyhjMjMpW2NIXVtjSF1bY0hdW2NIXTM=

> <s_epik_cmdline>
J2VwaWtfcHl0aG9uJywgJy1waCcsICc3LjAnLCAnLXRuJywgJzgnLCAnLW1hJywgJzIwMCcsICctbWV0YWxfYmluZGluZycsICctaW1hZScsICc8aW5maWxlLm1hZT4nLCAnLW9tYWUnLCAnPG91dGZpbGUubWFlPic=

> <r_epik_Ionization_Penalty>
0.0122865

> <r_epik_Ionization_Penalty_Charging>
0.0122864

> <r_epik_Ionization_Penalty_Neutral>
1.48087e-07

> <r_epik_State_Penalty>
0.00950248

> <r_epik_Charging_Adjusted_Penalty>
0.0217889

> <i_epik_Tot_Q>
1

> <i_epik_Tot_abs_Q>
1

> <r_epik_Metal_State_Penalty>
0.00950248

> <b_epik_Metal_Only>
0

> <s_lp_Force_Field>
OPLS_2005

> <r_lp_Energy>
39.8007

> <b_lp_Chiralities_Consistent>
1

> <s_lp_Variant>
AV-unprocessed.smi:1870-1

> <Gold.Version>
5.8.1

> <Gold.Id.Protein>
6NUR|6NUR_protein|mol2

> <Gold.PLP.Fitness>
52.0447

> <Gold.PLP.PLP>
-49.4749

> <Gold.PLP.part.hbond>
-2.8348

> <Gold.PLP.part.metal>
0.0000

> <Gold.PLP.part.buried>
-3.2650

> <Gold.PLP.part.nonpolar>
-44.5006

> <Gold.PLP.part.repulsive>
0.0470

> <Gold.PLP.ligand.clash>
0.0000

> <Gold.PLP.ligand.torsion>
1.9589

> <Gold.PLP.Chemscore.Hbond>
2.1460

> <Gold.PLP.Chemscore.CHOScore>
0.0000

> <Gold.PLP.Chemscore.Metal>
0.0000

> <Gold.Chemscore.Hbonds>
donor molecule, donor type, donor heavy atom, donor atom, acceptor molecule, acceptor atom, score
      P1  H  6896  6909       L1    20  0.95
      P1  H  6931  6943       L1     3  1.00
      P1  H  6934  6947       L1     3  0.11

> <Gold.PLP.Chemscore.Internal.Correction>
0.0494

> <Gold.Rescore>
     Score         DG    S(hbond)    S(metal)    S(lipo)     H(rot)  DE(clash)    DE(int)     intcor
     19.04     -21.03       1.67        0.00     132.58       2.16       0.04       1.95       ----

> <Gold.Chemscore.Fitness>
19.0415

> <Gold.Chemscore.DG>
-21.0304

> <Gold.Chemscore.ZeroCoef>
-5.4800

> <Gold.Chemscore.Hbond>
1.6691

> <Gold.Chemscore.Metal>
0.0000

> <Gold.Chemscore.Lipo>
132.5837

> <Gold.Chemscore.Internal_Hbond>
0.0000

> <Gold.Chemscore.DEClash>
0.0392

> <Gold.Chemscore.DEInternal>
1.9498

> <Gold.Chemscore.Rot>
2.1628

> <Gold.Chemscore.Internal.Correction>
   9.000000E+99

> <Gold.Chemscore.Hbonds>
donor molecule, donor type, donor heavy atom, donor atom, acceptor molecule, acceptor atom, score
      P1  H  6896  6909       L1    20  0.20
      P1  H  6931  6943       L1     3  0.61
      P1  H  6934  6947       L1     3  0.01

> <Gold.Chemscore.Hbond.Weighted>
-5.5748

> <Gold.Chemscore.Metal.Weighted>
-0.0000

> <Gold.Chemscore.Lipo.Weighted>
-15.5123

> <Gold.Chemscore.Internal_Hbond.Weighted>
0.0000

> <Gold.Chemscore.DEClash.Weighted>
0.0392

> <Gold.Chemscore.DEInternal.Weighted>
1.9498

> <Gold.Chemscore.Rot.Weighted>
5.5367

> <Gold.Chemscore.Internal.Correction.Weighted>
   9.000000E+99

> <Gold.Protein.RotatedTorsions>
[ 6907 6896 6895 6894 ] final   12.34 input  -60.11 | X-H torsion
[ 7974 7965 7964 7962 ] final    5.40 input  175.53 | X-H torsion
[ 8008 7997 7996 7995 ] final -130.77 input   59.86 | X-H torsion
[ 10167 10162 10161 10158 ] final  153.15 input  -65.29 | X-H torsion
[ 10718 10713 10712 10709 ] final  -16.36 input   66.30 | X-H torsion
[ 10763 10752 10751 10750 ] final   -6.40 input  -60.55 | X-H torsion
[ 11005 11000 10999 10996 ] final -139.24 input  -57.11 | X-H torsion

> <Gold.Protein.ActiveResidues>
 VAL166  LYS551  ARG553  GLY616  TRP617  ASP618  TYR619  PRO620  LYS621  CYS622 
 ASP623  PHE694  ASN695  SER759  ASP760  ASP761  ALA762  ILE779  LEU786  VAL792 
 PHE793  MET794  SER795  GLU796  ALA797  LYS798  CYS799  TRP800  GLU811  SER814 

> <Gold.Protein.RotatedAtoms>
  151.7687  135.0792  160.0356 H   0  0  0  0  0  0  0  0  0  0  0  0  # atno 6907 bound_to 6896
  152.3303  133.5947  159.5814 H   0  0  0  0  0  0  0  0  0  0  0  0  # atno 6908 bound_to 6896
  150.7419  133.9793  159.3613 H   0  0  0  0  0  0  0  0  0  0  0  0  # atno 6909 bound_to 6896
  146.2440  140.0390  142.8383 H   0  0  0  0  0  0  0  0  0  0  0  0  # atno 7974 bound_to 7965
  155.3013  140.0453  157.3029 H   0  0  0  0  0  0  0  0  0  0  0  0  # atno 8008 bound_to 7997
  154.5485  140.2310  155.8490 H   0  0  0  0  0  0  0  0  0  0  0  0  # atno 8009 bound_to 7997
  156.1946  140.3042  155.9407 H   0  0  0  0  0  0  0  0  0  0  0  0  # atno 8010 bound_to 7997
  139.4828  144.5298  151.7742 H   0  0  0  0  0  0  0  0  0  0  0  0  # atno 10167 bound_to 10162
  156.5887  130.4793  149.6289 H   0  0  0  0  0  0  0  0  0  0  0  0  # atno 10718 bound_to 10713
  153.4119  135.7008  153.6353 H   0  0  0  0  0  0  0  0  0  0  0  0  # atno 10763 bound_to 10752
  153.4844  135.3686  155.2459 H   0  0  0  0  0  0  0  0  0  0  0  0  # atno 10764 bound_to 10752
  154.8717  135.4074  154.3472 H   0  0  0  0  0  0  0  0  0  0  0  0  # atno 10765 bound_to 10752
  140.8539  134.2252  157.4745 H   0  0  0  0  0  0  0  0  0  0  0  0  # atno 11005 bound_to 11000
  145.1087  140.9391  143.4669 LP  0  0  0  0  0  0  0  0  0  0  0  0  # atno 17320 bound_to 7965
  145.0598  139.3114  143.5886 LP  0  0  0  0  0  0  0  0  0  0  0  0  # atno 17321 bound_to 7965
  140.4822  144.1432  150.5934 LP  0  0  0  0  0  0  0  0  0  0  0  0  # atno 17342 bound_to 10162
  140.4264  143.2588  151.9650 LP  0  0  0  0  0  0  0  0  0  0  0  0  # atno 17343 bound_to 10162
  156.2569  130.6939  151.1695 LP  0  0  0  0  0  0  0  0  0  0  0  0  # atno 17370 bound_to 10713
  157.7309  131.0612  150.5704 LP  0  0  0  0  0  0  0  0  0  0  0  0  # atno 17371 bound_to 10713
  139.8705  134.9696  156.4674 LP  0  0  0  0  0  0  0  0  0  0  0  0  # atno 17394 bound_to 11000
  140.8759  133.7953  155.9414 LP  0  0  0  0  0  0  0  0  0  0  0  0  # atno 17395 bound_to 11000

$$$$
