AV-unprocessed.smi:532|AV-procd|sdf|2851|dock8
  -GOLD-   2262023343D 1   1.00000     0.00000
 Structure written by MMmdl.
 48 50  0  0  0  0  0  0  0  0  2 V2000
  149.1527  141.5204  154.7289 C   0  0  0  0  0  0  0  0  0  0  0  0
  149.2820  141.6594  156.1318 O   0  0  0  0  0  0  0  0  0  0  0  0
  150.6178  141.4984  156.5775 C   0  0  0  0  0  0  0  0  0  0  0  0
  150.6343  141.1570  158.0755 C   0  0  0  0  0  0  0  0  0  0  0  0
  151.7165  140.2426  158.4330 N   0  0  0  0  0  0  0  0  0  0  0  0
  152.7623  140.4730  159.2676 C   0  0  0  0  0  0  0  0  0  0  0  0
  152.9157  141.6968  159.9105 N   0  0  0  0  0  0  0  0  0  0  0  0
  152.6854  142.9908  159.2761 C   0  0  0  0  0  0  0  0  0  0  0  0
  151.8138  143.9084  160.1547 C   0  0  2  0  0  0  0  0  0  0  0  0
  151.5396  145.2503  159.4635 C   0  0  0  0  0  0  0  0  0  0  0  0
  152.4798  144.0988  161.5284 C   0  0  0  0  0  0  0  0  0  0  0  0
  152.7998  142.7350  162.1661 C   0  0  2  0  0  0  0  0  0  0  0  0
  153.5305  142.8956  163.5058 C   0  0  0  0  0  0  0  0  0  0  0  0
  153.6109  141.8683  161.1824 C   0  0  0  0  0  0  0  0  0  0  0  0
  153.5979  139.4455  159.4229 N   0  0  0  0  0  0  0  0  0  0  0  0
  153.0346  138.4709  158.6110 C   0  0  0  0  0  0  0  0  0  0  0  0
  151.9002  138.9232  158.0110 C   0  0  0  0  0  0  0  0  0  0  0  0
  151.0675  138.1081  157.1007 C   0  0  0  0  0  0  0  0  0  0  0  0
  150.0473  138.5684  156.5917 O   0  0  0  0  0  0  0  0  0  0  0  0
  151.5741  136.8460  156.9291 N   0  5  0  0  0  0  0  0  0  0  0  0
  152.7176  136.3454  157.5144 C   0  0  0  0  0  0  0  0  0  0  0  0
  153.1013  135.1930  157.3100 O   0  0  0  0  0  0  0  0  0  0  0  0
  153.4587  137.1391  158.3505 N   0  0  0  0  0  0  0  0  0  0  0  0
  154.6793  136.6341  158.9854 C   0  0  0  0  0  0  0  0  0  0  0  0
  148.1101  141.6613  154.4440 H   0  0  0  0  0  0  0  0  0  0  0  0
  149.4602  140.5263  154.4022 H   0  0  0  0  0  0  0  0  0  0  0  0
  149.7508  142.2644  154.2013 H   0  0  0  0  0  0  0  0  0  0  0  0
  151.1034  140.6985  156.0170 H   0  0  0  0  0  0  0  0  0  0  0  0
  151.1799  142.4135  156.3881 H   0  0  0  0  0  0  0  0  0  0  0  0
  150.7219  142.0721  158.6595 H   0  0  0  0  0  0  0  0  0  0  0  0
  149.6856  140.7123  158.3750 H   0  0  0  0  0  0  0  0  0  0  0  0
  153.6480  143.4623  159.0734 H   0  0  0  0  0  0  0  0  0  0  0  0
  152.2104  142.8356  158.3071 H   0  0  0  0  0  0  0  0  0  0  0  0
  150.8522  143.4180  160.3116 H   0  0  0  0  0  0  0  0  0  0  0  0
  152.4652  145.7925  159.2676 H   0  0  0  0  0  0  0  0  0  0  0  0
  150.9035  145.8866  160.0793 H   0  0  0  0  0  0  0  0  0  0  0  0
  151.0324  145.1013  158.5101 H   0  0  0  0  0  0  0  0  0  0  0  0
  153.3988  144.6757  161.4140 H   0  0  0  0  0  0  0  0  0  0  0  0
  151.8278  144.6765  162.1847 H   0  0  0  0  0  0  0  0  0  0  0  0
  151.8562  142.2253  162.3666 H   0  0  0  0  0  0  0  0  0  0  0  0
  154.4905  143.3960  163.3762 H   0  0  0  0  0  0  0  0  0  0  0  0
  153.7200  141.9260  163.9672 H   0  0  0  0  0  0  0  0  0  0  0  0
  152.9387  143.4845  164.2070 H   0  0  0  0  0  0  0  0  0  0  0  0
  153.7955  140.8864  161.6200 H   0  0  0  0  0  0  0  0  0  0  0  0
  154.5884  142.3153  160.9963 H   0  0  0  0  0  0  0  0  0  0  0  0
  155.3885  136.2860  158.2329 H   0  0  0  0  0  0  0  0  0  0  0  0
  154.4456  135.7986  159.6467 H   0  0  0  0  0  0  0  0  0  0  0  0
  155.1871  137.3915  159.5820 H   0  0  0  0  0  0  0  0  0  0  0  0
  1  2  1  0  0  0  0
  1 25  1  0  0  0  0
  1 26  1  0  0  0  0
  1 27  1  0  0  0  0
  2  3  1  0  0  0  0
  3  4  1  0  0  0  0
  3 28  1  0  0  0  0
  3 29  1  0  0  0  0
  4  5  1  0  0  0  0
  4 30  1  0  0  0  0
  4 31  1  0  0  0  0
  5 17  1  0  0  0  0
  5  6  1  0  0  0  0
  6  7  1  0  0  0  0
  6 15  2  0  0  0  0
  7 14  1  0  0  0  0
  7  8  1  0  0  0  0
  8  9  1  0  0  0  0
  8 32  1  0  0  0  0
  8 33  1  0  0  0  0
  9 10  1  0  0  0  0
  9 11  1  0  0  0  0
  9 34  1  0  0  0  0
 10 35  1  0  0  0  0
 10 36  1  0  0  0  0
 10 37  1  0  0  0  0
 11 12  1  0  0  0  0
 11 38  1  0  0  0  0
 11 39  1  0  0  0  0
 12 13  1  0  0  0  0
 12 14  1  0  0  0  0
 12 40  1  0  0  0  0
 13 41  1  0  0  0  0
 13 42  1  0  0  0  0
 13 43  1  0  0  0  0
 14 44  1  0  0  0  0
 14 45  1  0  0  0  0
 15 16  1  0  0  0  0
 16 23  1  0  0  0  0
 16 17  2  0  0  0  0
 17 18  1  0  0  0  0
 18 19  2  0  0  0  0
 18 20  1  0  0  0  0
 20 21  1  0  0  0  0
 21 22  2  0  0  0  0
 21 23  1  0  0  0  0
 23 24  1  0  0  0  0
 24 46  1  0  0  0  0
 24 47  1  0  0  0  0
 24 48  1  0  0  0  0
M  CHG  1  20  -1
M  END
> <s_m_source_file>
AV-unprocessed.smi

> <i_m_source_file_index>
532

> <i_lp_mmshare_version>
43012

> <i_f3d_flags>
0

> <s_epik_input>
W0NIM11uMWMoPU8pW25IXWMoPU8pYyhjMTIpbihbQ0gyXVtDSDJdT1tDSDNdKWMobjIpTjNbQ0gyXVtDQEBIXShbQ0gzXSlbQ0gyXVtDQEBIXShbQ0gzXSlbQ0gyXTM=

> <s_epik_cmdline>
J2VwaWtfcHl0aG9uJywgJy1waCcsICc3LjAnLCAnLXRuJywgJzgnLCAnLW1hJywgJzIwMCcsICctbWV0YWxfYmluZGluZycsICctaW1hZScsICc8aW5maWxlLm1hZT4nLCAnLW9tYWUnLCAnPG91dGZpbGUubWFlPic=

> <r_lp_tautomer_probability>
1

> <r_epik_Ionization_Penalty>
5.12128

> <r_epik_Ionization_Penalty_Charging>
0.0789629

> <r_epik_Ionization_Penalty_Neutral>
5.04232

> <r_epik_State_Penalty>
5.03111

> <r_epik_Charging_Adjusted_Penalty>
5.11007

> <i_epik_Tot_Q>
-1

> <i_epik_Tot_abs_Q>
1

> <r_epik_Metal_State_Penalty>
1.14201

> <b_epik_Metal_Only>
1

> <s_lp_Force_Field>
OPLS_2005

> <r_lp_Energy>
42.9177

> <b_lp_Chiralities_Consistent>
1

> <s_lp_Variant>
AV-unprocessed.smi:532-4

> <Gold.Version>
5.8.1

> <Gold.Id.Protein>
6NUR|6NUR_protein|mol2

> <Gold.PLP.Fitness>
51.3409

> <Gold.PLP.PLP>
-49.0059

> <Gold.PLP.part.hbond>
-1.2721

> <Gold.PLP.part.metal>
0.0000

> <Gold.PLP.part.buried>
-7.3716

> <Gold.PLP.part.nonpolar>
-40.1859

> <Gold.PLP.part.repulsive>
0.1055

> <Gold.PLP.ligand.clash>
0.0000

> <Gold.PLP.ligand.torsion>
0.8144

> <Gold.PLP.Chemscore.Hbond>
1.0000

> <Gold.PLP.Chemscore.CHOScore>
0.0000

> <Gold.PLP.Chemscore.Metal>
0.0000

> <Gold.Chemscore.Hbonds>
donor molecule, donor type, donor heavy atom, donor atom, acceptor molecule, acceptor atom, score
      P1  H 10752 10763       L1    22  1.00

> <Gold.PLP.Chemscore.Internal.Correction>
0.9639

> <Gold.Rescore>
     Score         DG    S(hbond)    S(metal)    S(lipo)     H(rot)  DE(clash)    DE(int)     intcor
     14.52     -16.80       0.74        0.00     106.52       1.41       0.04       2.24       ----

> <Gold.Chemscore.Fitness>
14.5191

> <Gold.Chemscore.DG>
-16.7975

> <Gold.Chemscore.ZeroCoef>
-5.4800

> <Gold.Chemscore.Hbond>
0.7415

> <Gold.Chemscore.Metal>
0.0000

> <Gold.Chemscore.Lipo>
106.5159

> <Gold.Chemscore.Internal_Hbond>
0.0000

> <Gold.Chemscore.DEClash>
0.0368

> <Gold.Chemscore.DEInternal>
2.2416

> <Gold.Chemscore.Rot>
1.4147

> <Gold.Chemscore.Internal.Correction>
   9.000000E+99

> <Gold.Chemscore.Hbonds>
donor molecule, donor type, donor heavy atom, donor atom, acceptor molecule, acceptor atom, score
      P1  H 10752 10763       L1    22  0.32

> <Gold.Chemscore.Hbond.Weighted>
-2.4767

> <Gold.Chemscore.Metal.Weighted>
-0.0000

> <Gold.Chemscore.Lipo.Weighted>
-12.4624

> <Gold.Chemscore.Internal_Hbond.Weighted>
0.0000

> <Gold.Chemscore.DEClash.Weighted>
0.0368

> <Gold.Chemscore.DEInternal.Weighted>
2.2416

> <Gold.Chemscore.Rot.Weighted>
3.6216

> <Gold.Chemscore.Internal.Correction.Weighted>
   9.000000E+99

> <Gold.Protein.RotatedTorsions>
[ 6907 6896 6895 6894 ] final  154.91 input  -60.11 | X-H torsion
[ 7974 7965 7964 7962 ] final   15.79 input  175.53 | X-H torsion
[ 8008 7997 7996 7995 ] final   63.21 input   59.86 | X-H torsion
[ 10167 10162 10161 10158 ] final   71.16 input  -65.29 | X-H torsion
[ 10718 10713 10712 10709 ] final -150.41 input   66.30 | X-H torsion
[ 10763 10752 10751 10750 ] final  132.69 input  -60.55 | X-H torsion
[ 11005 11000 10999 10996 ] final  -13.51 input  -57.11 | X-H torsion

> <Gold.Protein.ActiveResidues>
 VAL166  LYS551  ARG553  GLY616  TRP617  ASP618  TYR619  PRO620  LYS621  CYS622 
 ASP623  PHE694  ASN695  SER759  ASP760  ASP761  ALA762  ILE779  LEU786  VAL792 
 PHE793  MET794  SER795  GLU796  ALA797  LYS798  CYS799  TRP800  GLU811  SER814 

> <Gold.Protein.RotatedAtoms>
  152.0517  133.4022  159.4379 H   0  0  0  0  0  0  0  0  0  0  0  0  # atno 6907 bound_to 6896
  150.6870  134.3300  159.4832 H   0  0  0  0  0  0  0  0  0  0  0  0  # atno 6908 bound_to 6896
  152.1111  134.9273  160.0617 H   0  0  0  0  0  0  0  0  0  0  0  0  # atno 6909 bound_to 6896
  146.2268  139.8842  142.8565 H   0  0  0  0  0  0  0  0  0  0  0  0  # atno 7974 bound_to 7965
  155.6266  140.3496  155.4669 H   0  0  0  0  0  0  0  0  0  0  0  0  # atno 8008 bound_to 7997
  156.0037  140.1218  157.0546 H   0  0  0  0  0  0  0  0  0  0  0  0  # atno 8009 bound_to 7997
  154.4257  140.1095  156.5718 H   0  0  0  0  0  0  0  0  0  0  0  0  # atno 8010 bound_to 7997
  140.0491  144.5326  150.7376 H   0  0  0  0  0  0  0  0  0  0  0  0  # atno 10167 bound_to 10162
  156.4457  130.8143  151.2374 H   0  0  0  0  0  0  0  0  0  0  0  0  # atno 10718 bound_to 10713
  153.7949  135.3150  155.3383 H   0  0  0  0  0  0  0  0  0  0  0  0  # atno 10763 bound_to 10752
  154.8111  135.4666  154.0523 H   0  0  0  0  0  0  0  0  0  0  0  0  # atno 10764 bound_to 10752
  153.1852  135.6900  153.8511 H   0  0  0  0  0  0  0  0  0  0  0  0  # atno 10765 bound_to 10752
  140.7768  133.8394  155.9256 H   0  0  0  0  0  0  0  0  0  0  0  0  # atno 11005 bound_to 11000
  145.2482  141.0034  143.3896 LP  0  0  0  0  0  0  0  0  0  0  0  0  # atno 17320 bound_to 7965
  144.9396  139.4204  143.6455 LP  0  0  0  0  0  0  0  0  0  0  0  0  # atno 17321 bound_to 7965
  140.7225  143.2602  151.4232 LP  0  0  0  0  0  0  0  0  0  0  0  0  # atno 17342 bound_to 10162
  139.5964  144.1388  152.2149 LP  0  0  0  0  0  0  0  0  0  0  0  0  # atno 17343 bound_to 10162
  157.7505  131.0154  150.3502 LP  0  0  0  0  0  0  0  0  0  0  0  0  # atno 17370 bound_to 10713
  156.3869  130.3891  149.7059 LP  0  0  0  0  0  0  0  0  0  0  0  0  # atno 17371 bound_to 10713
  140.9520  134.1766  157.4720 LP  0  0  0  0  0  0  0  0  0  0  0  0  # atno 17394 bound_to 11000
  139.8748  134.9913  156.5542 LP  0  0  0  0  0  0  0  0  0  0  0  0  # atno 17395 bound_to 11000

$$$$
