AV-unprocessed.smi:625|AV-procd|sdf|3107|dock5
  -GOLD-   22720 0 33D 1   1.00000     0.00000
 Structure written by MMmdl.
 49 51  0  0  0  0  0  0  0  0  1 V2000
  147.9508  135.7729  161.6973 C   0  0  0  0  0  0  0  0  0  0  0  0
  148.5742  135.8458  160.3845 N   0  0  0  0  0  0  0  0  0  0  0  0
  148.2605  136.7497  159.4416 C   0  0  0  0  0  0  0  0  0  0  0  0
  147.3940  137.6054  159.6290 O   0  0  0  0  0  0  0  0  0  0  0  0
  149.0363  136.6105  158.2065 C   0  0  0  0  0  0  0  0  0  0  0  0
  149.3828  135.3218  157.6251 C   0  0  0  0  0  0  0  0  0  0  0  0
  150.1078  135.2539  156.4914 C   0  0  0  0  0  0  0  0  0  0  0  0
  150.5729  136.4589  155.7990 C   0  0  0  0  0  0  0  0  0  0  0  0
  151.2391  136.4019  154.7646 O   0  0  0  0  0  0  0  0  0  0  0  0
  150.2204  137.6488  156.3749 N   0  0  0  0  0  0  0  0  0  0  0  0
  150.6364  138.9255  155.7708 C   0  0  0  0  0  0  0  0  0  0  0  0
  151.8095  139.5719  156.5183 C   0  0  0  0  0  0  0  0  0  0  0  0
  152.9700  139.3239  156.1887 O   0  0  0  0  0  0  0  0  0  0  0  0
  151.4834  140.3961  157.5257 N   0  0  0  0  0  0  0  0  0  0  0  0
  152.4179  141.1894  158.3208 C   0  0  2  0  0  0  0  0  0  0  0  0
  153.3017  140.2432  159.1482 C   0  0  0  0  0  0  0  0  0  0  0  0
  151.6315  142.1820  159.2096 C   0  0  1  0  0  0  0  0  0  0  0  0
  152.5064  143.0917  160.1011 C   0  0  0  0  0  0  0  0  0  0  0  0
  151.9378  144.4968  159.8263 C   0  0  1  0  0  0  0  0  0  0  0  0
  152.3894  144.9580  158.4286 C   0  0  0  0  0  0  0  0  0  0  0  0
  151.5379  144.0813  157.4928 C   0  0  0  0  0  0  0  0  0  0  0  0
  150.7311  143.2110  158.4786 C   0  0  2  0  0  0  0  0  0  0  0  0
  150.4581  144.2095  159.5987 C   0  0  0  0  0  0  0  0  0  0  0  0
  149.4654  137.7137  157.5624 C   0  0  0  0  0  0  0  0  0  0  0  0
  148.3760  134.9449  162.2642 H   0  0  0  0  0  0  0  0  0  0  0  0
  146.8761  135.6095  161.6091 H   0  0  0  0  0  0  0  0  0  0  0  0
  148.1193  136.6928  162.2584 H   0  0  0  0  0  0  0  0  0  0  0  0
  149.2928  135.1677  160.1769 H   0  0  0  0  0  0  0  0  0  0  0  0
  149.0709  134.3954  158.0845 H   0  0  0  0  0  0  0  0  0  0  0  0
  150.3538  134.2862  156.0794 H   0  0  0  0  0  0  0  0  0  0  0  0
  150.9011  138.7699  154.7228 H   0  0  0  0  0  0  0  0  0  0  0  0
  149.8109  139.6382  155.7543 H   0  0  0  0  0  0  0  0  0  0  0  0
  150.5021  140.5245  157.7255 H   0  0  0  0  0  0  0  0  0  0  0  0
  153.0786  141.7596  157.6665 H   0  0  0  0  0  0  0  0  0  0  0  0
  154.0329  140.7968  159.7375 H   0  0  0  0  0  0  0  0  0  0  0  0
  153.8542  139.5597  158.5026 H   0  0  0  0  0  0  0  0  0  0  0  0
  152.7065  139.6421  159.8366 H   0  0  0  0  0  0  0  0  0  0  0  0
  150.9815  141.5957  159.8619 H   0  0  0  0  0  0  0  0  0  0  0  0
  152.3917  142.8207  161.1512 H   0  0  0  0  0  0  0  0  0  0  0  0
  153.5686  143.0338  159.8600 H   0  0  0  0  0  0  0  0  0  0  0  0
  152.1534  145.2182  160.6150 H   0  0  0  0  0  0  0  0  0  0  0  0
  152.1638  146.0140  158.2743 H   0  0  0  0  0  0  0  0  0  0  0  0
  153.4594  144.8179  158.2708 H   0  0  0  0  0  0  0  0  0  0  0  0
  150.8665  144.7031  156.8993 H   0  0  0  0  0  0  0  0  0  0  0  0
  152.1408  143.5024  156.7947 H   0  0  0  0  0  0  0  0  0  0  0  0
  149.8349  142.7731  158.0377 H   0  0  0  0  0  0  0  0  0  0  0  0
  149.9641  143.7679  160.4659 H   0  0  0  0  0  0  0  0  0  0  0  0
  149.8920  145.0840  159.2724 H   0  0  0  0  0  0  0  0  0  0  0  0
  149.2702  138.7180  157.9120 H   0  0  0  0  0  0  0  0  0  0  0  0
  1  2  1  0  0  0  0
  1 25  1  0  0  0  0
  1 26  1  0  0  0  0
  1 27  1  0  0  0  0
  2  3  1  0  0  0  0
  2 28  1  0  0  0  0
  3  4  2  0  0  0  0
  3  5  1  0  0  0  0
  5 24  2  0  0  0  0
  5  6  1  0  0  0  0
  6  7  2  0  0  0  0
  6 29  1  0  0  0  0
  7  8  1  0  0  0  0
  7 30  1  0  0  0  0
  8  9  2  0  0  0  0
  8 10  1  0  0  0  0
 10 11  1  0  0  0  0
 10 24  1  0  0  0  0
 11 12  1  0  0  0  0
 11 31  1  0  0  0  0
 11 32  1  0  0  0  0
 12 13  2  0  0  0  0
 12 14  1  0  0  0  0
 14 15  1  0  0  0  0
 14 33  1  0  0  0  0
 15 16  1  0  0  0  0
 15 17  1  0  0  0  0
 15 34  1  0  0  0  0
 16 35  1  0  0  0  0
 16 36  1  0  0  0  0
 16 37  1  0  0  0  0
 17 22  1  0  0  0  0
 17 18  1  0  0  0  0
 17 38  1  0  0  0  0
 18 19  1  0  0  0  0
 18 39  1  0  0  0  0
 18 40  1  0  0  0  0
 19 23  1  0  0  0  0
 19 20  1  0  0  0  0
 19 41  1  0  0  0  0
 20 21  1  0  0  0  0
 20 42  1  0  0  0  0
 20 43  1  0  0  0  0
 21 22  1  0  0  0  0
 21 44  1  0  0  0  0
 21 45  1  0  0  0  0
 22 23  1  0  0  0  0
 22 46  1  0  0  0  0
 23 47  1  0  0  0  0
 23 48  1  0  0  0  0
 24 49  1  0  0  0  0
M  END
> <s_m_source_file>
AV-unprocessed.smi

> <i_m_source_file_index>
625

> <i_lp_mmshare_version>
43012

> <i_f3d_flags>
0

> <s_epik_input>
W0NIM11bTkhdQyg9TyljMVtjSF1bY0hdYyg9TyluKFtjSF0xKVtDSDJdQyg9TylbTkhdW0NASF0oW0NIM10pW0NASF0oW0NIMl1bQ0BIXTIzKVtDQEhdKFtDSDJdMylbQ0gyXVtDSDJdMg==

> <s_epik_cmdline>
J2VwaWtfcHl0aG9uJywgJy1waCcsICc3LjAnLCAnLXRuJywgJzgnLCAnLW1hJywgJzIwMCcsICctbWV0YWxfYmluZGluZycsICctaW1hZScsICc8aW5maWxlLm1hZT4nLCAnLW9tYWUnLCAnPG91dGZpbGUubWFlPic=

> <r_lp_tautomer_probability>
1

> <r_epik_Ionization_Penalty>
3.7129e-07

> <r_epik_Ionization_Penalty_Charging>
5.04114e-08

> <r_epik_Ionization_Penalty_Neutral>
3.20879e-07

> <r_epik_State_Penalty>
-0

> <r_epik_Charging_Adjusted_Penalty>
5.04114e-08

> <i_epik_Tot_Q>
0

> <i_epik_Tot_abs_Q>
0

> <r_epik_Metal_State_Penalty>
-0

> <b_epik_Metal_Only>
0

> <s_lp_Force_Field>
OPLS_2005

> <r_lp_Energy>
63.4891

> <b_lp_Chiralities_Consistent>
1

> <s_lp_Variant>
AV-unprocessed.smi:625-7

> <Gold.Version>
5.8.1

> <Gold.Id.Protein>
6NUR|6NUR_protein|mol2

> <Gold.PLP.Fitness>
48.1359

> <Gold.PLP.PLP>
-42.3111

> <Gold.PLP.part.hbond>
-3.0000

> <Gold.PLP.part.metal>
0.0000

> <Gold.PLP.part.buried>
-7.5816

> <Gold.PLP.part.nonpolar>
-32.9647

> <Gold.PLP.part.repulsive>
0.4001

> <Gold.PLP.ligand.clash>
0.0000

> <Gold.PLP.ligand.torsion>
1.2698

> <Gold.PLP.Chemscore.Hbond>
2.7680

> <Gold.PLP.Chemscore.CHOScore>
0.0000

> <Gold.PLP.Chemscore.Metal>
0.0000

> <Gold.Chemscore.Hbonds>
donor molecule, donor type, donor heavy atom, donor atom, acceptor molecule, acceptor atom, score
      P1  H  6934  6947       L1     4  0.78
      P1  H  7997  8009       L1    13  0.96
      P1  H 10752 10763       L1     9  1.00

> <Gold.PLP.Chemscore.Internal.Correction>
0.0604

> <Gold.Rescore>
     Score         DG    S(hbond)    S(metal)    S(lipo)     H(rot)  DE(clash)    DE(int)     intcor
     23.40     -24.92       2.86        0.00     121.02       1.67       0.02       1.50       ----

> <Gold.Chemscore.Fitness>
23.4050

> <Gold.Chemscore.DG>
-24.9201

> <Gold.Chemscore.ZeroCoef>
-5.4800

> <Gold.Chemscore.Hbond>
2.8618

> <Gold.Chemscore.Metal>
0.0000

> <Gold.Chemscore.Lipo>
121.0191

> <Gold.Chemscore.Internal_Hbond>
0.0000

> <Gold.Chemscore.DEClash>
0.0174

> <Gold.Chemscore.DEInternal>
1.4977

> <Gold.Chemscore.Rot>
1.6709

> <Gold.Chemscore.Internal.Correction>
   9.000000E+99

> <Gold.Chemscore.Hbonds>
donor molecule, donor type, donor heavy atom, donor atom, acceptor molecule, acceptor atom, score
      P1  H  6934  6947       L1     4  0.77
      P1  H  7997  8009       L1    13  0.92
      P1  H 10752 10763       L1     9  1.00

> <Gold.Chemscore.Hbond.Weighted>
-9.5583

> <Gold.Chemscore.Metal.Weighted>
-0.0000

> <Gold.Chemscore.Lipo.Weighted>
-14.1592

> <Gold.Chemscore.Internal_Hbond.Weighted>
0.0000

> <Gold.Chemscore.DEClash.Weighted>
0.0174

> <Gold.Chemscore.DEInternal.Weighted>
1.4977

> <Gold.Chemscore.Rot.Weighted>
4.2774

> <Gold.Chemscore.Internal.Correction.Weighted>
   9.000000E+99

> <Gold.Protein.RotatedTorsions>
[ 6907 6896 6895 6894 ] final -168.43 input  -60.11 | X-H torsion
[ 7974 7965 7964 7962 ] final  145.22 input  175.53 | X-H torsion
[ 8008 7997 7996 7995 ] final  176.05 input   59.86 | X-H torsion
[ 10167 10162 10161 10158 ] final -150.46 input  -65.29 | X-H torsion
[ 10718 10713 10712 10709 ] final  136.87 input   66.30 | X-H torsion
[ 10763 10752 10751 10750 ] final   52.31 input  -60.55 | X-H torsion
[ 11005 11000 10999 10996 ] final   76.70 input  -57.11 | X-H torsion

> <Gold.Protein.ActiveResidues>
 VAL166  LYS551  ARG553  GLY616  TRP617  ASP618  TYR619  PRO620  LYS621  CYS622 
 ASP623  PHE694  ASN695  SER759  ASP760  ASP761  ALA762  ILE779  LEU786  VAL792 
 PHE793  MET794  SER795  GLU796  ALA797  LYS798  CYS799  TRP800  GLU811  SER814 

> <Gold.Protein.RotatedAtoms>
  151.4754  133.3559  159.2829 H   0  0  0  0  0  0  0  0  0  0  0  0  # atno 6907 bound_to 6896
  150.8933  134.8340  159.7319 H   0  0  0  0  0  0  0  0  0  0  0  0  # atno 6908 bound_to 6896
  152.4836  134.4666  159.9674 H   0  0  0  0  0  0  0  0  0  0  0  0  # atno 6909 bound_to 6896
  144.8770  139.5757  143.5860 H   0  0  0  0  0  0  0  0  0  0  0  0  # atno 7974 bound_to 7965
  156.0806  140.1393  156.9717 H   0  0  0  0  0  0  0  0  0  0  0  0  # atno 8008 bound_to 7997
  154.4583  140.0953  156.6869 H   0  0  0  0  0  0  0  0  0  0  0  0  # atno 8009 bound_to 7997
  155.5082  140.3453  155.4386 H   0  0  0  0  0  0  0  0  0  0  0  0  # atno 8010 bound_to 7997
  139.7352  143.8747  152.2546 H   0  0  0  0  0  0  0  0  0  0  0  0  # atno 10167 bound_to 10162
  157.4421  131.1058  151.0131 H   0  0  0  0  0  0  0  0  0  0  0  0  # atno 10718 bound_to 10713
  152.9788  135.5816  154.4558 H   0  0  0  0  0  0  0  0  0  0  0  0  # atno 10763 bound_to 10752
  154.4141  135.2770  155.2020 H   0  0  0  0  0  0  0  0  0  0  0  0  # atno 10764 bound_to 10752
  154.3797  135.6149  153.5838 H   0  0  0  0  0  0  0  0  0  0  0  0  # atno 10765 bound_to 10752
  139.9286  134.7623  156.1429 H   0  0  0  0  0  0  0  0  0  0  0  0  # atno 11005 bound_to 11000
  146.2969  139.7307  142.9120 LP  0  0  0  0  0  0  0  0  0  0  0  0  # atno 17320 bound_to 7965
  145.4023  141.0386  143.3063 LP  0  0  0  0  0  0  0  0  0  0  0  0  # atno 17321 bound_to 7965
  139.8681  144.7082  150.9019 LP  0  0  0  0  0  0  0  0  0  0  0  0  # atno 17342 bound_to 10162
  140.7777  143.3761  151.1561 LP  0  0  0  0  0  0  0  0  0  0  0  0  # atno 17343 bound_to 10162
  157.0991  130.5974  149.5456 LP  0  0  0  0  0  0  0  0  0  0  0  0  # atno 17370 bound_to 10713
  155.9953  130.5019  150.7452 LP  0  0  0  0  0  0  0  0  0  0  0  0  # atno 17371 bound_to 10713
  141.0861  133.6734  156.2439 LP  0  0  0  0  0  0  0  0  0  0  0  0  # atno 17394 bound_to 11000
  140.6264  134.5308  157.5554 LP  0  0  0  0  0  0  0  0  0  0  0  0  # atno 17395 bound_to 11000

$$$$
