AV-unprocessed.smi:565|AV-procd|sdf|2953|dock4
  -GOLD-   2262023453D 1   1.00000     0.00000
 Structure written by MMmdl.
 50 51  0  0  0  0  0  0  0  0  2 V2000
  153.5134  137.6544  156.5700 C   0  0  0  0  0  0  0  0  0  0  0  0
  152.4491  138.6711  156.2707 C   0  0  0  0  0  0  0  0  0  0  0  0
  152.3782  139.7720  157.0001 N   0  0  0  0  0  0  0  0  0  0  0  0
  151.3432  140.4627  156.4809 N   0  0  0  0  0  0  0  0  0  0  0  0
  150.9835  141.7450  157.0542 C   0  0  0  0  0  0  0  0  0  0  0  0
  150.7585  139.7960  155.4222 C   0  0  0  0  0  0  0  0  0  0  0  0
  149.5948  140.3602  154.6724 C   0  0  0  0  0  0  0  0  0  0  0  0
  151.4483  138.6245  155.2561 C   0  0  0  0  0  0  0  0  0  0  0  0
  151.2244  137.5328  154.2411 C   0  0  0  0  0  0  0  0  0  0  0  0
  150.7028  136.2782  154.9435 C   0  0  0  0  0  0  0  0  0  0  0  0
  151.3029  135.8202  155.9161 O   0  0  0  0  0  0  0  0  0  0  0  0
  149.5789  135.7361  154.4496 N   0  0  0  0  0  0  0  0  0  0  0  0
  148.8910  134.5792  155.0103 C   0  0  0  0  0  0  0  0  0  0  0  0
  148.5233  133.5449  153.9270 C   0  0  0  0  0  0  0  0  0  0  0  0
  147.5264  134.0654  152.9578 N   0  3  1  0  0  0  0  0  0  0  0  0
  147.3008  133.1262  151.8290 C   0  0  0  0  0  0  0  0  0  0  0  0
  146.3937  133.7532  150.7585 C   0  0  0  0  0  0  0  0  0  0  0  0
  145.0608  134.2131  151.3657 C   0  0  0  0  0  0  0  0  0  0  0  0
  145.2876  135.1352  152.5779 C   0  0  2  0  0  0  0  0  0  0  0  0
  145.7555  136.5449  152.1755 C   0  0  0  0  0  0  0  0  0  0  0  0
  146.2419  134.4713  153.5923 C   0  0  0  0  0  0  0  0  0  0  0  0
  154.0970  137.4281  155.6778 H   0  0  0  0  0  0  0  0  0  0  0  0
  153.0720  136.7226  156.9235 H   0  0  0  0  0  0  0  0  0  0  0  0
  154.2057  138.0052  157.3363 H   0  0  0  0  0  0  0  0  0  0  0  0
  149.9804  141.6874  157.4769 H   0  0  0  0  0  0  0  0  0  0  0  0
  151.0004  142.5113  156.2790 H   0  0  0  0  0  0  0  0  0  0  0  0
  151.6839  142.0264  157.8416 H   0  0  0  0  0  0  0  0  0  0  0  0
  149.2887  139.7014  153.8600 H   0  0  0  0  0  0  0  0  0  0  0  0
  149.8471  141.3269  154.2366 H   0  0  0  0  0  0  0  0  0  0  0  0
  148.7382  140.4977  155.3323 H   0  0  0  0  0  0  0  0  0  0  0  0
  150.5191  137.8495  153.4714 H   0  0  0  0  0  0  0  0  0  0  0  0
  152.1450  137.2794  153.7152 H   0  0  0  0  0  0  0  0  0  0  0  0
  149.1523  136.1796  153.6487 H   0  0  0  0  0  0  0  0  0  0  0  0
  149.5213  134.1439  155.7857 H   0  0  0  0  0  0  0  0  0  0  0  0
  147.9872  134.9330  155.5069 H   0  0  0  0  0  0  0  0  0  0  0  0
  149.4373  133.2784  153.3940 H   0  0  0  0  0  0  0  0  0  0  0  0
  148.1468  132.6219  154.3703 H   0  0  0  0  0  0  0  0  0  0  0  0
  148.2542  132.8575  151.3727 H   0  0  0  0  0  0  0  0  0  0  0  0
  146.8579  132.2024  152.2053 H   0  0  0  0  0  0  0  0  0  0  0  0
  146.9032  134.5974  150.2929 H   0  0  0  0  0  0  0  0  0  0  0  0
  146.2076  133.0329  149.9611 H   0  0  0  0  0  0  0  0  0  0  0  0
  144.4525  134.7133  150.6112 H   0  0  0  0  0  0  0  0  0  0  0  0
  144.4939  133.3367  151.6828 H   0  0  0  0  0  0  0  0  0  0  0  0
  144.3238  135.2629  153.0724 H   0  0  0  0  0  0  0  0  0  0  0  0
  146.7297  136.5281  151.6869 H   0  0  0  0  0  0  0  0  0  0  0  0
  145.8370  137.1941  153.0479 H   0  0  0  0  0  0  0  0  0  0  0  0
  145.0483  137.0099  151.4881 H   0  0  0  0  0  0  0  0  0  0  0  0
  145.7653  133.5894  154.0238 H   0  0  0  0  0  0  0  0  0  0  0  0
  146.4165  135.1599  154.4179 H   0  0  0  0  0  0  0  0  0  0  0  0
  147.9299  134.8983  152.5538 H   0  0  0  0  0  0  0  0  0  0  0  0
  1  2  1  0  0  0  0
  1 22  1  0  0  0  0
  1 23  1  0  0  0  0
  1 24  1  0  0  0  0
  2  8  1  0  0  0  0
  2  3  2  0  0  0  0
  3  4  1  0  0  0  0
  4  5  1  0  0  0  0
  4  6  1  0  0  0  0
  5 25  1  0  0  0  0
  5 26  1  0  0  0  0
  5 27  1  0  0  0  0
  6  7  1  0  0  0  0
  6  8  2  0  0  0  0
  7 28  1  0  0  0  0
  7 29  1  0  0  0  0
  7 30  1  0  0  0  0
  8  9  1  0  0  0  0
  9 10  1  0  0  0  0
  9 31  1  0  0  0  0
  9 32  1  0  0  0  0
 10 11  2  0  0  0  0
 10 12  1  0  0  0  0
 12 13  1  0  0  0  0
 12 33  1  0  0  0  0
 13 14  1  0  0  0  0
 13 34  1  0  0  0  0
 13 35  1  0  0  0  0
 14 15  1  0  0  0  0
 14 36  1  0  0  0  0
 14 37  1  0  0  0  0
 15 21  1  0  0  0  0
 15 16  1  0  0  0  0
 15 50  1  0  0  0  0
 16 17  1  0  0  0  0
 16 38  1  0  0  0  0
 16 39  1  0  0  0  0
 17 18  1  0  0  0  0
 17 40  1  0  0  0  0
 17 41  1  0  0  0  0
 18 19  1  0  0  0  0
 18 42  1  0  0  0  0
 18 43  1  0  0  0  0
 19 20  1  0  0  0  0
 19 21  1  0  0  0  0
 19 44  1  0  0  0  0
 20 45  1  0  0  0  0
 20 46  1  0  0  0  0
 20 47  1  0  0  0  0
 21 48  1  0  0  0  0
 21 49  1  0  0  0  0
M  CHG  1  15   1
M  END
> <s_m_source_file>
AV-unprocessed.smi

> <i_m_source_file_index>
565

> <i_lp_mmshare_version>
43012

> <i_f3d_flags>
0

> <s_epik_input>
W0NIM11jMW5uKFtDSDNdKWMoW0NIM10pYzFbQ0gyXUMoPU8pW05IXVtDSDJdW0NIMl1OMltDSDJdW0NIMl1bQ0gyXVtDQEBIXShbQ0gzXSlbQ0gyXTI=

> <s_epik_cmdline>
J2VwaWtfcHl0aG9uJywgJy1waCcsICc3LjAnLCAnLXRuJywgJzgnLCAnLW1hJywgJzIwMCcsICctbWV0YWxfYmluZGluZycsICctaW1hZScsICc8aW5maWxlLm1hZT4nLCAnLW9tYWUnLCAnPG91dGZpbGUubWFlPic=

> <r_lp_tautomer_probability>
1

> <r_epik_Ionization_Penalty>
0.00411138

> <r_epik_Ionization_Penalty_Charging>
0.0019503

> <r_epik_Ionization_Penalty_Neutral>
0.00216107

> <r_epik_State_Penalty>
-0

> <r_epik_Charging_Adjusted_Penalty>
0.0019503

> <i_epik_Tot_Q>
1

> <i_epik_Tot_abs_Q>
1

> <r_epik_Metal_State_Penalty>
-0

> <b_epik_Metal_Only>
0

> <s_lp_Force_Field>
OPLS_2005

> <r_lp_Energy>
13.161

> <b_lp_Chiralities_Consistent>
1

> <s_lp_Variant>
AV-unprocessed.smi:565-3

> <Gold.Version>
5.8.1

> <Gold.Id.Protein>
6NUR|6NUR_protein|mol2

> <Gold.PLP.Fitness>
49.1847

> <Gold.PLP.PLP>
-36.7393

> <Gold.PLP.part.hbond>
-4.2005

> <Gold.PLP.part.metal>
0.0000

> <Gold.PLP.part.buried>
2.5798

> <Gold.PLP.part.nonpolar>
-34.4077

> <Gold.PLP.part.repulsive>
0.0882

> <Gold.PLP.ligand.clash>
0.0000

> <Gold.PLP.ligand.torsion>
0.2327

> <Gold.PLP.Chemscore.Hbond>
4.2920

> <Gold.PLP.Chemscore.CHOScore>
0.0000

> <Gold.PLP.Chemscore.Metal>
0.0000

> <Gold.Chemscore.Hbonds>
donor molecule, donor type, donor heavy atom, donor atom, acceptor molecule, acceptor atom, score
      L1  H    12    33       P1  7948  0.93
      L1  H    15    50       P1  7948  2.00
      P1  H  7997  8009       L1     3  0.26
      P1  H 10752 10764       L1    11  0.93

> <Gold.PLP.Chemscore.Internal.Correction>
0.0348

> <Gold.Rescore>
     Score         DG    S(hbond)    S(metal)    S(lipo)     H(rot)  DE(clash)    DE(int)     intcor
     18.29     -19.05       2.24        0.00      87.44       1.61       0.39       0.36       ----

> <Gold.Chemscore.Fitness>
18.2919

> <Gold.Chemscore.DG>
-19.0461

> <Gold.Chemscore.ZeroCoef>
-5.4800

> <Gold.Chemscore.Hbond>
2.2358

> <Gold.Chemscore.Metal>
0.0000

> <Gold.Chemscore.Lipo>
87.4445

> <Gold.Chemscore.Internal_Hbond>
0.0000

> <Gold.Chemscore.DEClash>
0.3928

> <Gold.Chemscore.DEInternal>
0.3614

> <Gold.Chemscore.Rot>
1.6142

> <Gold.Chemscore.Internal.Correction>
   9.000000E+99

> <Gold.Chemscore.Hbonds>
donor molecule, donor type, donor heavy atom, donor atom, acceptor molecule, acceptor atom, score
      L1  H    12    33       P1  7948  0.84
      L1  H    15    50       P1  7948  0.85
      P1  H 10752 10764       L1    11  0.23

> <Gold.Chemscore.Hbond.Weighted>
-7.4675

> <Gold.Chemscore.Metal.Weighted>
-0.0000

> <Gold.Chemscore.Lipo.Weighted>
-10.2310

> <Gold.Chemscore.Internal_Hbond.Weighted>
0.0000

> <Gold.Chemscore.DEClash.Weighted>
0.3928

> <Gold.Chemscore.DEInternal.Weighted>
0.3614

> <Gold.Chemscore.Rot.Weighted>
4.1324

> <Gold.Chemscore.Internal.Correction.Weighted>
   9.000000E+99

> <Gold.Protein.RotatedTorsions>
[ 6907 6896 6895 6894 ] final  -23.87 input  -60.11 | X-H torsion
[ 7974 7965 7964 7962 ] final -150.39 input  175.53 | X-H torsion
[ 8008 7997 7996 7995 ] final -162.30 input   59.86 | X-H torsion
[ 10167 10162 10161 10158 ] final   48.06 input  -65.29 | X-H torsion
[ 10718 10713 10712 10709 ] final   46.49 input   66.30 | X-H torsion
[ 10763 10752 10751 10750 ] final  -28.41 input  -60.55 | X-H torsion
[ 11005 11000 10999 10996 ] final   -1.53 input  -57.11 | X-H torsion

> <Gold.Protein.ActiveResidues>
 VAL166  LYS551  ARG553  GLY616  TRP617  ASP618  TYR619  PRO620  LYS621  CYS622 
 ASP623  PHE694  ASN695  SER759  ASP760  ASP761  ALA762  ILE779  LEU786  VAL792 
 PHE793  MET794  SER795  GLU796  ALA797  LYS798  CYS799  TRP800  GLU811  SER814 

> <Gold.Protein.RotatedAtoms>
  151.1978  135.0430  159.8859 H   0  0  0  0  0  0  0  0  0  0  0  0  # atno 6907 bound_to 6896
  152.5435  134.0884  159.8276 H   0  0  0  0  0  0  0  0  0  0  0  0  # atno 6908 bound_to 6896
  151.1021  133.5188  159.2641 H   0  0  0  0  0  0  0  0  0  0  0  0  # atno 6909 bound_to 6896
  144.7910  140.4938  143.5772 H   0  0  0  0  0  0  0  0  0  0  0  0  # atno 7974 bound_to 7965
  155.8048  140.0897  157.1937 H   0  0  0  0  0  0  0  0  0  0  0  0  # atno 8008 bound_to 7997
  154.3981  140.1465  156.3376 H   0  0  0  0  0  0  0  0  0  0  0  0  # atno 8009 bound_to 7997
  155.8425  140.3438  155.5644 H   0  0  0  0  0  0  0  0  0  0  0  0  # atno 8010 bound_to 7997
  140.2971  144.2977  150.6227 H   0  0  0  0  0  0  0  0  0  0  0  0  # atno 10167 bound_to 10162
  157.4486  130.8125  149.7766 H   0  0  0  0  0  0  0  0  0  0  0  0  # atno 10718 bound_to 10713
  153.7479  135.6928  153.4952 H   0  0  0  0  0  0  0  0  0  0  0  0  # atno 10763 bound_to 10752
  153.2024  135.4432  155.0281 H   0  0  0  0  0  0  0  0  0  0  0  0  # atno 10764 bound_to 10752
  154.8198  135.3416  154.7001 H   0  0  0  0  0  0  0  0  0  0  0  0  # atno 10765 bound_to 10752
  140.6484  133.9427  155.8366 H   0  0  0  0  0  0  0  0  0  0  0  0  # atno 11005 bound_to 11000
  145.5794  139.1488  143.3244 LP  0  0  0  0  0  0  0  0  0  0  0  0  # atno 17320 bound_to 7965
  146.2162  140.5924  142.9037 LP  0  0  0  0  0  0  0  0  0  0  0  0  # atno 17321 bound_to 7965
  140.5682  143.2184  151.7645 LP  0  0  0  0  0  0  0  0  0  0  0  0  # atno 17342 bound_to 10162
  139.4924  144.4253  151.9932 LP  0  0  0  0  0  0  0  0  0  0  0  0  # atno 17343 bound_to 10162
  155.9978  130.3898  150.2727 LP  0  0  0  0  0  0  0  0  0  0  0  0  # atno 17370 bound_to 10713
  157.0897  131.0166  151.3126 LP  0  0  0  0  0  0  0  0  0  0  0  0  # atno 17371 bound_to 10713
  141.0555  134.0423  157.3728 LP  0  0  0  0  0  0  0  0  0  0  0  0  # atno 17394 bound_to 11000
  139.9055  135.0178  156.7464 LP  0  0  0  0  0  0  0  0  0  0  0  0  # atno 17395 bound_to 11000

$$$$
