AV-unprocessed.smi:54|AV-procd|sdf|541|dock3
  -GOLD-   2262016423D 1   1.00000     0.00000
 Structure written by MMmdl.
 44 46  0  0  0  0  0  0  0  0  1 V2000
  152.0312  144.4548  158.9505 C   0  0  0  0  0  0  0  0  0  0  0  0
  150.5322  144.3431  158.6274 C   0  0  0  0  0  0  0  0  0  0  0  0
  149.6697  144.7077  159.8463 C   0  0  0  0  0  0  0  0  0  0  0  0
  150.1895  142.9354  158.1262 C   0  0  0  0  0  0  0  0  0  0  0  0
  149.2791  142.2703  158.6217 O   0  0  0  0  0  0  0  0  0  0  0  0
  151.0074  142.4500  157.0287 N   0  0  0  0  0  0  0  0  0  0  0  0
  150.9180  141.2543  156.4011 C   0  0  0  0  0  0  0  0  0  0  0  0
  149.7809  140.7650  155.9267 N   0  0  0  0  0  0  0  0  0  0  0  0
  149.8935  139.5396  155.3307 C   0  0  0  0  0  0  0  0  0  0  0  0
  151.0469  138.7970  155.1887 C   0  0  0  0  0  0  0  0  0  0  0  0
  150.7713  137.6048  154.5287 N   0  0  0  0  0  0  0  0  0  0  0  0
  149.4893  137.6602  154.2982 C   0  0  0  0  0  0  0  0  0  0  0  0
  148.8804  138.8085  154.7481 N   0  0  0  0  0  0  0  0  0  0  0  0
  147.4412  139.2166  154.6614 C   0  0  2  0  0  0  0  0  0  0  0  0
  146.6890  138.0541  154.4793 O   0  0  0  0  0  0  0  0  0  0  0  0
  145.9290  138.1184  153.2733 C   0  0  2  0  0  0  0  0  0  0  0  0
  145.7614  136.7206  152.6516 C   0  0  0  0  0  0  0  0  0  0  0  0
  144.7636  136.7503  151.6535 O   0  0  0  0  0  0  0  0  0  0  0  0
  146.6590  139.1506  152.4016 C   0  0  2  0  0  0  0  0  0  0  0  0
  147.7017  138.5541  151.6478 O   0  0  0  0  0  0  0  0  0  0  0  0
  147.1750  140.1279  153.4488 C   0  0  2  0  0  0  0  0  0  0  0  0
  148.2802  140.8942  153.0014 O   0  0  0  0  0  0  0  0  0  0  0  0
  152.2844  139.3100  155.7009 C   0  0  0  0  0  0  0  0  0  0  0  0
  153.3976  138.7902  155.6658 O   0  0  0  0  0  0  0  0  0  0  0  0
  152.1271  140.5653  156.3028 N   0  0  0  0  0  0  0  0  0  0  0  0
  147.2246  139.6862  155.6216 H   0  0  0  0  0  0  0  0  0  0  0  0
  144.9508  138.5337  153.5229 H   0  0  0  0  0  0  0  0  0  0  0  0
  145.9773  139.6360  151.7023 H   0  0  0  0  0  0  0  0  0  0  0  0
  146.3676  140.8066  153.7269 H   0  0  0  0  0  0  0  0  0  0  0  0
  152.6443  144.1846  158.0897 H   0  0  0  0  0  0  0  0  0  0  0  0
  152.3135  143.8028  159.7781 H   0  0  0  0  0  0  0  0  0  0  0  0
  152.2939  145.4752  159.2308 H   0  0  0  0  0  0  0  0  0  0  0  0
  150.3070  145.0527  157.8299 H   0  0  0  0  0  0  0  0  0  0  0  0
  148.6060  144.6331  159.6165 H   0  0  0  0  0  0  0  0  0  0  0  0
  149.8628  145.7315  160.1672 H   0  0  0  0  0  0  0  0  0  0  0  0
  149.8743  144.0523  160.6941 H   0  0  0  0  0  0  0  0  0  0  0  0
  151.7100  143.0889  156.6872 H   0  0  0  0  0  0  0  0  0  0  0  0
  148.9578  136.8659  153.7947 H   0  0  0  0  0  0  0  0  0  0  0  0
  146.6901  136.4080  152.1733 H   0  0  0  0  0  0  0  0  0  0  0  0
  145.5169  135.9746  153.4083 H   0  0  0  0  0  0  0  0  0  0  0  0
  144.7659  137.6056  151.2516 H   0  0  0  0  0  0  0  0  0  0  0  0
  148.4782  139.0848  151.7420 H   0  0  0  0  0  0  0  0  0  0  0  0
  148.7963  140.3557  152.4208 H   0  0  0  0  0  0  0  0  0  0  0  0
  152.9596  140.9882  156.6862 H   0  0  0  0  0  0  0  0  0  0  0  0
  1  2  1  0  0  0  0
  1 30  1  0  0  0  0
  1 31  1  0  0  0  0
  1 32  1  0  0  0  0
  2  3  1  0  0  0  0
  2  4  1  0  0  0  0
  2 33  1  0  0  0  0
  3 34  1  0  0  0  0
  3 35  1  0  0  0  0
  3 36  1  0  0  0  0
  4  5  2  0  0  0  0
  4  6  1  0  0  0  0
  6 37  1  0  0  0  0
  6  7  1  0  0  0  0
  7 25  1  0  0  0  0
  7  8  2  0  0  0  0
  8  9  1  0  0  0  0
  9 13  1  0  0  0  0
  9 10  2  0  0  0  0
 10 11  1  0  0  0  0
 10 23  1  0  0  0  0
 11 12  2  0  0  0  0
 12 13  1  0  0  0  0
 12 38  1  0  0  0  0
 13 14  1  0  0  0  0
 14 26  1  0  0  0  0
 14 21  1  0  0  0  0
 14 15  1  0  0  0  0
 15 16  1  0  0  0  0
 16 27  1  0  0  0  0
 16 17  1  0  0  0  0
 16 19  1  0  0  0  0
 17 18  1  0  0  0  0
 17 39  1  0  0  0  0
 17 40  1  0  0  0  0
 18 41  1  0  0  0  0
 19 28  1  0  0  0  0
 19 20  1  0  0  0  0
 19 21  1  0  0  0  0
 20 42  1  0  0  0  0
 21 29  1  0  0  0  0
 21 22  1  0  0  0  0
 22 43  1  0  0  0  0
 23 24  2  0  0  0  0
 23 25  1  0  0  0  0
 25 44  1  0  0  0  0
M  END
> <s_m_source_file>
AV-unprocessed.smi

> <i_m_source_file_index>
54

> <i_lp_mmshare_version>
43012

> <i_f3d_flags>
0

> <s_epik_input>
W0NIM11bQ0hdKFtDSDNdKUMoPU8pW05IXWMobjEpW25IXWMoPU8pYyhjMTIpbltjSF1uMltDQEBIXTNPW0NASF0oW0NIMl1bT0hdKVtDQEBIXShbT0hdKVtDQEhdM1tPSF0=

> <s_epik_cmdline>
J2VwaWtfcHl0aG9uJywgJy1waCcsICc3LjAnLCAnLXRuJywgJzgnLCAnLW1hJywgJzIwMCcsICctbWV0YWxfYmluZGluZycsICctaW1hZScsICc8aW5maWxlLm1hZT4nLCAnLW9tYWUnLCAnPG91dGZpbGUubWFlPic=

> <r_lp_tautomer_probability>
0.85571

> <r_epik_Ionization_Penalty>
0.0316551

> <r_epik_Ionization_Penalty_Charging>
0.0316043

> <r_epik_Ionization_Penalty_Neutral>
5.07097e-05

> <r_epik_State_Penalty>
3.15494e-07

> <r_epik_Charging_Adjusted_Penalty>
0.0316047

> <i_epik_Tot_Q>
0

> <i_epik_Tot_abs_Q>
0

> <r_epik_Metal_State_Penalty>
0.421206

> <b_epik_Metal_Only>
0

> <s_epik_Chemistry_Notes>
This compound contains an acetal/aminal-like group ( X-CH(R)-Y where X, Y are N, S, or O) that may be acid/base labile, releasing an aldehyde.

> <s_lp_Force_Field>
OPLS_2005

> <r_lp_Energy>
46.8633

> <b_lp_Chiralities_Consistent>
1

> <s_lp_Variant>
AV-unprocessed.smi:54-13

> <Gold.Version>
5.8.1

> <Gold.Id.Protein>
6NUR|6NUR_protein|mol2

> <Gold.PLP.Fitness>
48.5666

> <Gold.PLP.PLP>
-34.4106

> <Gold.PLP.part.hbond>
-6.3621

> <Gold.PLP.part.metal>
0.0000

> <Gold.PLP.part.buried>
-2.0748

> <Gold.PLP.part.nonpolar>
-27.9046

> <Gold.PLP.part.repulsive>
0.6596

> <Gold.PLP.ligand.clash>
0.0000

> <Gold.PLP.ligand.torsion>
1.2701

> <Gold.PLP.Chemscore.Hbond>
4.4562

> <Gold.PLP.Chemscore.CHOScore>
1.0000

> <Gold.PLP.Chemscore.Metal>
0.0000

> <Gold.Chemscore.Hbonds>
donor molecule, donor type, donor heavy atom, donor atom, acceptor molecule, acceptor atom, score
      L1  H    18    41       P1 10171  0.80
      L1  H    20    42       P1  7957  1.00
      L1  H    22    43       P1  7957  0.99
      P1  H  7954  7966       L1    20  0.67
      P1  H  7997  8009       L1    24  0.93
      L1  C    12    38       P1  7948  0.97

> <Gold.PLP.Chemscore.Internal.Correction>
0.3277

> <Gold.Rescore>
     Score         DG    S(hbond)    S(metal)    S(lipo)     H(rot)  DE(clash)    DE(int)     intcor
      9.06     -10.59       2.59        0.00      58.22       4.05       0.30       1.23       ----

> <Gold.Chemscore.Fitness>
9.0638

> <Gold.Chemscore.DG>
-10.5880

> <Gold.Chemscore.ZeroCoef>
-5.4800

> <Gold.Chemscore.Hbond>
2.5935

> <Gold.Chemscore.Metal>
0.0000

> <Gold.Chemscore.Lipo>
58.2228

> <Gold.Chemscore.Internal_Hbond>
0.0000

> <Gold.Chemscore.DEClash>
0.2968

> <Gold.Chemscore.DEInternal>
1.2274

> <Gold.Chemscore.Rot>
4.0493

> <Gold.Chemscore.Internal.Correction>
   9.000000E+99

> <Gold.Chemscore.Hbonds>
donor molecule, donor type, donor heavy atom, donor atom, acceptor molecule, acceptor atom, score
      L1  H    18    41       P1 10171  0.78
      L1  H    20    42       P1  7957  0.82
      L1  H    22    43       P1  7957  0.91
      P1  H  7954  7966       L1    20  0.07
      P1  H  7997  8009       L1    24  0.23

> <Gold.Chemscore.Hbond.Weighted>
-8.6621

> <Gold.Chemscore.Metal.Weighted>
-0.0000

> <Gold.Chemscore.Lipo.Weighted>
-6.8121

> <Gold.Chemscore.Internal_Hbond.Weighted>
0.0000

> <Gold.Chemscore.DEClash.Weighted>
0.2968

> <Gold.Chemscore.DEInternal.Weighted>
1.2274

> <Gold.Chemscore.Rot.Weighted>
10.3662

> <Gold.Chemscore.Internal.Correction.Weighted>
   9.000000E+99

> <Gold.Protein.RotatedTorsions>
[ 6907 6896 6895 6894 ] final  177.18 input  -60.11 | X-H torsion
[ 7974 7965 7964 7962 ] final   41.32 input  175.53 | X-H torsion
[ 8008 7997 7996 7995 ] final -158.68 input   59.86 | X-H torsion
[ 10167 10162 10161 10158 ] final  106.55 input  -65.29 | X-H torsion
[ 10718 10713 10712 10709 ] final -130.70 input   66.30 | X-H torsion
[ 10763 10752 10751 10750 ] final  -65.49 input  -60.55 | X-H torsion
[ 11005 11000 10999 10996 ] final  -93.29 input  -57.11 | X-H torsion

> <Gold.Protein.ActiveResidues>
 VAL166  LYS551  ARG553  GLY616  TRP617  ASP618  TYR619  PRO620  LYS621  CYS622 
 ASP623  PHE694  ASN695  SER759  ASP760  ASP761  ALA762  ILE779  LEU786  VAL792 
 PHE793  MET794  SER795  GLU796  ALA797  LYS798  CYS799  TRP800  GLU811  SER814 

> <Gold.Protein.RotatedAtoms>
  151.7082  133.3312  159.3283 H   0  0  0  0  0  0  0  0  0  0  0  0  # atno 6907 bound_to 6896
  150.7705  134.6555  159.6321 H   0  0  0  0  0  0  0  0  0  0  0  0  # atno 6908 bound_to 6896
  152.3728  134.6712  160.0222 H   0  0  0  0  0  0  0  0  0  0  0  0  # atno 6909 bound_to 6896
  146.0833  139.5429  142.9523 H   0  0  0  0  0  0  0  0  0  0  0  0  # atno 7974 bound_to 7965
  155.7511  140.0827  157.2200 H   0  0  0  0  0  0  0  0  0  0  0  0  # atno 8008 bound_to 7997
  154.4012  140.1560  156.2781 H   0  0  0  0  0  0  0  0  0  0  0  0  # atno 8009 bound_to 7997
  155.8929  140.3414  155.5972 H   0  0  0  0  0  0  0  0  0  0  0  0  # atno 8010 bound_to 7997
  139.7000  144.7095  151.1201 H   0  0  0  0  0  0  0  0  0  0  0  0  # atno 10167 bound_to 10162
  156.2170  130.6954  151.0714 H   0  0  0  0  0  0  0  0  0  0  0  0  # atno 10718 bound_to 10713
  154.3457  135.6147  153.5618 H   0  0  0  0  0  0  0  0  0  0  0  0  # atno 10763 bound_to 10752
  152.9801  135.5780  154.4801 H   0  0  0  0  0  0  0  0  0  0  0  0  # atno 10764 bound_to 10752
  154.4513  135.2853  155.1756 H   0  0  0  0  0  0  0  0  0  0  0  0  # atno 10765 bound_to 10752
  141.1501  133.7878  157.0139 H   0  0  0  0  0  0  0  0  0  0  0  0  # atno 11005 bound_to 11000
  145.6178  141.0328  143.1931 LP  0  0  0  0  0  0  0  0  0  0  0  0  # atno 17320 bound_to 7965
  144.7308  139.7732  143.7348 LP  0  0  0  0  0  0  0  0  0  0  0  0  # atno 17321 bound_to 7965
  140.7707  143.5437  150.9283 LP  0  0  0  0  0  0  0  0  0  0  0  0  # atno 17342 bound_to 10162
  139.9118  143.6711  152.3113 LP  0  0  0  0  0  0  0  0  0  0  0  0  # atno 17343 bound_to 10162
  157.7068  131.0752  150.6638 LP  0  0  0  0  0  0  0  0  0  0  0  0  # atno 17370 bound_to 10713
  156.6700  130.4537  149.5660 LP  0  0  0  0  0  0  0  0  0  0  0  0  # atno 17371 bound_to 10713
  140.0859  134.9621  157.1700 LP  0  0  0  0  0  0  0  0  0  0  0  0  # atno 17394 bound_to 11000
  140.3512  134.2597  155.7198 LP  0  0  0  0  0  0  0  0  0  0  0  0  # atno 17395 bound_to 11000

$$$$
