AV-unprocessed.smi:3185|AV-procd|sdf|12168|dock2
  -GOLD-   2272018 03D 1   1.00000     0.00000
 Structure written by MMmdl.
 38 39  0  0  0  0  0  0  0  0  2 V2000
  147.1322  141.4285  154.1753 N   0  0  0  0  0  0  0  0  0  0  0  0
  148.1758  141.0434  154.4920 C   0  0  0  0  0  0  0  0  0  0  0  0
  149.5049  140.5580  154.8960 C   0  0  0  0  0  0  0  0  0  0  0  0
  150.1211  141.3719  156.0424 C   0  0  0  0  0  0  0  0  0  0  0  0
  149.3022  141.2946  157.3383 C   0  0  0  0  0  0  0  0  0  0  0  0
  149.0406  142.6431  157.8836 N   0  3  0  0  0  0  0  0  0  0  0  0
  150.0909  143.1856  158.7780 C   0  0  1  0  0  0  0  0  0  0  0  0
  151.4177  143.2541  157.9952 C   0  0  0  0  0  0  0  0  0  0  0  0
  152.5532  143.8560  158.8354 C   0  0  0  0  0  0  0  0  0  0  0  0
  152.1747  145.2515  159.3483 C   0  0  0  0  0  0  0  0  0  0  0  0
  150.8669  145.2012  160.1502 C   0  0  0  0  0  0  0  0  0  0  0  0
  149.7121  144.5913  159.3245 C   0  0  2  0  0  0  0  0  0  0  0  0
  148.4799  144.5755  160.1035 N   0  0  0  0  0  0  0  0  0  0  0  0
  147.8421  145.6377  160.7109 C   0  0  0  0  0  0  0  0  0  0  0  0
  146.7139  145.1515  161.3064 C   0  0  0  0  0  0  0  0  0  0  0  0
  146.7466  143.7608  161.0097 C   0  0  0  0  0  0  0  0  0  0  0  0
  147.8025  143.4193  160.2893 N   0  0  0  0  0  0  0  0  0  0  0  0
  149.4048  139.5111  155.1835 H   0  0  0  0  0  0  0  0  0  0  0  0
  150.1520  140.5904  154.0192 H   0  0  0  0  0  0  0  0  0  0  0  0
  151.1369  141.0208  156.2281 H   0  0  0  0  0  0  0  0  0  0  0  0
  150.2075  142.4129  155.7284 H   0  0  0  0  0  0  0  0  0  0  0  0
  148.3601  140.7868  157.1443 H   0  0  0  0  0  0  0  0  0  0  0  0
  149.8367  140.7019  158.0817 H   0  0  0  0  0  0  0  0  0  0  0  0
  148.9576  143.2695  157.0957 H   0  0  0  0  0  0  0  0  0  0  0  0
  150.2386  142.4982  159.6131 H   0  0  0  0  0  0  0  0  0  0  0  0
  151.7044  142.2559  157.6618 H   0  0  0  0  0  0  0  0  0  0  0  0
  151.2846  143.8527  157.0927 H   0  0  0  0  0  0  0  0  0  0  0  0
  152.7740  143.2011  159.6795 H   0  0  0  0  0  0  0  0  0  0  0  0
  153.4656  143.9138  158.2411 H   0  0  0  0  0  0  0  0  0  0  0  0
  152.9771  145.6498  159.9702 H   0  0  0  0  0  0  0  0  0  0  0  0
  152.0652  145.9369  158.5069 H   0  0  0  0  0  0  0  0  0  0  0  0
  151.0319  144.6172  161.0569 H   0  0  0  0  0  0  0  0  0  0  0  0
  150.6005  146.2070  160.4772 H   0  0  0  0  0  0  0  0  0  0  0  0
  149.5389  145.2484  158.4703 H   0  0  0  0  0  0  0  0  0  0  0  0
  148.2371  146.6421  160.6675 H   0  0  0  0  0  0  0  0  0  0  0  0
  145.9768  145.7044  161.8697 H   0  0  0  0  0  0  0  0  0  0  0  0
  146.0385  142.9955  161.2914 H   0  0  0  0  0  0  0  0  0  0  0  0
  148.1620  142.6400  158.3815 H   0  0  0  0  0  0  0  0  0  0  0  0
  1  2  3  0  0  0  0
  2  3  1  0  0  0  0
  3  4  1  0  0  0  0
  3 18  1  0  0  0  0
  3 19  1  0  0  0  0
  4  5  1  0  0  0  0
  4 20  1  0  0  0  0
  4 21  1  0  0  0  0
  5  6  1  0  0  0  0
  5 22  1  0  0  0  0
  5 23  1  0  0  0  0
  6  7  1  0  0  0  0
  6 24  1  0  0  0  0
  6 38  1  0  0  0  0
  7 12  1  0  0  0  0
  7  8  1  0  0  0  0
  7 25  1  0  0  0  0
  8  9  1  0  0  0  0
  8 26  1  0  0  0  0
  8 27  1  0  0  0  0
  9 10  1  0  0  0  0
  9 28  1  0  0  0  0
  9 29  1  0  0  0  0
 10 11  1  0  0  0  0
 10 30  1  0  0  0  0
 10 31  1  0  0  0  0
 11 12  1  0  0  0  0
 11 32  1  0  0  0  0
 11 33  1  0  0  0  0
 12 13  1  0  0  0  0
 12 34  1  0  0  0  0
 13 17  1  0  0  0  0
 13 14  1  0  0  0  0
 14 15  2  0  0  0  0
 14 35  1  0  0  0  0
 15 16  1  0  0  0  0
 15 36  1  0  0  0  0
 16 17  2  0  0  0  0
 16 37  1  0  0  0  0
M  CHG  1   6   1
M  END
> <s_m_source_file>
AV-unprocessed.smi

> <i_m_source_file_index>
3185

> <i_lp_mmshare_version>
43012

> <i_f3d_flags>
0

> <s_epik_input>
TiNDW0NIMl1bQ0gyXVtDSDJdW05IXVtDQEBIXTFbQ0gyXVtDSDJdW0NIMl1bQ0gyXVtDQEhdMW4yW2NIXVtjSF1bY0hdbjI=

> <s_epik_cmdline>
J2VwaWtfcHl0aG9uJywgJy1waCcsICc3LjAnLCAnLXRuJywgJzgnLCAnLW1hJywgJzIwMCcsICctbWV0YWxfYmluZGluZycsICctaW1hZScsICc8aW5maWxlLm1hZT4nLCAnLW9tYWUnLCAnPG91dGZpbGUubWFlPic=

> <r_lp_tautomer_probability>
1

> <r_epik_Ionization_Penalty>
0.0143465

> <r_epik_Ionization_Penalty_Charging>
0.0143338

> <r_epik_Ionization_Penalty_Neutral>
1.27047e-05

> <r_epik_State_Penalty>
0.0112058

> <r_epik_Charging_Adjusted_Penalty>
0.0255397

> <i_epik_Tot_Q>
1

> <i_epik_Tot_abs_Q>
1

> <r_epik_Metal_State_Penalty>
0.0112253

> <b_epik_Metal_Only>
0

> <s_lp_Force_Field>
OPLS_2005

> <r_lp_Energy>
15.0666

> <b_lp_Chiralities_Consistent>
1

> <s_lp_Variant>
AV-unprocessed.smi:3185-4

> <Gold.Version>
5.8.1

> <Gold.Id.Protein>
6NUR|6NUR_protein|mol2

> <Gold.PLP.Fitness>
47.2142

> <Gold.PLP.PLP>
-39.8839

> <Gold.PLP.part.hbond>
-2.0000

> <Gold.PLP.part.metal>
0.0000

> <Gold.PLP.part.buried>
-3.5842

> <Gold.PLP.part.nonpolar>
-34.4006

> <Gold.PLP.part.repulsive>
0.3139

> <Gold.PLP.ligand.clash>
0.0000

> <Gold.PLP.ligand.torsion>
0.5340

> <Gold.PLP.Chemscore.Hbond>
2.7500

> <Gold.PLP.Chemscore.CHOScore>
0.0000

> <Gold.PLP.Chemscore.Metal>
0.0000

> <Gold.Chemscore.Hbonds>
donor molecule, donor type, donor heavy atom, donor atom, acceptor molecule, acceptor atom, score
      L1  H     6    24       P1  8028  1.98
      P1  H  6933  6944       L1    17  0.85

> <Gold.PLP.Chemscore.Internal.Correction>
0.1485

> <Gold.Rescore>
     Score         DG    S(hbond)    S(metal)    S(lipo)     H(rot)  DE(clash)    DE(int)     intcor
     13.10     -14.99       0.94        0.00      95.41       1.88       0.04       1.85       ----

> <Gold.Chemscore.Fitness>
13.0964

> <Gold.Chemscore.DG>
-14.9918

> <Gold.Chemscore.ZeroCoef>
-5.4800

> <Gold.Chemscore.Hbond>
0.9442

> <Gold.Chemscore.Metal>
0.0000

> <Gold.Chemscore.Lipo>
95.4106

> <Gold.Chemscore.Internal_Hbond>
0.0000

> <Gold.Chemscore.DEClash>
0.0411

> <Gold.Chemscore.DEInternal>
1.8542

> <Gold.Chemscore.Rot>
1.8769

> <Gold.Chemscore.Internal.Correction>
   9.000000E+99

> <Gold.Chemscore.Hbonds>
donor molecule, donor type, donor heavy atom, donor atom, acceptor molecule, acceptor atom, score
      L1  H     6    24       P1  8028  0.65
      P1  H  6933  6944       L1    17  0.13

> <Gold.Chemscore.Hbond.Weighted>
-3.1537

> <Gold.Chemscore.Metal.Weighted>
-0.0000

> <Gold.Chemscore.Lipo.Weighted>
-11.1630

> <Gold.Chemscore.Internal_Hbond.Weighted>
0.0000

> <Gold.Chemscore.DEClash.Weighted>
0.0411

> <Gold.Chemscore.DEInternal.Weighted>
1.8542

> <Gold.Chemscore.Rot.Weighted>
4.8049

> <Gold.Chemscore.Internal.Correction.Weighted>
   9.000000E+99

> <Gold.Protein.RotatedTorsions>
[ 6907 6896 6895 6894 ] final -154.17 input  -60.11 | X-H torsion
[ 7974 7965 7964 7962 ] final   94.14 input  175.53 | X-H torsion
[ 8008 7997 7996 7995 ] final   38.33 input   59.86 | X-H torsion
[ 10167 10162 10161 10158 ] final   -8.62 input  -65.29 | X-H torsion
[ 10718 10713 10712 10709 ] final -142.23 input   66.30 | X-H torsion
[ 10763 10752 10751 10750 ] final  154.17 input  -60.55 | X-H torsion
[ 11005 11000 10999 10996 ] final -153.90 input  -57.11 | X-H torsion

> <Gold.Protein.ActiveResidues>
 VAL166  LYS551  ARG553  GLY616  TRP617  ASP618  TYR619  PRO620  LYS621  CYS622 
 ASP623  PHE694  ASN695  SER759  ASP760  ASP761  ALA762  ILE779  LEU786  VAL792 
 PHE793  MET794  SER795  GLU796  ALA797  LYS798  CYS799  TRP800  GLU811  SER814 

> <Gold.Protein.RotatedAtoms>
  151.2535  133.4338  159.2612 H   0  0  0  0  0  0  0  0  0  0  0  0  # atno 6907 bound_to 6896
  151.0595  134.9727  159.8263 H   0  0  0  0  0  0  0  0  0  0  0  0  # atno 6908 bound_to 6896
  152.5396  134.2486  159.8942 H   0  0  0  0  0  0  0  0  0  0  0  0  # atno 6909 bound_to 6896
  145.4695  139.2282  143.2943 H   0  0  0  0  0  0  0  0  0  0  0  0  # atno 7974 bound_to 7965
  155.2184  140.3329  155.4319 H   0  0  0  0  0  0  0  0  0  0  0  0  # atno 8008 bound_to 7997
  156.2343  140.1865  156.7209 H   0  0  0  0  0  0  0  0  0  0  0  0  # atno 8009 bound_to 7997
  154.6031  140.0620  156.9381 H   0  0  0  0  0  0  0  0  0  0  0  0  # atno 8010 bound_to 7997
  140.7064  143.5949  150.8856 H   0  0  0  0  0  0  0  0  0  0  0  0  # atno 10167 bound_to 10162
  156.3435  130.7650  151.1790 H   0  0  0  0  0  0  0  0  0  0  0  0  # atno 10718 bound_to 10713
  154.1481  135.2817  155.3143 H   0  0  0  0  0  0  0  0  0  0  0  0  # atno 10763 bound_to 10752
  154.6238  135.5458  153.7607 H   0  0  0  0  0  0  0  0  0  0  0  0  # atno 10764 bound_to 10752
  153.0229  135.6445  154.1626 H   0  0  0  0  0  0  0  0  0  0  0  0  # atno 10765 bound_to 10752
  140.7031  134.3915  157.5207 H   0  0  0  0  0  0  0  0  0  0  0  0  # atno 11005 bound_to 11000
  146.2405  140.5472  142.8936 LP  0  0  0  0  0  0  0  0  0  0  0  0  # atno 17320 bound_to 7965
  144.7954  140.6112  143.6514 LP  0  0  0  0  0  0  0  0  0  0  0  0  # atno 17321 bound_to 7965
  139.9674  143.6095  152.2984 LP  0  0  0  0  0  0  0  0  0  0  0  0  # atno 17342 bound_to 10162
  139.6670  144.7662  151.1855 LP  0  0  0  0  0  0  0  0  0  0  0  0  # atno 17343 bound_to 10162
  157.7450  131.0448  150.4810 LP  0  0  0  0  0  0  0  0  0  0  0  0  # atno 17370 bound_to 10713
  156.4994  130.4113  149.6361 LP  0  0  0  0  0  0  0  0  0  0  0  0  # atno 17371 bound_to 10713
  139.8891  134.8838  156.2437 LP  0  0  0  0  0  0  0  0  0  0  0  0  # atno 17394 bound_to 11000
  141.0147  133.7075  156.1169 LP  0  0  0  0  0  0  0  0  0  0  0  0  # atno 17395 bound_to 11000

$$$$
