AV-unprocessed.smi:1165|AV-procd|sdf|4933|dock4
  -GOLD-   22720 3513D 1   1.00000     0.00000
 Structure written by MMmdl.
 40 41  0  0  0  0  0  0  0  0  2 V2000
  149.9080  141.5428  156.8878 C   0  0  0  0  0  0  0  0  0  0  0  0
  149.5956  140.1854  156.2315 C   0  0  1  0  0  0  0  0  0  0  0  0
  150.8553  139.3410  155.9612 C   0  0  0  0  0  0  0  0  0  0  0  0
  151.3739  138.7467  157.2023 N   0  0  0  0  0  0  0  0  0  0  0  0
  152.9897  138.0961  157.1773 S   0  0  0  0  0  0  0  0  0  0  0  0
  152.8651  136.7332  157.7167 O   0  0  0  0  0  0  0  0  0  0  0  0
  153.4831  138.2352  155.7962 O   0  0  0  0  0  0  0  0  0  0  0  0
  153.6892  139.1218  158.2317 N   0  5  0  0  0  0  0  0  0  0  0  0
  152.8935  139.9106  159.1673 C   0  0  0  0  0  0  0  0  0  0  0  0
  153.7497  141.0374  159.7840 C   0  0  0  0  0  0  0  0  0  0  0  0
  152.9615  142.2696  160.2165 C   0  0  0  0  0  0  0  0  0  0  0  0
  152.8845  142.6427  161.5762 C   0  0  0  0  0  0  0  0  0  0  0  0
  152.1398  143.7848  161.9278 C   0  0  0  0  0  0  0  0  0  0  0  0
  151.4968  144.5068  160.9033 C   0  0  0  0  0  0  0  0  0  0  0  0
  151.5538  144.1577  159.6002 N   0  0  0  0  0  0  0  0  0  0  0  0
  152.2727  143.0625  159.2715 C   0  0  0  0  0  0  0  0  0  0  0  0
  150.3411  138.0186  157.9592 C   0  0  0  0  0  0  0  0  0  0  0  0
  149.1168  138.9152  158.2083 C   0  0  2  0  0  0  0  0  0  0  0  0
  147.9705  138.1448  158.8734 C   0  0  0  0  0  0  0  0  0  0  0  0
  148.6361  139.4357  156.9735 O   0  0  0  0  0  0  0  0  0  0  0  0
  150.5261  142.1550  156.2305 H   0  0  0  0  0  0  0  0  0  0  0  0
  150.4506  141.4327  157.8265 H   0  0  0  0  0  0  0  0  0  0  0  0
  148.9924  142.0984  157.0909 H   0  0  0  0  0  0  0  0  0  0  0  0
  149.1295  140.4016  155.2699 H   0  0  0  0  0  0  0  0  0  0  0  0
  150.6247  138.5359  155.2627 H   0  0  0  0  0  0  0  0  0  0  0  0
  151.6190  139.9590  155.4900 H   0  0  0  0  0  0  0  0  0  0  0  0
  152.0183  140.3519  158.6899 H   0  0  0  0  0  0  0  0  0  0  0  0
  152.5082  139.2865  159.9743 H   0  0  0  0  0  0  0  0  0  0  0  0
  154.2725  140.6475  160.6580 H   0  0  0  0  0  0  0  0  0  0  0  0
  154.5297  141.3389  159.0833 H   0  0  0  0  0  0  0  0  0  0  0  0
  153.3929  142.0668  162.3356 H   0  0  0  0  0  0  0  0  0  0  0  0
  152.0664  144.1009  162.9577 H   0  0  0  0  0  0  0  0  0  0  0  0
  150.9184  145.3883  161.1373 H   0  0  0  0  0  0  0  0  0  0  0  0
  152.2999  142.8112  158.2213 H   0  0  0  0  0  0  0  0  0  0  0  0
  150.0564  137.1292  157.3956 H   0  0  0  0  0  0  0  0  0  0  0  0
  150.7411  137.6730  158.9118 H   0  0  0  0  0  0  0  0  0  0  0  0
  149.3971  139.7353  158.8698 H   0  0  0  0  0  0  0  0  0  0  0  0
  148.2811  137.7310  159.8331 H   0  0  0  0  0  0  0  0  0  0  0  0
  147.6336  137.3191  158.2463 H   0  0  0  0  0  0  0  0  0  0  0  0
  147.1158  138.7969  159.0540 H   0  0  0  0  0  0  0  0  0  0  0  0
  1  2  1  0  0  0  0
  1 21  1  0  0  0  0
  1 22  1  0  0  0  0
  1 23  1  0  0  0  0
  2 20  1  0  0  0  0
  2  3  1  0  0  0  0
  2 24  1  0  0  0  0
  3  4  1  0  0  0  0
  3 25  1  0  0  0  0
  3 26  1  0  0  0  0
  4  5  1  0  0  0  0
  4 17  1  0  0  0  0
  5  6  2  0  0  0  0
  5  7  2  0  0  0  0
  5  8  1  0  0  0  0
  8  9  1  0  0  0  0
  9 10  1  0  0  0  0
  9 27  1  0  0  0  0
  9 28  1  0  0  0  0
 10 11  1  0  0  0  0
 10 29  1  0  0  0  0
 10 30  1  0  0  0  0
 11 16  1  0  0  0  0
 11 12  2  0  0  0  0
 12 13  1  0  0  0  0
 12 31  1  0  0  0  0
 13 14  2  0  0  0  0
 13 32  1  0  0  0  0
 14 15  1  0  0  0  0
 14 33  1  0  0  0  0
 15 16  2  0  0  0  0
 16 34  1  0  0  0  0
 17 18  1  0  0  0  0
 17 35  1  0  0  0  0
 17 36  1  0  0  0  0
 18 19  1  0  0  0  0
 18 20  1  0  0  0  0
 18 37  1  0  0  0  0
 19 38  1  0  0  0  0
 19 39  1  0  0  0  0
 19 40  1  0  0  0  0
M  CHG  1   8  -1
M  END
> <s_m_source_file>
AV-unprocessed.smi

> <i_m_source_file_index>
1165

> <i_lp_mmshare_version>
43012

> <i_f3d_flags>
0

> <s_epik_input>
W0NIM11bQ0BASF0xW0NIMl1OKFtDSDJdW0NASF0oTzEpW0NIM10pUyg9TykoPU8pW05IXVtDSDJdW0NIMl1jMltjSF1bY0hdW2NIXW5bY0hdMg==

> <s_epik_cmdline>
J2VwaWtfcHl0aG9uJywgJy1waCcsICc3LjAnLCAnLXRuJywgJzgnLCAnLW1hJywgJzIwMCcsICctbWV0YWxfYmluZGluZycsICctaW1hZScsICc8aW5maWxlLm1hZT4nLCAnLW9tYWUnLCAnPG91dGZpbGUubWFlPic=

> <r_epik_Ionization_Penalty>
1.23471

> <r_epik_Ionization_Penalty_Charging>
1.20871

> <r_epik_Ionization_Penalty_Neutral>
0.025996

> <r_epik_State_Penalty>
1.46261

> <r_epik_Charging_Adjusted_Penalty>
2.67132

> <i_epik_Tot_Q>
-1

> <i_epik_Tot_abs_Q>
1

> <r_epik_Metal_State_Penalty>
0.521406

> <b_epik_Metal_Only>
0

> <s_lp_Force_Field>
OPLS_2005

> <r_lp_Energy>
6.37225

> <b_lp_Chiralities_Consistent>
1

> <s_lp_Variant>
AV-unprocessed.smi:1165-6

> <Gold.Version>
5.8.1

> <Gold.Id.Protein>
6NUR|6NUR_protein|mol2

> <Gold.PLP.Fitness>
46.3840

> <Gold.PLP.PLP>
-40.9285

> <Gold.PLP.part.hbond>
-2.3062

> <Gold.PLP.part.metal>
0.0000

> <Gold.PLP.part.buried>
-5.6827

> <Gold.PLP.part.nonpolar>
-32.6875

> <Gold.PLP.part.repulsive>
0.0260

> <Gold.PLP.ligand.clash>
0.0000

> <Gold.PLP.ligand.torsion>
1.2432

> <Gold.PLP.Chemscore.Hbond>
2.1122

> <Gold.PLP.Chemscore.CHOScore>
0.0000

> <Gold.PLP.Chemscore.Metal>
0.0000

> <Gold.Chemscore.Hbonds>
donor molecule, donor type, donor heavy atom, donor atom, acceptor molecule, acceptor atom, score
      P1  H  7997  8009       L1     8  1.89
      P1  H  7997  8010       L1     7  0.13

> <Gold.PLP.Chemscore.Internal.Correction>
1.6053

> <Gold.Rescore>
     Score         DG    S(hbond)    S(metal)    S(lipo)     H(rot)  DE(clash)    DE(int)     intcor
     13.94     -15.38       0.42        0.00     104.79       1.47       0.24       1.20       ----

> <Gold.Chemscore.Fitness>
13.9429

> <Gold.Chemscore.DG>
-15.3841

> <Gold.Chemscore.ZeroCoef>
-5.4800

> <Gold.Chemscore.Hbond>
0.4235

> <Gold.Chemscore.Metal>
0.0000

> <Gold.Chemscore.Lipo>
104.7939

> <Gold.Chemscore.Internal_Hbond>
0.0000

> <Gold.Chemscore.DEClash>
0.2433

> <Gold.Chemscore.DEInternal>
1.1979

> <Gold.Chemscore.Rot>
1.4731

> <Gold.Chemscore.Internal.Correction>
   9.000000E+99

> <Gold.Chemscore.Hbonds>
donor molecule, donor type, donor heavy atom, donor atom, acceptor molecule, acceptor atom, score
      P1  H  7997  8009       L1     8  0.47
      P1  H  7997  8010       L1     7  0.09

> <Gold.Chemscore.Hbond.Weighted>
-1.4144

> <Gold.Chemscore.Metal.Weighted>
-0.0000

> <Gold.Chemscore.Lipo.Weighted>
-12.2609

> <Gold.Chemscore.Internal_Hbond.Weighted>
0.0000

> <Gold.Chemscore.DEClash.Weighted>
0.2433

> <Gold.Chemscore.DEInternal.Weighted>
1.1979

> <Gold.Chemscore.Rot.Weighted>
3.7712

> <Gold.Chemscore.Internal.Correction.Weighted>
   9.000000E+99

> <Gold.Protein.RotatedTorsions>
[ 6907 6896 6895 6894 ] final -118.55 input  -60.11 | X-H torsion
[ 7974 7965 7964 7962 ] final    5.19 input  175.53 | X-H torsion
[ 8008 7997 7996 7995 ] final  123.57 input   59.86 | X-H torsion
[ 10167 10162 10161 10158 ] final -113.60 input  -65.29 | X-H torsion
[ 10718 10713 10712 10709 ] final   73.32 input   66.30 | X-H torsion
[ 10763 10752 10751 10750 ] final  -89.29 input  -60.55 | X-H torsion
[ 11005 11000 10999 10996 ] final  154.02 input  -57.11 | X-H torsion

> <Gold.Protein.ActiveResidues>
 VAL166  LYS551  ARG553  GLY616  TRP617  ASP618  TYR619  PRO620  LYS621  CYS622 
 ASP623  PHE694  ASN695  SER759  ASP760  ASP761  ALA762  ILE779  LEU786  VAL792 
 PHE793  MET794  SER795  GLU796  ALA797  LYS798  CYS799  TRP800  GLU811  SER814 

> <Gold.Protein.RotatedAtoms>
  150.8229  133.8222  159.3130 H   0  0  0  0  0  0  0  0  0  0  0  0  # atno 6907 bound_to 6896
  151.5974  135.1048  160.0062 H   0  0  0  0  0  0  0  0  0  0  0  0  # atno 6908 bound_to 6896
  152.4317  133.7248  159.6610 H   0  0  0  0  0  0  0  0  0  0  0  0  # atno 6909 bound_to 6896
  146.2441  140.0421  142.8381 H   0  0  0  0  0  0  0  0  0  0  0  0  # atno 7974 bound_to 7965
  156.2770  140.2760  156.1648 H   0  0  0  0  0  0  0  0  0  0  0  0  # atno 8008 bound_to 7997
  155.0716  140.0387  157.2628 H   0  0  0  0  0  0  0  0  0  0  0  0  # atno 8009 bound_to 7997
  154.7035  140.2654  155.6702 H   0  0  0  0  0  0  0  0  0  0  0  0  # atno 8010 bound_to 7997
  140.1101  143.4535  152.1758 H   0  0  0  0  0  0  0  0  0  0  0  0  # atno 10167 bound_to 10162
  157.6542  130.9622  150.1052 H   0  0  0  0  0  0  0  0  0  0  0  0  # atno 10718 bound_to 10713
  154.6537  135.5346  153.7932 H   0  0  0  0  0  0  0  0  0  0  0  0  # atno 10763 bound_to 10752
  153.0401  135.6488  154.0978 H   0  0  0  0  0  0  0  0  0  0  0  0  # atno 10764 bound_to 10752
  154.0893  135.2941  155.3254 H   0  0  0  0  0  0  0  0  0  0  0  0  # atno 10765 bound_to 10752
  140.1451  134.8713  157.2382 H   0  0  0  0  0  0  0  0  0  0  0  0  # atno 11005 bound_to 11000
  145.1060  140.9375  143.4685 LP  0  0  0  0  0  0  0  0  0  0  0  0  # atno 17320 bound_to 7965
  145.0625  139.3094  143.5873 LP  0  0  0  0  0  0  0  0  0  0  0  0  # atno 17321 bound_to 7965
  139.5624  144.7414  151.4118 LP  0  0  0  0  0  0  0  0  0  0  0  0  # atno 17342 bound_to 10162
  140.6930  143.7816  150.7284 LP  0  0  0  0  0  0  0  0  0  0  0  0  # atno 17343 bound_to 10162
  156.1964  130.3657  149.8844 LP  0  0  0  0  0  0  0  0  0  0  0  0  # atno 17370 bound_to 10713
  156.6759  130.8839  151.3569 LP  0  0  0  0  0  0  0  0  0  0  0  0  # atno 17371 bound_to 10713
  140.2674  134.3500  155.7385 LP  0  0  0  0  0  0  0  0  0  0  0  0  # atno 17394 bound_to 11000
  141.2191  133.7403  156.9171 LP  0  0  0  0  0  0  0  0  0  0  0  0  # atno 17395 bound_to 11000

$$$$
