AV-unprocessed.smi:1999|AV-procd|sdf|8092|dock1
  -GOLD-   2272010313D 1   1.00000     0.00000
 Structure written by MMmdl.
 38 39  0  0  0  0  0  0  0  0  1 V2000
  150.5494  141.8502  156.2091 C   0  0  0  0  0  0  0  0  0  0  0  0
  150.1245  140.7014  155.3599 C   0  0  0  0  0  0  0  0  0  0  0  0
  150.9914  139.8264  154.8359 N   0  0  0  0  0  0  0  0  0  0  0  0
  150.3592  138.8421  154.0892 N   0  0  0  0  0  0  0  0  0  0  0  0
  149.0290  139.0038  154.0735 C   0  0  0  0  0  0  0  0  0  0  0  0
  148.1361  138.1355  153.3920 N   0  0  0  0  0  0  0  0  0  0  0  0
  146.7918  138.1310  153.4227 C   0  0  0  0  0  0  0  0  0  0  0  0
  146.0921  138.8879  154.0962 O   0  0  0  0  0  0  0  0  0  0  0  0
  146.2925  137.1872  152.6110 N   0  0  0  0  0  0  0  0  0  0  0  0
  144.8734  136.9414  152.3687 C   0  0  2  0  0  0  0  0  0  0  0  0
  144.1807  136.5351  153.6811 C   0  0  0  0  0  0  0  0  0  0  0  0
  144.7432  135.8553  151.2811 C   0  0  0  0  0  0  0  0  0  0  0  0
  145.0192  134.4850  151.7136 N   0  0  0  0  0  0  0  0  0  0  0  0
  144.2177  133.4953  150.9957 C   0  0  0  0  0  0  0  0  0  0  0  0
  144.5478  132.0581  151.4357 C   0  0  0  0  0  0  0  0  0  0  0  0
  145.9389  131.8097  151.2628 O   0  0  0  0  0  0  0  0  0  0  0  0
  146.7523  132.7247  151.9892 C   0  0  0  0  0  0  0  0  0  0  0  0
  146.4319  134.1613  151.5431 C   0  0  0  0  0  0  0  0  0  0  0  0
  148.4367  140.3896  154.9738 S   0  0  0  0  0  0  0  0  0  0  0  0
  151.6308  141.9835  156.1635 H   0  0  0  0  0  0  0  0  0  0  0  0
  150.2623  141.6722  157.2455 H   0  0  0  0  0  0  0  0  0  0  0  0
  150.0706  142.7668  155.8645 H   0  0  0  0  0  0  0  0  0  0  0  0
  148.5722  137.4517  152.7915 H   0  0  0  0  0  0  0  0  0  0  0  0
  146.9435  136.6080  152.1013 H   0  0  0  0  0  0  0  0  0  0  0  0
  144.4282  137.8686  152.0073 H   0  0  0  0  0  0  0  0  0  0  0  0
  143.1129  136.3745  153.5295 H   0  0  0  0  0  0  0  0  0  0  0  0
  144.2862  137.3098  154.4412 H   0  0  0  0  0  0  0  0  0  0  0  0
  144.6009  135.6129  154.0840 H   0  0  0  0  0  0  0  0  0  0  0  0
  143.7424  135.8975  150.8481 H   0  0  0  0  0  0  0  0  0  0  0  0
  145.4258  136.1140  150.4701 H   0  0  0  0  0  0  0  0  0  0  0  0
  143.1558  133.6701  151.1635 H   0  0  0  0  0  0  0  0  0  0  0  0
  144.3857  133.5912  149.9218 H   0  0  0  0  0  0  0  0  0  0  0  0
  144.2707  131.9018  152.4792 H   0  0  0  0  0  0  0  0  0  0  0  0
  143.9808  131.3407  150.8422 H   0  0  0  0  0  0  0  0  0  0  0  0
  146.5813  132.6047  153.0602 H   0  0  0  0  0  0  0  0  0  0  0  0
  147.8016  132.4948  151.8039 H   0  0  0  0  0  0  0  0  0  0  0  0
  146.7160  134.2840  150.4967 H   0  0  0  0  0  0  0  0  0  0  0  0
  147.0436  134.8595  152.1159 H   0  0  0  0  0  0  0  0  0  0  0  0
  1  2  1  0  0  0  0
  1 20  1  0  0  0  0
  1 21  1  0  0  0  0
  1 22  1  0  0  0  0
  2 19  1  0  0  0  0
  2  3  2  0  0  0  0
  3  4  1  0  0  0  0
  4  5  2  0  0  0  0
  5  6  1  0  0  0  0
  5 19  1  0  0  0  0
  6  7  1  0  0  0  0
  6 23  1  0  0  0  0
  7  8  2  0  0  0  0
  7  9  1  0  0  0  0
  9 10  1  0  0  0  0
  9 24  1  0  0  0  0
 10 11  1  0  0  0  0
 10 12  1  0  0  0  0
 10 25  1  0  0  0  0
 11 26  1  0  0  0  0
 11 27  1  0  0  0  0
 11 28  1  0  0  0  0
 12 13  1  0  0  0  0
 12 29  1  0  0  0  0
 12 30  1  0  0  0  0
 13 18  1  0  0  0  0
 13 14  1  0  0  0  0
 14 15  1  0  0  0  0
 14 31  1  0  0  0  0
 14 32  1  0  0  0  0
 15 16  1  0  0  0  0
 15 33  1  0  0  0  0
 15 34  1  0  0  0  0
 16 17  1  0  0  0  0
 17 18  1  0  0  0  0
 17 35  1  0  0  0  0
 17 36  1  0  0  0  0
 18 37  1  0  0  0  0
 18 38  1  0  0  0  0
M  END
> <s_m_source_file>
AV-unprocessed.smi

> <i_m_source_file_index>
1999

> <i_lp_mmshare_version>
43012

> <i_f3d_flags>
0

> <s_epik_input>
W0NIM11jMW5uYyhzMSlbTkhdQyg9TylbTkhdW0NASF0oW0NIM10pW0NIMl1OMltDSDJdW0NIMl1PW0NIMl1bQ0gyXTI=

> <s_epik_cmdline>
J2VwaWtfcHl0aG9uJywgJy1waCcsICc3LjAnLCAnLXRuJywgJzgnLCAnLW1hJywgJzIwMCcsICctbWV0YWxfYmluZGluZycsICctaW1hZScsICc8aW5maWxlLm1hZT4nLCAnLW9tYWUnLCAnPG91dGZpbGUubWFlPic=

> <r_lp_tautomer_probability>
1

> <r_epik_Ionization_Penalty>
0.221412

> <r_epik_Ionization_Penalty_Charging>
0

> <r_epik_Ionization_Penalty_Neutral>
0.221412

> <r_epik_State_Penalty>
0.209349

> <r_epik_Charging_Adjusted_Penalty>
0.209349

> <i_epik_Tot_Q>
0

> <i_epik_Tot_abs_Q>
0

> <r_epik_Metal_State_Penalty>
0.56886

> <b_epik_Metal_Only>
0

> <s_lp_Force_Field>
OPLS_2005

> <r_lp_Energy>
22.1143

> <b_lp_Chiralities_Consistent>
1

> <s_lp_Variant>
AV-unprocessed.smi:1999-1

> <Gold.Version>
5.8.1

> <Gold.Id.Protein>
6NUR|6NUR_protein|mol2

> <Gold.PLP.Fitness>
35.5080

> <Gold.PLP.PLP>
-28.0491

> <Gold.PLP.part.hbond>
-3.2488

> <Gold.PLP.part.metal>
0.0000

> <Gold.PLP.part.buried>
-3.9793

> <Gold.PLP.part.nonpolar>
-21.7114

> <Gold.PLP.part.repulsive>
0.7111

> <Gold.PLP.ligand.clash>
0.0000

> <Gold.PLP.ligand.torsion>
0.5317

> <Gold.PLP.Chemscore.Hbond>
2.8300

> <Gold.PLP.Chemscore.CHOScore>
0.0000

> <Gold.PLP.Chemscore.Metal>
0.0000

> <Gold.Chemscore.Hbonds>
donor molecule, donor type, donor heavy atom, donor atom, acceptor molecule, acceptor atom, score
      L1  H     6    23       P1  7948  1.00
      L1  H     9    24       P1  7948  0.84
      P1  H  7989  7998       L1     3  0.90

> <Gold.PLP.Chemscore.Internal.Correction>
0.0323

> <Gold.Rescore>
     Score         DG    S(hbond)    S(metal)    S(lipo)     H(rot)  DE(clash)    DE(int)     intcor
     12.98     -14.72       1.95        0.00      58.05       1.58       0.08       1.66       ----

> <Gold.Chemscore.Fitness>
12.9825

> <Gold.Chemscore.DG>
-14.7172

> <Gold.Chemscore.ZeroCoef>
-5.4800

> <Gold.Chemscore.Hbond>
1.9458

> <Gold.Chemscore.Metal>
0.0000

> <Gold.Chemscore.Lipo>
58.0543

> <Gold.Chemscore.Internal_Hbond>
0.0000

> <Gold.Chemscore.DEClash>
0.0772

> <Gold.Chemscore.DEInternal>
1.6575

> <Gold.Chemscore.Rot>
1.5837

> <Gold.Chemscore.Internal.Correction>
   9.000000E+99

> <Gold.Chemscore.Hbonds>
donor molecule, donor type, donor heavy atom, donor atom, acceptor molecule, acceptor atom, score
      L1  H     6    23       P1  7948  0.97
      L1  H     9    24       P1  7948  0.79
      P1  H  7989  7998       L1     3  0.05

> <Gold.Chemscore.Hbond.Weighted>
-6.4991

> <Gold.Chemscore.Metal.Weighted>
-0.0000

> <Gold.Chemscore.Lipo.Weighted>
-6.7923

> <Gold.Chemscore.Internal_Hbond.Weighted>
0.0000

> <Gold.Chemscore.DEClash.Weighted>
0.0772

> <Gold.Chemscore.DEInternal.Weighted>
1.6575

> <Gold.Chemscore.Rot.Weighted>
4.0542

> <Gold.Chemscore.Internal.Correction.Weighted>
   9.000000E+99

> <Gold.Protein.RotatedTorsions>
[ 6907 6896 6895 6894 ] final  164.14 input  -60.11 | X-H torsion
[ 7974 7965 7964 7962 ] final  -57.52 input  175.53 | X-H torsion
[ 8008 7997 7996 7995 ] final -173.68 input   59.86 | X-H torsion
[ 10167 10162 10161 10158 ] final  -37.77 input  -65.29 | X-H torsion
[ 10718 10713 10712 10709 ] final  132.90 input   66.30 | X-H torsion
[ 10763 10752 10751 10750 ] final   13.29 input  -60.55 | X-H torsion
[ 11005 11000 10999 10996 ] final  177.87 input  -57.11 | X-H torsion

> <Gold.Protein.ActiveResidues>
 VAL166  LYS551  ARG553  GLY616  TRP617  ASP618  TYR619  PRO620  LYS621  CYS622 
 ASP623  PHE694  ASN695  SER759  ASP760  ASP761  ALA762  ILE779  LEU786  VAL792 
 PHE793  MET794  SER795  GLU796  ALA797  LYS798  CYS799  TRP800  GLU811  SER814 

> <Gold.Protein.RotatedAtoms>
  151.9145  133.3569  159.3874 H   0  0  0  0  0  0  0  0  0  0  0  0  # atno 6907 bound_to 6896
  150.7050  134.4698  159.5429 H   0  0  0  0  0  0  0  0  0  0  0  0  # atno 6908 bound_to 6896
  152.2311  134.8321  160.0524 H   0  0  0  0  0  0  0  0  0  0  0  0  # atno 6909 bound_to 6896
  145.8501  140.8358  142.9990 H   0  0  0  0  0  0  0  0  0  0  0  0  # atno 7974 bound_to 7965
  155.9605  140.1143  157.0900 H   0  0  0  0  0  0  0  0  0  0  0  0  # atno 8008 bound_to 7997
  154.4131  140.1183  156.5239 H   0  0  0  0  0  0  0  0  0  0  0  0  # atno 8009 bound_to 7997
  155.6726  140.3473  155.4826 H   0  0  0  0  0  0  0  0  0  0  0  0  # atno 8010 bound_to 7997
  140.7110  143.3320  151.2547 H   0  0  0  0  0  0  0  0  0  0  0  0  # atno 10167 bound_to 10162
  157.4826  131.1086  150.9662 H   0  0  0  0  0  0  0  0  0  0  0  0  # atno 10718 bound_to 10713
  153.1736  135.6816  153.8574 H   0  0  0  0  0  0  0  0  0  0  0  0  # atno 10763 bound_to 10752
  153.7930  135.3166  155.3382 H   0  0  0  0  0  0  0  0  0  0  0  0  # atno 10764 bound_to 10752
  154.8014  135.4775  154.0378 H   0  0  0  0  0  0  0  0  0  0  0  0  # atno 10765 bound_to 10752
  140.3889  134.6880  157.4495 H   0  0  0  0  0  0  0  0  0  0  0  0  # atno 11005 bound_to 11000
  144.6729  140.0941  143.7464 LP  0  0  0  0  0  0  0  0  0  0  0  0  # atno 17320 bound_to 7965
  145.9367  139.2641  143.1293 LP  0  0  0  0  0  0  0  0  0  0  0  0  # atno 17321 bound_to 7965
  139.6805  143.9862  152.2806 LP  0  0  0  0  0  0  0  0  0  0  0  0  # atno 17342 bound_to 10162
  139.9491  144.6632  150.8190 LP  0  0  0  0  0  0  0  0  0  0  0  0  # atno 17343 bound_to 10162
  157.0390  130.5741  149.5353 LP  0  0  0  0  0  0  0  0  0  0  0  0  # atno 17370 bound_to 10713
  156.0129  130.5222  150.8046 LP  0  0  0  0  0  0  0  0  0  0  0  0  # atno 17371 bound_to 10713
  140.0422  134.6251  155.8966 LP  0  0  0  0  0  0  0  0  0  0  0  0  # atno 17394 bound_to 11000
  141.1898  133.6566  156.5383 LP  0  0  0  0  0  0  0  0  0  0  0  0  # atno 17395 bound_to 11000

$$$$
