AV-unprocessed.smi:1224|AV-procd|sdf|5128|dock3
  -GOLD-   22720 4183D 1   1.00000     0.00000
 Structure written by MMmdl.
 44 46  0  0  0  0  0  0  0  0  2 V2000
  152.6304  143.5309  160.5621 C   0  0  0  0  0  0  0  0  0  0  0  0
  152.2351  142.6725  159.3735 C   0  0  0  0  0  0  0  0  0  0  0  0
  152.8630  141.4196  159.1919 C   0  0  0  0  0  0  0  0  0  0  0  0
  152.5192  140.5884  158.1035 C   0  0  0  0  0  0  0  0  0  0  0  0
  152.9955  139.3410  157.7386 N   0  0  0  0  0  0  0  0  0  0  0  0
  152.2827  139.0906  156.6444 C   0  0  0  0  0  0  0  0  0  0  0  0
  151.3937  140.0273  156.2607 N   0  0  0  0  0  0  0  0  0  0  0  0
  150.4999  139.9736  155.1177 C   0  0  0  0  0  0  0  0  0  0  0  0
  150.4721  138.5793  154.4621 C   0  0  2  0  0  0  0  0  0  0  0  0
  149.8449  138.6699  153.1967 O   0  0  0  0  0  0  0  0  0  0  0  0
  149.7072  137.5553  155.3150 C   0  0  0  0  0  0  0  0  0  0  0  0
  149.8109  136.1985  154.7365 N   0  3  0  0  0  0  0  0  0  0  0  0
  148.9790  135.1718  155.3967 C   0  0  0  0  0  0  0  0  0  0  0  0
  149.2350  133.8016  154.8579 C   0  0  0  0  0  0  0  0  0  0  0  0
  150.0249  132.8190  155.3995 C   0  0  0  0  0  0  0  0  0  0  0  0
  150.0318  131.6184  154.6304 C   0  0  0  0  0  0  0  0  0  0  0  0
  149.2466  131.7004  153.5113 C   0  0  0  0  0  0  0  0  0  0  0  0
  148.4822  133.2600  153.3784 S   0  0  0  0  0  0  0  0  0  0  0  0
  151.5208  141.0483  157.1959 C   0  0  0  0  0  0  0  0  0  0  0  0
  150.8928  142.2952  157.3624 C   0  0  0  0  0  0  0  0  0  0  0  0
  151.2487  143.1133  158.4549 C   0  0  0  0  0  0  0  0  0  0  0  0
  150.5635  144.4573  158.6279 C   0  0  0  0  0  0  0  0  0  0  0  0
  153.4312  143.0674  161.1390 H   0  0  0  0  0  0  0  0  0  0  0  0
  151.7787  143.6751  161.2271 H   0  0  0  0  0  0  0  0  0  0  0  0
  152.9809  144.5085  160.2308 H   0  0  0  0  0  0  0  0  0  0  0  0
  153.6150  141.0842  159.8910 H   0  0  0  0  0  0  0  0  0  0  0  0
  152.4074  138.1690  156.0947 H   0  0  0  0  0  0  0  0  0  0  0  0
  149.5010  140.2539  155.4547 H   0  0  0  0  0  0  0  0  0  0  0  0
  150.8098  140.7301  154.3950 H   0  0  0  0  0  0  0  0  0  0  0  0
  151.4964  138.2346  154.3125 H   0  0  0  0  0  0  0  0  0  0  0  0
  149.3912  137.8575  153.0273 H   0  0  0  0  0  0  0  0  0  0  0  0
  150.1200  137.5304  156.3245 H   0  0  0  0  0  0  0  0  0  0  0  0
  148.6617  137.8530  155.4058 H   0  0  0  0  0  0  0  0  0  0  0  0
  149.5442  136.2475  153.7633 H   0  0  0  0  0  0  0  0  0  0  0  0
  149.2016  135.1881  156.4638 H   0  0  0  0  0  0  0  0  0  0  0  0
  147.9251  135.4343  155.2952 H   0  0  0  0  0  0  0  0  0  0  0  0
  150.5914  132.9173  156.3138 H   0  0  0  0  0  0  0  0  0  0  0  0
  150.6036  130.7493  154.9207 H   0  0  0  0  0  0  0  0  0  0  0  0
  149.0718  130.9439  152.7600 H   0  0  0  0  0  0  0  0  0  0  0  0
  150.1427  142.6186  156.6563 H   0  0  0  0  0  0  0  0  0  0  0  0
  149.8244  144.6313  157.8454 H   0  0  0  0  0  0  0  0  0  0  0  0
  151.2933  145.2660  158.5839 H   0  0  0  0  0  0  0  0  0  0  0  0
  150.0509  144.5046  159.5889 H   0  0  0  0  0  0  0  0  0  0  0  0
  150.7769  135.9086  154.7899 H   0  0  0  0  0  0  0  0  0  0  0  0
  1  2  1  0  0  0  0
  1 23  1  0  0  0  0
  1 24  1  0  0  0  0
  1 25  1  0  0  0  0
  2 21  1  0  0  0  0
  2  3  2  0  0  0  0
  3  4  1  0  0  0  0
  3 26  1  0  0  0  0
  4 19  2  0  0  0  0
  4  5  1  0  0  0  0
  5  6  2  0  0  0  0
  6  7  1  0  0  0  0
  6 27  1  0  0  0  0
  7  8  1  0  0  0  0
  7 19  1  0  0  0  0
  8  9  1  0  0  0  0
  8 28  1  0  0  0  0
  8 29  1  0  0  0  0
  9 10  1  0  0  0  0
  9 11  1  0  0  0  0
  9 30  1  0  0  0  0
 10 31  1  0  0  0  0
 11 12  1  0  0  0  0
 11 32  1  0  0  0  0
 11 33  1  0  0  0  0
 12 13  1  0  0  0  0
 12 34  1  0  0  0  0
 12 44  1  0  0  0  0
 13 14  1  0  0  0  0
 13 35  1  0  0  0  0
 13 36  1  0  0  0  0
 14 18  1  0  0  0  0
 14 15  2  0  0  0  0
 15 16  1  0  0  0  0
 15 37  1  0  0  0  0
 16 17  2  0  0  0  0
 16 38  1  0  0  0  0
 17 18  1  0  0  0  0
 17 39  1  0  0  0  0
 19 20  1  0  0  0  0
 20 21  2  0  0  0  0
 20 40  1  0  0  0  0
 21 22  1  0  0  0  0
 22 41  1  0  0  0  0
 22 42  1  0  0  0  0
 22 43  1  0  0  0  0
M  CHG  1  12   1
M  END
> <s_m_source_file>
AV-unprocessed.smi

> <i_m_source_file_index>
1224

> <i_lp_mmshare_version>
43012

> <i_f3d_flags>
0

> <s_epik_input>
W0NIM11jKFtjSF0xKWMoW0NIM10pW2NIXWMoYzEyKW4oW2NIXW4yKVtDSDJdW0NASF0oW09IXSlbQ0gyXVtOSF1bQ0gyXWMzW2NIXVtjSF1bY0hdczM=

> <s_epik_cmdline>
J2VwaWtfcHl0aG9uJywgJy1waCcsICc3LjAnLCAnLXRuJywgJzgnLCAnLW1hJywgJzIwMCcsICctbWV0YWxfYmluZGluZycsICctaW1hZScsICc8aW5maWxlLm1hZT4nLCAnLW9tYWUnLCAnPG91dGZpbGUubWFlPic=

> <r_epik_Ionization_Penalty>
0.145091

> <r_epik_Ionization_Penalty_Charging>
0.0551904

> <r_epik_Ionization_Penalty_Neutral>
0.0899003

> <r_epik_State_Penalty>
0.131364

> <r_epik_Charging_Adjusted_Penalty>
0.186554

> <i_epik_Tot_Q>
1

> <i_epik_Tot_abs_Q>
1

> <r_epik_Metal_State_Penalty>
0.0472291

> <b_epik_Metal_Only>
0

> <s_lp_Force_Field>
OPLS_2005

> <r_lp_Energy>
7.24279

> <b_lp_Chiralities_Consistent>
1

> <s_lp_Variant>
AV-unprocessed.smi:1224-1

> <Gold.Version>
5.8.1

> <Gold.Id.Protein>
6NUR|6NUR_protein|mol2

> <Gold.PLP.Fitness>
58.3035

> <Gold.PLP.PLP>
-45.1609

> <Gold.PLP.part.hbond>
-3.7228

> <Gold.PLP.part.metal>
0.0000

> <Gold.PLP.part.buried>
-2.8841

> <Gold.PLP.part.nonpolar>
-36.9394

> <Gold.PLP.part.repulsive>
0.0400

> <Gold.PLP.ligand.clash>
0.0000

> <Gold.PLP.ligand.torsion>
0.5198

> <Gold.PLP.Chemscore.Hbond>
3.6920

> <Gold.PLP.Chemscore.CHOScore>
1.0000

> <Gold.PLP.Chemscore.Metal>
0.0000

> <Gold.Chemscore.Hbonds>
donor molecule, donor type, donor heavy atom, donor atom, acceptor molecule, acceptor atom, score
      L1  H    10    31       P1  7948  1.00
      L1  H    12    34       P1  7948  2.00
      P1  H  7997  8009       L1     5  0.70
      L1  C    17    39       P1 10747  1.00

> <Gold.PLP.Chemscore.Internal.Correction>
0.1061

> <Gold.Rescore>
     Score         DG    S(hbond)    S(metal)    S(lipo)     H(rot)  DE(clash)    DE(int)     intcor
     19.82     -20.13       1.86        0.00     125.16       2.42       0.02       0.28       ----

> <Gold.Chemscore.Fitness>
19.8249

> <Gold.Chemscore.DG>
-20.1252

> <Gold.Chemscore.ZeroCoef>
-5.4800

> <Gold.Chemscore.Hbond>
1.8584

> <Gold.Chemscore.Metal>
0.0000

> <Gold.Chemscore.Lipo>
125.1580

> <Gold.Chemscore.Internal_Hbond>
0.0000

> <Gold.Chemscore.DEClash>
0.0212

> <Gold.Chemscore.DEInternal>
0.2790

> <Gold.Chemscore.Rot>
2.4240

> <Gold.Chemscore.Internal.Correction>
   9.000000E+99

> <Gold.Chemscore.Hbonds>
donor molecule, donor type, donor heavy atom, donor atom, acceptor molecule, acceptor atom, score
      L1  H    10    31       P1  7948  0.84
      L1  H    12    34       P1  7948  0.60
      P1  H  7997  8009       L1     5  0.03

> <Gold.Chemscore.Hbond.Weighted>
-6.2072

> <Gold.Chemscore.Metal.Weighted>
-0.0000

> <Gold.Chemscore.Lipo.Weighted>
-14.6435

> <Gold.Chemscore.Internal_Hbond.Weighted>
0.0000

> <Gold.Chemscore.DEClash.Weighted>
0.0212

> <Gold.Chemscore.DEInternal.Weighted>
0.2790

> <Gold.Chemscore.Rot.Weighted>
6.2055

> <Gold.Chemscore.Internal.Correction.Weighted>
   9.000000E+99

> <Gold.Protein.RotatedTorsions>
[ 6907 6896 6895 6894 ] final  -26.77 input  -60.11 | X-H torsion
[ 7974 7965 7964 7962 ] final  -87.89 input  175.53 | X-H torsion
[ 8008 7997 7996 7995 ] final  151.56 input   59.86 | X-H torsion
[ 10167 10162 10161 10158 ] final  -30.58 input  -65.29 | X-H torsion
[ 10718 10713 10712 10709 ] final   19.49 input   66.30 | X-H torsion
[ 10763 10752 10751 10750 ] final   40.10 input  -60.55 | X-H torsion
[ 11005 11000 10999 10996 ] final   21.53 input  -57.11 | X-H torsion

> <Gold.Protein.ActiveResidues>
 VAL166  LYS551  ARG553  GLY616  TRP617  ASP618  TYR619  PRO620  LYS621  CYS622 
 ASP623  PHE694  ASN695  SER759  ASP760  ASP761  ALA762  ILE779  LEU786  VAL792 
 PHE793  MET794  SER795  GLU796  ALA797  LYS798  CYS799  TRP800  GLU811  SER814 

> <Gold.Protein.RotatedAtoms>
  151.1563  135.0252  159.8690 H   0  0  0  0  0  0  0  0  0  0  0  0  # atno 6907 bound_to 6896
  152.5452  134.1330  159.8457 H   0  0  0  0  0  0  0  0  0  0  0  0  # atno 6908 bound_to 6896
  151.1421  133.4918  159.2629 H   0  0  0  0  0  0  0  0  0  0  0  0  # atno 6909 bound_to 6896
  145.4605  140.9561  143.1972 H   0  0  0  0  0  0  0  0  0  0  0  0  # atno 7974 bound_to 7965
  156.2668  140.2044  156.6194 H   0  0  0  0  0  0  0  0  0  0  0  0  # atno 8008 bound_to 7997
  154.6768  140.0544  157.0248 H   0  0  0  0  0  0  0  0  0  0  0  0  # atno 8009 bound_to 7997
  155.1057  140.3210  155.4538 H   0  0  0  0  0  0  0  0  0  0  0  0  # atno 8010 bound_to 7997
  140.7247  143.3837  151.1554 H   0  0  0  0  0  0  0  0  0  0  0  0  # atno 10167 bound_to 10162
  157.1112  130.6509  149.5898 H   0  0  0  0  0  0  0  0  0  0  0  0  # atno 10718 bound_to 10713
  152.9946  135.6201  154.2572 H   0  0  0  0  0  0  0  0  0  0  0  0  # atno 10763 bound_to 10752
  154.2309  135.2792  155.2892 H   0  0  0  0  0  0  0  0  0  0  0  0  # atno 10764 bound_to 10752
  154.5450  135.5750  153.6931 H   0  0  0  0  0  0  0  0  0  0  0  0  # atno 10765 bound_to 10752
  140.3905  134.1824  155.7662 H   0  0  0  0  0  0  0  0  0  0  0  0  # atno 11005 bound_to 11000
  144.8006  139.6149  143.7073 LP  0  0  0  0  0  0  0  0  0  0  0  0  # atno 17320 bound_to 7965
  146.2454  139.6087  142.9463 LP  0  0  0  0  0  0  0  0  0  0  0  0  # atno 17321 bound_to 7965
  139.7431  143.8894  152.3055 LP  0  0  0  0  0  0  0  0  0  0  0  0  # atno 17342 bound_to 10162
  139.8722  144.7062  150.8974 LP  0  0  0  0  0  0  0  0  0  0  0  0  # atno 17343 bound_to 10162
  155.9850  130.4878  150.7010 LP  0  0  0  0  0  0  0  0  0  0  0  0  # atno 17370 bound_to 10713
  157.4558  131.0877  151.0798 LP  0  0  0  0  0  0  0  0  0  0  0  0  # atno 17371 bound_to 10713
  141.1892  133.8243  157.0965 LP  0  0  0  0  0  0  0  0  0  0  0  0  # atno 17394 bound_to 11000
  140.0410  134.9854  157.0961 LP  0  0  0  0  0  0  0  0  0  0  0  0  # atno 17395 bound_to 11000

$$$$
