AV-unprocessed.smi:1808|AV-procd|sdf|7305|dock3
  -GOLD-   22720 8563D 1   1.00000     0.00000
 Structure written by MMmdl.
 28 29  0  0  0  0  0  0  0  0  1 V2000
  150.7480  140.6109  156.3514 O   0  0  0  0  0  0  0  0  0  0  0  0
  150.3238  141.7253  156.0434 C   0  0  0  0  0  0  0  0  0  0  0  0
  150.8282  142.8680  156.5306 N   0  0  0  0  0  0  0  0  0  0  0  0
  151.9389  142.9571  157.4714 C   0  0  0  0  0  0  0  0  0  0  0  0
  151.5193  143.6576  158.7738 C   0  0  2  0  0  0  0  0  0  0  0  0
  152.0122  145.0990  158.8829 C   0  0  0  0  0  0  0  0  0  0  0  0
  152.0166  145.3034  160.3802 C   0  0  0  0  0  0  0  0  0  0  0  0
  152.5084  143.9468  160.8759 C   0  0  0  0  0  0  0  0  0  0  0  0
  152.0803  142.9945  159.9052 O   0  0  0  0  0  0  0  0  0  0  0  0
  149.3155  141.9645  155.1869 N   0  0  0  0  0  0  0  0  0  0  0  0
  148.5110  141.0224  154.4934 C   0  0  0  0  0  0  0  0  0  0  0  0
  148.7725  139.7118  154.4251 N   0  0  0  0  0  0  0  0  0  0  0  0
  147.8098  139.0227  153.6831 C   0  0  0  0  0  0  0  0  0  0  0  0
  146.8148  139.8299  153.1905 C   0  0  0  0  0  0  0  0  0  0  0  0
  147.0491  141.4978  153.6412 S   0  0  0  0  0  0  0  0  0  0  0  0
  150.4256  143.7399  156.2199 H   0  0  0  0  0  0  0  0  0  0  0  0
  152.2920  141.9479  157.6849 H   0  0  0  0  0  0  0  0  0  0  0  0
  152.7746  143.4863  157.0101 H   0  0  0  0  0  0  0  0  0  0  0  0
  150.4333  143.6491  158.8821 H   0  0  0  0  0  0  0  0  0  0  0  0
  153.0260  145.1925  158.4908 H   0  0  0  0  0  0  0  0  0  0  0  0
  151.3730  145.8076  158.3552 H   0  0  0  0  0  0  0  0  0  0  0  0
  152.6489  146.1315  160.7010 H   0  0  0  0  0  0  0  0  0  0  0  0
  151.0016  145.4886  160.7348 H   0  0  0  0  0  0  0  0  0  0  0  0
  153.5980  143.9292  160.9185 H   0  0  0  0  0  0  0  0  0  0  0  0
  152.1272  143.7046  161.8681 H   0  0  0  0  0  0  0  0  0  0  0  0
  149.0896  142.9338  155.0197 H   0  0  0  0  0  0  0  0  0  0  0  0
  147.9101  137.9549  153.5566 H   0  0  0  0  0  0  0  0  0  0  0  0
  145.9614  139.5450  152.5932 H   0  0  0  0  0  0  0  0  0  0  0  0
  1  2  2  0  0  0  0
  2  3  1  0  0  0  0
  2 10  1  0  0  0  0
  3  4  1  0  0  0  0
  3 16  1  0  0  0  0
  4  5  1  0  0  0  0
  4 17  1  0  0  0  0
  4 18  1  0  0  0  0
  5  9  1  0  0  0  0
  5  6  1  0  0  0  0
  5 19  1  0  0  0  0
  6  7  1  0  0  0  0
  6 20  1  0  0  0  0
  6 21  1  0  0  0  0
  7  8  1  0  0  0  0
  7 22  1  0  0  0  0
  7 23  1  0  0  0  0
  8  9  1  0  0  0  0
  8 24  1  0  0  0  0
  8 25  1  0  0  0  0
 10 11  1  0  0  0  0
 10 26  1  0  0  0  0
 11 15  1  0  0  0  0
 11 12  2  0  0  0  0
 12 13  1  0  0  0  0
 13 14  2  0  0  0  0
 13 27  1  0  0  0  0
 14 15  1  0  0  0  0
 14 28  1  0  0  0  0
M  END
> <s_m_source_file>
AV-unprocessed.smi

> <i_m_source_file_index>
1808

> <i_lp_mmshare_version>
43012

> <i_f3d_flags>
0

> <s_epik_input>
czFbY0hdW2NIXW5jMVtOSF1DKD1PKVtOSF1bQ0gyXVtDQEBIXTJbQ0gyXVtDSDJdW0NIMl1PMg==

> <s_epik_cmdline>
J2VwaWtfcHl0aG9uJywgJy1waCcsICc3LjAnLCAnLXRuJywgJzgnLCAnLW1hJywgJzIwMCcsICctbWV0YWxfYmluZGluZycsICctaW1hZScsICc8aW5maWxlLm1hZT4nLCAnLW9tYWUnLCAnPG91dGZpbGUubWFlPic=

> <r_lp_tautomer_probability>
0.999

> <r_epik_Ionization_Penalty>
0.000333847

> <r_epik_Ionization_Penalty_Charging>
0

> <r_epik_Ionization_Penalty_Neutral>
0.000333847

> <r_epik_State_Penalty>
0.000177984

> <r_epik_Charging_Adjusted_Penalty>
0.000177984

> <i_epik_Tot_Q>
0

> <i_epik_Tot_abs_Q>
0

> <r_epik_Metal_State_Penalty>
0.00767616

> <b_epik_Metal_Only>
0

> <s_lp_Force_Field>
OPLS_2005

> <r_lp_Energy>
15.026

> <b_lp_Chiralities_Consistent>
1

> <s_lp_Variant>
AV-unprocessed.smi:1808-1

> <Gold.Version>
5.8.1

> <Gold.Id.Protein>
6NUR|6NUR_protein|mol2

> <Gold.PLP.Fitness>
41.7939

> <Gold.PLP.PLP>
-31.1069

> <Gold.PLP.part.hbond>
-2.0000

> <Gold.PLP.part.metal>
0.0000

> <Gold.PLP.part.buried>
-5.9926

> <Gold.PLP.part.nonpolar>
-24.2838

> <Gold.PLP.part.repulsive>
0.4053

> <Gold.PLP.ligand.clash>
0.0000

> <Gold.PLP.ligand.torsion>
0.6334

> <Gold.PLP.Chemscore.Hbond>
2.0000

> <Gold.PLP.Chemscore.CHOScore>
1.9837

> <Gold.PLP.Chemscore.Metal>
0.0000

> <Gold.Chemscore.Hbonds>
donor molecule, donor type, donor heavy atom, donor atom, acceptor molecule, acceptor atom, score
      L1  H     3    16       P1  8028  1.00
      L1  H    10    26       P1  8028  1.00
      L1  C    13    27       P1  7948  0.77
      L1  C    14    28       P1 10175  1.00

> <Gold.PLP.Chemscore.Internal.Correction>
0.0026

> <Gold.Rescore>
     Score         DG    S(hbond)    S(metal)    S(lipo)     H(rot)  DE(clash)    DE(int)     intcor
     15.36     -17.84       1.97        0.00      78.34       1.32       0.86       1.61       ----

> <Gold.Chemscore.Fitness>
15.3635

> <Gold.Chemscore.DG>
-17.8398

> <Gold.Chemscore.ZeroCoef>
-5.4800

> <Gold.Chemscore.Hbond>
1.9653

> <Gold.Chemscore.Metal>
0.0000

> <Gold.Chemscore.Lipo>
78.3388

> <Gold.Chemscore.Internal_Hbond>
0.0000

> <Gold.Chemscore.DEClash>
0.8638

> <Gold.Chemscore.DEInternal>
1.6125

> <Gold.Chemscore.Rot>
1.3163

> <Gold.Chemscore.Internal.Correction>
   9.000000E+99

> <Gold.Chemscore.Hbonds>
donor molecule, donor type, donor heavy atom, donor atom, acceptor molecule, acceptor atom, score
      L1  H     3    16       P1  8028  0.94
      L1  H    10    26       P1  8028  0.95

> <Gold.Chemscore.Hbond.Weighted>
-6.5640

> <Gold.Chemscore.Metal.Weighted>
-0.0000

> <Gold.Chemscore.Lipo.Weighted>
-9.1656

> <Gold.Chemscore.Internal_Hbond.Weighted>
0.0000

> <Gold.Chemscore.DEClash.Weighted>
0.8638

> <Gold.Chemscore.DEInternal.Weighted>
1.6125

> <Gold.Chemscore.Rot.Weighted>
3.3698

> <Gold.Chemscore.Internal.Correction.Weighted>
   9.000000E+99

> <Gold.Protein.RotatedTorsions>
[ 6907 6896 6895 6894 ] final -117.48 input  -60.11 | X-H torsion
[ 7974 7965 7964 7962 ] final  -70.34 input  175.53 | X-H torsion
[ 8008 7997 7996 7995 ] final -166.82 input   59.86 | X-H torsion
[ 10167 10162 10161 10158 ] final -103.65 input  -65.29 | X-H torsion
[ 10718 10713 10712 10709 ] final  -60.98 input   66.30 | X-H torsion
[ 10763 10752 10751 10750 ] final -126.21 input  -60.55 | X-H torsion
[ 11005 11000 10999 10996 ] final  178.39 input  -57.11 | X-H torsion

> <Gold.Protein.ActiveResidues>
 VAL166  LYS551  ARG553  GLY616  TRP617  ASP618  TYR619  PRO620  LYS621  CYS622 
 ASP623  PHE694  ASN695  SER759  ASP760  ASP761  ALA762  ILE779  LEU786  VAL792 
 PHE793  MET794  SER795  GLU796  ALA797  LYS798  CYS799  TRP800  GLU811  SER814 

> <Gold.Protein.RotatedAtoms>
  150.8140  133.8370  159.3168 H   0  0  0  0  0  0  0  0  0  0  0  0  # atno 6907 bound_to 6896
  151.6147  135.1035  160.0098 H   0  0  0  0  0  0  0  0  0  0  0  0  # atno 6908 bound_to 6896
  152.4232  133.7110  159.6536 H   0  0  0  0  0  0  0  0  0  0  0  0  # atno 6909 bound_to 6896
  145.6922  140.9148  143.0775 H   0  0  0  0  0  0  0  0  0  0  0  0  # atno 7974 bound_to 7965
  155.8692  140.0990  157.1562 H   0  0  0  0  0  0  0  0  0  0  0  0  # atno 8008 bound_to 7997
  154.3996  140.1350  156.4119 H   0  0  0  0  0  0  0  0  0  0  0  0  # atno 8009 bound_to 7997
  155.7770  140.3459  155.5279 H   0  0  0  0  0  0  0  0  0  0  0  0  # atno 8010 bound_to 7997
  140.2177  143.3699  152.0997 H   0  0  0  0  0  0  0  0  0  0  0  0  # atno 10167 bound_to 10162
  156.0953  130.4194  150.0929 H   0  0  0  0  0  0  0  0  0  0  0  0  # atno 10718 bound_to 10713
  154.8743  135.4003  154.3394 H   0  0  0  0  0  0  0  0  0  0  0  0  # atno 10763 bound_to 10752
  153.4196  135.7023  153.6308 H   0  0  0  0  0  0  0  0  0  0  0  0  # atno 10764 bound_to 10752
  153.4976  135.3734  155.2494 H   0  0  0  0  0  0  0  0  0  0  0  0  # atno 10765 bound_to 10752
  140.3946  134.6832  157.4527 H   0  0  0  0  0  0  0  0  0  0  0  0  # atno 11005 bound_to 11000
  144.6993  139.8837  143.7449 LP  0  0  0  0  0  0  0  0  0  0  0  0  # atno 17320 bound_to 7965
  146.0871  139.3860  143.0428 LP  0  0  0  0  0  0  0  0  0  0  0  0  # atno 17321 bound_to 7965
  139.5156  144.6965  151.5616 LP  0  0  0  0  0  0  0  0  0  0  0  0  # atno 17342 bound_to 10162
  140.6278  143.9135  150.6579 LP  0  0  0  0  0  0  0  0  0  0  0  0  # atno 17343 bound_to 10162
  156.8930  130.9595  151.3586 LP  0  0  0  0  0  0  0  0  0  0  0  0  # atno 17370 bound_to 10713
  157.6113  130.8585  149.8956 LP  0  0  0  0  0  0  0  0  0  0  0  0  # atno 17371 bound_to 10713
  140.0381  134.6307  155.9016 LP  0  0  0  0  0  0  0  0  0  0  0  0  # atno 17394 bound_to 11000
  141.1879  133.6561  156.5300 LP  0  0  0  0  0  0  0  0  0  0  0  0  # atno 17395 bound_to 11000

$$$$
