AV-unprocessed.smi:2209|AV-procd|sdf|8947|dock10
  -GOLD-   2272012163D 1   1.00000     0.00000
 Structure written by MMmdl.
 26 27  0  0  0  0  0  0  0  0  2 V2000
  152.1874  141.1140  159.3068 C   0  0  0  0  0  0  0  0  0  0  0  0
  151.9395  140.6443  157.9137 C   0  0  0  0  0  0  0  0  0  0  0  0
  152.8154  139.8774  157.2761 N   0  0  0  0  0  0  0  0  0  0  0  0
  152.2142  139.6687  156.0265 O   0  0  0  0  0  0  0  0  0  0  0  0
  151.0390  140.3418  156.0640 C   0  0  0  0  0  0  0  0  0  0  0  0
  150.1483  140.3113  154.8615 C   0  0  2  0  0  0  0  0  0  0  0  0
  148.8721  141.1498  155.0647 C   0  0  0  0  0  0  0  0  0  0  0  0
  147.9787  141.0822  153.8164 C   0  0  0  0  0  0  0  0  0  0  0  0
  147.6769  139.6238  153.4339 C   0  0  0  0  0  0  0  0  0  0  0  0
  148.9312  138.8646  153.2382 N   0  3  0  0  0  0  0  0  0  0  0  0
  149.8045  138.8701  154.4331 C   0  0  0  0  0  0  0  0  0  0  0  0
  150.8142  140.9661  157.2184 N   0  0  0  0  0  0  0  0  0  0  0  0
  153.1454  140.7486  159.6786 H   0  0  0  0  0  0  0  0  0  0  0  0
  151.4008  140.7548  159.9707 H   0  0  0  0  0  0  0  0  0  0  0  0
  152.1986  142.2036  159.3399 H   0  0  0  0  0  0  0  0  0  0  0  0
  150.7084  140.7677  154.0434 H   0  0  0  0  0  0  0  0  0  0  0  0
  148.3172  140.7797  155.9279 H   0  0  0  0  0  0  0  0  0  0  0  0
  149.1310  142.1867  155.2820 H   0  0  0  0  0  0  0  0  0  0  0  0
  147.0481  141.6221  153.9942 H   0  0  0  0  0  0  0  0  0  0  0  0
  148.4734  141.5841  152.9837 H   0  0  0  0  0  0  0  0  0  0  0  0
  147.0812  139.1422  154.2107 H   0  0  0  0  0  0  0  0  0  0  0  0
  147.0918  139.5873  152.5146 H   0  0  0  0  0  0  0  0  0  0  0  0
  148.7026  137.9090  153.0037 H   0  0  0  0  0  0  0  0  0  0  0  0
  150.7142  138.3134  154.2060 H   0  0  0  0  0  0  0  0  0  0  0  0
  149.3004  138.3397  155.2425 H   0  0  0  0  0  0  0  0  0  0  0  0
  149.4375  139.2763  152.4670 H   0  0  0  0  0  0  0  0  0  0  0  0
  1  2  1  0  0  0  0
  1 13  1  0  0  0  0
  1 14  1  0  0  0  0
  1 15  1  0  0  0  0
  2 12  1  0  0  0  0
  2  3  2  0  0  0  0
  3  4  1  0  0  0  0
  4  5  1  0  0  0  0
  5  6  1  0  0  0  0
  5 12  2  0  0  0  0
  6 11  1  0  0  0  0
  6  7  1  0  0  0  0
  6 16  1  0  0  0  0
  7  8  1  0  0  0  0
  7 17  1  0  0  0  0
  7 18  1  0  0  0  0
  8  9  1  0  0  0  0
  8 19  1  0  0  0  0
  8 20  1  0  0  0  0
  9 10  1  0  0  0  0
  9 21  1  0  0  0  0
  9 22  1  0  0  0  0
 10 11  1  0  0  0  0
 10 23  1  0  0  0  0
 10 26  1  0  0  0  0
 11 24  1  0  0  0  0
 11 25  1  0  0  0  0
M  CHG  1  10   1
M  END
> <s_m_source_file>
AV-unprocessed.smi

> <i_m_source_file_index>
2209

> <i_lp_mmshare_version>
43012

> <i_f3d_flags>
0

> <s_epik_input>
W0NIM11jMW5vYyhuMSlbQ0BASF0yW0NIMl1bQ0gyXVtDSDJdW05IXVtDSDJdMg==

> <s_epik_cmdline>
J2VwaWtfcHl0aG9uJywgJy1waCcsICc3LjAnLCAnLXRuJywgJzgnLCAnLW1hJywgJzIwMCcsICctbWV0YWxfYmluZGluZycsICctaW1hZScsICc8aW5maWxlLm1hZT4nLCAnLW9tYWUnLCAnPG91dGZpbGUubWFlPic=

> <r_lp_tautomer_probability>
1

> <r_epik_Ionization_Penalty>
0.000532935

> <r_epik_Ionization_Penalty_Charging>
0.000532935

> <r_epik_Ionization_Penalty_Neutral>
4.97553e-13

> <r_epik_State_Penalty>
0.000332992

> <r_epik_Charging_Adjusted_Penalty>
0.000865928

> <i_epik_Tot_Q>
1

> <i_epik_Tot_abs_Q>
1

> <r_epik_Metal_State_Penalty>
-0

> <b_epik_Metal_Only>
0

> <s_lp_Force_Field>
OPLS_2005

> <r_lp_Energy>
10.4199

> <b_lp_Chiralities_Consistent>
1

> <s_lp_Variant>
AV-unprocessed.smi:2209-1

> <Gold.Version>
5.8.1

> <Gold.Id.Protein>
6NUR|6NUR_protein|mol2

> <Gold.PLP.Fitness>
34.0939

> <Gold.PLP.PLP>
-22.1024

> <Gold.PLP.part.hbond>
-3.3976

> <Gold.PLP.part.metal>
0.0000

> <Gold.PLP.part.buried>
-0.3545

> <Gold.PLP.part.nonpolar>
-18.2598

> <Gold.PLP.part.repulsive>
0.1160

> <Gold.PLP.ligand.clash>
0.0000

> <Gold.PLP.ligand.torsion>
0.0210

> <Gold.PLP.Chemscore.Hbond>
4.0000

> <Gold.PLP.Chemscore.CHOScore>
0.0000

> <Gold.PLP.Chemscore.Metal>
0.0000

> <Gold.Chemscore.Hbonds>
donor molecule, donor type, donor heavy atom, donor atom, acceptor molecule, acceptor atom, score
      L1  H    10    23       P1  7948  2.00
      L1  H    10    26       P1  7957  0.96
      P1  H  7997  8010       L1     3  1.00

> <Gold.PLP.Chemscore.Internal.Correction>
0.0335

> <Gold.Rescore>
     Score         DG    S(hbond)    S(metal)    S(lipo)     H(rot)  DE(clash)    DE(int)     intcor
     16.76     -16.81       2.77        0.00      39.69       1.00       0.01       0.05       ----

> <Gold.Chemscore.Fitness>
16.7606

> <Gold.Chemscore.DG>
-16.8141

> <Gold.Chemscore.ZeroCoef>
-5.4800

> <Gold.Chemscore.Hbond>
2.7697

> <Gold.Chemscore.Metal>
0.0000

> <Gold.Chemscore.Lipo>
39.6872

> <Gold.Chemscore.Internal_Hbond>
0.0000

> <Gold.Chemscore.DEClash>
0.0063

> <Gold.Chemscore.DEInternal>
0.0472

> <Gold.Chemscore.Rot>
1.0000

> <Gold.Chemscore.Internal.Correction>
   9.000000E+99

> <Gold.Chemscore.Hbonds>
donor molecule, donor type, donor heavy atom, donor atom, acceptor molecule, acceptor atom, score
      L1  H    10    23       P1  7948  0.88
      L1  H    10    26       P1  7957  0.90
      P1  H  7997  8010       L1     3  0.43

> <Gold.Chemscore.Hbond.Weighted>
-9.2507

> <Gold.Chemscore.Metal.Weighted>
-0.0000

> <Gold.Chemscore.Lipo.Weighted>
-4.6434

> <Gold.Chemscore.Internal_Hbond.Weighted>
0.0000

> <Gold.Chemscore.DEClash.Weighted>
0.0063

> <Gold.Chemscore.DEInternal.Weighted>
0.0472

> <Gold.Chemscore.Rot.Weighted>
2.5600

> <Gold.Chemscore.Internal.Correction.Weighted>
   9.000000E+99

> <Gold.Protein.RotatedTorsions>
[ 6907 6896 6895 6894 ] final -156.70 input  -60.11 | X-H torsion
[ 7974 7965 7964 7962 ] final  -26.54 input  175.53 | X-H torsion
[ 8008 7997 7996 7995 ] final   41.76 input   59.86 | X-H torsion
[ 10167 10162 10161 10158 ] final  -86.11 input  -65.29 | X-H torsion
[ 10718 10713 10712 10709 ] final -110.04 input   66.30 | X-H torsion
[ 10763 10752 10751 10750 ] final -165.83 input  -60.55 | X-H torsion
[ 11005 11000 10999 10996 ] final   63.99 input  -57.11 | X-H torsion

> <Gold.Protein.ActiveResidues>
 VAL166  LYS551  ARG553  GLY616  TRP617  ASP618  TYR619  PRO620  LYS621  CYS622 
 ASP623  PHE694  ASN695  SER759  ASP760  ASP761  ALA762  ILE779  LEU786  VAL792 
 PHE793  MET794  SER795  GLU796  ALA797  LYS798  CYS799  TRP800  GLU811  SER814 

> <Gold.Protein.RotatedAtoms>
  151.2916  133.4163  159.2633 H   0  0  0  0  0  0  0  0  0  0  0  0  # atno 6907 bound_to 6896
  151.0273  134.9514  159.8102 H   0  0  0  0  0  0  0  0  0  0  0  0  # atno 6908 bound_to 6896
  152.5338  134.2877  159.9084 H   0  0  0  0  0  0  0  0  0  0  0  0  # atno 6909 bound_to 6896
  146.1418  140.5033  142.8648 H   0  0  0  0  0  0  0  0  0  0  0  0  # atno 7974 bound_to 7965
  155.2749  140.3368  155.4262 H   0  0  0  0  0  0  0  0  0  0  0  0  # atno 8008 bound_to 7997
  156.2116  140.1772  156.7724 H   0  0  0  0  0  0  0  0  0  0  0  0  # atno 8009 bound_to 7997
  154.5694  140.0673  156.8926 H   0  0  0  0  0  0  0  0  0  0  0  0  # atno 8010 bound_to 7997
  140.3972  143.2678  151.9188 H   0  0  0  0  0  0  0  0  0  0  0  0  # atno 10167 bound_to 10162
  156.0569  130.5795  150.8182 H   0  0  0  0  0  0  0  0  0  0  0  0  # atno 10718 bound_to 10713
  154.6893  135.2968  154.9502 H   0  0  0  0  0  0  0  0  0  0  0  0  # atno 10763 bound_to 10752
  154.0471  135.6649  153.4800 H   0  0  0  0  0  0  0  0  0  0  0  0  # atno 10764 bound_to 10752
  153.0601  135.5121  154.7977 H   0  0  0  0  0  0  0  0  0  0  0  0  # atno 10765 bound_to 10752
  139.9988  134.6475  155.9965 H   0  0  0  0  0  0  0  0  0  0  0  0  # atno 11005 bound_to 11000
  144.7801  140.5823  143.6611 LP  0  0  0  0  0  0  0  0  0  0  0  0  # atno 17320 bound_to 7965
  145.5028  139.1482  143.3647 LP  0  0  0  0  0  0  0  0  0  0  0  0  # atno 17321 bound_to 7965
  139.4786  144.5669  151.8150 LP  0  0  0  0  0  0  0  0  0  0  0  0  # atno 17342 bound_to 10162
  140.4778  144.1494  150.5927 LP  0  0  0  0  0  0  0  0  0  0  0  0  # atno 17343 bound_to 10162
  157.5546  131.0944  150.9646 LP  0  0  0  0  0  0  0  0  0  0  0  0  # atno 17370 bound_to 10713
  156.9898  130.5559  149.5302 LP  0  0  0  0  0  0  0  0  0  0  0  0  # atno 17371 bound_to 10713
  141.1625  133.6538  156.4368 LP  0  0  0  0  0  0  0  0  0  0  0  0  # atno 17394 bound_to 11000
  140.4767  134.6702  157.5153 LP  0  0  0  0  0  0  0  0  0  0  0  0  # atno 17395 bound_to 11000

$$$$
