AV-unprocessed.smi:170|AV-procd|sdf|1411|dock6
  -GOLD-   2262019173D 1   1.00000     0.00000
 Structure written by MMmdl.
 57 61  0  0  0  0  0  0  0  0  1 V2000
  149.0577  142.8472  157.3462 O   0  0  0  0  0  0  0  0  0  0  0  0
  150.3183  142.3151  157.7081 C   0  0  1  0  0  0  0  0  0  0  0  0
  150.8081  141.3719  156.5919 C   0  0  0  0  0  0  0  0  0  0  0  0
  150.3645  140.0032  156.7869 N   0  0  0  0  0  0  0  0  0  0  0  0
  149.3890  139.3404  156.0762 C   0  0  0  0  0  0  0  0  0  0  0  0
  149.1777  138.1046  156.4400 N   0  0  0  0  0  0  0  0  0  0  0  0
  150.0754  137.9046  157.4807 C   0  0  0  0  0  0  0  0  0  0  0  0
  150.3860  136.8006  158.3155 C   0  0  0  0  0  0  0  0  0  0  0  0
  149.7642  135.6077  158.1778 N   0  0  0  0  0  0  0  0  0  0  0  0
  149.9145  135.0750  156.8277 C   0  0  0  0  0  0  0  0  0  0  0  0
  149.3459  133.6522  156.7537 C   0  0  0  0  0  0  0  0  0  0  0  0
  147.9838  133.6829  157.1574 O   0  0  0  0  0  0  0  0  0  0  0  0
  147.8379  134.1179  158.5048 C   0  0  0  0  0  0  0  0  0  0  0  0
  148.3851  135.5553  158.6797 C   0  0  1  0  0  0  0  0  0  0  0  0
  148.2745  136.0313  160.1533 C   0  0  0  0  0  0  0  0  0  0  0  0
  147.1243  135.4012  160.9362 C   0  0  0  0  0  0  0  0  0  0  0  0
  146.7937  135.9028  162.3501 C   0  0  0  0  0  0  0  0  0  0  0  0
  146.4277  134.4643  162.7250 C   0  0  0  0  0  0  0  0  0  0  0  0
  147.3029  134.0068  161.5550 C   0  0  0  0  0  0  0  0  0  0  0  0
  151.3575  136.9618  159.2529 N   0  0  0  0  0  0  0  0  0  0  0  0
  151.9848  138.1370  159.3652 C   0  0  0  0  0  0  0  0  0  0  0  0
  151.8035  139.2527  158.6540 N   0  0  0  0  0  0  0  0  0  0  0  0
  150.8297  139.0874  157.7130 C   0  0  0  0  0  0  0  0  0  0  0  0
  151.2970  143.4770  157.9604 C   0  0  1  0  0  0  0  0  0  0  0  0
  150.7484  144.5821  158.8626 C   0  0  0  0  0  0  0  0  0  0  0  0
  152.0209  145.2372  159.3494 C   0  0  0  0  0  0  0  0  0  0  0  0
  152.9620  144.0442  159.5050 C   0  0  0  0  0  0  0  0  0  0  0  0
  152.4508  143.0170  158.6583 O   0  0  0  0  0  0  0  0  0  0  0  0
  149.1901  143.7038  156.9700 H   0  0  0  0  0  0  0  0  0  0  0  0
  150.1911  141.7463  158.6302 H   0  0  0  0  0  0  0  0  0  0  0  0
  150.4596  141.7172  155.6179 H   0  0  0  0  0  0  0  0  0  0  0  0
  151.8977  141.3688  156.5488 H   0  0  0  0  0  0  0  0  0  0  0  0
  148.8352  139.8057  155.2737 H   0  0  0  0  0  0  0  0  0  0  0  0
  149.3938  135.7159  156.1142 H   0  0  0  0  0  0  0  0  0  0  0  0
  150.9688  135.0675  156.5470 H   0  0  0  0  0  0  0  0  0  0  0  0
  149.4068  133.2737  155.7333 H   0  0  0  0  0  0  0  0  0  0  0  0
  149.9146  132.9681  157.3857 H   0  0  0  0  0  0  0  0  0  0  0  0
  146.7768  134.0747  158.7485 H   0  0  0  0  0  0  0  0  0  0  0  0
  148.3469  133.4228  159.1749 H   0  0  0  0  0  0  0  0  0  0  0  0
  147.7835  136.2199  158.0576 H   0  0  0  0  0  0  0  0  0  0  0  0
  149.2159  135.8319  160.6668 H   0  0  0  0  0  0  0  0  0  0  0  0
  148.1504  137.1141  160.1833 H   0  0  0  0  0  0  0  0  0  0  0  0
  146.2069  135.3921  160.3445 H   0  0  0  0  0  0  0  0  0  0  0  0
  147.6716  136.2670  162.8867 H   0  0  0  0  0  0  0  0  0  0  0  0
  145.9687  136.6141  162.3997 H   0  0  0  0  0  0  0  0  0  0  0  0
  146.7754  134.1454  163.7079 H   0  0  0  0  0  0  0  0  0  0  0  0
  145.3698  134.2427  162.5752 H   0  0  0  0  0  0  0  0  0  0  0  0
  146.8870  133.1891  160.9658 H   0  0  0  0  0  0  0  0  0  0  0  0
  148.3318  133.8021  161.8561 H   0  0  0  0  0  0  0  0  0  0  0  0
  152.7425  138.1904  160.1330 H   0  0  0  0  0  0  0  0  0  0  0  0
  151.6260  143.9115  157.0147 H   0  0  0  0  0  0  0  0  0  0  0  0
  150.0871  145.2726  158.3386 H   0  0  0  0  0  0  0  0  0  0  0  0
  150.2017  144.1563  159.7052 H   0  0  0  0  0  0  0  0  0  0  0  0
  152.4025  145.9186  158.5876 H   0  0  0  0  0  0  0  0  0  0  0  0
  151.8878  145.7996  160.2738 H   0  0  0  0  0  0  0  0  0  0  0  0
  153.9883  144.2984  159.2385 H   0  0  0  0  0  0  0  0  0  0  0  0
  152.9597  143.6798  160.5329 H   0  0  0  0  0  0  0  0  0  0  0  0
  1  2  1  0  0  0  0
  1 29  1  0  0  0  0
  2  3  1  0  0  0  0
  2 24  1  0  0  0  0
  2 30  1  0  0  0  0
  3  4  1  0  0  0  0
  3 31  1  0  0  0  0
  3 32  1  0  0  0  0
  4 23  1  0  0  0  0
  4  5  1  0  0  0  0
  5  6  2  0  0  0  0
  5 33  1  0  0  0  0
  6  7  1  0  0  0  0
  7 23  2  0  0  0  0
  7  8  1  0  0  0  0
  8  9  1  0  0  0  0
  8 20  2  0  0  0  0
  9 14  1  0  0  0  0
  9 10  1  0  0  0  0
 10 11  1  0  0  0  0
 10 34  1  0  0  0  0
 10 35  1  0  0  0  0
 11 12  1  0  0  0  0
 11 36  1  0  0  0  0
 11 37  1  0  0  0  0
 12 13  1  0  0  0  0
 13 14  1  0  0  0  0
 13 38  1  0  0  0  0
 13 39  1  0  0  0  0
 14 15  1  0  0  0  0
 14 40  1  0  0  0  0
 15 16  1  0  0  0  0
 15 41  1  0  0  0  0
 15 42  1  0  0  0  0
 16 19  1  0  0  0  0
 16 17  1  0  0  0  0
 16 43  1  0  0  0  0
 17 18  1  0  0  0  0
 17 44  1  0  0  0  0
 17 45  1  0  0  0  0
 18 19  1  0  0  0  0
 18 46  1  0  0  0  0
 18 47  1  0  0  0  0
 19 48  1  0  0  0  0
 19 49  1  0  0  0  0
 20 21  1  0  0  0  0
 21 22  2  0  0  0  0
 21 50  1  0  0  0  0
 22 23  1  0  0  0  0
 24 28  1  0  0  0  0
 24 25  1  0  0  0  0
 24 51  1  0  0  0  0
 25 26  1  0  0  0  0
 25 52  1  0  0  0  0
 25 53  1  0  0  0  0
 26 27  1  0  0  0  0
 26 54  1  0  0  0  0
 26 55  1  0  0  0  0
 27 28  1  0  0  0  0
 27 56  1  0  0  0  0
 27 57  1  0  0  0  0
M  END
> <s_m_source_file>
AV-unprocessed.smi

> <i_m_source_file_index>
170

> <i_lp_mmshare_version>
43012

> <i_f3d_flags>
0

> <s_epik_input>
TzFbQ0gyXVtDSDJdW0NIMl1bQ0BIXTFbQ0BIXShbT0hdKVtDSDJdbihbY0hdbjIpYyhjMjMpbltjSF1uYzNONFtDSDJdW0NIMl1PW0NIMl1bQ0BIXTRbQ0gyXVtDSF01W0NIMl1bQ0gyXVtDSDJdNQ==

> <s_epik_cmdline>
J2VwaWtfcHl0aG9uJywgJy1waCcsICc3LjAnLCAnLXRuJywgJzgnLCAnLW1hJywgJzIwMCcsICctbWV0YWxfYmluZGluZycsICctaW1hZScsICc8aW5maWxlLm1hZT4nLCAnLW9tYWUnLCAnPG91dGZpbGUubWFlPic=

> <r_lp_tautomer_probability>
1

> <r_epik_Ionization_Penalty>
4.98275e-05

> <r_epik_Ionization_Penalty_Charging>
0

> <r_epik_Ionization_Penalty_Neutral>
4.98275e-05

> <r_epik_State_Penalty>
-0

> <r_epik_Charging_Adjusted_Penalty>
0

> <i_epik_Tot_Q>
0

> <i_epik_Tot_abs_Q>
0

> <r_epik_Metal_State_Penalty>
-0

> <b_epik_Metal_Only>
0

> <s_lp_Force_Field>
OPLS_2005

> <r_lp_Energy>
51.0174

> <b_lp_Chiralities_Consistent>
1

> <s_lp_Variant>
AV-unprocessed.smi:170-6

> <Gold.Version>
5.8.1

> <Gold.Id.Protein>
6NUR|6NUR_protein|mol2

> <Gold.PLP.Fitness>
47.8619

> <Gold.PLP.PLP>
-43.4493

> <Gold.PLP.part.hbond>
-3.0329

> <Gold.PLP.part.metal>
0.0000

> <Gold.PLP.part.buried>
-6.0800

> <Gold.PLP.part.nonpolar>
-36.1501

> <Gold.PLP.part.repulsive>
0.0032

> <Gold.PLP.ligand.clash>
0.0000

> <Gold.PLP.ligand.torsion>
1.3730

> <Gold.PLP.Chemscore.Hbond>
2.2882

> <Gold.PLP.Chemscore.CHOScore>
0.0000

> <Gold.PLP.Chemscore.Metal>
0.0000

> <Gold.Chemscore.Hbonds>
donor molecule, donor type, donor heavy atom, donor atom, acceptor molecule, acceptor atom, score
      L1  H     1    29       P1  8028  0.94
      P1  H  6896  6907       L1     9  0.32
      P1  H  6896  6908       L1    20  0.88

> <Gold.PLP.Chemscore.Internal.Correction>
0.2941

> <Gold.Rescore>
     Score         DG    S(hbond)    S(metal)    S(lipo)     H(rot)  DE(clash)    DE(int)     intcor
     15.02     -16.61       1.43        0.00     111.61       2.61       0.05       1.55       ----

> <Gold.Chemscore.Fitness>
15.0154

> <Gold.Chemscore.DG>
-16.6143

> <Gold.Chemscore.ZeroCoef>
-5.4800

> <Gold.Chemscore.Hbond>
1.4280

> <Gold.Chemscore.Metal>
0.0000

> <Gold.Chemscore.Lipo>
111.6057

> <Gold.Chemscore.Internal_Hbond>
0.0000

> <Gold.Chemscore.DEClash>
0.0484

> <Gold.Chemscore.DEInternal>
1.5506

> <Gold.Chemscore.Rot>
2.6144

> <Gold.Chemscore.Internal.Correction>
   9.000000E+99

> <Gold.Chemscore.Hbonds>
donor molecule, donor type, donor heavy atom, donor atom, acceptor molecule, acceptor atom, score
      L1  H     1    29       P1  8028  0.64
      P1  H  6896  6907       L1     9  0.02
      P1  H  6896  6908       L1    20  0.50

> <Gold.Chemscore.Hbond.Weighted>
-4.7694

> <Gold.Chemscore.Metal.Weighted>
-0.0000

> <Gold.Chemscore.Lipo.Weighted>
-13.0579

> <Gold.Chemscore.Internal_Hbond.Weighted>
0.0000

> <Gold.Chemscore.DEClash.Weighted>
0.0484

> <Gold.Chemscore.DEInternal.Weighted>
1.5506

> <Gold.Chemscore.Rot.Weighted>
6.6929

> <Gold.Chemscore.Internal.Correction.Weighted>
   9.000000E+99

> <Gold.Protein.RotatedTorsions>
[ 6907 6896 6895 6894 ] final -108.13 input  -60.11 | X-H torsion
[ 7974 7965 7964 7962 ] final  178.30 input  175.53 | X-H torsion
[ 8008 7997 7996 7995 ] final -166.91 input   59.86 | X-H torsion
[ 10167 10162 10161 10158 ] final   -2.82 input  -65.29 | X-H torsion
[ 10718 10713 10712 10709 ] final    5.08 input   66.30 | X-H torsion
[ 10763 10752 10751 10750 ] final  148.68 input  -60.55 | X-H torsion
[ 11005 11000 10999 10996 ] final -150.22 input  -57.11 | X-H torsion

> <Gold.Protein.ActiveResidues>
 VAL166  LYS551  ARG553  GLY616  TRP617  ASP618  TYR619  PRO620  LYS621  CYS622 
 ASP623  PHE694  ASN695  SER759  ASP760  ASP761  ALA762  ILE779  LEU786  VAL792 
 PHE793  MET794  SER795  GLU796  ALA797  LYS798  CYS799  TRP800  GLU811  SER814 

> <Gold.Protein.RotatedAtoms>
  150.7484  133.9724  159.3549 H   0  0  0  0  0  0  0  0  0  0  0  0  # atno 6907 bound_to 6896
  151.7658  135.0796  160.0362 H   0  0  0  0  0  0  0  0  0  0  0  0  # atno 6908 bound_to 6896
  152.3372  133.5988  159.5887 H   0  0  0  0  0  0  0  0  0  0  0  0  # atno 6909 bound_to 6896
  144.7158  140.0377  143.6438 H   0  0  0  0  0  0  0  0  0  0  0  0  # atno 7974 bound_to 7965
  155.8703  140.0992  157.1554 H   0  0  0  0  0  0  0  0  0  0  0  0  # atno 8008 bound_to 7997
  154.3996  140.1348  156.4133 H   0  0  0  0  0  0  0  0  0  0  0  0  # atno 8009 bound_to 7997
  155.7758  140.3459  155.5273 H   0  0  0  0  0  0  0  0  0  0  0  0  # atno 8010 bound_to 7997
  140.6866  143.6612  150.8265 H   0  0  0  0  0  0  0  0  0  0  0  0  # atno 10167 bound_to 10162
  156.9022  130.5726  149.5648 H   0  0  0  0  0  0  0  0  0  0  0  0  # atno 10718 bound_to 10713
  154.0588  135.2876  155.3328 H   0  0  0  0  0  0  0  0  0  0  0  0  # atno 10763 bound_to 10752
  154.6822  135.5259  153.8281 H   0  0  0  0  0  0  0  0  0  0  0  0  # atno 10764 bound_to 10752
  153.0531  135.6584  154.0778 H   0  0  0  0  0  0  0  0  0  0  0  0  # atno 10765 bound_to 10752
  140.7425  134.3498  157.5144 H   0  0  0  0  0  0  0  0  0  0  0  0  # atno 11005 bound_to 11000
  146.0049  139.3122  143.0905 LP  0  0  0  0  0  0  0  0  0  0  0  0  # atno 17320 bound_to 7965
  145.8749  140.9397  143.0631 LP  0  0  0  0  0  0  0  0  0  0  0  0  # atno 17321 bound_to 7965
  140.0320  143.5434  152.2756 LP  0  0  0  0  0  0  0  0  0  0  0  0  # atno 17342 bound_to 10162
  139.6230  144.7632  151.2699 LP  0  0  0  0  0  0  0  0  0  0  0  0  # atno 17343 bound_to 10162
  156.0576  130.5635  150.9125 LP  0  0  0  0  0  0  0  0  0  0  0  0  # atno 17370 bound_to 10713
  157.6019  131.0941  150.8945 LP  0  0  0  0  0  0  0  0  0  0  0  0  # atno 17371 bound_to 10713
  139.8803  134.9090  156.2981 LP  0  0  0  0  0  0  0  0  0  0  0  0  # atno 17394 bound_to 11000
  140.9823  133.7259  156.0691 LP  0  0  0  0  0  0  0  0  0  0  0  0  # atno 17395 bound_to 11000

$$$$
