AV-unprocessed.smi:2446|AV-procd|sdf|9642|dock2
  -GOLD-   2272013273D 1   1.00000     0.00000
 Structure written by MMmdl.
 39 40  0  0  0  0  0  0  0  0  1 V2000
  151.3935  137.7936  154.8821 C   0  0  0  0  0  0  0  0  0  0  0  0
  150.5502  139.0571  154.8554 C   0  0  0  0  0  0  0  0  0  0  0  0
  151.0832  140.2698  155.3427 C   0  0  0  0  0  0  0  0  0  0  0  0
  150.4002  141.4329  155.3567 N   0  0  0  0  0  0  0  0  0  0  0  0
  149.1376  141.4261  154.8824 C   0  0  0  0  0  0  0  0  0  0  0  0
  148.5068  140.2749  154.3723 C   0  0  0  0  0  0  0  0  0  0  0  0
  149.2297  139.0576  154.3438 C   0  0  0  0  0  0  0  0  0  0  0  0
  148.6866  137.8318  153.8671 N   0  0  0  0  0  0  0  0  0  0  0  0
  147.3979  137.4686  153.7134 C   0  0  0  0  0  0  0  0  0  0  0  0
  146.4301  138.1695  154.0003 O   0  0  0  0  0  0  0  0  0  0  0  0
  147.2328  136.2413  153.1856 N   0  0  0  0  0  0  0  0  0  0  0  0
  145.9823  135.5392  152.8860 C   0  0  1  0  0  0  0  0  0  0  0  0
  145.0784  136.4445  152.0303 C   0  0  0  0  0  0  0  0  0  0  0  0
  143.7773  135.7265  151.6412 C   0  0  0  0  0  0  0  0  0  0  0  0
  144.0652  134.3995  150.9214 C   0  0  0  0  0  0  0  0  0  0  0  0
  144.9615  133.4749  151.7720 C   0  0  1  0  0  0  0  0  0  0  0  0
  145.2419  132.1306  151.0694 C   0  0  0  0  0  0  0  0  0  0  0  0
  145.9908  131.3397  151.8385 F   0  0  0  0  0  0  0  0  0  0  0  0
  144.0935  131.5088  150.8008 F   0  0  0  0  0  0  0  0  0  0  0  0
  145.8794  132.3416  149.9179 F   0  0  0  0  0  0  0  0  0  0  0  0
  146.2641  134.2085  152.1556 C   0  0  0  0  0  0  0  0  0  0  0  0
  152.3711  137.9792  155.3278 H   0  0  0  0  0  0  0  0  0  0  0  0
  151.5501  137.4190  153.8702 H   0  0  0  0  0  0  0  0  0  0  0  0
  150.8989  137.0168  155.4660 H   0  0  0  0  0  0  0  0  0  0  0  0
  152.0885  140.3103  155.7358 H   0  0  0  0  0  0  0  0  0  0  0  0
  148.6094  142.3677  154.9157 H   0  0  0  0  0  0  0  0  0  0  0  0
  147.4868  140.3488  154.0290 H   0  0  0  0  0  0  0  0  0  0  0  0
  149.3670  137.1698  153.5244 H   0  0  0  0  0  0  0  0  0  0  0  0
  148.0785  135.7327  152.9712 H   0  0  0  0  0  0  0  0  0  0  0  0
  145.4507  135.3303  153.8162 H   0  0  0  0  0  0  0  0  0  0  0  0
  144.8428  137.3597  152.5749 H   0  0  0  0  0  0  0  0  0  0  0  0
  145.6067  136.7498  151.1258 H   0  0  0  0  0  0  0  0  0  0  0  0
  143.1831  135.5360  152.5357 H   0  0  0  0  0  0  0  0  0  0  0  0
  143.1747  136.3722  151.0018 H   0  0  0  0  0  0  0  0  0  0  0  0
  143.1227  133.9019  150.6920 H   0  0  0  0  0  0  0  0  0  0  0  0
  144.5465  134.6035  149.9641 H   0  0  0  0  0  0  0  0  0  0  0  0
  144.4244  133.2515  152.6953 H   0  0  0  0  0  0  0  0  0  0  0  0
  146.8533  134.4015  151.2579 H   0  0  0  0  0  0  0  0  0  0  0  0
  146.8744  133.5616  152.7856 H   0  0  0  0  0  0  0  0  0  0  0  0
  1  2  1  0  0  0  0
  1 22  1  0  0  0  0
  1 23  1  0  0  0  0
  1 24  1  0  0  0  0
  2  7  1  0  0  0  0
  2  3  2  0  0  0  0
  3  4  1  0  0  0  0
  3 25  1  0  0  0  0
  4  5  2  0  0  0  0
  5  6  1  0  0  0  0
  5 26  1  0  0  0  0
  6  7  2  0  0  0  0
  6 27  1  0  0  0  0
  7  8  1  0  0  0  0
  8  9  1  0  0  0  0
  8 28  1  0  0  0  0
  9 10  2  0  0  0  0
  9 11  1  0  0  0  0
 11 12  1  0  0  0  0
 11 29  1  0  0  0  0
 12 21  1  0  0  0  0
 12 13  1  0  0  0  0
 12 30  1  0  0  0  0
 13 14  1  0  0  0  0
 13 31  1  0  0  0  0
 13 32  1  0  0  0  0
 14 15  1  0  0  0  0
 14 33  1  0  0  0  0
 14 34  1  0  0  0  0
 15 16  1  0  0  0  0
 15 35  1  0  0  0  0
 15 36  1  0  0  0  0
 16 17  1  0  0  0  0
 16 21  1  0  0  0  0
 16 37  1  0  0  0  0
 17 18  1  0  0  0  0
 17 19  1  0  0  0  0
 17 20  1  0  0  0  0
 21 38  1  0  0  0  0
 21 39  1  0  0  0  0
M  END
> <s_m_source_file>
AV-unprocessed.smi

> <i_m_source_file_index>
2446

> <i_lp_mmshare_version>
43012

> <i_f3d_flags>
0

> <s_epik_input>
W0NIM11jMVtjSF1uW2NIXVtjSF1jMVtOSF1DKD1PKVtOSF1bQ0BASF0yW0NIMl1bQ0gyXVtDSDJdW0NAQEhdKEMoRikoRilGKVtDSDJdMg==

> <s_epik_cmdline>
J2VwaWtfcHl0aG9uJywgJy1waCcsICc3LjAnLCAnLXRuJywgJzgnLCAnLW1hJywgJzIwMCcsICctbWV0YWxfYmluZGluZycsICctaW1hZScsICc8aW5maWxlLm1hZT4nLCAnLW9tYWUnLCAnPG91dGZpbGUubWFlPic=

> <r_epik_Ionization_Penalty>
0.20168

> <r_epik_Ionization_Penalty_Charging>
0

> <r_epik_Ionization_Penalty_Neutral>
0.20168

> <r_epik_State_Penalty>
0.191514

> <r_epik_Charging_Adjusted_Penalty>
0.191514

> <i_epik_Tot_Q>
0

> <i_epik_Tot_abs_Q>
0

> <r_epik_Metal_State_Penalty>
0.142371

> <b_epik_Metal_Only>
0

> <s_lp_Force_Field>
OPLS_2005

> <r_lp_Energy>
26.2068

> <b_lp_Chiralities_Consistent>
1

> <s_lp_Variant>
AV-unprocessed.smi:2446-2

> <Gold.Version>
5.8.1

> <Gold.Id.Protein>
6NUR|6NUR_protein|mol2

> <Gold.PLP.Fitness>
40.0962

> <Gold.PLP.PLP>
-35.1706

> <Gold.PLP.part.hbond>
-1.6453

> <Gold.PLP.part.metal>
0.0000

> <Gold.PLP.part.buried>
-1.1066

> <Gold.PLP.part.nonpolar>
-33.5383

> <Gold.PLP.part.repulsive>
0.2467

> <Gold.PLP.ligand.clash>
0.0000

> <Gold.PLP.ligand.torsion>
0.1511

> <Gold.PLP.Chemscore.Hbond>
0.7360

> <Gold.PLP.Chemscore.CHOScore>
1.0000

> <Gold.PLP.Chemscore.Metal>
0.0000

> <Gold.Chemscore.Hbonds>
donor molecule, donor type, donor heavy atom, donor atom, acceptor molecule, acceptor atom, score
      L1  H     8    28       P1  7948  0.37
      L1  H    11    29       P1  7948  0.36
      L1  C     5    26       P1  8028  1.00

> <Gold.PLP.Chemscore.Internal.Correction>
0.0197

> <Gold.Rescore>
     Score         DG    S(hbond)    S(metal)    S(lipo)     H(rot)  DE(clash)    DE(int)     intcor
     13.38     -14.99       1.08        0.00      72.29       1.00       0.37       1.24       ----

> <Gold.Chemscore.Fitness>
13.3777

> <Gold.Chemscore.DG>
-14.9879

> <Gold.Chemscore.ZeroCoef>
-5.4800

> <Gold.Chemscore.Hbond>
1.0807

> <Gold.Chemscore.Metal>
0.0000

> <Gold.Chemscore.Lipo>
72.2949

> <Gold.Chemscore.Internal_Hbond>
0.0000

> <Gold.Chemscore.DEClash>
0.3679

> <Gold.Chemscore.DEInternal>
1.2423

> <Gold.Chemscore.Rot>
1.0000

> <Gold.Chemscore.Internal.Correction>
   9.000000E+99

> <Gold.Chemscore.Hbonds>
donor molecule, donor type, donor heavy atom, donor atom, acceptor molecule, acceptor atom, score
      L1  H     8    28       P1  7948  0.36
      L1  H    11    29       P1  7948  0.35

> <Gold.Chemscore.Hbond.Weighted>
-3.6094

> <Gold.Chemscore.Metal.Weighted>
-0.0000

> <Gold.Chemscore.Lipo.Weighted>
-8.4585

> <Gold.Chemscore.Internal_Hbond.Weighted>
0.0000

> <Gold.Chemscore.DEClash.Weighted>
0.3679

> <Gold.Chemscore.DEInternal.Weighted>
1.2423

> <Gold.Chemscore.Rot.Weighted>
2.5600

> <Gold.Chemscore.Internal.Correction.Weighted>
   9.000000E+99

> <Gold.Protein.RotatedTorsions>
[ 6907 6896 6895 6894 ] final  159.97 input  -60.11 | X-H torsion
[ 7974 7965 7964 7962 ] final  130.03 input  175.53 | X-H torsion
[ 8008 7997 7996 7995 ] final   35.61 input   59.86 | X-H torsion
[ 10167 10162 10161 10158 ] final -126.76 input  -65.29 | X-H torsion
[ 10718 10713 10712 10709 ] final  141.04 input   66.30 | X-H torsion
[ 10763 10752 10751 10750 ] final  -57.69 input  -60.55 | X-H torsion
[ 11005 11000 10999 10996 ] final  161.71 input  -57.11 | X-H torsion

> <Gold.Protein.ActiveResidues>
 VAL166  LYS551  ARG553  GLY616  TRP617  ASP618  TYR619  PRO620  LYS621  CYS622 
 ASP623  PHE694  ASN695  SER759  ASP760  ASP761  ALA762  ILE779  LEU786  VAL792 
 PHE793  MET794  SER795  GLU796  ALA797  LYS798  CYS799  TRP800  GLU811  SER814 

> <Gold.Protein.RotatedAtoms>
  151.9777  133.3747  159.4095 H   0  0  0  0  0  0  0  0  0  0  0  0  # atno 6907 bound_to 6896
  150.6939  134.4072  159.5155 H   0  0  0  0  0  0  0  0  0  0  0  0  # atno 6908 bound_to 6896
  152.1786  134.8773  160.0579 H   0  0  0  0  0  0  0  0  0  0  0  0  # atno 6909 bound_to 6896
  145.0223  139.4121  143.5191 H   0  0  0  0  0  0  0  0  0  0  0  0  # atno 7974 bound_to 7965
  155.1739  140.3294  155.4387 H   0  0  0  0  0  0  0  0  0  0  0  0  # atno 8008 bound_to 7997
  156.2500  140.1938  156.6791 H   0  0  0  0  0  0  0  0  0  0  0  0  # atno 8009 bound_to 7997
  154.6318  140.0581  156.9727 H   0  0  0  0  0  0  0  0  0  0  0  0  # atno 8010 bound_to 7997
  139.9680  143.5876  152.2422 H   0  0  0  0  0  0  0  0  0  0  0  0  # atno 10167 bound_to 10162
  157.3965  131.1011  151.0594 H   0  0  0  0  0  0  0  0  0  0  0  0  # atno 10718 bound_to 10713
  154.2264  135.6368  153.5161 H   0  0  0  0  0  0  0  0  0  0  0  0  # atno 10763 bound_to 10752
  152.9958  135.5509  154.6059 H   0  0  0  0  0  0  0  0  0  0  0  0  # atno 10764 bound_to 10752
  154.5532  135.2903  155.0963 H   0  0  0  0  0  0  0  0  0  0  0  0  # atno 10765 bound_to 10752
  140.2185  134.8214  157.3195 H   0  0  0  0  0  0  0  0  0  0  0  0  # atno 11005 bound_to 11000
  146.3487  139.9727  142.8704 LP  0  0  0  0  0  0  0  0  0  0  0  0  # atno 17320 bound_to 7965
  145.1880  140.9798  143.4228 LP  0  0  0  0  0  0  0  0  0  0  0  0  # atno 17321 bound_to 7965
  139.6503  144.7660  151.2162 LP  0  0  0  0  0  0  0  0  0  0  0  0  # atno 17342 bound_to 10162
  140.7531  143.6172  150.8548 LP  0  0  0  0  0  0  0  0  0  0  0  0  # atno 17343 bound_to 10162
  157.1609  130.6225  149.5610 LP  0  0  0  0  0  0  0  0  0  0  0  0  # atno 17370 bound_to 10713
  155.9812  130.4817  150.6813 LP  0  0  0  0  0  0  0  0  0  0  0  0  # atno 17371 bound_to 10713
  140.1875  134.4413  155.7735 LP  0  0  0  0  0  0  0  0  0  0  0  0  # atno 17394 bound_to 11000
  141.2224  133.7012  156.7971 LP  0  0  0  0  0  0  0  0  0  0  0  0  # atno 17395 bound_to 11000

$$$$
