AV-unprocessed.smi:1304|AV-procd|sdf|5432|dock8
  -GOLD-   22720 4593D 1   1.00000     0.00000
 Structure written by MMmdl.
 48 49  0  0  0  0  0  0  0  0  2 V2000
  152.7522  138.7311  154.3564 C   0  0  0  0  0  0  0  0  0  0  0  0
  151.3677  138.6199  153.6932 C   0  0  0  0  0  0  0  0  0  0  0  0
  150.1635  138.4335  154.6676 C   0  0  2  0  0  0  0  0  0  0  0  0
  148.9972  139.3025  154.1264 C   0  0  0  0  0  0  0  0  0  0  0  0
  150.5469  138.9398  156.0946 C   0  0  0  0  0  0  0  0  0  0  0  0
  150.9407  140.3476  156.1275 N   0  0  0  0  0  0  0  0  0  0  0  0
  150.3795  141.3000  156.8881 C   0  0  0  0  0  0  0  0  0  0  0  0
  149.4145  141.0971  157.6253 O   0  0  0  0  0  0  0  0  0  0  0  0
  151.0101  142.6956  156.8010 C   0  0  0  0  0  0  0  0  0  0  0  0
  151.3446  143.2421  158.1266 N   0  0  0  0  0  0  0  0  0  0  0  0
  150.8089  144.5023  158.4592 C   0  0  0  0  0  0  0  0  0  0  0  0
  151.0486  145.0849  159.6447 C   0  0  0  0  0  0  0  0  0  0  0  0
  151.8816  144.3849  160.5936 C   0  0  0  0  0  0  0  0  0  0  0  0
  152.3982  143.1783  160.2863 C   0  0  0  0  0  0  0  0  0  0  0  0
  152.1383  142.5372  158.9921 C   0  0  0  0  0  0  0  0  0  0  0  0
  152.6031  141.4335  158.7039 O   0  0  0  0  0  0  0  0  0  0  0  0
  149.7622  136.9797  154.7095 N   0  3  0  0  0  0  0  0  0  0  0  0
  150.8567  136.0117  155.0054 C   0  0  0  0  0  0  0  0  0  0  0  0
  150.3676  134.5683  154.8057 C   0  0  0  0  0  0  0  0  0  0  0  0
  149.2483  134.3258  155.6463 O   0  0  0  0  0  0  0  0  0  0  0  0
  148.1590  135.1820  155.3317 C   0  0  0  0  0  0  0  0  0  0  0  0
  148.5698  136.6496  155.5404 C   0  0  0  0  0  0  0  0  0  0  0  0
  153.5280  138.8371  153.5978 H   0  0  0  0  0  0  0  0  0  0  0  0
  152.9945  137.8448  154.9425 H   0  0  0  0  0  0  0  0  0  0  0  0
  152.8216  139.5990  155.0119 H   0  0  0  0  0  0  0  0  0  0  0  0
  151.2111  139.4890  153.0547 H   0  0  0  0  0  0  0  0  0  0  0  0
  151.4113  137.7795  153.0005 H   0  0  0  0  0  0  0  0  0  0  0  0
  149.3291  140.3102  153.8727 H   0  0  0  0  0  0  0  0  0  0  0  0
  148.2003  139.4210  154.8606 H   0  0  0  0  0  0  0  0  0  0  0  0
  148.5552  138.8753  153.2260 H   0  0  0  0  0  0  0  0  0  0  0  0
  149.6992  138.8422  156.7719 H   0  0  0  0  0  0  0  0  0  0  0  0
  151.3427  138.3335  156.5275 H   0  0  0  0  0  0  0  0  0  0  0  0
  151.7241  140.6122  155.5475 H   0  0  0  0  0  0  0  0  0  0  0  0
  151.9057  142.6649  156.1771 H   0  0  0  0  0  0  0  0  0  0  0  0
  150.3147  143.3495  156.2733 H   0  0  0  0  0  0  0  0  0  0  0  0
  150.1911  144.9573  157.6987 H   0  0  0  0  0  0  0  0  0  0  0  0
  150.6267  146.0501  159.8837 H   0  0  0  0  0  0  0  0  0  0  0  0
  152.0909  144.8303  161.5550 H   0  0  0  0  0  0  0  0  0  0  0  0
  153.0189  142.6693  161.0093 H   0  0  0  0  0  0  0  0  0  0  0  0
  151.7173  136.1699  154.3586 H   0  0  0  0  0  0  0  0  0  0  0  0
  151.2005  136.1286  156.0333 H   0  0  0  0  0  0  0  0  0  0  0  0
  150.1055  134.3844  153.7626 H   0  0  0  0  0  0  0  0  0  0  0  0
  151.1596  133.8654  155.0643 H   0  0  0  0  0  0  0  0  0  0  0  0
  147.8316  135.0124  154.3045 H   0  0  0  0  0  0  0  0  0  0  0  0
  147.3175  134.9323  155.9784 H   0  0  0  0  0  0  0  0  0  0  0  0
  148.7846  136.8226  156.5951 H   0  0  0  0  0  0  0  0  0  0  0  0
  147.7127  137.2683  155.2803 H   0  0  0  0  0  0  0  0  0  0  0  0
  149.4793  136.7744  153.7618 H   0  0  0  0  0  0  0  0  0  0  0  0
  1  2  1  0  0  0  0
  1 23  1  0  0  0  0
  1 24  1  0  0  0  0
  1 25  1  0  0  0  0
  2  3  1  0  0  0  0
  2 26  1  0  0  0  0
  2 27  1  0  0  0  0
  3  4  1  0  0  0  0
  3  5  1  0  0  0  0
  3 17  1  0  0  0  0
  4 28  1  0  0  0  0
  4 29  1  0  0  0  0
  4 30  1  0  0  0  0
  5  6  1  0  0  0  0
  5 31  1  0  0  0  0
  5 32  1  0  0  0  0
  6  7  1  0  0  0  0
  6 33  1  0  0  0  0
  7  8  2  0  0  0  0
  7  9  1  0  0  0  0
  9 10  1  0  0  0  0
  9 34  1  0  0  0  0
  9 35  1  0  0  0  0
 10 15  1  0  0  0  0
 10 11  1  0  0  0  0
 11 12  2  0  0  0  0
 11 36  1  0  0  0  0
 12 13  1  0  0  0  0
 12 37  1  0  0  0  0
 13 14  2  0  0  0  0
 13 38  1  0  0  0  0
 14 15  1  0  0  0  0
 14 39  1  0  0  0  0
 15 16  2  0  0  0  0
 17 22  1  0  0  0  0
 17 18  1  0  0  0  0
 17 48  1  0  0  0  0
 18 19  1  0  0  0  0
 18 40  1  0  0  0  0
 18 41  1  0  0  0  0
 19 20  1  0  0  0  0
 19 42  1  0  0  0  0
 19 43  1  0  0  0  0
 20 21  1  0  0  0  0
 21 22  1  0  0  0  0
 21 44  1  0  0  0  0
 21 45  1  0  0  0  0
 22 46  1  0  0  0  0
 22 47  1  0  0  0  0
M  CHG  1  17   1
M  END
> <s_m_source_file>
AV-unprocessed.smi

> <i_m_source_file_index>
1304

> <i_lp_mmshare_version>
43012

> <i_f3d_flags>
0

> <s_epik_input>
W0NIMl0xW0NIMl1PW0NIMl1bQ0gyXU4xW0NAQF0oW0NIM10pKFtDSDJdW0NIM10pW0NIMl1bTkhdQyg9TylbQ0gyXW4yW2NIXVtjSF1bY0hdW2NIXWMyPU8=

> <s_epik_cmdline>
J2VwaWtfcHl0aG9uJywgJy1waCcsICc3LjAnLCAnLXRuJywgJzgnLCAnLW1hJywgJzIwMCcsICctbWV0YWxfYmluZGluZycsICctaW1hZScsICc8aW5maWxlLm1hZT4nLCAnLW9tYWUnLCAnPG91dGZpbGUubWFlPic=

> <r_lp_tautomer_probability>
1

> <r_epik_Ionization_Penalty>
0.519658

> <r_epik_Ionization_Penalty_Charging>
0.519658

> <r_epik_Ionization_Penalty_Neutral>
8.70177e-08

> <r_epik_State_Penalty>
0.527569

> <r_epik_Charging_Adjusted_Penalty>
1.04723

> <i_epik_Tot_Q>
1

> <i_epik_Tot_abs_Q>
1

> <r_epik_Metal_State_Penalty>
0.527613

> <b_epik_Metal_Only>
0

> <s_lp_Force_Field>
OPLS_2005

> <r_lp_Energy>
37.518

> <b_lp_Chiralities_Consistent>
1

> <s_lp_Variant>
AV-unprocessed.smi:1304-4

> <Gold.Version>
5.8.1

> <Gold.Id.Protein>
6NUR|6NUR_protein|mol2

> <Gold.PLP.Fitness>
46.6375

> <Gold.PLP.PLP>
-39.4180

> <Gold.PLP.part.hbond>
-0.9803

> <Gold.PLP.part.metal>
0.0000

> <Gold.PLP.part.buried>
-5.4967

> <Gold.PLP.part.nonpolar>
-33.7232

> <Gold.PLP.part.repulsive>
0.2185

> <Gold.PLP.ligand.clash>
0.0000

> <Gold.PLP.ligand.torsion>
0.9865

> <Gold.PLP.Chemscore.Hbond>
2.0000

> <Gold.PLP.Chemscore.CHOScore>
0.9725

> <Gold.PLP.Chemscore.Metal>
0.0000

> <Gold.Chemscore.Hbonds>
donor molecule, donor type, donor heavy atom, donor atom, acceptor molecule, acceptor atom, score
      L1  H    17    48       P1  7948  2.00
      L1  C    11    36       P1  8028  0.61
      L1  C    11    36       P1  8029  0.32

> <Gold.PLP.Chemscore.Internal.Correction>
0.2751

> <Gold.Rescore>
     Score         DG    S(hbond)    S(metal)    S(lipo)     H(rot)  DE(clash)    DE(int)     intcor
     12.79     -14.85       0.96        0.00      97.11       2.03       0.27       1.80       ----

> <Gold.Chemscore.Fitness>
12.7852

> <Gold.Chemscore.DG>
-14.8516

> <Gold.Chemscore.ZeroCoef>
-5.4800

> <Gold.Chemscore.Hbond>
0.9599

> <Gold.Chemscore.Metal>
0.0000

> <Gold.Chemscore.Lipo>
97.1089

> <Gold.Chemscore.Internal_Hbond>
0.0000

> <Gold.Chemscore.DEClash>
0.2698

> <Gold.Chemscore.DEInternal>
1.7966

> <Gold.Chemscore.Rot>
2.0298

> <Gold.Chemscore.Internal.Correction>
   9.000000E+99

> <Gold.Chemscore.Hbonds>
donor molecule, donor type, donor heavy atom, donor atom, acceptor molecule, acceptor atom, score
      L1  H    17    48       P1  7948  0.83

> <Gold.Chemscore.Hbond.Weighted>
-3.2061

> <Gold.Chemscore.Metal.Weighted>
-0.0000

> <Gold.Chemscore.Lipo.Weighted>
-11.3617

> <Gold.Chemscore.Internal_Hbond.Weighted>
0.0000

> <Gold.Chemscore.DEClash.Weighted>
0.2698

> <Gold.Chemscore.DEInternal.Weighted>
1.7966

> <Gold.Chemscore.Rot.Weighted>
5.1962

> <Gold.Chemscore.Internal.Correction.Weighted>
   9.000000E+99

> <Gold.Protein.RotatedTorsions>
[ 6907 6896 6895 6894 ] final -160.00 input  -60.11 | X-H torsion
[ 7974 7965 7964 7962 ] final  -16.57 input  175.53 | X-H torsion
[ 8008 7997 7996 7995 ] final -116.85 input   59.86 | X-H torsion
[ 10167 10162 10161 10158 ] final   70.02 input  -65.29 | X-H torsion
[ 10718 10713 10712 10709 ] final   39.34 input   66.30 | X-H torsion
[ 10763 10752 10751 10750 ] final -139.71 input  -60.55 | X-H torsion
[ 11005 11000 10999 10996 ] final  -97.94 input  -57.11 | X-H torsion

> <Gold.Protein.ActiveResidues>
 VAL166  LYS551  ARG553  GLY616  TRP617  ASP618  TYR619  PRO620  LYS621  CYS622 
 ASP623  PHE694  ASN695  SER759  ASP760  ASP761  ALA762  ILE779  LEU786  VAL792 
 PHE793  MET794  SER795  GLU796  ALA797  LYS798  CYS799  TRP800  GLU811  SER814 

> <Gold.Protein.RotatedAtoms>
  151.3423  133.3957  159.2672 H   0  0  0  0  0  0  0  0  0  0  0  0  # atno 6907 bound_to 6896
  150.9868  134.9212  159.7887 H   0  0  0  0  0  0  0  0  0  0  0  0  # atno 6908 bound_to 6896
  152.5234  134.3387  159.9262 H   0  0  0  0  0  0  0  0  0  0  0  0  # atno 6909 bound_to 6896
  146.1982  140.3655  142.8433 H   0  0  0  0  0  0  0  0  0  0  0  0  # atno 7974 bound_to 7965
  155.0744  140.0393  157.2619 H   0  0  0  0  0  0  0  0  0  0  0  0  # atno 8008 bound_to 7997
  154.6957  140.2662  155.6744 H   0  0  0  0  0  0  0  0  0  0  0  0  # atno 8009 bound_to 7997
  156.2744  140.2750  156.1550 H   0  0  0  0  0  0  0  0  0  0  0  0  # atno 8010 bound_to 7997
  140.0615  144.5229  150.7291 H   0  0  0  0  0  0  0  0  0  0  0  0  # atno 10167 bound_to 10162
  157.3694  130.7693  149.7107 H   0  0  0  0  0  0  0  0  0  0  0  0  # atno 10718 bound_to 10713
  154.8601  135.3574  154.5590 H   0  0  0  0  0  0  0  0  0  0  0  0  # atno 10763 bound_to 10752
  153.6206  135.7006  153.5317 H   0  0  0  0  0  0  0  0  0  0  0  0  # atno 10764 bound_to 10752
  153.3132  135.4172  155.1314 H   0  0  0  0  0  0  0  0  0  0  0  0  # atno 10765 bound_to 10752
  141.1362  133.8208  157.0773 H   0  0  0  0  0  0  0  0  0  0  0  0  # atno 11005 bound_to 11000
  144.8624  140.7159  143.6098 LP  0  0  0  0  0  0  0  0  0  0  0  0  # atno 17320 bound_to 7965
  145.3574  139.1690  143.4401 LP  0  0  0  0  0  0  0  0  0  0  0  0  # atno 17321 bound_to 7965
  140.7169  143.2553  151.4404 LP  0  0  0  0  0  0  0  0  0  0  0  0  # atno 17342 bound_to 10162
  139.5891  144.1539  152.2066 LP  0  0  0  0  0  0  0  0  0  0  0  0  # atno 17343 bound_to 10162
  155.9752  130.4091  150.3863 LP  0  0  0  0  0  0  0  0  0  0  0  0  # atno 17370 bound_to 10713
  157.1952  131.0425  151.2679 LP  0  0  0  0  0  0  0  0  0  0  0  0  # atno 17371 bound_to 10713
  140.0474  134.9823  157.1074 LP  0  0  0  0  0  0  0  0  0  0  0  0  # atno 17394 bound_to 11000
  140.4042  134.2050  155.7163 LP  0  0  0  0  0  0  0  0  0  0  0  0  # atno 17395 bound_to 11000

$$$$
