AV-unprocessed.smi:2618|AV-procd|sdf|10219|dock5
  -GOLD-   2272014223D 1   1.00000     0.00000
 Structure written by MMmdl.
 39 40  0  0  0  0  0  0  0  0  1 V2000
  146.9199  138.9928  152.0986 C   0  0  0  0  0  0  0  0  0  0  0  0
  147.0204  139.5982  153.3753 O   0  0  0  0  0  0  0  0  0  0  0  0
  147.4710  140.9425  153.3080 C   0  0  0  0  0  0  0  0  0  0  0  0
  147.4680  141.5640  154.7176 C   0  0  0  0  0  0  0  0  0  0  0  0
  148.5933  141.0875  155.6044 C   0  0  0  0  0  0  0  0  0  0  0  0
  149.3821  141.8593  156.2573 N   0  0  0  0  0  0  0  0  0  0  0  0
  150.2726  141.1550  156.9551 N   0  0  0  0  0  0  0  0  0  0  0  0
  151.2063  141.7453  157.8150 C   0  0  0  0  0  0  0  0  0  0  0  0
  151.2063  143.0798  157.9254 N   0  0  0  0  0  0  0  0  0  0  0  0
  152.1124  143.6434  158.7526 C   0  0  0  0  0  0  0  0  0  0  0  0
  152.0862  145.1530  158.8607 C   0  0  0  0  0  0  0  0  0  0  0  0
  153.0395  142.8675  159.4767 C   0  0  0  0  0  0  0  0  0  0  0  0
  152.9596  141.4735  159.2856 C   0  0  0  0  0  0  0  0  0  0  0  0
  153.8952  140.5198  159.9971 C   0  0  0  0  0  0  0  0  0  0  0  0
  152.0462  140.9206  158.4589 N   0  0  0  0  0  0  0  0  0  0  0  0
  150.1537  139.7141  156.6863 C   0  0  2  0  0  0  0  0  0  0  0  0
  149.9297  138.8924  157.8207 O   0  0  0  0  0  0  0  0  0  0  0  0
  151.3695  139.1497  155.8976 C   0  0  0  0  0  0  0  0  0  0  0  0
  151.5261  139.8167  154.7528 F   0  0  0  0  0  0  0  0  0  0  0  0
  152.5065  139.2434  156.5855 F   0  0  0  0  0  0  0  0  0  0  0  0
  151.1656  137.8652  155.6000 F   0  0  0  0  0  0  0  0  0  0  0  0
  148.8747  139.6479  155.8407 C   0  0  0  0  0  0  0  0  0  0  0  0
  146.5616  137.9692  152.2064 H   0  0  0  0  0  0  0  0  0  0  0  0
  147.8907  138.9586  151.6021 H   0  0  0  0  0  0  0  0  0  0  0  0
  146.2178  139.5308  151.4605 H   0  0  0  0  0  0  0  0  0  0  0  0
  148.4653  140.9988  152.8613 H   0  0  0  0  0  0  0  0  0  0  0  0
  146.8005  141.5104  152.6612 H   0  0  0  0  0  0  0  0  0  0  0  0
  147.5272  142.6490  154.6309 H   0  0  0  0  0  0  0  0  0  0  0  0
  146.5137  141.3490  155.1992 H   0  0  0  0  0  0  0  0  0  0  0  0
  152.6862  145.4967  159.7037 H   0  0  0  0  0  0  0  0  0  0  0  0
  151.0653  145.5090  159.0030 H   0  0  0  0  0  0  0  0  0  0  0  0
  152.4838  145.6028  157.9507 H   0  0  0  0  0  0  0  0  0  0  0  0
  153.7681  143.3148  160.1371 H   0  0  0  0  0  0  0  0  0  0  0  0
  154.6121  141.0591  160.6168 H   0  0  0  0  0  0  0  0  0  0  0  0
  154.4515  139.9234  159.2735 H   0  0  0  0  0  0  0  0  0  0  0  0
  153.3299  139.8435  160.6388 H   0  0  0  0  0  0  0  0  0  0  0  0
  149.0517  138.5470  157.7706 H   0  0  0  0  0  0  0  0  0  0  0  0
  148.0363  139.1899  156.3681 H   0  0  0  0  0  0  0  0  0  0  0  0
  149.0141  139.1162  154.8990 H   0  0  0  0  0  0  0  0  0  0  0  0
  1  2  1  0  0  0  0
  1 23  1  0  0  0  0
  1 24  1  0  0  0  0
  1 25  1  0  0  0  0
  2  3  1  0  0  0  0
  3  4  1  0  0  0  0
  3 26  1  0  0  0  0
  3 27  1  0  0  0  0
  4  5  1  0  0  0  0
  4 28  1  0  0  0  0
  4 29  1  0  0  0  0
  5 22  1  0  0  0  0
  5  6  2  0  0  0  0
  6  7  1  0  0  0  0
  7  8  1  0  0  0  0
  7 16  1  0  0  0  0
  8 15  1  0  0  0  0
  8  9  2  0  0  0  0
  9 10  1  0  0  0  0
 10 11  1  0  0  0  0
 10 12  2  0  0  0  0
 11 30  1  0  0  0  0
 11 31  1  0  0  0  0
 11 32  1  0  0  0  0
 12 13  1  0  0  0  0
 12 33  1  0  0  0  0
 13 14  1  0  0  0  0
 13 15  2  0  0  0  0
 14 34  1  0  0  0  0
 14 35  1  0  0  0  0
 14 36  1  0  0  0  0
 16 17  1  0  0  0  0
 16 18  1  0  0  0  0
 16 22  1  0  0  0  0
 17 37  1  0  0  0  0
 18 19  1  0  0  0  0
 18 20  1  0  0  0  0
 18 21  1  0  0  0  0
 22 38  1  0  0  0  0
 22 39  1  0  0  0  0
M  END
> <s_m_source_file>
AV-unprocessed.smi

> <i_m_source_file_index>
2618

> <i_lp_mmshare_version>
43012

> <i_f3d_flags>
0

> <s_epik_input>
W0NIM11PW0NIMl1bQ0gyXUMoW0NIMl0xKT1OTihbQ0BAXTEoW09IXSlDKEYpKEYpRiljMm5jKFtDSDNdKVtjSF1jKG4yKVtDSDNd

> <s_epik_cmdline>
J2VwaWtfcHl0aG9uJywgJy1waCcsICc3LjAnLCAnLXRuJywgJzgnLCAnLW1hJywgJzIwMCcsICctbWV0YWxfYmluZGluZycsICctaW1hZScsICc8aW5maWxlLm1hZT4nLCAnLW9tYWUnLCAnPG91dGZpbGUubWFlPic=

> <r_lp_tautomer_probability>
1

> <r_epik_Ionization_Penalty>
0.0648608

> <r_epik_Ionization_Penalty_Charging>
0

> <r_epik_Ionization_Penalty_Neutral>
0.0648608

> <r_epik_State_Penalty>
0.0551477

> <r_epik_Charging_Adjusted_Penalty>
0.0551477

> <i_epik_Tot_Q>
0

> <i_epik_Tot_abs_Q>
0

> <r_epik_Metal_State_Penalty>
0.0550619

> <b_epik_Metal_Only>
0

> <s_epik_Chemistry_Notes>
This compound has an imine and may undergo hydrolysis.

> <s_lp_Force_Field>
OPLS_2005

> <r_lp_Energy>
16.3005

> <b_lp_Chiralities_Consistent>
1

> <s_lp_Variant>
AV-unprocessed.smi:2618-2

> <Gold.Version>
5.8.1

> <Gold.Id.Protein>
6NUR|6NUR_protein|mol2

> <Gold.PLP.Fitness>
37.3230

> <Gold.PLP.PLP>
-37.5618

> <Gold.PLP.part.hbond>
0.0000

> <Gold.PLP.part.metal>
0.0000

> <Gold.PLP.part.buried>
-3.9138

> <Gold.PLP.part.nonpolar>
-35.3917

> <Gold.PLP.part.repulsive>
1.2006

> <Gold.PLP.ligand.clash>
0.0000

> <Gold.PLP.ligand.torsion>
0.1660

> <Gold.PLP.Chemscore.Hbond>
0.0000

> <Gold.PLP.Chemscore.CHOScore>
0.0000

> <Gold.PLP.Chemscore.Metal>
0.0000

> <Gold.PLP.Chemscore.Internal.Correction>
0.0931

> <Gold.Rescore>
     Score         DG    S(hbond)    S(metal)    S(lipo)     H(rot)  DE(clash)    DE(int)     intcor
      8.03     -11.00       0.00        0.00      91.69       2.03       0.99       1.98       ----

> <Gold.Chemscore.Fitness>
8.0278

> <Gold.Chemscore.DG>
-11.0002

> <Gold.Chemscore.ZeroCoef>
-5.4800

> <Gold.Chemscore.Hbond>
0.0000

> <Gold.Chemscore.Metal>
0.0000

> <Gold.Chemscore.Lipo>
91.6861

> <Gold.Chemscore.Internal_Hbond>
0.0000

> <Gold.Chemscore.DEClash>
0.9927

> <Gold.Chemscore.DEInternal>
1.9796

> <Gold.Chemscore.Rot>
2.0340

> <Gold.Chemscore.Internal.Correction>
   9.000000E+99

> <Gold.Chemscore.Hbond.Weighted>
-0.0000

> <Gold.Chemscore.Metal.Weighted>
-0.0000

> <Gold.Chemscore.Lipo.Weighted>
-10.7273

> <Gold.Chemscore.Internal_Hbond.Weighted>
0.0000

> <Gold.Chemscore.DEClash.Weighted>
0.9927

> <Gold.Chemscore.DEInternal.Weighted>
1.9796

> <Gold.Chemscore.Rot.Weighted>
5.2071

> <Gold.Chemscore.Internal.Correction.Weighted>
   9.000000E+99

> <Gold.Protein.RotatedTorsions>
[ 6907 6896 6895 6894 ] final -107.33 input  -60.11 | X-H torsion
[ 7974 7965 7964 7962 ] final  126.48 input  175.53 | X-H torsion
[ 8008 7997 7996 7995 ] final  137.63 input   59.86 | X-H torsion
[ 10167 10162 10161 10158 ] final -144.68 input  -65.29 | X-H torsion
[ 10718 10713 10712 10709 ] final -127.29 input   66.30 | X-H torsion
[ 10763 10752 10751 10750 ] final  -22.75 input  -60.55 | X-H torsion
[ 11005 11000 10999 10996 ] final  -92.50 input  -57.11 | X-H torsion

> <Gold.Protein.ActiveResidues>
 VAL166  LYS551  ARG553  GLY616  TRP617  ASP618  TYR619  PRO620  LYS621  CYS622 
 ASP623  PHE694  ASN695  SER759  ASP760  ASP761  ALA762  ILE779  LEU786  VAL792 
 PHE793  MET794  SER795  GLU796  ALA797  LYS798  CYS799  TRP800  GLU811  SER814 

> <Gold.Protein.RotatedAtoms>
  150.7438  133.9842  159.3585 H   0  0  0  0  0  0  0  0  0  0  0  0  # atno 6907 bound_to 6896
  151.7785  135.0766  160.0379 H   0  0  0  0  0  0  0  0  0  0  0  0  # atno 6908 bound_to 6896
  152.3290  133.5900  159.5833 H   0  0  0  0  0  0  0  0  0  0  0  0  # atno 6909 bound_to 6896
  145.0612  139.3803  143.5004 H   0  0  0  0  0  0  0  0  0  0  0  0  # atno 7974 bound_to 7965
  156.3001  140.2414  156.3941 H   0  0  0  0  0  0  0  0  0  0  0  0  # atno 8008 bound_to 7997
  154.8587  140.0421  157.1671 H   0  0  0  0  0  0  0  0  0  0  0  0  # atno 8009 bound_to 7997
  154.8920  140.2964  155.5369 H   0  0  0  0  0  0  0  0  0  0  0  0  # atno 8010 bound_to 7997
  139.7877  143.8011  152.2646 H   0  0  0  0  0  0  0  0  0  0  0  0  # atno 10167 bound_to 10162
  156.1844  130.6753  151.0345 H   0  0  0  0  0  0  0  0  0  0  0  0  # atno 10718 bound_to 10713
  153.6570  135.6978  153.5190 H   0  0  0  0  0  0  0  0  0  0  0  0  # atno 10763 bound_to 10752
  153.2662  135.4229  155.0942 H   0  0  0  0  0  0  0  0  0  0  0  0  # atno 10764 bound_to 10752
  154.8462  135.3567  154.6114 H   0  0  0  0  0  0  0  0  0  0  0  0  # atno 10765 bound_to 10752
  141.1520  133.7825  157.0028 H   0  0  0  0  0  0  0  0  0  0  0  0  # atno 11005 bound_to 11000
  146.3524  140.0312  142.8650 LP  0  0  0  0  0  0  0  0  0  0  0  0  # atno 17320 bound_to 7965
  145.1406  140.9569  143.4491 LP  0  0  0  0  0  0  0  0  0  0  0  0  # atno 17321 bound_to 7965
  139.8093  144.7342  150.9719 LP  0  0  0  0  0  0  0  0  0  0  0  0  # atno 17342 bound_to 10162
  140.7820  143.4267  151.0757 LP  0  0  0  0  0  0  0  0  0  0  0  0  # atno 17343 bound_to 10162
  157.6889  131.0816  150.7164 LP  0  0  0  0  0  0  0  0  0  0  0  0  # atno 17370 bound_to 10713
  156.7221  130.4684  149.5520 LP  0  0  0  0  0  0  0  0  0  0  0  0  # atno 17371 bound_to 10713
  140.0928  134.9582  157.1803 LP  0  0  0  0  0  0  0  0  0  0  0  0  # atno 17394 bound_to 11000
  140.3422  134.2691  155.7210 LP  0  0  0  0  0  0  0  0  0  0  0  0  # atno 17395 bound_to 11000

$$$$
