AV-unprocessed.smi:2293|AV-procd|sdf|9215|dock1
  -GOLD-   2272012433D 1   1.00000     0.00000
 Structure written by MMmdl.
 34 35  0  0  0  0  0  0  0  0  1 V2000
  145.6183  141.6811  157.3835 C   0  0  0  0  0  0  0  0  0  0  0  0
  147.0544  141.3708  157.0001 C   0  0  0  0  0  0  0  0  0  0  0  0
  147.9061  141.0494  158.0606 N   0  0  0  0  0  0  0  0  0  0  0  0
  149.1467  140.7696  157.8286 C   0  0  0  0  0  0  0  0  0  0  0  0
  149.6760  140.7804  156.5270 N   0  0  0  0  0  0  0  0  0  0  0  0
  151.1031  140.4370  156.3993 C   0  0  0  0  0  0  0  0  0  0  0  0
  151.7853  140.2372  157.7719 C   0  0  1  0  0  0  0  0  0  0  0  0
  153.0288  139.5931  157.5789 O   0  0  0  0  0  0  0  0  0  0  0  0
  151.9642  141.5661  158.4901 C   0  0  0  0  0  0  0  0  0  0  0  0
  151.5625  142.7741  157.8775 C   0  0  0  0  0  0  0  0  0  0  0  0
  151.7261  144.0005  158.5504 C   0  0  0  0  0  0  0  0  0  0  0  0
  152.2898  144.0267  159.8404 C   0  0  0  0  0  0  0  0  0  0  0  0
  152.6875  142.8255  160.4582 C   0  0  0  0  0  0  0  0  0  0  0  0
  153.2266  142.8495  161.7000 F   0  0  0  0  0  0  0  0  0  0  0  0
  152.5244  141.5987  159.7855 C   0  0  0  0  0  0  0  0  0  0  0  0
  148.9143  141.0827  155.4361 C   0  0  0  0  0  0  0  0  0  0  0  0
  149.3853  141.0894  154.2973 O   0  0  0  0  0  0  0  0  0  0  0  0
  147.5035  141.3966  155.7155 C   0  0  0  0  0  0  0  0  0  0  0  0
  146.6215  141.7383  154.5210 C   0  0  0  0  0  0  0  0  0  0  0  0
  144.9353  140.9787  156.9056 H   0  0  0  0  0  0  0  0  0  0  0  0
  145.3509  142.6925  157.0767 H   0  0  0  0  0  0  0  0  0  0  0  0
  145.4705  141.6094  158.4617 H   0  0  0  0  0  0  0  0  0  0  0  0
  149.8515  140.5063  158.6192 H   0  0  0  0  0  0  0  0  0  0  0  0
  151.2612  139.5665  155.7596 H   0  0  0  0  0  0  0  0  0  0  0  0
  151.6042  141.2498  155.8692 H   0  0  0  0  0  0  0  0  0  0  0  0
  151.1742  139.5884  158.4009 H   0  0  0  0  0  0  0  0  0  0  0  0
  153.0530  138.8185  158.1199 H   0  0  0  0  0  0  0  0  0  0  0  0
  151.1258  142.7627  156.8894 H   0  0  0  0  0  0  0  0  0  0  0  0
  151.4181  144.9212  158.0770 H   0  0  0  0  0  0  0  0  0  0  0  0
  152.4156  144.9672  160.3563 H   0  0  0  0  0  0  0  0  0  0  0  0
  152.8313  140.6830  160.2694 H   0  0  0  0  0  0  0  0  0  0  0  0
  147.0072  142.6209  154.0097 H   0  0  0  0  0  0  0  0  0  0  0  0
  145.5880  141.9435  154.7943 H   0  0  0  0  0  0  0  0  0  0  0  0
  146.6135  140.9113  153.8103 H   0  0  0  0  0  0  0  0  0  0  0  0
  1  2  1  0  0  0  0
  1 20  1  0  0  0  0
  1 21  1  0  0  0  0
  1 22  1  0  0  0  0
  2 18  2  0  0  0  0
  2  3  1  0  0  0  0
  3  4  2  0  0  0  0
  4  5  1  0  0  0  0
  4 23  1  0  0  0  0
  5  6  1  0  0  0  0
  5 16  1  0  0  0  0
  6  7  1  0  0  0  0
  6 24  1  0  0  0  0
  6 25  1  0  0  0  0
  7  8  1  0  0  0  0
  7  9  1  0  0  0  0
  7 26  1  0  0  0  0
  8 27  1  0  0  0  0
  9 15  1  0  0  0  0
  9 10  2  0  0  0  0
 10 11  1  0  0  0  0
 10 28  1  0  0  0  0
 11 12  2  0  0  0  0
 11 29  1  0  0  0  0
 12 13  1  0  0  0  0
 12 30  1  0  0  0  0
 13 14  1  0  0  0  0
 13 15  2  0  0  0  0
 15 31  1  0  0  0  0
 16 17  2  0  0  0  0
 16 18  1  0  0  0  0
 18 19  1  0  0  0  0
 19 32  1  0  0  0  0
 19 33  1  0  0  0  0
 19 34  1  0  0  0  0
M  END
> <s_m_source_file>
AV-unprocessed.smi

> <i_m_source_file_index>
2293

> <i_lp_mmshare_version>
43012

> <i_f3d_flags>
0

> <s_epik_input>
W0NIM11jMW5bY0hdbihjKD1PKWMxW0NIM10pW0NIMl1bQ0BIXShbT0hdKWMyW2NIXVtjSF1bY0hdYyhGKVtjSF0y

> <s_epik_cmdline>
J2VwaWtfcHl0aG9uJywgJy1waCcsICc3LjAnLCAnLXRuJywgJzgnLCAnLW1hJywgJzIwMCcsICctbWV0YWxfYmluZGluZycsICctaW1hZScsICc8aW5maWxlLm1hZT4nLCAnLW9tYWUnLCAnPG91dGZpbGUubWFlPic=

> <r_lp_tautomer_probability>
1

> <r_epik_Ionization_Penalty>
5.08222e-05

> <r_epik_Ionization_Penalty_Charging>
7.56727e-08

> <r_epik_Ionization_Penalty_Neutral>
5.07465e-05

> <r_epik_State_Penalty>
-0

> <r_epik_Charging_Adjusted_Penalty>
7.56727e-08

> <i_epik_Tot_Q>
0

> <i_epik_Tot_abs_Q>
0

> <r_epik_Metal_State_Penalty>
-0

> <b_epik_Metal_Only>
0

> <s_lp_Force_Field>
OPLS_2005

> <r_lp_Energy>
19.6901

> <b_lp_Chiralities_Consistent>
1

> <s_lp_Variant>
AV-unprocessed.smi:2293-2

> <Gold.Version>
5.8.1

> <Gold.Id.Protein>
6NUR|6NUR_protein|mol2

> <Gold.PLP.Fitness>
45.0614

> <Gold.PLP.PLP>
-41.5558

> <Gold.PLP.part.hbond>
-3.0000

> <Gold.PLP.part.metal>
0.0000

> <Gold.PLP.part.buried>
-4.5491

> <Gold.PLP.part.nonpolar>
-34.3559

> <Gold.PLP.part.repulsive>
0.2569

> <Gold.PLP.ligand.clash>
2.0737

> <Gold.PLP.ligand.torsion>
0.1135

> <Gold.PLP.Chemscore.Hbond>
1.9300

> <Gold.PLP.Chemscore.CHOScore>
0.0000

> <Gold.PLP.Chemscore.Metal>
0.0000

> <Gold.Chemscore.Hbonds>
donor molecule, donor type, donor heavy atom, donor atom, acceptor molecule, acceptor atom, score
      P1  H  7989  7998       L1    17  0.07
      P1  H  7997  8008       L1     8  1.00
      P1  H  8011  8017       L1    17  0.05

> <Gold.PLP.Chemscore.Internal.Correction>
0.0163

> <Gold.Rescore>
     Score         DG    S(hbond)    S(metal)    S(lipo)     H(rot)  DE(clash)    DE(int)     intcor
     16.30     -17.21       1.89        0.00      90.40       2.02       0.69       0.22       ----

> <Gold.Chemscore.Fitness>
16.2994

> <Gold.Chemscore.DG>
-17.2140

> <Gold.Chemscore.ZeroCoef>
-5.4800

> <Gold.Chemscore.Hbond>
1.8931

> <Gold.Chemscore.Metal>
0.0000

> <Gold.Chemscore.Lipo>
90.4048

> <Gold.Chemscore.Internal_Hbond>
0.0000

> <Gold.Chemscore.DEClash>
0.6948

> <Gold.Chemscore.DEInternal>
0.2198

> <Gold.Chemscore.Rot>
2.0181

> <Gold.Chemscore.Internal.Correction>
   9.000000E+99

> <Gold.Chemscore.Hbonds>
donor molecule, donor type, donor heavy atom, donor atom, acceptor molecule, acceptor atom, score
      P1  H  7989  7998       L1    17  0.08
      P1  H  7997  8008       L1     8  0.94
      P1  H  8011  8017       L1    17  0.09

> <Gold.Chemscore.Hbond.Weighted>
-6.3230

> <Gold.Chemscore.Metal.Weighted>
-0.0000

> <Gold.Chemscore.Lipo.Weighted>
-10.5774

> <Gold.Chemscore.Internal_Hbond.Weighted>
0.0000

> <Gold.Chemscore.DEClash.Weighted>
0.6948

> <Gold.Chemscore.DEInternal.Weighted>
0.2198

> <Gold.Chemscore.Rot.Weighted>
5.1663

> <Gold.Chemscore.Internal.Correction.Weighted>
   9.000000E+99

> <Gold.Protein.RotatedTorsions>
[ 6907 6896 6895 6894 ] final -156.00 input  -60.11 | X-H torsion
[ 7974 7965 7964 7962 ] final -111.06 input  175.53 | X-H torsion
[ 8008 7997 7996 7995 ] final  -74.57 input   59.86 | X-H torsion
[ 10167 10162 10161 10158 ] final -132.28 input  -65.29 | X-H torsion
[ 10718 10713 10712 10709 ] final -143.57 input   66.30 | X-H torsion
[ 10763 10752 10751 10750 ] final  -75.70 input  -60.55 | X-H torsion
[ 11005 11000 10999 10996 ] final  -86.41 input  -57.11 | X-H torsion

> <Gold.Protein.ActiveResidues>
 VAL166  LYS551  ARG553  GLY616  TRP617  ASP618  TYR619  PRO620  LYS621  CYS622 
 ASP623  PHE694  ASN695  SER759  ASP760  ASP761  ALA762  ILE779  LEU786  VAL792 
 PHE793  MET794  SER795  GLU796  ALA797  LYS798  CYS799  TRP800  GLU811  SER814 

> <Gold.Protein.RotatedAtoms>
  151.2809  133.4210  159.2626 H   0  0  0  0  0  0  0  0  0  0  0  0  # atno 6907 bound_to 6896
  151.0361  134.9574  159.8147 H   0  0  0  0  0  0  0  0  0  0  0  0  # atno 6908 bound_to 6896
  152.5356  134.2769  159.9045 H   0  0  0  0  0  0  0  0  0  0  0  0  # atno 6909 bound_to 6896
  145.1607  140.8877  143.3592 H   0  0  0  0  0  0  0  0  0  0  0  0  # atno 7974 bound_to 7965
  154.5342  140.0759  156.8397 H   0  0  0  0  0  0  0  0  0  0  0  0  # atno 8008 bound_to 7997
  155.3313  140.3402  155.4221 H   0  0  0  0  0  0  0  0  0  0  0  0  # atno 8009 bound_to 7997
  156.1811  140.1652  156.8259 H   0  0  0  0  0  0  0  0  0  0  0  0  # atno 8010 bound_to 7997
  139.9102  143.6503  152.2577 H   0  0  0  0  0  0  0  0  0  0  0  0  # atno 10167 bound_to 10162
  156.3596  130.7731  151.1896 H   0  0  0  0  0  0  0  0  0  0  0  0  # atno 10718 bound_to 10713
  154.4900  135.5822  153.6452 H   0  0  0  0  0  0  0  0  0  0  0  0  # atno 10763 bound_to 10752
  152.9861  135.6110  154.3137 H   0  0  0  0  0  0  0  0  0  0  0  0  # atno 10764 bound_to 10752
  154.3036  135.2846  155.2579 H   0  0  0  0  0  0  0  0  0  0  0  0  # atno 10765 bound_to 10752
  141.1630  133.7453  156.9157 H   0  0  0  0  0  0  0  0  0  0  0  0  # atno 11005 bound_to 11000
  145.0334  139.3321  143.6013 LP  0  0  0  0  0  0  0  0  0  0  0  0  # atno 17320 bound_to 7965
  146.3483  139.9680  142.8709 LP  0  0  0  0  0  0  0  0  0  0  0  0  # atno 17321 bound_to 7965
  139.6949  144.7642  151.1374 LP  0  0  0  0  0  0  0  0  0  0  0  0  # atno 17342 bound_to 10162
  140.7687  143.5538  150.9175 LP  0  0  0  0  0  0  0  0  0  0  0  0  # atno 17343 bound_to 10162
  157.7472  131.0404  150.4596 LP  0  0  0  0  0  0  0  0  0  0  0  0  # atno 17370 bound_to 10713
  156.4804  130.4072  149.6465 LP  0  0  0  0  0  0  0  0  0  0  0  0  # atno 17371 bound_to 10713
  140.1486  134.9245  157.2562 LP  0  0  0  0  0  0  0  0  0  0  0  0  # atno 17394 bound_to 11000
  140.2750  134.3416  155.7361 LP  0  0  0  0  0  0  0  0  0  0  0  0  # atno 17395 bound_to 11000

$$$$
