AV-unprocessed.smi:1535|AV-procd|sdf|6181|dock2
  -GOLD-   22720 6343D 1   1.00000     0.00000
 Structure written by MMmdl.
 47 48  0  0  0  0  0  0  0  0  2 V2000
  153.0287  141.5764  159.2084 C   0  0  0  0  0  0  0  0  0  0  0  0
  151.9978  141.4954  158.0962 C   0  0  0  0  0  0  0  0  0  0  0  0
  152.1034  140.4646  157.1352 C   0  0  0  0  0  0  0  0  0  0  0  0
  151.1661  140.3547  156.0848 C   0  0  0  0  0  0  0  0  0  0  0  0
  151.0770  139.4393  155.0500 N   0  0  0  0  0  0  0  0  0  0  0  0
  149.9946  139.8663  154.4062 C   0  0  0  0  0  0  0  0  0  0  0  0
  149.3730  140.9549  154.8999 N   0  0  0  0  0  0  0  0  0  0  0  0
  148.1860  141.6053  154.3744 C   0  0  0  0  0  0  0  0  0  0  0  0
  147.0715  140.5990  154.0289 C   0  0  1  0  0  0  0  0  0  0  0  0
  145.8102  141.1945  154.2679 O   0  0  0  0  0  0  0  0  0  0  0  0
  147.1351  140.1468  152.5566 C   0  0  0  0  0  0  0  0  0  0  0  0
  146.1389  139.0864  152.2601 N   0  3  1  0  0  0  0  0  0  0  0  0
  146.1830  138.6569  150.8435 C   0  0  0  0  0  0  0  0  0  0  0  0
  146.2014  137.9394  153.2035 C   0  0  0  0  0  0  0  0  0  0  0  0
  145.2708  136.7888  152.7797 C   0  0  2  0  0  0  0  0  0  0  0  0
  143.7922  137.2060  152.7903 C   0  0  0  0  0  0  0  0  0  0  0  0
  145.4802  135.6129  153.6391 C   0  0  0  0  0  0  0  0  0  0  0  0
  145.6446  134.6878  154.3135 N   0  0  0  0  0  0  0  0  0  0  0  0
  150.1129  141.3133  156.0211 C   0  0  0  0  0  0  0  0  0  0  0  0
  149.9956  142.3421  156.9723 C   0  0  0  0  0  0  0  0  0  0  0  0
  150.9391  142.4357  158.0166 C   0  0  0  0  0  0  0  0  0  0  0  0
  150.8019  143.5485  159.0409 C   0  0  0  0  0  0  0  0  0  0  0  0
  153.8071  140.8227  159.0855 H   0  0  0  0  0  0  0  0  0  0  0  0
  152.5564  141.4155  160.1777 H   0  0  0  0  0  0  0  0  0  0  0  0
  153.5102  142.5544  159.2152 H   0  0  0  0  0  0  0  0  0  0  0  0
  152.9083  139.7469  157.1970 H   0  0  0  0  0  0  0  0  0  0  0  0
  149.6349  139.3604  153.5219 H   0  0  0  0  0  0  0  0  0  0  0  0
  147.8323  142.3360  155.1035 H   0  0  0  0  0  0  0  0  0  0  0  0
  148.4758  142.1666  153.4853 H   0  0  0  0  0  0  0  0  0  0  0  0
  147.1625  139.7378  154.6906 H   0  0  0  0  0  0  0  0  0  0  0  0
  145.1800  140.8238  153.6684 H   0  0  0  0  0  0  0  0  0  0  0  0
  146.9627  141.0152  151.9181 H   0  0  0  0  0  0  0  0  0  0  0  0
  148.1321  139.7807  152.3053 H   0  0  0  0  0  0  0  0  0  0  0  0
  147.1506  138.2171  150.5982 H   0  0  0  0  0  0  0  0  0  0  0  0
  146.0157  139.5051  150.1790 H   0  0  0  0  0  0  0  0  0  0  0  0
  145.4092  137.9195  150.6307 H   0  0  0  0  0  0  0  0  0  0  0  0
  147.2324  137.5893  153.2776 H   0  0  0  0  0  0  0  0  0  0  0  0
  145.9254  138.2509  154.2112 H   0  0  0  0  0  0  0  0  0  0  0  0
  145.5328  136.4595  151.7743 H   0  0  0  0  0  0  0  0  0  0  0  0
  143.1511  136.3733  152.5008 H   0  0  0  0  0  0  0  0  0  0  0  0
  143.6015  138.0233  152.0944 H   0  0  0  0  0  0  0  0  0  0  0  0
  143.4815  137.5331  153.7831 H   0  0  0  0  0  0  0  0  0  0  0  0
  149.1857  143.0527  156.8992 H   0  0  0  0  0  0  0  0  0  0  0  0
  149.8862  144.1199  158.8865 H   0  0  0  0  0  0  0  0  0  0  0  0
  151.6444  144.2368  158.9699 H   0  0  0  0  0  0  0  0  0  0  0  0
  150.7719  143.1395  160.0511 H   0  0  0  0  0  0  0  0  0  0  0  0
  145.2376  139.5228  152.3958 H   0  0  0  0  0  0  0  0  0  0  0  0
  1  2  1  0  0  0  0
  1 23  1  0  0  0  0
  1 24  1  0  0  0  0
  1 25  1  0  0  0  0
  2 21  1  0  0  0  0
  2  3  2  0  0  0  0
  3  4  1  0  0  0  0
  3 26  1  0  0  0  0
  4 19  2  0  0  0  0
  4  5  1  0  0  0  0
  5  6  2  0  0  0  0
  6  7  1  0  0  0  0
  6 27  1  0  0  0  0
  7  8  1  0  0  0  0
  7 19  1  0  0  0  0
  8  9  1  0  0  0  0
  8 28  1  0  0  0  0
  8 29  1  0  0  0  0
  9 10  1  0  0  0  0
  9 11  1  0  0  0  0
  9 30  1  0  0  0  0
 10 31  1  0  0  0  0
 11 12  1  0  0  0  0
 11 32  1  0  0  0  0
 11 33  1  0  0  0  0
 12 13  1  0  0  0  0
 12 14  1  0  0  0  0
 12 47  1  0  0  0  0
 13 34  1  0  0  0  0
 13 35  1  0  0  0  0
 13 36  1  0  0  0  0
 14 15  1  0  0  0  0
 14 37  1  0  0  0  0
 14 38  1  0  0  0  0
 15 16  1  0  0  0  0
 15 17  1  0  0  0  0
 15 39  1  0  0  0  0
 16 40  1  0  0  0  0
 16 41  1  0  0  0  0
 16 42  1  0  0  0  0
 17 18  3  0  0  0  0
 19 20  1  0  0  0  0
 20 21  2  0  0  0  0
 20 43  1  0  0  0  0
 21 22  1  0  0  0  0
 22 44  1  0  0  0  0
 22 45  1  0  0  0  0
 22 46  1  0  0  0  0
M  CHG  1  12   1
M  END
> <s_m_source_file>
AV-unprocessed.smi

> <i_m_source_file_index>
1535

> <i_lp_mmshare_version>
43012

> <i_f3d_flags>
0

> <s_epik_input>
W0NIM11jKFtjSF0xKWMoW0NIM10pW2NIXWMoYzEyKW4oW2NIXW4yKVtDSDJdW0NASF0oW09IXSlbQ0gyXU4oW0NIM10pW0NIMl1bQ0BIXShbQ0gzXSlDI04=

> <s_epik_cmdline>
J2VwaWtfcHl0aG9uJywgJy1waCcsICc3LjAnLCAnLXRuJywgJzgnLCAnLW1hJywgJzIwMCcsICctbWV0YWxfYmluZGluZycsICctaW1hZScsICc8aW5maWxlLm1hZT4nLCAnLW9tYWUnLCAnPG91dGZpbGUubWFlPic=

> <r_epik_Ionization_Penalty>
2.21058

> <r_epik_Ionization_Penalty_Charging>
2.12381

> <r_epik_Ionization_Penalty_Neutral>
0.0867699

> <r_epik_State_Penalty>
2.36208

> <r_epik_Charging_Adjusted_Penalty>
4.48589

> <i_epik_Tot_Q>
1

> <i_epik_Tot_abs_Q>
1

> <r_epik_Metal_State_Penalty>
2.2818

> <b_epik_Metal_Only>
0

> <s_lp_Force_Field>
OPLS_2005

> <r_lp_Energy>
17.3963

> <b_lp_Chiralities_Consistent>
1

> <s_lp_Variant>
AV-unprocessed.smi:1535-12

> <Gold.Version>
5.8.1

> <Gold.Id.Protein>
6NUR|6NUR_protein|mol2

> <Gold.PLP.Fitness>
45.5587

> <Gold.PLP.PLP>
-34.4874

> <Gold.PLP.part.hbond>
-2.5437

> <Gold.PLP.part.metal>
0.0000

> <Gold.PLP.part.buried>
6.4512

> <Gold.PLP.part.nonpolar>
-37.2771

> <Gold.PLP.part.repulsive>
0.1534

> <Gold.PLP.ligand.clash>
0.0000

> <Gold.PLP.ligand.torsion>
0.6946

> <Gold.PLP.Chemscore.Hbond>
3.0000

> <Gold.PLP.Chemscore.CHOScore>
1.0000

> <Gold.PLP.Chemscore.Metal>
0.0000

> <Gold.Chemscore.Hbonds>
donor molecule, donor type, donor heavy atom, donor atom, acceptor molecule, acceptor atom, score
      L1  H    10    31       P1 10175  1.00
      L1  H    12    47       P1 10175  2.00
      L1  C     6    27       P1  7957  1.00

> <Gold.PLP.Chemscore.Internal.Correction>
0.4604

> <Gold.Rescore>
     Score         DG    S(hbond)    S(metal)    S(lipo)     H(rot)  DE(clash)    DE(int)     intcor
     13.57     -17.97       1.97        0.00     107.49       2.60       3.67       0.73       ----

> <Gold.Chemscore.Fitness>
13.5699

> <Gold.Chemscore.DG>
-17.9693

> <Gold.Chemscore.ZeroCoef>
-5.4800

> <Gold.Chemscore.Hbond>
1.9692

> <Gold.Chemscore.Metal>
0.0000

> <Gold.Chemscore.Lipo>
107.4896

> <Gold.Chemscore.Internal_Hbond>
0.0000

> <Gold.Chemscore.DEClash>
3.6652

> <Gold.Chemscore.DEInternal>
0.7342

> <Gold.Chemscore.Rot>
2.6031

> <Gold.Chemscore.Internal.Correction>
   9.000000E+99

> <Gold.Chemscore.Hbonds>
donor molecule, donor type, donor heavy atom, donor atom, acceptor molecule, acceptor atom, score
      L1  H    10    31       P1 10175  0.88
      L1  H    12    47       P1 10175  1.00

> <Gold.Chemscore.Hbond.Weighted>
-6.5770

> <Gold.Chemscore.Metal.Weighted>
-0.0000

> <Gold.Chemscore.Lipo.Weighted>
-12.5763

> <Gold.Chemscore.Internal_Hbond.Weighted>
0.0000

> <Gold.Chemscore.DEClash.Weighted>
3.6652

> <Gold.Chemscore.DEInternal.Weighted>
0.7342

> <Gold.Chemscore.Rot.Weighted>
6.6640

> <Gold.Chemscore.Internal.Correction.Weighted>
   9.000000E+99

> <Gold.Protein.RotatedTorsions>
[ 6907 6896 6895 6894 ] final -129.60 input  -60.11 | X-H torsion
[ 7974 7965 7964 7962 ] final  -17.63 input  175.53 | X-H torsion
[ 8008 7997 7996 7995 ] final   84.62 input   59.86 | X-H torsion
[ 10167 10162 10161 10158 ] final   64.54 input  -65.29 | X-H torsion
[ 10718 10713 10712 10709 ] final -120.45 input   66.30 | X-H torsion
[ 10763 10752 10751 10750 ] final   86.58 input  -60.55 | X-H torsion
[ 11005 11000 10999 10996 ] final -165.85 input  -57.11 | X-H torsion

> <Gold.Protein.ActiveResidues>
 VAL166  LYS551  ARG553  GLY616  TRP617  ASP618  TYR619  PRO620  LYS621  CYS622 
 ASP623  PHE694  ASN695  SER759  ASP760  ASP761  ALA762  ILE779  LEU786  VAL792 
 PHE793  MET794  SER795  GLU796  ALA797  LYS798  CYS799  TRP800  GLU811  SER814 

> <Gold.Protein.RotatedAtoms>
  150.9305  133.6773  159.2811 H   0  0  0  0  0  0  0  0  0  0  0  0  # atno 6907 bound_to 6896
  151.4196  135.0995  159.9619 H   0  0  0  0  0  0  0  0  0  0  0  0  # atno 6908 bound_to 6896
  152.5023  133.8759  159.7377 H   0  0  0  0  0  0  0  0  0  0  0  0  # atno 6909 bound_to 6896
  146.1931  140.3807  142.8450 H   0  0  0  0  0  0  0  0  0  0  0  0  # atno 7974 bound_to 7965
  155.9395  140.3409  155.6315 H   0  0  0  0  0  0  0  0  0  0  0  0  # atno 8008 bound_to 7997
  155.7058  140.0765  157.2410 H   0  0  0  0  0  0  0  0  0  0  0  0  # atno 8009 bound_to 7997
  154.4100  140.1632  156.2228 H   0  0  0  0  0  0  0  0  0  0  0  0  # atno 8010 bound_to 7997
  140.1210  144.4731  150.6920 H   0  0  0  0  0  0  0  0  0  0  0  0  # atno 10167 bound_to 10162
  156.1259  130.6358  150.9541 H   0  0  0  0  0  0  0  0  0  0  0  0  # atno 10718 bound_to 10713
  153.1585  135.4575  154.9738 H   0  0  0  0  0  0  0  0  0  0  0  0  # atno 10763 bound_to 10752
  154.7879  135.3210  154.7846 H   0  0  0  0  0  0  0  0  0  0  0  0  # atno 10764 bound_to 10752
  153.8340  135.6936  153.4865 H   0  0  0  0  0  0  0  0  0  0  0  0  # atno 10765 bound_to 10752
  140.5710  134.5237  157.5162 H   0  0  0  0  0  0  0  0  0  0  0  0  # atno 11005 bound_to 11000
  144.8526  140.7024  143.6158 LP  0  0  0  0  0  0  0  0  0  0  0  0  # atno 17320 bound_to 7965
  145.3729  139.1654  143.4322 LP  0  0  0  0  0  0  0  0  0  0  0  0  # atno 17321 bound_to 7965
  140.6872  143.2356  151.5229 LP  0  0  0  0  0  0  0  0  0  0  0  0  # atno 17342 bound_to 10162
  139.5568  144.2254  152.1626 LP  0  0  0  0  0  0  0  0  0  0  0  0  # atno 17343 bound_to 10162
  157.6440  131.0906  150.8192 LP  0  0  0  0  0  0  0  0  0  0  0  0  # atno 17370 bound_to 10713
  156.8282  130.5007  149.5334 LP  0  0  0  0  0  0  0  0  0  0  0  0  # atno 17371 bound_to 10713
  139.9362  134.7872  156.0798 LP  0  0  0  0  0  0  0  0  0  0  0  0  # atno 17394 bound_to 11000
  141.1056  133.6661  156.2856 LP  0  0  0  0  0  0  0  0  0  0  0  0  # atno 17395 bound_to 11000

$$$$
