AV-unprocessed.smi:2061|AV-procd|sdf|8381|dock7
  -GOLD-   2272011 63D 1   1.00000     0.00000
 Structure written by MMmdl.
 45 46  0  0  0  0  0  0  0  0  3 V2000
  146.5307  133.7064  162.5006 C   0  0  0  0  0  0  0  0  0  0  0  0
  147.1907  134.6669  161.5712 C   0  0  0  0  0  0  0  0  0  0  0  0
  147.5956  135.9640  161.7116 C   0  0  0  0  0  0  0  0  0  0  0  0
  148.1369  136.2756  160.4345 C   0  0  0  0  0  0  0  0  0  0  0  0
  148.6801  137.4480  160.0721 N   0  5  0  0  0  0  0  0  0  0  0  0
  149.7241  137.4787  159.2133 C   0  0  0  0  0  0  0  0  0  0  0  0
  150.6131  136.6302  159.1088 O   0  0  0  0  0  0  0  0  0  0  0  0
  149.7360  138.5584  158.4189 N   0  0  0  0  0  0  0  0  0  0  0  0
  150.7252  138.8422  157.3836 C   0  0  0  0  0  0  0  0  0  0  0  0
  150.9551  140.3611  157.1650 C   0  0  1  0  0  0  0  0  0  0  0  0
  149.6780  141.0160  156.5839 C   0  0  0  0  0  0  0  0  0  0  0  0
  151.4309  140.9975  158.4363 N   0  3  1  0  0  0  0  0  0  0  0  0
  152.7539  140.4762  158.8738 C   0  0  0  0  0  0  0  0  0  0  0  0
  153.1529  141.0596  160.2412 C   0  0  1  0  0  0  0  0  0  0  0  0
  154.5368  140.5809  160.6945 C   0  0  0  0  0  0  0  0  0  0  0  0
  153.1864  142.4771  160.1421 O   0  0  0  0  0  0  0  0  0  0  0  0
  151.9156  143.0242  159.8163 C   0  0  1  0  0  0  0  0  0  0  0  0
  152.0413  144.5518  159.8248 C   0  0  0  0  0  0  0  0  0  0  0  0
  151.4602  142.4861  158.4455 C   0  0  0  0  0  0  0  0  0  0  0  0
  148.0828  135.2518  159.5992 N   0  0  0  0  0  0  0  0  0  0  0  0
  147.4705  134.2183  160.3180 O   0  0  0  0  0  0  0  0  0  0  0  0
  147.0341  133.6970  163.4673 H   0  0  0  0  0  0  0  0  0  0  0  0
  146.5519  132.6929  162.0995 H   0  0  0  0  0  0  0  0  0  0  0  0
  145.4892  133.9837  162.6639 H   0  0  0  0  0  0  0  0  0  0  0  0
  147.5137  136.5918  162.5860 H   0  0  0  0  0  0  0  0  0  0  0  0
  148.9931  139.2309  158.5406 H   0  0  0  0  0  0  0  0  0  0  0  0
  151.6610  138.3680  157.6803 H   0  0  0  0  0  0  0  0  0  0  0  0
  150.4108  138.3382  156.4705 H   0  0  0  0  0  0  0  0  0  0  0  0
  151.7402  140.4965  156.4195 H   0  0  0  0  0  0  0  0  0  0  0  0
  149.3449  140.5140  155.6755 H   0  0  0  0  0  0  0  0  0  0  0  0
  149.8443  142.0550  156.2996 H   0  0  0  0  0  0  0  0  0  0  0  0
  148.8525  140.9817  157.2953 H   0  0  0  0  0  0  0  0  0  0  0  0
  152.7422  139.3903  158.9477 H   0  0  0  0  0  0  0  0  0  0  0  0
  153.5078  140.7308  158.1266 H   0  0  0  0  0  0  0  0  0  0  0  0
  152.4211  140.7654  160.9958 H   0  0  0  0  0  0  0  0  0  0  0  0
  154.5643  139.4954  160.7926 H   0  0  0  0  0  0  0  0  0  0  0  0
  154.7982  141.0078  161.6633 H   0  0  0  0  0  0  0  0  0  0  0  0
  155.3095  140.8726  159.9826 H   0  0  0  0  0  0  0  0  0  0  0  0
  151.1937  142.7337  160.5817 H   0  0  0  0  0  0  0  0  0  0  0  0
  151.0870  145.0269  159.5968 H   0  0  0  0  0  0  0  0  0  0  0  0
  152.7693  144.8926  159.0878 H   0  0  0  0  0  0  0  0  0  0  0  0
  152.3654  144.9104  160.8021 H   0  0  0  0  0  0  0  0  0  0  0  0
  152.1253  142.8416  157.6567 H   0  0  0  0  0  0  0  0  0  0  0  0
  150.4690  142.8932  158.2478 H   0  0  0  0  0  0  0  0  0  0  0  0
  150.7620  140.7330  159.1454 H   0  0  0  0  0  0  0  0  0  0  0  0
  1  2  1  0  0  0  0
  1 22  1  0  0  0  0
  1 23  1  0  0  0  0
  1 24  1  0  0  0  0
  2 21  1  0  0  0  0
  2  3  2  0  0  0  0
  3  4  1  0  0  0  0
  3 25  1  0  0  0  0
  4  5  1  0  0  0  0
  4 20  2  0  0  0  0
  5  6  1  0  0  0  0
  6  7  2  0  0  0  0
  6  8  1  0  0  0  0
  8  9  1  0  0  0  0
  8 26  1  0  0  0  0
  9 10  1  0  0  0  0
  9 27  1  0  0  0  0
  9 28  1  0  0  0  0
 10 11  1  0  0  0  0
 10 12  1  0  0  0  0
 10 29  1  0  0  0  0
 11 30  1  0  0  0  0
 11 31  1  0  0  0  0
 11 32  1  0  0  0  0
 12 19  1  0  0  0  0
 12 13  1  0  0  0  0
 12 45  1  0  0  0  0
 13 14  1  0  0  0  0
 13 33  1  0  0  0  0
 13 34  1  0  0  0  0
 14 15  1  0  0  0  0
 14 16  1  0  0  0  0
 14 35  1  0  0  0  0
 15 36  1  0  0  0  0
 15 37  1  0  0  0  0
 15 38  1  0  0  0  0
 16 17  1  0  0  0  0
 17 18  1  0  0  0  0
 17 19  1  0  0  0  0
 17 39  1  0  0  0  0
 18 40  1  0  0  0  0
 18 41  1  0  0  0  0
 18 42  1  0  0  0  0
 19 43  1  0  0  0  0
 19 44  1  0  0  0  0
 20 21  1  0  0  0  0
M  CHG  1   5  -1
M  CHG  1  12   1
M  END
> <s_m_source_file>
AV-unprocessed.smi

> <i_m_source_file_index>
2061

> <i_lp_mmshare_version>
43012

> <i_f3d_flags>
0

> <s_epik_input>
W0NIM11jMVtjSF1jKG5vMSlbTkhdQyg9TylbTkhdW0NIMl1bQ0BIXShbQ0gzXSlOMltDSDJdW0NAQEhdKFtDSDNdKU9bQ0BASF0oW0NIM10pW0NIMl0y

> <s_epik_cmdline>
J2VwaWtfcHl0aG9uJywgJy1waCcsICc3LjAnLCAnLXRuJywgJzgnLCAnLW1hJywgJzIwMCcsICctbWV0YWxfYmluZGluZycsICctaW1hZScsICc8aW5maWxlLm1hZT4nLCAnLW9tYWUnLCAnPG91dGZpbGUubWFlPic=

> <r_epik_Ionization_Penalty>
6.73511

> <r_epik_Ionization_Penalty_Charging>
6.73502

> <r_epik_Ionization_Penalty_Neutral>
9.50841e-05

> <r_epik_State_Penalty>
6.93549

> <r_epik_Charging_Adjusted_Penalty>
13.6705

> <i_epik_Tot_Q>
0

> <i_epik_Tot_abs_Q>
2

> <r_epik_Metal_State_Penalty>
2.87211

> <b_epik_Metal_Only>
1

> <s_lp_Force_Field>
OPLS_2005

> <r_lp_Energy>
8.02842

> <b_lp_Chiralities_Consistent>
1

> <s_lp_Variant>
AV-unprocessed.smi:2061-22

> <Gold.Version>
5.8.1

> <Gold.Id.Protein>
6NUR|6NUR_protein|mol2

> <Gold.PLP.Fitness>
42.5122

> <Gold.PLP.PLP>
-37.0090

> <Gold.PLP.part.hbond>
-3.0000

> <Gold.PLP.part.metal>
0.0000

> <Gold.PLP.part.buried>
-4.9425

> <Gold.PLP.part.nonpolar>
-30.4667

> <Gold.PLP.part.repulsive>
0.2920

> <Gold.PLP.ligand.clash>
0.0000

> <Gold.PLP.ligand.torsion>
0.7495

> <Gold.PLP.Chemscore.Hbond>
2.3060

> <Gold.PLP.Chemscore.CHOScore>
0.0000

> <Gold.PLP.Chemscore.Metal>
0.0000

> <Gold.Chemscore.Hbonds>
donor molecule, donor type, donor heavy atom, donor atom, acceptor molecule, acceptor atom, score
      P1  H  6896  6907       L1     7  0.94
      P1  H  6931  6943       L1     5  0.90
      P1  H  6934  6947       L1     5  0.22

> <Gold.PLP.Chemscore.Internal.Correction>
0.0842

> <Gold.Rescore>
     Score         DG    S(hbond)    S(metal)    S(lipo)     H(rot)  DE(clash)    DE(int)     intcor
     15.92     -17.01       1.37        0.00      93.37       1.56       0.09       0.99       ----

> <Gold.Chemscore.Fitness>
15.9229

> <Gold.Chemscore.DG>
-17.0090

> <Gold.Chemscore.ZeroCoef>
-5.4800

> <Gold.Chemscore.Hbond>
1.3729

> <Gold.Chemscore.Metal>
0.0000

> <Gold.Chemscore.Lipo>
93.3708

> <Gold.Chemscore.Internal_Hbond>
0.0000

> <Gold.Chemscore.DEClash>
0.0918

> <Gold.Chemscore.DEInternal>
0.9943

> <Gold.Chemscore.Rot>
1.5550

> <Gold.Chemscore.Internal.Correction>
   9.000000E+99

> <Gold.Chemscore.Hbonds>
donor molecule, donor type, donor heavy atom, donor atom, acceptor molecule, acceptor atom, score
      P1  H  6896  6907       L1     7  0.91
      P1  H  6931  6943       L1     5  0.11
      P1  H  6934  6947       L1     5  0.05

> <Gold.Chemscore.Hbond.Weighted>
-4.5855

> <Gold.Chemscore.Metal.Weighted>
-0.0000

> <Gold.Chemscore.Lipo.Weighted>
-10.9244

> <Gold.Chemscore.Internal_Hbond.Weighted>
0.0000

> <Gold.Chemscore.DEClash.Weighted>
0.0918

> <Gold.Chemscore.DEInternal.Weighted>
0.9943

> <Gold.Chemscore.Rot.Weighted>
3.9809

> <Gold.Chemscore.Internal.Correction.Weighted>
   9.000000E+99

> <Gold.Protein.RotatedTorsions>
[ 6907 6896 6895 6894 ] final  -49.23 input  -60.11 | X-H torsion
[ 7974 7965 7964 7962 ] final -133.00 input  175.53 | X-H torsion
[ 8008 7997 7996 7995 ] final -133.38 input   59.86 | X-H torsion
[ 10167 10162 10161 10158 ] final  -81.89 input  -65.29 | X-H torsion
[ 10718 10713 10712 10709 ] final  -18.94 input   66.30 | X-H torsion
[ 10763 10752 10751 10750 ] final -109.72 input  -60.55 | X-H torsion
[ 11005 11000 10999 10996 ] final  -40.18 input  -57.11 | X-H torsion

> <Gold.Protein.ActiveResidues>
 VAL166  LYS551  ARG553  GLY616  TRP617  ASP618  TYR619  PRO620  LYS621  CYS622 
 ASP623  PHE694  ASN695  SER759  ASP760  ASP761  ALA762  ILE779  LEU786  VAL792 
 PHE793  MET794  SER795  GLU796  ALA797  LYS798  CYS799  TRP800  GLU811  SER814 

> <Gold.Protein.RotatedAtoms>
  150.8826  134.8219  159.7235 H   0  0  0  0  0  0  0  0  0  0  0  0  # atno 6907 bound_to 6896
  152.4787  134.4773  159.9664 H   0  0  0  0  0  0  0  0  0  0  0  0  # atno 6908 bound_to 6896
  151.4846  133.3500  159.2879 H   0  0  0  0  0  0  0  0  0  0  0  0  # atno 6909 bound_to 6896
  144.9233  140.7040  143.4951 H   0  0  0  0  0  0  0  0  0  0  0  0  # atno 7974 bound_to 7965
  155.3445  140.0474  157.3045 H   0  0  0  0  0  0  0  0  0  0  0  0  # atno 8008 bound_to 7997
  154.5260  140.2241  155.8855 H   0  0  0  0  0  0  0  0  0  0  0  0  # atno 8009 bound_to 7997
  156.1739  140.3089  155.9030 H   0  0  0  0  0  0  0  0  0  0  0  0  # atno 8010 bound_to 7997
  140.4371  143.2528  151.8679 H   0  0  0  0  0  0  0  0  0  0  0  0  # atno 10167 bound_to 10162
  156.5525  130.4705  149.6445 H   0  0  0  0  0  0  0  0  0  0  0  0  # atno 10718 bound_to 10713
  154.8209  135.4590  154.0775 H   0  0  0  0  0  0  0  0  0  0  0  0  # atno 10763 bound_to 10752
  153.2130  135.6884  153.8097 H   0  0  0  0  0  0  0  0  0  0  0  0  # atno 10764 bound_to 10752
  153.7542  135.3293  155.3303 H   0  0  0  0  0  0  0  0  0  0  0  0  # atno 10765 bound_to 10752
  141.0156  133.6887  156.2287 H   0  0  0  0  0  0  0  0  0  0  0  0  # atno 11005 bound_to 11000
  145.3260  139.1774  143.4562 LP  0  0  0  0  0  0  0  0  0  0  0  0  # atno 17320 bound_to 7965
  146.3214  140.3284  142.8638 LP  0  0  0  0  0  0  0  0  0  0  0  0  # atno 17321 bound_to 7965
  139.4787  144.5271  151.8720 LP  0  0  0  0  0  0  0  0  0  0  0  0  # atno 17342 bound_to 10162
  140.4361  144.2049  150.5889 LP  0  0  0  0  0  0  0  0  0  0  0  0  # atno 17343 bound_to 10162
  156.2872  130.7104  151.1943 LP  0  0  0  0  0  0  0  0  0  0  0  0  # atno 17370 bound_to 10713
  157.7385  131.0540  150.5293 LP  0  0  0  0  0  0  0  0  0  0  0  0  # atno 17371 bound_to 10713
  140.6660  134.4918  157.5585 LP  0  0  0  0  0  0  0  0  0  0  0  0  # atno 17394 bound_to 11000
  139.9115  134.8335  156.1512 LP  0  0  0  0  0  0  0  0  0  0  0  0  # atno 17395 bound_to 11000

$$$$
