AV-unprocessed.smi:249|AV-procd|sdf|1926|dock8
  -GOLD-   2262021 43D 1   1.00000     0.00000
 Structure written by MMmdl.
 64 67  0  0  0  0  0  0  0  0  2 V2000
  142.6083  136.6497  153.0427 C   0  0  0  0  0  0  0  0  0  0  0  0
  144.0105  136.7455  152.4252 C   0  0  0  0  0  0  0  0  0  0  0  0
  144.7869  137.8893  152.9690 N   0  3  2  0  0  0  0  0  0  0  0  0
  146.1160  138.0683  152.3247 C   0  0  0  0  0  0  0  0  0  0  0  0
  146.7713  139.3836  152.7733 C   0  0  0  0  0  0  0  0  0  0  0  0
  146.9011  139.4502  154.3094 C   0  0  1  0  0  0  0  0  0  0  0  0
  147.5722  140.6631  154.7953 N   0  0  0  0  0  0  0  0  0  0  0  0
  147.2100  141.9331  154.1777 C   0  0  0  0  0  0  0  0  0  0  0  0
  148.8788  140.5690  155.1367 C   0  0  0  0  0  0  0  0  0  0  0  0
  149.7176  139.9966  154.2374 N   0  0  0  0  0  0  0  0  0  0  0  0
  151.0191  139.8791  154.5155 C   0  0  0  0  0  0  0  0  0  0  0  0
  151.6750  140.2586  155.6139 N   0  0  0  0  0  0  0  0  0  0  0  0
  150.8326  140.8239  156.5255 C   0  0  0  0  0  0  0  0  0  0  0  0
  149.4312  141.0180  156.3700 C   0  0  0  0  0  0  0  0  0  0  0  0
  148.9114  141.6384  157.4999 N   0  0  0  0  0  0  0  0  0  0  0  0
  149.9464  141.8044  158.2772 C   0  0  0  0  0  0  0  0  0  0  0  0
  151.1373  141.3258  157.7788 N   0  0  0  0  0  0  0  0  0  0  0  0
  152.4362  141.3896  158.4263 C   0  0  0  0  0  0  0  0  0  0  0  0
  152.7415  142.7332  159.1396 C   0  0  1  0  0  0  0  0  0  0  0  0
  152.1006  143.8915  158.3405 C   0  0  0  0  0  0  0  0  0  0  0  0
  153.0626  144.5938  157.5798 O   0  0  0  0  0  0  0  0  0  0  0  0
  152.3536  142.7680  160.6469 C   0  0  1  0  0  0  0  0  0  0  0  0
  153.3013  142.0485  161.5957 C   0  0  0  0  0  0  0  0  0  0  0  0
  152.9963  142.6829  162.9507 C   0  0  0  0  0  0  0  0  0  0  0  0
  152.4474  143.9656  162.6762 O   0  0  0  0  0  0  0  0  0  0  0  0
  152.3821  144.1671  161.2713 C   0  0  0  0  0  0  0  0  0  0  0  0
  145.5102  139.2268  154.9421 C   0  0  0  0  0  0  0  0  0  0  0  0
  144.8553  137.9164  154.4602 C   0  0  2  0  0  0  0  0  0  0  0  0
  145.5240  136.6643  155.0678 C   0  0  0  0  0  0  0  0  0  0  0  0
  142.0890  135.7637  152.6770 H   0  0  0  0  0  0  0  0  0  0  0  0
  141.9904  137.5122  152.7948 H   0  0  0  0  0  0  0  0  0  0  0  0
  142.6614  136.5748  154.1293 H   0  0  0  0  0  0  0  0  0  0  0  0
  144.5332  135.8143  152.6470 H   0  0  0  0  0  0  0  0  0  0  0  0
  143.9475  136.8156  151.3383 H   0  0  0  0  0  0  0  0  0  0  0  0
  146.7646  137.2216  152.5515 H   0  0  0  0  0  0  0  0  0  0  0  0
  146.0061  138.0879  151.2412 H   0  0  0  0  0  0  0  0  0  0  0  0
  147.7536  139.4809  152.3100 H   0  0  0  0  0  0  0  0  0  0  0  0
  146.1674  140.2133  152.4037 H   0  0  0  0  0  0  0  0  0  0  0  0
  147.5446  138.6240  154.6129 H   0  0  0  0  0  0  0  0  0  0  0  0
  147.6815  142.7680  154.6979 H   0  0  0  0  0  0  0  0  0  0  0  0
  146.1307  142.0793  154.2251 H   0  0  0  0  0  0  0  0  0  0  0  0
  147.5101  141.9701  153.1307 H   0  0  0  0  0  0  0  0  0  0  0  0
  151.6210  139.4139  153.7488 H   0  0  0  0  0  0  0  0  0  0  0  0
  149.8664  142.2723  159.2478 H   0  0  0  0  0  0  0  0  0  0  0  0
  152.4723  140.5706  159.1457 H   0  0  0  0  0  0  0  0  0  0  0  0
  153.2057  141.1760  157.6834 H   0  0  0  0  0  0  0  0  0  0  0  0
  153.8170  142.9005  159.0811 H   0  0  0  0  0  0  0  0  0  0  0  0
  151.3202  143.5265  157.6732 H   0  0  0  0  0  0  0  0  0  0  0  0
  151.6131  144.5945  159.0167 H   0  0  0  0  0  0  0  0  0  0  0  0
  153.6577  143.9681  157.1958 H   0  0  0  0  0  0  0  0  0  0  0  0
  151.3520  142.3542  160.7752 H   0  0  0  0  0  0  0  0  0  0  0  0
  153.1543  140.9704  161.6237 H   0  0  0  0  0  0  0  0  0  0  0  0
  154.3383  142.2444  161.3188 H   0  0  0  0  0  0  0  0  0  0  0  0
  152.2528  142.0979  163.4927 H   0  0  0  0  0  0  0  0  0  0  0  0
  153.8870  142.7595  163.5747 H   0  0  0  0  0  0  0  0  0  0  0  0
  153.2747  144.7112  160.9587 H   0  0  0  0  0  0  0  0  0  0  0  0
  151.5101  144.7656  161.0073 H   0  0  0  0  0  0  0  0  0  0  0  0
  145.5764  139.2227  156.0303 H   0  0  0  0  0  0  0  0  0  0  0  0
  144.8525  140.0558  154.6801 H   0  0  0  0  0  0  0  0  0  0  0  0
  143.8270  137.9332  154.8245 H   0  0  0  0  0  0  0  0  0  0  0  0
  145.5357  136.7253  156.1563 H   0  0  0  0  0  0  0  0  0  0  0  0
  146.5562  136.5421  154.7411 H   0  0  0  0  0  0  0  0  0  0  0  0
  144.9855  135.7533  154.8076 H   0  0  0  0  0  0  0  0  0  0  0  0
  144.2527  138.7106  152.7228 H   0  0  0  0  0  0  0  0  0  0  0  0
  1  2  1  0  0  0  0
  1 30  1  0  0  0  0
  1 31  1  0  0  0  0
  1 32  1  0  0  0  0
  2  3  1  0  0  0  0
  2 33  1  0  0  0  0
  2 34  1  0  0  0  0
  3 28  1  0  0  0  0
  3  4  1  0  0  0  0
  3 64  1  0  0  0  0
  4  5  1  0  0  0  0
  4 35  1  0  0  0  0
  4 36  1  0  0  0  0
  5  6  1  0  0  0  0
  5 37  1  0  0  0  0
  5 38  1  0  0  0  0
  6  7  1  0  0  0  0
  6 27  1  0  0  0  0
  6 39  1  0  0  0  0
  7  8  1  0  0  0  0
  7  9  1  0  0  0  0
  8 40  1  0  0  0  0
  8 41  1  0  0  0  0
  8 42  1  0  0  0  0
  9 14  1  0  0  0  0
  9 10  2  0  0  0  0
 10 11  1  0  0  0  0
 11 12  2  0  0  0  0
 11 43  1  0  0  0  0
 12 13  1  0  0  0  0
 13 17  1  0  0  0  0
 13 14  2  0  0  0  0
 14 15  1  0  0  0  0
 15 16  2  0  0  0  0
 16 17  1  0  0  0  0
 16 44  1  0  0  0  0
 17 18  1  0  0  0  0
 18 19  1  0  0  0  0
 18 45  1  0  0  0  0
 18 46  1  0  0  0  0
 19 20  1  0  0  0  0
 19 22  1  0  0  0  0
 19 47  1  0  0  0  0
 20 21  1  0  0  0  0
 20 48  1  0  0  0  0
 20 49  1  0  0  0  0
 21 50  1  0  0  0  0
 22 26  1  0  0  0  0
 22 23  1  0  0  0  0
 22 51  1  0  0  0  0
 23 24  1  0  0  0  0
 23 52  1  0  0  0  0
 23 53  1  0  0  0  0
 24 25  1  0  0  0  0
 24 54  1  0  0  0  0
 24 55  1  0  0  0  0
 25 26  1  0  0  0  0
 26 56  1  0  0  0  0
 26 57  1  0  0  0  0
 27 28  1  0  0  0  0
 27 58  1  0  0  0  0
 27 59  1  0  0  0  0
 28 29  1  0  0  0  0
 28 60  1  0  0  0  0
 29 61  1  0  0  0  0
 29 62  1  0  0  0  0
 29 63  1  0  0  0  0
M  CHG  1   3   1
M  END
> <s_m_source_file>
AV-unprocessed.smi

> <i_m_source_file_index>
249

> <i_lp_mmshare_version>
43012

> <i_f3d_flags>
0

> <s_epik_input>
W0NIM11bQ0gyXU4xW0NIMl1bQ0gyXVtDQEhdKFtDSDJdW0NASF0xW0NIM10pTihbQ0gzXSljKG5bY0hdbjIpYyhjMjMpbltjSF1uM1tDSDJdW0NASF0oW0NIMl1bT0hdKVtDQEBIXTRbQ0gyXVtDSDJdT1tDSDJdNA==

> <s_epik_cmdline>
J2VwaWtfcHl0aG9uJywgJy1waCcsICc3LjAnLCAnLXRuJywgJzgnLCAnLW1hJywgJzIwMCcsICctbWV0YWxfYmluZGluZycsICctaW1hZScsICc8aW5maWxlLm1hZT4nLCAnLW9tYWUnLCAnPG91dGZpbGUubWFlPic=

> <r_lp_tautomer_probability>
1

> <r_epik_Ionization_Penalty>
0.00294688

> <r_epik_Ionization_Penalty_Charging>
0.00169971

> <r_epik_Ionization_Penalty_Neutral>
0.00124717

> <r_epik_State_Penalty>
-0

> <r_epik_Charging_Adjusted_Penalty>
0.00169971

> <i_epik_Tot_Q>
1

> <i_epik_Tot_abs_Q>
1

> <r_epik_Metal_State_Penalty>
-0

> <b_epik_Metal_Only>
0

> <s_lp_Force_Field>
OPLS_2005

> <r_lp_Energy>
54.3628

> <b_lp_Chiralities_Consistent>
1

> <s_lp_Variant>
AV-unprocessed.smi:249-29

> <Gold.Version>
5.8.1

> <Gold.Id.Protein>
6NUR|6NUR_protein|mol2

> <Gold.PLP.Fitness>
48.6593

> <Gold.PLP.PLP>
-47.2757

> <Gold.PLP.part.hbond>
-3.0000

> <Gold.PLP.part.metal>
0.0000

> <Gold.PLP.part.buried>
-0.6973

> <Gold.PLP.part.nonpolar>
-43.7030

> <Gold.PLP.part.repulsive>
1.6505

> <Gold.PLP.ligand.clash>
0.0000

> <Gold.PLP.ligand.torsion>
2.7878

> <Gold.PLP.Chemscore.Hbond>
2.0000

> <Gold.PLP.Chemscore.CHOScore>
0.0000

> <Gold.PLP.Chemscore.Metal>
0.0000

> <Gold.Chemscore.Hbonds>
donor molecule, donor type, donor heavy atom, donor atom, acceptor molecule, acceptor atom, score
      L1  H     3    64       P1 10175  2.00

> <Gold.PLP.Chemscore.Internal.Correction>
0.9593

> <Gold.Rescore>
     Score         DG    S(hbond)    S(metal)    S(lipo)     H(rot)  DE(clash)    DE(int)     intcor
      9.47     -15.92       1.00        0.00     124.16       2.90       2.37       4.08       ----

> <Gold.Chemscore.Fitness>
9.4670

> <Gold.Chemscore.DG>
-15.9183

> <Gold.Chemscore.ZeroCoef>
-5.4800

> <Gold.Chemscore.Hbond>
0.9992

> <Gold.Chemscore.Metal>
0.0000

> <Gold.Chemscore.Lipo>
124.1580

> <Gold.Chemscore.Internal_Hbond>
0.0000

> <Gold.Chemscore.DEClash>
2.3692

> <Gold.Chemscore.DEInternal>
4.0821

> <Gold.Chemscore.Rot>
2.9006

> <Gold.Chemscore.Internal.Correction>
   9.000000E+99

> <Gold.Chemscore.Hbonds>
donor molecule, donor type, donor heavy atom, donor atom, acceptor molecule, acceptor atom, score
      L1  H     3    64       P1 10175  1.00

> <Gold.Chemscore.Hbond.Weighted>
-3.3374

> <Gold.Chemscore.Metal.Weighted>
-0.0000

> <Gold.Chemscore.Lipo.Weighted>
-14.5265

> <Gold.Chemscore.Internal_Hbond.Weighted>
0.0000

> <Gold.Chemscore.DEClash.Weighted>
2.3692

> <Gold.Chemscore.DEInternal.Weighted>
4.0821

> <Gold.Chemscore.Rot.Weighted>
7.4256

> <Gold.Chemscore.Internal.Correction.Weighted>
   9.000000E+99

> <Gold.Protein.RotatedTorsions>
[ 6907 6896 6895 6894 ] final -179.83 input  -60.11 | X-H torsion
[ 7974 7965 7964 7962 ] final -162.95 input  175.53 | X-H torsion
[ 8008 7997 7996 7995 ] final  116.88 input   59.86 | X-H torsion
[ 10167 10162 10161 10158 ] final -106.81 input  -65.29 | X-H torsion
[ 10718 10713 10712 10709 ] final  136.20 input   66.30 | X-H torsion
[ 10763 10752 10751 10750 ] final  116.40 input  -60.55 | X-H torsion
[ 11005 11000 10999 10996 ] final   50.65 input  -57.11 | X-H torsion

> <Gold.Protein.ActiveResidues>
 VAL166  LYS551  ARG553  GLY616  TRP617  ASP618  TYR619  PRO620  LYS621  CYS622 
 ASP623  PHE694  ASN695  SER759  ASP760  ASP761  ALA762  ILE779  LEU786  VAL792 
 PHE793  MET794  SER795  GLU796  ALA797  LYS798  CYS799  TRP800  GLU811  SER814 

> <Gold.Protein.RotatedAtoms>
  151.6598  133.3317  159.3171 H   0  0  0  0  0  0  0  0  0  0  0  0  # atno 6907 bound_to 6896
  150.7919  134.6953  159.6529 H   0  0  0  0  0  0  0  0  0  0  0  0  # atno 6908 bound_to 6896
  152.4000  134.6306  160.0126 H   0  0  0  0  0  0  0  0  0  0  0  0  # atno 6909 bound_to 6896
  144.7341  140.3178  143.6176 H   0  0  0  0  0  0  0  0  0  0  0  0  # atno 7974 bound_to 7965
  156.2464  140.2908  156.0592 H   0  0  0  0  0  0  0  0  0  0  0  0  # atno 8008 bound_to 7997
  155.1794  140.0404  157.2896 H   0  0  0  0  0  0  0  0  0  0  0  0  # atno 8009 bound_to 7997
  154.6270  140.2490  155.7487 H   0  0  0  0  0  0  0  0  0  0  0  0  # atno 8010 bound_to 7997
  140.1837  143.3946  152.1261 H   0  0  0  0  0  0  0  0  0  0  0  0  # atno 10167 bound_to 10162
  157.4491  131.1064  151.0055 H   0  0  0  0  0  0  0  0  0  0  0  0  # atno 10718 bound_to 10713
  153.5367  135.3567  155.2700 H   0  0  0  0  0  0  0  0  0  0  0  0  # atno 10763 bound_to 10752
  154.8721  135.4081  154.3090 H   0  0  0  0  0  0  0  0  0  0  0  0  # atno 10764 bound_to 10752
  153.3789  135.7067  153.6648 H   0  0  0  0  0  0  0  0  0  0  0  0  # atno 10765 bound_to 10752
  140.0999  134.5095  155.8772 H   0  0  0  0  0  0  0  0  0  0  0  0  # atno 11005 bound_to 11000
  145.7599  139.1821  143.2273 LP  0  0  0  0  0  0  0  0  0  0  0  0  # atno 17320 bound_to 7965
  146.0995  140.7561  142.9556 LP  0  0  0  0  0  0  0  0  0  0  0  0  # atno 17321 bound_to 7965
  139.5285  144.7131  151.5141 LP  0  0  0  0  0  0  0  0  0  0  0  0  # atno 17342 bound_to 10162
  140.6502  143.8712  150.6778 LP  0  0  0  0  0  0  0  0  0  0  0  0  # atno 17343 bound_to 10162
  157.0891  130.5934  149.5436 LP  0  0  0  0  0  0  0  0  0  0  0  0  # atno 17370 bound_to 10713
  155.9979  130.5052  150.7553 LP  0  0  0  0  0  0  0  0  0  0  0  0  # atno 17371 bound_to 10713
  141.2102  133.6693  156.6497 LP  0  0  0  0  0  0  0  0  0  0  0  0  # atno 17394 bound_to 11000
  140.3235  134.7988  157.4271 LP  0  0  0  0  0  0  0  0  0  0  0  0  # atno 17395 bound_to 11000

$$$$
