AV-unprocessed.smi:1108|AV-procd|sdf|4788|dock5
  -GOLD-   22720 3333D 1   1.00000     0.00000
 Structure written by MMmdl.
 31 32  0  0  0  0  0  0  0  0  1 V2000
  147.1320  141.2711  156.0063 C   0  0  0  0  0  0  0  0  0  0  0  0
  148.6266  140.9284  155.9405 C   0  0  1  0  0  0  0  0  0  0  0  0
  149.0158  140.3831  154.5493 C   0  0  0  0  0  0  0  0  0  0  0  0
  150.1870  139.5253  154.5881 N   0  0  0  0  0  0  0  0  0  0  0  0
  150.2805  138.1880  154.2645 C   0  0  0  0  0  0  0  0  0  0  0  0
  151.5832  137.8182  154.4389 C   0  0  0  0  0  0  0  0  0  0  0  0
  152.2166  139.0126  154.8826 C   0  0  0  0  0  0  0  0  0  0  0  0
  151.3775  140.0314  154.9761 N   0  0  0  0  0  0  0  0  0  0  0  0
  149.4029  142.1246  156.2669 N   0  0  0  0  0  0  0  0  0  0  0  0
  150.4332  142.1779  157.1241 C   0  0  0  0  0  0  0  0  0  0  0  0
  150.8471  141.2145  157.7691 O   0  0  0  0  0  0  0  0  0  0  0  0
  150.9676  143.4048  157.1802 N   0  0  0  0  0  0  0  0  0  0  0  0
  152.0899  143.7799  157.9781 C   0  0  0  0  0  0  0  0  0  0  0  0
  152.0343  143.4710  159.4586 C   0  0  0  0  0  0  0  0  0  0  0  0
  151.8961  144.8919  158.9858 C   0  0  0  0  0  0  0  0  0  0  0  0
  146.5195  140.3924  155.8011 H   0  0  0  0  0  0  0  0  0  0  0  0
  146.8663  142.0387  155.2787 H   0  0  0  0  0  0  0  0  0  0  0  0
  146.8563  141.6386  156.9953 H   0  0  0  0  0  0  0  0  0  0  0  0
  148.8107  140.1525  156.6861 H   0  0  0  0  0  0  0  0  0  0  0  0
  148.1913  139.8061  154.1278 H   0  0  0  0  0  0  0  0  0  0  0  0
  149.2062  141.2036  153.8561 H   0  0  0  0  0  0  0  0  0  0  0  0
  149.4236  137.6199  153.9336 H   0  0  0  0  0  0  0  0  0  0  0  0
  152.0175  136.8436  154.2733 H   0  0  0  0  0  0  0  0  0  0  0  0
  153.2542  139.1687  155.1388 H   0  0  0  0  0  0  0  0  0  0  0  0
  149.1426  142.9749  155.7893 H   0  0  0  0  0  0  0  0  0  0  0  0
  150.5542  144.1284  156.6107 H   0  0  0  0  0  0  0  0  0  0  0  0
  153.0740  143.7197  157.5157 H   0  0  0  0  0  0  0  0  0  0  0  0
  151.1420  142.9814  159.8443 H   0  0  0  0  0  0  0  0  0  0  0  0
  152.9658  143.1921  159.9471 H   0  0  0  0  0  0  0  0  0  0  0  0
  152.7353  145.5630  159.1577 H   0  0  0  0  0  0  0  0  0  0  0  0
  150.9118  145.3514  159.0541 H   0  0  0  0  0  0  0  0  0  0  0  0
  1  2  1  0  0  0  0
  1 16  1  0  0  0  0
  1 17  1  0  0  0  0
  1 18  1  0  0  0  0
  2  3  1  0  0  0  0
  2  9  1  0  0  0  0
  2 19  1  0  0  0  0
  3  4  1  0  0  0  0
  3 20  1  0  0  0  0
  3 21  1  0  0  0  0
  4  8  1  0  0  0  0
  4  5  1  0  0  0  0
  5  6  2  0  0  0  0
  5 22  1  0  0  0  0
  6  7  1  0  0  0  0
  6 23  1  0  0  0  0
  7  8  2  0  0  0  0
  7 24  1  0  0  0  0
  9 10  1  0  0  0  0
  9 25  1  0  0  0  0
 10 11  2  0  0  0  0
 10 12  1  0  0  0  0
 12 13  1  0  0  0  0
 12 26  1  0  0  0  0
 13 15  1  0  0  0  0
 13 14  1  0  0  0  0
 13 27  1  0  0  0  0
 14 15  1  0  0  0  0
 14 28  1  0  0  0  0
 14 29  1  0  0  0  0
 15 30  1  0  0  0  0
 15 31  1  0  0  0  0
M  END
> <s_m_source_file>
AV-unprocessed.smi

> <i_m_source_file_index>
1108

> <i_lp_mmshare_version>
43012

> <i_f3d_flags>
0

> <s_epik_input>
W0NIMl0xW0NIMl1bQ0hdMVtOSF1DKD1PKVtOSF1bQ0BIXShbQ0gzXSlbQ0gyXW4yW2NIXVtjSF1bY0hdbjI=

> <s_epik_cmdline>
J2VwaWtfcHl0aG9uJywgJy1waCcsICc3LjAnLCAnLXRuJywgJzgnLCAnLW1hJywgJzIwMCcsICctbWV0YWxfYmluZGluZycsICctaW1hZScsICc8aW5maWxlLm1hZT4nLCAnLW9tYWUnLCAnPG91dGZpbGUubWFlPic=

> <r_lp_tautomer_probability>
1

> <r_epik_Ionization_Penalty>
7.55353e-05

> <r_epik_Ionization_Penalty_Charging>
0

> <r_epik_Ionization_Penalty_Neutral>
7.55353e-05

> <r_epik_State_Penalty>
-0

> <r_epik_Charging_Adjusted_Penalty>
0

> <i_epik_Tot_Q>
0

> <i_epik_Tot_abs_Q>
0

> <r_epik_Metal_State_Penalty>
-0

> <b_epik_Metal_Only>
0

> <s_lp_Force_Field>
OPLS_2005

> <r_lp_Energy>
13.7301

> <b_lp_Chiralities_Consistent>
1

> <s_lp_Variant>
AV-unprocessed.smi:1108-2

> <Gold.Version>
5.8.1

> <Gold.Id.Protein>
6NUR|6NUR_protein|mol2

> <Gold.PLP.Fitness>
45.4643

> <Gold.PLP.PLP>
-34.9846

> <Gold.PLP.part.hbond>
-3.0000

> <Gold.PLP.part.metal>
0.0000

> <Gold.PLP.part.buried>
-5.0975

> <Gold.PLP.part.nonpolar>
-28.5573

> <Gold.PLP.part.repulsive>
0.1500

> <Gold.PLP.ligand.clash>
0.0000

> <Gold.PLP.ligand.torsion>
0.4750

> <Gold.PLP.Chemscore.Hbond>
2.7940

> <Gold.PLP.Chemscore.CHOScore>
1.0000

> <Gold.PLP.Chemscore.Metal>
0.0000

> <Gold.Chemscore.Hbonds>
donor molecule, donor type, donor heavy atom, donor atom, acceptor molecule, acceptor atom, score
      L1  H     9    25       P1  8028  1.00
      L1  H    12    26       P1  8028  0.93
      P1  H  7989  7998       L1     8  0.75
      L1  C     5    22       P1  7948  1.00

> <Gold.PLP.Chemscore.Internal.Correction>
0.0477

> <Gold.Rescore>
     Score         DG    S(hbond)    S(metal)    S(lipo)     H(rot)  DE(clash)    DE(int)     intcor
     17.99     -18.94       2.85        0.00      70.89       1.71       0.03       0.92       ----

> <Gold.Chemscore.Fitness>
17.9911

> <Gold.Chemscore.DG>
-18.9386

> <Gold.Chemscore.ZeroCoef>
-5.4800

> <Gold.Chemscore.Hbond>
2.8549

> <Gold.Chemscore.Metal>
0.0000

> <Gold.Chemscore.Lipo>
70.8925

> <Gold.Chemscore.Internal_Hbond>
0.0000

> <Gold.Chemscore.DEClash>
0.0274

> <Gold.Chemscore.DEInternal>
0.9200

> <Gold.Chemscore.Rot>
1.7075

> <Gold.Chemscore.Internal.Correction>
   9.000000E+99

> <Gold.Chemscore.Hbonds>
donor molecule, donor type, donor heavy atom, donor atom, acceptor molecule, acceptor atom, score
      L1  H     9    25       P1  8028  0.98
      L1  H    12    26       P1  8028  0.87
      P1  H  7989  7998       L1     8  0.03

> <Gold.Chemscore.Hbond.Weighted>
-9.5354

> <Gold.Chemscore.Metal.Weighted>
-0.0000

> <Gold.Chemscore.Lipo.Weighted>
-8.2944

> <Gold.Chemscore.Internal_Hbond.Weighted>
0.0000

> <Gold.Chemscore.DEClash.Weighted>
0.0274

> <Gold.Chemscore.DEInternal.Weighted>
0.9200

> <Gold.Chemscore.Rot.Weighted>
4.3713

> <Gold.Chemscore.Internal.Correction.Weighted>
   9.000000E+99

> <Gold.Protein.RotatedTorsions>
[ 6907 6896 6895 6894 ] final -137.39 input  -60.11 | X-H torsion
[ 7974 7965 7964 7962 ] final  143.86 input  175.53 | X-H torsion
[ 8008 7997 7996 7995 ] final  -40.83 input   59.86 | X-H torsion
[ 10167 10162 10161 10158 ] final  -85.82 input  -65.29 | X-H torsion
[ 10718 10713 10712 10709 ] final   68.90 input   66.30 | X-H torsion
[ 10763 10752 10751 10750 ] final  -64.12 input  -60.55 | X-H torsion
[ 11005 11000 10999 10996 ] final  169.44 input  -57.11 | X-H torsion

> <Gold.Protein.ActiveResidues>
 VAL166  LYS551  ARG553  GLY616  TRP617  ASP618  TYR619  PRO620  LYS621  CYS622 
 ASP623  PHE694  ASN695  SER759  ASP760  ASP761  ALA762  ILE779  LEU786  VAL792 
 PHE793  MET794  SER795  GLU796  ALA797  LYS798  CYS799  TRP800  GLU811  SER814 

> <Gold.Protein.RotatedAtoms>
  151.0218  133.5869  159.2670 H   0  0  0  0  0  0  0  0  0  0  0  0  # atno 6907 bound_to 6896
  151.2983  135.0760  159.9239 H   0  0  0  0  0  0  0  0  0  0  0  0  # atno 6908 bound_to 6896
  152.5325  133.9904  159.7902 H   0  0  0  0  0  0  0  0  0  0  0  0  # atno 6909 bound_to 6896
  144.8885  139.5593  143.5809 H   0  0  0  0  0  0  0  0  0  0  0  0  # atno 7974 bound_to 7965
  154.4009  140.1515  156.3092 H   0  0  0  0  0  0  0  0  0  0  0  0  # atno 8008 bound_to 7997
  155.8631  140.3452  155.5748 H   0  0  0  0  0  0  0  0  0  0  0  0  # atno 8009 bound_to 7997
  155.7858  140.0850  157.2025 H   0  0  0  0  0  0  0  0  0  0  0  0  # atno 8010 bound_to 7997
  140.4000  143.2667  151.9154 H   0  0  0  0  0  0  0  0  0  0  0  0  # atno 10167 bound_to 10162
  157.6315  130.9398  150.0440 H   0  0  0  0  0  0  0  0  0  0  0  0  # atno 10718 bound_to 10713
  154.3253  135.6188  153.5526 H   0  0  0  0  0  0  0  0  0  0  0  0  # atno 10763 bound_to 10752
  152.9816  135.5734  154.5023 H   0  0  0  0  0  0  0  0  0  0  0  0  # atno 10764 bound_to 10752
  154.4699  135.2859  155.1627 H   0  0  0  0  0  0  0  0  0  0  0  0  # atno 10765 bound_to 10752
  140.2978  134.7620  157.3891 H   0  0  0  0  0  0  0  0  0  0  0  0  # atno 11005 bound_to 11000
  146.3039  139.7516  142.9071 LP  0  0  0  0  0  0  0  0  0  0  0  0  # atno 17320 bound_to 7965
  145.3826  141.0360  143.3169 LP  0  0  0  0  0  0  0  0  0  0  0  0  # atno 17321 bound_to 7965
  139.4785  144.5643  151.8190 LP  0  0  0  0  0  0  0  0  0  0  0  0  # atno 17342 bound_to 10162
  140.4750  144.1533  150.5923 LP  0  0  0  0  0  0  0  0  0  0  0  0  # atno 17343 bound_to 10162
  156.1523  130.3642  149.9420 LP  0  0  0  0  0  0  0  0  0  0  0  0  # atno 17370 bound_to 10713
  156.7437  130.9089  151.3633 LP  0  0  0  0  0  0  0  0  0  0  0  0  # atno 17371 bound_to 10713
  140.1137  134.5312  155.8244 LP  0  0  0  0  0  0  0  0  0  0  0  0  # atno 17394 bound_to 11000
  141.2134  133.6733  156.6736 LP  0  0  0  0  0  0  0  0  0  0  0  0  # atno 17395 bound_to 11000

$$$$
