AV-unprocessed.smi:26|AV-procd|sdf|185|dock6
  -GOLD-   2262015453D 1   1.00000     0.00000
 Structure written by MMmdl.
 58 61  0  0  0  0  0  0  0  0  1 V2000
  147.7463  131.1748  161.3939 C   0  0  0  0  0  0  0  0  0  0  0  0
  147.8718  132.3640  160.4938 C   0  0  0  0  0  0  0  0  0  0  0  0
  148.3879  132.4086  159.2333 C   0  0  0  0  0  0  0  0  0  0  0  0
  148.2999  133.7410  158.7487 C   0  0  0  0  0  0  0  0  0  0  0  0
  148.7662  134.2666  157.4398 C   0  0  0  0  0  0  0  0  0  0  0  0
  148.3175  135.2903  156.9222 O   0  0  0  0  0  0  0  0  0  0  0  0
  149.8811  133.4552  156.7532 C   0  0  0  0  0  0  0  0  0  0  0  0
  149.3765  132.5291  155.7466 N   0  0  0  0  0  0  0  0  0  0  0  0
  149.7088  131.1583  155.8855 C   0  0  0  0  0  0  0  0  0  0  0  0
  150.3961  130.7426  156.8201 O   0  0  0  0  0  0  0  0  0  0  0  0
  149.1632  130.2941  154.8447 C   0  0  0  0  0  0  0  0  0  0  0  0
  149.4263  128.9766  154.8702 F   0  0  0  0  0  0  0  0  0  0  0  0
  148.3973  130.7950  153.8512 C   0  0  0  0  0  0  0  0  0  0  0  0
  148.0743  132.1386  153.7498 N   0  0  0  0  0  0  0  0  0  0  0  0
  147.2086  132.6753  152.6299 C   0  0  2  0  0  0  0  0  0  0  0  0
  145.9193  133.3011  153.1932 C   0  0  0  0  0  0  0  0  0  0  0  0
  144.8382  132.6418  152.3605 C   0  0  0  0  0  0  0  0  0  0  0  0
  145.4659  131.2935  152.0412 C   0  0  0  0  0  0  0  0  0  0  0  0
  146.8230  131.6297  151.7833 O   0  0  0  0  0  0  0  0  0  0  0  0
  148.5634  133.0497  154.7113 C   0  0  0  0  0  0  0  0  0  0  0  0
  148.2767  134.2477  154.6469 O   0  0  0  0  0  0  0  0  0  0  0  0
  147.6991  134.4936  159.7328 C   0  0  0  0  0  0  0  0  0  0  0  0
  147.3008  135.9444  159.7622 C   0  0  0  0  0  0  0  0  0  0  0  0
  147.4734  133.6586  160.8338 N   0  0  0  0  0  0  0  0  0  0  0  0
  146.8743  134.0849  162.1089 C   0  0  1  0  0  0  0  0  0  0  0  0
  147.6893  135.2262  162.7472 C   0  0  0  0  0  0  0  0  0  0  0  0
  145.3662  134.3233  161.9992 C   0  0  0  0  0  0  0  0  0  0  0  0
  144.7290  134.0887  160.7603 C   0  0  0  0  0  0  0  0  0  0  0  0
  143.3441  134.2959  160.6149 C   0  0  0  0  0  0  0  0  0  0  0  0
  142.5796  134.7356  161.7113 C   0  0  0  0  0  0  0  0  0  0  0  0
  143.2021  134.9663  162.9519 C   0  0  0  0  0  0  0  0  0  0  0  0
  144.5876  134.7600  163.0976 C   0  0  0  0  0  0  0  0  0  0  0  0
  147.8772  130.2512  160.8298 H   0  0  0  0  0  0  0  0  0  0  0  0
  146.7679  131.1271  161.8684 H   0  0  0  0  0  0  0  0  0  0  0  0
  148.5092  131.1910  162.1721 H   0  0  0  0  0  0  0  0  0  0  0  0
  148.7970  131.5564  158.7106 H   0  0  0  0  0  0  0  0  0  0  0  0
  150.6063  134.1159  156.2761 H   0  0  0  0  0  0  0  0  0  0  0  0
  150.4522  132.8784  157.4826 H   0  0  0  0  0  0  0  0  0  0  0  0
  148.0301  130.0980  153.1139 H   0  0  0  0  0  0  0  0  0  0  0  0
  147.8386  133.3726  152.0749 H   0  0  0  0  0  0  0  0  0  0  0  0
  145.8010  133.0394  154.2460 H   0  0  0  0  0  0  0  0  0  0  0  0
  145.9356  134.3870  153.0974 H   0  0  0  0  0  0  0  0  0  0  0  0
  143.8863  132.5568  152.8847 H   0  0  0  0  0  0  0  0  0  0  0  0
  144.6759  133.2054  151.4408 H   0  0  0  0  0  0  0  0  0  0  0  0
  145.3998  130.6225  152.8986 H   0  0  0  0  0  0  0  0  0  0  0  0
  145.0032  130.8044  151.1837 H   0  0  0  0  0  0  0  0  0  0  0  0
  147.1731  136.3566  158.7633 H   0  0  0  0  0  0  0  0  0  0  0  0
  148.0499  136.5418  160.2817 H   0  0  0  0  0  0  0  0  0  0  0  0
  146.3423  136.0870  160.2602 H   0  0  0  0  0  0  0  0  0  0  0  0
  146.9301  133.2491  162.8042 H   0  0  0  0  0  0  0  0  0  0  0  0
  147.3185  135.4641  163.7444 H   0  0  0  0  0  0  0  0  0  0  0  0
  147.6620  136.1381  162.1523 H   0  0  0  0  0  0  0  0  0  0  0  0
  148.7363  134.9407  162.8527 H   0  0  0  0  0  0  0  0  0  0  0  0
  145.3072  133.7517  159.9123 H   0  0  0  0  0  0  0  0  0  0  0  0
  142.8689  134.1172  159.6617 H   0  0  0  0  0  0  0  0  0  0  0  0
  141.5170  134.8946  161.6012 H   0  0  0  0  0  0  0  0  0  0  0  0
  142.6159  135.3027  163.7943 H   0  0  0  0  0  0  0  0  0  0  0  0
  145.0362  134.9493  164.0605 H   0  0  0  0  0  0  0  0  0  0  0  0
  1  2  1  0  0  0  0
  1 33  1  0  0  0  0
  1 34  1  0  0  0  0
  1 35  1  0  0  0  0
  2 24  1  0  0  0  0
  2  3  2  0  0  0  0
  3  4  1  0  0  0  0
  3 36  1  0  0  0  0
  4  5  1  0  0  0  0
  4 22  2  0  0  0  0
  5  6  2  0  0  0  0
  5  7  1  0  0  0  0
  7  8  1  0  0  0  0
  7 37  1  0  0  0  0
  7 38  1  0  0  0  0
  8 20  1  0  0  0  0
  8  9  1  0  0  0  0
  9 10  2  0  0  0  0
  9 11  1  0  0  0  0
 11 12  1  0  0  0  0
 11 13  2  0  0  0  0
 13 14  1  0  0  0  0
 13 39  1  0  0  0  0
 14 15  1  0  0  0  0
 14 20  1  0  0  0  0
 15 19  1  0  0  0  0
 15 16  1  0  0  0  0
 15 40  1  0  0  0  0
 16 17  1  0  0  0  0
 16 41  1  0  0  0  0
 16 42  1  0  0  0  0
 17 18  1  0  0  0  0
 17 43  1  0  0  0  0
 17 44  1  0  0  0  0
 18 19  1  0  0  0  0
 18 45  1  0  0  0  0
 18 46  1  0  0  0  0
 20 21  2  0  0  0  0
 22 23  1  0  0  0  0
 22 24  1  0  0  0  0
 23 47  1  0  0  0  0
 23 48  1  0  0  0  0
 23 49  1  0  0  0  0
 24 25  1  0  0  0  0
 25 26  1  0  0  0  0
 25 27  1  0  0  0  0
 25 50  1  0  0  0  0
 26 51  1  0  0  0  0
 26 52  1  0  0  0  0
 26 53  1  0  0  0  0
 27 32  1  0  0  0  0
 27 28  2  0  0  0  0
 28 29  1  0  0  0  0
 28 54  1  0  0  0  0
 29 30  2  0  0  0  0
 29 55  1  0  0  0  0
 30 31  1  0  0  0  0
 30 56  1  0  0  0  0
 31 32  2  0  0  0  0
 31 57  1  0  0  0  0
 32 58  1  0  0  0  0
M  END
> <s_m_source_file>
AV-unprocessed.smi

> <i_m_source_file_index>
26

> <i_lp_mmshare_version>
43012

> <i_f3d_flags>
0

> <s_epik_input>
W2NIXTFbY0hdW2NIXVtjSF1bY0hdYzFbQ0BASF0oW0NIM10pbjJjKFtDSDNdKWMoW2NIXWMyW0NIM10pQyg9TylbQ0gyXW4zYyg9TyljKEYpW2NIXW4oYzM9TylbQ0BASF00W0NIMl1bQ0gyXVtDSDJdTzQ=

> <s_epik_cmdline>
J2VwaWtfcHl0aG9uJywgJy1waCcsICc3LjAnLCAnLXRuJywgJzgnLCAnLW1hJywgJzIwMCcsICctbWV0YWxfYmluZGluZycsICctaW1hZScsICc8aW5maWxlLm1hZT4nLCAnLW9tYWUnLCAnPG91dGZpbGUubWFlPic=

> <r_lp_tautomer_probability>
1

> <r_epik_Ionization_Penalty>
5.02402e-09

> <r_epik_Ionization_Penalty_Charging>
5.01743e-09

> <r_epik_Ionization_Penalty_Neutral>
6.58831e-12

> <r_epik_State_Penalty>
-0

> <r_epik_Charging_Adjusted_Penalty>
5.01743e-09

> <i_epik_Tot_Q>
0

> <i_epik_Tot_abs_Q>
0

> <r_epik_Metal_State_Penalty>
-0

> <b_epik_Metal_Only>
0

> <s_epik_Chemistry_Notes>
This compound contains an acetal/aminal-like group ( X-CH(R)-Y where X, Y are N, S, or O) that may be acid/base labile, releasing an aldehyde.

> <s_lp_Force_Field>
OPLS_2005

> <r_lp_Energy>
50.3932

> <b_lp_Chiralities_Consistent>
1

> <s_lp_Variant>
AV-unprocessed.smi:26-3

> <Gold.Version>
5.8.1

> <Gold.Id.Protein>
6NUR|6NUR_protein|mol2

> <Gold.PLP.Fitness>
50.0400

> <Gold.PLP.PLP>
-48.5443

> <Gold.PLP.part.hbond>
0.0000

> <Gold.PLP.part.metal>
0.0000

> <Gold.PLP.part.buried>
-6.0763

> <Gold.PLP.part.nonpolar>
-44.2596

> <Gold.PLP.part.repulsive>
1.5358

> <Gold.PLP.ligand.clash>
0.0000

> <Gold.PLP.ligand.torsion>
0.8883

> <Gold.PLP.Chemscore.Hbond>
0.0000

> <Gold.PLP.Chemscore.CHOScore>
1.0000

> <Gold.PLP.Chemscore.Metal>
0.0000

> <Gold.PLP.Chemscore.Internal.Correction>
0.2724

> <Gold.Rescore>
     Score         DG    S(hbond)    S(metal)    S(lipo)     H(rot)  DE(clash)    DE(int)     intcor
      8.23     -13.36       0.00        0.00     107.49       1.84       0.13       4.99       ----

> <Gold.Chemscore.Fitness>
8.2336

> <Gold.Chemscore.DG>
-13.3561

> <Gold.Chemscore.ZeroCoef>
-5.4800

> <Gold.Chemscore.Hbond>
0.0000

> <Gold.Chemscore.Metal>
0.0000

> <Gold.Chemscore.Lipo>
107.4877

> <Gold.Chemscore.Internal_Hbond>
0.0000

> <Gold.Chemscore.DEClash>
0.1342

> <Gold.Chemscore.DEInternal>
4.9882

> <Gold.Chemscore.Rot>
1.8359

> <Gold.Chemscore.Internal.Correction>
   9.000000E+99

> <Gold.Chemscore.Hbond.Weighted>
-0.0000

> <Gold.Chemscore.Metal.Weighted>
-0.0000

> <Gold.Chemscore.Lipo.Weighted>
-12.5761

> <Gold.Chemscore.Internal_Hbond.Weighted>
0.0000

> <Gold.Chemscore.DEClash.Weighted>
0.1342

> <Gold.Chemscore.DEInternal.Weighted>
4.9882

> <Gold.Chemscore.Rot.Weighted>
4.7000

> <Gold.Chemscore.Internal.Correction.Weighted>
   9.000000E+99

> <Gold.Protein.RotatedTorsions>
[ 6907 6896 6895 6894 ] final -131.54 input  -60.11 | X-H torsion
[ 7974 7965 7964 7962 ] final   48.58 input  175.53 | X-H torsion
[ 8008 7997 7996 7995 ] final -138.67 input   59.86 | X-H torsion
[ 10167 10162 10161 10158 ] final  -63.51 input  -65.29 | X-H torsion
[ 10718 10713 10712 10709 ] final  -28.36 input   66.30 | X-H torsion
[ 10763 10752 10751 10750 ] final -161.57 input  -60.55 | X-H torsion
[ 11005 11000 10999 10996 ] final  -51.45 input  -57.11 | X-H torsion

> <Gold.Protein.ActiveResidues>
 VAL166  LYS551  ARG553  GLY616  TRP617  ASP618  TYR619  PRO620  LYS621  CYS622 
 ASP623  PHE694  ASN695  SER759  ASP760  ASP761  ALA762  ILE779  LEU786  VAL792 
 PHE793  MET794  SER795  GLU796  ALA797  LYS798  CYS799  TRP800  GLU811  SER814 

> <Gold.Protein.RotatedAtoms>
  150.9521  133.6538  159.2769 H   0  0  0  0  0  0  0  0  0  0  0  0  # atno 6907 bound_to 6896
  151.3890  135.0951  159.9530 H   0  0  0  0  0  0  0  0  0  0  0  0  # atno 6908 bound_to 6896
  152.5114  133.9040  159.7509 H   0  0  0  0  0  0  0  0  0  0  0  0  # atno 6909 bound_to 6896
  146.0191  139.4630  142.9908 H   0  0  0  0  0  0  0  0  0  0  0  0  # atno 7974 bound_to 7965
  155.4322  140.0526  157.3017 H   0  0  0  0  0  0  0  0  0  0  0  0  # atno 8008 bound_to 7997
  154.4855  140.2099  155.9623 H   0  0  0  0  0  0  0  0  0  0  0  0  # atno 8009 bound_to 7997
  156.1268  140.3179  155.8294 H   0  0  0  0  0  0  0  0  0  0  0  0  # atno 8010 bound_to 7997
  140.5865  143.2334  151.6231 H   0  0  0  0  0  0  0  0  0  0  0  0  # atno 10167 bound_to 10162
  156.4263  130.4436  149.7149 H   0  0  0  0  0  0  0  0  0  0  0  0  # atno 10718 bound_to 10713
  154.7291  135.3042  154.8921 H   0  0  0  0  0  0  0  0  0  0  0  0  # atno 10763 bound_to 10752
  153.9769  135.6735  153.4753 H   0  0  0  0  0  0  0  0  0  0  0  0  # atno 10764 bound_to 10752
  153.0902  135.4963  154.8596 H   0  0  0  0  0  0  0  0  0  0  0  0  # atno 10765 bound_to 10752
  141.0871  133.6640  156.3879 H   0  0  0  0  0  0  0  0  0  0  0  0  # atno 11005 bound_to 11000
  145.7222  141.0071  143.1396 LP  0  0  0  0  0  0  0  0  0  0  0  0  # atno 17320 bound_to 7965
  144.6982  139.8884  143.7451 LP  0  0  0  0  0  0  0  0  0  0  0  0  # atno 17321 bound_to 7965
  139.5201  144.3233  152.0891 LP  0  0  0  0  0  0  0  0  0  0  0  0  # atno 17342 bound_to 10162
  140.2391  144.4288  150.6267 LP  0  0  0  0  0  0  0  0  0  0  0  0  # atno 17343 bound_to 10162
  156.4069  130.7703  151.2714 LP  0  0  0  0  0  0  0  0  0  0  0  0  # atno 17370 bound_to 10713
  157.7508  131.0223  150.3786 LP  0  0  0  0  0  0  0  0  0  0  0  0  # atno 17371 bound_to 10713
  140.5337  134.6188  157.5358 LP  0  0  0  0  0  0  0  0  0  0  0  0  # atno 17394 bound_to 11000
  139.9691  134.7323  156.0077 LP  0  0  0  0  0  0  0  0  0  0  0  0  # atno 17395 bound_to 11000

$$$$
