AV-unprocessed.smi:91|AV-procd|sdf|840|dock5
  -GOLD-   2262017273D 1   1.00000     0.00000
 Structure written by MMmdl.
 60 63  0  0  0  0  0  0  0  0  1 V2000
  154.6410  139.6631  160.7195 C   0  0  0  0  0  0  0  0  0  0  0  0
  154.9230  141.0364  160.9222 O   0  0  0  0  0  0  0  0  0  0  0  0
  153.7605  141.7928  161.2184 C   0  0  0  0  0  0  0  0  0  0  0  0
  153.1684  142.3426  159.9148 C   0  0  1  0  0  0  0  0  0  0  0  0
  152.2482  141.3248  159.2198 C   0  0  0  0  0  0  0  0  0  0  0  0
  151.6279  141.9406  158.0564 N   0  0  0  0  0  0  0  0  0  0  0  0
  150.9508  141.0958  157.2515 C   0  0  0  0  0  0  0  0  0  0  0  0
  149.6491  141.3877  157.0123 N   0  0  0  0  0  0  0  0  0  0  0  0
  148.9168  140.5844  156.2346 C   0  0  0  0  0  0  0  0  0  0  0  0
  149.2830  139.4600  155.6148 N   0  0  0  0  0  0  0  0  0  0  0  0
  150.5919  139.1632  155.8590 C   0  0  0  0  0  0  0  0  0  0  0  0
  151.4924  139.9184  156.6617 C   0  0  0  0  0  0  0  0  0  0  0  0
  152.7359  139.2976  156.6901 N   0  0  0  0  0  0  0  0  0  0  0  0
  152.5812  138.2404  155.9403 C   0  0  0  0  0  0  0  0  0  0  0  0
  151.3263  138.0861  155.3961 N   0  0  0  0  0  0  0  0  0  0  0  0
  150.8739  137.0053  154.5387 C   0  0  0  0  0  0  0  0  0  0  0  0
  149.6804  136.2064  155.1316 C   0  0  1  0  0  0  0  0  0  0  0  0
  148.3323  136.9521  154.9980 C   0  0  0  0  0  0  0  0  0  0  0  0
  148.1401  137.4702  153.6983 O   0  0  0  0  0  0  0  0  0  0  0  0
  149.5635  134.7709  154.5549 C   0  0  1  0  0  0  0  0  0  0  0  0
  150.6234  133.7746  155.0221 C   0  0  0  0  0  0  0  0  0  0  0  0
  149.8586  132.4584  155.0625 C   0  0  0  0  0  0  0  0  0  0  0  0
  148.5815  132.8589  155.5277 O   0  0  0  0  0  0  0  0  0  0  0  0
  148.2317  134.0542  154.8423 C   0  0  0  0  0  0  0  0  0  0  0  0
  150.8760  143.1409  158.3922 C   0  0  0  0  0  0  0  0  0  0  0  0
  151.7695  144.1627  159.1313 C   0  0  0  0  0  0  0  0  0  0  0  0
  152.8007  144.8150  158.1863 C   0  0  0  0  0  0  0  0  0  0  0  0
  150.8937  145.2586  159.7578 C   0  0  0  0  0  0  0  0  0  0  0  0
  152.4189  143.5169  160.2336 O   0  0  0  0  0  0  0  0  0  0  0  0
  155.5642  139.1297  160.4931 H   0  0  0  0  0  0  0  0  0  0  0  0
  153.9559  139.5205  159.8828 H   0  0  0  0  0  0  0  0  0  0  0  0
  154.2031  139.2146  161.6120 H   0  0  0  0  0  0  0  0  0  0  0  0
  153.0247  141.1821  161.7446 H   0  0  0  0  0  0  0  0  0  0  0  0
  154.0282  142.6212  161.8764 H   0  0  0  0  0  0  0  0  0  0  0  0
  153.9943  142.6082  159.2546 H   0  0  0  0  0  0  0  0  0  0  0  0
  152.8174  140.4456  158.9150 H   0  0  0  0  0  0  0  0  0  0  0  0
  151.4810  140.9896  159.9181 H   0  0  0  0  0  0  0  0  0  0  0  0
  147.8899  140.8850  156.0888 H   0  0  0  0  0  0  0  0  0  0  0  0
  153.3849  137.5416  155.7596 H   0  0  0  0  0  0  0  0  0  0  0  0
  150.6112  137.4289  153.5693 H   0  0  0  0  0  0  0  0  0  0  0  0
  151.7322  136.3580  154.3628 H   0  0  0  0  0  0  0  0  0  0  0  0
  149.8659  136.0712  156.1983 H   0  0  0  0  0  0  0  0  0  0  0  0
  147.4987  136.2986  155.2568 H   0  0  0  0  0  0  0  0  0  0  0  0
  148.2953  137.7980  155.6849 H   0  0  0  0  0  0  0  0  0  0  0  0
  148.3840  136.8070  153.0709 H   0  0  0  0  0  0  0  0  0  0  0  0
  149.6385  134.8428  153.4684 H   0  0  0  0  0  0  0  0  0  0  0  0
  151.4891  133.7365  154.3604 H   0  0  0  0  0  0  0  0  0  0  0  0
  150.9831  134.0044  156.0236 H   0  0  0  0  0  0  0  0  0  0  0  0
  149.7704  132.0238  154.0655 H   0  0  0  0  0  0  0  0  0  0  0  0
  150.3176  131.7226  155.7230 H   0  0  0  0  0  0  0  0  0  0  0  0
  147.5289  134.6470  155.4279 H   0  0  0  0  0  0  0  0  0  0  0  0
  147.7337  133.7928  153.9074 H   0  0  0  0  0  0  0  0  0  0  0  0
  150.4587  143.5883  157.4885 H   0  0  0  0  0  0  0  0  0  0  0  0
  150.0325  142.8585  159.0243 H   0  0  0  0  0  0  0  0  0  0  0  0
  152.3039  145.4069  157.4170 H   0  0  0  0  0  0  0  0  0  0  0  0
  153.4163  144.0798  157.6687 H   0  0  0  0  0  0  0  0  0  0  0  0
  153.4693  145.4804  158.7333 H   0  0  0  0  0  0  0  0  0  0  0  0
  150.3293  145.7989  158.9970 H   0  0  0  0  0  0  0  0  0  0  0  0
  151.4984  145.9853  160.3013 H   0  0  0  0  0  0  0  0  0  0  0  0
  150.1772  144.8361  160.4630 H   0  0  0  0  0  0  0  0  0  0  0  0
  1  2  1  0  0  0  0
  1 30  1  0  0  0  0
  1 31  1  0  0  0  0
  1 32  1  0  0  0  0
  2  3  1  0  0  0  0
  3  4  1  0  0  0  0
  3 33  1  0  0  0  0
  3 34  1  0  0  0  0
  4 29  1  0  0  0  0
  4  5  1  0  0  0  0
  4 35  1  0  0  0  0
  5  6  1  0  0  0  0
  5 36  1  0  0  0  0
  5 37  1  0  0  0  0
  6  7  1  0  0  0  0
  6 25  1  0  0  0  0
  7 12  1  0  0  0  0
  7  8  2  0  0  0  0
  8  9  1  0  0  0  0
  9 10  2  0  0  0  0
  9 38  1  0  0  0  0
 10 11  1  0  0  0  0
 11 15  1  0  0  0  0
 11 12  2  0  0  0  0
 12 13  1  0  0  0  0
 13 14  2  0  0  0  0
 14 15  1  0  0  0  0
 14 39  1  0  0  0  0
 15 16  1  0  0  0  0
 16 17  1  0  0  0  0
 16 40  1  0  0  0  0
 16 41  1  0  0  0  0
 17 18  1  0  0  0  0
 17 20  1  0  0  0  0
 17 42  1  0  0  0  0
 18 19  1  0  0  0  0
 18 43  1  0  0  0  0
 18 44  1  0  0  0  0
 19 45  1  0  0  0  0
 20 24  1  0  0  0  0
 20 21  1  0  0  0  0
 20 46  1  0  0  0  0
 21 22  1  0  0  0  0
 21 47  1  0  0  0  0
 21 48  1  0  0  0  0
 22 23  1  0  0  0  0
 22 49  1  0  0  0  0
 22 50  1  0  0  0  0
 23 24  1  0  0  0  0
 24 51  1  0  0  0  0
 24 52  1  0  0  0  0
 25 26  1  0  0  0  0
 25 53  1  0  0  0  0
 25 54  1  0  0  0  0
 26 27  1  0  0  0  0
 26 28  1  0  0  0  0
 26 29  1  0  0  0  0
 27 55  1  0  0  0  0
 27 56  1  0  0  0  0
 27 57  1  0  0  0  0
 28 58  1  0  0  0  0
 28 59  1  0  0  0  0
 28 60  1  0  0  0  0
M  END
> <s_m_source_file>
AV-unprocessed.smi

> <i_m_source_file_index>
91

> <i_lp_mmshare_version>
43012

> <i_f3d_flags>
0

> <s_epik_input>
W0NIM11PW0NIMl1bQ0BASF0oTzEpW0NIMl1OKFtDSDJdQzEoW0NIM10pW0NIM10pYyhuW2NIXW4yKWMoYzIzKW5bY0hdbjNbQ0gyXVtDQEhdKFtDSDJdW09IXSlbQ0BASF00W0NIMl1bQ0gyXU9bQ0gyXTQ=

> <s_epik_cmdline>
J2VwaWtfcHl0aG9uJywgJy1waCcsICc3LjAnLCAnLXRuJywgJzgnLCAnLW1hJywgJzIwMCcsICctbWV0YWxfYmluZGluZycsICctaW1hZScsICc8aW5maWxlLm1hZT4nLCAnLW9tYWUnLCAnPG91dGZpbGUubWFlPic=

> <r_lp_tautomer_probability>
1

> <r_epik_Ionization_Penalty>
8.63591e-05

> <r_epik_Ionization_Penalty_Charging>
0

> <r_epik_Ionization_Penalty_Neutral>
8.63591e-05

> <r_epik_State_Penalty>
-0

> <r_epik_Charging_Adjusted_Penalty>
0

> <i_epik_Tot_Q>
0

> <i_epik_Tot_abs_Q>
0

> <r_epik_Metal_State_Penalty>
-0

> <b_epik_Metal_Only>
0

> <s_lp_Force_Field>
OPLS_2005

> <r_lp_Energy>
49.4407

> <b_lp_Chiralities_Consistent>
1

> <s_lp_Variant>
AV-unprocessed.smi:91-8

> <Gold.Version>
5.8.1

> <Gold.Id.Protein>
6NUR|6NUR_protein|mol2

> <Gold.PLP.Fitness>
52.4820

> <Gold.PLP.PLP>
-48.4278

> <Gold.PLP.part.hbond>
-2.5830

> <Gold.PLP.part.metal>
0.0000

> <Gold.PLP.part.buried>
-8.8143

> <Gold.PLP.part.nonpolar>
-38.3168

> <Gold.PLP.part.repulsive>
0.1359

> <Gold.PLP.ligand.clash>
0.0000

> <Gold.PLP.ligand.torsion>
1.1608

> <Gold.PLP.Chemscore.Hbond>
2.0000

> <Gold.PLP.Chemscore.CHOScore>
0.0000

> <Gold.PLP.Chemscore.Metal>
0.0000

> <Gold.Chemscore.Hbonds>
donor molecule, donor type, donor heavy atom, donor atom, acceptor molecule, acceptor atom, score
      L1  H    19    45       P1  7948  0.81
      P1  H  7997  8010       L1    13  1.00

> <Gold.PLP.Chemscore.Internal.Correction>
0.3758

> <Gold.Rescore>
     Score         DG    S(hbond)    S(metal)    S(lipo)     H(rot)  DE(clash)    DE(int)     intcor
     16.53     -18.98       1.98        0.00     125.00       3.03       0.11       2.34       ----

> <Gold.Chemscore.Fitness>
16.5323

> <Gold.Chemscore.DG>
-18.9804

> <Gold.Chemscore.ZeroCoef>
-5.4800

> <Gold.Chemscore.Hbond>
1.9844

> <Gold.Chemscore.Metal>
0.0000

> <Gold.Chemscore.Lipo>
125.0021

> <Gold.Chemscore.Internal_Hbond>
0.0000

> <Gold.Chemscore.DEClash>
0.1109

> <Gold.Chemscore.DEInternal>
2.3372

> <Gold.Chemscore.Rot>
3.0284

> <Gold.Chemscore.Internal.Correction>
   9.000000E+99

> <Gold.Chemscore.Hbonds>
donor molecule, donor type, donor heavy atom, donor atom, acceptor molecule, acceptor atom, score
      L1  H    19    45       P1  7948  0.78
      P1  H  7997  8010       L1    13  0.82

> <Gold.Chemscore.Hbond.Weighted>
-6.6279

> <Gold.Chemscore.Metal.Weighted>
-0.0000

> <Gold.Chemscore.Lipo.Weighted>
-14.6252

> <Gold.Chemscore.Internal_Hbond.Weighted>
0.0000

> <Gold.Chemscore.DEClash.Weighted>
0.1109

> <Gold.Chemscore.DEInternal.Weighted>
2.3372

> <Gold.Chemscore.Rot.Weighted>
7.7528

> <Gold.Chemscore.Internal.Correction.Weighted>
   9.000000E+99

> <Gold.Protein.RotatedTorsions>
[ 6907 6896 6895 6894 ] final  -25.82 input  -60.11 | X-H torsion
[ 7974 7965 7964 7962 ] final -123.36 input  175.53 | X-H torsion
[ 8008 7997 7996 7995 ] final   74.89 input   59.86 | X-H torsion
[ 10167 10162 10161 10158 ] final -163.94 input  -65.29 | X-H torsion
[ 10718 10713 10712 10709 ] final -156.60 input   66.30 | X-H torsion
[ 10763 10752 10751 10750 ] final  -35.12 input  -60.55 | X-H torsion
[ 11005 11000 10999 10996 ] final  109.57 input  -57.11 | X-H torsion

> <Gold.Protein.ActiveResidues>
 VAL166  LYS551  ARG553  GLY616  TRP617  ASP618  TYR619  PRO620  LYS621  CYS622 
 ASP623  PHE694  ASN695  SER759  ASP760  ASP761  ALA762  ILE779  LEU786  VAL792 
 PHE793  MET794  SER795  GLU796  ALA797  LYS798  CYS799  TRP800  GLU811  SER814 

> <Gold.Protein.RotatedAtoms>
  151.1697  135.0312  159.8745 H   0  0  0  0  0  0  0  0  0  0  0  0  # atno 6907 bound_to 6896
  152.5449  134.1185  159.8399 H   0  0  0  0  0  0  0  0  0  0  0  0  # atno 6908 bound_to 6896
  151.1289  133.5004  159.2632 H   0  0  0  0  0  0  0  0  0  0  0  0  # atno 6909 bound_to 6896
  145.0195  140.7976  143.4389 H   0  0  0  0  0  0  0  0  0  0  0  0  # atno 7974 bound_to 7965
  155.8050  140.3475  155.5424 H   0  0  0  0  0  0  0  0  0  0  0  0  # atno 8008 bound_to 7997
  155.8500  140.0955  157.1701 H   0  0  0  0  0  0  0  0  0  0  0  0  # atno 8009 bound_to 7997
  154.4007  140.1378  156.3819 H   0  0  0  0  0  0  0  0  0  0  0  0  # atno 8010 bound_to 7997
  139.6285  144.0485  152.1996 H   0  0  0  0  0  0  0  0  0  0  0  0  # atno 10167 bound_to 10162
  156.5288  130.8511  151.2709 H   0  0  0  0  0  0  0  0  0  0  0  0  # atno 10718 bound_to 10713
  153.8580  135.6842  153.4785 H   0  0  0  0  0  0  0  0  0  0  0  0  # atno 10763 bound_to 10752
  153.1358  135.4678  154.9418 H   0  0  0  0  0  0  0  0  0  0  0  0  # atno 10764 bound_to 10752
  154.7772  135.3257  154.8017 H   0  0  0  0  0  0  0  0  0  0  0  0  # atno 10765 bound_to 10752
  139.8864  134.9461  156.6145 H   0  0  0  0  0  0  0  0  0  0  0  0  # atno 11005 bound_to 11000
  145.1915  139.2299  143.5240 LP  0  0  0  0  0  0  0  0  0  0  0  0  # atno 17320 bound_to 7965
  146.3483  140.1712  142.8589 LP  0  0  0  0  0  0  0  0  0  0  0  0  # atno 17321 bound_to 7965
  140.0144  144.6199  150.7619 LP  0  0  0  0  0  0  0  0  0  0  0  0  # atno 17342 bound_to 10162
  140.7425  143.2833  151.3535 LP  0  0  0  0  0  0  0  0  0  0  0  0  # atno 17343 bound_to 10162
  157.7425  130.9892  150.2522 LP  0  0  0  0  0  0  0  0  0  0  0  0  # atno 17370 bound_to 10713
  156.3079  130.3768  149.7688 LP  0  0  0  0  0  0  0  0  0  0  0  0  # atno 17371 bound_to 10713
  140.7786  133.8679  155.8549 LP  0  0  0  0  0  0  0  0  0  0  0  0  # atno 17394 bound_to 11000
  140.9780  134.1443  157.4519 LP  0  0  0  0  0  0  0  0  0  0  0  0  # atno 17395 bound_to 11000

$$$$
