AV-unprocessed.smi:102|AV-procd|sdf|954|dock2
  -GOLD-   2262017483D 1   1.00000     0.00000
 Structure written by MMmdl.
 44 45  0  0  0  0  0  0  0  0  1 V2000
  147.4214  134.7092  161.4267 C   0  0  0  0  0  0  0  0  0  0  0  0
  147.7480  135.9598  160.6216 C   0  0  0  0  0  0  0  0  0  0  0  0
  147.3835  137.0761  160.9912 O   0  0  0  0  0  0  0  0  0  0  0  0
  148.4490  135.6855  159.5105 O   0  0  0  0  0  0  0  0  0  0  0  0
  148.9683  136.7480  158.7280 C   0  0  0  0  0  0  0  0  0  0  0  0
  149.4246  136.2076  157.3642 C   0  0  1  0  0  0  0  0  0  0  0  0
  149.4084  137.2590  156.4007 O   0  0  0  0  0  0  0  0  0  0  0  0
  150.6829  137.8001  156.2042 C   0  0  1  0  0  0  0  0  0  0  0  0
  150.6809  139.2756  156.5579 N   0  0  0  0  0  0  0  0  0  0  0  0
  149.5406  139.9421  156.9917 C   0  0  0  0  0  0  0  0  0  0  0  0
  149.5347  141.2564  157.3170 C   0  0  0  0  0  0  0  0  0  0  0  0
  148.3927  141.8320  157.7300 F   0  0  0  0  0  0  0  0  0  0  0  0
  150.7531  142.0549  157.2174 C   0  0  0  0  0  0  0  0  0  0  0  0
  150.8477  143.2488  157.4944 O   0  0  0  0  0  0  0  0  0  0  0  0
  151.8698  141.3488  156.7611 N   0  0  0  0  0  0  0  0  0  0  0  0
  151.8887  139.9952  156.4212 C   0  0  0  0  0  0  0  0  0  0  0  0
  152.9306  139.4709  156.0296 O   0  0  0  0  0  0  0  0  0  0  0  0
  151.6793  136.9743  157.0469 C   0  0  1  0  0  0  0  0  0  0  0  0
  152.0731  137.6573  158.2350 O   0  0  0  0  0  0  0  0  0  0  0  0
  152.9597  137.1035  159.0767 C   0  0  0  0  0  0  0  0  0  0  0  0
  153.3090  138.0271  160.2355 C   0  0  0  0  0  0  0  0  0  0  0  0
  153.4576  135.9829  158.9718 O   0  0  0  0  0  0  0  0  0  0  0  0
  150.8796  135.7315  157.3996 C   0  0  2  0  0  0  0  0  0  0  0  0
  151.1290  134.7215  156.4290 O   0  0  0  0  0  0  0  0  0  0  0  0
  150.8053  133.4405  156.6810 C   0  0  0  0  0  0  0  0  0  0  0  0
  150.8866  132.5661  155.4369 C   0  0  0  0  0  0  0  0  0  0  0  0
  150.4685  132.9786  157.7714 O   0  0  0  0  0  0  0  0  0  0  0  0
  152.7348  141.8618  156.6703 H   0  0  0  0  0  0  0  0  0  0  0  0
  146.9845  133.9453  160.7829 H   0  0  0  0  0  0  0  0  0  0  0  0
  146.7098  134.9400  162.2200 H   0  0  0  0  0  0  0  0  0  0  0  0
  148.3264  134.3052  161.8804 H   0  0  0  0  0  0  0  0  0  0  0  0
  148.2285  137.5381  158.5959 H   0  0  0  0  0  0  0  0  0  0  0  0
  149.8148  137.1851  159.2587 H   0  0  0  0  0  0  0  0  0  0  0  0
  148.7536  135.4046  157.0562 H   0  0  0  0  0  0  0  0  0  0  0  0
  150.8973  137.7594  155.1345 H   0  0  0  0  0  0  0  0  0  0  0  0
  148.6034  139.4159  157.0780 H   0  0  0  0  0  0  0  0  0  0  0  0
  152.5523  136.7447  156.4337 H   0  0  0  0  0  0  0  0  0  0  0  0
  153.5979  139.0103  159.8633 H   0  0  0  0  0  0  0  0  0  0  0  0
  154.1378  137.6197  160.8148 H   0  0  0  0  0  0  0  0  0  0  0  0
  152.4499  138.1453  160.8960 H   0  0  0  0  0  0  0  0  0  0  0  0
  151.1586  135.3584  158.3865 H   0  0  0  0  0  0  0  0  0  0  0  0
  151.8569  132.6818  154.9537 H   0  0  0  0  0  0  0  0  0  0  0  0
  150.1090  132.8474  154.7267 H   0  0  0  0  0  0  0  0  0  0  0  0
  150.7536  131.5157  155.6971 H   0  0  0  0  0  0  0  0  0  0  0  0
  1  2  1  0  0  0  0
  1 29  1  0  0  0  0
  1 30  1  0  0  0  0
  1 31  1  0  0  0  0
  2  3  2  0  0  0  0
  2  4  1  0  0  0  0
  4  5  1  0  0  0  0
  5  6  1  0  0  0  0
  5 32  1  0  0  0  0
  5 33  1  0  0  0  0
  6 23  1  0  0  0  0
  6  7  1  0  0  0  0
  6 34  1  0  0  0  0
  7  8  1  0  0  0  0
  8  9  1  0  0  0  0
  8 18  1  0  0  0  0
  8 35  1  0  0  0  0
  9 16  1  0  0  0  0
  9 10  1  0  0  0  0
 10 11  2  0  0  0  0
 10 36  1  0  0  0  0
 11 12  1  0  0  0  0
 11 13  1  0  0  0  0
 13 14  2  0  0  0  0
 13 15  1  0  0  0  0
 15 28  1  0  0  0  0
 15 16  1  0  0  0  0
 16 17  2  0  0  0  0
 18 19  1  0  0  0  0
 18 23  1  0  0  0  0
 18 37  1  0  0  0  0
 19 20  1  0  0  0  0
 20 21  1  0  0  0  0
 20 22  2  0  0  0  0
 21 38  1  0  0  0  0
 21 39  1  0  0  0  0
 21 40  1  0  0  0  0
 23 24  1  0  0  0  0
 23 41  1  0  0  0  0
 24 25  1  0  0  0  0
 25 26  1  0  0  0  0
 25 27  2  0  0  0  0
 26 42  1  0  0  0  0
 26 43  1  0  0  0  0
 26 44  1  0  0  0  0
M  END
> <s_m_source_file>
AV-unprocessed.smi

> <i_m_source_file_index>
102

> <i_lp_mmshare_version>
43012

> <i_f3d_flags>
0

> <s_epik_input>
W0NIM11DKD1PKU9bQ0gyXVtDQEBIXTFPW0NASF0oW0NAQEhdKE9DKD1PKVtDSDNdKVtDQEhdMU9DKD1PKVtDSDNdKW4yW2NIXWMoRiljKD1PKVtuSF1jMj1P

> <s_epik_cmdline>
J2VwaWtfcHl0aG9uJywgJy1waCcsICc3LjAnLCAnLXRuJywgJzgnLCAnLW1hJywgJzIwMCcsICctbWV0YWxfYmluZGluZycsICctaW1hZScsICc8aW5maWxlLm1hZT4nLCAnLW9tYWUnLCAnPG91dGZpbGUubWFlPic=

> <r_lp_tautomer_probability>
0.999537

> <r_epik_Ionization_Penalty>
0.058267

> <r_epik_Ionization_Penalty_Charging>
0.058267

> <r_epik_Ionization_Penalty_Neutral>
6.57791e-16

> <r_epik_State_Penalty>
0.0503774

> <r_epik_Charging_Adjusted_Penalty>
0.108644

> <i_epik_Tot_Q>
0

> <i_epik_Tot_abs_Q>
0

> <r_epik_Metal_State_Penalty>
2.6644

> <b_epik_Metal_Only>
0

> <s_epik_Chemistry_Notes>
This compound has an ester and may undergo hydrolysis at high or low pH. This compound contains an acetal/aminal-like group ( X-CH(R)-Y where X, Y are N, S, or O) that may be acid/base labile, releasing an aldehyde.

> <s_lp_Force_Field>
OPLS_2005

> <r_lp_Energy>
14.5716

> <b_lp_Chiralities_Consistent>
1

> <s_lp_Variant>
AV-unprocessed.smi:102-10

> <Gold.Version>
5.8.1

> <Gold.Id.Protein>
6NUR|6NUR_protein|mol2

> <Gold.PLP.Fitness>
37.7390

> <Gold.PLP.PLP>
-26.8260

> <Gold.PLP.part.hbond>
-5.0000

> <Gold.PLP.part.metal>
0.0000

> <Gold.PLP.part.buried>
-3.5706

> <Gold.PLP.part.nonpolar>
-19.4027

> <Gold.PLP.part.repulsive>
0.3142

> <Gold.PLP.ligand.clash>
0.0000

> <Gold.PLP.ligand.torsion>
0.7254

> <Gold.PLP.Chemscore.Hbond>
4.0787

> <Gold.PLP.Chemscore.CHOScore>
0.0000

> <Gold.PLP.Chemscore.Metal>
0.0000

> <Gold.Chemscore.Hbonds>
donor molecule, donor type, donor heavy atom, donor atom, acceptor molecule, acceptor atom, score
      P1  H  6896  6908       L1    22  0.42
      P1  H  6896  6909       L1    27  1.00
      P1  H  6931  6943       L1     3  0.47
      P1  H  6934  6947       L1     3  1.00
      P1  H  7997  8009       L1    17  0.88

> <Gold.PLP.Chemscore.Internal.Correction>
0.1278

> <Gold.Rescore>
     Score         DG    S(hbond)    S(metal)    S(lipo)     H(rot)  DE(clash)    DE(int)     intcor
     10.44     -13.42       4.17        0.00      37.44       4.05       1.31       1.68       ----

> <Gold.Chemscore.Fitness>
10.4357

> <Gold.Chemscore.DG>
-13.4222

> <Gold.Chemscore.ZeroCoef>
-5.4800

> <Gold.Chemscore.Hbond>
4.1723

> <Gold.Chemscore.Metal>
0.0000

> <Gold.Chemscore.Lipo>
37.4358

> <Gold.Chemscore.Internal_Hbond>
0.0000

> <Gold.Chemscore.DEClash>
1.3112

> <Gold.Chemscore.DEInternal>
1.6753

> <Gold.Chemscore.Rot>
4.0520

> <Gold.Chemscore.Internal.Correction>
   9.000000E+99

> <Gold.Chemscore.Hbonds>
donor molecule, donor type, donor heavy atom, donor atom, acceptor molecule, acceptor atom, score
      P1  H  6896  6908       L1    22  0.40
      P1  H  6896  6909       L1    27  0.96
      P1  H  6931  6943       L1     3  0.38
      P1  H  6934  6947       L1     3  0.96
      P1  H  7997  8009       L1    17  0.86

> <Gold.Chemscore.Hbond.Weighted>
-13.9354

> <Gold.Chemscore.Metal.Weighted>
-0.0000

> <Gold.Chemscore.Lipo.Weighted>
-4.3800

> <Gold.Chemscore.Internal_Hbond.Weighted>
0.0000

> <Gold.Chemscore.DEClash.Weighted>
1.3112

> <Gold.Chemscore.DEInternal.Weighted>
1.6753

> <Gold.Chemscore.Rot.Weighted>
10.3732

> <Gold.Chemscore.Internal.Correction.Weighted>
   9.000000E+99

> <Gold.Protein.RotatedTorsions>
[ 6907 6896 6895 6894 ] final  -34.45 input  -60.11 | X-H torsion
[ 7974 7965 7964 7962 ] final  -78.04 input  175.53 | X-H torsion
[ 8008 7997 7996 7995 ] final -133.93 input   59.86 | X-H torsion
[ 10167 10162 10161 10158 ] final   19.89 input  -65.29 | X-H torsion
[ 10718 10713 10712 10709 ] final  123.05 input   66.30 | X-H torsion
[ 10763 10752 10751 10750 ] final   72.23 input  -60.55 | X-H torsion
[ 11005 11000 10999 10996 ] final   29.57 input  -57.11 | X-H torsion

> <Gold.Protein.ActiveResidues>
 VAL166  LYS551  ARG553  GLY616  TRP617  ASP618  TYR619  PRO620  LYS621  CYS622 
 ASP623  PHE694  ASN695  SER759  ASP760  ASP761  ALA762  ILE779  LEU786  VAL792 
 PHE793  MET794  SER795  GLU796  ALA797  LYS798  CYS799  TRP800  GLU811  SER814 

> <Gold.Protein.RotatedAtoms>
  151.0525  134.9682  159.8218 H   0  0  0  0  0  0  0  0  0  0  0  0  # atno 6907 bound_to 6896
  152.5383  134.2519  159.8912 H   0  0  0  0  0  0  0  0  0  0  0  0  # atno 6908 bound_to 6896
  151.2535  133.4295  159.2646 H   0  0  0  0  0  0  0  0  0  0  0  0  # atno 6909 bound_to 6896
  145.5918  140.9428  143.1288 H   0  0  0  0  0  0  0  0  0  0  0  0  # atno 7974 bound_to 7965
  155.3536  140.0479  157.3046 H   0  0  0  0  0  0  0  0  0  0  0  0  # atno 8008 bound_to 7997
  154.5214  140.2226  155.8933 H   0  0  0  0  0  0  0  0  0  0  0  0  # atno 8009 bound_to 7997
  156.1693  140.3099  155.8951 H   0  0  0  0  0  0  0  0  0  0  0  0  # atno 8010 bound_to 7997
  140.5545  143.9450  150.6600 H   0  0  0  0  0  0  0  0  0  0  0  0  # atno 10167 bound_to 10162
  157.5695  131.1084  150.8393 H   0  0  0  0  0  0  0  0  0  0  0  0  # atno 10718 bound_to 10713
  153.0446  135.5107  154.7713 H   0  0  0  0  0  0  0  0  0  0  0  0  # atno 10763 bound_to 10752
  154.6623  135.2940  154.9853 H   0  0  0  0  0  0  0  0  0  0  0  0  # atno 10764 bound_to 10752
  154.0700  135.6679  153.4875 H   0  0  0  0  0  0  0  0  0  0  0  0  # atno 10765 bound_to 10752
  140.3035  134.2730  155.7749 H   0  0  0  0  0  0  0  0  0  0  0  0  # atno 11005 bound_to 11000
  144.7348  139.7618  143.7333 LP  0  0  0  0  0  0  0  0  0  0  0  0  # atno 17320 bound_to 7965
  146.1641  139.4766  142.9969 LP  0  0  0  0  0  0  0  0  0  0  0  0  # atno 17321 bound_to 7965
  140.2884  143.3341  152.1085 LP  0  0  0  0  0  0  0  0  0  0  0  0  # atno 17342 bound_to 10162
  139.5042  144.6770  151.6104 LP  0  0  0  0  0  0  0  0  0  0  0  0  # atno 17343 bound_to 10162
  156.8868  130.5199  149.5288 LP  0  0  0  0  0  0  0  0  0  0  0  0  # atno 17370 bound_to 10713
  156.0741  130.5767  150.9440 LP  0  0  0  0  0  0  0  0  0  0  0  0  # atno 17371 bound_to 10713
  141.2123  133.7662  156.9802 LP  0  0  0  0  0  0  0  0  0  0  0  0  # atno 17394 bound_to 11000
  140.1088  134.9490  157.2034 LP  0  0  0  0  0  0  0  0  0  0  0  0  # atno 17395 bound_to 11000

$$$$
