AV-unprocessed.smi:158|AV-procd|sdf|1324|dock8
  -GOLD-   2262019 23D 1   1.00000     0.00000
 Structure written by MMmdl.
 31 33  0  0  0  0  0  0  0  0  1 V2000
  143.2017  134.4690  154.3186 N   0  0  0  0  0  0  0  0  0  0  0  0
  144.3258  134.9004  154.9079 C   0  0  0  0  0  0  0  0  0  0  0  0
  144.9532  134.0769  155.7796 N   0  0  0  0  0  0  0  0  0  0  0  0
  146.0785  134.4693  156.3893 C   0  0  0  0  0  0  0  0  0  0  0  0
  146.7945  133.3424  157.4800 Cl  0  0  0  0  0  0  0  0  0  0  0  0
  146.7129  135.6376  156.2465 N   0  0  0  0  0  0  0  0  0  0  0  0
  146.0840  136.4715  155.3689 C   0  0  0  0  0  0  0  0  0  0  0  0
  144.8881  136.1768  154.6611 C   0  0  0  0  0  0  0  0  0  0  0  0
  144.5351  137.2529  153.8587 N   0  0  0  0  0  0  0  0  0  0  0  0
  145.4740  138.1329  154.0841 C   0  0  0  0  0  0  0  0  0  0  0  0
  146.4508  137.7427  154.9744 N   0  0  0  0  0  0  0  0  0  0  0  0
  147.6340  138.5348  155.4320 C   0  0  1  0  0  0  0  0  0  0  0  0
  148.7955  137.8105  155.1561 O   0  0  0  0  0  0  0  0  0  0  0  0
  149.6517  138.5437  154.2807 C   0  0  2  0  0  0  0  0  0  0  0  0
  151.1206  138.2741  154.6428 C   0  0  0  0  0  0  0  0  0  0  0  0
  151.5127  137.0023  154.1726 O   0  0  0  0  0  0  0  0  0  0  0  0
  149.2314  140.0003  154.4996 C   0  0  1  0  0  0  0  0  0  0  0  0
  149.5270  140.8024  153.3739 O   0  0  0  0  0  0  0  0  0  0  0  0
  147.7338  139.8747  154.6985 C   0  0  2  0  0  0  0  0  0  0  0  0
  147.2511  140.8534  155.4647 F   0  0  0  0  0  0  0  0  0  0  0  0
  147.5144  138.6371  156.5115 H   0  0  0  0  0  0  0  0  0  0  0  0
  149.4450  138.2541  153.2492 H   0  0  0  0  0  0  0  0  0  0  0  0
  149.7021  140.4067  155.3961 H   0  0  0  0  0  0  0  0  0  0  0  0
  147.1887  139.8509  153.7540 H   0  0  0  0  0  0  0  0  0  0  0  0
  142.7163  135.0660  153.6642 H   0  0  0  0  0  0  0  0  0  0  0  0
  142.8410  133.5501  154.5312 H   0  0  0  0  0  0  0  0  0  0  0  0
  145.4809  139.0988  153.6000 H   0  0  0  0  0  0  0  0  0  0  0  0
  151.7660  139.0111  154.1636 H   0  0  0  0  0  0  0  0  0  0  0  0
  151.2850  138.3506  155.7179 H   0  0  0  0  0  0  0  0  0  0  0  0
  151.1793  136.8899  153.2957 H   0  0  0  0  0  0  0  0  0  0  0  0
  149.4102  140.2810  152.5941 H   0  0  0  0  0  0  0  0  0  0  0  0
  1  2  1  0  0  0  0
  1 25  1  0  0  0  0
  1 26  1  0  0  0  0
  2  8  1  0  0  0  0
  2  3  2  0  0  0  0
  3  4  1  0  0  0  0
  4  5  1  0  0  0  0
  4  6  2  0  0  0  0
  6  7  1  0  0  0  0
  7 11  1  0  0  0  0
  7  8  2  0  0  0  0
  8  9  1  0  0  0  0
  9 10  2  0  0  0  0
 10 11  1  0  0  0  0
 10 27  1  0  0  0  0
 11 12  1  0  0  0  0
 12 21  1  0  0  0  0
 12 19  1  0  0  0  0
 12 13  1  0  0  0  0
 13 14  1  0  0  0  0
 14 22  1  0  0  0  0
 14 15  1  0  0  0  0
 14 17  1  0  0  0  0
 15 16  1  0  0  0  0
 15 28  1  0  0  0  0
 15 29  1  0  0  0  0
 16 30  1  0  0  0  0
 17 23  1  0  0  0  0
 17 18  1  0  0  0  0
 17 19  1  0  0  0  0
 18 31  1  0  0  0  0
 19 24  1  0  0  0  0
 19 20  1  0  0  0  0
M  END
> <s_m_source_file>
AV-unprocessed.smi

> <i_m_source_file_index>
158

> <i_lp_mmshare_version>
43012

> <i_f3d_flags>
0

> <s_epik_input>
Q2xjKG4xKW5jKFtOSDJdKWMoYzEyKW5bY0hdbjJbQ0BASF0zT1tDQEhdKFtDSDJdW09IXSlbQ0BASF0oW09IXSlbQ0BASF0zRg==

> <s_epik_cmdline>
J2VwaWtfcHl0aG9uJywgJy1waCcsICc3LjAnLCAnLXRuJywgJzgnLCAnLW1hJywgJzIwMCcsICctbWV0YWxfYmluZGluZycsICctaW1hZScsICc8aW5maWxlLm1hZT4nLCAnLW9tYWUnLCAnPG91dGZpbGUubWFlPic=

> <r_lp_tautomer_probability>
1

> <r_epik_Ionization_Penalty>
6.51543e-05

> <r_epik_Ionization_Penalty_Charging>
0

> <r_epik_Ionization_Penalty_Neutral>
6.51543e-05

> <r_epik_State_Penalty>
-0

> <r_epik_Charging_Adjusted_Penalty>
0

> <i_epik_Tot_Q>
0

> <i_epik_Tot_abs_Q>
0

> <r_epik_Metal_State_Penalty>
-0

> <b_epik_Metal_Only>
0

> <s_epik_Chemistry_Notes>
This compound contains an acetal/aminal-like group ( X-CH(R)-Y where X, Y are N, S, or O) that may be acid/base labile, releasing an aldehyde.

> <s_lp_Force_Field>
OPLS_2005

> <r_lp_Energy>
33.0982

> <b_lp_Chiralities_Consistent>
1

> <s_lp_Variant>
AV-unprocessed.smi:158-2

> <Gold.Version>
5.8.1

> <Gold.Id.Protein>
6NUR|6NUR_protein|mol2

> <Gold.PLP.Fitness>
34.3260

> <Gold.PLP.PLP>
-17.5478

> <Gold.PLP.part.hbond>
-5.4103

> <Gold.PLP.part.metal>
0.0000

> <Gold.PLP.part.buried>
-5.2860

> <Gold.PLP.part.nonpolar>
-8.7497

> <Gold.PLP.part.repulsive>
0.2996

> <Gold.PLP.ligand.clash>
0.0000

> <Gold.PLP.ligand.torsion>
0.1207

> <Gold.PLP.Chemscore.Hbond>
4.6709

> <Gold.PLP.Chemscore.CHOScore>
0.9994

> <Gold.PLP.Chemscore.Metal>
0.0000

> <Gold.Chemscore.Hbonds>
donor molecule, donor type, donor heavy atom, donor atom, acceptor molecule, acceptor atom, score
      L1  H     1    26       P1 10957  1.00
      L1  H    16    30       P1  7949  1.00
      L1  H    18    31       P1  7957  0.84
      P1  H  7989  7998       L1    18  0.26
      P1  H  8011  8017       L1    18  0.55
      P1  H 10752 10763       L1    16  1.00
      L1  C    10    27       P1 10175  1.00

> <Gold.PLP.Chemscore.Internal.Correction>
0.0087

> <Gold.Rescore>
     Score         DG    S(hbond)    S(metal)    S(lipo)     H(rot)  DE(clash)    DE(int)     intcor
     13.80     -14.07       4.01        0.00      27.25       3.12       0.10       0.18       ----

> <Gold.Chemscore.Fitness>
13.7993

> <Gold.Chemscore.DG>
-14.0739

> <Gold.Chemscore.ZeroCoef>
-5.4800

> <Gold.Chemscore.Hbond>
4.0120

> <Gold.Chemscore.Metal>
0.0000

> <Gold.Chemscore.Lipo>
27.2544

> <Gold.Chemscore.Internal_Hbond>
0.0000

> <Gold.Chemscore.DEClash>
0.0958

> <Gold.Chemscore.DEInternal>
0.1787

> <Gold.Chemscore.Rot>
3.1230

> <Gold.Chemscore.Internal.Correction>
   9.000000E+99

> <Gold.Chemscore.Hbonds>
donor molecule, donor type, donor heavy atom, donor atom, acceptor molecule, acceptor atom, score
      L1  H     1    26       P1 10957  1.00
      L1  H    16    30       P1  7949  0.45
      L1  H    18    31       P1  7957  0.78
      P1  H  7989  7998       L1    18  0.02
      P1  H  8011  8017       L1    18  0.03
      P1  H 10752 10763       L1    16  0.39

> <Gold.Chemscore.Hbond.Weighted>
-13.4001

> <Gold.Chemscore.Metal.Weighted>
-0.0000

> <Gold.Chemscore.Lipo.Weighted>
-3.1888

> <Gold.Chemscore.Internal_Hbond.Weighted>
0.0000

> <Gold.Chemscore.DEClash.Weighted>
0.0958

> <Gold.Chemscore.DEInternal.Weighted>
0.1787

> <Gold.Chemscore.Rot.Weighted>
7.9950

> <Gold.Chemscore.Internal.Correction.Weighted>
   9.000000E+99

> <Gold.Protein.RotatedTorsions>
[ 6907 6896 6895 6894 ] final  144.03 input  -60.11 | X-H torsion
[ 7974 7965 7964 7962 ] final -123.81 input  175.53 | X-H torsion
[ 8008 7997 7996 7995 ] final   -6.25 input   59.86 | X-H torsion
[ 10167 10162 10161 10158 ] final  -67.92 input  -65.29 | X-H torsion
[ 10718 10713 10712 10709 ] final -179.97 input   66.30 | X-H torsion
[ 10763 10752 10751 10750 ] final   41.72 input  -60.55 | X-H torsion
[ 11005 11000 10999 10996 ] final -173.09 input  -57.11 | X-H torsion

> <Gold.Protein.ActiveResidues>
 VAL166  LYS551  ARG553  GLY616  TRP617  ASP618  TYR619  PRO620  LYS621  CYS622 
 ASP623  PHE694  ASN695  SER759  ASP760  ASP761  ALA762  ILE779  LEU786  VAL792 
 PHE793  MET794  SER795  GLU796  ALA797  LYS798  CYS799  TRP800  GLU811  SER814 

> <Gold.Protein.RotatedAtoms>
  152.1988  133.4826  159.5047 H   0  0  0  0  0  0  0  0  0  0  0  0  # atno 6907 bound_to 6896
  150.6965  134.1617  159.4187 H   0  0  0  0  0  0  0  0  0  0  0  0  # atno 6908 bound_to 6896
  151.9534  135.0158  160.0594 H   0  0  0  0  0  0  0  0  0  0  0  0  # atno 6909 bound_to 6896
  145.0147  140.7936  143.4417 H   0  0  0  0  0  0  0  0  0  0  0  0  # atno 7974 bound_to 7965
  154.5957  140.2437  155.7860 H   0  0  0  0  0  0  0  0  0  0  0  0  # atno 8008 bound_to 7997
  156.2277  140.2977  156.0062 H   0  0  0  0  0  0  0  0  0  0  0  0  # atno 8009 bound_to 7997
  155.2298  140.0403  157.2951 H   0  0  0  0  0  0  0  0  0  0  0  0  # atno 8010 bound_to 7997
  140.5547  143.2312  151.6844 H   0  0  0  0  0  0  0  0  0  0  0  0  # atno 10167 bound_to 10162
  156.8671  130.9771  151.3077 H   0  0  0  0  0  0  0  0  0  0  0  0  # atno 10718 bound_to 10713
  152.9901  135.6153  154.2833 H   0  0  0  0  0  0  0  0  0  0  0  0  # atno 10763 bound_to 10752
  154.2561  135.2784  155.2798 H   0  0  0  0  0  0  0  0  0  0  0  0  # atno 10764 bound_to 10752
  154.5246  135.5805  153.6766 H   0  0  0  0  0  0  0  0  0  0  0  0  # atno 10765 bound_to 10752
  140.4897  134.5996  157.4950 H   0  0  0  0  0  0  0  0  0  0  0  0  # atno 11005 bound_to 11000
  145.1976  139.2269  143.5210 LP  0  0  0  0  0  0  0  0  0  0  0  0  # atno 17320 bound_to 7965
  146.3476  140.1786  142.8589 LP  0  0  0  0  0  0  0  0  0  0  0  0  # atno 17321 bound_to 7965
  139.5042  144.3761  152.0422 LP  0  0  0  0  0  0  0  0  0  0  0  0  # atno 17342 bound_to 10162
  140.2881  144.3784  150.6097 LP  0  0  0  0  0  0  0  0  0  0  0  0  # atno 17343 bound_to 10162
  157.6217  130.8660  149.9120 LP  0  0  0  0  0  0  0  0  0  0  0  0  # atno 17370 bound_to 10713
  156.0746  130.3680  150.0704 LP  0  0  0  0  0  0  0  0  0  0  0  0  # atno 17371 bound_to 10713
  139.9776  134.7189  155.9919 LP  0  0  0  0  0  0  0  0  0  0  0  0  # atno 17394 bound_to 11000
  141.1490  133.6551  156.3955 LP  0  0  0  0  0  0  0  0  0  0  0  0  # atno 17395 bound_to 11000

$$$$
