AV-unprocessed.smi:2506|AV-procd|sdf|9862|dock1
  -GOLD-   2272013493D 1   1.00000     0.00000
 Structure written by MMmdl.
 39 40  0  0  0  0  0  0  0  0  2 V2000
  150.2383  138.5384  154.1547 C   0  0  0  0  0  0  0  0  0  0  0  0
  149.2771  139.7145  154.1418 C   0  0  0  0  0  0  0  0  0  0  0  0
  149.7325  140.8428  154.7365 N   0  0  0  0  0  0  0  0  0  0  0  0
  148.9256  141.9163  154.7555 N   0  3  0  0  0  0  0  0  0  0  0  0
  147.6839  141.9167  154.2169 C   0  0  0  0  0  0  0  0  0  0  0  0
  147.1776  140.7622  153.5927 C   0  0  0  0  0  0  0  0  0  0  0  0
  148.0021  139.6160  153.5369 C   0  0  0  0  0  0  0  0  0  0  0  0
  147.6012  138.3840  152.9481 N   0  0  0  0  0  0  0  0  0  0  0  0
  146.3619  137.8761  152.8409 C   0  0  0  0  0  0  0  0  0  0  0  0
  145.3378  138.4093  153.2672 O   0  0  0  0  0  0  0  0  0  0  0  0
  146.3735  136.7110  152.1783 N   0  0  0  0  0  0  0  0  0  0  0  0
  145.2000  135.9020  151.8548 C   0  0  0  0  0  0  0  0  0  0  0  0
  145.4852  134.3803  151.9093 C   0  0  0  0  0  0  0  0  0  0  0  0
  146.0773  133.9820  153.2806 C   0  0  0  0  0  0  0  0  0  0  0  0
  144.2332  133.5424  151.5940 C   0  0  0  0  0  0  0  0  0  0  0  0
  144.7441  132.2067  151.0418 C   0  0  0  0  0  0  0  0  0  0  0  0
  146.1574  132.4768  150.5087 C   0  0  0  0  0  0  0  0  0  0  0  0
  146.4435  133.9587  150.7821 C   0  0  0  0  0  0  0  0  0  0  0  0
  150.4654  138.2228  153.1359 H   0  0  0  0  0  0  0  0  0  0  0  0
  149.7997  137.6949  154.6886 H   0  0  0  0  0  0  0  0  0  0  0  0
  151.1793  138.7936  154.6442 H   0  0  0  0  0  0  0  0  0  0  0  0
  147.1321  142.8408  154.3075 H   0  0  0  0  0  0  0  0  0  0  0  0
  146.1773  140.7763  153.1875 H   0  0  0  0  0  0  0  0  0  0  0  0
  148.3322  137.8683  152.4800 H   0  0  0  0  0  0  0  0  0  0  0  0
  147.2635  136.3547  151.8616 H   0  0  0  0  0  0  0  0  0  0  0  0
  144.4269  136.1621  152.5785 H   0  0  0  0  0  0  0  0  0  0  0  0
  144.7939  136.1750  150.8793 H   0  0  0  0  0  0  0  0  0  0  0  0
  146.3664  132.9313  153.3108 H   0  0  0  0  0  0  0  0  0  0  0  0
  145.3631  134.1380  154.0890 H   0  0  0  0  0  0  0  0  0  0  0  0
  146.9669  134.5696  153.5097 H   0  0  0  0  0  0  0  0  0  0  0  0
  143.5807  133.4105  152.4580 H   0  0  0  0  0  0  0  0  0  0  0  0
  143.6438  134.0370  150.8205 H   0  0  0  0  0  0  0  0  0  0  0  0
  144.7866  131.4626  151.8381 H   0  0  0  0  0  0  0  0  0  0  0  0
  144.0829  131.8165  150.2675 H   0  0  0  0  0  0  0  0  0  0  0  0
  146.8773  131.8490  151.0355 H   0  0  0  0  0  0  0  0  0  0  0  0
  146.2427  132.2466  149.4462 H   0  0  0  0  0  0  0  0  0  0  0  0
  146.2246  134.5252  149.8757 H   0  0  0  0  0  0  0  0  0  0  0  0
  147.4911  134.1416  151.0248 H   0  0  0  0  0  0  0  0  0  0  0  0
  149.2593  142.7713  155.2015 H   0  0  0  0  0  0  0  0  0  0  0  0
  1  2  1  0  0  0  0
  1 19  1  0  0  0  0
  1 20  1  0  0  0  0
  1 21  1  0  0  0  0
  2  7  1  0  0  0  0
  2  3  2  0  0  0  0
  3  4  1  0  0  0  0
  4  5  2  0  0  0  0
  4 39  1  0  0  0  0
  5  6  1  0  0  0  0
  5 22  1  0  0  0  0
  6  7  2  0  0  0  0
  6 23  1  0  0  0  0
  7  8  1  0  0  0  0
  8  9  1  0  0  0  0
  8 24  1  0  0  0  0
  9 10  2  0  0  0  0
  9 11  1  0  0  0  0
 11 12  1  0  0  0  0
 11 25  1  0  0  0  0
 12 13  1  0  0  0  0
 12 26  1  0  0  0  0
 12 27  1  0  0  0  0
 13 18  1  0  0  0  0
 13 14  1  0  0  0  0
 13 15  1  0  0  0  0
 14 28  1  0  0  0  0
 14 29  1  0  0  0  0
 14 30  1  0  0  0  0
 15 16  1  0  0  0  0
 15 31  1  0  0  0  0
 15 32  1  0  0  0  0
 16 17  1  0  0  0  0
 16 33  1  0  0  0  0
 16 34  1  0  0  0  0
 17 18  1  0  0  0  0
 17 35  1  0  0  0  0
 17 36  1  0  0  0  0
 18 37  1  0  0  0  0
 18 38  1  0  0  0  0
M  CHG  1   4   1
M  END
> <s_m_source_file>
AV-unprocessed.smi

> <i_m_source_file_index>
2506

> <i_lp_mmshare_version>
43012

> <i_f3d_flags>
0

> <s_epik_input>
W0NIM11jMW5uW2NIXVtjSF1jMVtOSF1DKD1PKVtOSF1bQ0gyXUMyKFtDSDNdKVtDSDJdW0NIMl1bQ0gyXVtDSDJdMg==

> <s_epik_cmdline>
J2VwaWtfcHl0aG9uJywgJy1waCcsICc3LjAnLCAnLXRuJywgJzgnLCAnLW1hJywgJzIwMCcsICctbWV0YWxfYmluZGluZycsICctaW1hZScsICc8aW5maWxlLm1hZT4nLCAnLW9tYWUnLCAnPG91dGZpbGUubWFlPic=

> <r_lp_tautomer_probability>
0.5088

> <r_epik_Ionization_Penalty>
1.13414

> <r_epik_Ionization_Penalty_Charging>
1.1341

> <r_epik_Ionization_Penalty_Neutral>
4.35135e-05

> <r_epik_State_Penalty>
2.14502

> <r_epik_Charging_Adjusted_Penalty>
3.27912

> <i_epik_Tot_Q>
1

> <i_epik_Tot_abs_Q>
1

> <r_epik_Metal_State_Penalty>
2.23434

> <b_epik_Metal_Only>
0

> <s_lp_Force_Field>
OPLS_2005

> <r_lp_Energy>
34.1821

> <b_lp_Chiralities_Consistent>
1

> <s_lp_Variant>
AV-unprocessed.smi:2506-2

> <Gold.Version>
5.8.1

> <Gold.Id.Protein>
6NUR|6NUR_protein|mol2

> <Gold.PLP.Fitness>
41.6519

> <Gold.PLP.PLP>
-29.8177

> <Gold.PLP.part.hbond>
-4.7661

> <Gold.PLP.part.metal>
0.0000

> <Gold.PLP.part.buried>
-2.2022

> <Gold.PLP.part.nonpolar>
-26.4499

> <Gold.PLP.part.repulsive>
3.3848

> <Gold.PLP.ligand.clash>
0.0000

> <Gold.PLP.ligand.torsion>
0.3826

> <Gold.PLP.Chemscore.Hbond>
4.1948

> <Gold.PLP.Chemscore.CHOScore>
0.0000

> <Gold.PLP.Chemscore.Metal>
0.0000

> <Gold.Chemscore.Hbonds>
donor molecule, donor type, donor heavy atom, donor atom, acceptor molecule, acceptor atom, score
      L1  H     4    39       P1  8028  1.86
      L1  H     8    24       P1  7948  0.99
      L1  H    11    25       P1  7948  1.00
      P1  H  7989  7998       L1     3  0.20

> <Gold.PLP.Chemscore.Internal.Correction>
0.0149

> <Gold.Rescore>
     Score         DG    S(hbond)    S(metal)    S(lipo)     H(rot)  DE(clash)    DE(int)     intcor
     18.06     -20.89       2.97        0.00      73.78       1.22       1.46       1.38       ----

> <Gold.Chemscore.Fitness>
18.0557

> <Gold.Chemscore.DG>
-20.8941

> <Gold.Chemscore.ZeroCoef>
-5.4800

> <Gold.Chemscore.Hbond>
2.9660

> <Gold.Chemscore.Metal>
0.0000

> <Gold.Chemscore.Lipo>
73.7822

> <Gold.Chemscore.Internal_Hbond>
0.0000

> <Gold.Chemscore.DEClash>
1.4561

> <Gold.Chemscore.DEInternal>
1.3823

> <Gold.Chemscore.Rot>
1.2207

> <Gold.Chemscore.Internal.Correction>
   9.000000E+99

> <Gold.Chemscore.Hbonds>
donor molecule, donor type, donor heavy atom, donor atom, acceptor molecule, acceptor atom, score
      L1  H     4    39       P1  8028  0.84
      L1  H     8    24       P1  7948  0.93
      L1  H    11    25       P1  7948  0.98
      P1  H  7989  7998       L1     3  0.02

> <Gold.Chemscore.Hbond.Weighted>
-9.9065

> <Gold.Chemscore.Metal.Weighted>
-0.0000

> <Gold.Chemscore.Lipo.Weighted>
-8.6325

> <Gold.Chemscore.Internal_Hbond.Weighted>
0.0000

> <Gold.Chemscore.DEClash.Weighted>
1.4561

> <Gold.Chemscore.DEInternal.Weighted>
1.3823

> <Gold.Chemscore.Rot.Weighted>
3.1250

> <Gold.Chemscore.Internal.Correction.Weighted>
   9.000000E+99

> <Gold.Protein.RotatedTorsions>
[ 6907 6896 6895 6894 ] final -154.33 input  -60.11 | X-H torsion
[ 7974 7965 7964 7962 ] final  -31.82 input  175.53 | X-H torsion
[ 8008 7997 7996 7995 ] final  174.05 input   59.86 | X-H torsion
[ 10167 10162 10161 10158 ] final  159.62 input  -65.29 | X-H torsion
[ 10718 10713 10712 10709 ] final  174.42 input   66.30 | X-H torsion
[ 10763 10752 10751 10750 ] final  -12.92 input  -60.55 | X-H torsion
[ 11005 11000 10999 10996 ] final  -73.90 input  -57.11 | X-H torsion

> <Gold.Protein.ActiveResidues>
 VAL166  LYS551  ARG553  GLY616  TRP617  ASP618  TYR619  PRO620  LYS621  CYS622 
 ASP623  PHE694  ASN695  SER759  ASP760  ASP761  ALA762  ILE779  LEU786  VAL792 
 PHE793  MET794  SER795  GLU796  ALA797  LYS798  CYS799  TRP800  GLU811  SER814 

> <Gold.Protein.RotatedAtoms>
  151.2559  133.4326  159.2613 H   0  0  0  0  0  0  0  0  0  0  0  0  # atno 6907 bound_to 6896
  151.0574  134.9714  159.8253 H   0  0  0  0  0  0  0  0  0  0  0  0  # atno 6908 bound_to 6896
  152.5393  134.2511  159.8952 H   0  0  0  0  0  0  0  0  0  0  0  0  # atno 6909 bound_to 6896
  146.1038  140.5714  142.8809 H   0  0  0  0  0  0  0  0  0  0  0  0  # atno 7974 bound_to 7965
  156.1013  140.1444  156.9463 H   0  0  0  0  0  0  0  0  0  0  0  0  # atno 8008 bound_to 7997
  154.4704  140.0911  156.7176 H   0  0  0  0  0  0  0  0  0  0  0  0  # atno 8009 bound_to 7997
  155.4755  140.3443  155.4334 H   0  0  0  0  0  0  0  0  0  0  0  0  # atno 8010 bound_to 7997
  139.4833  144.4713  151.8572 H   0  0  0  0  0  0  0  0  0  0  0  0  # atno 10167 bound_to 10162
  156.9498  131.0027  151.2951 H   0  0  0  0  0  0  0  0  0  0  0  0  # atno 10718 bound_to 10713
  153.5055  135.7017  153.5808 H   0  0  0  0  0  0  0  0  0  0  0  0  # atno 10763 bound_to 10752
  153.3921  135.3893  155.1930 H   0  0  0  0  0  0  0  0  0  0  0  0  # atno 10764 bound_to 10752
  154.8707  135.3861  154.4530 H   0  0  0  0  0  0  0  0  0  0  0  0  # atno 10765 bound_to 10752
  141.1628  133.6893  156.7282 H   0  0  0  0  0  0  0  0  0  0  0  0  # atno 11005 bound_to 11000
  144.7454  140.5054  143.6839 LP  0  0  0  0  0  0  0  0  0  0  0  0  # atno 17320 bound_to 7965
  145.5801  139.1488  143.3240 LP  0  0  0  0  0  0  0  0  0  0  0  0  # atno 17321 bound_to 7965
  140.4182  144.2279  150.5887 LP  0  0  0  0  0  0  0  0  0  0  0  0  # atno 17342 bound_to 10162
  140.4900  143.2350  151.8832 LP  0  0  0  0  0  0  0  0  0  0  0  0  # atno 17343 bound_to 10162
  157.5729  130.8323  149.8416 LP  0  0  0  0  0  0  0  0  0  0  0  0  # atno 17370 bound_to 10713
  156.0367  130.3749  150.1540 LP  0  0  0  0  0  0  0  0  0  0  0  0  # atno 17371 bound_to 10713
  140.2765  134.8351  157.3894 LP  0  0  0  0  0  0  0  0  0  0  0  0  # atno 17394 bound_to 11000
  140.1473  134.4895  155.7987 LP  0  0  0  0  0  0  0  0  0  0  0  0  # atno 17395 bound_to 11000

$$$$
