AV-unprocessed.smi:221|AV-procd|sdf|1692|dock8
  -GOLD-   2262020133D 1   1.00000     0.00000
 Structure written by MMmdl.
 50 53  0  0  0  0  0  0  0  0  1 V2000
  141.6861  134.8840  154.1232 N   0  0  0  0  0  0  0  0  0  0  0  0
  142.0434  135.7244  153.1473 C   0  0  0  0  0  0  0  0  0  0  0  0
  141.5684  136.8554  153.0633 O   0  0  0  0  0  0  0  0  0  0  0  0
  143.0869  135.2307  152.1230 C   0  0  2  0  0  0  0  0  0  0  0  0
  143.6925  133.8515  152.4155 C   0  0  0  0  0  0  0  0  0  0  0  0
  144.9124  133.8081  151.4925 C   0  0  2  0  0  0  0  0  0  0  0  0
  145.9508  133.2338  152.0998 F   0  0  0  0  0  0  0  0  0  0  0  0
  145.2018  135.2747  151.1282 C   0  0  0  0  0  0  0  0  0  0  0  0
  144.2430  136.0995  151.8611 N   0  0  0  0  0  0  0  0  0  0  0  0
  144.8162  136.7685  152.8946 C   0  0  0  0  0  0  0  0  0  0  0  0
  144.4708  136.4966  154.1814 N   0  0  0  0  0  0  0  0  0  0  0  0
  145.0484  137.1642  155.1849 C   0  0  0  0  0  0  0  0  0  0  0  0
  145.9797  138.1193  155.1255 N   0  0  0  0  0  0  0  0  0  0  0  0
  146.3299  138.3881  153.8352 C   0  0  0  0  0  0  0  0  0  0  0  0
  145.8024  137.7639  152.6712 C   0  0  0  0  0  0  0  0  0  0  0  0
  146.3939  138.2956  151.5326 N   0  0  0  0  0  0  0  0  0  0  0  0
  147.2294  139.1843  151.9980 C   0  0  0  0  0  0  0  0  0  0  0  0
  147.2586  139.3009  153.3698 N   0  0  0  0  0  0  0  0  0  0  0  0
  148.0892  140.2006  154.1503 C   0  0  0  0  0  0  0  0  0  0  0  0
  148.7839  139.5100  155.3506 C   0  0  1  0  0  0  0  0  0  0  0  0
  149.8360  138.4621  154.9138 C   0  0  0  0  0  0  0  0  0  0  0  0
  150.7336  138.9965  153.9625 O   0  0  0  0  0  0  0  0  0  0  0  0
  149.3607  140.5517  156.3421 C   0  0  2  0  0  0  0  0  0  0  0  0
  150.4538  141.4424  155.7787 C   0  0  0  0  0  0  0  0  0  0  0  0
  151.1112  141.9816  157.0440 C   0  0  0  0  0  0  0  0  0  0  0  0
  151.0044  140.9376  158.0045 O   0  0  0  0  0  0  0  0  0  0  0  0
  150.0893  139.9466  157.5471 C   0  0  0  0  0  0  0  0  0  0  0  0
  142.5487  135.1625  151.1761 H   0  0  0  0  0  0  0  0  0  0  0  0
  144.7035  133.2270  150.5939 H   0  0  0  0  0  0  0  0  0  0  0  0
  141.0047  135.1738  154.8096 H   0  0  0  0  0  0  0  0  0  0  0  0
  142.0969  133.9627  154.1701 H   0  0  0  0  0  0  0  0  0  0  0  0
  144.0007  133.7737  153.4592 H   0  0  0  0  0  0  0  0  0  0  0  0
  142.9954  133.0371  152.2160 H   0  0  0  0  0  0  0  0  0  0  0  0
  146.2407  135.5418  151.3349 H   0  0  0  0  0  0  0  0  0  0  0  0
  145.0450  135.4355  150.0610 H   0  0  0  0  0  0  0  0  0  0  0  0
  144.7177  136.8938  156.1768 H   0  0  0  0  0  0  0  0  0  0  0  0
  147.8576  139.7785  151.3499 H   0  0  0  0  0  0  0  0  0  0  0  0
  148.8348  140.6418  153.4876 H   0  0  0  0  0  0  0  0  0  0  0  0
  147.4579  141.0211  154.4920 H   0  0  0  0  0  0  0  0  0  0  0  0
  148.0113  138.9552  155.8852 H   0  0  0  0  0  0  0  0  0  0  0  0
  150.4062  138.1032  155.7701 H   0  0  0  0  0  0  0  0  0  0  0  0
  149.3569  137.5807  154.4872 H   0  0  0  0  0  0  0  0  0  0  0  0
  150.3900  138.8280  153.0983 H   0  0  0  0  0  0  0  0  0  0  0  0
  148.5555  141.1894  156.7114 H   0  0  0  0  0  0  0  0  0  0  0  0
  151.1711  140.8528  155.2060 H   0  0  0  0  0  0  0  0  0  0  0  0
  150.0742  142.2385  155.1376 H   0  0  0  0  0  0  0  0  0  0  0  0
  152.1491  142.2739  156.8840 H   0  0  0  0  0  0  0  0  0  0  0  0
  150.5665  142.8510  157.4140 H   0  0  0  0  0  0  0  0  0  0  0  0
  149.4047  139.6505  158.3421 H   0  0  0  0  0  0  0  0  0  0  0  0
  150.6625  139.0665  157.2517 H   0  0  0  0  0  0  0  0  0  0  0  0
  1  2  1  0  0  0  0
  1 30  1  0  0  0  0
  1 31  1  0  0  0  0
  2  3  2  0  0  0  0
  2  4  1  0  0  0  0
  4 28  1  0  0  0  0
  4  9  1  0  0  0  0
  4  5  1  0  0  0  0
  5  6  1  0  0  0  0
  5 32  1  0  0  0  0
  5 33  1  0  0  0  0
  6 29  1  0  0  0  0
  6  7  1  0  0  0  0
  6  8  1  0  0  0  0
  8  9  1  0  0  0  0
  8 34  1  0  0  0  0
  8 35  1  0  0  0  0
  9 10  1  0  0  0  0
 10 15  1  0  0  0  0
 10 11  2  0  0  0  0
 11 12  1  0  0  0  0
 12 13  2  0  0  0  0
 12 36  1  0  0  0  0
 13 14  1  0  0  0  0
 14 18  1  0  0  0  0
 14 15  2  0  0  0  0
 15 16  1  0  0  0  0
 16 17  2  0  0  0  0
 17 18  1  0  0  0  0
 17 37  1  0  0  0  0
 18 19  1  0  0  0  0
 19 20  1  0  0  0  0
 19 38  1  0  0  0  0
 19 39  1  0  0  0  0
 20 21  1  0  0  0  0
 20 23  1  0  0  0  0
 20 40  1  0  0  0  0
 21 22  1  0  0  0  0
 21 41  1  0  0  0  0
 21 42  1  0  0  0  0
 22 43  1  0  0  0  0
 23 27  1  0  0  0  0
 23 24  1  0  0  0  0
 23 44  1  0  0  0  0
 24 25  1  0  0  0  0
 24 45  1  0  0  0  0
 24 46  1  0  0  0  0
 25 26  1  0  0  0  0
 25 47  1  0  0  0  0
 25 48  1  0  0  0  0
 26 27  1  0  0  0  0
 27 49  1  0  0  0  0
 27 50  1  0  0  0  0
M  END
> <s_m_source_file>
AV-unprocessed.smi

> <i_m_source_file_index>
221

> <i_lp_mmshare_version>
43012

> <i_f3d_flags>
0

> <s_epik_input>
W05IMl1DKD1PKVtDQEBIXTFbQ0gyXVtDQEBIXShGKVtDSDJdTjFjKG5bY0hdbjIpYyhjMjMpbltjSF1uM1tDSDJdW0NASF0oW0NIMl1bT0hdKVtDQEBIXTRbQ0gyXVtDSDJdT1tDSDJdNA==

> <s_epik_cmdline>
J2VwaWtfcHl0aG9uJywgJy1waCcsICc3LjAnLCAnLXRuJywgJzgnLCAnLW1hJywgJzIwMCcsICctbWV0YWxfYmluZGluZycsICctaW1hZScsICc8aW5maWxlLm1hZT4nLCAnLW9tYWUnLCAnPG91dGZpbGUubWFlPic=

> <r_lp_tautomer_probability>
1

> <r_epik_Ionization_Penalty>
0.000818822

> <r_epik_Ionization_Penalty_Charging>
0

> <r_epik_Ionization_Penalty_Neutral>
0.000818822

> <r_epik_State_Penalty>
0.000440551

> <r_epik_Charging_Adjusted_Penalty>
0.000440551

> <i_epik_Tot_Q>
0

> <i_epik_Tot_abs_Q>
0

> <r_epik_Metal_State_Penalty>
-0

> <b_epik_Metal_Only>
0

> <s_lp_Force_Field>
OPLS_2005

> <r_lp_Energy>
53.4739

> <b_lp_Chiralities_Consistent>
1

> <s_lp_Variant>
AV-unprocessed.smi:221-7

> <Gold.Version>
5.8.1

> <Gold.Id.Protein>
6NUR|6NUR_protein|mol2

> <Gold.PLP.Fitness>
47.8128

> <Gold.PLP.PLP>
-34.3997

> <Gold.PLP.part.hbond>
-4.0000

> <Gold.PLP.part.metal>
0.0000

> <Gold.PLP.part.buried>
-4.8431

> <Gold.PLP.part.nonpolar>
-28.6714

> <Gold.PLP.part.repulsive>
1.9349

> <Gold.PLP.ligand.clash>
0.0302

> <Gold.PLP.ligand.torsion>
0.5581

> <Gold.PLP.Chemscore.Hbond>
3.9280

> <Gold.PLP.Chemscore.CHOScore>
0.8686

> <Gold.PLP.Chemscore.Metal>
0.0000

> <Gold.Chemscore.Hbonds>
donor molecule, donor type, donor heavy atom, donor atom, acceptor molecule, acceptor atom, score
      L1  H     1    30       P1 11000  0.30
      L1  H     1    31       P1 10957  0.23
      L1  H    22    43       P1  7957  0.06
      P1  H  7989  7998       L1    22  0.60
      L1  C    17    37       P1  7957  0.26

> <Gold.PLP.Chemscore.Internal.Correction>
0.1696

> <Gold.Rescore>
     Score         DG    S(hbond)    S(metal)    S(lipo)     H(rot)  DE(clash)    DE(int)     intcor
     10.97     -14.49       3.44        0.00      60.33       3.72       1.28       2.24       ----

> <Gold.Chemscore.Fitness>
10.9732

> <Gold.Chemscore.DG>
-14.4895

> <Gold.Chemscore.ZeroCoef>
-5.4800

> <Gold.Chemscore.Hbond>
3.4356

> <Gold.Chemscore.Metal>
0.0000

> <Gold.Chemscore.Lipo>
60.3295

> <Gold.Chemscore.Internal_Hbond>
0.0000

> <Gold.Chemscore.DEClash>
1.2774

> <Gold.Chemscore.DEInternal>
2.2389

> <Gold.Chemscore.Rot>
3.7202

> <Gold.Chemscore.Internal.Correction>
   9.000000E+99

> <Gold.Chemscore.Hbonds>
donor molecule, donor type, donor heavy atom, donor atom, acceptor molecule, acceptor atom, score
      L1  H     1    30       P1 11000  0.07
      L1  H     1    31       P1 10957  0.25
      L1  H    22    43       P1  7957  0.05
      P1  H  7989  7998       L1    22  0.07

> <Gold.Chemscore.Hbond.Weighted>
-11.4747

> <Gold.Chemscore.Metal.Weighted>
-0.0000

> <Gold.Chemscore.Lipo.Weighted>
-7.0585

> <Gold.Chemscore.Internal_Hbond.Weighted>
0.0000

> <Gold.Chemscore.DEClash.Weighted>
1.2774

> <Gold.Chemscore.DEInternal.Weighted>
2.2389

> <Gold.Chemscore.Rot.Weighted>
9.5237

> <Gold.Chemscore.Internal.Correction.Weighted>
   9.000000E+99

> <Gold.Protein.RotatedTorsions>
[ 6907 6896 6895 6894 ] final   22.51 input  -60.11 | X-H torsion
[ 7974 7965 7964 7962 ] final   13.86 input  175.53 | X-H torsion
[ 8008 7997 7996 7995 ] final  174.35 input   59.86 | X-H torsion
[ 10167 10162 10161 10158 ] final  -55.82 input  -65.29 | X-H torsion
[ 10718 10713 10712 10709 ] final  161.50 input   66.30 | X-H torsion
[ 10763 10752 10751 10750 ] final  104.76 input  -60.55 | X-H torsion
[ 11005 11000 10999 10996 ] final  155.01 input  -57.11 | X-H torsion

> <Gold.Protein.ActiveResidues>
 VAL166  LYS551  ARG553  GLY616  TRP617  ASP618  TYR619  PRO620  LYS621  CYS622 
 ASP623  PHE694  ASN695  SER759  ASP760  ASP761  ALA762  ILE779  LEU786  VAL792 
 PHE793  MET794  SER795  GLU796  ALA797  LYS798  CYS799  TRP800  GLU811  SER814 

> <Gold.Protein.RotatedAtoms>
  151.9283  135.0268  160.0527 H   0  0  0  0  0  0  0  0  0  0  0  0  # atno 6907 bound_to 6896
  152.2141  133.4928  159.5134 H   0  0  0  0  0  0  0  0  0  0  0  0  # atno 6908 bound_to 6896
  150.6983  134.1346  159.4125 H   0  0  0  0  0  0  0  0  0  0  0  0  # atno 6909 bound_to 6896
  146.2319  139.9126  142.8522 H   0  0  0  0  0  0  0  0  0  0  0  0  # atno 7974 bound_to 7965
  156.0983  140.1437  156.9501 H   0  0  0  0  0  0  0  0  0  0  0  0  # atno 8008 bound_to 7997
  154.4686  140.0918  156.7131 H   0  0  0  0  0  0  0  0  0  0  0  0  # atno 8009 bound_to 7997
  155.4803  140.3445  155.4341 H   0  0  0  0  0  0  0  0  0  0  0  0  # atno 8010 bound_to 7997
  140.6353  143.2479  151.5135 H   0  0  0  0  0  0  0  0  0  0  0  0  # atno 10167 bound_to 10162
  157.1356  131.0527  151.2351 H   0  0  0  0  0  0  0  0  0  0  0  0  # atno 10718 bound_to 10713
  153.3702  135.3932  155.1783 H   0  0  0  0  0  0  0  0  0  0  0  0  # atno 10763 bound_to 10752
  154.8693  135.3700  154.4987 H   0  0  0  0  0  0  0  0  0  0  0  0  # atno 10764 bound_to 10752
  153.5454  135.7084  153.5677 H   0  0  0  0  0  0  0  0  0  0  0  0  # atno 10765 bound_to 10752
  140.1541  134.8654  157.2492 H   0  0  0  0  0  0  0  0  0  0  0  0  # atno 11005 bound_to 11000
  145.2214  140.9937  143.4043 LP  0  0  0  0  0  0  0  0  0  0  0  0  # atno 17320 bound_to 7965
  144.9607  139.3983  143.6357 LP  0  0  0  0  0  0  0  0  0  0  0  0  # atno 17321 bound_to 7965
  139.5564  144.2266  152.1619 LP  0  0  0  0  0  0  0  0  0  0  0  0  # atno 17342 bound_to 10162
  140.1521  144.5105  150.6681 LP  0  0  0  0  0  0  0  0  0  0  0  0  # atno 17343 bound_to 10162
  157.4353  130.7513  149.7024 LP  0  0  0  0  0  0  0  0  0  0  0  0  # atno 17370 bound_to 10713
  155.9799  130.4035  150.3561 LP  0  0  0  0  0  0  0  0  0  0  0  0  # atno 17371 bound_to 10713
  140.2568  134.3618  155.7421 LP  0  0  0  0  0  0  0  0  0  0  0  0  # atno 17394 bound_to 11000
  141.2202  133.7347  156.9020 LP  0  0  0  0  0  0  0  0  0  0  0  0  # atno 17395 bound_to 11000

$$$$
