AV-unprocessed.smi:305|AV-procd|sdf|2280|dock5
  -GOLD-   2262022173D 1   1.00000     0.00000
 Structure written by MMmdl.
 47 49  0  0  0  0  0  0  0  0  1 V2000
  143.3248  132.7607  158.0464 C   0  0  0  0  0  0  0  0  0  0  0  0
  144.7486  133.3157  158.1249 C   0  0  0  0  0  0  0  0  0  0  0  0
  145.0254  134.0435  156.9405 O   0  0  0  0  0  0  0  0  0  0  0  0
  146.3826  134.4411  156.8496 C   0  0  0  0  0  0  0  0  0  0  0  0
  146.5990  135.6716  157.7398 C   0  0  0  0  0  0  0  0  0  0  0  0
  148.0107  136.0229  157.8427 N   0  0  0  0  0  0  0  0  0  0  0  0
  148.7655  136.1447  158.9650 C   0  0  0  0  0  0  0  0  0  0  0  0
  148.2166  135.9344  160.2482 N   0  0  0  0  0  0  0  0  0  0  0  0
  148.3557  136.8741  161.2063 N   0  0  0  0  0  0  0  0  0  0  0  0
  147.7448  136.3736  162.2666 C   0  0  0  0  0  0  0  0  0  0  0  0
  147.6951  137.1765  163.5348 C   0  0  0  0  0  0  0  0  0  0  0  0
  147.2036  135.0784  162.0198 C   0  0  0  0  0  0  0  0  0  0  0  0
  146.4489  134.2001  162.9793 C   0  0  0  0  0  0  0  0  0  0  0  0
  147.5282  134.8293  160.7136 C   0  0  0  0  0  0  0  0  0  0  0  0
  147.2433  133.6401  159.8532 C   0  0  0  0  0  0  0  0  0  0  0  0
  150.0464  136.4594  158.7506 N   0  0  0  0  0  0  0  0  0  0  0  0
  150.1095  136.5610  157.3678 C   0  0  0  0  0  0  0  0  0  0  0  0
  148.8998  136.3045  156.8068 C   0  0  0  0  0  0  0  0  0  0  0  0
  148.6763  136.3430  155.3567 C   0  0  0  0  0  0  0  0  0  0  0  0
  147.5878  136.1156  154.8333 O   0  0  0  0  0  0  0  0  0  0  0  0
  149.7928  136.6588  154.6564 N   0  0  0  0  0  0  0  0  0  0  0  0
  151.0382  136.9293  155.1548 C   0  0  0  0  0  0  0  0  0  0  0  0
  151.9605  137.2066  154.3881 O   0  0  0  0  0  0  0  0  0  0  0  0
  151.2056  136.8788  156.5155 N   0  0  0  0  0  0  0  0  0  0  0  0
  152.5171  137.1589  157.1023 C   0  0  0  0  0  0  0  0  0  0  0  0
  149.6943  136.7009  153.6525 H   0  0  0  0  0  0  0  0  0  0  0  0
  143.0774  132.1951  158.9451 H   0  0  0  0  0  0  0  0  0  0  0  0
  143.2109  132.0954  157.1902 H   0  0  0  0  0  0  0  0  0  0  0  0
  142.5961  133.5653  157.9463 H   0  0  0  0  0  0  0  0  0  0  0  0
  144.8474  133.9644  158.9966 H   0  0  0  0  0  0  0  0  0  0  0  0
  145.4604  132.4970  158.2390 H   0  0  0  0  0  0  0  0  0  0  0  0
  147.0323  133.6245  157.1670 H   0  0  0  0  0  0  0  0  0  0  0  0
  146.6332  134.6742  155.8140 H   0  0  0  0  0  0  0  0  0  0  0  0
  146.0420  136.5227  157.3472 H   0  0  0  0  0  0  0  0  0  0  0  0
  146.2034  135.4961  158.7399 H   0  0  0  0  0  0  0  0  0  0  0  0
  146.6754  137.2415  163.9144 H   0  0  0  0  0  0  0  0  0  0  0  0
  148.0558  138.1948  163.3842 H   0  0  0  0  0  0  0  0  0  0  0  0
  148.3093  136.7179  164.3099 H   0  0  0  0  0  0  0  0  0  0  0  0
  146.7594  133.1578  162.9033 H   0  0  0  0  0  0  0  0  0  0  0  0
  145.3758  134.2310  162.7904 H   0  0  0  0  0  0  0  0  0  0  0  0
  146.6018  134.5013  164.0157 H   0  0  0  0  0  0  0  0  0  0  0  0
  146.5119  132.9816  160.3212 H   0  0  0  0  0  0  0  0  0  0  0  0
  148.1519  133.0637  159.6792 H   0  0  0  0  0  0  0  0  0  0  0  0
  146.8444  133.9445  158.8855 H   0  0  0  0  0  0  0  0  0  0  0  0
  153.2768  136.5016  156.6774 H   0  0  0  0  0  0  0  0  0  0  0  0
  152.5333  137.0137  158.1824 H   0  0  0  0  0  0  0  0  0  0  0  0
  152.8094  138.1911  156.9047 H   0  0  0  0  0  0  0  0  0  0  0  0
  1  2  1  0  0  0  0
  1 27  1  0  0  0  0
  1 28  1  0  0  0  0
  1 29  1  0  0  0  0
  2  3  1  0  0  0  0
  2 30  1  0  0  0  0
  2 31  1  0  0  0  0
  3  4  1  0  0  0  0
  4  5  1  0  0  0  0
  4 32  1  0  0  0  0
  4 33  1  0  0  0  0
  5  6  1  0  0  0  0
  5 34  1  0  0  0  0
  5 35  1  0  0  0  0
  6 18  1  0  0  0  0
  6  7  1  0  0  0  0
  7  8  1  0  0  0  0
  7 16  2  0  0  0  0
  8 14  1  0  0  0  0
  8  9  1  0  0  0  0
  9 10  2  0  0  0  0
 10 11  1  0  0  0  0
 10 12  1  0  0  0  0
 11 36  1  0  0  0  0
 11 37  1  0  0  0  0
 11 38  1  0  0  0  0
 12 13  1  0  0  0  0
 12 14  2  0  0  0  0
 13 39  1  0  0  0  0
 13 40  1  0  0  0  0
 13 41  1  0  0  0  0
 14 15  1  0  0  0  0
 15 42  1  0  0  0  0
 15 43  1  0  0  0  0
 15 44  1  0  0  0  0
 16 17  1  0  0  0  0
 17 24  1  0  0  0  0
 17 18  2  0  0  0  0
 18 19  1  0  0  0  0
 19 20  2  0  0  0  0
 19 21  1  0  0  0  0
 21 26  1  0  0  0  0
 21 22  1  0  0  0  0
 22 23  2  0  0  0  0
 22 24  1  0  0  0  0
 24 25  1  0  0  0  0
 25 45  1  0  0  0  0
 25 46  1  0  0  0  0
 25 47  1  0  0  0  0
M  END
> <s_m_source_file>
AV-unprocessed.smi

> <i_m_source_file_index>
305

> <i_lp_mmshare_version>
43012

> <i_f3d_flags>
0

> <s_epik_input>
W0NIM11uMWMoPU8pW25IXWMoPU8pYyhjMTIpbihbQ0gyXVtDSDJdT1tDSDJdW0NIM10pYyhuMiktbjNuYyhbQ0gzXSljKFtDSDNdKWMzW0NIM10=

> <s_epik_cmdline>
J2VwaWtfcHl0aG9uJywgJy1waCcsICc3LjAnLCAnLXRuJywgJzgnLCAnLW1hJywgJzIwMCcsICctbWV0YWxfYmluZGluZycsICctaW1hZScsICc8aW5maWxlLm1hZT4nLCAnLW9tYWUnLCAnPG91dGZpbGUubWFlPic=

> <r_lp_tautomer_probability>
1

> <r_epik_Ionization_Penalty>
0.00243297

> <r_epik_Ionization_Penalty_Charging>
0.000715499

> <r_epik_Ionization_Penalty_Neutral>
0.00171747

> <r_epik_State_Penalty>
-0

> <r_epik_Charging_Adjusted_Penalty>
0.000715499

> <i_epik_Tot_Q>
0

> <i_epik_Tot_abs_Q>
0

> <r_epik_Metal_State_Penalty>
0.258225

> <b_epik_Metal_Only>
0

> <s_lp_Force_Field>
OPLS_2005

> <r_lp_Energy>
25.4323

> <b_lp_Chiralities_Consistent>
1

> <s_lp_Variant>
AV-unprocessed.smi:305-1

> <Gold.Version>
5.8.1

> <Gold.Id.Protein>
6NUR|6NUR_protein|mol2

> <Gold.PLP.Fitness>
39.7774

> <Gold.PLP.PLP>
-29.6693

> <Gold.PLP.part.hbond>
-4.4599

> <Gold.PLP.part.metal>
0.0000

> <Gold.PLP.part.buried>
-2.4107

> <Gold.PLP.part.nonpolar>
-24.1943

> <Gold.PLP.part.repulsive>
0.3335

> <Gold.PLP.ligand.clash>
0.0000

> <Gold.PLP.ligand.torsion>
1.1062

> <Gold.PLP.Chemscore.Hbond>
3.9440

> <Gold.PLP.Chemscore.CHOScore>
0.0000

> <Gold.PLP.Chemscore.Metal>
0.0000

> <Gold.Chemscore.Hbonds>
donor molecule, donor type, donor heavy atom, donor atom, acceptor molecule, acceptor atom, score
      L1  H    21    26       P1  7948  1.00
      P1  H  6896  6907       L1    16  1.00
      P1  H  6931  6943       L1     9  1.00
      P1  H 10752 10763       L1    23  0.98

> <Gold.PLP.Chemscore.Internal.Correction>
0.4884

> <Gold.Rescore>
     Score         DG    S(hbond)    S(metal)    S(lipo)     H(rot)  DE(clash)    DE(int)     intcor
     14.63     -18.64       3.05        0.00      61.49       1.65       1.61       2.39       ----

> <Gold.Chemscore.Fitness>
14.6324

> <Gold.Chemscore.DG>
-18.6390

> <Gold.Chemscore.ZeroCoef>
-5.4800

> <Gold.Chemscore.Hbond>
3.0483

> <Gold.Chemscore.Metal>
0.0000

> <Gold.Chemscore.Lipo>
61.4892

> <Gold.Chemscore.Internal_Hbond>
0.0000

> <Gold.Chemscore.DEClash>
1.6131

> <Gold.Chemscore.DEInternal>
2.3935

> <Gold.Chemscore.Rot>
1.6471

> <Gold.Chemscore.Internal.Correction>
   9.000000E+99

> <Gold.Chemscore.Hbonds>
donor molecule, donor type, donor heavy atom, donor atom, acceptor molecule, acceptor atom, score
      L1  H    21    26       P1  7948  0.59
      P1  H  6896  6907       L1    16  0.32
      P1  H  6931  6943       L1     9  0.25
      P1  H  6934  6947       L1     9  0.01
      P1  H 10752 10763       L1    23  0.52

> <Gold.Chemscore.Hbond.Weighted>
-10.1815

> <Gold.Chemscore.Metal.Weighted>
-0.0000

> <Gold.Chemscore.Lipo.Weighted>
-7.1942

> <Gold.Chemscore.Internal_Hbond.Weighted>
0.0000

> <Gold.Chemscore.DEClash.Weighted>
1.6131

> <Gold.Chemscore.DEInternal.Weighted>
2.3935

> <Gold.Chemscore.Rot.Weighted>
4.2167

> <Gold.Chemscore.Internal.Correction.Weighted>
   9.000000E+99

> <Gold.Protein.RotatedTorsions>
[ 6907 6896 6895 6894 ] final  -35.46 input  -60.11 | X-H torsion
[ 7974 7965 7964 7962 ] final   45.42 input  175.53 | X-H torsion
[ 8008 7997 7996 7995 ] final   67.46 input   59.86 | X-H torsion
[ 10167 10162 10161 10158 ] final  120.38 input  -65.29 | X-H torsion
[ 10718 10713 10712 10709 ] final -156.04 input   66.30 | X-H torsion
[ 10763 10752 10751 10750 ] final   37.85 input  -60.55 | X-H torsion
[ 11005 11000 10999 10996 ] final -118.26 input  -57.11 | X-H torsion

> <Gold.Protein.ActiveResidues>
 VAL166  LYS551  ARG553  GLY616  TRP617  ASP618  TYR619  PRO620  LYS621  CYS622 
 ASP623  PHE694  ASN695  SER759  ASP760  ASP761  ALA762  ILE779  LEU786  VAL792 
 PHE793  MET794  SER795  GLU796  ALA797  LYS798  CYS799  TRP800  GLU811  SER814 

> <Gold.Protein.RotatedAtoms>
  151.0395  134.9597  159.8153 H   0  0  0  0  0  0  0  0  0  0  0  0  # atno 6907 bound_to 6896
  152.5361  134.2676  159.8969 H   0  0  0  0  0  0  0  0  0  0  0  0  # atno 6908 bound_to 6896
  151.2688  133.4223  159.2654 H   0  0  0  0  0  0  0  0  0  0  0  0  # atno 6909 bound_to 6896
  146.0482  139.4967  142.9735 H   0  0  0  0  0  0  0  0  0  0  0  0  # atno 7974 bound_to 7965
  155.6932  140.3496  155.4902 H   0  0  0  0  0  0  0  0  0  0  0  0  # atno 8008 bound_to 7997
  155.9506  140.1118  157.1002 H   0  0  0  0  0  0  0  0  0  0  0  0  # atno 8009 bound_to 7997
  154.4121  140.1195  156.5034 H   0  0  0  0  0  0  0  0  0  0  0  0  # atno 8010 bound_to 7997
  139.5985  144.7049  151.3118 H   0  0  0  0  0  0  0  0  0  0  0  0  # atno 10167 bound_to 10162
  156.5211  130.8478  151.2682 H   0  0  0  0  0  0  0  0  0  0  0  0  # atno 10718 bound_to 10713
  153.0022  135.6266  154.2211 H   0  0  0  0  0  0  0  0  0  0  0  0  # atno 10763 bound_to 10752
  154.1954  135.2806  155.3010 H   0  0  0  0  0  0  0  0  0  0  0  0  # atno 10764 bound_to 10752
  154.5726  135.5672  153.7169 H   0  0  0  0  0  0  0  0  0  0  0  0  # atno 10765 bound_to 10752
  141.0298  133.9998  157.3159 H   0  0  0  0  0  0  0  0  0  0  0  0  # atno 11005 bound_to 11000
  145.6770  141.0201  143.1627 LP  0  0  0  0  0  0  0  0  0  0  0  0  # atno 17320 bound_to 7965
  144.7109  139.8377  143.7415 LP  0  0  0  0  0  0  0  0  0  0  0  0  # atno 17321 bound_to 7965
  140.7231  143.7079  150.7792 LP  0  0  0  0  0  0  0  0  0  0  0  0  # atno 17342 bound_to 10162
  140.0651  143.5116  152.2608 LP  0  0  0  0  0  0  0  0  0  0  0  0  # atno 17343 bound_to 10162
  157.7436  130.9917  150.2610 LP  0  0  0  0  0  0  0  0  0  0  0  0  # atno 17370 bound_to 10713
  156.3149  130.3777  149.7628 LP  0  0  0  0  0  0  0  0  0  0  0  0  # atno 17371 bound_to 10713
  139.9200  135.0200  156.8029 LP  0  0  0  0  0  0  0  0  0  0  0  0  # atno 17394 bound_to 11000
  140.6426  133.9804  155.7715 LP  0  0  0  0  0  0  0  0  0  0  0  0  # atno 17395 bound_to 11000

$$$$
