AV-unprocessed.smi:2446|AV-procd|sdf|9641|dock1
  -GOLD-   2272013273D 1   1.00000     0.00000
 Structure written by MMmdl.
 39 40  0  0  0  0  0  0  0  0  1 V2000
  151.0841  145.1668  158.5296 C   0  0  0  0  0  0  0  0  0  0  0  0
  151.7184  143.8279  158.8652 C   0  0  0  0  0  0  0  0  0  0  0  0
  152.7395  143.7567  159.8371 C   0  0  0  0  0  0  0  0  0  0  0  0
  153.3501  142.6085  160.1949 N   0  0  0  0  0  0  0  0  0  0  0  0
  152.9537  141.4704  159.5895 C   0  0  0  0  0  0  0  0  0  0  0  0
  151.9461  141.4254  158.6062 C   0  0  0  0  0  0  0  0  0  0  0  0
  151.3164  142.6333  158.2198 C   0  0  0  0  0  0  0  0  0  0  0  0
  150.2778  142.7023  157.2492 N   0  0  0  0  0  0  0  0  0  0  0  0
  149.5914  141.7031  156.6607 C   0  0  0  0  0  0  0  0  0  0  0  0
  149.7435  140.5076  156.9014 O   0  0  0  0  0  0  0  0  0  0  0  0
  148.7007  142.1163  155.7405 N   0  0  0  0  0  0  0  0  0  0  0  0
  147.7931  141.3113  154.9151 C   0  0  2  0  0  0  0  0  0  0  0  0
  147.1072  142.2024  153.8623 C   0  0  0  0  0  0  0  0  0  0  0  0
  146.0774  143.1567  154.4901 C   0  0  0  0  0  0  0  0  0  0  0  0
  145.0410  142.3912  155.3269 C   0  0  0  0  0  0  0  0  0  0  0  0
  145.7124  141.5287  156.4160 C   0  0  1  0  0  0  0  0  0  0  0  0
  144.6774  140.7706  157.2726 C   0  0  0  0  0  0  0  0  0  0  0  0
  145.2791  140.0659  158.2313 F   0  0  0  0  0  0  0  0  0  0  0  0
  143.8338  141.6340  157.8380 F   0  0  0  0  0  0  0  0  0  0  0  0
  143.9707  139.9398  156.5062 F   0  0  0  0  0  0  0  0  0  0  0  0
  146.7426  140.5718  155.7747 C   0  0  0  0  0  0  0  0  0  0  0  0
  151.4935  145.9650  159.1494 H   0  0  0  0  0  0  0  0  0  0  0  0
  150.0069  145.1316  158.6952 H   0  0  0  0  0  0  0  0  0  0  0  0
  151.2662  145.4227  157.4856 H   0  0  0  0  0  0  0  0  0  0  0  0
  153.0774  144.6472  160.3465 H   0  0  0  0  0  0  0  0  0  0  0  0
  153.4503  140.5642  159.9032 H   0  0  0  0  0  0  0  0  0  0  0  0
  151.6731  140.4712  158.1835 H   0  0  0  0  0  0  0  0  0  0  0  0
  150.0838  143.6280  156.8970 H   0  0  0  0  0  0  0  0  0  0  0  0
  148.6418  143.1144  155.5991 H   0  0  0  0  0  0  0  0  0  0  0  0
  148.3854  140.5721  154.3732 H   0  0  0  0  0  0  0  0  0  0  0  0
  147.8523  142.7711  153.3047 H   0  0  0  0  0  0  0  0  0  0  0  0
  146.6031  141.5681  153.1320 H   0  0  0  0  0  0  0  0  0  0  0  0
  146.5857  143.8894  155.1179 H   0  0  0  0  0  0  0  0  0  0  0  0
  145.5733  143.7229  153.7064 H   0  0  0  0  0  0  0  0  0  0  0  0
  144.3509  143.1016  155.7829 H   0  0  0  0  0  0  0  0  0  0  0  0
  144.4415  141.7586  154.6711 H   0  0  0  0  0  0  0  0  0  0  0  0
  146.2513  142.2013  157.0850 H   0  0  0  0  0  0  0  0  0  0  0  0
  146.2182  139.8522  155.1447 H   0  0  0  0  0  0  0  0  0  0  0  0
  147.2360  139.9828  156.5476 H   0  0  0  0  0  0  0  0  0  0  0  0
  1  2  1  0  0  0  0
  1 22  1  0  0  0  0
  1 23  1  0  0  0  0
  1 24  1  0  0  0  0
  2  7  1  0  0  0  0
  2  3  2  0  0  0  0
  3  4  1  0  0  0  0
  3 25  1  0  0  0  0
  4  5  2  0  0  0  0
  5  6  1  0  0  0  0
  5 26  1  0  0  0  0
  6  7  2  0  0  0  0
  6 27  1  0  0  0  0
  7  8  1  0  0  0  0
  8  9  1  0  0  0  0
  8 28  1  0  0  0  0
  9 10  2  0  0  0  0
  9 11  1  0  0  0  0
 11 12  1  0  0  0  0
 11 29  1  0  0  0  0
 12 21  1  0  0  0  0
 12 13  1  0  0  0  0
 12 30  1  0  0  0  0
 13 14  1  0  0  0  0
 13 31  1  0  0  0  0
 13 32  1  0  0  0  0
 14 15  1  0  0  0  0
 14 33  1  0  0  0  0
 14 34  1  0  0  0  0
 15 16  1  0  0  0  0
 15 35  1  0  0  0  0
 15 36  1  0  0  0  0
 16 17  1  0  0  0  0
 16 21  1  0  0  0  0
 16 37  1  0  0  0  0
 17 18  1  0  0  0  0
 17 19  1  0  0  0  0
 17 20  1  0  0  0  0
 21 38  1  0  0  0  0
 21 39  1  0  0  0  0
M  END
> <s_m_source_file>
AV-unprocessed.smi

> <i_m_source_file_index>
2446

> <i_lp_mmshare_version>
43012

> <i_f3d_flags>
0

> <s_epik_input>
W0NIM11jMVtjSF1uW2NIXVtjSF1jMVtOSF1DKD1PKVtOSF1bQ0BASF0yW0NIMl1bQ0gyXVtDSDJdW0NAQEhdKEMoRikoRilGKVtDSDJdMg==

> <s_epik_cmdline>
J2VwaWtfcHl0aG9uJywgJy1waCcsICc3LjAnLCAnLXRuJywgJzgnLCAnLW1hJywgJzIwMCcsICctbWV0YWxfYmluZGluZycsICctaW1hZScsICc8aW5maWxlLm1hZT4nLCAnLW9tYWUnLCAnPG91dGZpbGUubWFlPic=

> <r_epik_Ionization_Penalty>
0.20168

> <r_epik_Ionization_Penalty_Charging>
0

> <r_epik_Ionization_Penalty_Neutral>
0.20168

> <r_epik_State_Penalty>
0.191514

> <r_epik_Charging_Adjusted_Penalty>
0.191514

> <i_epik_Tot_Q>
0

> <i_epik_Tot_abs_Q>
0

> <r_epik_Metal_State_Penalty>
0.142371

> <b_epik_Metal_Only>
0

> <s_lp_Force_Field>
OPLS_2005

> <r_lp_Energy>
25.5489

> <b_lp_Chiralities_Consistent>
1

> <s_lp_Variant>
AV-unprocessed.smi:2446-1

> <Gold.Version>
5.8.1

> <Gold.Id.Protein>
6NUR|6NUR_protein|mol2

> <Gold.PLP.Fitness>
39.9996

> <Gold.PLP.PLP>
-34.4154

> <Gold.PLP.part.hbond>
-2.0000

> <Gold.PLP.part.metal>
0.0000

> <Gold.PLP.part.buried>
-7.0226

> <Gold.PLP.part.nonpolar>
-26.3278

> <Gold.PLP.part.repulsive>
0.1696

> <Gold.PLP.ligand.clash>
0.0000

> <Gold.PLP.ligand.torsion>
0.0748

> <Gold.PLP.Chemscore.Hbond>
1.9040

> <Gold.PLP.Chemscore.CHOScore>
0.0000

> <Gold.PLP.Chemscore.Metal>
0.0000

> <Gold.Chemscore.Hbonds>
donor molecule, donor type, donor heavy atom, donor atom, acceptor molecule, acceptor atom, score
      L1  H     8    28       P1  8028  0.91
      L1  H    11    29       P1  8028  1.00

> <Gold.PLP.Chemscore.Internal.Correction>
0.0217

> <Gold.Rescore>
     Score         DG    S(hbond)    S(metal)    S(lipo)     H(rot)  DE(clash)    DE(int)     intcor
     18.49     -19.92       1.92        0.00      90.35       1.00       0.19       1.24       ----

> <Gold.Chemscore.Fitness>
18.4882

> <Gold.Chemscore.DG>
-19.9164

> <Gold.Chemscore.ZeroCoef>
-5.4800

> <Gold.Chemscore.Hbond>
1.9239

> <Gold.Chemscore.Metal>
0.0000

> <Gold.Chemscore.Lipo>
90.3464

> <Gold.Chemscore.Internal_Hbond>
0.0000

> <Gold.Chemscore.DEClash>
0.1865

> <Gold.Chemscore.DEInternal>
1.2416

> <Gold.Chemscore.Rot>
1.0000

> <Gold.Chemscore.Internal.Correction>
   9.000000E+99

> <Gold.Chemscore.Hbonds>
donor molecule, donor type, donor heavy atom, donor atom, acceptor molecule, acceptor atom, score
      L1  H     8    28       P1  8028  0.83
      L1  H    11    29       P1  8028  0.99

> <Gold.Chemscore.Hbond.Weighted>
-6.4258

> <Gold.Chemscore.Metal.Weighted>
-0.0000

> <Gold.Chemscore.Lipo.Weighted>
-10.5705

> <Gold.Chemscore.Internal_Hbond.Weighted>
0.0000

> <Gold.Chemscore.DEClash.Weighted>
0.1865

> <Gold.Chemscore.DEInternal.Weighted>
1.2416

> <Gold.Chemscore.Rot.Weighted>
2.5600

> <Gold.Chemscore.Internal.Correction.Weighted>
   9.000000E+99

> <Gold.Protein.RotatedTorsions>
[ 6907 6896 6895 6894 ] final  -26.00 input  -60.11 | X-H torsion
[ 7974 7965 7964 7962 ] final   29.47 input  175.53 | X-H torsion
[ 8008 7997 7996 7995 ] final -168.07 input   59.86 | X-H torsion
[ 10167 10162 10161 10158 ] final  147.55 input  -65.29 | X-H torsion
[ 10718 10713 10712 10709 ] final  -26.04 input   66.30 | X-H torsion
[ 10763 10752 10751 10750 ] final -146.42 input  -60.55 | X-H torsion
[ 11005 11000 10999 10996 ] final  -33.18 input  -57.11 | X-H torsion

> <Gold.Protein.ActiveResidues>
 VAL166  LYS551  ARG553  GLY616  TRP617  ASP618  TYR619  PRO620  LYS621  CYS622 
 ASP623  PHE694  ASN695  SER759  ASP760  ASP761  ALA762  ILE779  LEU786  VAL792 
 PHE793  MET794  SER795  GLU796  ALA797  LYS798  CYS799  TRP800  GLU811  SER814 

> <Gold.Protein.RotatedAtoms>
  151.1671  135.0300  159.8735 H   0  0  0  0  0  0  0  0  0  0  0  0  # atno 6907 bound_to 6896
  152.5450  134.1213  159.8410 H   0  0  0  0  0  0  0  0  0  0  0  0  # atno 6908 bound_to 6896
  151.1314  133.4988  159.2631 H   0  0  0  0  0  0  0  0  0  0  0  0  # atno 6909 bound_to 6896
  146.1669  139.6917  142.8994 H   0  0  0  0  0  0  0  0  0  0  0  0  # atno 7974 bound_to 7965
  155.8864  140.1017  157.1449 H   0  0  0  0  0  0  0  0  0  0  0  0  # atno 8008 bound_to 7997
  154.4010  140.1319  156.4325 H   0  0  0  0  0  0  0  0  0  0  0  0  # atno 8009 bound_to 7997
  155.7584  140.3463  155.5187 H   0  0  0  0  0  0  0  0  0  0  0  0  # atno 8010 bound_to 7997
  139.4888  144.5746  151.6989 H   0  0  0  0  0  0  0  0  0  0  0  0  # atno 10167 bound_to 10162
  156.4564  130.4495  149.6956 H   0  0  0  0  0  0  0  0  0  0  0  0  # atno 10718 bound_to 10713
  154.8337  135.3387  154.6659 H   0  0  0  0  0  0  0  0  0  0  0  0  # atno 10763 bound_to 10752
  153.7276  135.6954  153.5002 H   0  0  0  0  0  0  0  0  0  0  0  0  # atno 10764 bound_to 10752
  153.2336  135.4408  155.0574 H   0  0  0  0  0  0  0  0  0  0  0  0  # atno 10765 bound_to 10752
  140.9613  133.7163  156.1374 H   0  0  0  0  0  0  0  0  0  0  0  0  # atno 11005 bound_to 11000
  145.4443  141.0424  143.2840 LP  0  0  0  0  0  0  0  0  0  0  0  0  # atno 17320 bound_to 7965
  144.8106  139.5969  143.7031 LP  0  0  0  0  0  0  0  0  0  0  0  0  # atno 17321 bound_to 7965
  140.5340  144.0685  150.6064 LP  0  0  0  0  0  0  0  0  0  0  0  0  # atno 17342 bound_to 10162
  140.3684  143.2868  152.0305 LP  0  0  0  0  0  0  0  0  0  0  0  0  # atno 17343 bound_to 10162
  156.3762  130.7556  151.2544 LP  0  0  0  0  0  0  0  0  0  0  0  0  # atno 17370 bound_to 10713
  157.7500  131.0309  150.4157 LP  0  0  0  0  0  0  0  0  0  0  0  0  # atno 17371 bound_to 10713
  140.7463  134.4094  157.5548 LP  0  0  0  0  0  0  0  0  0  0  0  0  # atno 17394 bound_to 11000
  139.8879  134.8870  156.2503 LP  0  0  0  0  0  0  0  0  0  0  0  0  # atno 17395 bound_to 11000

$$$$
