AV-unprocessed.smi:919|AV-procd|sdf|4164|dock8
  -GOLD-   22720 2 73D 1   1.00000     0.00000
 Structure written by MMmdl.
 43 45  0  0  0  0  0  0  0  0  1 V2000
  147.0197  142.0764  154.0655 C   0  0  0  0  0  0  0  0  0  0  0  0
  148.2133  141.1819  154.2378 C   0  0  0  0  0  0  0  0  0  0  0  0
  149.4244  141.7126  154.2211 N   0  0  0  0  0  0  0  0  0  0  0  0
  150.3124  140.6497  154.4127 O   0  0  0  0  0  0  0  0  0  0  0  0
  149.5917  139.5067  154.5394 C   0  0  0  0  0  0  0  0  0  0  0  0
  150.3597  138.2471  154.7583 C   0  0  0  0  0  0  0  0  0  0  0  0
  148.2543  139.7712  154.4350 C   0  0  0  0  0  0  0  0  0  0  0  0
  147.1051  138.8037  154.5196 C   0  0  0  0  0  0  0  0  0  0  0  0
  146.3476  138.7178  153.1855 C   0  0  0  0  0  0  0  0  0  0  0  0
  146.6112  137.4593  152.4991 N   0  0  0  0  0  0  0  0  0  0  0  0
  145.6664  136.6199  152.0419 C   0  0  0  0  0  0  0  0  0  0  0  0
  144.4602  136.8243  152.1667 O   0  0  0  0  0  0  0  0  0  0  0  0
  146.1398  135.5256  151.4203 N   0  0  0  0  0  0  0  0  0  0  0  0
  145.3756  134.4313  150.8173 C   0  0  2  0  0  0  0  0  0  0  0  0
  144.3114  133.8334  151.7684 C   0  0  0  0  0  0  0  0  0  0  0  0
  144.7135  132.3490  151.8437 C   0  0  1  0  0  0  0  0  0  0  0  0
  144.4440  131.6710  150.4862 C   0  0  0  0  0  0  0  0  0  0  0  0
  145.5519  132.2537  149.5862 C   0  0  0  0  0  0  0  0  0  0  0  0
  146.2861  133.2150  150.5392 C   0  0  2  0  0  0  0  0  0  0  0  0
  146.2328  132.4415  151.8537 C   0  0  0  0  0  0  0  0  0  0  0  0
  146.0923  141.5049  154.0327 H   0  0  0  0  0  0  0  0  0  0  0  0
  147.0878  142.6486  153.1398 H   0  0  0  0  0  0  0  0  0  0  0  0
  146.9406  142.7849  154.8902 H   0  0  0  0  0  0  0  0  0  0  0  0
  149.9111  137.6557  155.5570 H   0  0  0  0  0  0  0  0  0  0  0  0
  151.3928  138.4583  155.0350 H   0  0  0  0  0  0  0  0  0  0  0  0
  150.3685  137.6398  153.8532 H   0  0  0  0  0  0  0  0  0  0  0  0
  147.4566  137.8108  154.8016 H   0  0  0  0  0  0  0  0  0  0  0  0
  146.4163  139.1038  155.3101 H   0  0  0  0  0  0  0  0  0  0  0  0
  145.2746  138.8355  153.3476 H   0  0  0  0  0  0  0  0  0  0  0  0
  146.6532  139.5335  152.5296 H   0  0  0  0  0  0  0  0  0  0  0  0
  147.5787  137.2126  152.3499 H   0  0  0  0  0  0  0  0  0  0  0  0
  147.1440  135.4525  151.3423 H   0  0  0  0  0  0  0  0  0  0  0  0
  144.9252  134.7826  149.8872 H   0  0  0  0  0  0  0  0  0  0  0  0
  144.3565  134.2880  152.7595 H   0  0  0  0  0  0  0  0  0  0  0  0
  143.2974  133.9677  151.3901 H   0  0  0  0  0  0  0  0  0  0  0  0
  144.2779  131.8208  152.6922 H   0  0  0  0  0  0  0  0  0  0  0  0
  144.5450  130.5877  150.5649 H   0  0  0  0  0  0  0  0  0  0  0  0
  143.4440  131.8875  150.1085 H   0  0  0  0  0  0  0  0  0  0  0  0
  146.2208  131.4631  149.2432 H   0  0  0  0  0  0  0  0  0  0  0  0
  145.1537  132.7588  148.7055 H   0  0  0  0  0  0  0  0  0  0  0  0
  147.2884  133.4772  150.1974 H   0  0  0  0  0  0  0  0  0  0  0  0
  146.6271  133.0005  152.7041 H   0  0  0  0  0  0  0  0  0  0  0  0
  146.7267  131.4693  151.8052 H   0  0  0  0  0  0  0  0  0  0  0  0
  1  2  1  0  0  0  0
  1 21  1  0  0  0  0
  1 22  1  0  0  0  0
  1 23  1  0  0  0  0
  2  7  1  0  0  0  0
  2  3  2  0  0  0  0
  3  4  1  0  0  0  0
  4  5  1  0  0  0  0
  5  6  1  0  0  0  0
  5  7  2  0  0  0  0
  6 24  1  0  0  0  0
  6 25  1  0  0  0  0
  6 26  1  0  0  0  0
  7  8  1  0  0  0  0
  8  9  1  0  0  0  0
  8 27  1  0  0  0  0
  8 28  1  0  0  0  0
  9 10  1  0  0  0  0
  9 29  1  0  0  0  0
  9 30  1  0  0  0  0
 10 11  1  0  0  0  0
 10 31  1  0  0  0  0
 11 12  2  0  0  0  0
 11 13  1  0  0  0  0
 13 14  1  0  0  0  0
 13 32  1  0  0  0  0
 14 19  1  0  0  0  0
 14 15  1  0  0  0  0
 14 33  1  0  0  0  0
 15 16  1  0  0  0  0
 15 34  1  0  0  0  0
 15 35  1  0  0  0  0
 16 20  1  0  0  0  0
 16 17  1  0  0  0  0
 16 36  1  0  0  0  0
 17 18  1  0  0  0  0
 17 37  1  0  0  0  0
 17 38  1  0  0  0  0
 18 19  1  0  0  0  0
 18 39  1  0  0  0  0
 18 40  1  0  0  0  0
 19 20  1  0  0  0  0
 19 41  1  0  0  0  0
 20 42  1  0  0  0  0
 20 43  1  0  0  0  0
M  END
> <s_m_source_file>
AV-unprocessed.smi

> <i_m_source_file_index>
919

> <i_lp_mmshare_version>
43012

> <i_f3d_flags>
0

> <s_epik_input>
W0NIM11jMW5vYyhbQ0gzXSljMVtDSDJdW0NIMl1bTkhdQyg9TylbTkhdW0NASF0oW0NIMl1bQ0BASF0yMylbQ0BASF0oW0NIMl0zKVtDSDJdW0NIMl0y

> <s_epik_cmdline>
J2VwaWtfcHl0aG9uJywgJy1waCcsICc3LjAnLCAnLXRuJywgJzgnLCAnLW1hJywgJzIwMCcsICctbWV0YWxfYmluZGluZycsICctaW1hZScsICc8aW5maWxlLm1hZT4nLCAnLW9tYWUnLCAnPG91dGZpbGUubWFlPic=

> <r_lp_tautomer_probability>
1

> <r_epik_Ionization_Penalty>
6.40771e-05

> <r_epik_Ionization_Penalty_Charging>
0

> <r_epik_Ionization_Penalty_Neutral>
6.40771e-05

> <r_epik_State_Penalty>
-0

> <r_epik_Charging_Adjusted_Penalty>
0

> <i_epik_Tot_Q>
0

> <i_epik_Tot_abs_Q>
0

> <r_epik_Metal_State_Penalty>
-0

> <b_epik_Metal_Only>
0

> <s_lp_Force_Field>
OPLS_2005

> <r_lp_Energy>
47.5349

> <b_lp_Chiralities_Consistent>
1

> <s_lp_Variant>
AV-unprocessed.smi:919-1

> <Gold.Version>
5.8.1

> <Gold.Id.Protein>
6NUR|6NUR_protein|mol2

> <Gold.PLP.Fitness>
48.0500

> <Gold.PLP.PLP>
-38.9013

> <Gold.PLP.part.hbond>
-4.6519

> <Gold.PLP.part.metal>
0.0000

> <Gold.PLP.part.buried>
-4.7579

> <Gold.PLP.part.nonpolar>
-30.1400

> <Gold.PLP.part.repulsive>
1.2590

> <Gold.PLP.ligand.clash>
0.0000

> <Gold.PLP.ligand.torsion>
0.5163

> <Gold.PLP.Chemscore.Hbond>
3.3840

> <Gold.PLP.Chemscore.CHOScore>
0.0000

> <Gold.PLP.Chemscore.Metal>
0.0000

> <Gold.Chemscore.Hbonds>
donor molecule, donor type, donor heavy atom, donor atom, acceptor molecule, acceptor atom, score
      L1  H    10    31       P1  7948  1.00
      L1  H    13    32       P1  7948  0.96
      P1  H  7989  7998       L1     4  0.85
      P1  H  8011  8017       L1     3  0.50

> <Gold.PLP.Chemscore.Internal.Correction>
0.0293

> <Gold.Rescore>
     Score         DG    S(hbond)    S(metal)    S(lipo)     H(rot)  DE(clash)    DE(int)     intcor
     20.34     -21.14       2.60        0.00      92.90       1.52       0.39       0.40       ----

> <Gold.Chemscore.Fitness>
20.3443

> <Gold.Chemscore.DG>
-21.1378

> <Gold.Chemscore.ZeroCoef>
-5.4800

> <Gold.Chemscore.Hbond>
2.5958

> <Gold.Chemscore.Metal>
0.0000

> <Gold.Chemscore.Lipo>
92.8989

> <Gold.Chemscore.Internal_Hbond>
0.0000

> <Gold.Chemscore.DEClash>
0.3902

> <Gold.Chemscore.DEInternal>
0.4033

> <Gold.Chemscore.Rot>
1.5161

> <Gold.Chemscore.Internal.Correction>
   9.000000E+99

> <Gold.Chemscore.Hbonds>
donor molecule, donor type, donor heavy atom, donor atom, acceptor molecule, acceptor atom, score
      L1  H    10    31       P1  7948  0.99
      L1  H    13    32       P1  7948  0.83
      P1  H  7989  7998       L1     4  0.54
      P1  H  8011  8017       L1     3  0.18

> <Gold.Chemscore.Hbond.Weighted>
-8.6699

> <Gold.Chemscore.Metal.Weighted>
-0.0000

> <Gold.Chemscore.Lipo.Weighted>
-10.8692

> <Gold.Chemscore.Internal_Hbond.Weighted>
0.0000

> <Gold.Chemscore.DEClash.Weighted>
0.3902

> <Gold.Chemscore.DEInternal.Weighted>
0.4033

> <Gold.Chemscore.Rot.Weighted>
3.8813

> <Gold.Chemscore.Internal.Correction.Weighted>
   9.000000E+99

> <Gold.Protein.RotatedTorsions>
[ 6907 6896 6895 6894 ] final  -81.28 input  -60.11 | X-H torsion
[ 7974 7965 7964 7962 ] final  150.89 input  175.53 | X-H torsion
[ 8008 7997 7996 7995 ] final -146.72 input   59.86 | X-H torsion
[ 10167 10162 10161 10158 ] final   11.77 input  -65.29 | X-H torsion
[ 10718 10713 10712 10709 ] final   34.98 input   66.30 | X-H torsion
[ 10763 10752 10751 10750 ] final  105.79 input  -60.55 | X-H torsion
[ 11005 11000 10999 10996 ] final   46.53 input  -57.11 | X-H torsion

> <Gold.Protein.ActiveResidues>
 VAL166  LYS551  ARG553  GLY616  TRP617  ASP618  TYR619  PRO620  LYS621  CYS622 
 ASP623  PHE694  ASN695  SER759  ASP760  ASP761  ALA762  ILE779  LEU786  VAL792 
 PHE793  MET794  SER795  GLU796  ALA797  LYS798  CYS799  TRP800  GLU811  SER814 

> <Gold.Protein.RotatedAtoms>
  150.6914  134.3841  159.5046 H   0  0  0  0  0  0  0  0  0  0  0  0  # atno 6907 bound_to 6896
  152.1639  134.8887  160.0548 H   0  0  0  0  0  0  0  0  0  0  0  0  # atno 6908 bound_to 6896
  151.9938  133.3766  159.4192 H   0  0  0  0  0  0  0  0  0  0  0  0  # atno 6909 bound_to 6896
  144.8331  139.6467  143.6050 H   0  0  0  0  0  0  0  0  0  0  0  0  # atno 7974 bound_to 7965
  155.5639  140.0628  157.2822 H   0  0  0  0  0  0  0  0  0  0  0  0  # atno 8008 bound_to 7997
  154.4381  140.1881  156.0856 H   0  0  0  0  0  0  0  0  0  0  0  0  # atno 8009 bound_to 7997
  156.0426  140.3294  155.7264 H   0  0  0  0  0  0  0  0  0  0  0  0  # atno 8010 bound_to 7997
  140.6111  143.8406  150.7066 H   0  0  0  0  0  0  0  0  0  0  0  0  # atno 10167 bound_to 10162
  157.3171  130.7429  149.6761 H   0  0  0  0  0  0  0  0  0  0  0  0  # atno 10718 bound_to 10713
  153.3841  135.3898  155.1877 H   0  0  0  0  0  0  0  0  0  0  0  0  # atno 10763 bound_to 10752
  154.8711  135.3732  154.4820 H   0  0  0  0  0  0  0  0  0  0  0  0  # atno 10764 bound_to 10752
  153.5300  135.7086  153.5749 H   0  0  0  0  0  0  0  0  0  0  0  0  # atno 10765 bound_to 10752
  140.1361  134.4643  155.8484 H   0  0  0  0  0  0  0  0  0  0  0  0  # atno 11005 bound_to 11000
  146.2633  139.6460  142.9347 LP  0  0  0  0  0  0  0  0  0  0  0  0  # atno 17320 bound_to 7965
  145.4852  141.0438  143.2624 LP  0  0  0  0  0  0  0  0  0  0  0  0  # atno 17321 bound_to 7965
  140.1974  143.3987  152.1817 LP  0  0  0  0  0  0  0  0  0  0  0  0  # atno 17342 bound_to 10162
  139.5362  144.7211  151.4886 LP  0  0  0  0  0  0  0  0  0  0  0  0  # atno 17343 bound_to 10162
  155.9682  130.4234  150.4561 LP  0  0  0  0  0  0  0  0  0  0  0  0  # atno 17370 bound_to 10713
  157.2570  131.0558  151.2344 LP  0  0  0  0  0  0  0  0  0  0  0  0  # atno 17371 bound_to 10713
  141.2178  133.6814  156.7160 LP  0  0  0  0  0  0  0  0  0  0  0  0  # atno 17394 bound_to 11000
  140.2781  134.8339  157.3908 LP  0  0  0  0  0  0  0  0  0  0  0  0  # atno 17395 bound_to 11000

$$$$
