AV-unprocessed.smi:644|AV-procd|sdf|3156|dock2
  -GOLD-   22720 0 83D 1   1.00000     0.00000
 Structure written by MMmdl.
 37 39  0  0  0  0  0  0  0  0  1 V2000
  152.2121  144.1927  159.8825 C   0  0  0  0  0  0  0  0  0  0  0  0
  152.0115  143.0228  158.9353 C   0  0  0  0  0  0  0  0  0  0  0  0
  151.1269  143.1672  157.8424 C   0  0  0  0  0  0  0  0  0  0  0  0
  150.9139  142.1041  156.9378 C   0  0  0  0  0  0  0  0  0  0  0  0
  150.1057  142.0253  155.8166 N   0  0  0  0  0  0  0  0  0  0  0  0
  150.3429  140.7842  155.4014 C   0  0  0  0  0  0  0  0  0  0  0  0
  151.2076  140.0474  156.1251 N   0  0  0  0  0  0  0  0  0  0  0  0
  151.6255  138.6808  155.8690 C   0  0  0  0  0  0  0  0  0  0  0  0
  151.0142  138.1085  154.5761 C   0  0  1  0  0  0  0  0  0  0  0  0
  151.8210  137.0472  154.1017 O   0  0  0  0  0  0  0  0  0  0  0  0
  149.5808  137.5997  154.7980 C   0  0  0  0  0  0  0  0  0  0  0  0
  149.4884  136.3738  156.1397 S   0  0  0  0  0  0  0  0  0  0  0  0
  149.2348  134.9025  155.1995 C   0  0  0  0  0  0  0  0  0  0  0  0
  148.1948  134.6746  154.3842 N   0  0  0  0  0  0  0  0  0  0  0  0
  148.2637  133.4289  153.7749 N   0  0  0  0  0  0  0  0  0  0  0  0
  149.3554  132.7601  154.1531 C   0  0  0  0  0  0  0  0  0  0  0  0
  150.4031  133.5894  155.2891 S   0  0  0  0  0  0  0  0  0  0  0  0
  151.6164  140.8835  157.1578 C   0  0  0  0  0  0  0  0  0  0  0  0
  152.4988  140.7273  158.2412 C   0  0  0  0  0  0  0  0  0  0  0  0
  152.6989  141.7989  159.1364 C   0  0  0  0  0  0  0  0  0  0  0  0
  153.6523  141.6197  160.3045 C   0  0  0  0  0  0  0  0  0  0  0  0
  151.6089  145.0519  159.5879 H   0  0  0  0  0  0  0  0  0  0  0  0
  153.2569  144.5037  159.8880 H   0  0  0  0  0  0  0  0  0  0  0  0
  151.9271  143.9170  160.8979 H   0  0  0  0  0  0  0  0  0  0  0  0
  150.6033  144.0992  157.6889 H   0  0  0  0  0  0  0  0  0  0  0  0
  149.8581  140.3862  154.5217 H   0  0  0  0  0  0  0  0  0  0  0  0
  152.7151  138.6499  155.8228 H   0  0  0  0  0  0  0  0  0  0  0  0
  151.3329  138.0725  156.7259 H   0  0  0  0  0  0  0  0  0  0  0  0
  150.9985  138.8874  153.8128 H   0  0  0  0  0  0  0  0  0  0  0  0
  151.5918  136.8762  153.2008 H   0  0  0  0  0  0  0  0  0  0  0  0
  148.9140  138.4338  155.0204 H   0  0  0  0  0  0  0  0  0  0  0  0
  149.2168  137.1302  153.8834 H   0  0  0  0  0  0  0  0  0  0  0  0
  149.5460  131.7727  153.7592 H   0  0  0  0  0  0  0  0  0  0  0  0
  153.0161  139.7898  158.3822 H   0  0  0  0  0  0  0  0  0  0  0  0
  154.0802  140.6168  160.3192 H   0  0  0  0  0  0  0  0  0  0  0  0
  153.1312  141.7737  161.2496 H   0  0  0  0  0  0  0  0  0  0  0  0
  154.4737  142.3336  160.2404 H   0  0  0  0  0  0  0  0  0  0  0  0
  1  2  1  0  0  0  0
  1 22  1  0  0  0  0
  1 23  1  0  0  0  0
  1 24  1  0  0  0  0
  2 20  1  0  0  0  0
  2  3  2  0  0  0  0
  3  4  1  0  0  0  0
  3 25  1  0  0  0  0
  4 18  2  0  0  0  0
  4  5  1  0  0  0  0
  5  6  2  0  0  0  0
  6  7  1  0  0  0  0
  6 26  1  0  0  0  0
  7  8  1  0  0  0  0
  7 18  1  0  0  0  0
  8  9  1  0  0  0  0
  8 27  1  0  0  0  0
  8 28  1  0  0  0  0
  9 10  1  0  0  0  0
  9 11  1  0  0  0  0
  9 29  1  0  0  0  0
 10 30  1  0  0  0  0
 11 12  1  0  0  0  0
 11 31  1  0  0  0  0
 11 32  1  0  0  0  0
 12 13  1  0  0  0  0
 13 17  1  0  0  0  0
 13 14  2  0  0  0  0
 14 15  1  0  0  0  0
 15 16  2  0  0  0  0
 16 17  1  0  0  0  0
 16 33  1  0  0  0  0
 18 19  1  0  0  0  0
 19 20  2  0  0  0  0
 19 34  1  0  0  0  0
 20 21  1  0  0  0  0
 21 35  1  0  0  0  0
 21 36  1  0  0  0  0
 21 37  1  0  0  0  0
M  END
> <s_m_source_file>
AV-unprocessed.smi

> <i_m_source_file_index>
644

> <i_lp_mmshare_version>
43012

> <i_f3d_flags>
0

> <s_epik_input>
W0NIM11jKFtjSF0xKWMoW0NIM10pW2NIXWMoYzEyKW4oW2NIXW4yKVtDSDJdW0NASF0oW09IXSlbQ0gyXVNjM25uW2NIXXMz

> <s_epik_cmdline>
J2VwaWtfcHl0aG9uJywgJy1waCcsICc3LjAnLCAnLXRuJywgJzgnLCAnLW1hJywgJzIwMCcsICctbWV0YWxfYmluZGluZycsICctaW1hZScsICc8aW5maWxlLm1hZT4nLCAnLW9tYWUnLCAnPG91dGZpbGUubWFlPic=

> <r_lp_tautomer_probability>
1

> <r_epik_Ionization_Penalty>
0.105397

> <r_epik_Ionization_Penalty_Charging>
0

> <r_epik_Ionization_Penalty_Neutral>
0.105397

> <r_epik_State_Penalty>
0.0952713

> <r_epik_Charging_Adjusted_Penalty>
0.0952713

> <i_epik_Tot_Q>
0

> <i_epik_Tot_abs_Q>
0

> <r_epik_Metal_State_Penalty>
0.0807681

> <b_epik_Metal_Only>
0

> <s_lp_Force_Field>
OPLS_2005

> <r_lp_Energy>
7.47595

> <b_lp_Chiralities_Consistent>
1

> <s_lp_Variant>
AV-unprocessed.smi:644-2

> <Gold.Version>
5.8.1

> <Gold.Id.Protein>
6NUR|6NUR_protein|mol2

> <Gold.PLP.Fitness>
46.5661

> <Gold.PLP.PLP>
-41.6609

> <Gold.PLP.part.hbond>
-2.0000

> <Gold.PLP.part.metal>
0.0000

> <Gold.PLP.part.buried>
-5.9914

> <Gold.PLP.part.nonpolar>
-36.0382

> <Gold.PLP.part.repulsive>
2.0301

> <Gold.PLP.ligand.clash>
0.0000

> <Gold.PLP.ligand.torsion>
0.5870

> <Gold.PLP.Chemscore.Hbond>
2.0000

> <Gold.PLP.Chemscore.CHOScore>
0.0000

> <Gold.PLP.Chemscore.Metal>
0.0000

> <Gold.Chemscore.Hbonds>
donor molecule, donor type, donor heavy atom, donor atom, acceptor molecule, acceptor atom, score
      L1  H    10    30       P1  7949  1.00
      P1  H 10752 10765       L1    10  1.00

> <Gold.PLP.Chemscore.Internal.Correction>
0.0791

> <Gold.Rescore>
     Score         DG    S(hbond)    S(metal)    S(lipo)     H(rot)  DE(clash)    DE(int)     intcor
     15.81     -16.90       1.43        0.00     110.62       2.46       0.45       0.64       ----

> <Gold.Chemscore.Fitness>
15.8092

> <Gold.Chemscore.DG>
-16.9027

> <Gold.Chemscore.ZeroCoef>
-5.4800

> <Gold.Chemscore.Hbond>
1.4296

> <Gold.Chemscore.Metal>
0.0000

> <Gold.Chemscore.Lipo>
110.6179

> <Gold.Chemscore.Internal_Hbond>
0.0000

> <Gold.Chemscore.DEClash>
0.4506

> <Gold.Chemscore.DEInternal>
0.6429

> <Gold.Chemscore.Rot>
2.4588

> <Gold.Chemscore.Internal.Correction>
   9.000000E+99

> <Gold.Chemscore.Hbonds>
donor molecule, donor type, donor heavy atom, donor atom, acceptor molecule, acceptor atom, score
      L1  H    10    30       P1  7949  0.93
      P1  H 10752 10765       L1    10  0.24

> <Gold.Chemscore.Hbond.Weighted>
-4.7750

> <Gold.Chemscore.Metal.Weighted>
-0.0000

> <Gold.Chemscore.Lipo.Weighted>
-12.9423

> <Gold.Chemscore.Internal_Hbond.Weighted>
0.0000

> <Gold.Chemscore.DEClash.Weighted>
0.4506

> <Gold.Chemscore.DEInternal.Weighted>
0.6429

> <Gold.Chemscore.Rot.Weighted>
6.2946

> <Gold.Chemscore.Internal.Correction.Weighted>
   9.000000E+99

> <Gold.Protein.RotatedTorsions>
[ 6907 6896 6895 6894 ] final -112.96 input  -60.11 | X-H torsion
[ 7974 7965 7964 7962 ] final  -49.35 input  175.53 | X-H torsion
[ 8008 7997 7996 7995 ] final -114.25 input   59.86 | X-H torsion
[ 10167 10162 10161 10158 ] final -111.83 input  -65.29 | X-H torsion
[ 10718 10713 10712 10709 ] final  -49.56 input   66.30 | X-H torsion
[ 10763 10752 10751 10750 ] final  170.92 input  -60.55 | X-H torsion
[ 11005 11000 10999 10996 ] final   35.58 input  -57.11 | X-H torsion

> <Gold.Protein.ActiveResidues>
 VAL166  LYS551  ARG553  GLY616  TRP617  ASP618  TYR619  PRO620  LYS621  CYS622 
 ASP623  PHE694  ASN695  SER759  ASP760  ASP761  ALA762  ILE779  LEU786  VAL792 
 PHE793  MET794  SER795  GLU796  ALA797  LYS798  CYS799  TRP800  GLU811  SER814 

> <Gold.Protein.RotatedAtoms>
  150.7795  133.9013  159.3341 H   0  0  0  0  0  0  0  0  0  0  0  0  # atno 6907 bound_to 6896
  151.6879  135.0949  160.0238 H   0  0  0  0  0  0  0  0  0  0  0  0  # atno 6908 bound_to 6896
  152.3842  133.6550  159.6221 H   0  0  0  0  0  0  0  0  0  0  0  0  # atno 6909 bound_to 6896
  145.9415  140.7657  142.9549 H   0  0  0  0  0  0  0  0  0  0  0  0  # atno 7974 bound_to 7965
  155.0334  140.0393  157.2482 H   0  0  0  0  0  0  0  0  0  0  0  0  # atno 8008 bound_to 7997
  154.7277  140.2724  155.6460 H   0  0  0  0  0  0  0  0  0  0  0  0  # atno 8009 bound_to 7997
  156.2833  140.2690  156.1968 H   0  0  0  0  0  0  0  0  0  0  0  0  # atno 8010 bound_to 7997
  140.1293  143.4374  152.1638 H   0  0  0  0  0  0  0  0  0  0  0  0  # atno 10167 bound_to 10162
  156.1882  130.4152  149.9409 H   0  0  0  0  0  0  0  0  0  0  0  0  # atno 10718 bound_to 10713
  154.4046  135.2755  155.2075 H   0  0  0  0  0  0  0  0  0  0  0  0  # atno 10763 bound_to 10752
  154.4087  135.6027  153.5943 H   0  0  0  0  0  0  0  0  0  0  0  0  # atno 10764 bound_to 10752
  152.9831  135.5944  154.4318 H   0  0  0  0  0  0  0  0  0  0  0  0  # atno 10765 bound_to 10752
  140.2412  134.3412  155.7925 H   0  0  0  0  0  0  0  0  0  0  0  0  # atno 11005 bound_to 11000
  144.6780  140.2288  143.7358 LP  0  0  0  0  0  0  0  0  0  0  0  0  # atno 17320 bound_to 7965
  145.8293  139.2078  143.1892 LP  0  0  0  0  0  0  0  0  0  0  0  0  # atno 17321 bound_to 7965
  139.5528  144.7350  151.4385 LP  0  0  0  0  0  0  0  0  0  0  0  0  # atno 17342 bound_to 10162
  140.6826  143.8047  150.7142 LP  0  0  0  0  0  0  0  0  0  0  0  0  # atno 17343 bound_to 10162
  156.7158  130.8987  151.3613 LP  0  0  0  0  0  0  0  0  0  0  0  0  # atno 17370 bound_to 10713
  157.6912  130.9236  150.0520 LP  0  0  0  0  0  0  0  0  0  0  0  0  # atno 17371 bound_to 10713
  141.2210  133.7300  156.8888 LP  0  0  0  0  0  0  0  0  0  0  0  0  # atno 17394 bound_to 11000
  140.1651  134.9138  157.2764 LP  0  0  0  0  0  0  0  0  0  0  0  0  # atno 17395 bound_to 11000

$$$$
