AV-unprocessed.smi:2875|AV-procd|sdf|11041|dock7
  -GOLD-   2272015503D 1   1.00000     0.00000
 Structure written by MMmdl.
 39 39  0  0  0  0  0  0  0  0  2 V2000
  152.2640  145.1556  159.4451 C   0  0  0  0  0  0  0  0  0  0  0  0
  152.4451  143.9575  158.5032 C   0  0  0  0  0  0  0  0  0  0  0  0
  152.0398  142.5996  159.1144 C   0  0  0  0  0  0  0  0  0  0  0  0
  151.4039  141.6930  158.1297 N   0  0  0  0  0  0  0  0  0  0  0  0
  150.1716  142.0629  157.5237 C   0  0  0  0  0  0  0  0  0  0  0  0
  149.5726  143.2620  157.8826 N   0  0  0  0  0  0  0  0  0  0  0  0
  149.5844  141.2378  156.6153 C   0  0  0  0  0  0  0  0  0  0  0  0
  148.3883  141.5843  155.9540 N   0  0  0  0  0  0  0  0  0  0  0  0
  147.1933  141.7933  156.7894 C   0  0  0  0  0  0  0  0  0  0  0  0
  146.9299  140.6045  157.7276 C   0  0  0  0  0  0  0  0  0  0  0  0
  146.1824  141.0488  158.8470 O   0  0  0  0  0  0  0  0  0  0  0  0
  144.9076  141.5488  158.4873 C   0  0  0  0  0  0  0  0  0  0  0  0
  148.3095  141.6690  154.5996 C   0  0  0  0  0  0  0  0  0  0  0  0
  147.0046  142.1399  153.9451 C   0  0  0  0  0  0  0  0  0  0  0  0
  149.2627  141.4109  153.8630 O   0  0  0  0  0  0  0  0  0  0  0  0
  150.2625  139.9855  156.2541 C   0  0  0  0  0  0  0  0  0  0  0  0
  149.7741  139.2371  155.4067 O   0  0  0  0  0  0  0  0  0  0  0  0
  151.4318  139.6952  156.8821 N   0  5  0  0  0  0  0  0  0  0  0  0
  152.0154  140.5125  157.8038 C   0  0  0  0  0  0  0  0  0  0  0  0
  153.0804  140.2152  158.3470 O   0  0  0  0  0  0  0  0  0  0  0  0
  152.6110  146.0743  158.9722 H   0  0  0  0  0  0  0  0  0  0  0  0
  152.8305  145.0218  160.3666 H   0  0  0  0  0  0  0  0  0  0  0  0
  151.2162  145.2991  159.7098 H   0  0  0  0  0  0  0  0  0  0  0  0
  151.8793  144.1351  157.5881 H   0  0  0  0  0  0  0  0  0  0  0  0
  153.4910  143.9050  158.1999 H   0  0  0  0  0  0  0  0  0  0  0  0
  152.9269  142.1224  159.5345 H   0  0  0  0  0  0  0  0  0  0  0  0
  151.4141  142.7678  159.9897 H   0  0  0  0  0  0  0  0  0  0  0  0
  149.9866  143.8821  158.5634 H   0  0  0  0  0  0  0  0  0  0  0  0
  148.6771  143.5397  157.5075 H   0  0  0  0  0  0  0  0  0  0  0  0
  147.3077  142.7064  157.3759 H   0  0  0  0  0  0  0  0  0  0  0  0
  146.3099  141.9584  156.1709 H   0  0  0  0  0  0  0  0  0  0  0  0
  146.4051  139.8046  157.2030 H   0  0  0  0  0  0  0  0  0  0  0  0
  147.8797  140.1950  158.0738 H   0  0  0  0  0  0  0  0  0  0  0  0
  144.3740  141.8677  159.3826 H   0  0  0  0  0  0  0  0  0  0  0  0
  144.3093  140.7837  157.9910 H   0  0  0  0  0  0  0  0  0  0  0  0
  144.9965  142.4103  157.8243 H   0  0  0  0  0  0  0  0  0  0  0  0
  146.6361  143.0538  154.4123 H   0  0  0  0  0  0  0  0  0  0  0  0
  146.2347  141.3721  154.0188 H   0  0  0  0  0  0  0  0  0  0  0  0
  147.1621  142.3508  152.8871 H   0  0  0  0  0  0  0  0  0  0  0  0
  1  2  1  0  0  0  0
  1 21  1  0  0  0  0
  1 22  1  0  0  0  0
  1 23  1  0  0  0  0
  2  3  1  0  0  0  0
  2 24  1  0  0  0  0
  2 25  1  0  0  0  0
  3  4  1  0  0  0  0
  3 26  1  0  0  0  0
  3 27  1  0  0  0  0
  4 19  1  0  0  0  0
  4  5  1  0  0  0  0
  5  6  1  0  0  0  0
  5  7  2  0  0  0  0
  6 28  1  0  0  0  0
  6 29  1  0  0  0  0
  7  8  1  0  0  0  0
  7 16  1  0  0  0  0
  8  9  1  0  0  0  0
  8 13  1  0  0  0  0
  9 10  1  0  0  0  0
  9 30  1  0  0  0  0
  9 31  1  0  0  0  0
 10 11  1  0  0  0  0
 10 32  1  0  0  0  0
 10 33  1  0  0  0  0
 11 12  1  0  0  0  0
 12 34  1  0  0  0  0
 12 35  1  0  0  0  0
 12 36  1  0  0  0  0
 13 14  1  0  0  0  0
 13 15  2  0  0  0  0
 14 37  1  0  0  0  0
 14 38  1  0  0  0  0
 14 39  1  0  0  0  0
 16 17  2  0  0  0  0
 16 18  1  0  0  0  0
 18 19  1  0  0  0  0
 19 20  2  0  0  0  0
M  CHG  1  18  -1
M  END
> <s_m_source_file>
AV-unprocessed.smi

> <i_m_source_file_index>
2875

> <i_lp_mmshare_version>
43012

> <i_f3d_flags>
0

> <s_epik_input>
W0NIM11bQ0gyXVtDSDJdbjFjKFtOSDJdKWMoYyg9TylbbkhdYzE9TylOKEMoPU8pW0NIM10pW0NIMl1bQ0gyXU9bQ0gzXQ==

> <s_epik_cmdline>
J2VwaWtfcHl0aG9uJywgJy1waCcsICc3LjAnLCAnLXRuJywgJzgnLCAnLW1hJywgJzIwMCcsICctbWV0YWxfYmluZGluZycsICctaW1hZScsICc8aW5maWxlLm1hZT4nLCAnLW9tYWUnLCAnPG91dGZpbGUubWFlPic=

> <r_lp_tautomer_probability>
1

> <r_epik_Ionization_Penalty>
7.11914

> <r_epik_Ionization_Penalty_Charging>
0.302695

> <r_epik_Ionization_Penalty_Neutral>
6.81644

> <r_epik_State_Penalty>
6.81644

> <r_epik_Charging_Adjusted_Penalty>
7.11913

> <i_epik_Tot_Q>
-1

> <i_epik_Tot_abs_Q>
1

> <r_epik_Metal_State_Penalty>
2.72963

> <b_epik_Metal_Only>
1

> <s_epik_Chemistry_Notes>
This compound has an imine and may undergo hydrolysis.

> <s_lp_Force_Field>
OPLS_2005

> <r_lp_Energy>
36.1064

> <b_lp_Chiralities_Consistent>
1

> <s_lp_Variant>
AV-unprocessed.smi:2875-2

> <Gold.Version>
5.8.1

> <Gold.Id.Protein>
6NUR|6NUR_protein|mol2

> <Gold.PLP.Fitness>
40.2578

> <Gold.PLP.PLP>
-34.0791

> <Gold.PLP.part.hbond>
-5.4653

> <Gold.PLP.part.metal>
0.0000

> <Gold.PLP.part.buried>
-4.4992

> <Gold.PLP.part.nonpolar>
-25.3123

> <Gold.PLP.part.repulsive>
1.1674

> <Gold.PLP.ligand.clash>
0.0000

> <Gold.PLP.ligand.torsion>
1.5374

> <Gold.PLP.Chemscore.Hbond>
2.3406

> <Gold.PLP.Chemscore.CHOScore>
0.0000

> <Gold.PLP.Chemscore.Metal>
0.0000

> <Gold.Chemscore.Hbonds>
donor molecule, donor type, donor heavy atom, donor atom, acceptor molecule, acceptor atom, score
      L1  H     6    29       P1  8028  0.11
      P1  H  6934  6946       L1    11  0.53
      P1  H  7989  7998       L1    15  0.01
      P1  H  7997  8008       L1    20  0.96
      P1  H  8011  8017       L1    15  0.77

> <Gold.PLP.Chemscore.Internal.Correction>
2.2316

> <Gold.Rescore>
     Score         DG    S(hbond)    S(metal)    S(lipo)     H(rot)  DE(clash)    DE(int)     intcor
      9.58     -12.44       1.83        0.00      52.00       2.04       0.02       2.84       ----

> <Gold.Chemscore.Fitness>
9.5787

> <Gold.Chemscore.DG>
-12.4362

> <Gold.Chemscore.ZeroCoef>
-5.4800

> <Gold.Chemscore.Hbond>
1.8255

> <Gold.Chemscore.Metal>
0.0000

> <Gold.Chemscore.Lipo>
51.9967

> <Gold.Chemscore.Internal_Hbond>
0.0000

> <Gold.Chemscore.DEClash>
0.0201

> <Gold.Chemscore.DEInternal>
2.8374

> <Gold.Chemscore.Rot>
2.0409

> <Gold.Chemscore.Internal.Correction>
   9.000000E+99

> <Gold.Chemscore.Hbonds>
donor molecule, donor type, donor heavy atom, donor atom, acceptor molecule, acceptor atom, score
      L1  H     6    29       P1  8028  0.01
      P1  H  6934  6946       L1    11  0.51
      P1  H  7989  7998       L1    15  0.02
      P1  H  7997  8008       L1    20  0.72
      P1  H  8011  8017       L1    15  0.77

> <Gold.Chemscore.Hbond.Weighted>
-6.0972

> <Gold.Chemscore.Metal.Weighted>
-0.0000

> <Gold.Chemscore.Lipo.Weighted>
-6.0836

> <Gold.Chemscore.Internal_Hbond.Weighted>
0.0000

> <Gold.Chemscore.DEClash.Weighted>
0.0201

> <Gold.Chemscore.DEInternal.Weighted>
2.8374

> <Gold.Chemscore.Rot.Weighted>
5.2246

> <Gold.Chemscore.Internal.Correction.Weighted>
   9.000000E+99

> <Gold.Protein.RotatedTorsions>
[ 6907 6896 6895 6894 ] final    9.08 input  -60.11 | X-H torsion
[ 7974 7965 7964 7962 ] final  -35.20 input  175.53 | X-H torsion
[ 8008 7997 7996 7995 ] final  -84.66 input   59.86 | X-H torsion
[ 10167 10162 10161 10158 ] final -159.50 input  -65.29 | X-H torsion
[ 10718 10713 10712 10709 ] final  -66.29 input   66.30 | X-H torsion
[ 10763 10752 10751 10750 ] final -177.22 input  -60.55 | X-H torsion
[ 11005 11000 10999 10996 ] final -177.48 input  -57.11 | X-H torsion

> <Gold.Protein.ActiveResidues>
 VAL166  LYS551  ARG553  GLY616  TRP617  ASP618  TYR619  PRO620  LYS621  CYS622 
 ASP623  PHE694  ASN695  SER759  ASP760  ASP761  ALA762  ILE779  LEU786  VAL792 
 PHE793  MET794  SER795  GLU796  ALA797  LYS798  CYS799  TRP800  GLU811  SER814 

> <Gold.Protein.RotatedAtoms>
  151.7164  135.0903  160.0276 H   0  0  0  0  0  0  0  0  0  0  0  0  # atno 6907 bound_to 6896
  152.3629  133.6316  159.6037 H   0  0  0  0  0  0  0  0  0  0  0  0  # atno 6908 bound_to 6896
  150.7617  133.9311  159.3468 H   0  0  0  0  0  0  0  0  0  0  0  0  # atno 6909 bound_to 6896
  146.0766  140.6131  142.8928 H   0  0  0  0  0  0  0  0  0  0  0  0  # atno 7974 bound_to 7965
  154.6322  140.0602  156.9746 H   0  0  0  0  0  0  0  0  0  0  0  0  # atno 8008 bound_to 7997
  155.1647  140.3285  155.4386 H   0  0  0  0  0  0  0  0  0  0  0  0  # atno 8009 bound_to 7997
  156.2489  140.1924  156.6752 H   0  0  0  0  0  0  0  0  0  0  0  0  # atno 8010 bound_to 7997
  139.6611  143.9912  152.2225 H   0  0  0  0  0  0  0  0  0  0  0  0  # atno 10167 bound_to 10162
  156.0621  130.4260  150.1688 H   0  0  0  0  0  0  0  0  0  0  0  0  # atno 10718 bound_to 10713
  154.5628  135.2821  155.0902 H   0  0  0  0  0  0  0  0  0  0  0  0  # atno 10763 bound_to 10752
  154.2305  135.6375  153.5177 H   0  0  0  0  0  0  0  0  0  0  0  0  # atno 10764 bound_to 10752
  153.0034  135.5536  154.6228 H   0  0  0  0  0  0  0  0  0  0  0  0  # atno 10765 bound_to 10752
  140.4405  134.6436  157.4755 H   0  0  0  0  0  0  0  0  0  0  0  0  # atno 11005 bound_to 11000
  144.7265  140.4542  143.6969 LP  0  0  0  0  0  0  0  0  0  0  0  0  # atno 17320 bound_to 7965
  145.6295  139.1534  143.2977 LP  0  0  0  0  0  0  0  0  0  0  0  0  # atno 17321 bound_to 7965
  139.9651  144.6532  150.8042 LP  0  0  0  0  0  0  0  0  0  0  0  0  # atno 17342 bound_to 10162
  140.7580  143.3098  151.2873 LP  0  0  0  0  0  0  0  0  0  0  0  0  # atno 17343 bound_to 10162
  156.9754  130.9847  151.3449 LP  0  0  0  0  0  0  0  0  0  0  0  0  # atno 17370 bound_to 10713
  157.5636  130.8263  149.8298 LP  0  0  0  0  0  0  0  0  0  0  0  0  # atno 17371 bound_to 10713
  140.0073  134.6744  155.9435 LP  0  0  0  0  0  0  0  0  0  0  0  0  # atno 17394 bound_to 11000
  141.1707  133.6537  156.4643 LP  0  0  0  0  0  0  0  0  0  0  0  0  # atno 17395 bound_to 11000

$$$$
