AV-unprocessed.smi:1199|AV-procd|sdf|5016|dock5
  -GOLD-   22720 4 33D 1   1.00000     0.00000
 Structure written by MMmdl.
 41 42  0  0  0  0  0  0  0  0  3 V2000
  149.2770  134.9628  154.9402 C   0  0  0  0  0  0  0  0  0  0  0  0
  147.9914  135.4158  155.6447 C   0  0  2  0  0  0  0  0  0  0  0  0
  147.2115  136.4542  154.8048 C   0  0  0  0  0  0  0  0  0  0  0  0
  146.8474  135.9648  153.4489 N   0  3  0  0  0  0  0  0  0  0  0  0
  146.5513  134.5133  153.4197 C   0  0  0  0  0  0  0  0  0  0  0  0
  146.2643  134.0564  151.9792 C   0  0  0  0  0  0  0  0  0  0  0  0
  145.1992  134.8238  151.4304 O   0  0  0  0  0  0  0  0  0  0  0  0
  145.5097  136.2112  151.3842 C   0  0  0  0  0  0  0  0  0  0  0  0
  145.7464  136.7268  152.8130 C   0  0  0  0  0  0  0  0  0  0  0  0
  148.3185  135.9675  156.9587 N   0  0  0  0  0  0  0  0  0  0  0  0
  147.4312  136.3328  157.8973 C   0  0  0  0  0  0  0  0  0  0  0  0
  146.2222  136.1147  157.8120 O   0  0  0  0  0  0  0  0  0  0  0  0
  148.0010  137.0795  159.1076 C   0  0  0  0  0  0  0  0  0  0  0  0
  147.6058  136.4325  160.3655 N   0  0  0  0  0  0  0  0  0  0  0  0
  147.0056  137.3526  161.3305 N   0  5  0  0  0  0  0  0  0  0  0  0
  146.6030  136.8734  162.5377 C   0  0  0  0  0  0  0  0  0  0  0  0
  146.1096  137.5884  163.4062 O   0  0  0  0  0  0  0  0  0  0  0  0
  146.7592  135.4523  162.7976 C   0  0  0  0  0  0  0  0  0  0  0  0
  147.2935  134.6238  161.8791 C   0  0  0  0  0  0  0  0  0  0  0  0
  147.7514  135.0933  160.5775 C   0  0  0  0  0  0  0  0  0  0  0  0
  148.2322  134.3389  159.7323 O   0  0  0  0  0  0  0  0  0  0  0  0
  149.0559  134.5317  153.9634 H   0  0  0  0  0  0  0  0  0  0  0  0
  149.7976  134.2031  155.5241 H   0  0  0  0  0  0  0  0  0  0  0  0
  149.9643  135.7959  154.7887 H   0  0  0  0  0  0  0  0  0  0  0  0
  147.3670  134.5289  155.7607 H   0  0  0  0  0  0  0  0  0  0  0  0
  146.2910  136.6950  155.3390 H   0  0  0  0  0  0  0  0  0  0  0  0
  147.7715  137.3873  154.7264 H   0  0  0  0  0  0  0  0  0  0  0  0
  147.3983  133.9527  153.8168 H   0  0  0  0  0  0  0  0  0  0  0  0
  145.6940  134.3008  154.0603 H   0  0  0  0  0  0  0  0  0  0  0  0
  147.1554  134.1546  151.3602 H   0  0  0  0  0  0  0  0  0  0  0  0
  145.9843  133.0031  151.9664 H   0  0  0  0  0  0  0  0  0  0  0  0
  146.3850  136.3849  150.7561 H   0  0  0  0  0  0  0  0  0  0  0  0
  144.6773  136.7446  150.9255 H   0  0  0  0  0  0  0  0  0  0  0  0
  144.8361  136.6229  153.4052 H   0  0  0  0  0  0  0  0  0  0  0  0
  145.9828  137.7891  152.7794 H   0  0  0  0  0  0  0  0  0  0  0  0
  149.2917  136.1722  157.1352 H   0  0  0  0  0  0  0  0  0  0  0  0
  149.0862  137.1322  159.0081 H   0  0  0  0  0  0  0  0  0  0  0  0
  147.6582  138.1161  159.1062 H   0  0  0  0  0  0  0  0  0  0  0  0
  146.4382  135.0509  163.7477 H   0  0  0  0  0  0  0  0  0  0  0  0
  147.3893  133.5744  162.1153 H   0  0  0  0  0  0  0  0  0  0  0  0
  147.6652  136.0959  152.8687 H   0  0  0  0  0  0  0  0  0  0  0  0
  1  2  1  0  0  0  0
  1 22  1  0  0  0  0
  1 23  1  0  0  0  0
  1 24  1  0  0  0  0
  2  3  1  0  0  0  0
  2 10  1  0  0  0  0
  2 25  1  0  0  0  0
  3  4  1  0  0  0  0
  3 26  1  0  0  0  0
  3 27  1  0  0  0  0
  4  9  1  0  0  0  0
  4  5  1  0  0  0  0
  4 41  1  0  0  0  0
  5  6  1  0  0  0  0
  5 28  1  0  0  0  0
  5 29  1  0  0  0  0
  6  7  1  0  0  0  0
  6 30  1  0  0  0  0
  6 31  1  0  0  0  0
  7  8  1  0  0  0  0
  8  9  1  0  0  0  0
  8 32  1  0  0  0  0
  8 33  1  0  0  0  0
  9 34  1  0  0  0  0
  9 35  1  0  0  0  0
 10 11  1  0  0  0  0
 10 36  1  0  0  0  0
 11 12  2  0  0  0  0
 11 13  1  0  0  0  0
 13 37  1  0  0  0  0
 13 38  1  0  0  0  0
 13 14  1  0  0  0  0
 14 15  1  0  0  0  0
 14 20  1  0  0  0  0
 15 16  1  0  0  0  0
 16 17  2  0  0  0  0
 16 18  1  0  0  0  0
 18 39  1  0  0  0  0
 18 19  2  0  0  0  0
 19 40  1  0  0  0  0
 19 20  1  0  0  0  0
 20 21  2  0  0  0  0
M  CHG  1   4   1
M  CHG  1  15  -1
M  END
> <s_m_source_file>
AV-unprocessed.smi

> <i_m_source_file_index>
1199

> <i_lp_mmshare_version>
43012

> <i_f3d_flags>
0

> <s_epik_input>
W0NIMl0xW0NIMl1PW0NIMl1bQ0gyXU4xW0NIMl1bQ0BASF0oW0NIM10pW05IXUMoPU8pW0NIMl1uMltuSF1jKD1PKVtjSF1bY0hdYzI9Tw==

> <s_epik_cmdline>
J2VwaWtfcHl0aG9uJywgJy1waCcsICc3LjAnLCAnLXRuJywgJzgnLCAnLW1hJywgJzIwMCcsICctbWV0YWxfYmluZGluZycsICctaW1hZScsICc8aW5maWxlLm1hZT4nLCAnLW9tYWUnLCAnPG91dGZpbGUubWFlPic=

> <r_lp_tautomer_probability>
1

> <r_epik_Ionization_Penalty>
0.741876

> <r_epik_Ionization_Penalty_Charging>
0.741876

> <r_epik_Ionization_Penalty_Neutral>
9.12373e-08

> <r_epik_State_Penalty>
0.692284

> <r_epik_Charging_Adjusted_Penalty>
1.43416

> <i_epik_Tot_Q>
0

> <i_epik_Tot_abs_Q>
2

> <r_epik_Metal_State_Penalty>
0.692284

> <b_epik_Metal_Only>
0

> <s_lp_Force_Field>
OPLS_2005

> <r_lp_Energy>
28.0654

> <b_lp_Chiralities_Consistent>
1

> <s_lp_Variant>
AV-unprocessed.smi:1199-3

> <Gold.Version>
5.8.1

> <Gold.Id.Protein>
6NUR|6NUR_protein|mol2

> <Gold.PLP.Fitness>
44.2296

> <Gold.PLP.PLP>
-26.9085

> <Gold.PLP.part.hbond>
-3.9351

> <Gold.PLP.part.metal>
0.0000

> <Gold.PLP.part.buried>
-1.2475

> <Gold.PLP.part.nonpolar>
-23.1207

> <Gold.PLP.part.repulsive>
0.1931

> <Gold.PLP.ligand.clash>
0.0000

> <Gold.PLP.ligand.torsion>
0.3936

> <Gold.PLP.Chemscore.Hbond>
6.0105

> <Gold.PLP.Chemscore.CHOScore>
0.0000

> <Gold.PLP.Chemscore.Metal>
0.0000

> <Gold.Chemscore.Hbonds>
donor molecule, donor type, donor heavy atom, donor atom, acceptor molecule, acceptor atom, score
      L1  H     4    41       P1  7948  2.00
      P1  H  6931  6943       L1    15  0.36
      P1  H  6934  6947       L1    15  2.00

> <Gold.PLP.Chemscore.Internal.Correction>
0.0768

> <Gold.Rescore>
     Score         DG    S(hbond)    S(metal)    S(lipo)     H(rot)  DE(clash)    DE(int)     intcor
     12.09     -13.90       2.68        0.00      47.56       2.37       0.08       1.73       ----

> <Gold.Chemscore.Fitness>
12.0862

> <Gold.Chemscore.DG>
-13.9017

> <Gold.Chemscore.ZeroCoef>
-5.4800

> <Gold.Chemscore.Hbond>
2.6754

> <Gold.Chemscore.Metal>
0.0000

> <Gold.Chemscore.Lipo>
47.5641

> <Gold.Chemscore.Internal_Hbond>
0.0000

> <Gold.Chemscore.DEClash>
0.0814

> <Gold.Chemscore.DEInternal>
1.7341

> <Gold.Chemscore.Rot>
2.3747

> <Gold.Chemscore.Internal.Correction>
   9.000000E+99

> <Gold.Chemscore.Hbonds>
donor molecule, donor type, donor heavy atom, donor atom, acceptor molecule, acceptor atom, score
      L1  H     4    41       P1  7948  1.00
      P1  H  6896  6909       L1    21  0.04
      P1  H  6934  6947       L1    15  0.89

> <Gold.Chemscore.Hbond.Weighted>
-8.9358

> <Gold.Chemscore.Metal.Weighted>
-0.0000

> <Gold.Chemscore.Lipo.Weighted>
-5.5650

> <Gold.Chemscore.Internal_Hbond.Weighted>
0.0000

> <Gold.Chemscore.DEClash.Weighted>
0.0814

> <Gold.Chemscore.DEInternal.Weighted>
1.7341

> <Gold.Chemscore.Rot.Weighted>
6.0791

> <Gold.Chemscore.Internal.Correction.Weighted>
   9.000000E+99

> <Gold.Protein.RotatedTorsions>
[ 6907 6896 6895 6894 ] final   49.65 input  -60.11 | X-H torsion
[ 7974 7965 7964 7962 ] final  133.82 input  175.53 | X-H torsion
[ 8008 7997 7996 7995 ] final    1.22 input   59.86 | X-H torsion
[ 10167 10162 10161 10158 ] final   55.86 input  -65.29 | X-H torsion
[ 10718 10713 10712 10709 ] final -119.85 input   66.30 | X-H torsion
[ 10763 10752 10751 10750 ] final  -83.49 input  -60.55 | X-H torsion
[ 11005 11000 10999 10996 ] final   68.64 input  -57.11 | X-H torsion

> <Gold.Protein.ActiveResidues>
 VAL166  LYS551  ARG553  GLY616  TRP617  ASP618  TYR619  PRO620  LYS621  CYS622 
 ASP623  PHE694  ASN695  SER759  ASP760  ASP761  ALA762  ILE779  LEU786  VAL792 
 PHE793  MET794  SER795  GLU796  ALA797  LYS798  CYS799  TRP800  GLU811  SER814 

> <Gold.Protein.RotatedAtoms>
  152.2931  134.7698  160.0373 H   0  0  0  0  0  0  0  0  0  0  0  0  # atno 6907 bound_to 6896
  151.8237  133.3393  159.3600 H   0  0  0  0  0  0  0  0  0  0  0  0  # atno 6908 bound_to 6896
  150.7239  134.5478  159.5824 H   0  0  0  0  0  0  0  0  0  0  0  0  # atno 6909 bound_to 6896
  144.9827  139.4488  143.5378 H   0  0  0  0  0  0  0  0  0  0  0  0  # atno 7974 bound_to 7965
  154.6772  140.2625  155.6946 H   0  0  0  0  0  0  0  0  0  0  0  0  # atno 8008 bound_to 7997
  156.2682  140.2817  156.1225 H   0  0  0  0  0  0  0  0  0  0  0  0  # atno 8009 bound_to 7997
  155.1084  140.0375  157.2707 H   0  0  0  0  0  0  0  0  0  0  0  0  # atno 8010 bound_to 7997
  140.2149  144.3850  150.6474 H   0  0  0  0  0  0  0  0  0  0  0  0  # atno 10167 bound_to 10162
  156.1212  130.6325  150.9467 H   0  0  0  0  0  0  0  0  0  0  0  0  # atno 10718 bound_to 10713
  154.5883  135.5554  153.7253 H   0  0  0  0  0  0  0  0  0  0  0  0  # atno 10763 bound_to 10752
  153.0107  135.6337  154.1885 H   0  0  0  0  0  0  0  0  0  0  0  0  # atno 10764 bound_to 10752
  154.1825  135.2886  155.3027 H   0  0  0  0  0  0  0  0  0  0  0  0  # atno 10765 bound_to 10752
  139.9700  134.6917  156.0467 H   0  0  0  0  0  0  0  0  0  0  0  0  # atno 11005 bound_to 11000
  146.3412  139.9109  142.8780 LP  0  0  0  0  0  0  0  0  0  0  0  0  # atno 17320 bound_to 7965
  145.2398  141.0005  143.3942 LP  0  0  0  0  0  0  0  0  0  0  0  0  # atno 17321 bound_to 7965
  140.6297  143.2186  151.6522 LP  0  0  0  0  0  0  0  0  0  0  0  0  # atno 17342 bound_to 10162
  139.5166  144.3342  152.0799 LP  0  0  0  0  0  0  0  0  0  0  0  0  # atno 17343 bound_to 10162
  157.6396  131.0912  150.8279 LP  0  0  0  0  0  0  0  0  0  0  0  0  # atno 17370 bound_to 10713
  156.8375  130.5037  149.5324 LP  0  0  0  0  0  0  0  0  0  0  0  0  # atno 17371 bound_to 10713
  141.1379  133.6571  156.3647 LP  0  0  0  0  0  0  0  0  0  0  0  0  # atno 17394 bound_to 11000
  140.5314  134.6208  157.5351 LP  0  0  0  0  0  0  0  0  0  0  0  0  # atno 17395 bound_to 11000

$$$$
