AV-unprocessed.smi:1940|AV-procd|sdf|7841|dock5
  -GOLD-   22720 9583D 1   1.00000     0.00000
 Structure written by MMmdl.
 50 52  0  0  0  0  0  0  0  0  2 V2000
  144.4955  137.4570  152.8348 C   0  0  0  0  0  0  0  0  0  0  0  0
  145.5013  136.2956  152.8420 C   0  0  2  0  0  0  0  0  0  0  0  0
  146.8409  136.8404  153.0510 N   0  0  0  0  0  0  0  0  0  0  0  0
  147.2144  137.6459  154.0557 C   0  0  0  0  0  0  0  0  0  0  0  0
  146.4501  138.0459  154.9335 O   0  0  0  0  0  0  0  0  0  0  0  0
  148.5256  137.9312  153.9819 N   0  0  0  0  0  0  0  0  0  0  0  0
  149.2952  138.7812  154.8206 C   0  0  0  0  0  0  0  0  0  0  0  0
  150.6552  138.9697  154.4936 C   0  0  0  0  0  0  0  0  0  0  0  0
  151.4526  139.8249  155.2806 C   0  0  0  0  0  0  0  0  0  0  0  0
  150.8717  140.4919  156.3831 C   0  0  0  0  0  0  0  0  0  0  0  0
  151.5818  141.3681  157.2142 N   0  0  0  0  0  0  0  0  0  0  0  0
  151.0129  142.7135  157.2267 C   0  0  0  0  0  0  0  0  0  0  0  0
  151.9186  143.6847  158.0032 C   0  0  0  0  0  0  0  0  0  0  0  0
  152.2056  143.1558  159.4177 C   0  0  0  0  0  0  0  0  0  0  0  0
  152.7794  141.7318  159.3446 C   0  0  0  0  0  0  0  0  0  0  0  0
  151.8518  140.8083  158.5368 C   0  0  0  0  0  0  0  0  0  0  0  0
  149.5655  140.2909  156.6620 N   0  3  0  0  0  0  0  0  0  0  0  0
  148.7676  139.4786  155.9350 C   0  0  0  0  0  0  0  0  0  0  0  0
  145.4757  135.4860  151.5302 C   0  0  2  0  0  0  0  0  0  0  0  0
  144.1172  134.8764  151.1815 C   0  0  0  0  0  0  0  0  0  0  0  0
  144.5183  133.7331  150.2788 C   0  0  0  0  0  0  0  0  0  0  0  0
  145.7907  133.2346  150.9563 C   0  0  0  0  0  0  0  0  0  0  0  0
  146.3558  134.3660  151.6137 O   0  0  0  0  0  0  0  0  0  0  0  0
  143.4716  137.0971  152.7343 H   0  0  0  0  0  0  0  0  0  0  0  0
  144.6891  138.1452  152.0115 H   0  0  0  0  0  0  0  0  0  0  0  0
  144.5483  138.0254  153.7641 H   0  0  0  0  0  0  0  0  0  0  0  0
  145.2328  135.6297  153.6641 H   0  0  0  0  0  0  0  0  0  0  0  0
  147.5445  136.5638  152.3821 H   0  0  0  0  0  0  0  0  0  0  0  0
  149.0413  137.4540  153.2570 H   0  0  0  0  0  0  0  0  0  0  0  0
  151.0899  138.4608  153.6456 H   0  0  0  0  0  0  0  0  0  0  0  0
  152.4952  139.9654  155.0355 H   0  0  0  0  0  0  0  0  0  0  0  0
  150.8825  143.0675  156.2033 H   0  0  0  0  0  0  0  0  0  0  0  0
  150.0227  142.6863  157.6839 H   0  0  0  0  0  0  0  0  0  0  0  0
  152.8587  143.8166  157.4655 H   0  0  0  0  0  0  0  0  0  0  0  0
  151.4517  144.6685  158.0577 H   0  0  0  0  0  0  0  0  0  0  0  0
  152.9012  143.8173  159.9347 H   0  0  0  0  0  0  0  0  0  0  0  0
  151.2849  143.1516  160.0024 H   0  0  0  0  0  0  0  0  0  0  0  0
  153.7652  141.7587  158.8783 H   0  0  0  0  0  0  0  0  0  0  0  0
  152.9221  141.3325  160.3491 H   0  0  0  0  0  0  0  0  0  0  0  0
  150.9138  140.6687  159.0762 H   0  0  0  0  0  0  0  0  0  0  0  0
  152.3100  139.8239  158.4320 H   0  0  0  0  0  0  0  0  0  0  0  0
  147.7415  139.4361  156.2674 H   0  0  0  0  0  0  0  0  0  0  0  0
  145.8111  136.1064  150.6973 H   0  0  0  0  0  0  0  0  0  0  0  0
  143.6253  134.4901  152.0755 H   0  0  0  0  0  0  0  0  0  0  0  0
  143.4435  135.5838  150.6973 H   0  0  0  0  0  0  0  0  0  0  0  0
  143.7516  132.9630  150.1902 H   0  0  0  0  0  0  0  0  0  0  0  0
  144.7452  134.1076  149.2796 H   0  0  0  0  0  0  0  0  0  0  0  0
  145.5525  132.4821  151.7089 H   0  0  0  0  0  0  0  0  0  0  0  0
  146.4922  132.7946  150.2475 H   0  0  0  0  0  0  0  0  0  0  0  0
  149.1582  140.7824  157.4582 H   0  0  0  0  0  0  0  0  0  0  0  0
  1  2  1  0  0  0  0
  1 24  1  0  0  0  0
  1 25  1  0  0  0  0
  1 26  1  0  0  0  0
  2  3  1  0  0  0  0
  2 19  1  0  0  0  0
  2 27  1  0  0  0  0
  3  4  1  0  0  0  0
  3 28  1  0  0  0  0
  4  5  2  0  0  0  0
  4  6  1  0  0  0  0
  6  7  1  0  0  0  0
  6 29  1  0  0  0  0
  7 18  1  0  0  0  0
  7  8  2  0  0  0  0
  8  9  1  0  0  0  0
  8 30  1  0  0  0  0
  9 10  2  0  0  0  0
  9 31  1  0  0  0  0
 10 11  1  0  0  0  0
 10 17  1  0  0  0  0
 11 16  1  0  0  0  0
 11 12  1  0  0  0  0
 12 13  1  0  0  0  0
 12 32  1  0  0  0  0
 12 33  1  0  0  0  0
 13 14  1  0  0  0  0
 13 34  1  0  0  0  0
 13 35  1  0  0  0  0
 14 15  1  0  0  0  0
 14 36  1  0  0  0  0
 14 37  1  0  0  0  0
 15 16  1  0  0  0  0
 15 38  1  0  0  0  0
 15 39  1  0  0  0  0
 16 40  1  0  0  0  0
 16 41  1  0  0  0  0
 17 18  2  0  0  0  0
 17 50  1  0  0  0  0
 18 42  1  0  0  0  0
 19 23  1  0  0  0  0
 19 20  1  0  0  0  0
 19 43  1  0  0  0  0
 20 21  1  0  0  0  0
 20 44  1  0  0  0  0
 20 45  1  0  0  0  0
 21 22  1  0  0  0  0
 21 46  1  0  0  0  0
 21 47  1  0  0  0  0
 22 23  1  0  0  0  0
 22 48  1  0  0  0  0
 22 49  1  0  0  0  0
M  CHG  1  17   1
M  END
> <s_m_source_file>
AV-unprocessed.smi

> <i_m_source_file_index>
1940

> <i_lp_mmshare_version>
43012

> <i_f3d_flags>
0

> <s_epik_input>
TzFbQ0gyXVtDSDJdW0NIMl1bQ0BIXTFbQ0BIXShbQ0gzXSlbTkhdQyg9TylbTkhdYzJbY0hdW2NIXWMobltjSF0yKU4zW0NIMl1bQ0gyXVtDSDJdW0NIMl1bQ0gyXTM=

> <s_epik_cmdline>
J2VwaWtfcHl0aG9uJywgJy1waCcsICc3LjAnLCAnLXRuJywgJzgnLCAnLW1hJywgJzIwMCcsICctbWV0YWxfYmluZGluZycsICctaW1hZScsICc8aW5maWxlLm1hZT4nLCAnLW9tYWUnLCAnPG91dGZpbGUubWFlPic=

> <r_lp_tautomer_probability>
0.999994

> <r_epik_Ionization_Penalty>
1.10603

> <r_epik_Ionization_Penalty_Charging>
1.10601

> <r_epik_Ionization_Penalty_Neutral>
1.929e-05

> <r_epik_State_Penalty>
1.16358

> <r_epik_Charging_Adjusted_Penalty>
2.26959

> <i_epik_Tot_Q>
1

> <i_epik_Tot_abs_Q>
1

> <r_epik_Metal_State_Penalty>
1.25013

> <b_epik_Metal_Only>
0

> <s_lp_Force_Field>
OPLS_2005

> <r_lp_Energy>
41.0283

> <b_lp_Chiralities_Consistent>
1

> <s_lp_Variant>
AV-unprocessed.smi:1940-5

> <Gold.Version>
5.8.1

> <Gold.Id.Protein>
6NUR|6NUR_protein|mol2

> <Gold.PLP.Fitness>
43.2303

> <Gold.PLP.PLP>
-37.4899

> <Gold.PLP.part.hbond>
-2.0000

> <Gold.PLP.part.metal>
0.0000

> <Gold.PLP.part.buried>
-3.1858

> <Gold.PLP.part.nonpolar>
-33.1800

> <Gold.PLP.part.repulsive>
0.2676

> <Gold.PLP.ligand.clash>
0.0000

> <Gold.PLP.ligand.torsion>
0.1700

> <Gold.PLP.Chemscore.Hbond>
1.9760

> <Gold.PLP.Chemscore.CHOScore>
0.0000

> <Gold.PLP.Chemscore.Metal>
0.0000

> <Gold.Chemscore.Hbonds>
donor molecule, donor type, donor heavy atom, donor atom, acceptor molecule, acceptor atom, score
      L1  H     3    28       P1  7948  0.99
      L1  H     6    29       P1  7948  0.94

> <Gold.PLP.Chemscore.Internal.Correction>
0.1524

> <Gold.Rescore>
     Score         DG    S(hbond)    S(metal)    S(lipo)     H(rot)  DE(clash)    DE(int)     intcor
     17.53     -20.25       1.95        0.00     100.18       1.36       0.02       2.70       ----

> <Gold.Chemscore.Fitness>
17.5308

> <Gold.Chemscore.DG>
-20.2497

> <Gold.Chemscore.ZeroCoef>
-5.4800

> <Gold.Chemscore.Hbond>
1.9527

> <Gold.Chemscore.Metal>
0.0000

> <Gold.Chemscore.Lipo>
100.1842

> <Gold.Chemscore.Internal_Hbond>
0.0000

> <Gold.Chemscore.DEClash>
0.0199

> <Gold.Chemscore.DEInternal>
2.6989

> <Gold.Chemscore.Rot>
1.3571

> <Gold.Chemscore.Internal.Correction>
   9.000000E+99

> <Gold.Chemscore.Hbonds>
donor molecule, donor type, donor heavy atom, donor atom, acceptor molecule, acceptor atom, score
      L1  H     3    28       P1  7948  0.92
      L1  H     6    29       P1  7948  0.91

> <Gold.Chemscore.Hbond.Weighted>
-6.5222

> <Gold.Chemscore.Metal.Weighted>
-0.0000

> <Gold.Chemscore.Lipo.Weighted>
-11.7216

> <Gold.Chemscore.Internal_Hbond.Weighted>
0.0000

> <Gold.Chemscore.DEClash.Weighted>
0.0199

> <Gold.Chemscore.DEInternal.Weighted>
2.6989

> <Gold.Chemscore.Rot.Weighted>
3.4741

> <Gold.Chemscore.Internal.Correction.Weighted>
   9.000000E+99

> <Gold.Protein.RotatedTorsions>
[ 6907 6896 6895 6894 ] final  120.12 input  -60.11 | X-H torsion
[ 7974 7965 7964 7962 ] final  -88.76 input  175.53 | X-H torsion
[ 8008 7997 7996 7995 ] final  -89.49 input   59.86 | X-H torsion
[ 10167 10162 10161 10158 ] final   69.32 input  -65.29 | X-H torsion
[ 10718 10713 10712 10709 ] final   21.22 input   66.30 | X-H torsion
[ 10763 10752 10751 10750 ] final   68.43 input  -60.55 | X-H torsion
[ 11005 11000 10999 10996 ] final  -42.76 input  -57.11 | X-H torsion

> <Gold.Protein.ActiveResidues>
 VAL166  LYS551  ARG553  GLY616  TRP617  ASP618  TYR619  PRO620  LYS621  CYS622 
 ASP623  PHE694  ASN695  SER759  ASP760  ASP761  ALA762  ILE779  LEU786  VAL792 
 PHE793  MET794  SER795  GLU796  ALA797  LYS798  CYS799  TRP800  GLU811  SER814 

> <Gold.Protein.RotatedAtoms>
  152.4421  133.7468  159.6671 H   0  0  0  0  0  0  0  0  0  0  0  0  # atno 6907 bound_to 6896
  150.8314  133.8074  159.3103 H   0  0  0  0  0  0  0  0  0  0  0  0  # atno 6908 bound_to 6896
  151.5727  135.1064  160.0050 H   0  0  0  0  0  0  0  0  0  0  0  0  # atno 6909 bound_to 6896
  145.4488  140.9560  143.2034 H   0  0  0  0  0  0  0  0  0  0  0  0  # atno 7974 bound_to 7965
  154.6872  140.0541  157.0327 H   0  0  0  0  0  0  0  0  0  0  0  0  # atno 8008 bound_to 7997
  155.0867  140.3215  155.4567 H   0  0  0  0  0  0  0  0  0  0  0  0  # atno 8009 bound_to 7997
  156.2715  140.2055  156.5995 H   0  0  0  0  0  0  0  0  0  0  0  0  # atno 8010 bound_to 7997
  140.0690  144.5168  150.7240 H   0  0  0  0  0  0  0  0  0  0  0  0  # atno 10167 bound_to 10162
  157.1355  130.6609  149.5965 H   0  0  0  0  0  0  0  0  0  0  0  0  # atno 10718 bound_to 10713
  153.0235  135.5247  154.7134 H   0  0  0  0  0  0  0  0  0  0  0  0  # atno 10763 bound_to 10752
  154.6210  135.2889  155.0328 H   0  0  0  0  0  0  0  0  0  0  0  0  # atno 10764 bound_to 10752
  154.1315  135.6592  153.4975 H   0  0  0  0  0  0  0  0  0  0  0  0  # atno 10765 bound_to 10752
  141.0337  133.6809  156.2639 H   0  0  0  0  0  0  0  0  0  0  0  0  # atno 11005 bound_to 11000
  144.8075  139.6024  143.7044 LP  0  0  0  0  0  0  0  0  0  0  0  0  # atno 17320 bound_to 7965
  146.2516  139.6211  142.9423 LP  0  0  0  0  0  0  0  0  0  0  0  0  # atno 17321 bound_to 7965
  140.7135  143.2524  151.4508 LP  0  0  0  0  0  0  0  0  0  0  0  0  # atno 17342 bound_to 10162
  139.5847  144.1631  152.2014 LP  0  0  0  0  0  0  0  0  0  0  0  0  # atno 17343 bound_to 10162
  155.9799  130.4796  150.6742 LP  0  0  0  0  0  0  0  0  0  0  0  0  # atno 17370 bound_to 10713
  157.4354  131.0854  151.0997 LP  0  0  0  0  0  0  0  0  0  0  0  0  # atno 17371 bound_to 10713
  140.6360  134.5215  157.5564 LP  0  0  0  0  0  0  0  0  0  0  0  0  # atno 17394 bound_to 11000
  139.9226  134.8119  156.1166 LP  0  0  0  0  0  0  0  0  0  0  0  0  # atno 17395 bound_to 11000

$$$$
