AV-unprocessed.smi:2562|AV-procd|sdf|10050|dock4
  -GOLD-   2272014 93D 1   1.00000     0.00000
 Structure written by MMmdl.
 31 32  0  0  0  0  0  0  0  0  2 V2000
  150.2666  134.5334  155.1609 C   0  0  0  0  0  0  0  0  0  0  0  0
  149.8710  133.0614  155.3189 C   0  0  0  0  0  0  0  0  0  0  0  0
  149.4823  132.4111  153.9836 C   0  0  0  0  0  0  0  0  0  0  0  0
  148.3767  133.1380  153.2909 C   0  0  0  0  0  0  0  0  0  0  0  0
  147.7319  134.1984  153.7862 N   0  0  0  0  0  0  0  0  0  0  0  0
  146.7879  134.5350  152.8313 N   0  0  0  0  0  0  0  0  0  0  0  0
  146.9409  133.6427  151.8470 C   0  0  0  0  0  0  0  0  0  0  0  0
  146.1394  133.6112  150.5841 C   0  0  2  0  0  0  0  0  0  0  0  0
  144.7803  134.3221  150.7315 C   0  0  0  0  0  0  0  0  0  0  0  0
  143.9951  134.1710  149.4908 N   0  3  0  0  0  0  0  0  0  0  0  0
  143.8486  132.7513  149.1134 C   0  0  0  0  0  0  0  0  0  0  0  0
  145.2314  132.0823  149.0216 C   0  0  0  0  0  0  0  0  0  0  0  0
  145.9250  132.2409  150.2549 O   0  0  0  0  0  0  0  0  0  0  0  0
  147.9179  132.7566  152.0901 N   0  0  0  0  0  0  0  0  0  0  0  0
  148.2315  131.9886  151.5144 H   0  0  0  0  0  0  0  0  0  0  0  0
  150.5342  134.9695  156.1235 H   0  0  0  0  0  0  0  0  0  0  0  0
  149.4449  135.1187  154.7474 H   0  0  0  0  0  0  0  0  0  0  0  0
  151.1242  134.6421  154.4964 H   0  0  0  0  0  0  0  0  0  0  0  0
  150.6997  132.5120  155.7673 H   0  0  0  0  0  0  0  0  0  0  0  0
  149.0371  132.9872  156.0183 H   0  0  0  0  0  0  0  0  0  0  0  0
  150.3460  132.3812  153.3179 H   0  0  0  0  0  0  0  0  0  0  0  0
  149.1791  131.3758  154.1454 H   0  0  0  0  0  0  0  0  0  0  0  0
  146.7242  134.0826  149.7917 H   0  0  0  0  0  0  0  0  0  0  0  0
  144.2147  133.8981  151.5628 H   0  0  0  0  0  0  0  0  0  0  0  0
  144.9201  135.3822  150.9442 H   0  0  0  0  0  0  0  0  0  0  0  0
  143.0806  134.5806  149.6192 H   0  0  0  0  0  0  0  0  0  0  0  0
  143.2334  132.2438  149.8577 H   0  0  0  0  0  0  0  0  0  0  0  0
  143.3241  132.6817  148.1604 H   0  0  0  0  0  0  0  0  0  0  0  0
  145.1214  131.0183  148.8116 H   0  0  0  0  0  0  0  0  0  0  0  0
  145.8170  132.5091  148.2057 H   0  0  0  0  0  0  0  0  0  0  0  0
  144.4719  134.6565  148.7443 H   0  0  0  0  0  0  0  0  0  0  0  0
  1  2  1  0  0  0  0
  1 16  1  0  0  0  0
  1 17  1  0  0  0  0
  1 18  1  0  0  0  0
  2  3  1  0  0  0  0
  2 19  1  0  0  0  0
  2 20  1  0  0  0  0
  3 21  1  0  0  0  0
  3 22  1  0  0  0  0
  3  4  1  0  0  0  0
  4  5  2  0  0  0  0
  4 14  1  0  0  0  0
  5  6  1  0  0  0  0
  6  7  2  0  0  0  0
  7 14  1  0  0  0  0
  7  8  1  0  0  0  0
  8 13  1  0  0  0  0
  8  9  1  0  0  0  0
  8 23  1  0  0  0  0
  9 10  1  0  0  0  0
  9 24  1  0  0  0  0
  9 25  1  0  0  0  0
 10 11  1  0  0  0  0
 10 26  1  0  0  0  0
 10 31  1  0  0  0  0
 11 12  1  0  0  0  0
 11 27  1  0  0  0  0
 11 28  1  0  0  0  0
 12 13  1  0  0  0  0
 12 29  1  0  0  0  0
 12 30  1  0  0  0  0
 14 15  1  0  0  0  0
M  CHG  1  10   1
M  END
> <s_m_source_file>
AV-unprocessed.smi

> <i_m_source_file_index>
2562

> <i_lp_mmshare_version>
43012

> <i_f3d_flags>
0

> <s_epik_input>
W0NIM11bQ0gyXVtDSDJdYzFuW25IXWMobjEpW0NAQEhdMltDSDJdW05IXVtDSDJdW0NIMl1PMg==

> <s_epik_cmdline>
J2VwaWtfcHl0aG9uJywgJy1waCcsICc3LjAnLCAnLXRuJywgJzgnLCAnLW1hJywgJzIwMCcsICctbWV0YWxfYmluZGluZycsICctaW1hZScsICc8aW5maWxlLm1hZT4nLCAnLW9tYWUnLCAnPG91dGZpbGUubWFlPic=

> <r_lp_tautomer_probability>
0.0517155

> <r_epik_Ionization_Penalty>
0.274244

> <r_epik_Ionization_Penalty_Charging>
0.125708

> <r_epik_Ionization_Penalty_Neutral>
0.148536

> <r_epik_State_Penalty>
1.9659

> <r_epik_Charging_Adjusted_Penalty>
2.09161

> <i_epik_Tot_Q>
1

> <i_epik_Tot_abs_Q>
1

> <r_epik_Metal_State_Penalty>
2.08836

> <b_epik_Metal_Only>
0

> <s_lp_Force_Field>
OPLS_2005

> <r_lp_Energy>
13.0069

> <b_lp_Chiralities_Consistent>
1

> <s_lp_Variant>
AV-unprocessed.smi:2562-9

> <Gold.Version>
5.8.1

> <Gold.Id.Protein>
6NUR|6NUR_protein|mol2

> <Gold.PLP.Fitness>
38.5635

> <Gold.PLP.PLP>
-28.1033

> <Gold.PLP.part.hbond>
-3.0000

> <Gold.PLP.part.metal>
0.0000

> <Gold.PLP.part.buried>
-3.7587

> <Gold.PLP.part.nonpolar>
-22.1794

> <Gold.PLP.part.repulsive>
1.4791

> <Gold.PLP.ligand.clash>
0.0000

> <Gold.PLP.ligand.torsion>
0.6485

> <Gold.PLP.Chemscore.Hbond>
3.9182

> <Gold.PLP.Chemscore.CHOScore>
0.0000

> <Gold.PLP.Chemscore.Metal>
0.0000

> <Gold.Chemscore.Hbonds>
donor molecule, donor type, donor heavy atom, donor atom, acceptor molecule, acceptor atom, score
      L1  H    10    26       P1 10186  1.79
      L1  H    10    31       P1  7921  0.96
      L1  H    14    15       P1 10747  1.00

> <Gold.PLP.Chemscore.Internal.Correction>
0.0025

> <Gold.Rescore>
     Score         DG    S(hbond)    S(metal)    S(lipo)     H(rot)  DE(clash)    DE(int)     intcor
     15.33     -17.74       2.80        0.00      57.88       1.51       0.66       1.75       ----

> <Gold.Chemscore.Fitness>
15.3302

> <Gold.Chemscore.DG>
-17.7373

> <Gold.Chemscore.ZeroCoef>
-5.4800

> <Gold.Chemscore.Hbond>
2.8010

> <Gold.Chemscore.Metal>
0.0000

> <Gold.Chemscore.Lipo>
57.8758

> <Gold.Chemscore.Internal_Hbond>
0.0000

> <Gold.Chemscore.DEClash>
0.6582

> <Gold.Chemscore.DEInternal>
1.7489

> <Gold.Chemscore.Rot>
1.5115

> <Gold.Chemscore.Internal.Correction>
   9.000000E+99

> <Gold.Chemscore.Hbonds>
donor molecule, donor type, donor heavy atom, donor atom, acceptor molecule, acceptor atom, score
      L1  H    10    26       P1 10186  0.80
      L1  H    10    31       P1  7921  0.89
      L1  H    14    15       P1 10747  1.00

> <Gold.Chemscore.Hbond.Weighted>
-9.3553

> <Gold.Chemscore.Metal.Weighted>
-0.0000

> <Gold.Chemscore.Lipo.Weighted>
-6.7715

> <Gold.Chemscore.Internal_Hbond.Weighted>
0.0000

> <Gold.Chemscore.DEClash.Weighted>
0.6582

> <Gold.Chemscore.DEInternal.Weighted>
1.7489

> <Gold.Chemscore.Rot.Weighted>
3.8695

> <Gold.Chemscore.Internal.Correction.Weighted>
   9.000000E+99

> <Gold.Protein.RotatedTorsions>
[ 6907 6896 6895 6894 ] final   81.82 input  -60.11 | X-H torsion
[ 7974 7965 7964 7962 ] final  -79.83 input  175.53 | X-H torsion
[ 8008 7997 7996 7995 ] final -145.63 input   59.86 | X-H torsion
[ 10167 10162 10161 10158 ] final -176.68 input  -65.29 | X-H torsion
[ 10718 10713 10712 10709 ] final -114.23 input   66.30 | X-H torsion
[ 10763 10752 10751 10750 ] final   37.30 input  -60.55 | X-H torsion
[ 11005 11000 10999 10996 ] final  100.99 input  -57.11 | X-H torsion

> <Gold.Protein.ActiveResidues>
 VAL166  LYS551  ARG553  GLY616  TRP617  ASP618  TYR619  PRO620  LYS621  CYS622 
 ASP623  PHE694  ASN695  SER759  ASP760  ASP761  ALA762  ILE779  LEU786  VAL792 
 PHE793  MET794  SER795  GLU796  ALA797  LYS798  CYS799  TRP800  GLU811  SER814 

> <Gold.Protein.RotatedAtoms>
  152.5280  134.3145  159.9125 H   0  0  0  0  0  0  0  0  0  0  0  0  # atno 6907 bound_to 6896
  151.3095  133.4080  159.2653 H   0  0  0  0  0  0  0  0  0  0  0  0  # atno 6908 bound_to 6896
  151.0051  134.9369  159.8033 H   0  0  0  0  0  0  0  0  0  0  0  0  # atno 6909 bound_to 6896
  145.5680  140.9471  143.1411 H   0  0  0  0  0  0  0  0  0  0  0  0  # atno 7974 bound_to 7965
  155.5463  140.0612  157.2859 H   0  0  0  0  0  0  0  0  0  0  0  0  # atno 8008 bound_to 7997
  154.4435  140.1910  156.0686 H   0  0  0  0  0  0  0  0  0  0  0  0  # atno 8009 bound_to 7997
  156.0548  140.3280  155.7397 H   0  0  0  0  0  0  0  0  0  0  0  0  # atno 8010 bound_to 7997
  139.5517  144.2091  152.1089 H   0  0  0  0  0  0  0  0  0  0  0  0  # atno 10167 bound_to 10162
  156.0817  130.6015  150.8747 H   0  0  0  0  0  0  0  0  0  0  0  0  # atno 10718 bound_to 10713
  153.0043  135.6281  154.2123 H   0  0  0  0  0  0  0  0  0  0  0  0  # atno 10763 bound_to 10752
  154.1866  135.2810  155.3037 H   0  0  0  0  0  0  0  0  0  0  0  0  # atno 10764 bound_to 10752
  154.5793  135.5652  153.7229 H   0  0  0  0  0  0  0  0  0  0  0  0  # atno 10765 bound_to 10752
  139.8772  134.9164  156.4840 H   0  0  0  0  0  0  0  0  0  0  0  0  # atno 11005 bound_to 11000
  144.7451  139.7342  143.7295 LP  0  0  0  0  0  0  0  0  0  0  0  0  # atno 17320 bound_to 7965
  146.1804  139.4994  142.9870 LP  0  0  0  0  0  0  0  0  0  0  0  0  # atno 17321 bound_to 7965
  140.1588  144.5045  150.6644 LP  0  0  0  0  0  0  0  0  0  0  0  0  # atno 17342 bound_to 10162
  140.6781  143.2314  151.5454 LP  0  0  0  0  0  0  0  0  0  0  0  0  # atno 17343 bound_to 10162
  157.5936  131.0944  150.9078 LP  0  0  0  0  0  0  0  0  0  0  0  0  # atno 17370 bound_to 10713
  156.9249  130.5328  149.5279 LP  0  0  0  0  0  0  0  0  0  0  0  0  # atno 17371 bound_to 10713
  140.8707  133.7990  155.9361 LP  0  0  0  0  0  0  0  0  0  0  0  0  # atno 17394 bound_to 11000
  140.8956  134.2442  157.5071 LP  0  0  0  0  0  0  0  0  0  0  0  0  # atno 17395 bound_to 11000

$$$$
