AV-unprocessed.smi:2678|AV-procd|sdf|10367|dock5
  -GOLD-   2272014393D 1   1.00000     0.00000
 Structure written by MMmdl.
 46 47  0  0  0  0  0  0  0  0  1 V2000
  151.3731  141.9496  157.6007 C   0  0  0  0  0  0  0  0  0  0  0  0
  150.5549  140.6920  157.9349 C   0  0  0  0  0  0  0  0  0  0  0  0
  151.4263  139.4294  157.9185 C   0  0  0  0  0  0  0  0  0  0  0  0
  149.4534  140.5321  156.9900 N   0  0  0  0  0  0  0  0  0  0  0  0
  149.5789  140.4024  155.6597 C   0  0  0  0  0  0  0  0  0  0  0  0
  150.6653  140.4018  155.0796 O   0  0  0  0  0  0  0  0  0  0  0  0
  148.2763  140.2461  154.8637 C   0  0  1  0  0  0  0  0  0  0  0  0
  148.1083  141.3894  153.8409 C   0  0  0  0  0  0  0  0  0  0  0  0
  146.8123  141.2270  153.0307 C   0  0  0  0  0  0  0  0  0  0  0  0
  146.7547  139.8563  152.3381 C   0  0  0  0  0  0  0  0  0  0  0  0
  146.9176  138.7085  153.3514 C   0  0  1  0  0  0  0  0  0  0  0  0
  146.8982  137.4261  152.6441 N   0  0  0  0  0  0  0  0  0  0  0  0
  145.8593  136.5931  152.4480 C   0  0  0  0  0  0  0  0  0  0  0  0
  144.7460  136.8502  152.9003 O   0  0  0  0  0  0  0  0  0  0  0  0
  146.1663  135.4809  151.7515 N   0  0  0  0  0  0  0  0  0  0  0  0
  145.3103  134.4292  151.3277 C   0  0  0  0  0  0  0  0  0  0  0  0
  145.6998  133.3861  150.4530 C   0  0  0  0  0  0  0  0  0  0  0  0
  144.7615  132.3886  150.1251 C   0  0  0  0  0  0  0  0  0  0  0  0
  143.4726  132.4657  150.6877 C   0  0  0  0  0  0  0  0  0  0  0  0
  143.0920  133.4464  151.5332 N   0  0  0  0  0  0  0  0  0  0  0  0
  143.9973  134.3987  151.8439 C   0  0  0  0  0  0  0  0  0  0  0  0
  148.2273  138.8786  154.1506 C   0  0  0  0  0  0  0  0  0  0  0  0
  152.1970  142.0777  158.3034 H   0  0  0  0  0  0  0  0  0  0  0  0
  150.7581  142.8487  157.6514 H   0  0  0  0  0  0  0  0  0  0  0  0
  151.7977  141.8925  156.5977 H   0  0  0  0  0  0  0  0  0  0  0  0
  150.1463  140.7997  158.9413 H   0  0  0  0  0  0  0  0  0  0  0  0
  152.2393  139.5057  158.6411 H   0  0  0  0  0  0  0  0  0  0  0  0
  151.8693  139.2635  156.9359 H   0  0  0  0  0  0  0  0  0  0  0  0
  150.8417  138.5450  158.1743 H   0  0  0  0  0  0  0  0  0  0  0  0
  148.5215  140.5202  157.3785 H   0  0  0  0  0  0  0  0  0  0  0  0
  147.4403  140.2924  155.5641 H   0  0  0  0  0  0  0  0  0  0  0  0
  148.0995  142.3530  154.3526 H   0  0  0  0  0  0  0  0  0  0  0  0
  148.9578  141.4119  153.1563 H   0  0  0  0  0  0  0  0  0  0  0  0
  145.9516  141.3393  153.6913 H   0  0  0  0  0  0  0  0  0  0  0  0
  146.7372  142.0214  152.2876 H   0  0  0  0  0  0  0  0  0  0  0  0
  145.8084  139.7551  151.8055 H   0  0  0  0  0  0  0  0  0  0  0  0
  147.5413  139.8000  151.5841 H   0  0  0  0  0  0  0  0  0  0  0  0
  146.0702  138.7533  154.0378 H   0  0  0  0  0  0  0  0  0  0  0  0
  147.7843  137.1281  152.2620 H   0  0  0  0  0  0  0  0  0  0  0  0
  147.1426  135.3602  151.5248 H   0  0  0  0  0  0  0  0  0  0  0  0
  146.6949  133.3213  150.0415 H   0  0  0  0  0  0  0  0  0  0  0  0
  145.0263  131.5797  149.4602 H   0  0  0  0  0  0  0  0  0  0  0  0
  142.7297  131.7163  150.4579 H   0  0  0  0  0  0  0  0  0  0  0  0
  143.6593  135.1651  152.5263 H   0  0  0  0  0  0  0  0  0  0  0  0
  149.0792  138.7784  153.4756 H   0  0  0  0  0  0  0  0  0  0  0  0
  148.3251  138.0793  154.8863 H   0  0  0  0  0  0  0  0  0  0  0  0
  1  2  1  0  0  0  0
  1 23  1  0  0  0  0
  1 24  1  0  0  0  0
  1 25  1  0  0  0  0
  2  3  1  0  0  0  0
  2  4  1  0  0  0  0
  2 26  1  0  0  0  0
  3 27  1  0  0  0  0
  3 28  1  0  0  0  0
  3 29  1  0  0  0  0
  4  5  1  0  0  0  0
  4 30  1  0  0  0  0
  5  6  2  0  0  0  0
  5  7  1  0  0  0  0
  7 22  1  0  0  0  0
  7  8  1  0  0  0  0
  7 31  1  0  0  0  0
  8  9  1  0  0  0  0
  8 32  1  0  0  0  0
  8 33  1  0  0  0  0
  9 10  1  0  0  0  0
  9 34  1  0  0  0  0
  9 35  1  0  0  0  0
 10 11  1  0  0  0  0
 10 36  1  0  0  0  0
 10 37  1  0  0  0  0
 11 12  1  0  0  0  0
 11 22  1  0  0  0  0
 11 38  1  0  0  0  0
 12 13  1  0  0  0  0
 12 39  1  0  0  0  0
 13 14  2  0  0  0  0
 13 15  1  0  0  0  0
 15 16  1  0  0  0  0
 15 40  1  0  0  0  0
 16 21  1  0  0  0  0
 16 17  2  0  0  0  0
 17 18  1  0  0  0  0
 17 41  1  0  0  0  0
 18 19  2  0  0  0  0
 18 42  1  0  0  0  0
 19 20  1  0  0  0  0
 19 43  1  0  0  0  0
 20 21  2  0  0  0  0
 21 44  1  0  0  0  0
 22 45  1  0  0  0  0
 22 46  1  0  0  0  0
M  END
> <s_m_source_file>
AV-unprocessed.smi

> <i_m_source_file_index>
2678

> <i_lp_mmshare_version>
43012

> <i_f3d_flags>
0

> <s_epik_input>
W0NIM11bQ0hdKFtDSDNdKVtOSF1DKD1PKVtDQEBIXTFbQ0gyXVtDSDJdW0NIMl1bQ0BIXShbQ0gyXTEpW05IXUMoPU8pW05IXWMyW2NIXVtjSF1bY0hdbltjSF0y

> <s_epik_cmdline>
J2VwaWtfcHl0aG9uJywgJy1waCcsICc3LjAnLCAnLXRuJywgJzgnLCAnLW1hJywgJzIwMCcsICctbWV0YWxfYmluZGluZycsICctaW1hZScsICc8aW5maWxlLm1hZT4nLCAnLW9tYWUnLCAnPG91dGZpbGUubWFlPic=

> <r_epik_Ionization_Penalty>
0.00482944

> <r_epik_Ionization_Penalty_Charging>
0

> <r_epik_Ionization_Penalty_Neutral>
0.00482944

> <r_epik_State_Penalty>
0.00347168

> <r_epik_Charging_Adjusted_Penalty>
0.00347168

> <i_epik_Tot_Q>
0

> <i_epik_Tot_abs_Q>
0

> <r_epik_Metal_State_Penalty>
-0

> <b_epik_Metal_Only>
0

> <s_lp_Force_Field>
OPLS_2005

> <r_lp_Energy>
23.8457

> <b_lp_Chiralities_Consistent>
1

> <s_lp_Variant>
AV-unprocessed.smi:2678-2

> <Gold.Version>
5.8.1

> <Gold.Id.Protein>
6NUR|6NUR_protein|mol2

> <Gold.PLP.Fitness>
44.5369

> <Gold.PLP.PLP>
-33.9150

> <Gold.PLP.part.hbond>
-2.8504

> <Gold.PLP.part.metal>
0.0000

> <Gold.PLP.part.buried>
-4.4573

> <Gold.PLP.part.nonpolar>
-27.8694

> <Gold.PLP.part.repulsive>
0.6476

> <Gold.PLP.ligand.clash>
0.0000

> <Gold.PLP.ligand.torsion>
0.3631

> <Gold.PLP.Chemscore.Hbond>
2.7905

> <Gold.PLP.Chemscore.CHOScore>
0.9854

> <Gold.PLP.Chemscore.Metal>
0.0000

> <Gold.Chemscore.Hbonds>
donor molecule, donor type, donor heavy atom, donor atom, acceptor molecule, acceptor atom, score
      L1  H    12    39       P1  7948  0.96
      L1  H    15    40       P1  7948  0.85
      P1  H  7989  7998       L1     6  1.00
      L1  C    19    43       P1 10952  1.00

> <Gold.PLP.Chemscore.Internal.Correction>
0.0202

> <Gold.Rescore>
     Score         DG    S(hbond)    S(metal)    S(lipo)     H(rot)  DE(clash)    DE(int)     intcor
     18.26     -21.55       2.78        0.00      90.03       1.46       0.15       3.14       ----

> <Gold.Chemscore.Fitness>
18.2557

> <Gold.Chemscore.DG>
-21.5479

> <Gold.Chemscore.ZeroCoef>
-5.4800

> <Gold.Chemscore.Hbond>
2.7761

> <Gold.Chemscore.Metal>
0.0000

> <Gold.Chemscore.Lipo>
90.0330

> <Gold.Chemscore.Internal_Hbond>
0.0000

> <Gold.Chemscore.DEClash>
0.1485

> <Gold.Chemscore.DEInternal>
3.1436

> <Gold.Chemscore.Rot>
1.4603

> <Gold.Chemscore.Internal.Correction>
   9.000000E+99

> <Gold.Chemscore.Hbonds>
donor molecule, donor type, donor heavy atom, donor atom, acceptor molecule, acceptor atom, score
      L1  H    12    39       P1  7948  0.91
      L1  H    15    40       P1  7948  0.77
      P1  H  7989  7998       L1     6  0.97

> <Gold.Chemscore.Hbond.Weighted>
-9.2723

> <Gold.Chemscore.Metal.Weighted>
-0.0000

> <Gold.Chemscore.Lipo.Weighted>
-10.5339

> <Gold.Chemscore.Internal_Hbond.Weighted>
0.0000

> <Gold.Chemscore.DEClash.Weighted>
0.1485

> <Gold.Chemscore.DEInternal.Weighted>
3.1436

> <Gold.Chemscore.Rot.Weighted>
3.7383

> <Gold.Chemscore.Internal.Correction.Weighted>
   9.000000E+99

> <Gold.Protein.RotatedTorsions>
[ 6907 6896 6895 6894 ] final   73.40 input  -60.11 | X-H torsion
[ 7974 7965 7964 7962 ] final  -59.18 input  175.53 | X-H torsion
[ 8008 7997 7996 7995 ] final  -42.39 input   59.86 | X-H torsion
[ 10167 10162 10161 10158 ] final -179.79 input  -65.29 | X-H torsion
[ 10718 10713 10712 10709 ] final   13.21 input   66.30 | X-H torsion
[ 10763 10752 10751 10750 ] final -169.80 input  -60.55 | X-H torsion
[ 11005 11000 10999 10996 ] final  -37.98 input  -57.11 | X-H torsion

> <Gold.Protein.ActiveResidues>
 VAL166  LYS551  ARG553  GLY616  TRP617  ASP618  TYR619  PRO620  LYS621  CYS622 
 ASP623  PHE694  ASN695  SER759  ASP760  ASP761  ALA762  ILE779  LEU786  VAL792 
 PHE793  MET794  SER795  GLU796  ALA797  LYS798  CYS799  TRP800  GLU811  SER814 

> <Gold.Protein.RotatedAtoms>
  152.4921  134.4426  159.9548 H   0  0  0  0  0  0  0  0  0  0  0  0  # atno 6907 bound_to 6896
  151.4412  133.3637  159.2790 H   0  0  0  0  0  0  0  0  0  0  0  0  # atno 6908 bound_to 6896
  150.9086  134.8526  159.7470 H   0  0  0  0  0  0  0  0  0  0  0  0  # atno 6909 bound_to 6896
  145.8306  140.8482  143.0085 H   0  0  0  0  0  0  0  0  0  0  0  0  # atno 7974 bound_to 7965
  154.3999  140.1474  156.3348 H   0  0  0  0  0  0  0  0  0  0  0  0  # atno 8008 bound_to 7997
  155.8411  140.3462  155.5611 H   0  0  0  0  0  0  0  0  0  0  0  0  # atno 8009 bound_to 7997
  155.8086  140.0880  157.1907 H   0  0  0  0  0  0  0  0  0  0  0  0  # atno 8010 bound_to 7997
  139.5370  144.2468  152.0816 H   0  0  0  0  0  0  0  0  0  0  0  0  # atno 10167 bound_to 10162
  157.0213  130.6156  149.5721 H   0  0  0  0  0  0  0  0  0  0  0  0  # atno 10718 bound_to 10713
  154.6483  135.2908  155.0018 H   0  0  0  0  0  0  0  0  0  0  0  0  # atno 10763 bound_to 10752
  154.1120  135.6561  153.4891 H   0  0  0  0  0  0  0  0  0  0  0  0  # atno 10764 bound_to 10752
  153.0363  135.5267  154.7380 H   0  0  0  0  0  0  0  0  0  0  0  0  # atno 10765 bound_to 10752
  140.9993  133.6964  156.1992 H   0  0  0  0  0  0  0  0  0  0  0  0  # atno 11005 bound_to 11000
  144.6740  140.0666  143.7474 LP  0  0  0  0  0  0  0  0  0  0  0  0  # atno 17320 bound_to 7965
  145.9575  139.2777  143.1175 LP  0  0  0  0  0  0  0  0  0  0  0  0  # atno 17321 bound_to 7965
  140.1940  144.4723  150.6464 LP  0  0  0  0  0  0  0  0  0  0  0  0  # atno 17342 bound_to 10162
  140.6582  143.2244  151.5918 LP  0  0  0  0  0  0  0  0  0  0  0  0  # atno 17343 bound_to 10162
  156.0101  130.5192  150.7961 LP  0  0  0  0  0  0  0  0  0  0  0  0  # atno 17370 bound_to 10713
  157.5247  131.0933  151.0033 LP  0  0  0  0  0  0  0  0  0  0  0  0  # atno 17371 bound_to 10713
  140.6915  134.4660  157.5588 LP  0  0  0  0  0  0  0  0  0  0  0  0  # atno 17394 bound_to 11000
  139.9030  134.8512  156.1817 LP  0  0  0  0  0  0  0  0  0  0  0  0  # atno 17395 bound_to 11000

$$$$
