AV-unprocessed.smi:3170|AV-procd|sdf|12108|dock2
  -GOLD-   2272017543D 1   1.00000     0.00000
 Structure written by MMmdl.
 36 37  0  0  0  0  0  0  0  0  2 V2000
  145.4562  138.3534  153.8147 O   0  0  0  0  0  0  0  0  0  0  0  0
  146.3930  137.6975  153.3586 C   0  0  0  0  0  0  0  0  0  0  0  0
  146.2564  136.4882  152.7973 N   0  0  0  0  0  0  0  0  0  0  0  0
  144.9889  135.7847  152.6420 C   0  0  0  0  0  0  0  0  0  0  0  0
  144.6460  135.5570  151.1604 C   0  0  0  0  0  0  0  0  0  0  0  0
  145.1211  134.2553  150.6903 N   0  0  0  0  0  0  0  0  0  0  0  0
  144.3870  133.2725  150.0780 C   0  0  0  0  0  0  0  0  0  0  0  0
  145.2526  132.2394  149.8252 C   0  0  0  0  0  0  0  0  0  0  0  0
  146.4767  132.6351  150.2946 N   0  3  0  0  0  0  0  0  0  0  0  0
  146.3942  133.8614  150.8212 C   0  0  0  0  0  0  0  0  0  0  0  0
  147.6700  138.1033  153.3678 N   0  0  0  0  0  0  0  0  0  0  0  0
  148.1390  139.3715  153.9161 C   0  0  0  0  0  0  0  0  0  0  0  0
  149.4316  139.2052  154.7377 C   0  0  1  0  0  0  0  0  0  0  0  0
  150.5684  138.5193  154.0057 C   0  0  0  0  0  0  0  0  0  0  0  0
  151.7734  138.9321  154.8452 C   0  0  0  0  0  0  0  0  0  0  0  0
  151.4640  140.2245  155.3591 O   0  0  0  0  0  0  0  0  0  0  0  0
  150.0902  140.5267  155.1317 C   0  0  0  0  0  0  0  0  0  0  0  0
  147.0839  136.0264  152.4490 H   0  0  0  0  0  0  0  0  0  0  0  0
  145.0252  134.8349  153.1785 H   0  0  0  0  0  0  0  0  0  0  0  0
  144.2090  136.3796  153.1179 H   0  0  0  0  0  0  0  0  0  0  0  0
  143.5675  135.5983  151.0028 H   0  0  0  0  0  0  0  0  0  0  0  0
  145.0922  136.3272  150.5291 H   0  0  0  0  0  0  0  0  0  0  0  0
  143.3312  133.3782  149.8735 H   0  0  0  0  0  0  0  0  0  0  0  0
  145.0933  131.2778  149.3594 H   0  0  0  0  0  0  0  0  0  0  0  0
  147.1974  134.4222  151.2656 H   0  0  0  0  0  0  0  0  0  0  0  0
  148.3689  137.4936  152.9693 H   0  0  0  0  0  0  0  0  0  0  0  0
  148.3075  140.0563  153.0845 H   0  0  0  0  0  0  0  0  0  0  0  0
  147.3571  139.8213  154.5304 H   0  0  0  0  0  0  0  0  0  0  0  0
  149.2177  138.6452  155.6497 H   0  0  0  0  0  0  0  0  0  0  0  0
  150.4489  137.4374  153.9411 H   0  0  0  0  0  0  0  0  0  0  0  0
  150.6648  138.9148  152.9935 H   0  0  0  0  0  0  0  0  0  0  0  0
  151.9040  138.2481  155.6845 H   0  0  0  0  0  0  0  0  0  0  0  0
  152.6990  138.9424  154.2692 H   0  0  0  0  0  0  0  0  0  0  0  0
  150.0301  141.2487  154.3160 H   0  0  0  0  0  0  0  0  0  0  0  0
  149.6303  140.9748  156.0126 H   0  0  0  0  0  0  0  0  0  0  0  0
  147.3232  132.0817  150.2517 H   0  0  0  0  0  0  0  0  0  0  0  0
  1  2  2  0  0  0  0
  2  3  1  0  0  0  0
  2 11  1  0  0  0  0
  3  4  1  0  0  0  0
  3 18  1  0  0  0  0
  4  5  1  0  0  0  0
  4 19  1  0  0  0  0
  4 20  1  0  0  0  0
  5  6  1  0  0  0  0
  5 21  1  0  0  0  0
  5 22  1  0  0  0  0
  6 10  1  0  0  0  0
  6  7  1  0  0  0  0
  7  8  2  0  0  0  0
  7 23  1  0  0  0  0
  8  9  1  0  0  0  0
  8 24  1  0  0  0  0
  9 10  2  0  0  0  0
  9 36  1  0  0  0  0
 10 25  1  0  0  0  0
 11 12  1  0  0  0  0
 11 26  1  0  0  0  0
 12 13  1  0  0  0  0
 12 27  1  0  0  0  0
 12 28  1  0  0  0  0
 13 17  1  0  0  0  0
 13 14  1  0  0  0  0
 13 29  1  0  0  0  0
 14 15  1  0  0  0  0
 14 30  1  0  0  0  0
 14 31  1  0  0  0  0
 15 16  1  0  0  0  0
 15 32  1  0  0  0  0
 15 33  1  0  0  0  0
 16 17  1  0  0  0  0
 17 34  1  0  0  0  0
 17 35  1  0  0  0  0
M  CHG  1   9   1
M  END
> <s_m_source_file>
AV-unprocessed.smi

> <i_m_source_file_index>
3170

> <i_lp_mmshare_version>
43012

> <i_f3d_flags>
0

> <s_epik_input>
W0NIMl0xT1tDSDJdW0NIMl1bQ0BIXTFbQ0gyXVtOSF1DKD1PKVtOSF1bQ0gyXVtDSDJdbjJbY0hdW2NIXW5bY0hdMg==

> <s_epik_cmdline>
J2VwaWtfcHl0aG9uJywgJy1waCcsICc3LjAnLCAnLXRuJywgJzgnLCAnLW1hJywgJzIwMCcsICctbWV0YWxfYmluZGluZycsICctaW1hZScsICc8aW5maWxlLm1hZT4nLCAnLW9tYWUnLCAnPG91dGZpbGUubWFlPic=

> <r_lp_tautomer_probability>
1

> <r_epik_Ionization_Penalty>
0.255699

> <r_epik_Ionization_Penalty_Charging>
0

> <r_epik_Ionization_Penalty_Neutral>
0.255699

> <r_epik_State_Penalty>
0.247169

> <r_epik_Charging_Adjusted_Penalty>
0.247169

> <i_epik_Tot_Q>
1

> <i_epik_Tot_abs_Q>
1

> <r_epik_Metal_State_Penalty>
0.536793

> <b_epik_Metal_Only>
0

> <s_lp_Force_Field>
OPLS_2005

> <r_lp_Energy>
18.8209

> <b_lp_Chiralities_Consistent>
1

> <s_lp_Variant>
AV-unprocessed.smi:3170-2

> <Gold.Version>
5.8.1

> <Gold.Id.Protein>
6NUR|6NUR_protein|mol2

> <Gold.PLP.Fitness>
45.5199

> <Gold.PLP.PLP>
-31.6791

> <Gold.PLP.part.hbond>
-3.9433

> <Gold.PLP.part.metal>
0.0000

> <Gold.PLP.part.buried>
-4.6781

> <Gold.PLP.part.nonpolar>
-23.4509

> <Gold.PLP.part.repulsive>
0.7341

> <Gold.PLP.ligand.clash>
0.0000

> <Gold.PLP.ligand.torsion>
0.4021

> <Gold.PLP.Chemscore.Hbond>
2.9865

> <Gold.PLP.Chemscore.CHOScore>
1.8753

> <Gold.PLP.Chemscore.Metal>
0.0000

> <Gold.Chemscore.Hbonds>
donor molecule, donor type, donor heavy atom, donor atom, acceptor molecule, acceptor atom, score
      L1  H     3    18       P1  7948  0.94
      L1  H     9    36       P1 10747  0.96
      L1  H    11    26       P1  7948  1.00
      P1  H  7989  7998       L1    16  0.05
      L1  C     7    23       P1 10186  0.91
      L1  C    10    25       P1  7948  1.00

> <Gold.PLP.Chemscore.Internal.Correction>
0.0598

> <Gold.Rescore>
     Score         DG    S(hbond)    S(metal)    S(lipo)     H(rot)  DE(clash)    DE(int)     intcor
     16.22     -16.64       2.94        0.00      62.52       2.33       0.04       0.38       ----

> <Gold.Chemscore.Fitness>
16.2240

> <Gold.Chemscore.DG>
-16.6447

> <Gold.Chemscore.ZeroCoef>
-5.4800

> <Gold.Chemscore.Hbond>
2.9377

> <Gold.Chemscore.Metal>
0.0000

> <Gold.Chemscore.Lipo>
62.5158

> <Gold.Chemscore.Internal_Hbond>
0.0000

> <Gold.Chemscore.DEClash>
0.0418

> <Gold.Chemscore.DEInternal>
0.3788

> <Gold.Chemscore.Rot>
2.3288

> <Gold.Chemscore.Internal.Correction>
   9.000000E+99

> <Gold.Chemscore.Hbonds>
donor molecule, donor type, donor heavy atom, donor atom, acceptor molecule, acceptor atom, score
      L1  H     3    18       P1  7948  0.90
      L1  H     9    36       P1 10747  0.91
      L1  H    11    26       P1  7948  0.98

> <Gold.Chemscore.Hbond.Weighted>
-9.8120

> <Gold.Chemscore.Metal.Weighted>
-0.0000

> <Gold.Chemscore.Lipo.Weighted>
-7.3143

> <Gold.Chemscore.Internal_Hbond.Weighted>
0.0000

> <Gold.Chemscore.DEClash.Weighted>
0.0418

> <Gold.Chemscore.DEInternal.Weighted>
0.3788

> <Gold.Chemscore.Rot.Weighted>
5.9617

> <Gold.Chemscore.Internal.Correction.Weighted>
   9.000000E+99

> <Gold.Protein.RotatedTorsions>
[ 6907 6896 6895 6894 ] final -158.93 input  -60.11 | X-H torsion
[ 7974 7965 7964 7962 ] final    9.67 input  175.53 | X-H torsion
[ 8008 7997 7996 7995 ] final  137.54 input   59.86 | X-H torsion
[ 10167 10162 10161 10158 ] final -145.19 input  -65.29 | X-H torsion
[ 10718 10713 10712 10709 ] final  126.50 input   66.30 | X-H torsion
[ 10763 10752 10751 10750 ] final -101.85 input  -60.55 | X-H torsion
[ 11005 11000 10999 10996 ] final   91.85 input  -57.11 | X-H torsion

> <Gold.Protein.ActiveResidues>
 VAL166  LYS551  ARG553  GLY616  TRP617  ASP618  TYR619  PRO620  LYS621  CYS622 
 ASP623  PHE694  ASN695  SER759  ASP760  ASP761  ALA762  ILE779  LEU786  VAL792 
 PHE793  MET794  SER795  GLU796  ALA797  LYS798  CYS799  TRP800  GLU811  SER814 

> <Gold.Protein.RotatedAtoms>
  151.3258  133.4021  159.2658 H   0  0  0  0  0  0  0  0  0  0  0  0  # atno 6907 bound_to 6896
  150.9997  134.9312  159.7957 H   0  0  0  0  0  0  0  0  0  0  0  0  # atno 6908 bound_to 6896
  152.5271  134.3223  159.9205 H   0  0  0  0  0  0  0  0  0  0  0  0  # atno 6909 bound_to 6896
  146.2400  139.9748  142.8443 H   0  0  0  0  0  0  0  0  0  0  0  0  # atno 7974 bound_to 7965
  156.3001  140.2417  156.3926 H   0  0  0  0  0  0  0  0  0  0  0  0  # atno 8008 bound_to 7997
  154.8600  140.0420  157.1679 H   0  0  0  0  0  0  0  0  0  0  0  0  # atno 8009 bound_to 7997
  154.8907  140.2963  155.5376 H   0  0  0  0  0  0  0  0  0  0  0  0  # atno 8010 bound_to 7997
  139.7829  143.8076  152.2641 H   0  0  0  0  0  0  0  0  0  0  0  0  # atno 10167 bound_to 10162
  157.5413  131.1097  150.8853 H   0  0  0  0  0  0  0  0  0  0  0  0  # atno 10718 bound_to 10713
  154.7689  135.4882  153.9609 H   0  0  0  0  0  0  0  0  0  0  0  0  # atno 10763 bound_to 10752
  153.1343  135.6759  153.9136 H   0  0  0  0  0  0  0  0  0  0  0  0  # atno 10764 bound_to 10752
  153.8830  135.3130  155.3424 H   0  0  0  0  0  0  0  0  0  0  0  0  # atno 10765 bound_to 10752
  139.8832  134.8698  156.3487 H   0  0  0  0  0  0  0  0  0  0  0  0  # atno 11005 bound_to 11000
  145.1647  140.9690  143.4357 LP  0  0  0  0  0  0  0  0  0  0  0  0  # atno 17320 bound_to 7965
  145.0084  139.3533  143.6132 LP  0  0  0  0  0  0  0  0  0  0  0  0  # atno 17321 bound_to 7965
  139.8144  144.7322  150.9655 LP  0  0  0  0  0  0  0  0  0  0  0  0  # atno 17342 bound_to 10162
  140.7819  143.4219  151.0827 LP  0  0  0  0  0  0  0  0  0  0  0  0  # atno 17343 bound_to 10162
  156.9405  130.5383  149.5280 LP  0  0  0  0  0  0  0  0  0  0  0  0  # atno 17370 bound_to 10713
  156.0499  130.5570  150.8966 LP  0  0  0  0  0  0  0  0  0  0  0  0  # atno 17371 bound_to 10713
  140.9609  133.7389  156.0400 LP  0  0  0  0  0  0  0  0  0  0  0  0  # atno 17394 bound_to 11000
  140.7991  134.3530  157.5444 LP  0  0  0  0  0  0  0  0  0  0  0  0  # atno 17395 bound_to 11000

$$$$
