AV-unprocessed.smi:1496|AV-procd|sdf|6055|dock2
  -GOLD-   22720 6173D 1   1.00000     0.00000
 Structure written by MMmdl.
 42 43  0  0  0  0  0  0  0  0  1 V2000
  150.6876  138.6079  156.5372 C   0  0  0  0  0  0  0  0  0  0  0  0
  150.9174  139.0625  155.0808 C   0  0  0  0  0  0  0  0  0  0  0  0
  152.1716  138.3719  154.5230 C   0  0  0  0  0  0  0  0  0  0  0  0
  149.6985  138.7447  154.1824 C   0  0  0  0  0  0  0  0  0  0  0  0
  148.5379  139.5822  154.4768 N   0  0  0  0  0  0  0  0  0  0  0  0
  147.3911  139.2778  153.6206 C   0  0  0  0  0  0  0  0  0  0  0  0
  146.5931  138.0172  154.0094 C   0  0  0  0  0  0  0  0  0  0  0  0
  146.8028  136.9253  153.0642 N   0  0  0  0  0  0  0  0  0  0  0  0
  145.8552  136.0750  152.6463 C   0  0  0  0  0  0  0  0  0  0  0  0
  144.6778  136.1484  152.9964 O   0  0  0  0  0  0  0  0  0  0  0  0
  146.3647  135.1614  151.8021 N   0  0  0  0  0  0  0  0  0  0  0  0
  145.7092  134.0831  151.1469 C   0  0  0  0  0  0  0  0  0  0  0  0
  144.3104  133.9963  150.9419 C   0  0  0  0  0  0  0  0  0  0  0  0
  143.7881  132.8631  150.2891 C   0  0  0  0  0  0  0  0  0  0  0  0
  144.6794  131.8560  149.8714 C   0  0  0  0  0  0  0  0  0  0  0  0
  146.0126  131.9196  150.0697 N   0  0  0  0  0  0  0  0  0  0  0  0
  146.5059  133.0091  150.6960 C   0  0  0  0  0  0  0  0  0  0  0  0
  148.9226  140.9817  154.3612 C   0  0  0  0  0  0  0  0  0  0  0  0
  150.0928  141.3274  155.2928 C   0  0  0  0  0  0  0  0  0  0  0  0
  151.1972  140.4652  155.0284 O   0  0  0  0  0  0  0  0  0  0  0  0
  150.5629  137.5261  156.5938 H   0  0  0  0  0  0  0  0  0  0  0  0
  149.7941  139.0542  156.9729 H   0  0  0  0  0  0  0  0  0  0  0  0
  151.5333  138.8762  157.1709 H   0  0  0  0  0  0  0  0  0  0  0  0
  152.0542  137.2878  154.5082 H   0  0  0  0  0  0  0  0  0  0  0  0
  153.0506  138.6019  155.1261 H   0  0  0  0  0  0  0  0  0  0  0  0
  152.3805  138.6960  153.5029 H   0  0  0  0  0  0  0  0  0  0  0  0
  149.9783  138.8793  153.1361 H   0  0  0  0  0  0  0  0  0  0  0  0
  149.4450  137.6911  154.2971 H   0  0  0  0  0  0  0  0  0  0  0  0
  146.7034  140.1244  153.6393 H   0  0  0  0  0  0  0  0  0  0  0  0
  147.7197  139.1892  152.5841 H   0  0  0  0  0  0  0  0  0  0  0  0
  146.8754  137.6959  155.0134 H   0  0  0  0  0  0  0  0  0  0  0  0
  145.5261  138.2332  154.0569 H   0  0  0  0  0  0  0  0  0  0  0  0
  147.7444  136.7932  152.7253 H   0  0  0  0  0  0  0  0  0  0  0  0
  147.3403  135.2752  151.5688 H   0  0  0  0  0  0  0  0  0  0  0  0
  143.6273  134.7600  151.2780 H   0  0  0  0  0  0  0  0  0  0  0  0
  142.7265  132.7666  150.1164 H   0  0  0  0  0  0  0  0  0  0  0  0
  144.3110  130.9737  149.3694 H   0  0  0  0  0  0  0  0  0  0  0  0
  147.5767  133.0242  150.8393 H   0  0  0  0  0  0  0  0  0  0  0  0
  149.2007  141.2061  153.3303 H   0  0  0  0  0  0  0  0  0  0  0  0
  148.0729  141.6217  154.6020 H   0  0  0  0  0  0  0  0  0  0  0  0
  150.4073  142.3588  155.1336 H   0  0  0  0  0  0  0  0  0  0  0  0
  149.7912  141.2517  156.3377 H   0  0  0  0  0  0  0  0  0  0  0  0
  1  2  1  0  0  0  0
  1 21  1  0  0  0  0
  1 22  1  0  0  0  0
  1 23  1  0  0  0  0
  2 20  1  0  0  0  0
  2  3  1  0  0  0  0
  2  4  1  0  0  0  0
  3 24  1  0  0  0  0
  3 25  1  0  0  0  0
  3 26  1  0  0  0  0
  4  5  1  0  0  0  0
  4 27  1  0  0  0  0
  4 28  1  0  0  0  0
  5  6  1  0  0  0  0
  5 18  1  0  0  0  0
  6  7  1  0  0  0  0
  6 29  1  0  0  0  0
  6 30  1  0  0  0  0
  7  8  1  0  0  0  0
  7 31  1  0  0  0  0
  7 32  1  0  0  0  0
  8  9  1  0  0  0  0
  8 33  1  0  0  0  0
  9 10  2  0  0  0  0
  9 11  1  0  0  0  0
 11 12  1  0  0  0  0
 11 34  1  0  0  0  0
 12 17  1  0  0  0  0
 12 13  2  0  0  0  0
 13 14  1  0  0  0  0
 13 35  1  0  0  0  0
 14 15  2  0  0  0  0
 14 36  1  0  0  0  0
 15 16  1  0  0  0  0
 15 37  1  0  0  0  0
 16 17  2  0  0  0  0
 17 38  1  0  0  0  0
 18 19  1  0  0  0  0
 18 39  1  0  0  0  0
 18 40  1  0  0  0  0
 19 20  1  0  0  0  0
 19 41  1  0  0  0  0
 19 42  1  0  0  0  0
M  END
> <s_m_source_file>
AV-unprocessed.smi

> <i_m_source_file_index>
1496

> <i_lp_mmshare_version>
43012

> <i_f3d_flags>
0

> <s_epik_input>
W0NIM11DMShbQ0gzXSlbQ0gyXU4oW0NIMl1bQ0gyXU8xKVtDSDJdW0NIMl1bTkhdQyg9TylbTkhdYzJbY0hdW2NIXVtjSF1uW2NIXTI=

> <s_epik_cmdline>
J2VwaWtfcHl0aG9uJywgJy1waCcsICc3LjAnLCAnLXRuJywgJzgnLCAnLW1hJywgJzIwMCcsICctbWV0YWxfYmluZGluZycsICctaW1hZScsICc8aW5maWxlLm1hZT4nLCAnLW9tYWUnLCAnPG91dGZpbGUubWFlPic=

> <r_epik_Ionization_Penalty>
0.270703

> <r_epik_Ionization_Penalty_Charging>
0

> <r_epik_Ionization_Penalty_Neutral>
0.270703

> <r_epik_State_Penalty>
0.268226

> <r_epik_Charging_Adjusted_Penalty>
0.268226

> <i_epik_Tot_Q>
0

> <i_epik_Tot_abs_Q>
0

> <r_epik_Metal_State_Penalty>
0.26483

> <b_epik_Metal_Only>
0

> <s_lp_Force_Field>
OPLS_2005

> <r_lp_Energy>
30.2545

> <b_lp_Chiralities_Consistent>
1

> <s_lp_Variant>
AV-unprocessed.smi:1496-1

> <Gold.Version>
5.8.1

> <Gold.Id.Protein>
6NUR|6NUR_protein|mol2

> <Gold.PLP.Fitness>
43.5886

> <Gold.PLP.PLP>
-34.3018

> <Gold.PLP.part.hbond>
-3.0000

> <Gold.PLP.part.metal>
0.0000

> <Gold.PLP.part.buried>
-3.5926

> <Gold.PLP.part.nonpolar>
-28.3880

> <Gold.PLP.part.repulsive>
0.5110

> <Gold.PLP.ligand.clash>
0.0000

> <Gold.PLP.ligand.torsion>
0.7644

> <Gold.PLP.Chemscore.Hbond>
2.9920

> <Gold.PLP.Chemscore.CHOScore>
0.6052

> <Gold.PLP.Chemscore.Metal>
0.0000

> <Gold.Chemscore.Hbonds>
donor molecule, donor type, donor heavy atom, donor atom, acceptor molecule, acceptor atom, score
      L1  H     8    33       P1  7948  1.00
      L1  H    11    34       P1  7948  0.99
      P1  H  7989  7998       L1    20  1.00
      L1  C    17    38       P1 10747  0.59

> <Gold.PLP.Chemscore.Internal.Correction>
0.0239

> <Gold.Rescore>
     Score         DG    S(hbond)    S(metal)    S(lipo)     H(rot)  DE(clash)    DE(int)     intcor
     18.41     -20.33       2.31        0.00      93.05       1.46       0.12       1.79       ----

> <Gold.Chemscore.Fitness>
18.4099

> <Gold.Chemscore.DG>
-20.3255

> <Gold.Chemscore.ZeroCoef>
-5.4800

> <Gold.Chemscore.Hbond>
2.3063

> <Gold.Chemscore.Metal>
0.0000

> <Gold.Chemscore.Lipo>
93.0490

> <Gold.Chemscore.Internal_Hbond>
0.0000

> <Gold.Chemscore.DEClash>
0.1235

> <Gold.Chemscore.DEInternal>
1.7921

> <Gold.Chemscore.Rot>
1.4627

> <Gold.Chemscore.Internal.Correction>
   9.000000E+99

> <Gold.Chemscore.Hbonds>
donor molecule, donor type, donor heavy atom, donor atom, acceptor molecule, acceptor atom, score
      L1  H     8    33       P1  7948  0.97
      L1  H    11    34       P1  7948  0.85
      P1  H  7989  7998       L1    20  0.28

> <Gold.Chemscore.Hbond.Weighted>
-7.7032

> <Gold.Chemscore.Metal.Weighted>
-0.0000

> <Gold.Chemscore.Lipo.Weighted>
-10.8867

> <Gold.Chemscore.Internal_Hbond.Weighted>
0.0000

> <Gold.Chemscore.DEClash.Weighted>
0.1235

> <Gold.Chemscore.DEInternal.Weighted>
1.7921

> <Gold.Chemscore.Rot.Weighted>
3.7444

> <Gold.Chemscore.Internal.Correction.Weighted>
   9.000000E+99

> <Gold.Protein.RotatedTorsions>
[ 6907 6896 6895 6894 ] final -155.58 input  -60.11 | X-H torsion
[ 7974 7965 7964 7962 ] final  176.55 input  175.53 | X-H torsion
[ 8008 7997 7996 7995 ] final  -78.90 input   59.86 | X-H torsion
[ 10167 10162 10161 10158 ] final -117.88 input  -65.29 | X-H torsion
[ 10718 10713 10712 10709 ] final   91.28 input   66.30 | X-H torsion
[ 10763 10752 10751 10750 ] final  -31.07 input  -60.55 | X-H torsion
[ 11005 11000 10999 10996 ] final   36.67 input  -57.11 | X-H torsion

> <Gold.Protein.ActiveResidues>
 VAL166  LYS551  ARG553  GLY616  TRP617  ASP618  TYR619  PRO620  LYS621  CYS622 
 ASP623  PHE694  ASN695  SER759  ASP760  ASP761  ALA762  ILE779  LEU786  VAL792 
 PHE793  MET794  SER795  GLU796  ALA797  LYS798  CYS799  TRP800  GLU811  SER814 

> <Gold.Protein.RotatedAtoms>
  151.2746  133.4238  159.2623 H   0  0  0  0  0  0  0  0  0  0  0  0  # atno 6907 bound_to 6896
  151.0414  134.9610  159.8174 H   0  0  0  0  0  0  0  0  0  0  0  0  # atno 6908 bound_to 6896
  152.5366  134.2704  159.9022 H   0  0  0  0  0  0  0  0  0  0  0  0  # atno 6909 bound_to 6896
  144.7182  140.0113  143.6440 H   0  0  0  0  0  0  0  0  0  0  0  0  # atno 7974 bound_to 7965
  154.5733  140.0687  156.8997 H   0  0  0  0  0  0  0  0  0  0  0  0  # atno 8008 bound_to 7997
  155.2594  140.3357  155.4256 H   0  0  0  0  0  0  0  0  0  0  0  0  # atno 8009 bound_to 7997
  156.2135  140.1769  156.7627 H   0  0  0  0  0  0  0  0  0  0  0  0  # atno 8010 bound_to 7997
  140.0636  143.4945  152.2018 H   0  0  0  0  0  0  0  0  0  0  0  0  # atno 10167 bound_to 10162
  157.6960  131.0401  150.3705 H   0  0  0  0  0  0  0  0  0  0  0  0  # atno 10718 bound_to 10713
  153.7913  135.6897  153.4871 H   0  0  0  0  0  0  0  0  0  0  0  0  # atno 10763 bound_to 10752
  153.1748  135.4529  154.9948 H   0  0  0  0  0  0  0  0  0  0  0  0  # atno 10764 bound_to 10752
  154.8043  135.3350  154.7409 H   0  0  0  0  0  0  0  0  0  0  0  0  # atno 10765 bound_to 10752
  140.2302  134.3536  155.7967 H   0  0  0  0  0  0  0  0  0  0  0  0  # atno 11005 bound_to 11000
  146.0256  139.3289  143.0786 LP  0  0  0  0  0  0  0  0  0  0  0  0  # atno 17320 bound_to 7965
  145.8516  140.9526  143.0747 LP  0  0  0  0  0  0  0  0  0  0  0  0  # atno 17321 bound_to 7965
  139.5879  144.7538  151.3474 LP  0  0  0  0  0  0  0  0  0  0  0  0  # atno 17342 bound_to 10162
  140.7160  143.7265  150.7656 LP  0  0  0  0  0  0  0  0  0  0  0  0  # atno 17343 bound_to 10162
  156.4131  130.3938  149.6878 LP  0  0  0  0  0  0  0  0  0  0  0  0  # atno 17370 bound_to 10713
  156.4155  130.7743  151.2758 LP  0  0  0  0  0  0  0  0  0  0  0  0  # atno 17371 bound_to 10713
  141.2218  133.7241  156.8719 LP  0  0  0  0  0  0  0  0  0  0  0  0  # atno 17394 bound_to 11000
  140.1758  134.9068  157.2889 LP  0  0  0  0  0  0  0  0  0  0  0  0  # atno 17395 bound_to 11000

$$$$
