AV-unprocessed.smi:758|AV-procd|sdf|3617|dock3
  -GOLD-   22720 1 13D 1   1.00000     0.00000
 Structure written by MMmdl.
 47 48  0  0  0  0  0  0  0  0  1 V2000
  153.4015  143.7460  158.9515 C   0  0  0  0  0  0  0  0  0  0  0  0
  152.2088  143.1396  159.7227 C   0  0  0  0  0  0  0  0  0  0  0  0
  152.6347  142.9312  161.1934 C   0  0  0  0  0  0  0  0  0  0  0  0
  151.0589  144.1719  159.7352 C   0  0  0  0  0  0  0  0  0  0  0  0
  151.7219  141.7852  159.0981 C   0  0  2  0  0  0  0  0  0  0  0  0
  152.7583  140.6369  159.1808 C   0  0  0  0  0  0  0  0  0  0  0  0
  152.1905  139.3039  158.6625 C   0  0  0  0  0  0  0  0  0  0  0  0
  151.6469  139.3924  157.2203 C   0  0  1  0  0  0  0  0  0  0  0  0
  152.7518  139.6185  156.3626 O   0  0  0  0  0  0  0  0  0  0  0  0
  151.0194  138.0343  156.8175 C   0  0  0  0  0  0  0  0  0  0  0  0
  149.9714  138.1629  155.8083 N   0  0  0  0  0  0  0  0  0  0  0  0
  150.0693  138.8834  154.6808 C   0  0  0  0  0  0  0  0  0  0  0  0
  151.0895  139.4846  154.3445 O   0  0  0  0  0  0  0  0  0  0  0  0
  148.8166  138.9550  153.8066 C   0  0  0  0  0  0  0  0  0  0  0  0
  148.1471  140.2350  153.9590 N   0  0  0  0  0  0  0  0  0  0  0  0
  147.0413  140.7142  153.3840 C   0  0  0  0  0  0  0  0  0  0  0  0
  146.7321  141.9471  153.7610 N   0  0  0  0  0  0  0  0  0  0  0  0
  147.7623  142.1856  154.6265 C   0  0  0  0  0  0  0  0  0  0  0  0
  148.6415  141.1948  154.7761 N   0  0  0  0  0  0  0  0  0  0  0  0
  150.6541  140.5726  157.1035 C   0  0  0  0  0  0  0  0  0  0  0  0
  151.2261  141.8992  157.6348 C   0  0  0  0  0  0  0  0  0  0  0  0
  153.7214  144.6849  159.4046 H   0  0  0  0  0  0  0  0  0  0  0  0
  153.1496  143.9648  157.9142 H   0  0  0  0  0  0  0  0  0  0  0  0
  154.2670  143.0840  158.9511 H   0  0  0  0  0  0  0  0  0  0  0  0
  153.5411  142.3329  161.2798 H   0  0  0  0  0  0  0  0  0  0  0  0
  151.8513  142.4375  161.7694 H   0  0  0  0  0  0  0  0  0  0  0  0
  152.8476  143.8818  161.6838 H   0  0  0  0  0  0  0  0  0  0  0  0
  151.3392  145.0720  160.2841 H   0  0  0  0  0  0  0  0  0  0  0  0
  150.1649  143.7676  160.2114 H   0  0  0  0  0  0  0  0  0  0  0  0
  150.7854  144.4981  158.7322 H   0  0  0  0  0  0  0  0  0  0  0  0
  150.8620  141.4670  159.6903 H   0  0  0  0  0  0  0  0  0  0  0  0
  153.6524  140.8909  158.6116 H   0  0  0  0  0  0  0  0  0  0  0  0
  153.0839  140.4781  160.2074 H   0  0  0  0  0  0  0  0  0  0  0  0
  152.9566  138.5300  158.7298 H   0  0  0  0  0  0  0  0  0  0  0  0
  151.3883  138.9887  159.3313 H   0  0  0  0  0  0  0  0  0  0  0  0
  152.8719  138.8555  155.8180 H   0  0  0  0  0  0  0  0  0  0  0  0
  151.7891  137.3274  156.5012 H   0  0  0  0  0  0  0  0  0  0  0  0
  150.5473  137.5838  157.6913 H   0  0  0  0  0  0  0  0  0  0  0  0
  149.0950  137.7003  156.0012 H   0  0  0  0  0  0  0  0  0  0  0  0
  149.0953  138.8086  152.7618 H   0  0  0  0  0  0  0  0  0  0  0  0
  148.1143  138.1618  154.0678 H   0  0  0  0  0  0  0  0  0  0  0  0
  146.4503  140.1499  152.6778 H   0  0  0  0  0  0  0  0  0  0  0  0
  147.8699  143.1191  155.1587 H   0  0  0  0  0  0  0  0  0  0  0  0
  150.3437  140.7127  156.0677 H   0  0  0  0  0  0  0  0  0  0  0  0
  149.7478  140.3339  157.6616 H   0  0  0  0  0  0  0  0  0  0  0  0
  150.4462  142.6534  157.5456 H   0  0  0  0  0  0  0  0  0  0  0  0
  152.0393  142.2208  156.9841 H   0  0  0  0  0  0  0  0  0  0  0  0
  1  2  1  0  0  0  0
  1 22  1  0  0  0  0
  1 23  1  0  0  0  0
  1 24  1  0  0  0  0
  2  3  1  0  0  0  0
  2  4  1  0  0  0  0
  2  5  1  0  0  0  0
  3 25  1  0  0  0  0
  3 26  1  0  0  0  0
  3 27  1  0  0  0  0
  4 28  1  0  0  0  0
  4 29  1  0  0  0  0
  4 30  1  0  0  0  0
  5 21  1  0  0  0  0
  5  6  1  0  0  0  0
  5 31  1  0  0  0  0
  6  7  1  0  0  0  0
  6 32  1  0  0  0  0
  6 33  1  0  0  0  0
  7  8  1  0  0  0  0
  7 34  1  0  0  0  0
  7 35  1  0  0  0  0
  8  9  1  0  0  0  0
  8 10  1  0  0  0  0
  8 20  1  0  0  0  0
  9 36  1  0  0  0  0
 10 11  1  0  0  0  0
 10 37  1  0  0  0  0
 10 38  1  0  0  0  0
 11 12  1  0  0  0  0
 11 39  1  0  0  0  0
 12 13  2  0  0  0  0
 12 14  1  0  0  0  0
 14 15  1  0  0  0  0
 14 40  1  0  0  0  0
 14 41  1  0  0  0  0
 15 19  1  0  0  0  0
 15 16  1  0  0  0  0
 16 17  2  0  0  0  0
 16 42  1  0  0  0  0
 17 18  1  0  0  0  0
 18 19  2  0  0  0  0
 18 43  1  0  0  0  0
 20 21  1  0  0  0  0
 20 44  1  0  0  0  0
 20 45  1  0  0  0  0
 21 46  1  0  0  0  0
 21 47  1  0  0  0  0
M  END
> <s_m_source_file>
AV-unprocessed.smi

> <i_m_source_file_index>
758

> <i_lp_mmshare_version>
43012

> <i_f3d_flags>
0

> <s_epik_input>
W0NIM11DKFtDSDNdKShbQ0gzXSlbQ0BASF0oW0NIMl1bQ0gyXTEpW0NIMl1bQ0gyXVtDQEBdMShbT0hdKVtDSDJdW05IXUMoPU8pW0NIMl1uMltjSF1uW2NIXW4y

> <s_epik_cmdline>
J2VwaWtfcHl0aG9uJywgJy1waCcsICc3LjAnLCAnLXRuJywgJzgnLCAnLW1hJywgJzIwMCcsICctbWV0YWxfYmluZGluZycsICctaW1hZScsICc8aW5maWxlLm1hZT4nLCAnLW9tYWUnLCAnPG91dGZpbGUubWFlPic=

> <r_lp_tautomer_probability>
1

> <r_epik_Ionization_Penalty>
1.04836e-05

> <r_epik_Ionization_Penalty_Charging>
0

> <r_epik_Ionization_Penalty_Neutral>
1.04836e-05

> <r_epik_State_Penalty>
-0

> <r_epik_Charging_Adjusted_Penalty>
0

> <i_epik_Tot_Q>
0

> <i_epik_Tot_abs_Q>
0

> <r_epik_Metal_State_Penalty>
-0

> <b_epik_Metal_Only>
0

> <s_lp_Force_Field>
OPLS_2005

> <r_lp_Energy>
23.8221

> <b_lp_Chiralities_Consistent>
1

> <s_lp_Variant>
AV-unprocessed.smi:758-1

> <Gold.Version>
5.8.1

> <Gold.Id.Protein>
6NUR|6NUR_protein|mol2

> <Gold.PLP.Fitness>
45.1972

> <Gold.PLP.PLP>
-35.0981

> <Gold.PLP.part.hbond>
-2.0000

> <Gold.PLP.part.metal>
0.0000

> <Gold.PLP.part.buried>
-3.5489

> <Gold.PLP.part.nonpolar>
-29.8237

> <Gold.PLP.part.repulsive>
0.4451

> <Gold.PLP.ligand.clash>
0.0000

> <Gold.PLP.ligand.torsion>
0.8450

> <Gold.PLP.Chemscore.Hbond>
2.0000

> <Gold.PLP.Chemscore.CHOScore>
1.9047

> <Gold.PLP.Chemscore.Metal>
0.0000

> <Gold.Chemscore.Hbonds>
donor molecule, donor type, donor heavy atom, donor atom, acceptor molecule, acceptor atom, score
      P1  H  7989  7998       L1    13  1.00
      P1  H  7997  8008       L1     9  1.00
      L1  C    16    42       P1 10175  0.30
      L1  C    18    43       P1  8028  0.75

> <Gold.PLP.Chemscore.Internal.Correction>
0.0750

> <Gold.Rescore>
     Score         DG    S(hbond)    S(metal)    S(lipo)     H(rot)  DE(clash)    DE(int)     intcor
     11.01     -15.04       1.94        0.00      95.61       3.17       0.44       3.60       ----

> <Gold.Chemscore.Fitness>
11.0052

> <Gold.Chemscore.DG>
-15.0411

> <Gold.Chemscore.ZeroCoef>
-5.4800

> <Gold.Chemscore.Hbond>
1.9404

> <Gold.Chemscore.Metal>
0.0000

> <Gold.Chemscore.Lipo>
95.6067

> <Gold.Chemscore.Internal_Hbond>
0.0000

> <Gold.Chemscore.DEClash>
0.4383

> <Gold.Chemscore.DEInternal>
3.5977

> <Gold.Chemscore.Rot>
3.1663

> <Gold.Chemscore.Internal.Correction>
   9.000000E+99

> <Gold.Chemscore.Hbonds>
donor molecule, donor type, donor heavy atom, donor atom, acceptor molecule, acceptor atom, score
      P1  H  7989  7998       L1    13  1.00
      P1  H  7997  8008       L1     9  0.26

> <Gold.Chemscore.Hbond.Weighted>
-6.4808

> <Gold.Chemscore.Metal.Weighted>
-0.0000

> <Gold.Chemscore.Lipo.Weighted>
-11.1860

> <Gold.Chemscore.Internal_Hbond.Weighted>
0.0000

> <Gold.Chemscore.DEClash.Weighted>
0.4383

> <Gold.Chemscore.DEInternal.Weighted>
3.5977

> <Gold.Chemscore.Rot.Weighted>
8.1056

> <Gold.Chemscore.Internal.Correction.Weighted>
   9.000000E+99

> <Gold.Protein.RotatedTorsions>
[ 6907 6896 6895 6894 ] final   62.02 input  -60.11 | X-H torsion
[ 7974 7965 7964 7962 ] final    2.10 input  175.53 | X-H torsion
[ 8008 7997 7996 7995 ] final  -57.33 input   59.86 | X-H torsion
[ 10167 10162 10161 10158 ] final -119.30 input  -65.29 | X-H torsion
[ 10718 10713 10712 10709 ] final   51.75 input   66.30 | X-H torsion
[ 10763 10752 10751 10750 ] final   72.65 input  -60.55 | X-H torsion
[ 11005 11000 10999 10996 ] final    2.50 input  -57.11 | X-H torsion

> <Gold.Protein.ActiveResidues>
 VAL166  LYS551  ARG553  GLY616  TRP617  ASP618  TYR619  PRO620  LYS621  CYS622 
 ASP623  PHE694  ASN695  SER759  ASP760  ASP761  ALA762  ILE779  LEU786  VAL792 
 PHE793  MET794  SER795  GLU796  ALA797  LYS798  CYS799  TRP800  GLU811  SER814 

> <Gold.Protein.RotatedAtoms>
  152.4137  134.6079  160.0017 H   0  0  0  0  0  0  0  0  0  0  0  0  # atno 6907 bound_to 6896
  151.6249  133.3330  159.3104 H   0  0  0  0  0  0  0  0  0  0  0  0  # atno 6908 bound_to 6896
  150.8027  134.7171  159.6681 H   0  0  0  0  0  0  0  0  0  0  0  0  # atno 6909 bound_to 6896
  146.2443  140.0888  142.8353 H   0  0  0  0  0  0  0  0  0  0  0  0  # atno 7974 bound_to 7965
  154.4264  140.1109  156.5779 H   0  0  0  0  0  0  0  0  0  0  0  0  # atno 8008 bound_to 7997
  155.6143  140.3494  155.4613 H   0  0  0  0  0  0  0  0  0  0  0  0  # atno 8009 bound_to 7997
  156.0075  140.1212  157.0477 H   0  0  0  0  0  0  0  0  0  0  0  0  # atno 8010 bound_to 7997
  140.0481  143.5087  152.2096 H   0  0  0  0  0  0  0  0  0  0  0  0  # atno 10167 bound_to 10162
  157.5010  130.8438  149.8317 H   0  0  0  0  0  0  0  0  0  0  0  0  # atno 10718 bound_to 10713
  153.0472  135.5092  154.7775 H   0  0  0  0  0  0  0  0  0  0  0  0  # atno 10763 bound_to 10752
  154.6666  135.2946  154.9799 H   0  0  0  0  0  0  0  0  0  0  0  0  # atno 10764 bound_to 10752
  154.0632  135.6688  153.4867 H   0  0  0  0  0  0  0  0  0  0  0  0  # atno 10765 bound_to 10752
  140.6036  133.9813  155.8143 H   0  0  0  0  0  0  0  0  0  0  0  0  # atno 11005 bound_to 11000
  145.0669  140.9127  143.4905 LP  0  0  0  0  0  0  0  0  0  0  0  0  # atno 17320 bound_to 7965
  145.1014  139.2820  143.5684 LP  0  0  0  0  0  0  0  0  0  0  0  0  # atno 17321 bound_to 7965
  139.5970  144.7570  151.3261 LP  0  0  0  0  0  0  0  0  0  0  0  0  # atno 17342 bound_to 10162
  140.7229  143.7085  150.7788 LP  0  0  0  0  0  0  0  0  0  0  0  0  # atno 17343 bound_to 10162
  156.0229  130.3789  150.1908 LP  0  0  0  0  0  0  0  0  0  0  0  0  # atno 17370 bound_to 10713
  157.0097  130.9947  151.3369 LP  0  0  0  0  0  0  0  0  0  0  0  0  # atno 17371 bound_to 10713
  141.0856  133.9996  157.3319 LP  0  0  0  0  0  0  0  0  0  0  0  0  # atno 17394 bound_to 11000
  139.9222  135.0201  156.8105 LP  0  0  0  0  0  0  0  0  0  0  0  0  # atno 17395 bound_to 11000

$$$$
