AV-unprocessed.smi:752|AV-procd|sdf|3598|dock2
  -GOLD-   22720 0593D 1   1.00000     0.00000
 Structure written by MMmdl.
 41 42  0  0  0  0  0  0  0  0  1 V2000
  154.0462  141.2151  161.4678 C   0  0  0  0  0  0  0  0  0  0  0  0
  153.3701  142.4219  162.1271 C   0  0  0  0  0  0  0  0  0  0  0  0
  152.6715  143.2970  161.1413 C   0  0  0  0  0  0  0  0  0  0  0  0
  152.5674  143.0060  159.8422 N   0  0  0  0  0  0  0  0  0  0  0  0
  151.8732  143.9857  159.1236 C   0  0  0  0  0  0  0  0  0  0  0  0
  151.6007  143.7916  157.6591 C   0  0  0  0  0  0  0  0  0  0  0  0
  151.2146  142.3331  157.4143 C   0  0  0  0  0  0  0  0  0  0  0  0
  151.9363  141.4248  157.8254 O   0  0  0  0  0  0  0  0  0  0  0  0
  150.0994  142.1285  156.6964 N   0  0  0  0  0  0  0  0  0  0  0  0
  149.7029  140.8518  156.1152 C   0  0  0  0  0  0  0  0  0  0  0  0
  148.3052  140.9400  155.4644 C   0  0  1  0  0  0  0  0  0  0  0  0
  147.2826  141.5870  156.4173 C   0  0  0  0  0  0  0  0  0  0  0  0
  145.8818  141.6371  155.7870 C   0  0  0  0  0  0  0  0  0  0  0  0
  145.8968  142.3819  154.4414 C   0  0  0  0  0  0  0  0  0  0  0  0
  146.9362  141.8000  153.4654 C   0  0  2  0  0  0  0  0  0  0  0  0
  146.5206  140.5276  153.0083 O   0  0  0  0  0  0  0  0  0  0  0  0
  148.3291  141.6961  154.1139 C   0  0  0  0  0  0  0  0  0  0  0  0
  151.4821  145.0483  159.9008 C   0  0  0  0  0  0  0  0  0  0  0  0
  151.9504  144.8447  161.5657 S   0  0  0  0  0  0  0  0  0  0  0  0
  154.5468  140.5953  162.2117 H   0  0  0  0  0  0  0  0  0  0  0  0
  154.7942  141.5326  160.7409 H   0  0  0  0  0  0  0  0  0  0  0  0
  153.3182  140.5910  160.9491 H   0  0  0  0  0  0  0  0  0  0  0  0
  152.6485  142.0841  162.8717 H   0  0  0  0  0  0  0  0  0  0  0  0
  154.1111  143.0191  162.6590 H   0  0  0  0  0  0  0  0  0  0  0  0
  150.7921  144.4440  157.3272 H   0  0  0  0  0  0  0  0  0  0  0  0
  152.4744  144.0442  157.0567 H   0  0  0  0  0  0  0  0  0  0  0  0
  149.5651  142.9390  156.4175 H   0  0  0  0  0  0  0  0  0  0  0  0
  150.4468  140.5271  155.3857 H   0  0  0  0  0  0  0  0  0  0  0  0
  149.7001  140.1030  156.9076 H   0  0  0  0  0  0  0  0  0  0  0  0
  147.9674  139.9202  155.2723 H   0  0  0  0  0  0  0  0  0  0  0  0
  147.2393  141.0277  157.3526 H   0  0  0  0  0  0  0  0  0  0  0  0
  147.6037  142.5970  156.6759 H   0  0  0  0  0  0  0  0  0  0  0  0
  145.5107  140.6217  155.6413 H   0  0  0  0  0  0  0  0  0  0  0  0
  145.1853  142.1229  156.4707 H   0  0  0  0  0  0  0  0  0  0  0  0
  144.9034  142.3657  153.9917 H   0  0  0  0  0  0  0  0  0  0  0  0
  146.1305  143.4318  154.6230 H   0  0  0  0  0  0  0  0  0  0  0  0
  147.0005  142.4445  152.5879 H   0  0  0  0  0  0  0  0  0  0  0  0
  145.5918  140.4420  153.1606 H   0  0  0  0  0  0  0  0  0  0  0  0
  148.7195  142.7014  154.2770 H   0  0  0  0  0  0  0  0  0  0  0  0
  149.0137  141.2183  153.4131 H   0  0  0  0  0  0  0  0  0  0  0  0
  150.9341  145.9283  159.5973 H   0  0  0  0  0  0  0  0  0  0  0  0
  1  2  1  0  0  0  0
  1 20  1  0  0  0  0
  1 21  1  0  0  0  0
  1 22  1  0  0  0  0
  2  3  1  0  0  0  0
  2 23  1  0  0  0  0
  2 24  1  0  0  0  0
  3 19  1  0  0  0  0
  3  4  2  0  0  0  0
  4  5  1  0  0  0  0
  5  6  1  0  0  0  0
  5 18  2  0  0  0  0
  6  7  1  0  0  0  0
  6 25  1  0  0  0  0
  6 26  1  0  0  0  0
  7  8  2  0  0  0  0
  7  9  1  0  0  0  0
  9 10  1  0  0  0  0
  9 27  1  0  0  0  0
 10 11  1  0  0  0  0
 10 28  1  0  0  0  0
 10 29  1  0  0  0  0
 11 17  1  0  0  0  0
 11 12  1  0  0  0  0
 11 30  1  0  0  0  0
 12 13  1  0  0  0  0
 12 31  1  0  0  0  0
 12 32  1  0  0  0  0
 13 14  1  0  0  0  0
 13 33  1  0  0  0  0
 13 34  1  0  0  0  0
 14 15  1  0  0  0  0
 14 35  1  0  0  0  0
 14 36  1  0  0  0  0
 15 16  1  0  0  0  0
 15 17  1  0  0  0  0
 15 37  1  0  0  0  0
 16 38  1  0  0  0  0
 17 39  1  0  0  0  0
 17 40  1  0  0  0  0
 18 19  1  0  0  0  0
 18 41  1  0  0  0  0
M  END
> <s_m_source_file>
AV-unprocessed.smi

> <i_m_source_file_index>
752

> <i_lp_mmshare_version>
43012

> <i_f3d_flags>
0

> <s_epik_input>
W0NIM11bQ0gyXWMxbmMoW2NIXXMxKVtDSDJdQyg9TylbTkhdW0NIMl1bQ0BASF0yW0NIMl1bQ0gyXVtDSDJdW0NAQEhdKFtPSF0pW0NIMl0y

> <s_epik_cmdline>
J2VwaWtfcHl0aG9uJywgJy1waCcsICc3LjAnLCAnLXRuJywgJzgnLCAnLW1hJywgJzIwMCcsICctbWV0YWxfYmluZGluZycsICctaW1hZScsICc8aW5maWxlLm1hZT4nLCAnLW9tYWUnLCAnPG91dGZpbGUubWFlPic=

> <r_lp_tautomer_probability>
1

> <r_epik_Ionization_Penalty>
5.44903e-05

> <r_epik_Ionization_Penalty_Charging>
0

> <r_epik_Ionization_Penalty_Neutral>
5.44903e-05

> <r_epik_State_Penalty>
-0

> <r_epik_Charging_Adjusted_Penalty>
0

> <i_epik_Tot_Q>
0

> <i_epik_Tot_abs_Q>
0

> <r_epik_Metal_State_Penalty>
-0

> <b_epik_Metal_Only>
0

> <s_lp_Force_Field>
OPLS_2005

> <r_lp_Energy>
4.32924

> <b_lp_Chiralities_Consistent>
1

> <s_lp_Variant>
AV-unprocessed.smi:752-4

> <Gold.Version>
5.8.1

> <Gold.Id.Protein>
6NUR|6NUR_protein|mol2

> <Gold.PLP.Fitness>
48.0072

> <Gold.PLP.PLP>
-42.8969

> <Gold.PLP.part.hbond>
-2.0000

> <Gold.PLP.part.metal>
0.0000

> <Gold.PLP.part.buried>
-3.7621

> <Gold.PLP.part.nonpolar>
-37.1447

> <Gold.PLP.part.repulsive>
0.0445

> <Gold.PLP.ligand.clash>
0.0000

> <Gold.PLP.ligand.torsion>
0.4674

> <Gold.PLP.Chemscore.Hbond>
2.0000

> <Gold.PLP.Chemscore.CHOScore>
0.0000

> <Gold.PLP.Chemscore.Metal>
0.0000

> <Gold.Chemscore.Hbonds>
donor molecule, donor type, donor heavy atom, donor atom, acceptor molecule, acceptor atom, score
      L1  H     9    27       P1  8028  0.94
      L1  H    16    38       P1 10175  0.99

> <Gold.PLP.Chemscore.Internal.Correction>
0.0452

> <Gold.Rescore>
     Score         DG    S(hbond)    S(metal)    S(lipo)     H(rot)  DE(clash)    DE(int)     intcor
     17.10     -19.85       1.80        0.00     117.01       2.08       0.54       2.21       ----

> <Gold.Chemscore.Fitness>
17.1030

> <Gold.Chemscore.DG>
-19.8527

> <Gold.Chemscore.ZeroCoef>
-5.4800

> <Gold.Chemscore.Hbond>
1.8016

> <Gold.Chemscore.Metal>
0.0000

> <Gold.Chemscore.Lipo>
117.0111

> <Gold.Chemscore.Internal_Hbond>
0.0000

> <Gold.Chemscore.DEClash>
0.5402

> <Gold.Chemscore.DEInternal>
2.2095

> <Gold.Chemscore.Rot>
2.0840

> <Gold.Chemscore.Internal.Correction>
   9.000000E+99

> <Gold.Chemscore.Hbonds>
donor molecule, donor type, donor heavy atom, donor atom, acceptor molecule, acceptor atom, score
      L1  H     9    27       P1  8028  0.90
      L1  H    16    38       P1 10175  0.82

> <Gold.Chemscore.Hbond.Weighted>
-6.0174

> <Gold.Chemscore.Metal.Weighted>
-0.0000

> <Gold.Chemscore.Lipo.Weighted>
-13.6903

> <Gold.Chemscore.Internal_Hbond.Weighted>
0.0000

> <Gold.Chemscore.DEClash.Weighted>
0.5402

> <Gold.Chemscore.DEInternal.Weighted>
2.2095

> <Gold.Chemscore.Rot.Weighted>
5.3350

> <Gold.Chemscore.Internal.Correction.Weighted>
   9.000000E+99

> <Gold.Protein.RotatedTorsions>
[ 6907 6896 6895 6894 ] final -164.71 input  -60.11 | X-H torsion
[ 7974 7965 7964 7962 ] final -151.73 input  175.53 | X-H torsion
[ 8008 7997 7996 7995 ] final   12.76 input   59.86 | X-H torsion
[ 10167 10162 10161 10158 ] final  136.75 input  -65.29 | X-H torsion
[ 10718 10713 10712 10709 ] final -119.35 input   66.30 | X-H torsion
[ 10763 10752 10751 10750 ] final -161.38 input  -60.55 | X-H torsion
[ 11005 11000 10999 10996 ] final  126.36 input  -57.11 | X-H torsion

> <Gold.Protein.ActiveResidues>
 VAL166  LYS551  ARG553  GLY616  TRP617  ASP618  TYR619  PRO620  LYS621  CYS622 
 ASP623  PHE694  ASN695  SER759  ASP760  ASP761  ALA762  ILE779  LEU786  VAL792 
 PHE793  MET794  SER795  GLU796  ALA797  LYS798  CYS799  TRP800  GLU811  SER814 

> <Gold.Protein.RotatedAtoms>
  151.4161  133.3712  159.2749 H   0  0  0  0  0  0  0  0  0  0  0  0  # atno 6907 bound_to 6896
  150.9327  134.8743  159.7572 H   0  0  0  0  0  0  0  0  0  0  0  0  # atno 6908 bound_to 6896
  152.5036  134.4107  159.9500 H   0  0  0  0  0  0  0  0  0  0  0  0  # atno 6909 bound_to 6896
  144.7833  140.4758  143.5823 H   0  0  0  0  0  0  0  0  0  0  0  0  # atno 7974 bound_to 7965
  154.8250  140.2890  155.5761 H   0  0  0  0  0  0  0  0  0  0  0  0  # atno 8008 bound_to 7997
  156.3001  140.2543  156.3095 H   0  0  0  0  0  0  0  0  0  0  0  0  # atno 8009 bound_to 7997
  154.9295  140.0384  157.2030 H   0  0  0  0  0  0  0  0  0  0  0  0  # atno 8010 bound_to 7997
  139.5169  144.6448  151.5471 H   0  0  0  0  0  0  0  0  0  0  0  0  # atno 10167 bound_to 10162
  156.1175  130.6297  150.9406 H   0  0  0  0  0  0  0  0  0  0  0  0  # atno 10718 bound_to 10713
  154.7309  135.3046  154.8893 H   0  0  0  0  0  0  0  0  0  0  0  0  # atno 10763 bound_to 10752
  153.9736  135.6739  153.4752 H   0  0  0  0  0  0  0  0  0  0  0  0  # atno 10764 bound_to 10752
  153.0917  135.4956  154.8624 H   0  0  0  0  0  0  0  0  0  0  0  0  # atno 10765 bound_to 10752
  139.9452  134.9630  156.8695 H   0  0  0  0  0  0  0  0  0  0  0  0  # atno 11005 bound_to 11000
  145.5989  139.1502  143.3140 LP  0  0  0  0  0  0  0  0  0  0  0  0  # atno 17320 bound_to 7965
  146.2053  140.6111  142.9084 LP  0  0  0  0  0  0  0  0  0  0  0  0  # atno 17321 bound_to 7965
  140.6228  143.9226  150.6540 LP  0  0  0  0  0  0  0  0  0  0  0  0  # atno 17342 bound_to 10162
  140.2505  143.3597  152.1410 LP  0  0  0  0  0  0  0  0  0  0  0  0  # atno 17343 bound_to 10162
  157.6358  131.0916  150.8351 LP  0  0  0  0  0  0  0  0  0  0  0  0  # atno 17370 bound_to 10713
  156.8452  130.5062  149.5317 LP  0  0  0  0  0  0  0  0  0  0  0  0  # atno 17371 bound_to 10713
  140.5852  134.0314  155.7479 LP  0  0  0  0  0  0  0  0  0  0  0  0  # atno 17394 bound_to 11000
  141.1100  133.9631  157.2927 LP  0  0  0  0  0  0  0  0  0  0  0  0  # atno 17395 bound_to 11000

$$$$
