AV-unprocessed.smi:320|AV-procd|sdf|2333|dock6
  -GOLD-   2262022233D 1   1.00000     0.00000
 Structure written by MMmdl.
 49 52  0  0  0  0  0  0  0  0  1 V2000
  147.4544  137.7150  154.4016 C   0  0  0  0  0  0  0  0  0  0  0  0
  148.5369  136.8677  155.0979 C   0  0  1  0  0  0  0  0  0  0  0  0
  148.8566  135.7382  154.2226 N   0  0  0  0  0  0  0  0  0  0  0  0
  148.6063  134.4435  154.4729 C   0  0  0  0  0  0  0  0  0  0  0  0
  148.0349  134.0446  155.4882 O   0  0  0  0  0  0  0  0  0  0  0  0
  149.0665  133.4512  153.3965 C   0  0  0  0  0  0  0  0  0  0  0  0
  147.9440  132.7956  152.7055 N   0  0  0  0  0  0  0  0  0  0  0  0
  147.2798  133.5374  151.7081 C   0  0  0  0  0  0  0  0  0  0  0  0
  146.2408  133.0344  151.0227 C   0  0  0  0  0  0  0  0  0  0  0  0
  145.8060  131.6923  151.3296 C   0  0  0  0  0  0  0  0  0  0  0  0
  146.4329  130.9749  152.2830 C   0  0  0  0  0  0  0  0  0  0  0  0
  147.5684  131.5208  153.0357 C   0  0  0  0  0  0  0  0  0  0  0  0
  148.1463  130.8726  153.9092 O   0  0  0  0  0  0  0  0  0  0  0  0
  149.8283  137.6423  155.5179 C   0  0  0  0  0  0  0  0  0  0  0  0
  150.9507  136.6895  156.0225 C   0  0  0  0  0  0  0  0  0  0  0  0
  152.2008  137.4946  156.4405 C   0  0  2  0  0  0  0  0  0  0  0  0
  151.8355  138.4667  157.5810 C   0  0  0  0  0  0  0  0  0  0  0  0
  150.7474  139.4412  157.0861 C   0  0  1  0  0  0  0  0  0  0  0  0
  151.2745  140.2450  155.8814 C   0  0  0  0  0  0  0  0  0  0  0  0
  151.6407  139.2677  154.7471 C   0  0  1  0  0  0  0  0  0  0  0  0
  152.7333  138.2927  155.2322 C   0  0  0  0  0  0  0  0  0  0  0  0
  150.3892  138.4690  154.3249 C   0  0  0  0  0  0  0  0  0  0  0  0
  149.4964  138.6425  156.6664 C   0  0  0  0  0  0  0  0  0  0  0  0
  147.0855  138.5159  155.0405 H   0  0  0  0  0  0  0  0  0  0  0  0
  146.5909  137.0987  154.1485 H   0  0  0  0  0  0  0  0  0  0  0  0
  147.8151  138.1594  153.4741 H   0  0  0  0  0  0  0  0  0  0  0  0
  148.0801  136.4916  156.0149 H   0  0  0  0  0  0  0  0  0  0  0  0
  149.3289  135.9626  153.3588 H   0  0  0  0  0  0  0  0  0  0  0  0
  149.6960  133.9903  152.6875 H   0  0  0  0  0  0  0  0  0  0  0  0
  149.7184  132.6971  153.8424 H   0  0  0  0  0  0  0  0  0  0  0  0
  147.6611  134.5349  151.5442 H   0  0  0  0  0  0  0  0  0  0  0  0
  145.7403  133.6194  150.2652 H   0  0  0  0  0  0  0  0  0  0  0  0
  144.9725  131.2622  150.7936 H   0  0  0  0  0  0  0  0  0  0  0  0
  146.0923  129.9732  152.4999 H   0  0  0  0  0  0  0  0  0  0  0  0
  150.6024  136.0967  156.8689 H   0  0  0  0  0  0  0  0  0  0  0  0
  151.2293  135.9776  155.2456 H   0  0  0  0  0  0  0  0  0  0  0  0
  152.9730  136.8068  156.7865 H   0  0  0  0  0  0  0  0  0  0  0  0
  151.4804  137.9127  158.4509 H   0  0  0  0  0  0  0  0  0  0  0  0
  152.7185  139.0188  157.9054 H   0  0  0  0  0  0  0  0  0  0  0  0
  150.4843  140.1279  157.8912 H   0  0  0  0  0  0  0  0  0  0  0  0
  150.5202  140.9553  155.5406 H   0  0  0  0  0  0  0  0  0  0  0  0
  152.1458  140.8339  156.1708 H   0  0  0  0  0  0  0  0  0  0  0  0
  152.0144  139.8318  153.8921 H   0  0  0  0  0  0  0  0  0  0  0  0
  153.6339  138.8418  155.5090 H   0  0  0  0  0  0  0  0  0  0  0  0
  153.0205  137.6147  154.4274 H   0  0  0  0  0  0  0  0  0  0  0  0
  150.6618  137.8183  153.4945 H   0  0  0  0  0  0  0  0  0  0  0  0
  149.6259  139.1489  153.9438 H   0  0  0  0  0  0  0  0  0  0  0  0
  148.7081  139.3284  156.3526 H   0  0  0  0  0  0  0  0  0  0  0  0
  149.1092  138.1189  157.5409 H   0  0  0  0  0  0  0  0  0  0  0  0
  1  2  1  0  0  0  0
  1 24  1  0  0  0  0
  1 25  1  0  0  0  0
  1 26  1  0  0  0  0
  2  3  1  0  0  0  0
  2 14  1  0  0  0  0
  2 27  1  0  0  0  0
  3  4  1  0  0  0  0
  3 28  1  0  0  0  0
  4  5  2  0  0  0  0
  4  6  1  0  0  0  0
  6  7  1  0  0  0  0
  6 29  1  0  0  0  0
  6 30  1  0  0  0  0
  7 12  1  0  0  0  0
  7  8  1  0  0  0  0
  8  9  2  0  0  0  0
  8 31  1  0  0  0  0
  9 10  1  0  0  0  0
  9 32  1  0  0  0  0
 10 11  2  0  0  0  0
 10 33  1  0  0  0  0
 11 12  1  0  0  0  0
 11 34  1  0  0  0  0
 12 13  2  0  0  0  0
 14 22  1  0  0  0  0
 14 23  1  0  0  0  0
 14 15  1  0  0  0  0
 15 16  1  0  0  0  0
 15 35  1  0  0  0  0
 15 36  1  0  0  0  0
 16 21  1  0  0  0  0
 16 17  1  0  0  0  0
 16 37  1  0  0  0  0
 17 18  1  0  0  0  0
 17 38  1  0  0  0  0
 17 39  1  0  0  0  0
 18 19  1  0  0  0  0
 18 23  1  0  0  0  0
 18 40  1  0  0  0  0
 19 20  1  0  0  0  0
 19 41  1  0  0  0  0
 19 42  1  0  0  0  0
 20 21  1  0  0  0  0
 20 22  1  0  0  0  0
 20 43  1  0  0  0  0
 21 44  1  0  0  0  0
 21 45  1  0  0  0  0
 22 46  1  0  0  0  0
 22 47  1  0  0  0  0
 23 48  1  0  0  0  0
 23 49  1  0  0  0  0
M  END
> <s_m_source_file>
AV-unprocessed.smi

> <i_m_source_file_index>
320

> <i_lp_mmshare_version>
43012

> <i_f3d_flags>
0

> <s_epik_input>
W0NIMl0xW0NAQEhdKFtDSDJdMilbQ0gyXVtDQEBIXShbQ0gyXTMpW0NIMl1bQ0BIXTFbQ0gyXUMyM1tDQEhdKFtDSDNdKVtOSF1DKD1PKVtDSDJdbjRbY0hdW2NIXVtjSF1bY0hdYzQ9Tw==

> <s_epik_cmdline>
J2VwaWtfcHl0aG9uJywgJy1waCcsICc3LjAnLCAnLXRuJywgJzgnLCAnLW1hJywgJzIwMCcsICctbWV0YWxfYmluZGluZycsICctaW1hZScsICc8aW5maWxlLm1hZT4nLCAnLW9tYWUnLCAnPG91dGZpbGUubWFlPic=

> <r_lp_tautomer_probability>
1

> <r_epik_Ionization_Penalty>
4.15949e-07

> <r_epik_Ionization_Penalty_Charging>
3.97363e-07

> <r_epik_Ionization_Penalty_Neutral>
1.85865e-08

> <r_epik_State_Penalty>
-0

> <r_epik_Charging_Adjusted_Penalty>
3.97363e-07

> <i_epik_Tot_Q>
0

> <i_epik_Tot_abs_Q>
0

> <r_epik_Metal_State_Penalty>
-0

> <b_epik_Metal_Only>
0

> <s_lp_Force_Field>
OPLS_2005

> <r_lp_Energy>
45.3355

> <b_lp_Chiralities_Consistent>
1

> <s_lp_Variant>
AV-unprocessed.smi:320-2

> <Gold.Version>
5.8.1

> <Gold.Id.Protein>
6NUR|6NUR_protein|mol2

> <Gold.PLP.Fitness>
40.7350

> <Gold.PLP.PLP>
-35.8600

> <Gold.PLP.part.hbond>
-1.0000

> <Gold.PLP.part.metal>
0.0000

> <Gold.PLP.part.buried>
-3.3231

> <Gold.PLP.part.nonpolar>
-32.3061

> <Gold.PLP.part.repulsive>
0.0794

> <Gold.PLP.ligand.clash>
0.0000

> <Gold.PLP.ligand.torsion>
0.4986

> <Gold.PLP.Chemscore.Hbond>
0.9440

> <Gold.PLP.Chemscore.CHOScore>
1.0000

> <Gold.PLP.Chemscore.Metal>
0.0000

> <Gold.Chemscore.Hbonds>
donor molecule, donor type, donor heavy atom, donor atom, acceptor molecule, acceptor atom, score
      L1  H     3    28       P1  7948  0.80
      L1  C     8    31       P1  7948  0.88

> <Gold.PLP.Chemscore.Internal.Correction>
0.0402

> <Gold.Rescore>
     Score         DG    S(hbond)    S(metal)    S(lipo)     H(rot)  DE(clash)    DE(int)     intcor
     14.45     -14.76       0.92        0.00      86.24       1.52       0.04       0.27       ----

> <Gold.Chemscore.Fitness>
14.4524

> <Gold.Chemscore.DG>
-14.7580

> <Gold.Chemscore.ZeroCoef>
-5.4800

> <Gold.Chemscore.Hbond>
0.9220

> <Gold.Chemscore.Metal>
0.0000

> <Gold.Chemscore.Lipo>
86.2417

> <Gold.Chemscore.Internal_Hbond>
0.0000

> <Gold.Chemscore.DEClash>
0.0380

> <Gold.Chemscore.DEInternal>
0.2676

> <Gold.Chemscore.Rot>
1.5202

> <Gold.Chemscore.Internal.Correction>
   9.000000E+99

> <Gold.Chemscore.Hbonds>
donor molecule, donor type, donor heavy atom, donor atom, acceptor molecule, acceptor atom, score
      L1  H     3    28       P1  7948  0.41

> <Gold.Chemscore.Hbond.Weighted>
-3.0794

> <Gold.Chemscore.Metal.Weighted>
-0.0000

> <Gold.Chemscore.Lipo.Weighted>
-10.0903

> <Gold.Chemscore.Internal_Hbond.Weighted>
0.0000

> <Gold.Chemscore.DEClash.Weighted>
0.0380

> <Gold.Chemscore.DEInternal.Weighted>
0.2676

> <Gold.Chemscore.Rot.Weighted>
3.8916

> <Gold.Chemscore.Internal.Correction.Weighted>
   9.000000E+99

> <Gold.Protein.RotatedTorsions>
[ 6907 6896 6895 6894 ] final  152.77 input  -60.11 | X-H torsion
[ 7974 7965 7964 7962 ] final  100.47 input  175.53 | X-H torsion
[ 8008 7997 7996 7995 ] final   37.18 input   59.86 | X-H torsion
[ 10167 10162 10161 10158 ] final  149.78 input  -65.29 | X-H torsion
[ 10718 10713 10712 10709 ] final   21.43 input   66.30 | X-H torsion
[ 10763 10752 10751 10750 ] final  -32.76 input  -60.55 | X-H torsion
[ 11005 11000 10999 10996 ] final  128.64 input  -57.11 | X-H torsion

> <Gold.Protein.ActiveResidues>
 VAL166  LYS551  ARG553  GLY616  TRP617  ASP618  TYR619  PRO620  LYS621  CYS622 
 ASP623  PHE694  ASN695  SER759  ASP760  ASP761  ALA762  ILE779  LEU786  VAL792 
 PHE793  MET794  SER795  GLU796  ALA797  LYS798  CYS799  TRP800  GLU811  SER814 

> <Gold.Protein.RotatedAtoms>
  152.0821  133.4158  159.4505 H   0  0  0  0  0  0  0  0  0  0  0  0  # atno 6907 bound_to 6896
  150.6862  134.2970  159.4699 H   0  0  0  0  0  0  0  0  0  0  0  0  # atno 6908 bound_to 6896
  152.0813  134.9469  160.0624 H   0  0  0  0  0  0  0  0  0  0  0  0  # atno 6909 bound_to 6896
  145.3852  139.2372  143.3382 H   0  0  0  0  0  0  0  0  0  0  0  0  # atno 7974 bound_to 7965
  155.1995  140.3314  155.4345 H   0  0  0  0  0  0  0  0  0  0  0  0  # atno 8008 bound_to 7997
  156.2412  140.1896  156.7032 H   0  0  0  0  0  0  0  0  0  0  0  0  # atno 8009 bound_to 7997
  154.6151  140.0603  156.9530 H   0  0  0  0  0  0  0  0  0  0  0  0  # atno 8010 bound_to 7997
  139.4857  144.5575  151.7292 H   0  0  0  0  0  0  0  0  0  0  0  0  # atno 10167 bound_to 10162
  157.1383  130.6621  149.5973 H   0  0  0  0  0  0  0  0  0  0  0  0  # atno 10718 bound_to 10713
  153.8191  135.6876  153.4830 H   0  0  0  0  0  0  0  0  0  0  0  0  # atno 10763 bound_to 10752
  153.1580  135.4591  154.9730 H   0  0  0  0  0  0  0  0  0  0  0  0  # atno 10764 bound_to 10752
  154.7935  135.3310  154.7665 H   0  0  0  0  0  0  0  0  0  0  0  0  # atno 10765 bound_to 10752
  139.9572  134.9610  156.9032 H   0  0  0  0  0  0  0  0  0  0  0  0  # atno 11005 bound_to 11000
  146.2824  140.4525  142.8771 LP  0  0  0  0  0  0  0  0  0  0  0  0  # atno 17320 bound_to 7965
  144.8479  140.6957  143.6187 LP  0  0  0  0  0  0  0  0  0  0  0  0  # atno 17321 bound_to 7965
  140.5139  144.0983  150.6002 LP  0  0  0  0  0  0  0  0  0  0  0  0  # atno 17342 bound_to 10162
  140.3918  143.2748  152.0051 LP  0  0  0  0  0  0  0  0  0  0  0  0  # atno 17343 bound_to 10162
  155.9794  130.4786  150.6711 LP  0  0  0  0  0  0  0  0  0  0  0  0  # atno 17370 bound_to 10713
  157.4330  131.0851  151.1020 LP  0  0  0  0  0  0  0  0  0  0  0  0  # atno 17371 bound_to 10713
  140.5583  134.0560  155.7390 LP  0  0  0  0  0  0  0  0  0  0  0  0  # atno 17394 bound_to 11000
  141.1244  133.9407  157.2664 LP  0  0  0  0  0  0  0  0  0  0  0  0  # atno 17395 bound_to 11000

$$$$
