AV-unprocessed.smi:3231|AV-procd|sdf|12336|dock4
  -GOLD-   2272018193D 1   1.00000     0.00000
 Structure written by MMmdl.
 42 43  0  0  0  0  0  0  0  0  3 V2000
  148.7101  142.3361  154.4382 O   0  0  0  0  0  0  0  0  0  0  0  0
  149.4943  141.2900  154.9757 C   0  0  1  0  0  0  0  0  0  0  0  0
  149.5772  141.5184  156.4969 C   0  0  0  0  0  0  0  0  0  0  0  0
  150.2577  142.7876  156.8254 N   0  3  0  0  0  0  0  0  0  0  0  0
  150.4609  143.0002  158.2715 C   0  0  0  0  0  0  0  0  0  0  0  0
  151.8183  143.6631  158.5456 C   0  0  0  0  0  0  0  0  0  0  0  0
  152.2566  143.4439  159.9101 N   0  0  0  0  0  0  0  0  0  0  0  0
  151.9749  144.1916  161.0342 C   0  0  0  0  0  0  0  0  0  0  0  0
  152.6110  143.5971  162.0860 C   0  0  0  0  0  0  0  0  0  0  0  0
  153.2670  142.4799  161.4977 C   0  0  0  0  0  0  0  0  0  0  0  0
  153.0532  142.3916  160.1946 N   0  0  0  0  0  0  0  0  0  0  0  0
  148.8324  139.9404  154.6171 C   0  0  0  0  0  0  0  0  0  0  0  0
  149.7853  138.7995  154.6045 N   0  3  0  0  0  0  0  0  0  0  0  0
  151.2033  139.2052  154.4350 C   0  0  0  0  0  0  0  0  0  0  0  0
  152.1196  137.9693  154.4109 C   0  0  0  0  0  0  0  0  0  0  0  0
  151.9363  137.2155  155.6024 O   0  0  0  0  0  0  0  0  0  0  0  0
  150.6030  136.7394  155.7291 C   0  0  0  0  0  0  0  0  0  0  0  0
  149.6357  137.9334  155.7991 C   0  0  0  0  0  0  0  0  0  0  0  0
  148.6426  143.0316  155.0744 H   0  0  0  0  0  0  0  0  0  0  0  0
  150.4958  141.3686  154.5535 H   0  0  0  0  0  0  0  0  0  0  0  0
  148.5727  141.5595  156.9213 H   0  0  0  0  0  0  0  0  0  0  0  0
  150.0915  140.6856  156.9794 H   0  0  0  0  0  0  0  0  0  0  0  0
  151.1617  142.7973  156.3755 H   0  0  0  0  0  0  0  0  0  0  0  0
  149.6557  143.6240  158.6626 H   0  0  0  0  0  0  0  0  0  0  0  0
  150.4020  142.0386  158.7832 H   0  0  0  0  0  0  0  0  0  0  0  0
  152.5807  143.2706  157.8709 H   0  0  0  0  0  0  0  0  0  0  0  0
  151.7600  144.7380  158.3684 H   0  0  0  0  0  0  0  0  0  0  0  0
  151.3527  145.0737  160.9942 H   0  0  0  0  0  0  0  0  0  0  0  0
  152.6096  143.9130  163.1187 H   0  0  0  0  0  0  0  0  0  0  0  0
  153.8878  141.7361  161.9752 H   0  0  0  0  0  0  0  0  0  0  0  0
  148.0221  139.7132  155.3114 H   0  0  0  0  0  0  0  0  0  0  0  0
  148.3685  140.0342  153.6335 H   0  0  0  0  0  0  0  0  0  0  0  0
  151.3359  139.7641  153.5097 H   0  0  0  0  0  0  0  0  0  0  0  0
  151.4964  139.8660  155.2523 H   0  0  0  0  0  0  0  0  0  0  0  0
  151.9159  137.3483  153.5370 H   0  0  0  0  0  0  0  0  0  0  0  0
  153.1634  138.2773  154.3454 H   0  0  0  0  0  0  0  0  0  0  0  0
  150.3553  136.0836  154.8929 H   0  0  0  0  0  0  0  0  0  0  0  0
  150.5266  136.1404  156.6367 H   0  0  0  0  0  0  0  0  0  0  0  0
  149.8279  138.5164  156.7012 H   0  0  0  0  0  0  0  0  0  0  0  0
  148.6105  137.5672  155.8660 H   0  0  0  0  0  0  0  0  0  0  0  0
  149.7060  143.5526  156.4636 H   0  0  0  0  0  0  0  0  0  0  0  0
  149.5424  138.2241  153.8106 H   0  0  0  0  0  0  0  0  0  0  0  0
  1  2  1  0  0  0  0
  1 19  1  0  0  0  0
  2  3  1  0  0  0  0
  2 12  1  0  0  0  0
  2 20  1  0  0  0  0
  3  4  1  0  0  0  0
  3 21  1  0  0  0  0
  3 22  1  0  0  0  0
  4  5  1  0  0  0  0
  4 23  1  0  0  0  0
  4 41  1  0  0  0  0
  5  6  1  0  0  0  0
  5 24  1  0  0  0  0
  5 25  1  0  0  0  0
  6  7  1  0  0  0  0
  6 26  1  0  0  0  0
  6 27  1  0  0  0  0
  7 11  1  0  0  0  0
  7  8  1  0  0  0  0
  8  9  2  0  0  0  0
  8 28  1  0  0  0  0
  9 10  1  0  0  0  0
  9 29  1  0  0  0  0
 10 11  2  0  0  0  0
 10 30  1  0  0  0  0
 12 13  1  0  0  0  0
 12 31  1  0  0  0  0
 12 32  1  0  0  0  0
 13 18  1  0  0  0  0
 13 14  1  0  0  0  0
 13 42  1  0  0  0  0
 14 15  1  0  0  0  0
 14 33  1  0  0  0  0
 14 34  1  0  0  0  0
 15 16  1  0  0  0  0
 15 35  1  0  0  0  0
 15 36  1  0  0  0  0
 16 17  1  0  0  0  0
 17 18  1  0  0  0  0
 17 37  1  0  0  0  0
 17 38  1  0  0  0  0
 18 39  1  0  0  0  0
 18 40  1  0  0  0  0
M  CHG  1   4   1
M  CHG  1  13   1
M  END
> <s_m_source_file>
AV-unprocessed.smi

> <i_m_source_file_index>
3231

> <i_lp_mmshare_version>
43012

> <i_f3d_flags>
0

> <s_epik_input>
W0NIMl0xW0NIMl1PW0NIMl1bQ0gyXU4xW0NIMl1bQ0BIXShbT0hdKVtDSDJdW05IXVtDSDJdW0NIMl1uMltjSF1bY0hdW2NIXW4y

> <s_epik_cmdline>
J2VwaWtfcHl0aG9uJywgJy1waCcsICc3LjAnLCAnLXRuJywgJzgnLCAnLW1hJywgJzIwMCcsICctbWV0YWxfYmluZGluZycsICctaW1hZScsICc8aW5maWxlLm1hZT4nLCAnLW9tYWUnLCAnPG91dGZpbGUubWFlPic=

> <r_lp_tautomer_probability>
1

> <r_epik_Ionization_Penalty>
2.09881

> <r_epik_Ionization_Penalty_Charging>
2.09628

> <r_epik_Ionization_Penalty_Neutral>
0.0025303

> <r_epik_State_Penalty>
1.58657

> <r_epik_Charging_Adjusted_Penalty>
3.68285

> <i_epik_Tot_Q>
2

> <i_epik_Tot_abs_Q>
2

> <r_epik_Metal_State_Penalty>
1.58685

> <b_epik_Metal_Only>
0

> <s_lp_Force_Field>
OPLS_2005

> <r_lp_Energy>
27.3068

> <b_lp_Chiralities_Consistent>
1

> <s_lp_Variant>
AV-unprocessed.smi:3231-6

> <Gold.Version>
5.8.1

> <Gold.Id.Protein>
6NUR|6NUR_protein|mol2

> <Gold.PLP.Fitness>
49.2767

> <Gold.PLP.PLP>
-40.7071

> <Gold.PLP.part.hbond>
-4.0000

> <Gold.PLP.part.metal>
0.0000

> <Gold.PLP.part.buried>
-4.3284

> <Gold.PLP.part.nonpolar>
-31.9147

> <Gold.PLP.part.repulsive>
0.1523

> <Gold.PLP.ligand.clash>
0.0184

> <Gold.PLP.ligand.torsion>
1.6066

> <Gold.PLP.Chemscore.Hbond>
3.8431

> <Gold.PLP.Chemscore.CHOScore>
0.0000

> <Gold.PLP.Chemscore.Metal>
0.0000

> <Gold.Chemscore.Hbonds>
donor molecule, donor type, donor heavy atom, donor atom, acceptor molecule, acceptor atom, score
      L1  H     1    19       P1  8028  1.00
      L1  H     4    41       P1  8028  2.00
      P1  H  8011  8017       L1     1  0.03
      P1  H 10752 10765       L1    16  0.51

> <Gold.PLP.Chemscore.Internal.Correction>
0.2720

> <Gold.Rescore>
     Score         DG    S(hbond)    S(metal)    S(lipo)     H(rot)  DE(clash)    DE(int)     intcor
     14.85     -16.68       2.10        0.00     100.20       2.94       0.34       1.49       ----

> <Gold.Chemscore.Fitness>
14.8466

> <Gold.Chemscore.DG>
-16.6787

> <Gold.Chemscore.ZeroCoef>
-5.4800

> <Gold.Chemscore.Hbond>
2.0990

> <Gold.Chemscore.Metal>
0.0000

> <Gold.Chemscore.Lipo>
100.2026

> <Gold.Chemscore.Internal_Hbond>
0.0000

> <Gold.Chemscore.DEClash>
0.3397

> <Gold.Chemscore.DEInternal>
1.4923

> <Gold.Chemscore.Rot>
2.9437

> <Gold.Chemscore.Internal.Correction>
   9.000000E+99

> <Gold.Chemscore.Hbonds>
donor molecule, donor type, donor heavy atom, donor atom, acceptor molecule, acceptor atom, score
      L1  H     1    19       P1  8028  0.97
      L1  H     4    41       P1  8028  1.00
      P1  H  8011  8017       L1     1  0.01
      P1  H 10752 10765       L1    16  0.04

> <Gold.Chemscore.Hbond.Weighted>
-7.0108

> <Gold.Chemscore.Metal.Weighted>
-0.0000

> <Gold.Chemscore.Lipo.Weighted>
-11.7237

> <Gold.Chemscore.Internal_Hbond.Weighted>
0.0000

> <Gold.Chemscore.DEClash.Weighted>
0.3397

> <Gold.Chemscore.DEInternal.Weighted>
1.4923

> <Gold.Chemscore.Rot.Weighted>
7.5359

> <Gold.Chemscore.Internal.Correction.Weighted>
   9.000000E+99

> <Gold.Protein.RotatedTorsions>
[ 6907 6896 6895 6894 ] final  164.93 input  -60.11 | X-H torsion
[ 7974 7965 7964 7962 ] final  110.21 input  175.53 | X-H torsion
[ 8008 7997 7996 7995 ] final -141.53 input   59.86 | X-H torsion
[ 10167 10162 10161 10158 ] final  -94.26 input  -65.29 | X-H torsion
[ 10718 10713 10712 10709 ] final  -34.33 input   66.30 | X-H torsion
[ 10763 10752 10751 10750 ] final -155.66 input  -60.55 | X-H torsion
[ 11005 11000 10999 10996 ] final  138.12 input  -57.11 | X-H torsion

> <Gold.Protein.ActiveResidues>
 VAL166  LYS551  ARG553  GLY616  TRP617  ASP618  TYR619  PRO620  LYS621  CYS622 
 ASP623  PHE694  ASN695  SER759  ASP760  ASP761  ALA762  ILE779  LEU786  VAL792 
 PHE793  MET794  SER795  GLU796  ALA797  LYS798  CYS799  TRP800  GLU811  SER814 

> <Gold.Protein.RotatedAtoms>
  151.9022  133.3541  159.3834 H   0  0  0  0  0  0  0  0  0  0  0  0  # atno 6907 bound_to 6896
  150.7077  134.4816  159.5482 H   0  0  0  0  0  0  0  0  0  0  0  0  # atno 6908 bound_to 6896
  152.2407  134.8232  160.0511 H   0  0  0  0  0  0  0  0  0  0  0  0  # atno 6909 bound_to 6896
  145.2580  139.2713  143.4032 H   0  0  0  0  0  0  0  0  0  0  0  0  # atno 7974 bound_to 7965
  155.4793  140.0559  157.2969 H   0  0  0  0  0  0  0  0  0  0  0  0  # atno 8008 bound_to 7997
  154.4666  140.2021  156.0054 H   0  0  0  0  0  0  0  0  0  0  0  0  # atno 8009 bound_to 7997
  156.0985  140.3222  155.7915 H   0  0  0  0  0  0  0  0  0  0  0  0  # atno 8010 bound_to 7997
  140.3162  143.3075  152.0095 H   0  0  0  0  0  0  0  0  0  0  0  0  # atno 10167 bound_to 10162
  156.3519  130.4310  149.7697 H   0  0  0  0  0  0  0  0  0  0  0  0  # atno 10718 bound_to 10713
  154.7770  135.3163  154.8070 H   0  0  0  0  0  0  0  0  0  0  0  0  # atno 10763 bound_to 10752
  153.8791  135.6837  153.4772 H   0  0  0  0  0  0  0  0  0  0  0  0  # atno 10764 bound_to 10752
  153.1397  135.4744  154.9413 H   0  0  0  0  0  0  0  0  0  0  0  0  # atno 10765 bound_to 10752
  140.0161  134.9417  157.0379 H   0  0  0  0  0  0  0  0  0  0  0  0  # atno 11005 bound_to 11000
  146.3283  140.2989  142.8619 LP  0  0  0  0  0  0  0  0  0  0  0  0  # atno 17320 bound_to 7965
  144.9444  140.8112  143.5610 LP  0  0  0  0  0  0  0  0  0  0  0  0  # atno 17321 bound_to 7965
  139.4883  144.6346  151.7001 LP  0  0  0  0  0  0  0  0  0  0  0  0  # atno 17342 bound_to 10162
  140.5524  144.0404  150.6133 LP  0  0  0  0  0  0  0  0  0  0  0  0  # atno 17343 bound_to 10162
  156.4894  130.8078  151.3088 LP  0  0  0  0  0  0  0  0  0  0  0  0  # atno 17370 bound_to 10713
  157.7462  130.9980  150.2837 LP  0  0  0  0  0  0  0  0  0  0  0  0  # atno 17371 bound_to 10713
  140.4468  134.1624  155.7178 LP  0  0  0  0  0  0  0  0  0  0  0  0  # atno 17394 bound_to 11000
  141.1744  133.8544  157.1469 LP  0  0  0  0  0  0  0  0  0  0  0  0  # atno 17395 bound_to 11000

$$$$
