AV-unprocessed.smi:849|AV-procd|sdf|3945|dock3
  -GOLD-   22720 1413D 1   1.00000     0.00000
 Structure written by MMmdl.
 37 39  0  0  0  0  0  0  0  0  2 V2000
  151.7062  136.8084  154.4214 O   0  0  0  0  0  0  0  0  0  0  0  0
  151.8050  138.1335  154.8929 C   0  0  0  0  0  0  0  0  0  0  0  0
  150.5888  138.9408  154.5742 C   0  0  0  0  0  0  0  0  0  0  0  0
  149.5257  138.4987  153.8459 N   0  3  0  0  0  0  0  0  0  0  0  0
  148.5694  139.5075  153.7408 C   0  0  0  0  0  0  0  0  0  0  0  0
  147.3326  139.5245  153.1034 C   0  0  0  0  0  0  0  0  0  0  0  0
  146.5954  140.7237  153.1845 C   0  0  0  0  0  0  0  0  0  0  0  0
  147.0944  141.8458  153.8766 C   0  0  0  0  0  0  0  0  0  0  0  0
  148.3503  141.8163  154.5172 C   0  0  0  0  0  0  0  0  0  0  0  0
  149.0730  140.6250  154.4377 C   0  0  0  0  0  0  0  0  0  0  0  0
  150.3169  140.2271  154.9481 N   0  0  0  0  0  0  0  0  0  0  0  0
  151.1067  141.1796  155.7526 C   0  0  0  0  0  0  0  0  0  0  0  0
  150.8224  141.1076  157.2713 C   0  0  2  0  0  0  0  0  0  0  0  0
  149.4263  141.0681  157.4974 O   0  0  0  0  0  0  0  0  0  0  0  0
  151.5246  142.2149  158.0580 C   0  0  0  0  0  0  0  0  0  0  0  0
  151.2324  143.5721  157.7846 C   0  0  0  0  0  0  0  0  0  0  0  0
  151.8842  144.6031  158.4865 C   0  0  0  0  0  0  0  0  0  0  0  0
  152.8367  144.2893  159.4722 C   0  0  0  0  0  0  0  0  0  0  0  0
  153.1389  142.9437  159.7504 C   0  0  0  0  0  0  0  0  0  0  0  0
  152.4920  141.9071  159.0482 C   0  0  0  0  0  0  0  0  0  0  0  0
  152.9248  140.2732  159.4124 Cl  0  0  0  0  0  0  0  0  0  0  0  0
  151.5114  136.8368  153.4964 H   0  0  0  0  0  0  0  0  0  0  0  0
  151.9812  138.1178  155.9677 H   0  0  0  0  0  0  0  0  0  0  0  0
  152.6747  138.6050  154.4350 H   0  0  0  0  0  0  0  0  0  0  0  0
  146.9487  138.6663  152.5716 H   0  0  0  0  0  0  0  0  0  0  0  0
  145.6287  140.7842  152.7058 H   0  0  0  0  0  0  0  0  0  0  0  0
  146.5016  142.7480  153.9181 H   0  0  0  0  0  0  0  0  0  0  0  0
  148.7164  142.6834  155.0458 H   0  0  0  0  0  0  0  0  0  0  0  0
  152.1592  140.9664  155.5656 H   0  0  0  0  0  0  0  0  0  0  0  0
  150.9470  142.1886  155.3732 H   0  0  0  0  0  0  0  0  0  0  0  0
  151.1881  140.1486  157.6373 H   0  0  0  0  0  0  0  0  0  0  0  0
  148.9893  141.3861  156.7218 H   0  0  0  0  0  0  0  0  0  0  0  0
  150.5129  143.8350  157.0231 H   0  0  0  0  0  0  0  0  0  0  0  0
  151.6539  145.6353  158.2668 H   0  0  0  0  0  0  0  0  0  0  0  0
  153.3374  145.0793  160.0123 H   0  0  0  0  0  0  0  0  0  0  0  0
  153.8751  142.7064  160.5045 H   0  0  0  0  0  0  0  0  0  0  0  0
  149.4632  137.5689  153.4513 H   0  0  0  0  0  0  0  0  0  0  0  0
  1  2  1  0  0  0  0
  1 22  1  0  0  0  0
  2  3  1  0  0  0  0
  2 23  1  0  0  0  0
  2 24  1  0  0  0  0
  3 11  1  0  0  0  0
  3  4  2  0  0  0  0
  4  5  1  0  0  0  0
  4 37  1  0  0  0  0
  5 10  2  0  0  0  0
  5  6  1  0  0  0  0
  6  7  2  0  0  0  0
  6 25  1  0  0  0  0
  7  8  1  0  0  0  0
  7 26  1  0  0  0  0
  8  9  2  0  0  0  0
  8 27  1  0  0  0  0
  9 10  1  0  0  0  0
  9 28  1  0  0  0  0
 10 11  1  0  0  0  0
 11 12  1  0  0  0  0
 12 13  1  0  0  0  0
 12 29  1  0  0  0  0
 12 30  1  0  0  0  0
 13 14  1  0  0  0  0
 13 15  1  0  0  0  0
 13 31  1  0  0  0  0
 14 32  1  0  0  0  0
 15 20  1  0  0  0  0
 15 16  2  0  0  0  0
 16 17  1  0  0  0  0
 16 33  1  0  0  0  0
 17 18  2  0  0  0  0
 17 34  1  0  0  0  0
 18 19  1  0  0  0  0
 18 35  1  0  0  0  0
 19 20  2  0  0  0  0
 19 36  1  0  0  0  0
 20 21  1  0  0  0  0
M  CHG  1   4   1
M  END
> <s_m_source_file>
AV-unprocessed.smi

> <i_m_source_file_index>
849

> <i_lp_mmshare_version>
43012

> <i_f3d_flags>
0

> <s_epik_input>
W2NIXTFbY0hdW2NIXVtjSF1jKGMxMiluKGMobjIpW0NIMl1bT0hdKVtDSDJdW0NASF0oW09IXSljM1tjSF1bY0hdW2NIXVtjSF1jM0Ns

> <s_epik_cmdline>
J2VwaWtfcHl0aG9uJywgJy1waCcsICc3LjAnLCAnLXRuJywgJzgnLCAnLW1hJywgJzIwMCcsICctbWV0YWxfYmluZGluZycsICctaW1hZScsICc8aW5maWxlLm1hZT4nLCAnLW9tYWUnLCAnPG91dGZpbGUubWFlPic=

> <r_epik_Ionization_Penalty>
1.35643

> <r_epik_Ionization_Penalty_Charging>
1.35557

> <r_epik_Ionization_Penalty_Neutral>
0.000861512

> <r_epik_State_Penalty>
1.43401

> <r_epik_Charging_Adjusted_Penalty>
2.78958

> <i_epik_Tot_Q>
1

> <i_epik_Tot_abs_Q>
1

> <r_epik_Metal_State_Penalty>
5.47166

> <b_epik_Metal_Only>
0

> <s_lp_Force_Field>
OPLS_2005

> <r_lp_Energy>
14.886

> <b_lp_Chiralities_Consistent>
1

> <s_lp_Variant>
AV-unprocessed.smi:849-3

> <Gold.Version>
5.8.1

> <Gold.Id.Protein>
6NUR|6NUR_protein|mol2

> <Gold.PLP.Fitness>
60.1322

> <Gold.PLP.PLP>
-48.9996

> <Gold.PLP.part.hbond>
-4.0000

> <Gold.PLP.part.metal>
0.0000

> <Gold.PLP.part.buried>
0.8047

> <Gold.PLP.part.nonpolar>
-46.9508

> <Gold.PLP.part.repulsive>
0.0580

> <Gold.PLP.ligand.clash>
0.0000

> <Gold.PLP.ligand.torsion>
0.4700

> <Gold.PLP.Chemscore.Hbond>
4.0000

> <Gold.PLP.Chemscore.CHOScore>
0.0000

> <Gold.PLP.Chemscore.Metal>
0.0000

> <Gold.Chemscore.Hbonds>
donor molecule, donor type, donor heavy atom, donor atom, acceptor molecule, acceptor atom, score
      L1  H     1    22       P1  7949  0.57
      L1  H     4    37       P1  7948  1.59
      P1  H 10752 10765       L1     1  1.00

> <Gold.PLP.Chemscore.Internal.Correction>
0.0727

> <Gold.Rescore>
     Score         DG    S(hbond)    S(metal)    S(lipo)     H(rot)  DE(clash)    DE(int)     intcor
     20.63     -22.18       2.53        0.00     129.55       2.70       1.20       0.36       ----

> <Gold.Chemscore.Fitness>
20.6252

> <Gold.Chemscore.DG>
-22.1801

> <Gold.Chemscore.ZeroCoef>
-5.4800

> <Gold.Chemscore.Hbond>
2.5284

> <Gold.Chemscore.Metal>
0.0000

> <Gold.Chemscore.Lipo>
129.5522

> <Gold.Chemscore.Internal_Hbond>
0.0000

> <Gold.Chemscore.DEClash>
1.1977

> <Gold.Chemscore.DEInternal>
0.3573

> <Gold.Chemscore.Rot>
2.6963

> <Gold.Chemscore.Internal.Correction>
   9.000000E+99

> <Gold.Chemscore.Hbonds>
donor molecule, donor type, donor heavy atom, donor atom, acceptor molecule, acceptor atom, score
      L1  H     1    22       P1  7949  0.49
      L1  H     4    37       P1  7948  0.71
      P1  H 10752 10765       L1     1  0.25

> <Gold.Chemscore.Hbond.Weighted>
-8.4449

> <Gold.Chemscore.Metal.Weighted>
-0.0000

> <Gold.Chemscore.Lipo.Weighted>
-15.1576

> <Gold.Chemscore.Internal_Hbond.Weighted>
0.0000

> <Gold.Chemscore.DEClash.Weighted>
1.1977

> <Gold.Chemscore.DEInternal.Weighted>
0.3573

> <Gold.Chemscore.Rot.Weighted>
6.9024

> <Gold.Chemscore.Internal.Correction.Weighted>
   9.000000E+99

> <Gold.Protein.RotatedTorsions>
[ 6907 6896 6895 6894 ] final  -20.14 input  -60.11 | X-H torsion
[ 7974 7965 7964 7962 ] final  135.04 input  175.53 | X-H torsion
[ 8008 7997 7996 7995 ] final  170.33 input   59.86 | X-H torsion
[ 10167 10162 10161 10158 ] final  106.69 input  -65.29 | X-H torsion
[ 10718 10713 10712 10709 ] final  -47.66 input   66.30 | X-H torsion
[ 10763 10752 10751 10750 ] final  171.33 input  -60.55 | X-H torsion
[ 11005 11000 10999 10996 ] final  -75.26 input  -57.11 | X-H torsion

> <Gold.Protein.ActiveResidues>
 VAL166  LYS551  ARG553  GLY616  TRP617  ASP618  TYR619  PRO620  LYS621  CYS622 
 ASP623  PHE694  ASN695  SER759  ASP760  ASP761  ALA762  ILE779  LEU786  VAL792 
 PHE793  MET794  SER795  GLU796  ALA797  LYS798  CYS799  TRP800  GLU811  SER814 

> <Gold.Protein.RotatedAtoms>
  151.2526  135.0627  159.9067 H   0  0  0  0  0  0  0  0  0  0  0  0  # atno 6907 bound_to 6896
  152.5378  134.0316  159.8037 H   0  0  0  0  0  0  0  0  0  0  0  0  # atno 6908 bound_to 6896
  151.0527  133.5561  159.2672 H   0  0  0  0  0  0  0  0  0  0  0  0  # atno 6909 bound_to 6896
  144.9703  139.4613  143.5436 H   0  0  0  0  0  0  0  0  0  0  0  0  # atno 7974 bound_to 7965
  156.1376  140.1541  156.8971 H   0  0  0  0  0  0  0  0  0  0  0  0  # atno 8008 bound_to 7997
  154.4960  140.0838  156.7736 H   0  0  0  0  0  0  0  0  0  0  0  0  # atno 8009 bound_to 7997
  155.4140  140.3420  155.4268 H   0  0  0  0  0  0  0  0  0  0  0  0  # atno 8010 bound_to 7997
  139.6989  144.7097  151.1220 H   0  0  0  0  0  0  0  0  0  0  0  0  # atno 10167 bound_to 10162
  156.2062  130.4158  149.9174 H   0  0  0  0  0  0  0  0  0  0  0  0  # atno 10718 bound_to 10713
  154.4104  135.2756  155.2041 H   0  0  0  0  0  0  0  0  0  0  0  0  # atno 10763 bound_to 10752
  154.4029  135.6040  153.5911 H   0  0  0  0  0  0  0  0  0  0  0  0  # atno 10764 bound_to 10752
  152.9831  135.5931  154.4384 H   0  0  0  0  0  0  0  0  0  0  0  0  # atno 10765 bound_to 10752
  141.1643  133.6940  156.7489 H   0  0  0  0  0  0  0  0  0  0  0  0  # atno 11005 bound_to 11000
  146.3380  139.8910  142.8809 LP  0  0  0  0  0  0  0  0  0  0  0  0  # atno 17320 bound_to 7965
  145.2569  141.0063  143.3849 LP  0  0  0  0  0  0  0  0  0  0  0  0  # atno 17321 bound_to 7965
  140.7704  143.5452  150.9266 LP  0  0  0  0  0  0  0  0  0  0  0  0  # atno 17342 bound_to 10162
  139.9133  143.6693  152.3111 LP  0  0  0  0  0  0  0  0  0  0  0  0  # atno 17343 bound_to 10162
  156.6867  130.8880  151.3583 LP  0  0  0  0  0  0  0  0  0  0  0  0  # atno 17370 bound_to 10713
  157.7014  130.9337  150.0796 LP  0  0  0  0  0  0  0  0  0  0  0  0  # atno 17371 bound_to 10713
  140.2619  134.8460  157.3766 LP  0  0  0  0  0  0  0  0  0  0  0  0  # atno 17394 bound_to 11000
  140.1603  134.4737  155.7899 LP  0  0  0  0  0  0  0  0  0  0  0  0  # atno 17395 bound_to 11000

$$$$
