AV-unprocessed.smi:2742|AV-procd|sdf|10565|dock3
  -GOLD-   2272015 13D 1   1.00000     0.00000
 Structure written by MMmdl.
 37 38  0  0  0  0  0  0  0  0  1 V2000
  146.0397  131.1954  151.9755 C   0  0  0  0  0  0  0  0  0  0  0  0
  145.6258  132.2647  153.3799 S   0  0  0  0  0  0  0  0  0  0  0  0
  145.9171  133.9063  152.6583 C   0  0  1  0  0  0  0  0  0  0  0  0
  145.4888  133.9229  151.1802 C   0  0  0  0  0  0  0  0  0  0  0  0
  145.7047  135.3059  150.5465 C   0  0  0  0  0  0  0  0  0  0  0  0
  144.9647  136.3998  151.3341 C   0  0  0  0  0  0  0  0  0  0  0  0
  145.3576  136.4058  152.8264 C   0  0  2  0  0  0  0  0  0  0  0  0
  146.7301  136.8745  153.0133 N   0  0  0  0  0  0  0  0  0  0  0  0
  147.0974  137.9373  153.7437 C   0  0  0  0  0  0  0  0  0  0  0  0
  146.2998  138.6426  154.3608 O   0  0  0  0  0  0  0  0  0  0  0  0
  148.4305  138.1071  153.7099 N   0  0  0  0  0  0  0  0  0  0  0  0
  149.2293  139.1026  154.3384 C   0  0  0  0  0  0  0  0  0  0  0  0
  148.8419  140.4544  154.5084 C   0  0  0  0  0  0  0  0  0  0  0  0
  149.7385  141.3397  155.1399 C   0  0  0  0  0  0  0  0  0  0  0  0
  150.9568  140.9712  155.5889 N   0  0  0  0  0  0  0  0  0  0  0  0
  151.3277  139.6853  155.4154 C   0  0  0  0  0  0  0  0  0  0  0  0
  150.5077  138.7197  154.7977 C   0  0  0  0  0  0  0  0  0  0  0  0
  150.9443  137.4451  154.6521 F   0  0  0  0  0  0  0  0  0  0  0  0
  145.1808  135.0072  153.4508 C   0  0  0  0  0  0  0  0  0  0  0  0
  145.8599  130.1528  152.2371 H   0  0  0  0  0  0  0  0  0  0  0  0
  147.0885  131.3021  151.7005 H   0  0  0  0  0  0  0  0  0  0  0  0
  145.4241  131.4446  151.1114 H   0  0  0  0  0  0  0  0  0  0  0  0
  146.9913  134.0901  152.7014 H   0  0  0  0  0  0  0  0  0  0  0  0
  146.0496  133.1729  150.6214 H   0  0  0  0  0  0  0  0  0  0  0  0
  144.4367  133.6465  151.0980 H   0  0  0  0  0  0  0  0  0  0  0  0
  146.7710  135.5317  150.5127 H   0  0  0  0  0  0  0  0  0  0  0  0
  145.3595  135.2978  149.5123 H   0  0  0  0  0  0  0  0  0  0  0  0
  145.1504  137.3759  150.8845 H   0  0  0  0  0  0  0  0  0  0  0  0
  143.8904  136.2305  151.2501 H   0  0  0  0  0  0  0  0  0  0  0  0
  144.6916  137.0890  153.3568 H   0  0  0  0  0  0  0  0  0  0  0  0
  147.4537  136.3506  152.5432 H   0  0  0  0  0  0  0  0  0  0  0  0
  148.9493  137.4074  153.1997 H   0  0  0  0  0  0  0  0  0  0  0  0
  147.8928  140.8346  154.1652 H   0  0  0  0  0  0  0  0  0  0  0  0
  149.4701  142.3759  155.2837 H   0  0  0  0  0  0  0  0  0  0  0  0
  152.3089  139.4173  155.7781 H   0  0  0  0  0  0  0  0  0  0  0  0
  144.1169  134.7690  153.4858 H   0  0  0  0  0  0  0  0  0  0  0  0
  145.5191  135.0246  154.4869 H   0  0  0  0  0  0  0  0  0  0  0  0
  1  2  1  0  0  0  0
  1 20  1  0  0  0  0
  1 21  1  0  0  0  0
  1 22  1  0  0  0  0
  2  3  1  0  0  0  0
  3 19  1  0  0  0  0
  3  4  1  0  0  0  0
  3 23  1  0  0  0  0
  4  5  1  0  0  0  0
  4 24  1  0  0  0  0
  4 25  1  0  0  0  0
  5  6  1  0  0  0  0
  5 26  1  0  0  0  0
  5 27  1  0  0  0  0
  6  7  1  0  0  0  0
  6 28  1  0  0  0  0
  6 29  1  0  0  0  0
  7  8  1  0  0  0  0
  7 19  1  0  0  0  0
  7 30  1  0  0  0  0
  8  9  1  0  0  0  0
  8 31  1  0  0  0  0
  9 10  2  0  0  0  0
  9 11  1  0  0  0  0
 11 12  1  0  0  0  0
 11 32  1  0  0  0  0
 12 17  1  0  0  0  0
 12 13  2  0  0  0  0
 13 14  1  0  0  0  0
 13 33  1  0  0  0  0
 14 15  2  0  0  0  0
 14 34  1  0  0  0  0
 15 16  1  0  0  0  0
 16 17  2  0  0  0  0
 16 35  1  0  0  0  0
 17 18  1  0  0  0  0
 19 36  1  0  0  0  0
 19 37  1  0  0  0  0
M  END
> <s_m_source_file>
AV-unprocessed.smi

> <i_m_source_file_index>
2742

> <i_lp_mmshare_version>
43012

> <i_f3d_flags>
0

> <s_epik_input>
W0NIM11TW0NAQEhdMVtDSDJdW0NIMl1bQ0gyXVtDQEhdKFtDSDJdMSlbTkhdQyg9TylbTkhdYzJbY0hdW2NIXW5bY0hdYzJG

> <s_epik_cmdline>
J2VwaWtfcHl0aG9uJywgJy1waCcsICc3LjAnLCAnLXRuJywgJzgnLCAnLW1hJywgJzIwMCcsICctbWV0YWxfYmluZGluZycsICctaW1hZScsICc8aW5maWxlLm1hZT4nLCAnLW9tYWUnLCAnPG91dGZpbGUubWFlPic=

> <r_epik_Ionization_Penalty>
0.00344009

> <r_epik_Ionization_Penalty_Charging>
0

> <r_epik_Ionization_Penalty_Neutral>
0.00344009

> <r_epik_State_Penalty>
0.0024078

> <r_epik_Charging_Adjusted_Penalty>
0.0024078

> <i_epik_Tot_Q>
0

> <i_epik_Tot_abs_Q>
0

> <r_epik_Metal_State_Penalty>
-0

> <b_epik_Metal_Only>
0

> <s_lp_Force_Field>
OPLS_2005

> <r_lp_Energy>
13.9364

> <b_lp_Chiralities_Consistent>
1

> <s_lp_Variant>
AV-unprocessed.smi:2742-4

> <Gold.Version>
5.8.1

> <Gold.Id.Protein>
6NUR|6NUR_protein|mol2

> <Gold.PLP.Fitness>
39.2606

> <Gold.PLP.PLP>
-31.2162

> <Gold.PLP.part.hbond>
-3.0000

> <Gold.PLP.part.metal>
0.0000

> <Gold.PLP.part.buried>
-1.3359

> <Gold.PLP.part.nonpolar>
-26.2582

> <Gold.PLP.part.repulsive>
0.1389

> <Gold.PLP.ligand.clash>
0.0000

> <Gold.PLP.ligand.torsion>
0.4832

> <Gold.PLP.Chemscore.Hbond>
2.0000

> <Gold.PLP.Chemscore.CHOScore>
1.0000

> <Gold.PLP.Chemscore.Metal>
0.0000

> <Gold.Chemscore.Hbonds>
donor molecule, donor type, donor heavy atom, donor atom, acceptor molecule, acceptor atom, score
      L1  H     8    31       P1  7948  1.00
      L1  H    11    32       P1  7948  0.96
      L1  C    14    34       P1  8028  1.00

> <Gold.PLP.Chemscore.Internal.Correction>
0.0108

> <Gold.Rescore>
     Score         DG    S(hbond)    S(metal)    S(lipo)     H(rot)  DE(clash)    DE(int)     intcor
     16.63     -17.38       1.97        0.00      71.38       1.19       0.21       0.54       ----

> <Gold.Chemscore.Fitness>
16.6303

> <Gold.Chemscore.DG>
-17.3831

> <Gold.Chemscore.ZeroCoef>
-5.4800

> <Gold.Chemscore.Hbond>
1.9735

> <Gold.Chemscore.Metal>
0.0000

> <Gold.Chemscore.Lipo>
71.3815

> <Gold.Chemscore.Internal_Hbond>
0.0000

> <Gold.Chemscore.DEClash>
0.2111

> <Gold.Chemscore.DEInternal>
0.5417

> <Gold.Chemscore.Rot>
1.1875

> <Gold.Chemscore.Internal.Correction>
   9.000000E+99

> <Gold.Chemscore.Hbonds>
donor molecule, donor type, donor heavy atom, donor atom, acceptor molecule, acceptor atom, score
      L1  H     8    31       P1  7948  0.96
      L1  H    11    32       P1  7948  0.92

> <Gold.Chemscore.Hbond.Weighted>
-6.5915

> <Gold.Chemscore.Metal.Weighted>
-0.0000

> <Gold.Chemscore.Lipo.Weighted>
-8.3516

> <Gold.Chemscore.Internal_Hbond.Weighted>
0.0000

> <Gold.Chemscore.DEClash.Weighted>
0.2111

> <Gold.Chemscore.DEInternal.Weighted>
0.5417

> <Gold.Chemscore.Rot.Weighted>
3.0400

> <Gold.Chemscore.Internal.Correction.Weighted>
   9.000000E+99

> <Gold.Protein.RotatedTorsions>
[ 6907 6896 6895 6894 ] final    0.25 input  -60.11 | X-H torsion
[ 7974 7965 7964 7962 ] final   80.98 input  175.53 | X-H torsion
[ 8008 7997 7996 7995 ] final  -59.23 input   59.86 | X-H torsion
[ 10167 10162 10161 10158 ] final  106.22 input  -65.29 | X-H torsion
[ 10718 10713 10712 10709 ] final -143.42 input   66.30 | X-H torsion
[ 10763 10752 10751 10750 ] final  -90.02 input  -60.55 | X-H torsion
[ 11005 11000 10999 10996 ] final   39.81 input  -57.11 | X-H torsion

> <Gold.Protein.ActiveResidues>
 VAL166  LYS551  ARG553  GLY616  TRP617  ASP618  TYR619  PRO620  LYS621  CYS622 
 ASP623  PHE694  ASN695  SER759  ASP760  ASP761  ALA762  ILE779  LEU786  VAL792 
 PHE793  MET794  SER795  GLU796  ALA797  LYS798  CYS799  TRP800  GLU811  SER814 

> <Gold.Protein.RotatedAtoms>
  151.5734  135.1061  160.0000 H   0  0  0  0  0  0  0  0  0  0  0  0  # atno 6907 bound_to 6896
  152.4389  133.7408  159.6650 H   0  0  0  0  0  0  0  0  0  0  0  0  # atno 6908 bound_to 6896
  150.8291  133.8051  159.3129 H   0  0  0  0  0  0  0  0  0  0  0  0  # atno 6909 bound_to 6896
  145.6441  139.2432  143.2014 H   0  0  0  0  0  0  0  0  0  0  0  0  # atno 7974 bound_to 7965
  154.4343  140.1066  156.6082 H   0  0  0  0  0  0  0  0  0  0  0  0  # atno 8008 bound_to 7997
  155.5837  140.3491  155.4528 H   0  0  0  0  0  0  0  0  0  0  0  0  # atno 8009 bound_to 7997
  156.0299  140.1258  157.0259 H   0  0  0  0  0  0  0  0  0  0  0  0  # atno 8010 bound_to 7997
  139.7027  144.7091  151.1158 H   0  0  0  0  0  0  0  0  0  0  0  0  # atno 10167 bound_to 10162
  156.3577  130.7722  151.1885 H   0  0  0  0  0  0  0  0  0  0  0  0  # atno 10718 bound_to 10713
  154.6614  135.5319  153.8023 H   0  0  0  0  0  0  0  0  0  0  0  0  # atno 10763 bound_to 10752
  153.0444  135.6506  154.0866 H   0  0  0  0  0  0  0  0  0  0  0  0  # atno 10764 bound_to 10752
  154.0774  135.2949  155.3276 H   0  0  0  0  0  0  0  0  0  0  0  0  # atno 10765 bound_to 10752
  140.1991  134.3892  155.8105 H   0  0  0  0  0  0  0  0  0  0  0  0  # atno 11005 bound_to 11000
  146.1257  140.7251  142.9436 LP  0  0  0  0  0  0  0  0  0  0  0  0  # atno 17320 bound_to 7965
  144.7146  140.4165  143.7054 LP  0  0  0  0  0  0  0  0  0  0  0  0  # atno 17321 bound_to 7965
  140.7714  143.5401  150.9322 LP  0  0  0  0  0  0  0  0  0  0  0  0  # atno 17342 bound_to 10162
  139.9083  143.6751  152.3119 LP  0  0  0  0  0  0  0  0  0  0  0  0  # atno 17343 bound_to 10162
  157.7469  131.0409  150.4620 LP  0  0  0  0  0  0  0  0  0  0  0  0  # atno 17370 bound_to 10713
  156.4825  130.4077  149.6453 LP  0  0  0  0  0  0  0  0  0  0  0  0  # atno 17371 bound_to 10713
  141.2227  133.7085  156.8228 LP  0  0  0  0  0  0  0  0  0  0  0  0  # atno 17394 bound_to 11000
  140.2074  134.8853  157.3236 LP  0  0  0  0  0  0  0  0  0  0  0  0  # atno 17395 bound_to 11000

$$$$
