AV-unprocessed.smi:3303|AV-procd|sdf|12678|dock6
  -GOLD-   2272019 13D 1   1.00000     0.00000
 Structure written by MMmdl.
 44 45  0  0  0  0  0  0  0  0  2 V2000
  148.8673  141.7504  154.4463 C   0  0  0  0  0  0  0  0  0  0  0  0
  149.6075  140.7626  155.3637 C   0  0  1  0  0  0  0  0  0  0  0  0
  149.8362  139.4290  154.6224 C   0  0  0  0  0  0  0  0  0  0  0  0
  150.5419  138.4739  155.4765 N   0  0  0  0  0  0  0  0  0  0  0  0
  150.5822  137.1600  154.8466 C   0  0  0  0  0  0  0  0  0  0  0  0
  151.8703  138.9470  155.8932 C   0  0  1  0  0  0  0  0  0  0  0  0
  152.8981  139.0757  154.7455 C   0  0  0  0  0  0  0  0  0  0  0  0
  151.6973  140.2605  156.6825 C   0  0  0  0  0  0  0  0  0  0  0  0
  150.9439  141.3379  155.8813 C   0  0  2  0  0  0  0  0  0  0  0  0
  150.7071  142.5189  156.7413 N   0  3  0  0  0  0  0  0  0  0  0  0
  151.9118  143.3152  157.0476 C   0  0  0  0  0  0  0  0  0  0  0  0
  151.6784  144.2187  158.2659 C   0  0  0  0  0  0  0  0  0  0  0  0
  152.0499  143.5337  159.5672 C   0  0  0  0  0  0  0  0  0  0  0  0
  151.8006  144.1588  160.8076 C   0  0  0  0  0  0  0  0  0  0  0  0
  152.1725  143.4825  161.9858 C   0  0  0  0  0  0  0  0  0  0  0  0
  152.7754  142.2145  161.8782 C   0  0  0  0  0  0  0  0  0  0  0  0
  152.9831  141.6774  160.5920 C   0  0  0  0  0  0  0  0  0  0  0  0
  152.6324  142.3186  159.4557 N   0  0  0  0  0  0  0  0  0  0  0  0
  149.4695  142.0074  153.5742 H   0  0  0  0  0  0  0  0  0  0  0  0
  148.6207  142.6764  154.9659 H   0  0  0  0  0  0  0  0  0  0  0  0
  147.9310  141.3222  154.0868 H   0  0  0  0  0  0  0  0  0  0  0  0
  148.9654  140.5584  156.2223 H   0  0  0  0  0  0  0  0  0  0  0  0
  148.8691  139.0070  154.3451 H   0  0  0  0  0  0  0  0  0  0  0  0
  150.3822  139.5888  153.6924 H   0  0  0  0  0  0  0  0  0  0  0  0
  151.1056  136.4439  155.4807 H   0  0  0  0  0  0  0  0  0  0  0  0
  151.0775  137.1904  153.8759 H   0  0  0  0  0  0  0  0  0  0  0  0
  149.5699  136.7853  154.6917 H   0  0  0  0  0  0  0  0  0  0  0  0
  152.2648  138.2058  156.5895 H   0  0  0  0  0  0  0  0  0  0  0  0
  153.8530  139.4354  155.1293 H   0  0  0  0  0  0  0  0  0  0  0  0
  152.5822  139.7723  153.9697 H   0  0  0  0  0  0  0  0  0  0  0  0
  153.0974  138.1159  154.2698 H   0  0  0  0  0  0  0  0  0  0  0  0
  151.1505  140.0460  157.6024 H   0  0  0  0  0  0  0  0  0  0  0  0
  152.6723  140.6382  156.9936 H   0  0  0  0  0  0  0  0  0  0  0  0
  151.5541  141.6275  155.0243 H   0  0  0  0  0  0  0  0  0  0  0  0
  150.0448  143.1189  156.2707 H   0  0  0  0  0  0  0  0  0  0  0  0
  152.7494  142.6407  157.2307 H   0  0  0  0  0  0  0  0  0  0  0  0
  152.1688  143.9251  156.1805 H   0  0  0  0  0  0  0  0  0  0  0  0
  152.2594  145.1367  158.1667 H   0  0  0  0  0  0  0  0  0  0  0  0
  150.6312  144.5224  158.3126 H   0  0  0  0  0  0  0  0  0  0  0  0
  151.3366  145.1330  160.8587 H   0  0  0  0  0  0  0  0  0  0  0  0
  151.9993  143.9285  162.9542 H   0  0  0  0  0  0  0  0  0  0  0  0
  153.0719  141.6667  162.7606 H   0  0  0  0  0  0  0  0  0  0  0  0
  153.4444  140.7081  160.4727 H   0  0  0  0  0  0  0  0  0  0  0  0
  150.2948  142.2070  157.6091 H   0  0  0  0  0  0  0  0  0  0  0  0
  1  2  1  0  0  0  0
  1 19  1  0  0  0  0
  1 20  1  0  0  0  0
  1 21  1  0  0  0  0
  2  9  1  0  0  0  0
  2  3  1  0  0  0  0
  2 22  1  0  0  0  0
  3  4  1  0  0  0  0
  3 23  1  0  0  0  0
  3 24  1  0  0  0  0
  4  5  1  0  0  0  0
  4  6  1  0  0  0  0
  5 25  1  0  0  0  0
  5 26  1  0  0  0  0
  5 27  1  0  0  0  0
  6  7  1  0  0  0  0
  6  8  1  0  0  0  0
  6 28  1  0  0  0  0
  7 29  1  0  0  0  0
  7 30  1  0  0  0  0
  7 31  1  0  0  0  0
  8  9  1  0  0  0  0
  8 32  1  0  0  0  0
  8 33  1  0  0  0  0
  9 10  1  0  0  0  0
  9 34  1  0  0  0  0
 10 11  1  0  0  0  0
 10 35  1  0  0  0  0
 10 44  1  0  0  0  0
 11 12  1  0  0  0  0
 11 36  1  0  0  0  0
 11 37  1  0  0  0  0
 12 13  1  0  0  0  0
 12 38  1  0  0  0  0
 12 39  1  0  0  0  0
 13 18  1  0  0  0  0
 13 14  2  0  0  0  0
 14 15  1  0  0  0  0
 14 40  1  0  0  0  0
 15 16  2  0  0  0  0
 15 41  1  0  0  0  0
 16 17  1  0  0  0  0
 16 42  1  0  0  0  0
 17 18  2  0  0  0  0
 17 43  1  0  0  0  0
M  CHG  1  10   1
M  END
> <s_m_source_file>
AV-unprocessed.smi

> <i_m_source_file_index>
3303

> <i_lp_mmshare_version>
43012

> <i_f3d_flags>
0

> <s_epik_input>
W0NIM11bQ0BASF0xW0NIMl1OKFtDSDNdKVtDQEBIXShbQ0gzXSlbQ0gyXVtDQEhdMVtOSF1bQ0gyXVtDSDJdYzJbY0hdW2NIXVtjSF1bY0hdbjI=

> <s_epik_cmdline>
J2VwaWtfcHl0aG9uJywgJy1waCcsICc3LjAnLCAnLXRuJywgJzgnLCAnLW1hJywgJzIwMCcsICctbWV0YWxfYmluZGluZycsICctaW1hZScsICc8aW5maWxlLm1hZT4nLCAnLW9tYWUnLCAnPG91dGZpbGUubWFlPic=

> <r_epik_Ionization_Penalty>
1.37325

> <r_epik_Ionization_Penalty_Charging>
0.000251572

> <r_epik_Ionization_Penalty_Neutral>
1.373

> <r_epik_State_Penalty>
1.46343

> <r_epik_Charging_Adjusted_Penalty>
1.46368

> <i_epik_Tot_Q>
1

> <i_epik_Tot_abs_Q>
1

> <r_epik_Metal_State_Penalty>
1.46331

> <b_epik_Metal_Only>
0

> <s_lp_Force_Field>
OPLS_2005

> <r_lp_Energy>
23.1884

> <b_lp_Chiralities_Consistent>
1

> <s_lp_Variant>
AV-unprocessed.smi:3303-22

> <Gold.Version>
5.8.1

> <Gold.Id.Protein>
6NUR|6NUR_protein|mol2

> <Gold.PLP.Fitness>
50.8871

> <Gold.PLP.PLP>
-45.6029

> <Gold.PLP.part.hbond>
-1.0000

> <Gold.PLP.part.metal>
0.0000

> <Gold.PLP.part.buried>
-4.4979

> <Gold.PLP.part.nonpolar>
-38.6143

> <Gold.PLP.part.repulsive>
0.0803

> <Gold.PLP.ligand.clash>
0.0000

> <Gold.PLP.ligand.torsion>
0.3688

> <Gold.PLP.Chemscore.Hbond>
2.0000

> <Gold.PLP.Chemscore.CHOScore>
0.0000

> <Gold.PLP.Chemscore.Metal>
0.0000

> <Gold.Chemscore.Hbonds>
donor molecule, donor type, donor heavy atom, donor atom, acceptor molecule, acceptor atom, score
      L1  H    10    35       P1  8028  1.82

> <Gold.PLP.Chemscore.Internal.Correction>
0.0219

> <Gold.Rescore>
     Score         DG    S(hbond)    S(metal)    S(lipo)     H(rot)  DE(clash)    DE(int)     intcor
     20.00     -21.27       0.99        0.00     135.90       1.33       0.84       0.43       ----

> <Gold.Chemscore.Fitness>
20.0013

> <Gold.Chemscore.DG>
-21.2702

> <Gold.Chemscore.ZeroCoef>
-5.4800

> <Gold.Chemscore.Hbond>
0.9862

> <Gold.Chemscore.Metal>
0.0000

> <Gold.Chemscore.Lipo>
135.9034

> <Gold.Chemscore.Internal_Hbond>
0.0000

> <Gold.Chemscore.DEClash>
0.8391

> <Gold.Chemscore.DEInternal>
0.4298

> <Gold.Chemscore.Rot>
1.3298

> <Gold.Chemscore.Internal.Correction>
   9.000000E+99

> <Gold.Chemscore.Hbonds>
donor molecule, donor type, donor heavy atom, donor atom, acceptor molecule, acceptor atom, score
      L1  H    10    35       P1  8028  0.87

> <Gold.Chemscore.Hbond.Weighted>
-3.2939

> <Gold.Chemscore.Metal.Weighted>
-0.0000

> <Gold.Chemscore.Lipo.Weighted>
-15.9007

> <Gold.Chemscore.Internal_Hbond.Weighted>
0.0000

> <Gold.Chemscore.DEClash.Weighted>
0.8391

> <Gold.Chemscore.DEInternal.Weighted>
0.4298

> <Gold.Chemscore.Rot.Weighted>
3.4043

> <Gold.Chemscore.Internal.Correction.Weighted>
   9.000000E+99

> <Gold.Protein.RotatedTorsions>
[ 6907 6896 6895 6894 ] final  -39.89 input  -60.11 | X-H torsion
[ 7974 7965 7964 7962 ] final  137.52 input  175.53 | X-H torsion
[ 8008 7997 7996 7995 ] final  -74.05 input   59.86 | X-H torsion
[ 10167 10162 10161 10158 ] final    7.39 input  -65.29 | X-H torsion
[ 10718 10713 10712 10709 ] final  -71.68 input   66.30 | X-H torsion
[ 10763 10752 10751 10750 ] final  -32.82 input  -60.55 | X-H torsion
[ 11005 11000 10999 10996 ] final  135.71 input  -57.11 | X-H torsion

> <Gold.Protein.ActiveResidues>
 VAL166  LYS551  ARG553  GLY616  TRP617  ASP618  TYR619  PRO620  LYS621  CYS622 
 ASP623  PHE694  ASN695  SER759  ASP760  ASP761  ALA762  ILE779  LEU786  VAL792 
 PHE793  MET794  SER795  GLU796  ALA797  LYS798  CYS799  TRP800  GLU811  SER814 

> <Gold.Protein.RotatedAtoms>
  150.9850  134.9197  159.7866 H   0  0  0  0  0  0  0  0  0  0  0  0  # atno 6907 bound_to 6896
  152.5233  134.3359  159.9209 H   0  0  0  0  0  0  0  0  0  0  0  0  # atno 6908 bound_to 6896
  151.3365  133.3938  159.2702 H   0  0  0  0  0  0  0  0  0  0  0  0  # atno 6909 bound_to 6896
  144.9460  139.4874  143.5549 H   0  0  0  0  0  0  0  0  0  0  0  0  # atno 7974 bound_to 7965
  154.5298  140.0768  156.8325 H   0  0  0  0  0  0  0  0  0  0  0  0  # atno 8008 bound_to 7997
  155.3398  140.3406  155.4221 H   0  0  0  0  0  0  0  0  0  0  0  0  # atno 8009 bound_to 7997
  156.1770  140.1639  156.8331 H   0  0  0  0  0  0  0  0  0  0  0  0  # atno 8010 bound_to 7997
  140.6374  143.7854  150.7379 H   0  0  0  0  0  0  0  0  0  0  0  0  # atno 10167 bound_to 10162
  156.0352  130.4356  150.2480 H   0  0  0  0  0  0  0  0  0  0  0  0  # atno 10718 bound_to 10713
  153.8201  135.6875  153.4828 H   0  0  0  0  0  0  0  0  0  0  0  0  # atno 10763 bound_to 10752
  153.1575  135.4593  154.9723 H   0  0  0  0  0  0  0  0  0  0  0  0  # atno 10764 bound_to 10752
  154.7931  135.3309  154.7674 H   0  0  0  0  0  0  0  0  0  0  0  0  # atno 10765 bound_to 10752
  139.9998  134.9483  157.0046 H   0  0  0  0  0  0  0  0  0  0  0  0  # atno 11005 bound_to 11000
  146.3303  139.8512  142.8873 LP  0  0  0  0  0  0  0  0  0  0  0  0  # atno 17320 bound_to 7965
  145.2917  141.0169  143.3659 LP  0  0  0  0  0  0  0  0  0  0  0  0  # atno 17321 bound_to 7965
  140.1478  143.4384  152.2151 LP  0  0  0  0  0  0  0  0  0  0  0  0  # atno 17342 bound_to 10162
  139.5584  144.7389  151.4227 LP  0  0  0  0  0  0  0  0  0  0  0  0  # atno 17343 bound_to 10162
  157.0580  131.0082  151.3232 LP  0  0  0  0  0  0  0  0  0  0  0  0  # atno 17370 bound_to 10713
  157.5091  130.7927  149.7686 LP  0  0  0  0  0  0  0  0  0  0  0  0  # atno 17371 bound_to 10713
  140.4749  134.1348  155.7208 LP  0  0  0  0  0  0  0  0  0  0  0  0  # atno 17394 bound_to 11000
  141.1633  133.8751  157.1787 LP  0  0  0  0  0  0  0  0  0  0  0  0  # atno 17395 bound_to 11000

$$$$
