AV-unprocessed.smi:48|AV-procd|sdf|452|dock1
  -GOLD-   2262016323D 1   1.00000     0.00000
 Structure written by MMmdl.
 30 32  0  0  0  0  0  0  0  0  1 V2000
  147.3978  142.7875  154.4753 O   0  0  0  0  0  0  0  0  0  0  0  0
  148.0105  141.5607  154.1401 C   0  0  0  0  0  0  0  0  0  0  0  0
  148.8861  141.0706  155.3065 C   0  0  2  0  0  0  0  0  0  0  0  0
  149.9399  141.9932  155.5761 O   0  0  0  0  0  0  0  0  0  0  0  0
  151.0530  141.3322  156.1002 C   0  0  1  0  0  0  0  0  0  0  0  0
  151.3357  141.8532  157.4783 N   0  0  0  0  0  0  0  0  0  0  0  0
  150.7348  142.8986  158.0820 C   0  0  0  0  0  0  0  0  0  0  0  0
  151.1262  143.2056  159.3175 N   0  0  0  0  0  0  0  0  0  0  0  0
  152.0942  142.2423  159.5468 C   0  0  0  0  0  0  0  0  0  0  0  0
  152.9281  141.9692  160.6582 C   0  0  0  0  0  0  0  0  0  0  0  0
  152.8455  142.9312  162.0886 Cl  0  0  0  0  0  0  0  0  0  0  0  0
  153.7964  140.9335  160.5745 N   0  0  0  0  0  0  0  0  0  0  0  0
  153.8391  140.2039  159.4530 C   0  0  0  0  0  0  0  0  0  0  0  0
  153.1193  140.3409  158.3341 N   0  0  0  0  0  0  0  0  0  0  0  0
  152.2436  141.3858  158.4181 C   0  0  0  0  0  0  0  0  0  0  0  0
  150.7714  139.8161  156.0589 C   0  0  1  0  0  0  0  0  0  0  0  0
  150.4088  139.2607  157.3107 O   0  0  0  0  0  0  0  0  0  0  0  0
  149.6113  139.7367  155.0788 C   0  0  2  0  0  0  0  0  0  0  0  0
  150.0959  139.6327  153.7518 O   0  0  0  0  0  0  0  0  0  0  0  0
  148.2752  140.9630  156.2034 H   0  0  0  0  0  0  0  0  0  0  0  0
  151.9296  141.6109  155.5140 H   0  0  0  0  0  0  0  0  0  0  0  0
  151.6558  139.2873  155.7008 H   0  0  0  0  0  0  0  0  0  0  0  0
  148.9608  138.8817  155.2680 H   0  0  0  0  0  0  0  0  0  0  0  0
  147.9895  143.2797  155.0238 H   0  0  0  0  0  0  0  0  0  0  0  0
  147.2136  140.8437  153.9414 H   0  0  0  0  0  0  0  0  0  0  0  0
  148.5912  141.6670  153.2233 H   0  0  0  0  0  0  0  0  0  0  0  0
  149.9643  143.4690  157.5840 H   0  0  0  0  0  0  0  0  0  0  0  0
  154.5535  139.3938  159.4508 H   0  0  0  0  0  0  0  0  0  0  0  0
  149.8367  138.5246  157.1570 H   0  0  0  0  0  0  0  0  0  0  0  0
  149.6084  138.9570  153.3062 H   0  0  0  0  0  0  0  0  0  0  0  0
  1  2  1  0  0  0  0
  1 24  1  0  0  0  0
  2  3  1  0  0  0  0
  2 25  1  0  0  0  0
  2 26  1  0  0  0  0
  3 20  1  0  0  0  0
  3 18  1  0  0  0  0
  3  4  1  0  0  0  0
  4  5  1  0  0  0  0
  5 21  1  0  0  0  0
  5  6  1  0  0  0  0
  5 16  1  0  0  0  0
  6 15  1  0  0  0  0
  6  7  1  0  0  0  0
  7  8  2  0  0  0  0
  7 27  1  0  0  0  0
  8  9  1  0  0  0  0
  9 15  2  0  0  0  0
  9 10  1  0  0  0  0
 10 11  1  0  0  0  0
 10 12  2  0  0  0  0
 12 13  1  0  0  0  0
 13 14  2  0  0  0  0
 13 28  1  0  0  0  0
 14 15  1  0  0  0  0
 16 22  1  0  0  0  0
 16 17  1  0  0  0  0
 16 18  1  0  0  0  0
 17 29  1  0  0  0  0
 18 23  1  0  0  0  0
 18 19  1  0  0  0  0
 19 30  1  0  0  0  0
M  END
> <s_m_source_file>
AV-unprocessed.smi

> <i_m_source_file_index>
48

> <i_lp_mmshare_version>
43012

> <i_f3d_flags>
0

> <s_epik_input>
W09IXVtDSDJdW0NASF0xT1tDQEhdKFtDQEhdKFtPSF0pW0NAQEhdMVtPSF0pbihbY0hdbjIpYyhjMjMpbltjSF1uYzNDbA==

> <s_epik_cmdline>
J2VwaWtfcHl0aG9uJywgJy1waCcsICc3LjAnLCAnLXRuJywgJzgnLCAnLW1hJywgJzIwMCcsICctbWV0YWxfYmluZGluZycsICctaW1hZScsICc8aW5maWxlLm1hZT4nLCAnLW9tYWUnLCAnPG91dGZpbGUubWFlPic=

> <r_lp_tautomer_probability>
1

> <r_epik_Ionization_Penalty>
3.45505e-06

> <r_epik_Ionization_Penalty_Charging>
0

> <r_epik_Ionization_Penalty_Neutral>
3.45505e-06

> <r_epik_State_Penalty>
-0

> <r_epik_Charging_Adjusted_Penalty>
0

> <i_epik_Tot_Q>
0

> <i_epik_Tot_abs_Q>
0

> <r_epik_Metal_State_Penalty>
-0

> <b_epik_Metal_Only>
0

> <s_epik_Chemistry_Notes>
This compound contains an acetal/aminal-like group ( X-CH(R)-Y where X, Y are N, S, or O) that may be acid/base labile, releasing an aldehyde.

> <s_lp_Force_Field>
OPLS_2005

> <r_lp_Energy>
39.5324

> <b_lp_Chiralities_Consistent>
1

> <s_lp_Variant>
AV-unprocessed.smi:48-6

> <Gold.Version>
5.8.1

> <Gold.Id.Protein>
6NUR|6NUR_protein|mol2

> <Gold.PLP.Fitness>
47.1181

> <Gold.PLP.PLP>
-35.9433

> <Gold.PLP.part.hbond>
-4.0917

> <Gold.PLP.part.metal>
0.0000

> <Gold.PLP.part.buried>
-5.3355

> <Gold.PLP.part.nonpolar>
-27.2258

> <Gold.PLP.part.repulsive>
1.4100

> <Gold.PLP.ligand.clash>
0.0000

> <Gold.PLP.ligand.torsion>
0.1256

> <Gold.PLP.Chemscore.Hbond>
2.8080

> <Gold.PLP.Chemscore.CHOScore>
1.0000

> <Gold.PLP.Chemscore.Metal>
0.0000

> <Gold.Chemscore.Hbonds>
donor molecule, donor type, donor heavy atom, donor atom, acceptor molecule, acceptor atom, score
      L1  H     1    24       P1  8028  1.00
      P1  H  7989  7998       L1    19  0.90
      P1  H  7997  8009       L1    14  0.84
      L1  C     7    27       P1  8028  1.00

> <Gold.PLP.Chemscore.Internal.Correction>
0.0019

> <Gold.Rescore>
     Score         DG    S(hbond)    S(metal)    S(lipo)     H(rot)  DE(clash)    DE(int)     intcor
      8.91     -10.33       2.38        0.00      56.75       3.80       0.02       1.40       ----

> <Gold.Chemscore.Fitness>
8.9122

> <Gold.Chemscore.DG>
-10.3318

> <Gold.Chemscore.ZeroCoef>
-5.4800

> <Gold.Chemscore.Hbond>
2.3784

> <Gold.Chemscore.Metal>
0.0000

> <Gold.Chemscore.Lipo>
56.7542

> <Gold.Chemscore.Internal_Hbond>
0.0000

> <Gold.Chemscore.DEClash>
0.0226

> <Gold.Chemscore.DEInternal>
1.3970

> <Gold.Chemscore.Rot>
3.8017

> <Gold.Chemscore.Internal.Correction>
   9.000000E+99

> <Gold.Chemscore.Hbonds>
donor molecule, donor type, donor heavy atom, donor atom, acceptor molecule, acceptor atom, score
      L1  H     1    24       P1  8028  0.81
      P1  H  7989  7998       L1    19  0.68
      P1  H  7997  8009       L1    14  0.18

> <Gold.Chemscore.Hbond.Weighted>
-7.9440

> <Gold.Chemscore.Metal.Weighted>
-0.0000

> <Gold.Chemscore.Lipo.Weighted>
-6.6402

> <Gold.Chemscore.Internal_Hbond.Weighted>
0.0000

> <Gold.Chemscore.DEClash.Weighted>
0.0226

> <Gold.Chemscore.DEInternal.Weighted>
1.3970

> <Gold.Chemscore.Rot.Weighted>
9.7324

> <Gold.Chemscore.Internal.Correction.Weighted>
   9.000000E+99

> <Gold.Protein.RotatedTorsions>
[ 6907 6896 6895 6894 ] final  179.55 input  -60.11 | X-H torsion
[ 7974 7965 7964 7962 ] final -166.00 input  175.53 | X-H torsion
[ 8008 7997 7996 7995 ] final  157.73 input   59.86 | X-H torsion
[ 10167 10162 10161 10158 ] final  161.26 input  -65.29 | X-H torsion
[ 10718 10713 10712 10709 ] final  -17.51 input   66.30 | X-H torsion
[ 10763 10752 10751 10750 ] final  -23.97 input  -60.55 | X-H torsion
[ 11005 11000 10999 10996 ] final -168.71 input  -57.11 | X-H torsion

> <Gold.Protein.ActiveResidues>
 VAL166  LYS551  ARG553  GLY616  TRP617  ASP618  TYR619  PRO620  LYS621  CYS622 
 ASP623  PHE694  ASN695  SER759  ASP760  ASP761  ALA762  ILE779  LEU786  VAL792 
 PHE793  MET794  SER795  GLU796  ALA797  LYS798  CYS799  TRP800  GLU811  SER814 

> <Gold.Protein.RotatedAtoms>
  151.6698  133.3314  159.3193 H   0  0  0  0  0  0  0  0  0  0  0  0  # atno 6907 bound_to 6896
  150.7873  134.6872  159.6486 H   0  0  0  0  0  0  0  0  0  0  0  0  # atno 6908 bound_to 6896
  152.3946  134.6390  160.0146 H   0  0  0  0  0  0  0  0  0  0  0  0  # atno 6909 bound_to 6896
  144.7256  140.2731  143.6247 H   0  0  0  0  0  0  0  0  0  0  0  0  # atno 7974 bound_to 7965
  156.2346  140.1877  156.7153 H   0  0  0  0  0  0  0  0  0  0  0  0  # atno 8008 bound_to 7997
  154.6083  140.0625  156.9488 H   0  0  0  0  0  0  0  0  0  0  0  0  # atno 8009 bound_to 7997
  155.2058  140.3296  155.4339 H   0  0  0  0  0  0  0  0  0  0  0  0  # atno 8010 bound_to 7997
  139.4847  144.4553  151.8776 H   0  0  0  0  0  0  0  0  0  0  0  0  # atno 10167 bound_to 10162
  156.5725  130.4753  149.6356 H   0  0  0  0  0  0  0  0  0  0  0  0  # atno 10718 bound_to 10713
  153.6764  135.6969  153.5131 H   0  0  0  0  0  0  0  0  0  0  0  0  # atno 10763 bound_to 10752
  153.2519  135.4272  155.0805 H   0  0  0  0  0  0  0  0  0  0  0  0  # atno 10764 bound_to 10752
  154.8412  135.3533  154.6307 H   0  0  0  0  0  0  0  0  0  0  0  0  # atno 10765 bound_to 10752
  140.5389  134.5542  157.5094 H   0  0  0  0  0  0  0  0  0  0  0  0  # atno 11005 bound_to 11000
  145.8024  139.1969  143.2040 LP  0  0  0  0  0  0  0  0  0  0  0  0  # atno 17320 bound_to 7965
  146.0666  140.7914  142.9709 LP  0  0  0  0  0  0  0  0  0  0  0  0  # atno 17321 bound_to 7965
  140.4013  144.2490  150.5893 LP  0  0  0  0  0  0  0  0  0  0  0  0  # atno 17342 bound_to 10162
  140.5055  143.2305  151.8615 LP  0  0  0  0  0  0  0  0  0  0  0  0  # atno 17343 bound_to 10162
  156.2702  130.7012  151.1807 LP  0  0  0  0  0  0  0  0  0  0  0  0  # atno 17370 bound_to 10713
  157.7345  131.0581  150.5522 LP  0  0  0  0  0  0  0  0  0  0  0  0  # atno 17371 bound_to 10713
  139.9514  134.7610  156.0439 LP  0  0  0  0  0  0  0  0  0  0  0  0  # atno 17394 bound_to 11000
  141.1239  133.6605  156.3285 LP  0  0  0  0  0  0  0  0  0  0  0  0  # atno 17395 bound_to 11000

$$$$
