AV-unprocessed.smi:1911|AV-procd|sdf|7738|dock1
  -GOLD-   22720 9473D 1   1.00000     0.00000
 Structure written by MMmdl.
 51 53  0  0  0  0  0  0  0  0  1 V2000
  142.6928  132.4874  149.2179 N   0  0  0  0  0  0  0  0  0  0  0  0
  143.6935  132.4554  150.1015 C   0  0  0  0  0  0  0  0  0  0  0  0
  144.7236  131.8145  149.9036 O   0  0  0  0  0  0  0  0  0  0  0  0
  143.5149  133.2643  151.3924 C   0  0  0  0  0  0  0  0  0  0  0  0
  144.5635  134.2825  151.6310 N   0  0  0  0  0  0  0  0  0  0  0  0
  144.4134  134.8208  152.9872 C   0  0  0  0  0  0  0  0  0  0  0  0
  145.5646  135.7852  153.3201 C   0  0  0  0  0  0  0  0  0  0  0  0
  145.6271  136.9419  152.3092 C   0  0  0  0  0  0  0  0  0  0  0  0
  146.7975  137.7813  152.5472 N   0  0  0  0  0  0  0  0  0  0  0  0
  147.1271  138.3328  153.7238 C   0  0  0  0  0  0  0  0  0  0  0  0
  146.4637  138.1893  154.7504 O   0  0  0  0  0  0  0  0  0  0  0  0
  148.2516  139.0615  153.6178 N   0  0  0  0  0  0  0  0  0  0  0  0
  148.9291  139.8009  154.6248 C   0  0  0  0  0  0  0  0  0  0  0  0
  149.0981  139.3661  155.9600 C   0  0  0  0  0  0  0  0  0  0  0  0
  149.8043  140.1868  156.8605 C   0  0  0  0  0  0  0  0  0  0  0  0
  150.3340  141.4171  156.4041 C   0  0  0  0  0  0  0  0  0  0  0  0
  151.0389  142.2708  157.2753 N   0  0  0  0  0  0  0  0  0  0  0  0
  151.0388  142.0714  158.7161 C   0  0  0  0  0  0  0  0  0  0  0  0
  151.8123  143.2665  159.2706 C   0  0  0  0  0  0  0  0  0  0  0  0
  151.4776  144.3845  158.2827 C   0  0  0  0  0  0  0  0  0  0  0  0
  151.3102  143.6620  156.9406 C   0  0  0  0  0  0  0  0  0  0  0  0
  150.1780  141.8269  155.1228 N   0  0  0  0  0  0  0  0  0  0  0  0
  149.5016  141.0365  154.2637 C   0  0  0  0  0  0  0  0  0  0  0  0
  145.6819  136.3600  150.8900 C   0  0  0  0  0  0  0  0  0  0  0  0
  144.5276  135.3722  150.6446 C   0  0  0  0  0  0  0  0  0  0  0  0
  142.7714  131.9687  148.3552 H   0  0  0  0  0  0  0  0  0  0  0  0
  141.8631  133.0284  149.4130 H   0  0  0  0  0  0  0  0  0  0  0  0
  142.5330  133.7418  151.3963 H   0  0  0  0  0  0  0  0  0  0  0  0
  143.5129  132.5483  152.2156 H   0  0  0  0  0  0  0  0  0  0  0  0
  143.4529  135.3292  153.0910 H   0  0  0  0  0  0  0  0  0  0  0  0
  144.4196  134.0051  153.7117 H   0  0  0  0  0  0  0  0  0  0  0  0
  145.4345  136.1746  154.3305 H   0  0  0  0  0  0  0  0  0  0  0  0
  146.5082  135.2372  153.3193 H   0  0  0  0  0  0  0  0  0  0  0  0
  144.7224  137.5467  152.3986 H   0  0  0  0  0  0  0  0  0  0  0  0
  147.3997  137.9539  151.7556 H   0  0  0  0  0  0  0  0  0  0  0  0
  148.6401  139.1427  152.6895 H   0  0  0  0  0  0  0  0  0  0  0  0
  148.7140  138.4210  156.3105 H   0  0  0  0  0  0  0  0  0  0  0  0
  149.9257  139.8634  157.8835 H   0  0  0  0  0  0  0  0  0  0  0  0
  150.0115  142.0730  159.0834 H   0  0  0  0  0  0  0  0  0  0  0  0
  151.5050  141.1252  158.9930 H   0  0  0  0  0  0  0  0  0  0  0  0
  151.5414  143.5076  160.2988 H   0  0  0  0  0  0  0  0  0  0  0  0
  152.8830  143.0589  159.2424 H   0  0  0  0  0  0  0  0  0  0  0  0
  150.5324  144.8486  158.5673 H   0  0  0  0  0  0  0  0  0  0  0  0
  152.2374  145.1658  158.2506 H   0  0  0  0  0  0  0  0  0  0  0  0
  152.2302  143.7111  156.3573 H   0  0  0  0  0  0  0  0  0  0  0  0
  150.5063  144.1099  156.3552 H   0  0  0  0  0  0  0  0  0  0  0  0
  149.4111  141.4086  153.2534 H   0  0  0  0  0  0  0  0  0  0  0  0
  145.6390  137.1650  150.1553 H   0  0  0  0  0  0  0  0  0  0  0  0
  146.6328  135.8484  150.7319 H   0  0  0  0  0  0  0  0  0  0  0  0
  144.6279  134.9847  149.6308 H   0  0  0  0  0  0  0  0  0  0  0  0
  143.5684  135.8906  150.6909 H   0  0  0  0  0  0  0  0  0  0  0  0
  1  2  1  0  0  0  0
  1 26  1  0  0  0  0
  1 27  1  0  0  0  0
  2  3  2  0  0  0  0
  2  4  1  0  0  0  0
  4  5  1  0  0  0  0
  4 28  1  0  0  0  0
  4 29  1  0  0  0  0
  5 25  1  0  0  0  0
  5  6  1  0  0  0  0
  6  7  1  0  0  0  0
  6 30  1  0  0  0  0
  6 31  1  0  0  0  0
  7  8  1  0  0  0  0
  7 32  1  0  0  0  0
  7 33  1  0  0  0  0
  8  9  1  0  0  0  0
  8 24  1  0  0  0  0
  8 34  1  0  0  0  0
  9 10  1  0  0  0  0
  9 35  1  0  0  0  0
 10 11  2  0  0  0  0
 10 12  1  0  0  0  0
 12 13  1  0  0  0  0
 12 36  1  0  0  0  0
 13 23  1  0  0  0  0
 13 14  2  0  0  0  0
 14 15  1  0  0  0  0
 14 37  1  0  0  0  0
 15 16  2  0  0  0  0
 15 38  1  0  0  0  0
 16 17  1  0  0  0  0
 16 22  1  0  0  0  0
 17 21  1  0  0  0  0
 17 18  1  0  0  0  0
 18 19  1  0  0  0  0
 18 39  1  0  0  0  0
 18 40  1  0  0  0  0
 19 20  1  0  0  0  0
 19 41  1  0  0  0  0
 19 42  1  0  0  0  0
 20 21  1  0  0  0  0
 20 43  1  0  0  0  0
 20 44  1  0  0  0  0
 21 45  1  0  0  0  0
 21 46  1  0  0  0  0
 22 23  2  0  0  0  0
 23 47  1  0  0  0  0
 24 25  1  0  0  0  0
 24 48  1  0  0  0  0
 24 49  1  0  0  0  0
 25 50  1  0  0  0  0
 25 51  1  0  0  0  0
M  END
> <s_m_source_file>
AV-unprocessed.smi

> <i_m_source_file_index>
1911

> <i_lp_mmshare_version>
43012

> <i_f3d_flags>
0

> <s_epik_input>
W05IMl1DKD1PKVtDSDJdTjFbQ0gyXVtDSDJdW0NIXShbQ0gyXVtDSDJdMSlbTkhdQyg9TylbTkhdYzJbY0hdW2NIXWMobltjSF0yKU4zW0NIMl1bQ0gyXVtDSDJdW0NIMl0z

> <s_epik_cmdline>
J2VwaWtfcHl0aG9uJywgJy1waCcsICc3LjAnLCAnLXRuJywgJzgnLCAnLW1hJywgJzIwMCcsICctbWV0YWxfYmluZGluZycsICctaW1hZScsICc8aW5maWxlLm1hZT4nLCAnLW9tYWUnLCAnPG91dGZpbGUubWFlPic=

> <r_lp_tautomer_probability>
1

> <r_epik_Ionization_Penalty>
0.268698

> <r_epik_Ionization_Penalty_Charging>
0

> <r_epik_Ionization_Penalty_Neutral>
0.268698

> <r_epik_State_Penalty>
0.247497

> <r_epik_Charging_Adjusted_Penalty>
0.247497

> <i_epik_Tot_Q>
0

> <i_epik_Tot_abs_Q>
0

> <r_epik_Metal_State_Penalty>
0.244803

> <b_epik_Metal_Only>
0

> <s_lp_Force_Field>
OPLS_2005

> <r_lp_Energy>
37.3051

> <b_lp_Chiralities_Consistent>
1

> <s_lp_Variant>
AV-unprocessed.smi:1911-1

> <Gold.Version>
5.8.1

> <Gold.Id.Protein>
6NUR|6NUR_protein|mol2

> <Gold.PLP.Fitness>
48.7913

> <Gold.PLP.PLP>
-40.5785

> <Gold.PLP.part.hbond>
-5.4394

> <Gold.PLP.part.metal>
0.0000

> <Gold.PLP.part.buried>
-0.6656

> <Gold.PLP.part.nonpolar>
-36.0168

> <Gold.PLP.part.repulsive>
0.7313

> <Gold.PLP.ligand.clash>
0.0000

> <Gold.PLP.ligand.torsion>
0.4718

> <Gold.PLP.Chemscore.Hbond>
2.0419

> <Gold.PLP.Chemscore.CHOScore>
0.9430

> <Gold.PLP.Chemscore.Metal>
0.0000

> <Gold.Chemscore.Hbonds>
donor molecule, donor type, donor heavy atom, donor atom, acceptor molecule, acceptor atom, score
      L1  H     1    27       P1 10186  1.00
      L1  H     9    35       P1  7948  0.03
      L1  H    12    36       P1  7957  1.00
      L1  C    23    47       P1  7957  0.93

> <Gold.PLP.Chemscore.Internal.Correction>
0.2019

> <Gold.Rescore>
     Score         DG    S(hbond)    S(metal)    S(lipo)     H(rot)  DE(clash)    DE(int)     intcor
     15.05     -18.28       2.02        0.00      92.94       1.89       1.78       1.44       ----

> <Gold.Chemscore.Fitness>
15.0536

> <Gold.Chemscore.DG>
-18.2822

> <Gold.Chemscore.ZeroCoef>
-5.4800

> <Gold.Chemscore.Hbond>
2.0228

> <Gold.Chemscore.Metal>
0.0000

> <Gold.Chemscore.Lipo>
92.9354

> <Gold.Chemscore.Internal_Hbond>
0.0000

> <Gold.Chemscore.DEClash>
1.7847

> <Gold.Chemscore.DEInternal>
1.4440

> <Gold.Chemscore.Rot>
1.8857

> <Gold.Chemscore.Internal.Correction>
   9.000000E+99

> <Gold.Chemscore.Hbonds>
donor molecule, donor type, donor heavy atom, donor atom, acceptor molecule, acceptor atom, score
      L1  H     1    27       P1 10186  0.97
      L1  H     9    35       P1  7948  0.04
      L1  H    12    36       P1  7957  0.94

> <Gold.Chemscore.Hbond.Weighted>
-6.7563

> <Gold.Chemscore.Metal.Weighted>
-0.0000

> <Gold.Chemscore.Lipo.Weighted>
-10.8734

> <Gold.Chemscore.Internal_Hbond.Weighted>
0.0000

> <Gold.Chemscore.DEClash.Weighted>
1.7847

> <Gold.Chemscore.DEInternal.Weighted>
1.4440

> <Gold.Chemscore.Rot.Weighted>
4.8275

> <Gold.Chemscore.Internal.Correction.Weighted>
   9.000000E+99

> <Gold.Protein.RotatedTorsions>
[ 6907 6896 6895 6894 ] final  170.36 input  -60.11 | X-H torsion
[ 7974 7965 7964 7962 ] final -139.87 input  175.53 | X-H torsion
[ 8008 7997 7996 7995 ] final   57.60 input   59.86 | X-H torsion
[ 10167 10162 10161 10158 ] final  -84.17 input  -65.29 | X-H torsion
[ 10718 10713 10712 10709 ] final  102.42 input   66.30 | X-H torsion
[ 10763 10752 10751 10750 ] final  124.13 input  -60.55 | X-H torsion
[ 11005 11000 10999 10996 ] final   53.20 input  -57.11 | X-H torsion

> <Gold.Protein.ActiveResidues>
 VAL166  LYS551  ARG553  GLY616  TRP617  ASP618  TYR619  PRO620  LYS621  CYS622 
 ASP623  PHE694  ASN695  SER759  ASP760  ASP761  ALA762  ILE779  LEU786  VAL792 
 PHE793  MET794  SER795  GLU796  ALA797  LYS798  CYS799  TRP800  GLU811  SER814 

> <Gold.Protein.RotatedAtoms>
  151.8174  133.3390  159.3573 H   0  0  0  0  0  0  0  0  0  0  0  0  # atno 6907 bound_to 6896
  150.7306  134.5606  159.5850 H   0  0  0  0  0  0  0  0  0  0  0  0  # atno 6908 bound_to 6896
  152.3031  134.7588  160.0404 H   0  0  0  0  0  0  0  0  0  0  0  0  # atno 6909 bound_to 6896
  144.8642  140.6268  143.5308 H   0  0  0  0  0  0  0  0  0  0  0  0  # atno 7974 bound_to 7965
  155.5364  140.3483  155.4437 H   0  0  0  0  0  0  0  0  0  0  0  0  # atno 8008 bound_to 7997
  156.0682  140.1356  156.9886 H   0  0  0  0  0  0  0  0  0  0  0  0  # atno 8009 bound_to 7997
  154.4514  140.0971  156.6604 H   0  0  0  0  0  0  0  0  0  0  0  0  # atno 8010 bound_to 7997
  140.4157  143.2604  151.8957 H   0  0  0  0  0  0  0  0  0  0  0  0  # atno 10167 bound_to 10162
  157.6802  131.0752  150.5402 H   0  0  0  0  0  0  0  0  0  0  0  0  # atno 10718 bound_to 10713
  153.6565  135.3354  155.3115 H   0  0  0  0  0  0  0  0  0  0  0  0  # atno 10763 bound_to 10752
  154.8525  135.4353  154.1849 H   0  0  0  0  0  0  0  0  0  0  0  0  # atno 10764 bound_to 10752
  153.2805  135.7008  153.7465 H   0  0  0  0  0  0  0  0  0  0  0  0  # atno 10765 bound_to 10752
  140.0787  134.5369  155.8969 H   0  0  0  0  0  0  0  0  0  0  0  0  # atno 11005 bound_to 11000
  145.4253  139.1557  143.4052 LP  0  0  0  0  0  0  0  0  0  0  0  0  # atno 17320 bound_to 7965
  146.2884  140.4365  142.8749 LP  0  0  0  0  0  0  0  0  0  0  0  0  # atno 17321 bound_to 7965
  139.4782  144.5490  151.8415 LP  0  0  0  0  0  0  0  0  0  0  0  0  # atno 17342 bound_to 10162
  140.4589  144.1751  150.5904 LP  0  0  0  0  0  0  0  0  0  0  0  0  # atno 17343 bound_to 10162
  156.5709  130.4279  149.6020 LP  0  0  0  0  0  0  0  0  0  0  0  0  # atno 17370 bound_to 10713
  156.2741  130.7034  151.1840 LP  0  0  0  0  0  0  0  0  0  0  0  0  # atno 17371 bound_to 10713
  141.2039  133.6635  156.6088 LP  0  0  0  0  0  0  0  0  0  0  0  0  # atno 17394 bound_to 11000
  140.3520  134.7760  157.4473 LP  0  0  0  0  0  0  0  0  0  0  0  0  # atno 17395 bound_to 11000

$$$$
