AV-unprocessed.smi:1234|AV-procd|sdf|5174|dock10
  -GOLD-   22720 4253D 1   1.00000     0.00000
 Structure written by MMmdl.
 32 33  0  0  0  0  0  0  0  0  2 V2000
  149.2718  135.7677  158.8167 O   0  0  0  0  0  0  0  0  0  0  0  0
  148.9850  136.8886  159.2436 C   0  0  0  0  0  0  0  0  0  0  0  0
  149.5060  137.9773  158.6621 N   0  0  0  0  0  0  0  0  0  0  0  0
  150.4254  137.9680  157.5313 C   0  0  0  0  0  0  0  0  0  0  0  0
  150.9381  139.3906  157.2446 C   0  0  0  0  0  0  0  0  0  0  0  0
  152.2433  139.7406  157.9796 C   0  0  0  0  0  0  0  0  0  0  0  0
  153.1535  138.9129  158.0459 O   0  0  0  0  0  0  0  0  0  0  0  0
  152.3503  140.9649  158.5368 N   0  0  0  0  0  0  0  0  0  0  0  0
  153.5415  141.4283  159.2458 C   0  0  0  0  0  0  0  0  0  0  0  0
  153.3371  142.9274  159.4641 C   0  0  0  0  0  0  0  0  0  0  0  0
  151.8248  143.1018  159.4586 C   0  0  0  0  0  0  0  0  0  0  0  0
  151.3226  142.0058  158.5176 C   0  0  0  0  0  0  0  0  0  0  0  0
  148.1650  137.1653  160.2832 N   0  5  0  0  0  0  0  0  0  0  0  0
  147.6838  136.1673  161.0427 C   0  0  0  0  0  0  0  0  0  0  0  0
  147.3415  134.9751  160.5279 N   0  0  0  0  0  0  0  0  0  0  0  0
  146.8709  134.0830  161.4818 N   0  0  0  0  0  0  0  0  0  0  0  0
  146.8781  134.6256  162.6993 C   0  0  0  0  0  0  0  0  0  0  0  0
  147.4637  136.2732  162.7917 S   0  0  0  0  0  0  0  0  0  0  0  0
  149.2469  138.8771  159.0390 H   0  0  0  0  0  0  0  0  0  0  0  0
  151.2616  137.3024  157.7530 H   0  0  0  0  0  0  0  0  0  0  0  0
  149.9092  137.5646  156.6584 H   0  0  0  0  0  0  0  0  0  0  0  0
  151.0965  139.5052  156.1715 H   0  0  0  0  0  0  0  0  0  0  0  0
  150.1739  140.1128  157.5338 H   0  0  0  0  0  0  0  0  0  0  0  0
  153.6096  140.9069  160.2020 H   0  0  0  0  0  0  0  0  0  0  0  0
  154.4567  141.2306  158.6856 H   0  0  0  0  0  0  0  0  0  0  0  0
  153.8021  143.2882  160.3820 H   0  0  0  0  0  0  0  0  0  0  0  0
  153.7708  143.4811  158.6301 H   0  0  0  0  0  0  0  0  0  0  0  0
  151.4350  142.9286  160.4626 H   0  0  0  0  0  0  0  0  0  0  0  0
  151.5153  144.1001  159.1482 H   0  0  0  0  0  0  0  0  0  0  0  0
  151.2243  142.3918  157.5022 H   0  0  0  0  0  0  0  0  0  0  0  0
  150.3485  141.6337  158.8379 H   0  0  0  0  0  0  0  0  0  0  0  0
  146.5393  134.0510  163.5483 H   0  0  0  0  0  0  0  0  0  0  0  0
  1  2  2  0  0  0  0
  2  3  1  0  0  0  0
  2 13  1  0  0  0  0
  3  4  1  0  0  0  0
  3 19  1  0  0  0  0
  4  5  1  0  0  0  0
  4 20  1  0  0  0  0
  4 21  1  0  0  0  0
  5  6  1  0  0  0  0
  5 22  1  0  0  0  0
  5 23  1  0  0  0  0
  6  7  2  0  0  0  0
  6  8  1  0  0  0  0
  8 12  1  0  0  0  0
  8  9  1  0  0  0  0
  9 10  1  0  0  0  0
  9 24  1  0  0  0  0
  9 25  1  0  0  0  0
 10 11  1  0  0  0  0
 10 26  1  0  0  0  0
 10 27  1  0  0  0  0
 11 12  1  0  0  0  0
 11 28  1  0  0  0  0
 11 29  1  0  0  0  0
 12 30  1  0  0  0  0
 12 31  1  0  0  0  0
 13 14  1  0  0  0  0
 14 18  1  0  0  0  0
 14 15  2  0  0  0  0
 15 16  1  0  0  0  0
 16 17  2  0  0  0  0
 17 18  1  0  0  0  0
 17 32  1  0  0  0  0
M  CHG  1  13  -1
M  END
> <s_m_source_file>
AV-unprocessed.smi

> <i_m_source_file_index>
1234

> <i_lp_mmshare_version>
43012

> <i_f3d_flags>
0

> <s_epik_input>
czFbY0hdbm5jMVtOSF1DKD1PKVtOSF1bQ0gyXVtDSDJdQyg9TylOMltDSDJdW0NIMl1bQ0gyXVtDSDJdMg==

> <s_epik_cmdline>
J2VwaWtfcHl0aG9uJywgJy1waCcsICc3LjAnLCAnLXRuJywgJzgnLCAnLW1hJywgJzIwMCcsICctbWV0YWxfYmluZGluZycsICctaW1hZScsICc8aW5maWxlLm1hZT4nLCAnLW9tYWUnLCAnPG91dGZpbGUubWFlPic=

> <r_lp_tautomer_probability>
1

> <r_epik_Ionization_Penalty>
3.2941

> <r_epik_Ionization_Penalty_Charging>
3.25456

> <r_epik_Ionization_Penalty_Neutral>
0.039538

> <r_epik_State_Penalty>
3.25212

> <r_epik_Charging_Adjusted_Penalty>
6.50668

> <i_epik_Tot_Q>
-1

> <i_epik_Tot_abs_Q>
1

> <r_epik_Metal_State_Penalty>
0.477003

> <b_epik_Metal_Only>
1

> <s_lp_Force_Field>
OPLS_2005

> <r_lp_Energy>
26.7799

> <b_lp_Chiralities_Consistent>
1

> <s_lp_Variant>
AV-unprocessed.smi:1234-2

> <Gold.Version>
5.8.1

> <Gold.Id.Protein>
6NUR|6NUR_protein|mol2

> <Gold.PLP.Fitness>
47.2353

> <Gold.PLP.PLP>
-35.7268

> <Gold.PLP.part.hbond>
-3.9031

> <Gold.PLP.part.metal>
0.0000

> <Gold.PLP.part.buried>
-5.1531

> <Gold.PLP.part.nonpolar>
-28.1282

> <Gold.PLP.part.repulsive>
0.2188

> <Gold.PLP.ligand.clash>
0.0000

> <Gold.PLP.ligand.torsion>
0.7501

> <Gold.PLP.Chemscore.Hbond>
4.3252

> <Gold.PLP.Chemscore.CHOScore>
0.0000

> <Gold.PLP.Chemscore.Metal>
0.0000

> <Gold.Chemscore.Hbonds>
donor molecule, donor type, donor heavy atom, donor atom, acceptor molecule, acceptor atom, score
      P1  H  6896  6909       L1     1  1.00
      P1  H  6931  6943       L1    13  0.84
      P1  H  6934  6947       L1    13  0.83
      P1  H  7997  8009       L1     7  0.73

> <Gold.PLP.Chemscore.Internal.Correction>
0.0333

> <Gold.Rescore>
     Score         DG    S(hbond)    S(metal)    S(lipo)     H(rot)  DE(clash)    DE(int)     intcor
     15.84     -17.91       2.80        0.00      64.80       1.76       0.06       2.01       ----

> <Gold.Chemscore.Fitness>
15.8445

> <Gold.Chemscore.DG>
-17.9148

> <Gold.Chemscore.ZeroCoef>
-5.4800

> <Gold.Chemscore.Hbond>
2.8017

> <Gold.Chemscore.Metal>
0.0000

> <Gold.Chemscore.Lipo>
64.8011

> <Gold.Chemscore.Internal_Hbond>
0.0000

> <Gold.Chemscore.DEClash>
0.0596

> <Gold.Chemscore.DEInternal>
2.0106

> <Gold.Chemscore.Rot>
1.7596

> <Gold.Chemscore.Internal.Correction>
   9.000000E+99

> <Gold.Chemscore.Hbonds>
donor molecule, donor type, donor heavy atom, donor atom, acceptor molecule, acceptor atom, score
      P1  H  6896  6909       L1     1  0.95
      P1  H  6931  6943       L1    13  0.06
      P1  H  6934  6947       L1    13  0.27
      P1  H  7997  8009       L1     7  0.12

> <Gold.Chemscore.Hbond.Weighted>
-9.3576

> <Gold.Chemscore.Metal.Weighted>
-0.0000

> <Gold.Chemscore.Lipo.Weighted>
-7.5817

> <Gold.Chemscore.Internal_Hbond.Weighted>
0.0000

> <Gold.Chemscore.DEClash.Weighted>
0.0596

> <Gold.Chemscore.DEInternal.Weighted>
2.0106

> <Gold.Chemscore.Rot.Weighted>
4.5046

> <Gold.Chemscore.Internal.Correction.Weighted>
   9.000000E+99

> <Gold.Protein.RotatedTorsions>
[ 6907 6896 6895 6894 ] final   42.17 input  -60.11 | X-H torsion
[ 7974 7965 7964 7962 ] final   80.44 input  175.53 | X-H torsion
[ 8008 7997 7996 7995 ] final  154.86 input   59.86 | X-H torsion
[ 10167 10162 10161 10158 ] final   50.38 input  -65.29 | X-H torsion
[ 10718 10713 10712 10709 ] final  -89.30 input   66.30 | X-H torsion
[ 10763 10752 10751 10750 ] final  159.38 input  -60.55 | X-H torsion
[ 11005 11000 10999 10996 ] final  128.44 input  -57.11 | X-H torsion

> <Gold.Protein.ActiveResidues>
 VAL166  LYS551  ARG553  GLY616  TRP617  ASP618  TYR619  PRO620  LYS621  CYS622 
 ASP623  PHE694  ASN695  SER759  ASP760  ASP761  ALA762  ILE779  LEU786  VAL792 
 PHE793  MET794  SER795  GLU796  ALA797  LYS798  CYS799  TRP800  GLU811  SER814 

> <Gold.Protein.RotatedAtoms>
  152.2045  134.8558  160.0504 H   0  0  0  0  0  0  0  0  0  0  0  0  # atno 6907 bound_to 6896
  151.9399  133.3630  159.3969 H   0  0  0  0  0  0  0  0  0  0  0  0  # atno 6908 bound_to 6896
  150.6962  134.4374  159.5320 H   0  0  0  0  0  0  0  0  0  0  0  0  # atno 6909 bound_to 6896
  145.6512  139.2448  143.1975 H   0  0  0  0  0  0  0  0  0  0  0  0  # atno 7974 bound_to 7965
  156.2509  140.1955  156.6712 H   0  0  0  0  0  0  0  0  0  0  0  0  # atno 8008 bound_to 7997
  154.6391  140.0586  156.9850 H   0  0  0  0  0  0  0  0  0  0  0  0  # atno 8009 bound_to 7997
  155.1591  140.3258  155.4418 H   0  0  0  0  0  0  0  0  0  0  0  0  # atno 8010 bound_to 7997
  140.2731  144.3243  150.6284 H   0  0  0  0  0  0  0  0  0  0  0  0  # atno 10167 bound_to 10162
  155.9984  130.4867  150.5150 H   0  0  0  0  0  0  0  0  0  0  0  0  # atno 10718 bound_to 10713
  154.2309  135.2778  155.2890 H   0  0  0  0  0  0  0  0  0  0  0  0  # atno 10763 bound_to 10752
  154.5624  135.5643  153.7023 H   0  0  0  0  0  0  0  0  0  0  0  0  # atno 10764 bound_to 10752
  153.0020  135.6301  154.2451 H   0  0  0  0  0  0  0  0  0  0  0  0  # atno 10765 bound_to 10752
  139.9561  134.9612  156.9002 H   0  0  0  0  0  0  0  0  0  0  0  0  # atno 11005 bound_to 11000
  146.1202  140.7319  142.9461 LP  0  0  0  0  0  0  0  0  0  0  0  0  # atno 17320 bound_to 7965
  144.7122  140.4080  143.7072 LP  0  0  0  0  0  0  0  0  0  0  0  0  # atno 17321 bound_to 7965
  140.5874  143.2169  151.7317 LP  0  0  0  0  0  0  0  0  0  0  0  0  # atno 17342 bound_to 10162
  139.4983  144.3991  152.0200 LP  0  0  0  0  0  0  0  0  0  0  0  0  # atno 17343 bound_to 10162
  157.3118  131.0665  151.1995 LP  0  0  0  0  0  0  0  0  0  0  0  0  # atno 17370 bound_to 10713
  157.2939  130.6809  149.6128 LP  0  0  0  0  0  0  0  0  0  0  0  0  # atno 17371 bound_to 10713
  140.5606  134.0538  155.7398 LP  0  0  0  0  0  0  0  0  0  0  0  0  # atno 17394 bound_to 11000
  141.1232  133.9426  157.2687 LP  0  0  0  0  0  0  0  0  0  0  0  0  # atno 17395 bound_to 11000

$$$$
