AV-unprocessed.smi:3089|AV-procd|sdf|11773|dock4
  -GOLD-   2272017153D 1   1.00000     0.00000
 Structure written by MMmdl.
 24 24  0  0  0  0  0  0  0  0  1 V2000
  144.2129  132.5233  149.7725 C   0  0  0  0  0  0  0  0  0  0  0  0
  144.0744  133.6163  150.7106 N   0  0  0  0  0  0  0  0  0  0  0  0
  144.7919  134.7908  150.7751 C   0  0  0  0  0  0  0  0  0  0  0  0
  144.3095  135.5149  151.8306 C   0  0  0  0  0  0  0  0  0  0  0  0
  144.7599  136.8727  152.3275 C   0  0  2  0  0  0  0  0  0  0  0  0
  145.1948  136.7696  153.8000 C   0  0  0  0  0  0  0  0  0  0  0  0
  143.7139  137.8255  152.3117 O   0  0  0  0  0  0  0  0  0  0  0  0
  145.9129  137.4482  151.4751 C   0  0  0  0  0  0  0  0  0  0  0  0
  146.2106  138.8623  151.7599 N   0  0  0  0  0  0  0  0  0  0  0  0
  143.2766  134.6793  152.3491 C   0  0  0  0  0  0  0  0  0  0  0  0
  143.1398  133.5464  151.6794 N   0  0  0  0  0  0  0  0  0  0  0  0
  145.0176  132.7349  149.0680 H   0  0  0  0  0  0  0  0  0  0  0  0
  143.2829  132.3910  149.2190 H   0  0  0  0  0  0  0  0  0  0  0  0
  144.4459  131.6033  150.3096 H   0  0  0  0  0  0  0  0  0  0  0  0
  145.5814  135.0140  150.0727 H   0  0  0  0  0  0  0  0  0  0  0  0
  146.0317  136.0806  153.9203 H   0  0  0  0  0  0  0  0  0  0  0  0
  144.3808  136.4086  154.4302 H   0  0  0  0  0  0  0  0  0  0  0  0
  145.5116  137.7367  154.1925 H   0  0  0  0  0  0  0  0  0  0  0  0
  143.6998  138.2410  151.4632 H   0  0  0  0  0  0  0  0  0  0  0  0
  146.8113  136.8448  151.6104 H   0  0  0  0  0  0  0  0  0  0  0  0
  145.6514  137.3585  150.4203 H   0  0  0  0  0  0  0  0  0  0  0  0
  145.3620  139.3532  152.0385 H   0  0  0  0  0  0  0  0  0  0  0  0
  146.8695  138.9401  152.5332 H   0  0  0  0  0  0  0  0  0  0  0  0
  142.6250  134.8625  153.1910 H   0  0  0  0  0  0  0  0  0  0  0  0
  1  2  1  0  0  0  0
  1 12  1  0  0  0  0
  1 13  1  0  0  0  0
  1 14  1  0  0  0  0
  2 11  1  0  0  0  0
  2  3  1  0  0  0  0
  3  4  2  0  0  0  0
  3 15  1  0  0  0  0
  4  5  1  0  0  0  0
  4 10  1  0  0  0  0
  5  6  1  0  0  0  0
  5  7  1  0  0  0  0
  5  8  1  0  0  0  0
  6 16  1  0  0  0  0
  6 17  1  0  0  0  0
  6 18  1  0  0  0  0
  7 19  1  0  0  0  0
  8  9  1  0  0  0  0
  8 20  1  0  0  0  0
  8 21  1  0  0  0  0
  9 22  1  0  0  0  0
  9 23  1  0  0  0  0
 10 11  2  0  0  0  0
 10 24  1  0  0  0  0
M  END
> <s_m_source_file>
AV-unprocessed.smi

> <i_m_source_file_index>
3089

> <i_lp_mmshare_version>
43012

> <i_f3d_flags>
0

> <s_epik_input>
W0NIM11uMVtjSF1jKFtjSF1uMSlbQ0BAXShbQ0gzXSkoW09IXSlbQ0gyXVtOSDJd

> <s_epik_cmdline>
J2VwaWtfcHl0aG9uJywgJy1waCcsICc3LjAnLCAnLXRuJywgJzgnLCAnLW1hJywgJzIwMCcsICctbWV0YWxfYmluZGluZycsICctaW1hZScsICc8aW5maWxlLm1hZT4nLCAnLW9tYWUnLCAnPG91dGZpbGUubWFlPic=

> <r_lp_tautomer_probability>
1

> <r_epik_Ionization_Penalty>
2.22427

> <r_epik_Ionization_Penalty_Charging>
0

> <r_epik_Ionization_Penalty_Neutral>
2.22427

> <r_epik_State_Penalty>
2.36938

> <r_epik_Charging_Adjusted_Penalty>
2.36938

> <i_epik_Tot_Q>
0

> <i_epik_Tot_abs_Q>
0

> <r_epik_Metal_State_Penalty>
2.36933

> <b_epik_Metal_Only>
0

> <s_lp_Force_Field>
OPLS_2005

> <r_lp_Energy>
8.30456

> <b_lp_Chiralities_Consistent>
1

> <s_lp_Variant>
AV-unprocessed.smi:3089-4

> <Gold.Version>
5.8.1

> <Gold.Id.Protein>
6NUR|6NUR_protein|mol2

> <Gold.PLP.Fitness>
30.9352

> <Gold.PLP.PLP>
-22.1274

> <Gold.PLP.part.hbond>
-3.9581

> <Gold.PLP.part.metal>
0.0000

> <Gold.PLP.part.buried>
-1.7797

> <Gold.PLP.part.nonpolar>
-16.4878

> <Gold.PLP.part.repulsive>
0.2258

> <Gold.PLP.ligand.clash>
0.0000

> <Gold.PLP.ligand.torsion>
0.1065

> <Gold.PLP.Chemscore.Hbond>
2.0000

> <Gold.PLP.Chemscore.CHOScore>
1.0000

> <Gold.PLP.Chemscore.Metal>
0.0000

> <Gold.Chemscore.Hbonds>
donor molecule, donor type, donor heavy atom, donor atom, acceptor molecule, acceptor atom, score
      L1  H     7    19       P1 10171  1.00
      L1  H     9    22       P1 10175  0.94
      L1  C     3    15       P1  7921  1.00

> <Gold.PLP.Chemscore.Internal.Correction>
0.0207

> <Gold.Rescore>
     Score         DG    S(hbond)    S(metal)    S(lipo)     H(rot)  DE(clash)    DE(int)     intcor
     11.75     -11.97       1.96        0.00      39.72       1.84       0.02       0.20       ----

> <Gold.Chemscore.Fitness>
11.7546

> <Gold.Chemscore.DG>
-11.9729

> <Gold.Chemscore.ZeroCoef>
-5.4800

> <Gold.Chemscore.Hbond>
1.9617

> <Gold.Chemscore.Metal>
0.0000

> <Gold.Chemscore.Lipo>
39.7231

> <Gold.Chemscore.Internal_Hbond>
0.0000

> <Gold.Chemscore.DEClash>
0.0212

> <Gold.Chemscore.DEInternal>
0.1971

> <Gold.Chemscore.Rot>
1.8386

> <Gold.Chemscore.Internal.Correction>
   9.000000E+99

> <Gold.Chemscore.Hbonds>
donor molecule, donor type, donor heavy atom, donor atom, acceptor molecule, acceptor atom, score
      L1  H     7    19       P1 10171  0.94
      L1  H     9    22       P1 10175  0.89

> <Gold.Chemscore.Hbond.Weighted>
-6.5522

> <Gold.Chemscore.Metal.Weighted>
-0.0000

> <Gold.Chemscore.Lipo.Weighted>
-4.6476

> <Gold.Chemscore.Internal_Hbond.Weighted>
0.0000

> <Gold.Chemscore.DEClash.Weighted>
0.0212

> <Gold.Chemscore.DEInternal.Weighted>
0.1971

> <Gold.Chemscore.Rot.Weighted>
4.7069

> <Gold.Chemscore.Internal.Correction.Weighted>
   9.000000E+99

> <Gold.Protein.RotatedTorsions>
[ 6907 6896 6895 6894 ] final -164.35 input  -60.11 | X-H torsion
[ 7974 7965 7964 7962 ] final  -19.39 input  175.53 | X-H torsion
[ 8008 7997 7996 7995 ] final  -64.50 input   59.86 | X-H torsion
[ 10167 10162 10161 10158 ] final   79.35 input  -65.29 | X-H torsion
[ 10718 10713 10712 10709 ] final -138.54 input   66.30 | X-H torsion
[ 10763 10752 10751 10750 ] final  -71.27 input  -60.55 | X-H torsion
[ 11005 11000 10999 10996 ] final  -50.17 input  -57.11 | X-H torsion

> <Gold.Protein.ActiveResidues>
 VAL166  LYS551  ARG553  GLY616  TRP617  ASP618  TYR619  PRO620  LYS621  CYS622 
 ASP623  PHE694  ASN695  SER759  ASP760  ASP761  ALA762  ILE779  LEU786  VAL792 
 PHE793  MET794  SER795  GLU796  ALA797  LYS798  CYS799  TRP800  GLU811  SER814 

> <Gold.Protein.RotatedAtoms>
  151.4104  133.3729  159.2742 H   0  0  0  0  0  0  0  0  0  0  0  0  # atno 6907 bound_to 6896
  150.9367  134.8781  159.7597 H   0  0  0  0  0  0  0  0  0  0  0  0  # atno 6908 bound_to 6896
  152.5053  134.4052  159.9482 H   0  0  0  0  0  0  0  0  0  0  0  0  # atno 6909 bound_to 6896
  146.1844  140.4055  142.8482 H   0  0  0  0  0  0  0  0  0  0  0  0  # atno 7974 bound_to 7965
  154.4615  140.0952  156.6906 H   0  0  0  0  0  0  0  0  0  0  0  0  # atno 8008 bound_to 7997
  155.4980  140.3473  155.4348 H   0  0  0  0  0  0  0  0  0  0  0  0  # atno 8009 bound_to 7997
  156.0879  140.1390  156.9618 H   0  0  0  0  0  0  0  0  0  0  0  0  # atno 8010 bound_to 7997
  139.9612  144.5959  150.8070 H   0  0  0  0  0  0  0  0  0  0  0  0  # atno 10167 bound_to 10162
  156.3005  130.7426  151.1477 H   0  0  0  0  0  0  0  0  0  0  0  0  # atno 10718 bound_to 10713
  154.4294  135.5967  153.6059 H   0  0  0  0  0  0  0  0  0  0  0  0  # atno 10763 bound_to 10752
  152.9798  135.5971  154.3858 H   0  0  0  0  0  0  0  0  0  0  0  0  # atno 10764 bound_to 10752
  154.3694  135.2841  155.2254 H   0  0  0  0  0  0  0  0  0  0  0  0  # atno 10765 bound_to 10752
  141.0801  133.6655  156.3692 H   0  0  0  0  0  0  0  0  0  0  0  0  # atno 11005 bound_to 11000
  144.8370  140.6798  143.6254 LP  0  0  0  0  0  0  0  0  0  0  0  0  # atno 17320 bound_to 7965
  145.3983  139.1603  143.4191 LP  0  0  0  0  0  0  0  0  0  0  0  0  # atno 17321 bound_to 7965
  140.7552  143.3042  151.3003 LP  0  0  0  0  0  0  0  0  0  0  0  0  # atno 17342 bound_to 10162
  139.6552  144.0288  152.2655 LP  0  0  0  0  0  0  0  0  0  0  0  0  # atno 17343 bound_to 10162
  157.7367  131.0560  150.5400 LP  0  0  0  0  0  0  0  0  0  0  0  0  # atno 17370 bound_to 10713
  156.5527  130.4236  149.6100 LP  0  0  0  0  0  0  0  0  0  0  0  0  # atno 17371 bound_to 10713
  140.5488  134.6048  157.5401 LP  0  0  0  0  0  0  0  0  0  0  0  0  # atno 17394 bound_to 11000
  139.9614  134.7446  156.0229 LP  0  0  0  0  0  0  0  0  0  0  0  0  # atno 17395 bound_to 11000

$$$$
