AV-unprocessed.smi:406|AV-procd|sdf|2500|dock6
  -GOLD-   2262022443D 1   1.00000     0.00000
 Structure written by MMmdl.
 34 35  0  0  0  0  0  0  0  0  2 V2000
  143.8158  132.3732  150.5989 C   0  0  0  0  0  0  0  0  0  0  0  0
  145.1415  132.7444  151.2716 C   0  0  0  0  0  0  0  0  0  0  0  0
  145.9722  131.5086  151.6520 C   0  0  0  0  0  0  0  0  0  0  0  0
  147.3488  131.8640  151.9715 N   0  0  0  0  0  0  0  0  0  0  0  0
  147.7386  132.6081  153.0196 C   0  0  0  0  0  0  0  0  0  0  0  0
  146.9526  133.1055  153.8259 O   0  0  0  0  0  0  0  0  0  0  0  0
  149.2450  132.8335  153.1811 C   0  0  0  0  0  0  0  0  0  0  0  0
  149.6737  132.5037  154.5817 C   0  0  0  0  0  0  0  0  0  0  0  0
  150.5682  131.5393  154.9681 C   0  0  0  0  0  0  0  0  0  0  0  0
  150.8170  131.5471  156.6904 S   0  0  0  0  0  0  0  0  0  0  0  0
  149.6858  132.8929  156.8379 C   0  0  0  0  0  0  0  0  0  0  0  0
  149.3697  133.5044  157.9936 N   0  5  0  0  0  0  0  0  0  0  0  0
  148.8523  134.7631  158.0607 C   0  0  0  0  0  0  0  0  0  0  0  0
  149.0578  135.6572  157.2416 O   0  0  0  0  0  0  0  0  0  0  0  0
  148.0054  135.0466  159.2702 C   0  0  0  0  0  0  0  0  0  0  0  0
  148.4067  136.1972  160.1726 C   0  0  0  0  0  0  0  0  0  0  0  0
  148.6141  134.7787  160.6334 C   0  0  0  0  0  0  0  0  0  0  0  0
  149.1567  133.2317  155.6567 N   0  0  0  0  0  0  0  0  0  0  0  0
  143.2485  133.2668  150.3385 H   0  0  0  0  0  0  0  0  0  0  0  0
  143.1965  131.7661  151.2597 H   0  0  0  0  0  0  0  0  0  0  0  0
  143.9846  131.8068  149.6827 H   0  0  0  0  0  0  0  0  0  0  0  0
  145.7187  133.3821  150.6009 H   0  0  0  0  0  0  0  0  0  0  0  0
  144.9345  133.3401  152.1615 H   0  0  0  0  0  0  0  0  0  0  0  0
  145.5165  130.9826  152.4928 H   0  0  0  0  0  0  0  0  0  0  0  0
  145.9932  130.8044  150.8197 H   0  0  0  0  0  0  0  0  0  0  0  0
  148.0677  131.4936  151.3654 H   0  0  0  0  0  0  0  0  0  0  0  0
  149.7761  132.2172  152.4548 H   0  0  0  0  0  0  0  0  0  0  0  0
  149.4856  133.8701  152.9419 H   0  0  0  0  0  0  0  0  0  0  0  0
  151.1055  130.8392  154.3463 H   0  0  0  0  0  0  0  0  0  0  0  0
  146.9465  134.8123  159.1757 H   0  0  0  0  0  0  0  0  0  0  0  0
  149.2926  136.7711  159.9073 H   0  0  0  0  0  0  0  0  0  0  0  0
  147.5985  136.7744  160.6171 H   0  0  0  0  0  0  0  0  0  0  0  0
  147.9499  134.3892  161.4020 H   0  0  0  0  0  0  0  0  0  0  0  0
  149.6409  134.4211  160.6880 H   0  0  0  0  0  0  0  0  0  0  0  0
  1  2  1  0  0  0  0
  1 19  1  0  0  0  0
  1 20  1  0  0  0  0
  1 21  1  0  0  0  0
  2  3  1  0  0  0  0
  2 22  1  0  0  0  0
  2 23  1  0  0  0  0
  3  4  1  0  0  0  0
  3 24  1  0  0  0  0
  3 25  1  0  0  0  0
  4  5  1  0  0  0  0
  4 26  1  0  0  0  0
  5  6  2  0  0  0  0
  5  7  1  0  0  0  0
  7  8  1  0  0  0  0
  7 27  1  0  0  0  0
  7 28  1  0  0  0  0
  8 18  1  0  0  0  0
  8  9  2  0  0  0  0
  9 10  1  0  0  0  0
  9 29  1  0  0  0  0
 10 11  1  0  0  0  0
 11 12  1  0  0  0  0
 11 18  2  0  0  0  0
 12 13  1  0  0  0  0
 13 14  2  0  0  0  0
 13 15  1  0  0  0  0
 15 17  1  0  0  0  0
 15 16  1  0  0  0  0
 15 30  1  0  0  0  0
 16 17  1  0  0  0  0
 16 31  1  0  0  0  0
 16 32  1  0  0  0  0
 17 33  1  0  0  0  0
 17 34  1  0  0  0  0
M  CHG  1  12  -1
M  END
> <s_m_source_file>
AV-unprocessed.smi

> <i_m_source_file_index>
406

> <i_lp_mmshare_version>
43012

> <i_f3d_flags>
0

> <s_epik_input>
W0NIM11bQ0gyXVtDSDJdW05IXUMoPU8pW0NIMl1jMVtjSF1zYyhuMSlbTkhdQyg9TylbQ0hdMltDSDJdW0NIMl0y

> <s_epik_cmdline>
J2VwaWtfcHl0aG9uJywgJy1waCcsICc3LjAnLCAnLXRuJywgJzgnLCAnLW1hJywgJzIwMCcsICctbWV0YWxfYmluZGluZycsICctaW1hZScsICc8aW5maWxlLm1hZT4nLCAnLW9tYWUnLCAnPG91dGZpbGUubWFlPic=

> <r_lp_tautomer_probability>
1

> <r_epik_Ionization_Penalty>
5.51776

> <r_epik_Ionization_Penalty_Charging>
5.00105

> <r_epik_Ionization_Penalty_Neutral>
0.516708

> <r_epik_State_Penalty>
5.00092

> <r_epik_Charging_Adjusted_Penalty>
10.002

> <i_epik_Tot_Q>
-1

> <i_epik_Tot_abs_Q>
1

> <r_epik_Metal_State_Penalty>
1.12078

> <b_epik_Metal_Only>
1

> <s_lp_Force_Field>
OPLS_2005

> <r_lp_Energy>
6.22345

> <b_lp_Chiralities_Consistent>
1

> <s_lp_Variant>
AV-unprocessed.smi:406-2

> <Gold.Version>
5.8.1

> <Gold.Id.Protein>
6NUR|6NUR_protein|mol2

> <Gold.PLP.Fitness>
35.3548

> <Gold.PLP.PLP>
-27.1088

> <Gold.PLP.part.hbond>
-2.0000

> <Gold.PLP.part.metal>
0.0000

> <Gold.PLP.part.buried>
-4.6424

> <Gold.PLP.part.nonpolar>
-20.7731

> <Gold.PLP.part.repulsive>
0.1016

> <Gold.PLP.ligand.clash>
0.0000

> <Gold.PLP.ligand.torsion>
0.4593

> <Gold.PLP.Chemscore.Hbond>
3.0000

> <Gold.PLP.Chemscore.CHOScore>
0.0000

> <Gold.PLP.Chemscore.Metal>
0.0000

> <Gold.Chemscore.Hbonds>
donor molecule, donor type, donor heavy atom, donor atom, acceptor molecule, acceptor atom, score
      L1  H     4    26       P1 10747  1.00
      P1  H  6896  6909       L1    12  1.10

> <Gold.PLP.Chemscore.Internal.Correction>
0.1647

> <Gold.Rescore>
     Score         DG    S(hbond)    S(metal)    S(lipo)     H(rot)  DE(clash)    DE(int)     intcor
     11.04     -13.96       1.79        0.00      61.87       1.85       0.00       2.91       ----

> <Gold.Chemscore.Fitness>
11.0421

> <Gold.Chemscore.DG>
-13.9568

> <Gold.Chemscore.ZeroCoef>
-5.4800

> <Gold.Chemscore.Hbond>
1.7870

> <Gold.Chemscore.Metal>
0.0000

> <Gold.Chemscore.Lipo>
61.8684

> <Gold.Chemscore.Internal_Hbond>
0.0000

> <Gold.Chemscore.DEClash>
0.0038

> <Gold.Chemscore.DEInternal>
2.9110

> <Gold.Chemscore.Rot>
1.8478

> <Gold.Chemscore.Internal.Correction>
   9.000000E+99

> <Gold.Chemscore.Hbonds>
donor molecule, donor type, donor heavy atom, donor atom, acceptor molecule, acceptor atom, score
      L1  H     4    26       P1 10747  0.95
      P1  H  6896  6909       L1    12  0.03

> <Gold.Chemscore.Hbond.Weighted>
-5.9687

> <Gold.Chemscore.Metal.Weighted>
-0.0000

> <Gold.Chemscore.Lipo.Weighted>
-7.2386

> <Gold.Chemscore.Internal_Hbond.Weighted>
0.0000

> <Gold.Chemscore.DEClash.Weighted>
0.0038

> <Gold.Chemscore.DEInternal.Weighted>
2.9110

> <Gold.Chemscore.Rot.Weighted>
4.7305

> <Gold.Chemscore.Internal.Correction.Weighted>
   9.000000E+99

> <Gold.Protein.RotatedTorsions>
[ 6907 6896 6895 6894 ] final   12.10 input  -60.11 | X-H torsion
[ 7974 7965 7964 7962 ] final -145.38 input  175.53 | X-H torsion
[ 8008 7997 7996 7995 ] final -168.98 input   59.86 | X-H torsion
[ 10167 10162 10161 10158 ] final  -67.54 input  -65.29 | X-H torsion
[ 10718 10713 10712 10709 ] final -113.65 input   66.30 | X-H torsion
[ 10763 10752 10751 10750 ] final  153.28 input  -60.55 | X-H torsion
[ 11005 11000 10999 10996 ] final  -50.19 input  -57.11 | X-H torsion

> <Gold.Protein.ActiveResidues>
 VAL166  LYS551  ARG553  GLY616  TRP617  ASP618  TYR619  PRO620  LYS621  CYS622 
 ASP623  PHE694  ASN695  SER759  ASP760  ASP761  ALA762  ILE779  LEU786  VAL792 
 PHE793  MET794  SER795  GLU796  ALA797  LYS798  CYS799  TRP800  GLU811  SER814 

> <Gold.Protein.RotatedAtoms>
  151.7649  135.0801  160.0350 H   0  0  0  0  0  0  0  0  0  0  0  0  # atno 6907 bound_to 6896
  152.3328  133.5973  159.5830 H   0  0  0  0  0  0  0  0  0  0  0  0  # atno 6908 bound_to 6896
  150.7433  133.9757  159.3602 H   0  0  0  0  0  0  0  0  0  0  0  0  # atno 6909 bound_to 6896
  144.8231  140.5591  143.5565 H   0  0  0  0  0  0  0  0  0  0  0  0  # atno 7974 bound_to 7965
  155.8988  140.1037  157.1365 H   0  0  0  0  0  0  0  0  0  0  0  0  # atno 8008 bound_to 7997
  154.4023  140.1296  156.4474 H   0  0  0  0  0  0  0  0  0  0  0  0  # atno 8009 bound_to 7997
  155.7447  140.3466  155.5123 H   0  0  0  0  0  0  0  0  0  0  0  0  # atno 8010 bound_to 7997
  140.5575  143.2312  151.6793 H   0  0  0  0  0  0  0  0  0  0  0  0  # atno 10167 bound_to 10162
  156.0780  130.5985  150.8671 H   0  0  0  0  0  0  0  0  0  0  0  0  # atno 10718 bound_to 10713
  154.1337  135.2825  155.3178 H   0  0  0  0  0  0  0  0  0  0  0  0  # atno 10763 bound_to 10752
  154.6337  135.5426  153.7713 H   0  0  0  0  0  0  0  0  0  0  0  0  # atno 10764 bound_to 10752
  153.0273  135.6469  154.1486 H   0  0  0  0  0  0  0  0  0  0  0  0  # atno 10765 bound_to 10752
  141.0802  133.6655  156.3695 H   0  0  0  0  0  0  0  0  0  0  0  0  # atno 11005 bound_to 11000
  145.5060  139.1481  143.3631 LP  0  0  0  0  0  0  0  0  0  0  0  0  # atno 17320 bound_to 7965
  146.2537  140.5200  142.8882 LP  0  0  0  0  0  0  0  0  0  0  0  0  # atno 17321 bound_to 7965
  139.5054  144.3717  152.0463 LP  0  0  0  0  0  0  0  0  0  0  0  0  # atno 17342 bound_to 10162
  140.2840  144.3828  150.6109 LP  0  0  0  0  0  0  0  0  0  0  0  0  # atno 17343 bound_to 10162
  157.5885  131.0945  150.9158 LP  0  0  0  0  0  0  0  0  0  0  0  0  # atno 17370 bound_to 10713
  156.9339  130.5359  149.5279 LP  0  0  0  0  0  0  0  0  0  0  0  0  # atno 17371 bound_to 10713
  140.5485  134.6051  157.5401 LP  0  0  0  0  0  0  0  0  0  0  0  0  # atno 17394 bound_to 11000
  139.9616  134.7444  156.0226 LP  0  0  0  0  0  0  0  0  0  0  0  0  # atno 17395 bound_to 11000

$$$$
