AV-unprocessed.smi:218|AV-procd|sdf|1673|dock2
  -GOLD-   2262020 93D 1   1.00000     0.00000
 Structure written by MMmdl.
 54 57  0  0  0  0  0  0  0  0  1 V2000
  150.5444  143.4048  158.4169 C   0  0  0  0  0  0  0  0  0  0  0  0
  150.8231  142.0619  157.7313 C   0  0  0  0  0  0  0  0  0  0  0  0
  152.2242  141.5353  158.0875 C   0  0  0  0  0  0  0  0  0  0  0  0
  150.7202  142.2862  156.3239 O   0  0  0  0  0  0  0  0  0  0  0  0
  150.2502  141.2870  155.4936 C   0  0  0  0  0  0  0  0  0  0  0  0
  151.1443  140.2702  155.1013 C   0  0  0  0  0  0  0  0  0  0  0  0
  150.6801  139.2415  154.2545 C   0  0  0  0  0  0  0  0  0  0  0  0
  151.6018  138.1201  153.8034 C   0  0  0  0  0  0  0  0  0  0  0  0
  150.9515  136.8298  153.5968 N   0  0  0  0  0  0  0  0  0  0  0  0
  151.5369  135.6884  154.0223 C   0  0  0  0  0  0  0  0  0  0  0  0
  152.4796  135.7047  155.0006 N   0  0  0  0  0  0  0  0  0  0  0  0
  153.0405  134.5618  155.4063 C   0  0  0  0  0  0  0  0  0  0  0  0
  152.8040  133.3194  154.9801 N   0  0  0  0  0  0  0  0  0  0  0  0
  151.8533  133.2960  154.0015 C   0  0  0  0  0  0  0  0  0  0  0  0
  151.1783  134.4309  153.4713 C   0  0  0  0  0  0  0  0  0  0  0  0
  150.2814  134.0302  152.4897 N   0  0  0  0  0  0  0  0  0  0  0  0
  150.4203  132.7323  152.4471 C   0  0  0  0  0  0  0  0  0  0  0  0
  151.3420  132.2068  153.3250 N   0  0  0  0  0  0  0  0  0  0  0  0
  151.7042  130.7690  153.5093 C   0  0  1  0  0  0  0  0  0  0  0  0
  150.5530  130.0713  153.8649 O   0  0  0  0  0  0  0  0  0  0  0  0
  150.6046  128.7776  153.2850 C   0  0  1  0  0  0  0  0  0  0  0  0
  149.2091  128.1297  153.2674 C   0  0  0  0  0  0  0  0  0  0  0  0
  148.2069  129.1225  153.2113 O   0  0  0  0  0  0  0  0  0  0  0  0
  151.2883  129.0054  151.9275 C   0  0  1  0  0  0  0  0  0  0  0  0
  150.3600  129.3559  150.9191 O   0  0  0  0  0  0  0  0  0  0  0  0
  152.2453  130.1643  152.2006 C   0  0  2  0  0  0  0  0  0  0  0  0
  153.5538  129.6598  152.3794 O   0  0  0  0  0  0  0  0  0  0  0  0
  149.3389  139.2781  153.8243 C   0  0  0  0  0  0  0  0  0  0  0  0
  148.5213  140.3352  154.2680 C   0  0  0  0  0  0  0  0  0  0  0  0
  148.9587  141.3201  155.0807 N   0  0  0  0  0  0  0  0  0  0  0  0
  152.4250  130.7606  154.3286 H   0  0  0  0  0  0  0  0  0  0  0  0
  151.2688  128.1790  153.9113 H   0  0  0  0  0  0  0  0  0  0  0  0
  151.8049  128.1043  151.5928 H   0  0  0  0  0  0  0  0  0  0  0  0
  152.2520  130.9008  151.3949 H   0  0  0  0  0  0  0  0  0  0  0  0
  150.5992  143.3117  159.5019 H   0  0  0  0  0  0  0  0  0  0  0  0
  149.5485  143.7706  158.1661 H   0  0  0  0  0  0  0  0  0  0  0  0
  151.2645  144.1636  158.1092 H   0  0  0  0  0  0  0  0  0  0  0  0
  150.0615  141.3603  158.0749 H   0  0  0  0  0  0  0  0  0  0  0  0
  152.3286  141.4020  159.1645 H   0  0  0  0  0  0  0  0  0  0  0  0
  152.9991  142.2293  157.7613 H   0  0  0  0  0  0  0  0  0  0  0  0
  152.4259  140.5722  157.6196 H   0  0  0  0  0  0  0  0  0  0  0  0
  152.1666  140.2810  155.4496 H   0  0  0  0  0  0  0  0  0  0  0  0
  152.1218  138.4123  152.8901 H   0  0  0  0  0  0  0  0  0  0  0  0
  152.3718  137.9902  154.5639 H   0  0  0  0  0  0  0  0  0  0  0  0
  150.1475  136.8370  152.9860 H   0  0  0  0  0  0  0  0  0  0  0  0
  153.7835  134.6555  156.1844 H   0  0  0  0  0  0  0  0  0  0  0  0
  149.8447  132.1161  151.7717 H   0  0  0  0  0  0  0  0  0  0  0  0
  149.1088  127.4918  152.3890 H   0  0  0  0  0  0  0  0  0  0  0  0
  149.0509  127.4932  154.1384 H   0  0  0  0  0  0  0  0  0  0  0  0
  147.3674  128.6969  153.1238 H   0  0  0  0  0  0  0  0  0  0  0  0
  150.5821  130.2156  150.5954 H   0  0  0  0  0  0  0  0  0  0  0  0
  153.8531  129.3094  151.5544 H   0  0  0  0  0  0  0  0  0  0  0  0
  148.9412  138.5124  153.1747 H   0  0  0  0  0  0  0  0  0  0  0  0
  147.4876  140.3921  153.9606 H   0  0  0  0  0  0  0  0  0  0  0  0
  1  2  1  0  0  0  0
  1 35  1  0  0  0  0
  1 36  1  0  0  0  0
  1 37  1  0  0  0  0
  2  3  1  0  0  0  0
  2  4  1  0  0  0  0
  2 38  1  0  0  0  0
  3 39  1  0  0  0  0
  3 40  1  0  0  0  0
  3 41  1  0  0  0  0
  4  5  1  0  0  0  0
  5 30  1  0  0  0  0
  5  6  2  0  0  0  0
  6  7  1  0  0  0  0
  6 42  1  0  0  0  0
  7  8  1  0  0  0  0
  7 28  2  0  0  0  0
  8  9  1  0  0  0  0
  8 43  1  0  0  0  0
  8 44  1  0  0  0  0
  9 10  1  0  0  0  0
  9 45  1  0  0  0  0
 10 15  1  0  0  0  0
 10 11  2  0  0  0  0
 11 12  1  0  0  0  0
 12 13  2  0  0  0  0
 12 46  1  0  0  0  0
 13 14  1  0  0  0  0
 14 18  1  0  0  0  0
 14 15  2  0  0  0  0
 15 16  1  0  0  0  0
 16 17  2  0  0  0  0
 17 18  1  0  0  0  0
 17 47  1  0  0  0  0
 18 19  1  0  0  0  0
 19 31  1  0  0  0  0
 19 26  1  0  0  0  0
 19 20  1  0  0  0  0
 20 21  1  0  0  0  0
 21 32  1  0  0  0  0
 21 22  1  0  0  0  0
 21 24  1  0  0  0  0
 22 23  1  0  0  0  0
 22 48  1  0  0  0  0
 22 49  1  0  0  0  0
 23 50  1  0  0  0  0
 24 33  1  0  0  0  0
 24 25  1  0  0  0  0
 24 26  1  0  0  0  0
 25 51  1  0  0  0  0
 26 34  1  0  0  0  0
 26 27  1  0  0  0  0
 27 52  1  0  0  0  0
 28 29  1  0  0  0  0
 28 53  1  0  0  0  0
 29 30  2  0  0  0  0
 29 54  1  0  0  0  0
M  END
> <s_m_source_file>
AV-unprocessed.smi

> <i_m_source_file_index>
218

> <i_lp_mmshare_version>
43012

> <i_f3d_flags>
0

> <s_epik_input>
W0NIM11bQ0hdKFtDSDNdKU9jMVtjSF1jKFtjSF1bY0hdbjEpW0NIMl1bTkhdYyhuW2NIXW4yKWMoYzIzKW5bY0hdbjNbQ0BASF00T1tDQEhdKFtDSDJdW09IXSlbQ0BASF0oW09IXSlbQ0BIXTRbT0hd

> <s_epik_cmdline>
J2VwaWtfcHl0aG9uJywgJy1waCcsICc3LjAnLCAnLXRuJywgJzgnLCAnLW1hJywgJzIwMCcsICctbWV0YWxfYmluZGluZycsICctaW1hZScsICc8aW5maWxlLm1hZT4nLCAnLW9tYWUnLCAnPG91dGZpbGUubWFlPic=

> <r_lp_tautomer_probability>
1

> <r_epik_Ionization_Penalty>
0.00457014

> <r_epik_Ionization_Penalty_Charging>
0

> <r_epik_Ionization_Penalty_Neutral>
0.00457014

> <r_epik_State_Penalty>
-0

> <r_epik_Charging_Adjusted_Penalty>
0

> <i_epik_Tot_Q>
0

> <i_epik_Tot_abs_Q>
0

> <r_epik_Metal_State_Penalty>
-0

> <b_epik_Metal_Only>
0

> <s_epik_Chemistry_Notes>
This compound contains an acetal/aminal-like group ( X-CH(R)-Y where X, Y are N, S, or O) that may be acid/base labile, releasing an aldehyde.

> <s_lp_Force_Field>
OPLS_2005

> <r_lp_Energy>
38.5835

> <b_lp_Chiralities_Consistent>
1

> <s_lp_Variant>
AV-unprocessed.smi:218-12

> <Gold.Version>
5.8.1

> <Gold.Id.Protein>
6NUR|6NUR_protein|mol2

> <Gold.PLP.Fitness>
57.1102

> <Gold.PLP.PLP>
-45.4584

> <Gold.PLP.part.hbond>
-6.0000

> <Gold.PLP.part.metal>
0.0000

> <Gold.PLP.part.buried>
-3.9369

> <Gold.PLP.part.nonpolar>
-35.2947

> <Gold.PLP.part.repulsive>
1.7606

> <Gold.PLP.ligand.clash>
0.0000

> <Gold.PLP.ligand.torsion>
1.7108

> <Gold.PLP.Chemscore.Hbond>
4.7182

> <Gold.PLP.Chemscore.CHOScore>
0.2129

> <Gold.PLP.Chemscore.Metal>
0.0000

> <Gold.Chemscore.Hbonds>
donor molecule, donor type, donor heavy atom, donor atom, acceptor molecule, acceptor atom, score
      L1  H     9    45       P1  7948  0.40
      L1  C    17    47       P1 10747  0.57

> <Gold.PLP.Chemscore.Internal.Correction>
0.2800

> <Gold.Rescore>
     Score         DG    S(hbond)    S(metal)    S(lipo)     H(rot)  DE(clash)    DE(int)     intcor
     10.06     -12.29       2.99        0.00      80.02       4.90       0.37       1.86       ----

> <Gold.Chemscore.Fitness>
10.0576

> <Gold.Chemscore.DG>
-12.2866

> <Gold.Chemscore.ZeroCoef>
-5.4800

> <Gold.Chemscore.Hbond>
2.9928

> <Gold.Chemscore.Metal>
0.0000

> <Gold.Chemscore.Lipo>
80.0194

> <Gold.Chemscore.Internal_Hbond>
0.0000

> <Gold.Chemscore.DEClash>
0.3696

> <Gold.Chemscore.DEInternal>
1.8595

> <Gold.Chemscore.Rot>
4.9029

> <Gold.Chemscore.Internal.Correction>
   9.000000E+99

> <Gold.Chemscore.Hbonds>
donor molecule, donor type, donor heavy atom, donor atom, acceptor molecule, acceptor atom, score
      L1  H     9    45       P1  7948  0.01

> <Gold.Chemscore.Hbond.Weighted>
-9.9959

> <Gold.Chemscore.Metal.Weighted>
-0.0000

> <Gold.Chemscore.Lipo.Weighted>
-9.3623

> <Gold.Chemscore.Internal_Hbond.Weighted>
0.0000

> <Gold.Chemscore.DEClash.Weighted>
0.3696

> <Gold.Chemscore.DEInternal.Weighted>
1.8595

> <Gold.Chemscore.Rot.Weighted>
12.5515

> <Gold.Chemscore.Internal.Correction.Weighted>
   9.000000E+99

> <Gold.Protein.RotatedTorsions>
[ 6907 6896 6895 6894 ] final -161.51 input  -60.11 | X-H torsion
[ 7974 7965 7964 7962 ] final  -94.75 input  175.53 | X-H torsion
[ 8008 7997 7996 7995 ] final  106.89 input   59.86 | X-H torsion
[ 10167 10162 10161 10158 ] final   90.86 input  -65.29 | X-H torsion
[ 10718 10713 10712 10709 ] final -132.01 input   66.30 | X-H torsion
[ 10763 10752 10751 10750 ] final   84.78 input  -60.55 | X-H torsion
[ 11005 11000 10999 10996 ] final  118.78 input  -57.11 | X-H torsion

> <Gold.Protein.ActiveResidues>
 VAL166  LYS551  ARG553  GLY616  TRP617  ASP618  TYR619  PRO620  LYS621  CYS622 
 ASP623  PHE694  ASN695  SER759  ASP760  ASP761  ALA762  ILE779  LEU786  VAL792 
 PHE793  MET794  SER795  GLU796  ALA797  LYS798  CYS799  TRP800  GLU811  SER814 

> <Gold.Protein.RotatedAtoms>
  151.3658  133.3872  159.2694 H   0  0  0  0  0  0  0  0  0  0  0  0  # atno 6907 bound_to 6896
  150.9689  134.9066  159.7786 H   0  0  0  0  0  0  0  0  0  0  0  0  # atno 6908 bound_to 6896
  152.5177  134.3620  159.9340 H   0  0  0  0  0  0  0  0  0  0  0  0  # atno 6909 bound_to 6896
  145.3692  140.9503  143.2457 H   0  0  0  0  0  0  0  0  0  0  0  0  # atno 7974 bound_to 7965
  156.1779  140.3105  155.9094 H   0  0  0  0  0  0  0  0  0  0  0  0  # atno 8008 bound_to 7997
  155.3447  140.0467  157.3062 H   0  0  0  0  0  0  0  0  0  0  0  0  # atno 8009 bound_to 7997
  154.5311  140.2230  155.8813 H   0  0  0  0  0  0  0  0  0  0  0  0  # atno 8010 bound_to 7997
  139.8431  144.6631  150.9259 H   0  0  0  0  0  0  0  0  0  0  0  0  # atno 10167 bound_to 10162
  156.2302  130.7032  151.0850 H   0  0  0  0  0  0  0  0  0  0  0  0  # atno 10718 bound_to 10713
  153.1414  135.4641  154.9501 H   0  0  0  0  0  0  0  0  0  0  0  0  # atno 10763 bound_to 10752
  154.7750  135.3170  154.8113 H   0  0  0  0  0  0  0  0  0  0  0  0  # atno 10764 bound_to 10752
  153.8636  135.6910  153.4835 H   0  0  0  0  0  0  0  0  0  0  0  0  # atno 10765 bound_to 10752
  139.9122  134.9623  156.7555 H   0  0  0  0  0  0  0  0  0  0  0  0  # atno 11005 bound_to 11000
  144.8589  139.5207  143.6821 LP  0  0  0  0  0  0  0  0  0  0  0  0  # atno 17320 bound_to 7965
  146.2893  139.7093  142.9172 LP  0  0  0  0  0  0  0  0  0  0  0  0  # atno 17321 bound_to 7965
  140.7796  143.3894  151.1336 LP  0  0  0  0  0  0  0  0  0  0  0  0  # atno 17342 bound_to 10162
  139.7539  143.8737  152.3084 LP  0  0  0  0  0  0  0  0  0  0  0  0  # atno 17343 bound_to 10162
  157.7129  131.0725  150.6434 LP  0  0  0  0  0  0  0  0  0  0  0  0  # atno 17370 bound_to 10713
  156.6501  130.4483  149.5722 LP  0  0  0  0  0  0  0  0  0  0  0  0  # atno 17371 bound_to 10713
  140.6739  133.9535  155.7872 LP  0  0  0  0  0  0  0  0  0  0  0  0  # atno 17394 bound_to 11000
  141.0558  134.0419  157.3724 LP  0  0  0  0  0  0  0  0  0  0  0  0  # atno 17395 bound_to 11000

$$$$
