AV-unprocessed.smi:658|AV-procd|sdf|3237|dock2
  -GOLD-   22720 0183D 1   1.00000     0.00000
 Structure written by MMmdl.
 37 37  0  0  0  0  0  0  0  0  3 V2000
  147.7729  143.0076  158.3509 C   0  0  0  0  0  0  0  0  0  0  0  0
  149.3025  142.8297  158.2897 C   0  0  1  0  0  0  0  0  0  0  0  0
  149.7574  142.6427  156.8916 N   0  3  0  0  0  0  0  0  0  0  0  0
  149.3767  141.3616  156.2632 C   0  0  0  0  0  0  0  0  0  0  0  0
  150.4475  140.9113  155.2644 C   0  0  0  0  0  0  0  0  0  0  0  0
  150.3191  139.4263  154.8973 C   0  0  0  0  0  0  0  0  0  0  0  0
  151.9414  138.5552  155.0076 S   0  0  0  0  0  0  0  0  0  0  0  0
  151.7053  137.3485  153.9624 N   0  5  0  0  0  0  0  0  0  0  0  0
  152.9602  139.5052  154.5351 O   0  0  0  0  0  0  0  0  0  0  0  0
  152.0412  138.0754  156.3941 O   0  0  0  0  0  0  0  0  0  0  0  0
  150.0579  144.0037  158.9661 C   0  0  1  0  0  0  0  0  0  0  0  0
  149.2697  144.6365  160.1271 C   0  0  0  0  0  0  0  0  0  0  0  0
  151.4157  143.6496  159.3711 N   0  0  0  0  0  0  0  0  0  0  0  0
  152.5215  143.3909  158.5833 C   0  0  0  0  0  0  0  0  0  0  0  0
  153.5700  143.1342  159.4189 C   0  0  0  0  0  0  0  0  0  0  0  0
  153.0066  143.2657  160.7180 C   0  0  0  0  0  0  0  0  0  0  0  0
  151.7217  143.5789  160.6858 N   0  0  0  0  0  0  0  0  0  0  0  0
  147.4446  143.2063  159.3714 H   0  0  0  0  0  0  0  0  0  0  0  0
  147.2484  142.1127  158.0173 H   0  0  0  0  0  0  0  0  0  0  0  0
  147.4383  143.8380  157.7283 H   0  0  0  0  0  0  0  0  0  0  0  0
  149.5560  141.9253  158.8450 H   0  0  0  0  0  0  0  0  0  0  0  0
  149.4063  143.4043  156.3285 H   0  0  0  0  0  0  0  0  0  0  0  0
  149.2482  140.6028  157.0362 H   0  0  0  0  0  0  0  0  0  0  0  0
  148.4211  141.4691  155.7503 H   0  0  0  0  0  0  0  0  0  0  0  0
  150.3741  141.5152  154.3589 H   0  0  0  0  0  0  0  0  0  0  0  0
  151.4366  141.0997  155.6834 H   0  0  0  0  0  0  0  0  0  0  0  0
  149.6367  138.9319  155.5888 H   0  0  0  0  0  0  0  0  0  0  0  0
  149.9219  139.2876  153.8914 H   0  0  0  0  0  0  0  0  0  0  0  0
  150.6942  137.2508  153.8099 H   0  0  0  0  0  0  0  0  0  0  0  0
  150.1505  144.7895  158.2137 H   0  0  0  0  0  0  0  0  0  0  0  0
  148.2914  144.9818  159.7919 H   0  0  0  0  0  0  0  0  0  0  0  0
  149.7990  145.4997  160.5323 H   0  0  0  0  0  0  0  0  0  0  0  0
  149.1086  143.9342  160.9452 H   0  0  0  0  0  0  0  0  0  0  0  0
  152.4746  143.4099  157.5045 H   0  0  0  0  0  0  0  0  0  0  0  0
  154.5857  142.8908  159.1441 H   0  0  0  0  0  0  0  0  0  0  0  0
  153.4899  143.1471  161.6765 H   0  0  0  0  0  0  0  0  0  0  0  0
  150.7664  142.6844  156.8911 H   0  0  0  0  0  0  0  0  0  0  0  0
  1  2  1  0  0  0  0
  1 18  1  0  0  0  0
  1 19  1  0  0  0  0
  1 20  1  0  0  0  0
  2  3  1  0  0  0  0
  2 11  1  0  0  0  0
  2 21  1  0  0  0  0
  3  4  1  0  0  0  0
  3 22  1  0  0  0  0
  3 37  1  0  0  0  0
  4  5  1  0  0  0  0
  4 23  1  0  0  0  0
  4 24  1  0  0  0  0
  5  6  1  0  0  0  0
  5 25  1  0  0  0  0
  5 26  1  0  0  0  0
  6  7  1  0  0  0  0
  6 27  1  0  0  0  0
  6 28  1  0  0  0  0
  7  8  1  0  0  0  0
  7  9  2  0  0  0  0
  7 10  2  0  0  0  0
  8 29  1  0  0  0  0
 11 12  1  0  0  0  0
 11 13  1  0  0  0  0
 11 30  1  0  0  0  0
 12 31  1  0  0  0  0
 12 32  1  0  0  0  0
 12 33  1  0  0  0  0
 13 17  1  0  0  0  0
 13 14  1  0  0  0  0
 14 15  2  0  0  0  0
 14 34  1  0  0  0  0
 15 16  1  0  0  0  0
 15 35  1  0  0  0  0
 16 17  2  0  0  0  0
 16 36  1  0  0  0  0
M  CHG  1   3   1
M  CHG  1   8  -1
M  END
> <s_m_source_file>
AV-unprocessed.smi

> <i_m_source_file_index>
658

> <i_lp_mmshare_version>
43012

> <i_f3d_flags>
0

> <s_epik_input>
bjFbY0hdW2NIXVtjSF1uMVtDQEBIXShbQ0gzXSlbQ0BIXShbQ0gzXSlbTkhdW0NIMl1bQ0gyXVtDSDJdUyg9TykoPU8pW05IMl0=

> <s_epik_cmdline>
J2VwaWtfcHl0aG9uJywgJy1waCcsICc3LjAnLCAnLXRuJywgJzgnLCAnLW1hJywgJzIwMCcsICctbWV0YWxfYmluZGluZycsICctaW1hZScsICc8aW5maWxlLm1hZT4nLCAnLW9tYWUnLCAnPG91dGZpbGUubWFlPic=

> <r_lp_tautomer_probability>
1

> <r_epik_Ionization_Penalty>
4.63642

> <r_epik_Ionization_Penalty_Charging>
4.63641

> <r_epik_Ionization_Penalty_Neutral>
1.08396e-05

> <r_epik_State_Penalty>
4.63466

> <r_epik_Charging_Adjusted_Penalty>
9.27106

> <i_epik_Tot_Q>
0

> <i_epik_Tot_abs_Q>
2

> <r_epik_Metal_State_Penalty>
0.890424

> <b_epik_Metal_Only>
1

> <s_lp_Force_Field>
OPLS_2005

> <r_lp_Energy>
1.41706

> <b_lp_Chiralities_Consistent>
1

> <s_lp_Variant>
AV-unprocessed.smi:658-8

> <Gold.Version>
5.8.1

> <Gold.Id.Protein>
6NUR|6NUR_protein|mol2

> <Gold.PLP.Fitness>
47.0784

> <Gold.PLP.PLP>
-35.4874

> <Gold.PLP.part.hbond>
-5.6373

> <Gold.PLP.part.metal>
0.0000

> <Gold.PLP.part.buried>
-4.0200

> <Gold.PLP.part.nonpolar>
-25.8547

> <Gold.PLP.part.repulsive>
0.1516

> <Gold.PLP.ligand.clash>
0.0000

> <Gold.PLP.ligand.torsion>
2.0266

> <Gold.PLP.Chemscore.Hbond>
5.1292

> <Gold.PLP.Chemscore.CHOScore>
0.0000

> <Gold.PLP.Chemscore.Metal>
0.0000

> <Gold.Chemscore.Hbonds>
donor molecule, donor type, donor heavy atom, donor atom, acceptor molecule, acceptor atom, score
      L1  H     3    22       P1  8028  2.00
      P1  H  7989  7998       L1     9  0.28
      P1  H  7997  8009       L1     9  0.70
      P1  H 10752 10763       L1     8  1.66

> <Gold.PLP.Chemscore.Internal.Correction>
0.2567

> <Gold.Rescore>
     Score         DG    S(hbond)    S(metal)    S(lipo)     H(rot)  DE(clash)    DE(int)     intcor
     14.59     -16.38       2.96        0.00      75.24       3.04       0.15       1.64       ----

> <Gold.Chemscore.Fitness>
14.5933

> <Gold.Chemscore.DG>
-16.3769

> <Gold.Chemscore.ZeroCoef>
-5.4800

> <Gold.Chemscore.Hbond>
2.9576

> <Gold.Chemscore.Metal>
0.0000

> <Gold.Chemscore.Lipo>
75.2429

> <Gold.Chemscore.Internal_Hbond>
0.0000

> <Gold.Chemscore.DEClash>
0.1456

> <Gold.Chemscore.DEInternal>
1.6381

> <Gold.Chemscore.Rot>
3.0409

> <Gold.Chemscore.Internal.Correction>
   9.000000E+99

> <Gold.Chemscore.Hbonds>
donor molecule, donor type, donor heavy atom, donor atom, acceptor molecule, acceptor atom, score
      L1  H     3    22       P1  8028  0.97
      P1  H  7989  7998       L1     9  0.06
      P1  H  7997  8009       L1     9  0.65
      P1  H 10752 10763       L1     8  0.76

> <Gold.Chemscore.Hbond.Weighted>
-9.8783

> <Gold.Chemscore.Metal.Weighted>
-0.0000

> <Gold.Chemscore.Lipo.Weighted>
-8.8034

> <Gold.Chemscore.Internal_Hbond.Weighted>
0.0000

> <Gold.Chemscore.DEClash.Weighted>
0.1456

> <Gold.Chemscore.DEInternal.Weighted>
1.6381

> <Gold.Chemscore.Rot.Weighted>
7.7848

> <Gold.Chemscore.Internal.Correction.Weighted>
   9.000000E+99

> <Gold.Protein.RotatedTorsions>
[ 6907 6896 6895 6894 ] final -156.24 input  -60.11 | X-H torsion
[ 7974 7965 7964 7962 ] final  -25.01 input  175.53 | X-H torsion
[ 8008 7997 7996 7995 ] final -142.69 input   59.86 | X-H torsion
[ 10167 10162 10161 10158 ] final   50.33 input  -65.29 | X-H torsion
[ 10718 10713 10712 10709 ] final -121.01 input   66.30 | X-H torsion
[ 10763 10752 10751 10750 ] final   32.94 input  -60.55 | X-H torsion
[ 11005 11000 10999 10996 ] final   77.32 input  -57.11 | X-H torsion

> <Gold.Protein.ActiveResidues>
 VAL166  LYS551  ARG553  GLY616  TRP617  ASP618  TYR619  PRO620  LYS621  CYS622 
 ASP623  PHE694  ASN695  SER759  ASP760  ASP761  ALA762  ILE779  LEU786  VAL792 
 PHE793  MET794  SER795  GLU796  ALA797  LYS798  CYS799  TRP800  GLU811  SER814 

> <Gold.Protein.RotatedAtoms>
  151.2846  133.4194  159.2628 H   0  0  0  0  0  0  0  0  0  0  0  0  # atno 6907 bound_to 6896
  151.0331  134.9554  159.8132 H   0  0  0  0  0  0  0  0  0  0  0  0  # atno 6908 bound_to 6896
  152.5350  134.2806  159.9058 H   0  0  0  0  0  0  0  0  0  0  0  0  # atno 6909 bound_to 6896
  146.1518  140.4829  142.8608 H   0  0  0  0  0  0  0  0  0  0  0  0  # atno 7974 bound_to 7965
  155.4984  140.0573  157.2943 H   0  0  0  0  0  0  0  0  0  0  0  0  # atno 8008 bound_to 7997
  154.4596  140.1990  156.0231 H   0  0  0  0  0  0  0  0  0  0  0  0  # atno 8009 bound_to 7997
  156.0866  140.3239  155.7765 H   0  0  0  0  0  0  0  0  0  0  0  0  # atno 8010 bound_to 7997
  140.2736  144.3237  150.6283 H   0  0  0  0  0  0  0  0  0  0  0  0  # atno 10167 bound_to 10162
  156.1303  130.6390  150.9610 H   0  0  0  0  0  0  0  0  0  0  0  0  # atno 10718 bound_to 10713
  153.0237  135.6400  154.1434 H   0  0  0  0  0  0  0  0  0  0  0  0  # atno 10763 bound_to 10752
  154.1165  135.2849  155.3220 H   0  0  0  0  0  0  0  0  0  0  0  0  # atno 10764 bound_to 10752
  154.6294  135.5498  153.7726 H   0  0  0  0  0  0  0  0  0  0  0  0  # atno 10765 bound_to 10752
  139.9259  134.7673  156.1507 H   0  0  0  0  0  0  0  0  0  0  0  0  # atno 11005 bound_to 11000
  144.7914  140.6038  143.6539 LP  0  0  0  0  0  0  0  0  0  0  0  0  # atno 17320 bound_to 7965
  145.4804  139.1496  143.3765 LP  0  0  0  0  0  0  0  0  0  0  0  0  # atno 17321 bound_to 7965
  140.5870  143.2169  151.7324 LP  0  0  0  0  0  0  0  0  0  0  0  0  # atno 17342 bound_to 10162
  139.4982  144.3997  152.0195 LP  0  0  0  0  0  0  0  0  0  0  0  0  # atno 17343 bound_to 10162
  157.6481  131.0901  150.8109 LP  0  0  0  0  0  0  0  0  0  0  0  0  # atno 17370 bound_to 10713
  156.8195  130.4979  149.5345 LP  0  0  0  0  0  0  0  0  0  0  0  0  # atno 17371 bound_to 10713
  141.0817  133.6751  156.2349 LP  0  0  0  0  0  0  0  0  0  0  0  0  # atno 17394 bound_to 11000
  140.6337  134.5238  157.5562 LP  0  0  0  0  0  0  0  0  0  0  0  0  # atno 17395 bound_to 11000

$$$$
