AV-unprocessed.smi:2963|AV-procd|sdf|11320|dock5
  -GOLD-   2272016223D 1   1.00000     0.00000
 Structure written by MMmdl.
 42 44  0  0  0  0  0  0  0  0  2 V2000
  152.3569  138.5480  155.0276 C   0  0  0  0  0  0  0  0  0  0  0  0
  152.5472  139.9234  155.3195 O   0  0  0  0  0  0  0  0  0  0  0  0
  151.3450  140.6309  155.5855 C   0  0  0  0  0  0  0  0  0  0  0  0
  150.7363  140.2323  156.9409 C   0  0  0  0  0  0  0  0  0  0  0  0
  151.5070  140.7800  158.0646 N   0  0  0  0  0  0  0  0  0  0  0  0
  152.1271  140.1537  159.1036 C   0  0  0  0  0  0  0  0  0  0  0  0
  152.1769  138.4145  159.3951 S   0  0  0  0  0  0  0  0  0  0  0  0
  153.1126  138.1999  160.9397 C   0  0  0  0  0  0  0  0  0  0  0  0
  153.5848  136.7600  161.2048 C   0  0  0  0  0  0  0  0  0  0  0  0
  153.6478  135.9750  160.2552 O   0  0  0  0  0  0  0  0  0  0  0  0
  153.9155  136.4291  162.4821 N   0  0  0  0  0  0  0  0  0  0  0  0
  153.8297  137.3635  163.6060 C   0  0  0  0  0  0  0  0  0  0  0  0
  154.3017  136.5527  164.8082 C   0  0  0  0  0  0  0  0  0  0  0  0
  154.5876  135.2710  164.2133 N   0  0  0  0  0  0  0  0  0  0  0  0
  154.3627  135.2199  162.8984 C   0  0  0  0  0  0  0  0  0  0  0  0
  154.5492  134.2116  162.2165 O   0  0  0  0  0  0  0  0  0  0  0  0
  152.7118  141.1132  159.8740 N   0  3  0  0  0  0  0  0  0  0  0  0
  152.4694  142.3700  159.3169 C   0  0  0  0  0  0  0  0  0  0  0  0
  152.8596  143.6407  159.7287 C   0  0  0  0  0  0  0  0  0  0  0  0
  152.4457  144.7220  158.9231 C   0  0  0  0  0  0  0  0  0  0  0  0
  151.6741  144.5189  157.7604 C   0  0  0  0  0  0  0  0  0  0  0  0
  151.2830  143.2264  157.3528 C   0  0  0  0  0  0  0  0  0  0  0  0
  151.6966  142.1631  158.1545 C   0  0  0  0  0  0  0  0  0  0  0  0
  153.3168  138.0944  154.7813 H   0  0  0  0  0  0  0  0  0  0  0  0
  151.6948  138.4135  154.1711 H   0  0  0  0  0  0  0  0  0  0  0  0
  151.9445  138.0059  155.8782 H   0  0  0  0  0  0  0  0  0  0  0  0
  151.5933  141.6926  155.6068 H   0  0  0  0  0  0  0  0  0  0  0  0
  150.6297  140.4977  154.7724 H   0  0  0  0  0  0  0  0  0  0  0  0
  149.7021  140.5626  157.0375 H   0  0  0  0  0  0  0  0  0  0  0  0
  150.7251  139.1466  157.0407 H   0  0  0  0  0  0  0  0  0  0  0  0
  153.9820  138.8569  160.9023 H   0  0  0  0  0  0  0  0  0  0  0  0
  152.4798  138.5336  161.7621 H   0  0  0  0  0  0  0  0  0  0  0  0
  154.4714  138.2317  163.4479 H   0  0  0  0  0  0  0  0  0  0  0  0
  152.8050  137.7088  163.7523 H   0  0  0  0  0  0  0  0  0  0  0  0
  155.1995  136.9741  165.2621 H   0  0  0  0  0  0  0  0  0  0  0  0
  153.5274  136.4578  165.5704 H   0  0  0  0  0  0  0  0  0  0  0  0
  154.9289  134.4891  164.7540 H   0  0  0  0  0  0  0  0  0  0  0  0
  153.4518  143.8005  160.6179 H   0  0  0  0  0  0  0  0  0  0  0  0
  152.7263  145.7275  159.2023 H   0  0  0  0  0  0  0  0  0  0  0  0
  151.3769  145.3720  157.1678 H   0  0  0  0  0  0  0  0  0  0  0  0
  150.6942  143.0806  156.4589 H   0  0  0  0  0  0  0  0  0  0  0  0
  153.2406  140.9191  160.7143 H   0  0  0  0  0  0  0  0  0  0  0  0
  1  2  1  0  0  0  0
  1 24  1  0  0  0  0
  1 25  1  0  0  0  0
  1 26  1  0  0  0  0
  2  3  1  0  0  0  0
  3  4  1  0  0  0  0
  3 27  1  0  0  0  0
  3 28  1  0  0  0  0
  4  5  1  0  0  0  0
  4 29  1  0  0  0  0
  4 30  1  0  0  0  0
  5 23  1  0  0  0  0
  5  6  1  0  0  0  0
  6  7  1  0  0  0  0
  6 17  2  0  0  0  0
  7  8  1  0  0  0  0
  8  9  1  0  0  0  0
  8 31  1  0  0  0  0
  8 32  1  0  0  0  0
  9 10  2  0  0  0  0
  9 11  1  0  0  0  0
 11 15  1  0  0  0  0
 11 12  1  0  0  0  0
 12 13  1  0  0  0  0
 12 33  1  0  0  0  0
 12 34  1  0  0  0  0
 13 14  1  0  0  0  0
 13 35  1  0  0  0  0
 13 36  1  0  0  0  0
 14 15  1  0  0  0  0
 14 37  1  0  0  0  0
 15 16  2  0  0  0  0
 17 18  1  0  0  0  0
 17 42  1  0  0  0  0
 18 23  2  0  0  0  0
 18 19  1  0  0  0  0
 19 20  2  0  0  0  0
 19 38  1  0  0  0  0
 20 21  1  0  0  0  0
 20 39  1  0  0  0  0
 21 22  2  0  0  0  0
 21 40  1  0  0  0  0
 22 23  1  0  0  0  0
 22 41  1  0  0  0  0
M  CHG  1  17   1
M  END
> <s_m_source_file>
AV-unprocessed.smi

> <i_m_source_file_index>
2963

> <i_lp_mmshare_version>
43012

> <i_f3d_flags>
0

> <s_epik_input>
W2NIXTFbY0hdW2NIXVtjSF1jKGMxMiluKFtDSDJdW0NIMl1PW0NIM10pYyhuMilTW0NIMl1DKD1PKU4zW0NIMl1bQ0gyXVtOSF1DMz1P

> <s_epik_cmdline>
J2VwaWtfcHl0aG9uJywgJy1waCcsICc3LjAnLCAnLXRuJywgJzgnLCAnLW1hJywgJzIwMCcsICctbWV0YWxfYmluZGluZycsICctaW1hZScsICc8aW5maWxlLm1hZT4nLCAnLW9tYWUnLCAnPG91dGZpbGUubWFlPic=

> <r_lp_tautomer_probability>
0.9999

> <r_epik_Ionization_Penalty>
1.70838

> <r_epik_Ionization_Penalty_Charging>
1.70836

> <r_epik_Ionization_Penalty_Neutral>
2.53969e-05

> <r_epik_State_Penalty>
1.81492

> <r_epik_Charging_Adjusted_Penalty>
3.52327

> <i_epik_Tot_Q>
1

> <i_epik_Tot_abs_Q>
1

> <r_epik_Metal_State_Penalty>
1.84772

> <b_epik_Metal_Only>
0

> <s_lp_Force_Field>
OPLS_2005

> <r_lp_Energy>
48.5569

> <b_lp_Chiralities_Consistent>
1

> <s_lp_Variant>
AV-unprocessed.smi:2963-2

> <Gold.Version>
5.8.1

> <Gold.Id.Protein>
6NUR|6NUR_protein|mol2

> <Gold.PLP.Fitness>
55.3855

> <Gold.PLP.PLP>
-50.1558

> <Gold.PLP.part.hbond>
-3.0000

> <Gold.PLP.part.metal>
0.0000

> <Gold.PLP.part.buried>
-3.2444

> <Gold.PLP.part.nonpolar>
-43.8290

> <Gold.PLP.part.repulsive>
0.1197

> <Gold.PLP.ligand.clash>
0.0000

> <Gold.PLP.ligand.torsion>
0.4084

> <Gold.PLP.Chemscore.Hbond>
2.0000

> <Gold.PLP.Chemscore.CHOScore>
0.0000

> <Gold.PLP.Chemscore.Metal>
0.0000

> <Gold.Chemscore.Hbonds>
donor molecule, donor type, donor heavy atom, donor atom, acceptor molecule, acceptor atom, score
      P1  H  6896  6909       L1    10  1.00
      P1  H  7997  8010       L1     2  0.99

> <Gold.PLP.Chemscore.Internal.Correction>
0.0465

> <Gold.Rescore>
     Score         DG    S(hbond)    S(metal)    S(lipo)     H(rot)  DE(clash)    DE(int)     intcor
     17.63     -19.92       1.95        0.00     120.00       2.39       0.58       1.72       ----

> <Gold.Chemscore.Fitness>
17.6259

> <Gold.Chemscore.DG>
-19.9194

> <Gold.Chemscore.ZeroCoef>
-5.4800

> <Gold.Chemscore.Hbond>
1.9538

> <Gold.Chemscore.Metal>
0.0000

> <Gold.Chemscore.Lipo>
120.0044

> <Gold.Chemscore.Internal_Hbond>
0.0000

> <Gold.Chemscore.DEClash>
0.5780

> <Gold.Chemscore.DEInternal>
1.7155

> <Gold.Chemscore.Rot>
2.3933

> <Gold.Chemscore.Internal.Correction>
   9.000000E+99

> <Gold.Chemscore.Hbonds>
donor molecule, donor type, donor heavy atom, donor atom, acceptor molecule, acceptor atom, score
      P1  H  6896  6909       L1    10  0.97
      P1  H  7997  8010       L1     2  0.64

> <Gold.Chemscore.Hbond.Weighted>
-6.5258

> <Gold.Chemscore.Metal.Weighted>
-0.0000

> <Gold.Chemscore.Lipo.Weighted>
-14.0405

> <Gold.Chemscore.Internal_Hbond.Weighted>
0.0000

> <Gold.Chemscore.DEClash.Weighted>
0.5780

> <Gold.Chemscore.DEInternal.Weighted>
1.7155

> <Gold.Chemscore.Rot.Weighted>
6.1270

> <Gold.Chemscore.Internal.Correction.Weighted>
   9.000000E+99

> <Gold.Protein.RotatedTorsions>
[ 6907 6896 6895 6894 ] final  172.26 input  -60.11 | X-H torsion
[ 7974 7965 7964 7962 ] final   -2.51 input  175.53 | X-H torsion
[ 8008 7997 7996 7995 ] final  110.59 input   59.86 | X-H torsion
[ 10167 10162 10161 10158 ] final   19.67 input  -65.29 | X-H torsion
[ 10718 10713 10712 10709 ] final   10.07 input   66.30 | X-H torsion
[ 10763 10752 10751 10750 ] final -134.16 input  -60.55 | X-H torsion
[ 11005 11000 10999 10996 ] final  102.51 input  -57.11 | X-H torsion

> <Gold.Protein.ActiveResidues>
 VAL166  LYS551  ARG553  GLY616  TRP617  ASP618  TYR619  PRO620  LYS621  CYS622 
 ASP623  PHE694  ASN695  SER759  ASP760  ASP761  ALA762  ILE779  LEU786  VAL792 
 PHE793  MET794  SER795  GLU796  ALA797  LYS798  CYS799  TRP800  GLU811  SER814 

> <Gold.Protein.RotatedAtoms>
  151.7871  133.3355  159.3487 H   0  0  0  0  0  0  0  0  0  0  0  0  # atno 6907 bound_to 6896
  150.7405  134.5877  159.5981 H   0  0  0  0  0  0  0  0  0  0  0  0  # atno 6908 bound_to 6896
  152.3236  134.7351  160.0359 H   0  0  0  0  0  0  0  0  0  0  0  0  # atno 6909 bound_to 6896
  146.2403  140.1581  142.8333 H   0  0  0  0  0  0  0  0  0  0  0  0  # atno 7974 bound_to 7965
  156.2064  140.3036  155.9635 H   0  0  0  0  0  0  0  0  0  0  0  0  # atno 8008 bound_to 7997
  155.2832  140.0438  157.3034 H   0  0  0  0  0  0  0  0  0  0  0  0  # atno 8009 bound_to 7997
  154.5638  140.2328  155.8303 H   0  0  0  0  0  0  0  0  0  0  0  0  # atno 8010 bound_to 7997
  140.5561  143.9421  150.6610 H   0  0  0  0  0  0  0  0  0  0  0  0  # atno 10167 bound_to 10162
  156.9756  130.5986  149.5672 H   0  0  0  0  0  0  0  0  0  0  0  0  # atno 10718 bound_to 10713
  154.8723  135.3743  154.4690 H   0  0  0  0  0  0  0  0  0  0  0  0  # atno 10763 bound_to 10752
  153.5352  135.7027  153.5668 H   0  0  0  0  0  0  0  0  0  0  0  0  # atno 10764 bound_to 10752
  153.3855  135.3985  155.1851 H   0  0  0  0  0  0  0  0  0  0  0  0  # atno 10765 bound_to 10752
  139.8778  134.9227  156.5068 H   0  0  0  0  0  0  0  0  0  0  0  0  # atno 11005 bound_to 11000
  145.0112  140.8715  143.5223 LP  0  0  0  0  0  0  0  0  0  0  0  0  # atno 17320 bound_to 7965
  145.1615  139.2456  143.5389 LP  0  0  0  0  0  0  0  0  0  0  0  0  # atno 17321 bound_to 7965
  140.2860  143.3357  152.1107 LP  0  0  0  0  0  0  0  0  0  0  0  0  # atno 17342 bound_to 10162
  139.5049  144.6784  151.6071 LP  0  0  0  0  0  0  0  0  0  0  0  0  # atno 17343 bound_to 10162
  156.0265  130.5359  150.8420 LP  0  0  0  0  0  0  0  0  0  0  0  0  # atno 17370 bound_to 10713
  157.5562  131.0945  150.9625 LP  0  0  0  0  0  0  0  0  0  0  0  0  # atno 17371 bound_to 10713
  140.8549  133.8104  155.9206 LP  0  0  0  0  0  0  0  0  0  0  0  0  # atno 17394 bound_to 11000
  140.9107  134.2264  157.4987 LP  0  0  0  0  0  0  0  0  0  0  0  0  # atno 17395 bound_to 11000

$$$$
