AV-unprocessed.smi:1403|AV-procd|sdf|5702|dock6
  -GOLD-   22720 5333D 1   1.00000     0.00000
 Structure written by MMmdl.
 35 36  0  0  0  0  0  0  0  0  2 V2000
  146.0638  131.9286  150.2671 C   0  0  0  0  0  0  0  0  0  0  0  0
  146.3732  132.4263  151.6889 C   0  0  1  0  0  0  0  0  0  0  0  0
  147.8133  132.6124  151.8480 N   0  0  0  0  0  0  0  0  0  0  0  0
  148.4138  133.1820  152.9039 C   0  0  0  0  0  0  0  0  0  0  0  0
  147.7980  133.6383  153.8679 O   0  0  0  0  0  0  0  0  0  0  0  0
  149.9441  133.2713  152.8426 C   0  0  0  0  0  0  0  0  0  0  0  0
  150.4885  134.3060  153.7361 N   0  0  0  0  0  0  0  0  0  0  0  0
  150.0211  135.6225  153.5765 C   0  0  0  0  0  0  0  0  0  0  0  0
  150.4625  136.6318  154.3514 C   0  0  0  0  0  0  0  0  0  0  0  0
  151.4526  136.3318  155.3782 C   0  0  0  0  0  0  0  0  0  0  0  0
  151.8718  137.2421  156.0904 O   0  0  0  0  0  0  0  0  0  0  0  0
  151.8701  135.0375  155.4982 N   0  5  0  0  0  0  0  0  0  0  0  0
  151.4109  134.0206  154.7045 C   0  0  0  0  0  0  0  0  0  0  0  0
  151.8003  132.8589  154.8303 O   0  0  0  0  0  0  0  0  0  0  0  0
  145.6400  133.7436  152.0054 C   0  0  2  0  0  0  0  0  0  0  0  0
  144.1128  133.6640  151.9252 C   0  0  0  0  0  0  0  0  0  0  0  0
  143.6893  135.0820  151.5701 C   0  0  0  0  0  0  0  0  0  0  0  0
  144.9987  135.7845  151.2039 C   0  0  0  0  0  0  0  0  0  0  0  0
  145.9388  134.7345  151.0345 O   0  0  0  0  0  0  0  0  0  0  0  0
  144.9944  131.7657  150.1309 H   0  0  0  0  0  0  0  0  0  0  0  0
  146.5657  130.9828  150.0607 H   0  0  0  0  0  0  0  0  0  0  0  0
  146.3891  132.6481  149.5151 H   0  0  0  0  0  0  0  0  0  0  0  0
  146.0336  131.6724  152.4018 H   0  0  0  0  0  0  0  0  0  0  0  0
  148.4008  132.2678  151.1028 H   0  0  0  0  0  0  0  0  0  0  0  0
  150.3858  132.3017  153.0803 H   0  0  0  0  0  0  0  0  0  0  0  0
  150.2301  133.4701  151.8090 H   0  0  0  0  0  0  0  0  0  0  0  0
  149.2846  135.7582  152.7983 H   0  0  0  0  0  0  0  0  0  0  0  0
  150.0912  137.6373  154.2182 H   0  0  0  0  0  0  0  0  0  0  0  0
  145.9363  134.1158  152.9883 H   0  0  0  0  0  0  0  0  0  0  0  0
  143.8102  132.9843  151.1273 H   0  0  0  0  0  0  0  0  0  0  0  0
  143.6645  133.3093  152.8538 H   0  0  0  0  0  0  0  0  0  0  0  0
  142.9942  135.0737  150.7299 H   0  0  0  0  0  0  0  0  0  0  0  0
  143.1997  135.5824  152.4063 H   0  0  0  0  0  0  0  0  0  0  0  0
  144.9129  136.3900  150.3014 H   0  0  0  0  0  0  0  0  0  0  0  0
  145.3281  136.4315  152.0185 H   0  0  0  0  0  0  0  0  0  0  0  0
  1  2  1  0  0  0  0
  1 20  1  0  0  0  0
  1 21  1  0  0  0  0
  1 22  1  0  0  0  0
  2  3  1  0  0  0  0
  2 15  1  0  0  0  0
  2 23  1  0  0  0  0
  3  4  1  0  0  0  0
  3 24  1  0  0  0  0
  4  5  2  0  0  0  0
  4  6  1  0  0  0  0
  6  7  1  0  0  0  0
  6 25  1  0  0  0  0
  6 26  1  0  0  0  0
  7 13  1  0  0  0  0
  7  8  1  0  0  0  0
  8  9  2  0  0  0  0
  8 27  1  0  0  0  0
  9 10  1  0  0  0  0
  9 28  1  0  0  0  0
 10 11  2  0  0  0  0
 10 12  1  0  0  0  0
 12 13  1  0  0  0  0
 13 14  2  0  0  0  0
 15 19  1  0  0  0  0
 15 16  1  0  0  0  0
 15 29  1  0  0  0  0
 16 17  1  0  0  0  0
 16 30  1  0  0  0  0
 16 31  1  0  0  0  0
 17 18  1  0  0  0  0
 17 32  1  0  0  0  0
 17 33  1  0  0  0  0
 18 19  1  0  0  0  0
 18 34  1  0  0  0  0
 18 35  1  0  0  0  0
M  CHG  1  12  -1
M  END
> <s_m_source_file>
AV-unprocessed.smi

> <i_m_source_file_index>
1403

> <i_lp_mmshare_version>
43012

> <i_f3d_flags>
0

> <s_epik_input>
TzFbQ0gyXVtDSDJdW0NIMl1bQ0BIXTFbQ0BIXShbQ0gzXSlbTkhdQyg9TylbQ0gyXW4yW2NIXVtjSF1jKD1PKVtuSF1jMj1P

> <s_epik_cmdline>
J2VwaWtfcHl0aG9uJywgJy1waCcsICc3LjAnLCAnLXRuJywgJzgnLCAnLW1hJywgJzIwMCcsICctbWV0YWxfYmluZGluZycsICctaW1hZScsICc8aW5maWxlLm1hZT4nLCAnLW9tYWUnLCAnPG91dGZpbGUubWFlPic=

> <r_lp_tautomer_probability>
0.999537

> <r_epik_Ionization_Penalty>
3.07438

> <r_epik_Ionization_Penalty_Charging>
2.82466e-08

> <r_epik_Ionization_Penalty_Neutral>
3.07438

> <r_epik_State_Penalty>
3.07341

> <r_epik_Charging_Adjusted_Penalty>
3.07341

> <i_epik_Tot_Q>
-1

> <i_epik_Tot_abs_Q>
1

> <r_epik_Metal_State_Penalty>
0.45947

> <b_epik_Metal_Only>
1

> <s_lp_Force_Field>
OPLS_2005

> <r_lp_Energy>
26.8934

> <b_lp_Chiralities_Consistent>
1

> <s_lp_Variant>
AV-unprocessed.smi:1403-6

> <Gold.Version>
5.8.1

> <Gold.Id.Protein>
6NUR|6NUR_protein|mol2

> <Gold.PLP.Fitness>
39.6244

> <Gold.PLP.PLP>
-30.5420

> <Gold.PLP.part.hbond>
-3.0000

> <Gold.PLP.part.metal>
0.0000

> <Gold.PLP.part.buried>
-3.1689

> <Gold.PLP.part.nonpolar>
-25.9540

> <Gold.PLP.part.repulsive>
0.2477

> <Gold.PLP.ligand.clash>
0.0000

> <Gold.PLP.ligand.torsion>
0.4146

> <Gold.PLP.Chemscore.Hbond>
2.2932

> <Gold.PLP.Chemscore.CHOScore>
1.0000

> <Gold.PLP.Chemscore.Metal>
0.0000

> <Gold.Chemscore.Hbonds>
donor molecule, donor type, donor heavy atom, donor atom, acceptor molecule, acceptor atom, score
      L1  H     3    24       P1 10747  0.93
      P1  H 10752 10764       L1    12  0.67

> <Gold.PLP.Chemscore.Internal.Correction>
0.0319

> <Gold.Rescore>
     Score         DG    S(hbond)    S(metal)    S(lipo)     H(rot)  DE(clash)    DE(int)     intcor
      9.33     -11.52       1.44        0.00      54.25       1.99       0.10       2.09       ----

> <Gold.Chemscore.Fitness>
9.3261

> <Gold.Chemscore.DG>
-11.5179

> <Gold.Chemscore.ZeroCoef>
-5.4800

> <Gold.Chemscore.Hbond>
1.4356

> <Gold.Chemscore.Metal>
0.0000

> <Gold.Chemscore.Lipo>
54.2524

> <Gold.Chemscore.Internal_Hbond>
0.0000

> <Gold.Chemscore.DEClash>
0.0998

> <Gold.Chemscore.DEInternal>
2.0920

> <Gold.Chemscore.Rot>
1.9940

> <Gold.Chemscore.Internal.Correction>
   9.000000E+99

> <Gold.Chemscore.Hbonds>
donor molecule, donor type, donor heavy atom, donor atom, acceptor molecule, acceptor atom, score
      L1  H     3    24       P1 10747  0.91
      P1  H 10752 10764       L1    12  0.02

> <Gold.Chemscore.Hbond.Weighted>
-4.7951

> <Gold.Chemscore.Metal.Weighted>
-0.0000

> <Gold.Chemscore.Lipo.Weighted>
-6.3475

> <Gold.Chemscore.Internal_Hbond.Weighted>
0.0000

> <Gold.Chemscore.DEClash.Weighted>
0.0998

> <Gold.Chemscore.DEInternal.Weighted>
2.0920

> <Gold.Chemscore.Rot.Weighted>
5.1047

> <Gold.Chemscore.Internal.Correction.Weighted>
   9.000000E+99

> <Gold.Protein.RotatedTorsions>
[ 6907 6896 6895 6894 ] final  -23.42 input  -60.11 | X-H torsion
[ 7974 7965 7964 7962 ] final -162.07 input  175.53 | X-H torsion
[ 8008 7997 7996 7995 ] final    2.78 input   59.86 | X-H torsion
[ 10167 10162 10161 10158 ] final  105.23 input  -65.29 | X-H torsion
[ 10718 10713 10712 10709 ] final -106.31 input   66.30 | X-H torsion
[ 10763 10752 10751 10750 ] final  -14.26 input  -60.55 | X-H torsion
[ 11005 11000 10999 10996 ] final  -95.27 input  -57.11 | X-H torsion

> <Gold.Protein.ActiveResidues>
 VAL166  LYS551  ARG553  GLY616  TRP617  ASP618  TYR619  PRO620  LYS621  CYS622 
 ASP623  PHE694  ASN695  SER759  ASP760  ASP761  ALA762  ILE779  LEU786  VAL792 
 PHE793  MET794  SER795  GLU796  ALA797  LYS798  CYS799  TRP800  GLU811  SER814 

> <Gold.Protein.RotatedAtoms>
  151.2043  135.0455  159.8884 H   0  0  0  0  0  0  0  0  0  0  0  0  # atno 6907 bound_to 6896
  152.5430  134.0815  159.8248 H   0  0  0  0  0  0  0  0  0  0  0  0  # atno 6908 bound_to 6896
  151.0960  133.5232  159.2644 H   0  0  0  0  0  0  0  0  0  0  0  0  # atno 6909 bound_to 6896
  144.7369  140.3305  143.6154 H   0  0  0  0  0  0  0  0  0  0  0  0  # atno 7974 bound_to 7965
  154.6958  140.2662  155.6768 H   0  0  0  0  0  0  0  0  0  0  0  0  # atno 8008 bound_to 7997
  156.2748  140.2782  156.1475 H   0  0  0  0  0  0  0  0  0  0  0  0  # atno 8009 bound_to 7997
  155.0834  140.0373  157.2636 H   0  0  0  0  0  0  0  0  0  0  0  0  # atno 8010 bound_to 7997
  139.7110  144.7077  151.1027 H   0  0  0  0  0  0  0  0  0  0  0  0  # atno 10167 bound_to 10162
  156.0384  130.5606  150.7663 H   0  0  0  0  0  0  0  0  0  0  0  0  # atno 10718 bound_to 10713
  153.5256  135.7015  153.5709 H   0  0  0  0  0  0  0  0  0  0  0  0  # atno 10763 bound_to 10752
  153.3739  135.3937  155.1808 H   0  0  0  0  0  0  0  0  0  0  0  0  # atno 10764 bound_to 10752
  154.8690  135.3818  154.4749 H   0  0  0  0  0  0  0  0  0  0  0  0  # atno 10765 bound_to 10752
  141.1447  133.8014  157.0412 H   0  0  0  0  0  0  0  0  0  0  0  0  # atno 11005 bound_to 11000
  145.7476  139.1783  143.2340 LP  0  0  0  0  0  0  0  0  0  0  0  0  # atno 17320 bound_to 7965
  146.1086  140.7457  142.9514 LP  0  0  0  0  0  0  0  0  0  0  0  0  # atno 17321 bound_to 7965
  140.7733  143.5293  150.9442 LP  0  0  0  0  0  0  0  0  0  0  0  0  # atno 17342 bound_to 10162
  139.8978  143.6873  152.3136 LP  0  0  0  0  0  0  0  0  0  0  0  0  # atno 17343 bound_to 10162
  157.5169  131.0929  151.0128 LP  0  0  0  0  0  0  0  0  0  0  0  0  # atno 17370 bound_to 10713
  157.0469  130.5771  149.5364 LP  0  0  0  0  0  0  0  0  0  0  0  0  # atno 17371 bound_to 10713
  140.0692  134.9712  157.1437 LP  0  0  0  0  0  0  0  0  0  0  0  0  # atno 17394 bound_to 11000
  140.3736  134.2363  155.7176 LP  0  0  0  0  0  0  0  0  0  0  0  0  # atno 17395 bound_to 11000

$$$$
