AV-unprocessed.smi:986|AV-procd|sdf|4320|dock2
  -GOLD-   22720 2223D 1   1.00000     0.00000
 Structure written by MMmdl.
 31 31  0  0  0  0  0  0  0  0  1 V2000
  152.6598  143.4974  159.0883 C   0  0  0  0  0  0  0  0  0  0  0  0
  151.9085  144.2682  157.9911 C   0  0  0  0  0  0  0  0  0  0  0  0
  151.5622  145.6936  158.4412 C   0  0  0  0  0  0  0  0  0  0  0  0
  150.6811  143.5708  157.6246 N   0  0  0  0  0  0  0  0  0  0  0  0
  150.5544  142.2482  157.4156 C   0  0  0  0  0  0  0  0  0  0  0  0
  151.4980  141.4644  157.5127 O   0  0  0  0  0  0  0  0  0  0  0  0
  149.1671  141.7033  157.0351 C   0  0  0  0  0  0  0  0  0  0  0  0
  149.1881  140.3627  156.4503 N   0  0  0  0  0  0  0  0  0  0  0  0
  149.4264  140.0817  155.1588 C   0  0  0  0  0  0  0  0  0  0  0  0
  149.5834  140.9426  154.2940 O   0  0  0  0  0  0  0  0  0  0  0  0
  149.5348  138.6012  154.7954 C   0  0  0  0  0  0  0  0  0  0  0  0
  150.5704  137.9564  155.5833 N   0  0  0  0  0  0  0  0  0  0  0  0
  150.6250  136.7313  156.1100 C   0  0  0  0  0  0  0  0  0  0  0  0
  151.7330  136.4923  156.7972 N   0  0  0  0  0  0  0  0  0  0  0  0
  152.3626  137.6947  156.6402 C   0  0  0  0  0  0  0  0  0  0  0  0
  151.7071  138.6083  155.9241 N   0  0  0  0  0  0  0  0  0  0  0  0
  153.5781  144.0135  159.3694 H   0  0  0  0  0  0  0  0  0  0  0  0
  152.9373  142.4976  158.7530 H   0  0  0  0  0  0  0  0  0  0  0  0
  152.0501  143.3903  159.9861 H   0  0  0  0  0  0  0  0  0  0  0  0
  152.5499  144.3403  157.1108 H   0  0  0  0  0  0  0  0  0  0  0  0
  152.4626  146.2564  158.6885 H   0  0  0  0  0  0  0  0  0  0  0  0
  150.9225  145.6859  159.3244 H   0  0  0  0  0  0  0  0  0  0  0  0
  151.0383  146.2392  157.6556 H   0  0  0  0  0  0  0  0  0  0  0  0
  149.8518  144.1390  157.5307 H   0  0  0  0  0  0  0  0  0  0  0  0
  148.5526  141.6694  157.9350 H   0  0  0  0  0  0  0  0  0  0  0  0
  148.6814  142.4063  156.3563 H   0  0  0  0  0  0  0  0  0  0  0  0
  149.0637  139.5901  157.0880 H   0  0  0  0  0  0  0  0  0  0  0  0
  148.5845  138.0979  154.9782 H   0  0  0  0  0  0  0  0  0  0  0  0
  149.7632  138.4878  153.7344 H   0  0  0  0  0  0  0  0  0  0  0  0
  149.8355  136.0030  155.9952 H   0  0  0  0  0  0  0  0  0  0  0  0
  153.3314  137.9042  157.0694 H   0  0  0  0  0  0  0  0  0  0  0  0
  1  2  1  0  0  0  0
  1 17  1  0  0  0  0
  1 18  1  0  0  0  0
  1 19  1  0  0  0  0
  2  3  1  0  0  0  0
  2  4  1  0  0  0  0
  2 20  1  0  0  0  0
  3 21  1  0  0  0  0
  3 22  1  0  0  0  0
  3 23  1  0  0  0  0
  4  5  1  0  0  0  0
  4 24  1  0  0  0  0
  5  6  2  0  0  0  0
  5  7  1  0  0  0  0
  7  8  1  0  0  0  0
  7 25  1  0  0  0  0
  7 26  1  0  0  0  0
  8  9  1  0  0  0  0
  8 27  1  0  0  0  0
  9 10  2  0  0  0  0
  9 11  1  0  0  0  0
 11 12  1  0  0  0  0
 11 28  1  0  0  0  0
 11 29  1  0  0  0  0
 12 16  1  0  0  0  0
 12 13  1  0  0  0  0
 13 14  2  0  0  0  0
 13 30  1  0  0  0  0
 14 15  1  0  0  0  0
 15 16  2  0  0  0  0
 15 31  1  0  0  0  0
M  END
> <s_m_source_file>
AV-unprocessed.smi

> <i_m_source_file_index>
986

> <i_lp_mmshare_version>
43012

> <i_f3d_flags>
0

> <s_epik_input>
W0NIM11bQ0hdKFtDSDNdKVtOSF1DKD1PKVtDSDJdW05IXUMoPU8pW0NIMl1uMVtjSF1uW2NIXW4x

> <s_epik_cmdline>
J2VwaWtfcHl0aG9uJywgJy1waCcsICc3LjAnLCAnLXRuJywgJzgnLCAnLW1hJywgJzIwMCcsICctbWV0YWxfYmluZGluZycsICctaW1hZScsICc8aW5maWxlLm1hZT4nLCAnLW9tYWUnLCAnPG91dGZpbGUubWFlPic=

> <r_lp_tautomer_probability>
1

> <r_epik_Ionization_Penalty>
7.25916e-06

> <r_epik_Ionization_Penalty_Charging>
0

> <r_epik_Ionization_Penalty_Neutral>
7.25916e-06

> <r_epik_State_Penalty>
-0

> <r_epik_Charging_Adjusted_Penalty>
0

> <i_epik_Tot_Q>
0

> <i_epik_Tot_abs_Q>
0

> <r_epik_Metal_State_Penalty>
-0

> <b_epik_Metal_Only>
0

> <s_lp_Force_Field>
OPLS_2005

> <r_lp_Energy>
0.116245

> <b_lp_Chiralities_Consistent>
1

> <s_lp_Variant>
AV-unprocessed.smi:986-1

> <Gold.Version>
5.8.1

> <Gold.Id.Protein>
6NUR|6NUR_protein|mol2

> <Gold.PLP.Fitness>
41.7328

> <Gold.PLP.PLP>
-33.5955

> <Gold.PLP.part.hbond>
-4.1528

> <Gold.PLP.part.metal>
0.0000

> <Gold.PLP.part.buried>
-1.3199

> <Gold.PLP.part.nonpolar>
-28.8114

> <Gold.PLP.part.repulsive>
0.4734

> <Gold.PLP.ligand.clash>
0.0000

> <Gold.PLP.ligand.torsion>
0.9088

> <Gold.PLP.Chemscore.Hbond>
2.3600

> <Gold.PLP.Chemscore.CHOScore>
0.9361

> <Gold.PLP.Chemscore.Metal>
0.0000

> <Gold.Chemscore.Hbonds>
donor molecule, donor type, donor heavy atom, donor atom, acceptor molecule, acceptor atom, score
      L1  H     4    24       P1  8028  0.37
      P1  H  7989  7998       L1    10  0.34

> <Gold.PLP.Chemscore.Internal.Correction>
0.0666

> <Gold.Rescore>
     Score         DG    S(hbond)    S(metal)    S(lipo)     H(rot)  DE(clash)    DE(int)     intcor
      6.55     -10.34       2.01        0.00      50.58       3.03       1.55       2.24       ----

> <Gold.Chemscore.Fitness>
6.5531

> <Gold.Chemscore.DG>
-10.3413

> <Gold.Chemscore.ZeroCoef>
-5.4800

> <Gold.Chemscore.Hbond>
2.0082

> <Gold.Chemscore.Metal>
0.0000

> <Gold.Chemscore.Lipo>
50.5823

> <Gold.Chemscore.Internal_Hbond>
0.0000

> <Gold.Chemscore.DEClash>
1.5466

> <Gold.Chemscore.DEInternal>
2.2415

> <Gold.Chemscore.Rot>
3.0329

> <Gold.Chemscore.Internal.Correction>
   9.000000E+99

> <Gold.Chemscore.Hbonds>
donor molecule, donor type, donor heavy atom, donor atom, acceptor molecule, acceptor atom, score
      L1  H     4    24       P1  8028  0.15
      P1  H  7989  7998       L1    10  0.28
      P1  H  8011  8017       L1    10  0.03

> <Gold.Chemscore.Hbond.Weighted>
-6.7075

> <Gold.Chemscore.Metal.Weighted>
-0.0000

> <Gold.Chemscore.Lipo.Weighted>
-5.9181

> <Gold.Chemscore.Internal_Hbond.Weighted>
0.0000

> <Gold.Chemscore.DEClash.Weighted>
1.5466

> <Gold.Chemscore.DEInternal.Weighted>
2.2415

> <Gold.Chemscore.Rot.Weighted>
7.7643

> <Gold.Chemscore.Internal.Correction.Weighted>
   9.000000E+99

> <Gold.Protein.RotatedTorsions>
[ 6907 6896 6895 6894 ] final  -42.35 input  -60.11 | X-H torsion
[ 7974 7965 7964 7962 ] final  -93.89 input  175.53 | X-H torsion
[ 8008 7997 7996 7995 ] final   94.08 input   59.86 | X-H torsion
[ 10167 10162 10161 10158 ] final  -14.52 input  -65.29 | X-H torsion
[ 10718 10713 10712 10709 ] final  123.44 input   66.30 | X-H torsion
[ 10763 10752 10751 10750 ] final   44.42 input  -60.55 | X-H torsion
[ 11005 11000 10999 10996 ] final  141.79 input  -57.11 | X-H torsion

> <Gold.Protein.ActiveResidues>
 VAL166  LYS551  ARG553  GLY616  TRP617  ASP618  TYR619  PRO620  LYS621  CYS622 
 ASP623  PHE694  ASN695  SER759  ASP760  ASP761  ALA762  ILE779  LEU786  VAL792 
 PHE793  MET794  SER795  GLU796  ALA797  LYS798  CYS799  TRP800  GLU811  SER814 

> <Gold.Protein.RotatedAtoms>
  150.9563  134.8956  159.7702 H   0  0  0  0  0  0  0  0  0  0  0  0  # atno 6907 bound_to 6896
  152.5139  134.3736  159.9336 H   0  0  0  0  0  0  0  0  0  0  0  0  # atno 6908 bound_to 6896
  151.3750  133.3801  159.2738 H   0  0  0  0  0  0  0  0  0  0  0  0  # atno 6909 bound_to 6896
  145.3805  140.9517  143.2396 H   0  0  0  0  0  0  0  0  0  0  0  0  # atno 7974 bound_to 7965
  156.0539  140.3304  155.7383 H   0  0  0  0  0  0  0  0  0  0  0  0  # atno 8008 bound_to 7997
  155.5558  140.0614  157.2857 H   0  0  0  0  0  0  0  0  0  0  0  0  # atno 8009 bound_to 7997
  154.4449  140.1886  156.0721 H   0  0  0  0  0  0  0  0  0  0  0  0  # atno 8010 bound_to 7997
  140.7202  143.5313  150.9516 H   0  0  0  0  0  0  0  0  0  0  0  0  # atno 10167 bound_to 10162
  157.5664  131.1086  150.8446 H   0  0  0  0  0  0  0  0  0  0  0  0  # atno 10718 bound_to 10713
  152.9841  135.6071  154.3271 H   0  0  0  0  0  0  0  0  0  0  0  0  # atno 10763 bound_to 10752
  154.2977  135.2773  155.2627 H   0  0  0  0  0  0  0  0  0  0  0  0  # atno 10764 bound_to 10752
  154.4894  135.5896  153.6504 H   0  0  0  0  0  0  0  0  0  0  0  0  # atno 10765 bound_to 10752
  140.0428  134.9296  157.0874 H   0  0  0  0  0  0  0  0  0  0  0  0  # atno 11005 bound_to 11000
  144.8511  139.5320  143.6856 LP  0  0  0  0  0  0  0  0  0  0  0  0  # atno 17320 bound_to 7965
  146.2844  139.6964  142.9206 LP  0  0  0  0  0  0  0  0  0  0  0  0  # atno 17321 bound_to 7965
  139.9034  143.6808  152.3127 LP  0  0  0  0  0  0  0  0  0  0  0  0  # atno 17342 bound_to 10162
  139.7166  144.7610  151.1024 LP  0  0  0  0  0  0  0  0  0  0  0  0  # atno 17343 bound_to 10162
  156.8929  130.5219  149.5285 LP  0  0  0  0  0  0  0  0  0  0  0  0  # atno 17370 bound_to 10713
  156.0712  130.5745  150.9387 LP  0  0  0  0  0  0  0  0  0  0  0  0  # atno 17371 bound_to 10713
  140.4042  134.2050  155.7163 LP  0  0  0  0  0  0  0  0  0  0  0  0  # atno 17394 bound_to 11000
  141.1891  133.8245  157.0968 LP  0  0  0  0  0  0  0  0  0  0  0  0  # atno 17395 bound_to 11000

$$$$
