AV-unprocessed.smi:625|AV-procd|sdf|3101|dock2
  -GOLD-   22720 0 23D 1   1.00000     0.00000
 Structure written by MMmdl.
 49 51  0  0  0  0  0  0  0  0  1 V2000
  146.6569  132.9954  149.9244 C   0  0  0  0  0  0  0  0  0  0  0  0
  147.5223  132.8087  151.0793 N   0  0  0  0  0  0  0  0  0  0  0  0
  147.5170  133.5938  152.1691 C   0  0  0  0  0  0  0  0  0  0  0  0
  146.7549  134.5571  152.2689 O   0  0  0  0  0  0  0  0  0  0  0  0
  148.4823  133.1900  153.1942 C   0  0  0  0  0  0  0  0  0  0  0  0
  149.0163  131.8402  153.2991 C   0  0  0  0  0  0  0  0  0  0  0  0
  149.8739  131.5171  154.2871 C   0  0  0  0  0  0  0  0  0  0  0  0
  150.3033  132.4973  155.2888 C   0  0  0  0  0  0  0  0  0  0  0  0
  151.0620  132.1987  156.2109 O   0  0  0  0  0  0  0  0  0  0  0  0
  149.7988  133.7592  155.1382 N   0  0  0  0  0  0  0  0  0  0  0  0
  150.1293  134.8303  156.0963 C   0  0  0  0  0  0  0  0  0  0  0  0
  150.5897  136.1462  155.4447 C   0  0  0  0  0  0  0  0  0  0  0  0
  151.2409  136.1044  154.4018 O   0  0  0  0  0  0  0  0  0  0  0  0
  150.2411  137.2983  156.0421 N   0  0  0  0  0  0  0  0  0  0  0  0
  150.4935  138.6452  155.5420 C   0  0  2  0  0  0  0  0  0  0  0  0
  151.9946  138.8254  155.2593 C   0  0  0  0  0  0  0  0  0  0  0  0
  149.9616  139.6623  156.5793 C   0  0  2  0  0  0  0  0  0  0  0  0
  148.4295  139.6332  156.7926 C   0  0  0  0  0  0  0  0  0  0  0  0
  148.0384  141.1189  156.6908 C   0  0  2  0  0  0  0  0  0  0  0  0
  148.1060  141.5551  155.2158 C   0  0  0  0  0  0  0  0  0  0  0  0
  149.6214  141.6116  154.9497 C   0  0  0  0  0  0  0  0  0  0  0  0
  150.2241  141.1623  156.2971 C   0  0  1  0  0  0  0  0  0  0  0  0
  149.2589  141.8166  157.2814 C   0  0  0  0  0  0  0  0  0  0  0  0
  148.8979  134.0897  154.1066 C   0  0  0  0  0  0  0  0  0  0  0  0
  146.8510  132.2186  149.1852 H   0  0  0  0  0  0  0  0  0  0  0  0
  146.8372  133.9642  149.4568 H   0  0  0  0  0  0  0  0  0  0  0  0
  145.6062  132.9371  150.2122 H   0  0  0  0  0  0  0  0  0  0  0  0
  148.1678  132.0328  151.0515 H   0  0  0  0  0  0  0  0  0  0  0  0
  148.7414  131.0705  152.5929 H   0  0  0  0  0  0  0  0  0  0  0  0
  150.2566  130.5088  154.3445 H   0  0  0  0  0  0  0  0  0  0  0  0
  149.2857  135.0461  156.7538 H   0  0  0  0  0  0  0  0  0  0  0  0
  150.9222  134.4881  156.7629 H   0  0  0  0  0  0  0  0  0  0  0  0
  149.7116  137.2339  156.8993 H   0  0  0  0  0  0  0  0  0  0  0  0
  149.9434  138.7646  154.6083 H   0  0  0  0  0  0  0  0  0  0  0  0
  152.2027  139.8107  154.8423 H   0  0  0  0  0  0  0  0  0  0  0  0
  152.3527  138.0887  154.5397 H   0  0  0  0  0  0  0  0  0  0  0  0
  152.5857  138.7163  156.1693 H   0  0  0  0  0  0  0  0  0  0  0  0
  150.4325  139.4279  157.5362 H   0  0  0  0  0  0  0  0  0  0  0  0
  147.9047  139.0287  156.0514 H   0  0  0  0  0  0  0  0  0  0  0  0
  148.1883  139.2281  157.7765 H   0  0  0  0  0  0  0  0  0  0  0  0
  147.0900  141.3558  157.1739 H   0  0  0  0  0  0  0  0  0  0  0  0
  147.5923  140.8576  154.5533 H   0  0  0  0  0  0  0  0  0  0  0  0
  147.6561  142.5392  155.0794 H   0  0  0  0  0  0  0  0  0  0  0  0
  149.9274  140.9939  154.1067 H   0  0  0  0  0  0  0  0  0  0  0  0
  149.9240  142.6349  154.7231 H   0  0  0  0  0  0  0  0  0  0  0  0
  151.2659  141.4559  156.4285 H   0  0  0  0  0  0  0  0  0  0  0  0
  149.2202  142.9039  157.1943 H   0  0  0  0  0  0  0  0  0  0  0  0
  149.4487  141.5489  158.3226 H   0  0  0  0  0  0  0  0  0  0  0  0
  148.5572  135.1159  154.1294 H   0  0  0  0  0  0  0  0  0  0  0  0
  1  2  1  0  0  0  0
  1 25  1  0  0  0  0
  1 26  1  0  0  0  0
  1 27  1  0  0  0  0
  2  3  1  0  0  0  0
  2 28  1  0  0  0  0
  3  4  2  0  0  0  0
  3  5  1  0  0  0  0
  5 24  2  0  0  0  0
  5  6  1  0  0  0  0
  6  7  2  0  0  0  0
  6 29  1  0  0  0  0
  7  8  1  0  0  0  0
  7 30  1  0  0  0  0
  8  9  2  0  0  0  0
  8 10  1  0  0  0  0
 10 11  1  0  0  0  0
 10 24  1  0  0  0  0
 11 12  1  0  0  0  0
 11 31  1  0  0  0  0
 11 32  1  0  0  0  0
 12 13  2  0  0  0  0
 12 14  1  0  0  0  0
 14 15  1  0  0  0  0
 14 33  1  0  0  0  0
 15 16  1  0  0  0  0
 15 17  1  0  0  0  0
 15 34  1  0  0  0  0
 16 35  1  0  0  0  0
 16 36  1  0  0  0  0
 16 37  1  0  0  0  0
 17 22  1  0  0  0  0
 17 18  1  0  0  0  0
 17 38  1  0  0  0  0
 18 19  1  0  0  0  0
 18 39  1  0  0  0  0
 18 40  1  0  0  0  0
 19 23  1  0  0  0  0
 19 20  1  0  0  0  0
 19 41  1  0  0  0  0
 20 21  1  0  0  0  0
 20 42  1  0  0  0  0
 20 43  1  0  0  0  0
 21 22  1  0  0  0  0
 21 44  1  0  0  0  0
 21 45  1  0  0  0  0
 22 23  1  0  0  0  0
 22 46  1  0  0  0  0
 23 47  1  0  0  0  0
 23 48  1  0  0  0  0
 24 49  1  0  0  0  0
M  END
> <s_m_source_file>
AV-unprocessed.smi

> <i_m_source_file_index>
625

> <i_lp_mmshare_version>
43012

> <i_f3d_flags>
0

> <s_epik_input>
W0NIM11bTkhdQyg9TyljMVtjSF1bY0hdYyg9TyluKFtjSF0xKVtDSDJdQyg9TylbTkhdW0NASF0oW0NIM10pW0NASF0oW0NIMl1bQ0BIXTIzKVtDQEhdKFtDSDJdMylbQ0gyXVtDSDJdMg==

> <s_epik_cmdline>
J2VwaWtfcHl0aG9uJywgJy1waCcsICc3LjAnLCAnLXRuJywgJzgnLCAnLW1hJywgJzIwMCcsICctbWV0YWxfYmluZGluZycsICctaW1hZScsICc8aW5maWxlLm1hZT4nLCAnLW9tYWUnLCAnPG91dGZpbGUubWFlPic=

> <r_lp_tautomer_probability>
1

> <r_epik_Ionization_Penalty>
3.7129e-07

> <r_epik_Ionization_Penalty_Charging>
5.04114e-08

> <r_epik_Ionization_Penalty_Neutral>
3.20879e-07

> <r_epik_State_Penalty>
-0

> <r_epik_Charging_Adjusted_Penalty>
5.04114e-08

> <i_epik_Tot_Q>
0

> <i_epik_Tot_abs_Q>
0

> <r_epik_Metal_State_Penalty>
-0

> <b_epik_Metal_Only>
0

> <s_lp_Force_Field>
OPLS_2005

> <r_lp_Energy>
63.5822

> <b_lp_Chiralities_Consistent>
1

> <s_lp_Variant>
AV-unprocessed.smi:625-1

> <Gold.Version>
5.8.1

> <Gold.Id.Protein>
6NUR|6NUR_protein|mol2

> <Gold.PLP.Fitness>
42.3259

> <Gold.PLP.PLP>
-37.1120

> <Gold.PLP.part.hbond>
-2.0000

> <Gold.PLP.part.metal>
0.0000

> <Gold.PLP.part.buried>
-6.0743

> <Gold.PLP.part.nonpolar>
-32.3664

> <Gold.PLP.part.repulsive>
1.9902

> <Gold.PLP.ligand.clash>
0.0000

> <Gold.PLP.ligand.torsion>
0.7051

> <Gold.PLP.Chemscore.Hbond>
1.9760

> <Gold.PLP.Chemscore.CHOScore>
0.2011

> <Gold.PLP.Chemscore.Metal>
0.0000

> <Gold.Chemscore.Hbonds>
donor molecule, donor type, donor heavy atom, donor atom, acceptor molecule, acceptor atom, score
      L1  H     2    28       P1 10747  1.00
      P1  H 10752 10765       L1    13  1.00
      L1  C    24    49       P1  7948  0.58

> <Gold.PLP.Chemscore.Internal.Correction>
0.0928

> <Gold.Rescore>
     Score         DG    S(hbond)    S(metal)    S(lipo)     H(rot)  DE(clash)    DE(int)     intcor
     15.77     -16.75       1.98        0.00      76.28       1.67       0.17       0.81       ----

> <Gold.Chemscore.Fitness>
15.7669

> <Gold.Chemscore.DG>
-16.7512

> <Gold.Chemscore.ZeroCoef>
-5.4800

> <Gold.Chemscore.Hbond>
1.9832

> <Gold.Chemscore.Metal>
0.0000

> <Gold.Chemscore.Lipo>
76.2795

> <Gold.Chemscore.Internal_Hbond>
0.0000

> <Gold.Chemscore.DEClash>
0.1696

> <Gold.Chemscore.DEInternal>
0.8148

> <Gold.Chemscore.Rot>
1.6709

> <Gold.Chemscore.Internal.Correction>
   9.000000E+99

> <Gold.Chemscore.Hbonds>
donor molecule, donor type, donor heavy atom, donor atom, acceptor molecule, acceptor atom, score
      L1  H     2    28       P1 10747  0.96
      P1  H 10752 10765       L1    13  0.94

> <Gold.Chemscore.Hbond.Weighted>
-6.6239

> <Gold.Chemscore.Metal.Weighted>
-0.0000

> <Gold.Chemscore.Lipo.Weighted>
-8.9247

> <Gold.Chemscore.Internal_Hbond.Weighted>
0.0000

> <Gold.Chemscore.DEClash.Weighted>
0.1696

> <Gold.Chemscore.DEInternal.Weighted>
0.8148

> <Gold.Chemscore.Rot.Weighted>
4.2774

> <Gold.Chemscore.Internal.Correction.Weighted>
   9.000000E+99

> <Gold.Protein.RotatedTorsions>
[ 6907 6896 6895 6894 ] final -152.89 input  -60.11 | X-H torsion
[ 7974 7965 7964 7962 ] final   43.88 input  175.53 | X-H torsion
[ 8008 7997 7996 7995 ] final   81.07 input   59.86 | X-H torsion
[ 10167 10162 10161 10158 ] final  145.69 input  -65.29 | X-H torsion
[ 10718 10713 10712 10709 ] final -161.17 input   66.30 | X-H torsion
[ 10763 10752 10751 10750 ] final  177.04 input  -60.55 | X-H torsion
[ 11005 11000 10999 10996 ] final    2.56 input  -57.11 | X-H torsion

> <Gold.Protein.ActiveResidues>
 VAL166  LYS551  ARG553  GLY616  TRP617  ASP618  TYR619  PRO620  LYS621  CYS622 
 ASP623  PHE694  ASN695  SER759  ASP760  ASP761  ALA762  ILE779  LEU786  VAL792 
 PHE793  MET794  SER795  GLU796  ALA797  LYS798  CYS799  TRP800  GLU811  SER814 

> <Gold.Protein.RotatedAtoms>
  151.2345  133.4432  159.2604 H   0  0  0  0  0  0  0  0  0  0  0  0  # atno 6907 bound_to 6896
  151.0763  134.9830  159.8344 H   0  0  0  0  0  0  0  0  0  0  0  0  # atno 6908 bound_to 6896
  152.5418  134.2288  159.8869 H   0  0  0  0  0  0  0  0  0  0  0  0  # atno 6909 bound_to 6896
  146.0617  139.5137  142.9654 H   0  0  0  0  0  0  0  0  0  0  0  0  # atno 7974 bound_to 7965
  155.8921  140.3438  155.5964 H   0  0  0  0  0  0  0  0  0  0  0  0  # atno 8008 bound_to 7997
  155.7599  140.0831  157.2179 H   0  0  0  0  0  0  0  0  0  0  0  0  # atno 8009 bound_to 7997
  154.4034  140.1538  156.2808 H   0  0  0  0  0  0  0  0  0  0  0  0  # atno 8010 bound_to 7997
  139.4921  144.5884  151.6732 H   0  0  0  0  0  0  0  0  0  0  0  0  # atno 10167 bound_to 10162
  156.5925  130.8776  151.2893 H   0  0  0  0  0  0  0  0  0  0  0  0  # atno 10718 bound_to 10713
  154.4892  135.2778  155.1510 H   0  0  0  0  0  0  0  0  0  0  0  0  # atno 10763 bound_to 10752
  154.3188  135.6214  153.5502 H   0  0  0  0  0  0  0  0  0  0  0  0  # atno 10764 bound_to 10752
  152.9885  135.5737  154.5310 H   0  0  0  0  0  0  0  0  0  0  0  0  # atno 10765 bound_to 10752
  140.6030  133.9818  155.8141 H   0  0  0  0  0  0  0  0  0  0  0  0  # atno 11005 bound_to 11000
  145.6548  141.0255  143.1741 LP  0  0  0  0  0  0  0  0  0  0  0  0  # atno 17320 bound_to 7965
  144.7179  139.8132  143.7392 LP  0  0  0  0  0  0  0  0  0  0  0  0  # atno 17321 bound_to 7965
  140.5505  144.0433  150.6125 LP  0  0  0  0  0  0  0  0  0  0  0  0  # atno 17342 bound_to 10162
  140.3486  143.2977  152.0512 LP  0  0  0  0  0  0  0  0  0  0  0  0  # atno 17343 bound_to 10162
  157.7300  130.9679  150.1813 LP  0  0  0  0  0  0  0  0  0  0  0  0  # atno 17370 bound_to 10713
  156.2538  130.3703  149.8204 LP  0  0  0  0  0  0  0  0  0  0  0  0  # atno 17371 bound_to 10713
  141.0859  133.9990  157.3313 LP  0  0  0  0  0  0  0  0  0  0  0  0  # atno 17394 bound_to 11000
  139.9224  135.0201  156.8114 LP  0  0  0  0  0  0  0  0  0  0  0  0  # atno 17395 bound_to 11000

$$$$
