AV-unprocessed.smi:3145|AV-procd|sdf|11980|dock4
  -GOLD-   2272017383D 1   1.00000     0.00000
 Structure written by MMmdl.
 35 35  0  0  0  0  0  0  0  0  2 V2000
  143.7464  136.7253  152.5897 C   0  0  0  0  0  0  0  0  0  0  0  0
  145.0276  135.9209  152.3311 C   0  0  1  0  0  0  0  0  0  0  0  0
  145.1400  135.5426  150.8387 C   0  0  0  0  0  0  0  0  0  0  0  0
  145.1416  134.1081  150.6151 N   0  0  0  0  0  0  0  0  0  0  0  0
  144.1985  133.3405  149.9648 C   0  0  0  0  0  0  0  0  0  0  0  0
  144.6256  132.0445  150.0155 C   0  0  0  0  0  0  0  0  0  0  0  0
  145.8577  132.1208  150.7231 C   0  0  0  0  0  0  0  0  0  0  0  0
  146.1632  133.3575  151.0820 N   0  0  0  0  0  0  0  0  0  0  0  0
  146.1995  136.7099  152.7746 N   0  3  0  0  0  0  0  0  0  0  0  0
  146.2497  138.0991  152.2700 C   0  0  0  0  0  0  0  0  0  0  0  0
  147.1858  138.9719  153.1058 C   0  0  0  0  0  0  0  0  0  0  0  0
  146.8052  140.0605  153.5376 O   0  0  0  0  0  0  0  0  0  0  0  0
  148.4087  138.4751  153.3403 N   0  0  0  0  0  0  0  0  0  0  0  0
  149.4362  139.1529  154.1193 C   0  0  0  0  0  0  0  0  0  0  0  0
  150.6521  138.2415  154.3163 C   0  0  0  0  0  0  0  0  0  0  0  0
  151.8474  138.9790  154.7529 C   0  0  0  0  0  0  0  0  0  0  0  0
  152.7876  139.5590  155.0961 N   0  0  0  0  0  0  0  0  0  0  0  0
  142.8614  136.1590  152.2980 H   0  0  0  0  0  0  0  0  0  0  0  0
  143.7424  137.6595  152.0267 H   0  0  0  0  0  0  0  0  0  0  0  0
  143.6427  136.9725  153.6469 H   0  0  0  0  0  0  0  0  0  0  0  0
  144.9629  135.0082  152.9262 H   0  0  0  0  0  0  0  0  0  0  0  0
  144.2997  135.9622  150.2840 H   0  0  0  0  0  0  0  0  0  0  0  0
  146.0427  135.9722  150.4007 H   0  0  0  0  0  0  0  0  0  0  0  0
  143.3112  133.7744  149.5274 H   0  0  0  0  0  0  0  0  0  0  0  0
  144.1339  131.1742  149.6065 H   0  0  0  0  0  0  0  0  0  0  0  0
  146.5335  131.3199  150.9854 H   0  0  0  0  0  0  0  0  0  0  0  0
  146.2129  136.7270  153.7845 H   0  0  0  0  0  0  0  0  0  0  0  0
  146.5994  138.0958  151.2371 H   0  0  0  0  0  0  0  0  0  0  0  0
  145.2511  138.5362  152.2708 H   0  0  0  0  0  0  0  0  0  0  0  0
  148.6444  137.5720  152.9542 H   0  0  0  0  0  0  0  0  0  0  0  0
  149.7391  140.0697  153.6110 H   0  0  0  0  0  0  0  0  0  0  0  0
  149.0242  139.4405  155.0877 H   0  0  0  0  0  0  0  0  0  0  0  0
  150.4403  137.4775  155.0646 H   0  0  0  0  0  0  0  0  0  0  0  0
  150.8993  137.7281  153.3868 H   0  0  0  0  0  0  0  0  0  0  0  0
  147.0370  136.2449  152.4543 H   0  0  0  0  0  0  0  0  0  0  0  0
  1  2  1  0  0  0  0
  1 18  1  0  0  0  0
  1 19  1  0  0  0  0
  1 20  1  0  0  0  0
  2  3  1  0  0  0  0
  2  9  1  0  0  0  0
  2 21  1  0  0  0  0
  3  4  1  0  0  0  0
  3 22  1  0  0  0  0
  3 23  1  0  0  0  0
  4  8  1  0  0  0  0
  4  5  1  0  0  0  0
  5  6  2  0  0  0  0
  5 24  1  0  0  0  0
  6  7  1  0  0  0  0
  6 25  1  0  0  0  0
  7  8  2  0  0  0  0
  7 26  1  0  0  0  0
  9 10  1  0  0  0  0
  9 27  1  0  0  0  0
  9 35  1  0  0  0  0
 10 11  1  0  0  0  0
 10 28  1  0  0  0  0
 10 29  1  0  0  0  0
 11 12  2  0  0  0  0
 11 13  1  0  0  0  0
 13 14  1  0  0  0  0
 13 30  1  0  0  0  0
 14 15  1  0  0  0  0
 14 31  1  0  0  0  0
 14 32  1  0  0  0  0
 15 16  1  0  0  0  0
 15 33  1  0  0  0  0
 15 34  1  0  0  0  0
 16 17  3  0  0  0  0
M  CHG  1   9   1
M  END
> <s_m_source_file>
AV-unprocessed.smi

> <i_m_source_file_index>
3145

> <i_lp_mmshare_version>
43012

> <i_f3d_flags>
0

> <s_epik_input>
bjFbY0hdW2NIXVtjSF1uMVtDSDJdW0NAQEhdKFtDSDNdKVtOSF1bQ0gyXUMoPU8pW05IXVtDSDJdW0NIMl1DI04=

> <s_epik_cmdline>
J2VwaWtfcHl0aG9uJywgJy1waCcsICc3LjAnLCAnLXRuJywgJzgnLCAnLW1hJywgJzIwMCcsICctbWV0YWxfYmluZGluZycsICctaW1hZScsICc8aW5maWxlLm1hZT4nLCAnLW9tYWUnLCAnPG91dGZpbGUubWFlPic=

> <r_lp_tautomer_probability>
1

> <r_epik_Ionization_Penalty>
0.190162

> <r_epik_Ionization_Penalty_Charging>
0.190142

> <r_epik_Ionization_Penalty_Neutral>
2.0165e-05

> <r_epik_State_Penalty>
0.179787

> <r_epik_Charging_Adjusted_Penalty>
0.369929

> <i_epik_Tot_Q>
1

> <i_epik_Tot_abs_Q>
1

> <r_epik_Metal_State_Penalty>
0.191786

> <b_epik_Metal_Only>
0

> <s_lp_Force_Field>
OPLS_2005

> <r_lp_Energy>
4.60732

> <b_lp_Chiralities_Consistent>
1

> <s_lp_Variant>
AV-unprocessed.smi:3145-2

> <Gold.Version>
5.8.1

> <Gold.Id.Protein>
6NUR|6NUR_protein|mol2

> <Gold.PLP.Fitness>
53.4160

> <Gold.PLP.PLP>
-37.4825

> <Gold.PLP.part.hbond>
-5.0000

> <Gold.PLP.part.metal>
0.0000

> <Gold.PLP.part.buried>
-3.2347

> <Gold.PLP.part.nonpolar>
-29.8219

> <Gold.PLP.part.repulsive>
0.4315

> <Gold.PLP.ligand.clash>
0.0000

> <Gold.PLP.ligand.torsion>
1.1053

> <Gold.PLP.Chemscore.Hbond>
4.0000

> <Gold.PLP.Chemscore.CHOScore>
2.0000

> <Gold.PLP.Chemscore.Metal>
0.0000

> <Gold.Chemscore.Hbonds>
donor molecule, donor type, donor heavy atom, donor atom, acceptor molecule, acceptor atom, score
      L1  H     9    35       P1  7948  2.00
      L1  H    13    30       P1  7948  1.00
      P1  H  7997  8008       L1    17  1.00
      L1  C     5    24       P1 10186  1.00
      L1  C     7    26       P1 10747  0.87

> <Gold.PLP.Chemscore.Internal.Correction>
0.1441

> <Gold.Rescore>
     Score         DG    S(hbond)    S(metal)    S(lipo)     H(rot)  DE(clash)    DE(int)     intcor
     14.84     -15.99       2.99        0.00      67.67       2.89       0.16       1.00       ----

> <Gold.Chemscore.Fitness>
14.8377

> <Gold.Chemscore.DG>
-15.9921

> <Gold.Chemscore.ZeroCoef>
-5.4800

> <Gold.Chemscore.Hbond>
2.9916

> <Gold.Chemscore.Metal>
0.0000

> <Gold.Chemscore.Lipo>
67.6676

> <Gold.Chemscore.Internal_Hbond>
0.0000

> <Gold.Chemscore.DEClash>
0.1568

> <Gold.Chemscore.DEInternal>
0.9977

> <Gold.Chemscore.Rot>
2.8894

> <Gold.Chemscore.Internal.Correction>
   9.000000E+99

> <Gold.Chemscore.Hbonds>
donor molecule, donor type, donor heavy atom, donor atom, acceptor molecule, acceptor atom, score
      L1  H     9    35       P1  7948  0.94
      L1  H    13    30       P1  7948  1.00
      P1  H  7997  8008       L1    17  0.99

> <Gold.Chemscore.Hbond.Weighted>
-9.9918

> <Gold.Chemscore.Metal.Weighted>
-0.0000

> <Gold.Chemscore.Lipo.Weighted>
-7.9171

> <Gold.Chemscore.Internal_Hbond.Weighted>
0.0000

> <Gold.Chemscore.DEClash.Weighted>
0.1568

> <Gold.Chemscore.DEInternal.Weighted>
0.9977

> <Gold.Chemscore.Rot.Weighted>
7.3968

> <Gold.Chemscore.Internal.Correction.Weighted>
   9.000000E+99

> <Gold.Protein.RotatedTorsions>
[ 6907 6896 6895 6894 ] final  -58.19 input  -60.11 | X-H torsion
[ 7974 7965 7964 7962 ] final -145.82 input  175.53 | X-H torsion
[ 8008 7997 7996 7995 ] final  -13.49 input   59.86 | X-H torsion
[ 10167 10162 10161 10158 ] final   51.59 input  -65.29 | X-H torsion
[ 10718 10713 10712 10709 ] final  -40.35 input   66.30 | X-H torsion
[ 10763 10752 10751 10750 ] final -171.36 input  -60.55 | X-H torsion
[ 11005 11000 10999 10996 ] final  -35.34 input  -57.11 | X-H torsion

> <Gold.Protein.ActiveResidues>
 VAL166  LYS551  ARG553  GLY616  TRP617  ASP618  TYR619  PRO620  LYS621  CYS622 
 ASP623  PHE694  ASN695  SER759  ASP760  ASP761  ALA762  ILE779  LEU786  VAL792 
 PHE793  MET794  SER795  GLU796  ALA797  LYS798  CYS799  TRP800  GLU811  SER814 

> <Gold.Protein.RotatedAtoms>
  150.8026  134.7130  159.6614 H   0  0  0  0  0  0  0  0  0  0  0  0  # atno 6907 bound_to 6896
  152.4144  134.6064  160.0023 H   0  0  0  0  0  0  0  0  0  0  0  0  # atno 6908 bound_to 6896
  151.6298  133.3296  159.3142 H   0  0  0  0  0  0  0  0  0  0  0  0  # atno 6909 bound_to 6896
  144.8201  140.5535  143.5584 H   0  0  0  0  0  0  0  0  0  0  0  0  # atno 7974 bound_to 7965
  154.5288  140.2248  155.8842 H   0  0  0  0  0  0  0  0  0  0  0  0  # atno 8008 bound_to 7997
  156.1742  140.3115  155.8992 H   0  0  0  0  0  0  0  0  0  0  0  0  # atno 8009 bound_to 7997
  155.3495  140.0455  157.3036 H   0  0  0  0  0  0  0  0  0  0  0  0  # atno 8010 bound_to 7997
  140.2604  144.3380  150.6320 H   0  0  0  0  0  0  0  0  0  0  0  0  # atno 10167 bound_to 10162
  156.2823  130.4218  149.8324 H   0  0  0  0  0  0  0  0  0  0  0  0  # atno 10718 bound_to 10713
  154.6314  135.2887  155.0212 H   0  0  0  0  0  0  0  0  0  0  0  0  # atno 10763 bound_to 10752
  154.1371  135.6524  153.4938 H   0  0  0  0  0  0  0  0  0  0  0  0  # atno 10764 bound_to 10752
  153.0281  135.5324  154.7143 H   0  0  0  0  0  0  0  0  0  0  0  0  # atno 10765 bound_to 10752
  140.9788  133.7068  156.1649 H   0  0  0  0  0  0  0  0  0  0  0  0  # atno 11005 bound_to 11000
  145.5124  139.1479  143.3597 LP  0  0  0  0  0  0  0  0  0  0  0  0  # atno 17320 bound_to 7965
  146.2506  140.5265  142.8895 LP  0  0  0  0  0  0  0  0  0  0  0  0  # atno 17321 bound_to 7965
  140.5971  143.2167  151.7144 LP  0  0  0  0  0  0  0  0  0  0  0  0  # atno 17342 bound_to 10162
  139.5018  144.3851  152.0337 LP  0  0  0  0  0  0  0  0  0  0  0  0  # atno 17343 bound_to 10162
  156.5766  130.8448  151.3371 LP  0  0  0  0  0  0  0  0  0  0  0  0  # atno 17370 bound_to 10713
  157.7318  130.9706  150.1898 LP  0  0  0  0  0  0  0  0  0  0  0  0  # atno 17371 bound_to 10713
  140.7217  134.4351  157.5574 LP  0  0  0  0  0  0  0  0  0  0  0  0  # atno 17394 bound_to 11000
  139.8942  134.8713  156.2190 LP  0  0  0  0  0  0  0  0  0  0  0  0  # atno 17395 bound_to 11000

$$$$
