AV-unprocessed.smi:1684|AV-procd|sdf|6754|dock2
  -GOLD-   22720 7513D 1   1.00000     0.00000
 Structure written by MMmdl.
 42 43  0  0  0  0  0  0  0  0  1 V2000
  148.3332  144.7917  160.3180 C   0  0  0  0  0  0  0  0  0  0  0  0
  146.9833  144.1404  160.5711 C   0  0  0  0  0  0  0  0  0  0  0  0
  146.3441  144.3377  161.8137 C   0  0  0  0  0  0  0  0  0  0  0  0
  145.0969  143.7337  162.0470 C   0  0  0  0  0  0  0  0  0  0  0  0
  144.5385  142.9518  161.0213 C   0  0  0  0  0  0  0  0  0  0  0  0
  145.1420  142.7585  159.8309 N   0  0  0  0  0  0  0  0  0  0  0  0
  146.3462  143.3351  159.5890 C   0  0  0  0  0  0  0  0  0  0  0  0
  147.0381  143.1801  158.3547 N   0  0  0  0  0  0  0  0  0  0  0  0
  147.2705  142.0521  157.6609 C   0  0  0  0  0  0  0  0  0  0  0  0
  146.9253  140.9210  158.0042 O   0  0  0  0  0  0  0  0  0  0  0  0
  147.9463  142.3132  156.5317 N   0  0  0  0  0  0  0  0  0  0  0  0
  148.4116  141.3214  155.5632 C   0  0  1  0  0  0  0  0  0  0  0  0
  147.4559  141.2965  154.3627 C   0  0  0  0  0  0  0  0  0  0  0  0
  149.8557  141.6464  155.1269 C   0  0  0  0  0  0  0  0  0  0  0  0
  150.7242  140.4901  154.8986 N   0  0  0  0  0  0  0  0  0  0  0  0
  151.4839  140.1082  156.0873 C   0  0  0  0  0  0  0  0  0  0  0  0
  152.3749  138.8811  155.8270 C   0  0  0  0  0  0  0  0  0  0  0  0
  151.5756  137.7977  155.3632 O   0  0  0  0  0  0  0  0  0  0  0  0
  150.8535  138.1165  154.1782 C   0  0  0  0  0  0  0  0  0  0  0  0
  149.9565  139.3397  154.4352 C   0  0  0  0  0  0  0  0  0  0  0  0
  148.6639  145.3690  161.1817 H   0  0  0  0  0  0  0  0  0  0  0  0
  148.2771  145.4677  159.4643 H   0  0  0  0  0  0  0  0  0  0  0  0
  149.0894  144.0337  160.1120 H   0  0  0  0  0  0  0  0  0  0  0  0
  146.8021  144.9445  162.5811 H   0  0  0  0  0  0  0  0  0  0  0  0
  144.5820  143.8656  162.9872 H   0  0  0  0  0  0  0  0  0  0  0  0
  143.5822  142.4693  161.1589 H   0  0  0  0  0  0  0  0  0  0  0  0
  147.3998  144.0324  157.9537 H   0  0  0  0  0  0  0  0  0  0  0  0
  148.1869  143.2743  156.3390 H   0  0  0  0  0  0  0  0  0  0  0  0
  148.3927  140.3226  156.0000 H   0  0  0  0  0  0  0  0  0  0  0  0
  147.7645  140.5476  153.6328 H   0  0  0  0  0  0  0  0  0  0  0  0
  147.4255  142.2617  153.8563 H   0  0  0  0  0  0  0  0  0  0  0  0
  146.4401  141.0516  154.6751 H   0  0  0  0  0  0  0  0  0  0  0  0
  149.8306  142.2650  154.2283 H   0  0  0  0  0  0  0  0  0  0  0  0
  150.3034  142.2703  155.9020 H   0  0  0  0  0  0  0  0  0  0  0  0
  152.1176  140.9316  156.4144 H   0  0  0  0  0  0  0  0  0  0  0  0
  150.8011  139.8912  156.9100 H   0  0  0  0  0  0  0  0  0  0  0  0
  153.1465  139.1146  155.0918 H   0  0  0  0  0  0  0  0  0  0  0  0
  152.8850  138.5818  156.7429 H   0  0  0  0  0  0  0  0  0  0  0  0
  151.5494  138.3122  153.3609 H   0  0  0  0  0  0  0  0  0  0  0  0
  150.2486  137.2578  153.8867 H   0  0  0  0  0  0  0  0  0  0  0  0
  149.1959  139.0803  155.1734 H   0  0  0  0  0  0  0  0  0  0  0  0
  149.4254  139.5944  153.5173 H   0  0  0  0  0  0  0  0  0  0  0  0
  1  2  1  0  0  0  0
  1 21  1  0  0  0  0
  1 22  1  0  0  0  0
  1 23  1  0  0  0  0
  2  7  1  0  0  0  0
  2  3  2  0  0  0  0
  3  4  1  0  0  0  0
  3 24  1  0  0  0  0
  4  5  2  0  0  0  0
  4 25  1  0  0  0  0
  5  6  1  0  0  0  0
  5 26  1  0  0  0  0
  6  7  2  0  0  0  0
  7  8  1  0  0  0  0
  8  9  1  0  0  0  0
  8 27  1  0  0  0  0
  9 10  2  0  0  0  0
  9 11  1  0  0  0  0
 11 12  1  0  0  0  0
 11 28  1  0  0  0  0
 12 13  1  0  0  0  0
 12 14  1  0  0  0  0
 12 29  1  0  0  0  0
 13 30  1  0  0  0  0
 13 31  1  0  0  0  0
 13 32  1  0  0  0  0
 14 15  1  0  0  0  0
 14 33  1  0  0  0  0
 14 34  1  0  0  0  0
 15 20  1  0  0  0  0
 15 16  1  0  0  0  0
 16 17  1  0  0  0  0
 16 35  1  0  0  0  0
 16 36  1  0  0  0  0
 17 18  1  0  0  0  0
 17 37  1  0  0  0  0
 17 38  1  0  0  0  0
 18 19  1  0  0  0  0
 19 20  1  0  0  0  0
 19 39  1  0  0  0  0
 19 40  1  0  0  0  0
 20 41  1  0  0  0  0
 20 42  1  0  0  0  0
M  END
> <s_m_source_file>
AV-unprocessed.smi

> <i_m_source_file_index>
1684

> <i_lp_mmshare_version>
43012

> <i_f3d_flags>
0

> <s_epik_input>
W0NIM11jMVtjSF1bY0hdW2NIXW5jMVtOSF1DKD1PKVtOSF1bQ0BIXShbQ0gzXSlbQ0gyXU4yW0NIMl1bQ0gyXU9bQ0gyXVtDSDJdMg==

> <s_epik_cmdline>
J2VwaWtfcHl0aG9uJywgJy1waCcsICc3LjAnLCAnLXRuJywgJzgnLCAnLW1hJywgJzIwMCcsICctbWV0YWxfYmluZGluZycsICctaW1hZScsICc8aW5maWxlLm1hZT4nLCAnLW9tYWUnLCAnPG91dGZpbGUubWFlPic=

> <r_epik_Ionization_Penalty>
0.26605

> <r_epik_Ionization_Penalty_Charging>
0

> <r_epik_Ionization_Penalty_Neutral>
0.26605

> <r_epik_State_Penalty>
0.257924

> <r_epik_Charging_Adjusted_Penalty>
0.257924

> <i_epik_Tot_Q>
0

> <i_epik_Tot_abs_Q>
0

> <r_epik_Metal_State_Penalty>
0.257922

> <b_epik_Metal_Only>
0

> <s_lp_Force_Field>
OPLS_2005

> <r_lp_Energy>
28.5554

> <b_lp_Chiralities_Consistent>
1

> <s_lp_Variant>
AV-unprocessed.smi:1684-2

> <Gold.Version>
5.8.1

> <Gold.Id.Protein>
6NUR|6NUR_protein|mol2

> <Gold.PLP.Fitness>
42.2911

> <Gold.PLP.PLP>
-36.9896

> <Gold.PLP.part.hbond>
-3.3877

> <Gold.PLP.part.metal>
0.0000

> <Gold.PLP.part.buried>
-4.8879

> <Gold.PLP.part.nonpolar>
-28.7779

> <Gold.PLP.part.repulsive>
0.2375

> <Gold.PLP.ligand.clash>
0.0000

> <Gold.PLP.ligand.torsion>
1.5233

> <Gold.PLP.Chemscore.Hbond>
2.7597

> <Gold.PLP.Chemscore.CHOScore>
0.0000

> <Gold.PLP.Chemscore.Metal>
0.0000

> <Gold.Chemscore.Hbonds>
donor molecule, donor type, donor heavy atom, donor atom, acceptor molecule, acceptor atom, score
      L1  H     8    27       P1  8029  0.76
      L1  H    11    28       P1  8028  1.00
      P1  H  7989  7998       L1    15  1.00

> <Gold.PLP.Chemscore.Internal.Correction>
0.0689

> <Gold.Rescore>
     Score         DG    S(hbond)    S(metal)    S(lipo)     H(rot)  DE(clash)    DE(int)     intcor
     12.65     -14.51       1.06        0.00      78.96       1.46       0.27       1.59       ----

> <Gold.Chemscore.Fitness>
12.6510

> <Gold.Chemscore.DG>
-14.5128

> <Gold.Chemscore.ZeroCoef>
-5.4800

> <Gold.Chemscore.Hbond>
1.0561

> <Gold.Chemscore.Metal>
0.0000

> <Gold.Chemscore.Lipo>
78.9577

> <Gold.Chemscore.Internal_Hbond>
0.0000

> <Gold.Chemscore.DEClash>
0.2688

> <Gold.Chemscore.DEInternal>
1.5930

> <Gold.Chemscore.Rot>
1.4581

> <Gold.Chemscore.Internal.Correction>
   9.000000E+99

> <Gold.Chemscore.Hbonds>
donor molecule, donor type, donor heavy atom, donor atom, acceptor molecule, acceptor atom, score
      L1  H     8    27       P1  8029  0.13
      L1  H    11    28       P1  8028  0.40
      P1  H  7989  7998       L1    15  0.16

> <Gold.Chemscore.Hbond.Weighted>
-3.5275

> <Gold.Chemscore.Metal.Weighted>
-0.0000

> <Gold.Chemscore.Lipo.Weighted>
-9.2381

> <Gold.Chemscore.Internal_Hbond.Weighted>
0.0000

> <Gold.Chemscore.DEClash.Weighted>
0.2688

> <Gold.Chemscore.DEInternal.Weighted>
1.5930

> <Gold.Chemscore.Rot.Weighted>
3.7327

> <Gold.Chemscore.Internal.Correction.Weighted>
   9.000000E+99

> <Gold.Protein.RotatedTorsions>
[ 6907 6896 6895 6894 ] final -170.96 input  -60.11 | X-H torsion
[ 7974 7965 7964 7962 ] final   25.71 input  175.53 | X-H torsion
[ 8008 7997 7996 7995 ] final  130.91 input   59.86 | X-H torsion
[ 10167 10162 10161 10158 ] final   72.79 input  -65.29 | X-H torsion
[ 10718 10713 10712 10709 ] final   15.74 input   66.30 | X-H torsion
[ 10763 10752 10751 10750 ] final   37.72 input  -60.55 | X-H torsion
[ 11005 11000 10999 10996 ] final  -98.15 input  -57.11 | X-H torsion

> <Gold.Protein.ActiveResidues>
 VAL166  LYS551  ARG553  GLY616  TRP617  ASP618  TYR619  PRO620  LYS621  CYS622 
 ASP623  PHE694  ASN695  SER759  ASP760  ASP761  ALA762  ILE779  LEU786  VAL792 
 PHE793  MET794  SER795  GLU796  ALA797  LYS798  CYS799  TRP800  GLU811  SER814 

> <Gold.Protein.RotatedAtoms>
  151.5161  133.3475  159.2893 H   0  0  0  0  0  0  0  0  0  0  0  0  # atno 6907 bound_to 6896
  150.8681  134.8052  159.7145 H   0  0  0  0  0  0  0  0  0  0  0  0  # atno 6908 bound_to 6896
  152.4679  134.5041  159.9785 H   0  0  0  0  0  0  0  0  0  0  0  0  # atno 6909 bound_to 6896
  146.1875  139.7428  142.8856 H   0  0  0  0  0  0  0  0  0  0  0  0  # atno 7974 bound_to 7965
  156.2962  140.2584  156.2840 H   0  0  0  0  0  0  0  0  0  0  0  0  # atno 8008 bound_to 7997
  154.9574  140.0393  157.2192 H   0  0  0  0  0  0  0  0  0  0  0  0  # atno 8009 bound_to 7997
  154.7978  140.2823  155.5948 H   0  0  0  0  0  0  0  0  0  0  0  0  # atno 8010 bound_to 7997
  140.0315  144.5462  150.7504 H   0  0  0  0  0  0  0  0  0  0  0  0  # atno 10167 bound_to 10162
  157.0578  130.6296  149.5780 H   0  0  0  0  0  0  0  0  0  0  0  0  # atno 10718 bound_to 10713
  153.0027  135.6270  154.2189 H   0  0  0  0  0  0  0  0  0  0  0  0  # atno 10763 bound_to 10752
  154.1932  135.2807  155.3017 H   0  0  0  0  0  0  0  0  0  0  0  0  # atno 10764 bound_to 10752
  154.5743  135.5667  153.7183 H   0  0  0  0  0  0  0  0  0  0  0  0  # atno 10765 bound_to 10752
  141.1354  133.8224  157.0802 H   0  0  0  0  0  0  0  0  0  0  0  0  # atno 11005 bound_to 11000
  145.3895  141.0370  143.3132 LP  0  0  0  0  0  0  0  0  0  0  0  0  # atno 17320 bound_to 7965
  144.8424  139.5451  143.6894 LP  0  0  0  0  0  0  0  0  0  0  0  0  # atno 17321 bound_to 7965
  140.7300  143.2678  151.3985 LP  0  0  0  0  0  0  0  0  0  0  0  0  # atno 17342 bound_to 10162
  139.6073  144.1170  152.2262 LP  0  0  0  0  0  0  0  0  0  0  0  0  # atno 17343 bound_to 10162
  155.9988  130.5062  150.7583 LP  0  0  0  0  0  0  0  0  0  0  0  0  # atno 17370 bound_to 10713
  157.4979  131.0916  151.0349 LP  0  0  0  0  0  0  0  0  0  0  0  0  # atno 17371 bound_to 10713
  140.0456  134.9832  157.1043 LP  0  0  0  0  0  0  0  0  0  0  0  0  # atno 17394 bound_to 11000
  140.4067  134.2024  155.7163 LP  0  0  0  0  0  0  0  0  0  0  0  0  # atno 17395 bound_to 11000

$$$$
