AV-unprocessed.smi:2040|AV-procd|sdf|8287|dock7
  -GOLD-   2272010553D 1   1.00000     0.00000
 Structure written by MMmdl.
 38 39  0  0  0  0  0  0  0  0  1 V2000
  153.5616  141.7128  160.8596 C   0  0  0  0  0  0  0  0  0  0  0  0
  152.7659  142.3333  159.7493 C   0  0  0  0  0  0  0  0  0  0  0  0
  151.6109  141.8096  159.0987 C   0  0  0  0  0  0  0  0  0  0  0  0
  151.3132  142.7827  158.1841 C   0  0  0  0  0  0  0  0  0  0  0  0
  150.3050  142.8196  157.2727 N   0  0  0  0  0  0  0  0  0  0  0  0
  149.5269  141.8117  156.8412 C   0  0  0  0  0  0  0  0  0  0  0  0
  149.5963  140.6428  157.2214 O   0  0  0  0  0  0  0  0  0  0  0  0
  148.6397  142.2415  155.9321 N   0  0  0  0  0  0  0  0  0  0  0  0
  147.6515  141.4062  155.2541 C   0  0  1  0  0  0  0  0  0  0  0  0
  146.6325  142.2998  154.5254 C   0  0  0  0  0  0  0  0  0  0  0  0
  148.3768  140.4461  154.2920 C   0  0  2  0  0  0  0  0  0  0  0  0
  147.4567  139.5000  153.5148 C   0  0  0  0  0  0  0  0  0  0  0  0
  148.3120  138.2644  153.2719 C   0  0  0  0  0  0  0  0  0  0  0  0
  149.5660  138.5048  154.1142 C   0  0  0  0  0  0  0  0  0  0  0  0
  149.1990  139.5402  155.0126 O   0  0  0  0  0  0  0  0  0  0  0  0
  152.2383  143.7968  158.2964 N   0  0  0  0  0  0  0  0  0  0  0  0
  152.3440  145.0338  157.5475 C   0  0  0  0  0  0  0  0  0  0  0  0
  153.1333  143.5157  159.2681 N   0  0  0  0  0  0  0  0  0  0  0  0
  153.2005  140.7104  161.0904 H   0  0  0  0  0  0  0  0  0  0  0  0
  153.4934  142.3077  161.7707 H   0  0  0  0  0  0  0  0  0  0  0  0
  154.6152  141.6312  160.5910 H   0  0  0  0  0  0  0  0  0  0  0  0
  151.1044  140.8749  159.2858 H   0  0  0  0  0  0  0  0  0  0  0  0
  150.1116  143.7296  156.8813 H   0  0  0  0  0  0  0  0  0  0  0  0
  148.6574  143.2175  155.6753 H   0  0  0  0  0  0  0  0  0  0  0  0
  147.1219  140.8072  155.9974 H   0  0  0  0  0  0  0  0  0  0  0  0
  145.8584  141.7056  154.0398 H   0  0  0  0  0  0  0  0  0  0  0  0
  147.1149  142.9076  153.7592 H   0  0  0  0  0  0  0  0  0  0  0  0
  146.1314  142.9756  155.2191 H   0  0  0  0  0  0  0  0  0  0  0  0
  149.0031  141.0065  153.5944 H   0  0  0  0  0  0  0  0  0  0  0  0
  146.5903  139.2277  154.1193 H   0  0  0  0  0  0  0  0  0  0  0  0
  147.0905  139.9461  152.5896 H   0  0  0  0  0  0  0  0  0  0  0  0
  147.7842  137.3677  153.5989 H   0  0  0  0  0  0  0  0  0  0  0  0
  148.5643  138.1400  152.2183 H   0  0  0  0  0  0  0  0  0  0  0  0
  149.8934  137.6118  154.6467 H   0  0  0  0  0  0  0  0  0  0  0  0
  150.3898  138.8498  153.4875 H   0  0  0  0  0  0  0  0  0  0  0  0
  151.4422  145.6286  157.6936 H   0  0  0  0  0  0  0  0  0  0  0  0
  152.4567  144.8107  156.4863 H   0  0  0  0  0  0  0  0  0  0  0  0
  153.2070  145.6120  157.8802 H   0  0  0  0  0  0  0  0  0  0  0  0
  1  2  1  0  0  0  0
  1 19  1  0  0  0  0
  1 20  1  0  0  0  0
  1 21  1  0  0  0  0
  2 18  2  0  0  0  0
  2  3  1  0  0  0  0
  3  4  2  0  0  0  0
  3 22  1  0  0  0  0
  4  5  1  0  0  0  0
  4 16  1  0  0  0  0
  5  6  1  0  0  0  0
  5 23  1  0  0  0  0
  6  7  2  0  0  0  0
  6  8  1  0  0  0  0
  8  9  1  0  0  0  0
  8 24  1  0  0  0  0
  9 10  1  0  0  0  0
  9 11  1  0  0  0  0
  9 25  1  0  0  0  0
 10 26  1  0  0  0  0
 10 27  1  0  0  0  0
 10 28  1  0  0  0  0
 11 15  1  0  0  0  0
 11 12  1  0  0  0  0
 11 29  1  0  0  0  0
 12 13  1  0  0  0  0
 12 30  1  0  0  0  0
 12 31  1  0  0  0  0
 13 14  1  0  0  0  0
 13 32  1  0  0  0  0
 13 33  1  0  0  0  0
 14 15  1  0  0  0  0
 14 34  1  0  0  0  0
 14 35  1  0  0  0  0
 16 17  1  0  0  0  0
 16 18  1  0  0  0  0
 17 36  1  0  0  0  0
 17 37  1  0  0  0  0
 17 38  1  0  0  0  0
M  END
> <s_m_source_file>
AV-unprocessed.smi

> <i_m_source_file_index>
2040

> <i_lp_mmshare_version>
43012

> <i_f3d_flags>
0

> <s_epik_input>
W0NIM11jMVtjSF1jKG4objEpW0NIM10pW05IXUMoPU8pW05IXVtDQEhdKFtDSDNdKVtDQEBIXTJbQ0gyXVtDSDJdW0NIMl1PMg==

> <s_epik_cmdline>
J2VwaWtfcHl0aG9uJywgJy1waCcsICc3LjAnLCAnLXRuJywgJzgnLCAnLW1hJywgJzIwMCcsICctbWV0YWxfYmluZGluZycsICctaW1hZScsICc8aW5maWxlLm1hZT4nLCAnLW9tYWUnLCAnPG91dGZpbGUubWFlPic=

> <r_lp_tautomer_probability>
1

> <r_epik_Ionization_Penalty>
9.09088e-05

> <r_epik_Ionization_Penalty_Charging>
0

> <r_epik_Ionization_Penalty_Neutral>
9.09088e-05

> <r_epik_State_Penalty>
-0

> <r_epik_Charging_Adjusted_Penalty>
0

> <i_epik_Tot_Q>
0

> <i_epik_Tot_abs_Q>
0

> <r_epik_Metal_State_Penalty>
-0

> <b_epik_Metal_Only>
0

> <s_lp_Force_Field>
OPLS_2005

> <r_lp_Energy>
19.5884

> <b_lp_Chiralities_Consistent>
1

> <s_lp_Variant>
AV-unprocessed.smi:2040-2

> <Gold.Version>
5.8.1

> <Gold.Id.Protein>
6NUR|6NUR_protein|mol2

> <Gold.PLP.Fitness>
36.1436

> <Gold.PLP.PLP>
-30.9120

> <Gold.PLP.part.hbond>
-1.8951

> <Gold.PLP.part.metal>
0.0000

> <Gold.PLP.part.buried>
1.2292

> <Gold.PLP.part.nonpolar>
-31.1486

> <Gold.PLP.part.repulsive>
0.2012

> <Gold.PLP.ligand.clash>
0.0000

> <Gold.PLP.ligand.torsion>
0.1777

> <Gold.PLP.Chemscore.Hbond>
1.8548

> <Gold.PLP.Chemscore.CHOScore>
0.0000

> <Gold.PLP.Chemscore.Metal>
0.0000

> <Gold.Chemscore.Hbonds>
donor molecule, donor type, donor heavy atom, donor atom, acceptor molecule, acceptor atom, score
      L1  H     5    23       P1  8028  0.90
      L1  H     8    24       P1  8028  0.96

> <Gold.PLP.Chemscore.Internal.Correction>
0.0228

> <Gold.Rescore>
     Score         DG    S(hbond)    S(metal)    S(lipo)     H(rot)  DE(clash)    DE(int)     intcor
     10.80     -18.15       1.92        0.00      80.52       1.23       3.30       4.05       ----

> <Gold.Chemscore.Fitness>
10.7952

> <Gold.Chemscore.DG>
-18.1468

> <Gold.Chemscore.ZeroCoef>
-5.4800

> <Gold.Chemscore.Hbond>
1.9173

> <Gold.Chemscore.Metal>
0.0000

> <Gold.Chemscore.Lipo>
80.5243

> <Gold.Chemscore.Internal_Hbond>
0.0000

> <Gold.Chemscore.DEClash>
3.2970

> <Gold.Chemscore.DEInternal>
4.0545

> <Gold.Chemscore.Rot>
1.2338

> <Gold.Chemscore.Internal.Correction>
   9.000000E+99

> <Gold.Chemscore.Hbonds>
donor molecule, donor type, donor heavy atom, donor atom, acceptor molecule, acceptor atom, score
      L1  H     5    23       P1  8028  0.85
      L1  H     8    24       P1  8028  0.90

> <Gold.Chemscore.Hbond.Weighted>
-6.4038

> <Gold.Chemscore.Metal.Weighted>
-0.0000

> <Gold.Chemscore.Lipo.Weighted>
-9.4213

> <Gold.Chemscore.Internal_Hbond.Weighted>
0.0000

> <Gold.Chemscore.DEClash.Weighted>
3.2970

> <Gold.Chemscore.DEInternal.Weighted>
4.0545

> <Gold.Chemscore.Rot.Weighted>
3.1584

> <Gold.Chemscore.Internal.Correction.Weighted>
   9.000000E+99

> <Gold.Protein.RotatedTorsions>
[ 6907 6896 6895 6894 ] final    0.68 input  -60.11 | X-H torsion
[ 7974 7965 7964 7962 ] final -156.45 input  175.53 | X-H torsion
[ 8008 7997 7996 7995 ] final  -14.89 input   59.86 | X-H torsion
[ 10167 10162 10161 10158 ] final  -45.87 input  -65.29 | X-H torsion
[ 10718 10713 10712 10709 ] final -136.61 input   66.30 | X-H torsion
[ 10763 10752 10751 10750 ] final   22.77 input  -60.55 | X-H torsion
[ 11005 11000 10999 10996 ] final  112.10 input  -57.11 | X-H torsion

> <Gold.Protein.ActiveResidues>
 VAL166  LYS551  ARG553  GLY616  TRP617  ASP618  TYR619  PRO620  LYS621  CYS622 
 ASP623  PHE694  ASN695  SER759  ASP760  ASP761  ALA762  ILE779  LEU786  VAL792 
 PHE793  MET794  SER795  GLU796  ALA797  LYS798  CYS799  TRP800  GLU811  SER814 

> <Gold.Protein.RotatedAtoms>
  151.5804  135.1058  160.0015 H   0  0  0  0  0  0  0  0  0  0  0  0  # atno 6907 bound_to 6896
  152.4357  133.7352  159.6620 H   0  0  0  0  0  0  0  0  0  0  0  0  # atno 6908 bound_to 6896
  150.8254  133.8111  159.3144 H   0  0  0  0  0  0  0  0  0  0  0  0  # atno 6909 bound_to 6896
  144.7592  140.4107  143.5989 H   0  0  0  0  0  0  0  0  0  0  0  0  # atno 7974 bound_to 7965
  154.5174  140.2211  155.9040 H   0  0  0  0  0  0  0  0  0  0  0  0  # atno 8008 bound_to 7997
  156.1623  140.3139  155.8794 H   0  0  0  0  0  0  0  0  0  0  0  0  # atno 8009 bound_to 7997
  155.3726  140.0467  157.3036 H   0  0  0  0  0  0  0  0  0  0  0  0  # atno 8010 bound_to 7997
  140.6841  143.2858  151.3700 H   0  0  0  0  0  0  0  0  0  0  0  0  # atno 10167 bound_to 10162
  156.2789  130.7309  151.1300 H   0  0  0  0  0  0  0  0  0  0  0  0  # atno 10718 bound_to 10713
  153.0889  135.6641  153.9892 H   0  0  0  0  0  0  0  0  0  0  0  0  # atno 10763 bound_to 10752
  153.9494  135.2985  155.3440 H   0  0  0  0  0  0  0  0  0  0  0  0  # atno 10764 bound_to 10752
  154.7301  135.5126  153.9023 H   0  0  0  0  0  0  0  0  0  0  0  0  # atno 10765 bound_to 10752
  139.8919  134.9522  156.6533 H   0  0  0  0  0  0  0  0  0  0  0  0  # atno 11005 bound_to 11000
  145.6675  139.1593  143.2773 LP  0  0  0  0  0  0  0  0  0  0  0  0  # atno 17320 bound_to 7965
  146.1637  140.6750  142.9265 LP  0  0  0  0  0  0  0  0  0  0  0  0  # atno 17321 bound_to 7965
  139.6185  144.0955  152.2368 LP  0  0  0  0  0  0  0  0  0  0  0  0  # atno 17342 bound_to 10162
  140.0391  144.6021  150.7425 LP  0  0  0  0  0  0  0  0  0  0  0  0  # atno 17343 bound_to 10162
  157.7308  131.0613  150.5708 LP  0  0  0  0  0  0  0  0  0  0  0  0  # atno 17370 bound_to 10713
  156.5812  130.4305  149.5976 LP  0  0  0  0  0  0  0  0  0  0  0  0  # atno 17371 bound_to 10713
  140.7503  133.8903  155.8342 LP  0  0  0  0  0  0  0  0  0  0  0  0  # atno 17394 bound_to 11000
  141.0006  134.1156  157.4321 LP  0  0  0  0  0  0  0  0  0  0  0  0  # atno 17395 bound_to 11000

$$$$
