AV-unprocessed.smi:2772|AV-procd|sdf|10668|dock2
  -GOLD-   2272015113D 1   1.00000     0.00000
 Structure written by MMmdl.
 54 56  0  0  0  0  0  0  0  0  2 V2000
  152.5360  143.1583  162.9423 C   0  0  0  0  0  0  0  0  0  0  0  0
  152.2897  143.1518  161.4480 C   0  0  0  0  0  0  0  0  0  0  0  0
  152.3309  144.3473  160.7014 C   0  0  0  0  0  0  0  0  0  0  0  0
  152.0910  144.2842  159.3153 C   0  0  0  0  0  0  0  0  0  0  0  0
  151.8097  143.0279  158.7266 C   0  0  0  0  0  0  0  0  0  0  0  0
  151.5691  142.8342  157.3399 N   0  0  0  0  0  0  0  0  0  0  0  0
  150.6646  142.0296  156.7564 C   0  0  0  0  0  0  0  0  0  0  0  0
  149.8871  141.2832  157.3513 O   0  0  0  0  0  0  0  0  0  0  0  0
  150.7238  142.1231  155.4205 N   0  0  0  0  0  0  0  0  0  0  0  0
  149.8929  141.3684  154.4871 C   0  0  0  0  0  0  0  0  0  0  0  0
  148.4258  141.7740  154.6452 C   0  0  0  0  0  0  0  0  0  0  0  0
  147.5117  140.9141  153.7553 C   0  0  0  0  0  0  0  0  0  0  0  0
  147.6246  139.4795  154.0720 N   0  0  0  0  0  0  0  0  0  0  0  0
  146.6920  138.6641  153.2600 C   0  0  2  0  0  0  0  0  0  0  0  0
  146.4643  137.2590  153.8826 C   0  0  0  0  0  0  0  0  0  0  0  0
  145.6134  136.3397  152.9921 C   0  0  0  0  0  0  0  0  0  0  0  0
  146.2143  136.1945  151.6484 N   0  3  1  0  0  0  0  0  0  0  0  0
  145.4981  135.2066  150.8129 C   0  0  0  0  0  0  0  0  0  0  0  0
  146.3508  137.5084  150.9825 C   0  0  0  0  0  0  0  0  0  0  0  0
  147.2240  138.4617  151.8142 C   0  0  0  0  0  0  0  0  0  0  0  0
  149.0240  139.0754  153.8501 C   0  0  0  0  0  0  0  0  0  0  0  0
  150.0000  139.8604  154.7433 C   0  0  0  0  0  0  0  0  0  0  0  0
  151.8107  141.8935  159.5653 C   0  0  0  0  0  0  0  0  0  0  0  0
  152.0390  141.9455  160.8949 N   0  0  0  0  0  0  0  0  0  0  0  0
  152.6893  144.1719  163.3139 H   0  0  0  0  0  0  0  0  0  0  0  0
  153.4218  142.5701  163.1830 H   0  0  0  0  0  0  0  0  0  0  0  0
  151.6837  142.7291  163.4698 H   0  0  0  0  0  0  0  0  0  0  0  0
  152.5454  145.2937  161.1756 H   0  0  0  0  0  0  0  0  0  0  0  0
  152.1411  145.1916  158.7336 H   0  0  0  0  0  0  0  0  0  0  0  0
  152.1987  143.3209  156.7187 H   0  0  0  0  0  0  0  0  0  0  0  0
  151.3968  142.7590  155.0183 H   0  0  0  0  0  0  0  0  0  0  0  0
  150.2070  141.5867  153.4644 H   0  0  0  0  0  0  0  0  0  0  0  0
  148.1172  141.6699  155.6868 H   0  0  0  0  0  0  0  0  0  0  0  0
  148.3016  142.8270  154.3898 H   0  0  0  0  0  0  0  0  0  0  0  0
  146.5013  141.2756  153.9295 H   0  0  0  0  0  0  0  0  0  0  0  0
  147.7381  141.0841  152.7014 H   0  0  0  0  0  0  0  0  0  0  0  0
  145.7320  139.1807  153.2100 H   0  0  0  0  0  0  0  0  0  0  0  0
  147.4254  136.7819  154.0816 H   0  0  0  0  0  0  0  0  0  0  0  0
  145.9427  137.3264  154.8358 H   0  0  0  0  0  0  0  0  0  0  0  0
  145.5283  135.3588  153.4617 H   0  0  0  0  0  0  0  0  0  0  0  0
  144.6009  136.7365  152.9008 H   0  0  0  0  0  0  0  0  0  0  0  0
  144.4720  135.5244  150.6223 H   0  0  0  0  0  0  0  0  0  0  0  0
  145.4690  134.2346  151.3065 H   0  0  0  0  0  0  0  0  0  0  0  0
  146.0001  135.0764  149.8538 H   0  0  0  0  0  0  0  0  0  0  0  0
  146.7996  137.3732  149.9976 H   0  0  0  0  0  0  0  0  0  0  0  0
  145.3633  137.9446  150.8232 H   0  0  0  0  0  0  0  0  0  0  0  0
  147.2571  139.4011  151.2654 H   0  0  0  0  0  0  0  0  0  0  0  0
  148.2461  138.0807  151.8464 H   0  0  0  0  0  0  0  0  0  0  0  0
  149.1743  138.0263  154.0926 H   0  0  0  0  0  0  0  0  0  0  0  0
  149.2872  139.2030  152.7988 H   0  0  0  0  0  0  0  0  0  0  0  0
  151.0185  139.5190  154.5551 H   0  0  0  0  0  0  0  0  0  0  0  0
  149.7893  139.6411  155.7914 H   0  0  0  0  0  0  0  0  0  0  0  0
  151.6169  140.9114  159.1593 H   0  0  0  0  0  0  0  0  0  0  0  0
  147.1492  135.8358  151.7826 H   0  0  0  0  0  0  0  0  0  0  0  0
  1  2  1  0  0  0  0
  1 25  1  0  0  0  0
  1 26  1  0  0  0  0
  1 27  1  0  0  0  0
  2 24  1  0  0  0  0
  2  3  2  0  0  0  0
  3  4  1  0  0  0  0
  3 28  1  0  0  0  0
  4  5  2  0  0  0  0
  4 29  1  0  0  0  0
  5  6  1  0  0  0  0
  5 23  1  0  0  0  0
  6  7  1  0  0  0  0
  6 30  1  0  0  0  0
  7  8  2  0  0  0  0
  7  9  1  0  0  0  0
  9 10  1  0  0  0  0
  9 31  1  0  0  0  0
 10 22  1  0  0  0  0
 10 11  1  0  0  0  0
 10 32  1  0  0  0  0
 11 12  1  0  0  0  0
 11 33  1  0  0  0  0
 11 34  1  0  0  0  0
 12 13  1  0  0  0  0
 12 35  1  0  0  0  0
 12 36  1  0  0  0  0
 13 14  1  0  0  0  0
 13 21  1  0  0  0  0
 14 20  1  0  0  0  0
 14 15  1  0  0  0  0
 14 37  1  0  0  0  0
 15 16  1  0  0  0  0
 15 38  1  0  0  0  0
 15 39  1  0  0  0  0
 16 17  1  0  0  0  0
 16 40  1  0  0  0  0
 16 41  1  0  0  0  0
 17 18  1  0  0  0  0
 17 19  1  0  0  0  0
 17 54  1  0  0  0  0
 18 42  1  0  0  0  0
 18 43  1  0  0  0  0
 18 44  1  0  0  0  0
 19 20  1  0  0  0  0
 19 45  1  0  0  0  0
 19 46  1  0  0  0  0
 20 47  1  0  0  0  0
 20 48  1  0  0  0  0
 21 22  1  0  0  0  0
 21 49  1  0  0  0  0
 21 50  1  0  0  0  0
 22 51  1  0  0  0  0
 22 52  1  0  0  0  0
 23 24  2  0  0  0  0
 23 53  1  0  0  0  0
M  CHG  1  17   1
M  END
> <s_m_source_file>
AV-unprocessed.smi

> <i_m_source_file_index>
2772

> <i_lp_mmshare_version>
43012

> <i_f3d_flags>
0

> <s_epik_input>
W0NIM11jMVtjSF1bY0hdYyhbY0hdbjEpW05IXUMoPU8pW05IXVtDSF0yW0NIMl1bQ0gyXU4oW0NIMl1bQ0gyXTIpW0NIXTNbQ0gyXVtDSDJdTihbQ0gzXSlbQ0gyXVtDSDJdMw==

> <s_epik_cmdline>
J2VwaWtfcHl0aG9uJywgJy1waCcsICc3LjAnLCAnLXRuJywgJzgnLCAnLW1hJywgJzIwMCcsICctbWV0YWxfYmluZGluZycsICctaW1hZScsICc8aW5maWxlLm1hZT4nLCAnLW9tYWUnLCAnPG91dGZpbGUubWFlPic=

> <r_epik_Ionization_Penalty>
1.02952

> <r_epik_Ionization_Penalty_Charging>
0.000974969

> <r_epik_Ionization_Penalty_Neutral>
1.02854

> <r_epik_State_Penalty>
1.11259

> <r_epik_Charging_Adjusted_Penalty>
1.11356

> <i_epik_Tot_Q>
1

> <i_epik_Tot_abs_Q>
1

> <r_epik_Metal_State_Penalty>
1.1091

> <b_epik_Metal_Only>
0

> <s_lp_Force_Field>
OPLS_2005

> <r_lp_Energy>
33.5329

> <b_lp_Chiralities_Consistent>
1

> <s_lp_Variant>
AV-unprocessed.smi:2772-5

> <Gold.Version>
5.8.1

> <Gold.Id.Protein>
6NUR|6NUR_protein|mol2

> <Gold.PLP.Fitness>
50.4441

> <Gold.PLP.PLP>
-45.7420

> <Gold.PLP.part.hbond>
-2.1787

> <Gold.PLP.part.metal>
0.0000

> <Gold.PLP.part.buried>
3.3448

> <Gold.PLP.part.nonpolar>
-45.8508

> <Gold.PLP.part.repulsive>
0.4424

> <Gold.PLP.ligand.clash>
0.0000

> <Gold.PLP.ligand.torsion>
0.6508

> <Gold.PLP.Chemscore.Hbond>
2.0000

> <Gold.PLP.Chemscore.CHOScore>
0.0000

> <Gold.PLP.Chemscore.Metal>
0.0000

> <Gold.Chemscore.Hbonds>
donor molecule, donor type, donor heavy atom, donor atom, acceptor molecule, acceptor atom, score
      L1  H    17    54       P1  7948  1.86
      P1  H  6933  6945       L1    24  0.02

> <Gold.PLP.Chemscore.Internal.Correction>
0.0036

> <Gold.Rescore>
     Score         DG    S(hbond)    S(metal)    S(lipo)     H(rot)  DE(clash)    DE(int)     intcor
     16.12     -21.02       1.01        0.00     130.26       1.20       2.05       2.85       ----

> <Gold.Chemscore.Fitness>
16.1182

> <Gold.Chemscore.DG>
-21.0176

> <Gold.Chemscore.ZeroCoef>
-5.4800

> <Gold.Chemscore.Hbond>
1.0069

> <Gold.Chemscore.Metal>
0.0000

> <Gold.Chemscore.Lipo>
130.2553

> <Gold.Chemscore.Internal_Hbond>
0.0000

> <Gold.Chemscore.DEClash>
2.0497

> <Gold.Chemscore.DEInternal>
2.8497

> <Gold.Chemscore.Rot>
1.1974

> <Gold.Chemscore.Internal.Correction>
   9.000000E+99

> <Gold.Chemscore.Hbonds>
donor molecule, donor type, donor heavy atom, donor atom, acceptor molecule, acceptor atom, score
      L1  H    17    54       P1  7948  0.91

> <Gold.Chemscore.Hbond.Weighted>
-3.3630

> <Gold.Chemscore.Metal.Weighted>
-0.0000

> <Gold.Chemscore.Lipo.Weighted>
-15.2399

> <Gold.Chemscore.Internal_Hbond.Weighted>
0.0000

> <Gold.Chemscore.DEClash.Weighted>
2.0497

> <Gold.Chemscore.DEInternal.Weighted>
2.8497

> <Gold.Chemscore.Rot.Weighted>
3.0652

> <Gold.Chemscore.Internal.Correction.Weighted>
   9.000000E+99

> <Gold.Protein.RotatedTorsions>
[ 6907 6896 6895 6894 ] final -152.78 input  -60.11 | X-H torsion
[ 7974 7965 7964 7962 ] final  -61.80 input  175.53 | X-H torsion
[ 8008 7997 7996 7995 ] final  -72.54 input   59.86 | X-H torsion
[ 10167 10162 10161 10158 ] final  145.30 input  -65.29 | X-H torsion
[ 10718 10713 10712 10709 ] final  -29.55 input   66.30 | X-H torsion
[ 10763 10752 10751 10750 ] final   97.28 input  -60.55 | X-H torsion
[ 11005 11000 10999 10996 ] final   -0.90 input  -57.11 | X-H torsion

> <Gold.Protein.ActiveResidues>
 VAL166  LYS551  ARG553  GLY616  TRP617  ASP618  TYR619  PRO620  LYS621  CYS622 
 ASP623  PHE694  ASN695  SER759  ASP760  ASP761  ALA762  ILE779  LEU786  VAL792 
 PHE793  MET794  SER795  GLU796  ALA797  LYS798  CYS799  TRP800  GLU811  SER814 

> <Gold.Protein.RotatedAtoms>
  151.2328  133.4441  159.2604 H   0  0  0  0  0  0  0  0  0  0  0  0  # atno 6907 bound_to 6896
  151.0778  134.9839  159.8351 H   0  0  0  0  0  0  0  0  0  0  0  0  # atno 6908 bound_to 6896
  152.5420  134.2270  159.8863 H   0  0  0  0  0  0  0  0  0  0  0  0  # atno 6909 bound_to 6896
  145.7991  140.8666  143.0241 H   0  0  0  0  0  0  0  0  0  0  0  0  # atno 7974 bound_to 7965
  154.5175  140.0795  156.8108 H   0  0  0  0  0  0  0  0  0  0  0  0  # atno 8008 bound_to 7997
  155.3649  140.3420  155.4223 H   0  0  0  0  0  0  0  0  0  0  0  0  # atno 8009 bound_to 7997
  156.1644  140.1599  156.8545 H   0  0  0  0  0  0  0  0  0  0  0  0  # atno 8010 bound_to 7997
  139.4929  144.5911  151.6679 H   0  0  0  0  0  0  0  0  0  0  0  0  # atno 10167 bound_to 10162
  156.4110  130.4408  149.7252 H   0  0  0  0  0  0  0  0  0  0  0  0  # atno 10718 bound_to 10713
  153.2751  135.4188  155.1025 H   0  0  0  0  0  0  0  0  0  0  0  0  # atno 10763 bound_to 10752
  154.8470  135.3481  154.6190 H   0  0  0  0  0  0  0  0  0  0  0  0  # atno 10764 bound_to 10752
  153.6610  135.7048  153.5235 H   0  0  0  0  0  0  0  0  0  0  0  0  # atno 10765 bound_to 10752
  140.6414  133.9486  155.8328 H   0  0  0  0  0  0  0  0  0  0  0  0  # atno 11005 bound_to 11000
  144.6771  140.0233  143.7483 LP  0  0  0  0  0  0  0  0  0  0  0  0  # atno 17320 bound_to 7965
  145.9897  139.3005  143.0992 LP  0  0  0  0  0  0  0  0  0  0  0  0  # atno 17321 bound_to 7965
  140.5538  144.0381  150.6138 LP  0  0  0  0  0  0  0  0  0  0  0  0  # atno 17342 bound_to 10162
  140.3444  143.3000  152.0553 LP  0  0  0  0  0  0  0  0  0  0  0  0  # atno 17343 bound_to 10162
  156.4231  130.7778  151.2796 LP  0  0  0  0  0  0  0  0  0  0  0  0  # atno 17370 bound_to 10713
  157.7507  131.0177  150.3595 LP  0  0  0  0  0  0  0  0  0  0  0  0  # atno 17371 bound_to 10713
  141.0604  134.0354  157.3666 LP  0  0  0  0  0  0  0  0  0  0  0  0  # atno 17394 bound_to 11000
  139.9079  135.0184  156.7565 LP  0  0  0  0  0  0  0  0  0  0  0  0  # atno 17395 bound_to 11000

$$$$
