AV-unprocessed.smi:1876|AV-procd|sdf|7621|dock4
  -GOLD-   22720 9353D 1   1.00000     0.00000
 Structure written by MMmdl.
 31 32  0  0  0  0  0  0  0  0  1 V2000
  146.9108  142.3525  154.5589 C   0  0  0  0  0  0  0  0  0  0  0  0
  147.0026  140.8736  154.4004 C   0  0  0  0  0  0  0  0  0  0  0  0
  146.8617  140.0424  153.3247 C   0  0  0  0  0  0  0  0  0  0  0  0
  147.0822  138.7555  153.8839 C   0  0  0  0  0  0  0  0  0  0  0  0
  147.0247  137.5907  153.0766 N   0  0  0  0  0  0  0  0  0  0  0  0
  145.9284  136.9158  152.6907 C   0  0  0  0  0  0  0  0  0  0  0  0
  144.7704  137.2188  152.9804 O   0  0  0  0  0  0  0  0  0  0  0  0
  146.2500  135.8515  151.9409 N   0  0  0  0  0  0  0  0  0  0  0  0
  145.3026  134.8778  151.4018 C   0  0  1  0  0  0  0  0  0  0  0  0
  146.0025  133.8974  150.4418 C   0  0  0  0  0  0  0  0  0  0  0  0
  145.0396  132.7798  150.0309 C   0  0  0  0  0  0  0  0  0  0  0  0
  144.5202  132.0326  151.2701 C   0  0  0  0  0  0  0  0  0  0  0  0
  144.1096  132.9250  152.3556 N   0  0  0  0  0  0  0  0  0  0  0  0
  144.4860  134.2056  152.5200 C   0  0  0  0  0  0  0  0  0  0  0  0
  144.1584  134.8459  153.5180 O   0  0  0  0  0  0  0  0  0  0  0  0
  147.3332  138.7976  155.1836 N   0  0  0  0  0  0  0  0  0  0  0  0
  147.2843  140.1552  155.5209 O   0  0  0  0  0  0  0  0  0  0  0  0
  146.5203  142.8183  153.6541 H   0  0  0  0  0  0  0  0  0  0  0  0
  147.8924  142.7802  154.7629 H   0  0  0  0  0  0  0  0  0  0  0  0
  146.2494  142.6130  155.3853 H   0  0  0  0  0  0  0  0  0  0  0  0
  146.6393  140.3147  152.3036 H   0  0  0  0  0  0  0  0  0  0  0  0
  147.9143  137.2271  152.7683 H   0  0  0  0  0  0  0  0  0  0  0  0
  147.2269  135.6779  151.7545 H   0  0  0  0  0  0  0  0  0  0  0  0
  144.5578  135.4248  150.8205 H   0  0  0  0  0  0  0  0  0  0  0  0
  146.3597  134.4231  149.5556 H   0  0  0  0  0  0  0  0  0  0  0  0
  146.8804  133.4635  150.9228 H   0  0  0  0  0  0  0  0  0  0  0  0
  144.1998  133.2089  149.4830 H   0  0  0  0  0  0  0  0  0  0  0  0
  145.5313  132.0838  149.3509 H   0  0  0  0  0  0  0  0  0  0  0  0
  143.6825  131.3899  150.9983 H   0  0  0  0  0  0  0  0  0  0  0  0
  145.3028  131.3792  151.6572 H   0  0  0  0  0  0  0  0  0  0  0  0
  143.5407  132.5139  153.0816 H   0  0  0  0  0  0  0  0  0  0  0  0
  1  2  1  0  0  0  0
  1 18  1  0  0  0  0
  1 19  1  0  0  0  0
  1 20  1  0  0  0  0
  2 17  1  0  0  0  0
  2  3  2  0  0  0  0
  3  4  1  0  0  0  0
  3 21  1  0  0  0  0
  4  5  1  0  0  0  0
  4 16  2  0  0  0  0
  5  6  1  0  0  0  0
  5 22  1  0  0  0  0
  6  7  2  0  0  0  0
  6  8  1  0  0  0  0
  8  9  1  0  0  0  0
  8 23  1  0  0  0  0
  9 14  1  0  0  0  0
  9 10  1  0  0  0  0
  9 24  1  0  0  0  0
 10 11  1  0  0  0  0
 10 25  1  0  0  0  0
 10 26  1  0  0  0  0
 11 12  1  0  0  0  0
 11 27  1  0  0  0  0
 11 28  1  0  0  0  0
 12 13  1  0  0  0  0
 12 29  1  0  0  0  0
 12 30  1  0  0  0  0
 13 14  1  0  0  0  0
 13 31  1  0  0  0  0
 14 15  2  0  0  0  0
 16 17  1  0  0  0  0
M  END
> <s_m_source_file>
AV-unprocessed.smi

> <i_m_source_file_index>
1876

> <i_lp_mmshare_version>
43012

> <i_f3d_flags>
0

> <s_epik_input>
W0NIM11jMVtjSF1jKG5vMSlbTkhdQyg9TylbTkhdW0NAQEhdMltDSDJdW0NIMl1bQ0gyXVtOSF1DMj1P

> <s_epik_cmdline>
J2VwaWtfcHl0aG9uJywgJy1waCcsICc3LjAnLCAnLXRuJywgJzgnLCAnLW1hJywgJzIwMCcsICctbWV0YWxfYmluZGluZycsICctaW1hZScsICc8aW5maWxlLm1hZT4nLCAnLW9tYWUnLCAnPG91dGZpbGUubWFlPic=

> <r_lp_tautomer_probability>
1

> <r_epik_Ionization_Penalty>
2.33177e-05

> <r_epik_Ionization_Penalty_Charging>
0

> <r_epik_Ionization_Penalty_Neutral>
2.33177e-05

> <r_epik_State_Penalty>
-0

> <r_epik_Charging_Adjusted_Penalty>
0

> <i_epik_Tot_Q>
0

> <i_epik_Tot_abs_Q>
0

> <r_epik_Metal_State_Penalty>
-0

> <b_epik_Metal_Only>
0

> <s_lp_Force_Field>
OPLS_2005

> <r_lp_Energy>
6.99083

> <b_lp_Chiralities_Consistent>
1

> <s_lp_Variant>
AV-unprocessed.smi:1876-2

> <Gold.Version>
5.8.1

> <Gold.Id.Protein>
6NUR|6NUR_protein|mol2

> <Gold.PLP.Fitness>
31.7841

> <Gold.PLP.PLP>
-24.2933

> <Gold.PLP.part.hbond>
-3.0000

> <Gold.PLP.part.metal>
0.0000

> <Gold.PLP.part.buried>
-3.1297

> <Gold.PLP.part.nonpolar>
-18.8745

> <Gold.PLP.part.repulsive>
0.5104

> <Gold.PLP.ligand.clash>
0.0000

> <Gold.PLP.ligand.torsion>
0.7625

> <Gold.PLP.Chemscore.Hbond>
2.9913

> <Gold.PLP.Chemscore.CHOScore>
0.0000

> <Gold.PLP.Chemscore.Metal>
0.0000

> <Gold.Chemscore.Hbonds>
donor molecule, donor type, donor heavy atom, donor atom, acceptor molecule, acceptor atom, score
      L1  H     5    22       P1  7948  1.00
      L1  H     8    23       P1  7948  1.00
      L1  H    13    31       P1 10957  0.79

> <Gold.PLP.Chemscore.Internal.Correction>
0.0421

> <Gold.Rescore>
     Score         DG    S(hbond)    S(metal)    S(lipo)     H(rot)  DE(clash)    DE(int)     intcor
     13.93     -17.81       2.84        0.00      46.18       1.00       0.17       3.70       ----

> <Gold.Chemscore.Fitness>
13.9341

> <Gold.Chemscore.DG>
-17.8061

> <Gold.Chemscore.ZeroCoef>
-5.4800

> <Gold.Chemscore.Hbond>
2.8394

> <Gold.Chemscore.Metal>
0.0000

> <Gold.Chemscore.Lipo>
46.1753

> <Gold.Chemscore.Internal_Hbond>
0.0000

> <Gold.Chemscore.DEClash>
0.1675

> <Gold.Chemscore.DEInternal>
3.7046

> <Gold.Chemscore.Rot>
1.0000

> <Gold.Chemscore.Internal.Correction>
   9.000000E+99

> <Gold.Chemscore.Hbonds>
donor molecule, donor type, donor heavy atom, donor atom, acceptor molecule, acceptor atom, score
      L1  H     5    22       P1  7948  0.98
      L1  H     8    23       P1  7948  0.94
      L1  H    13    31       P1 10957  0.11

> <Gold.Chemscore.Hbond.Weighted>
-9.4836

> <Gold.Chemscore.Metal.Weighted>
-0.0000

> <Gold.Chemscore.Lipo.Weighted>
-5.4025

> <Gold.Chemscore.Internal_Hbond.Weighted>
0.0000

> <Gold.Chemscore.DEClash.Weighted>
0.1675

> <Gold.Chemscore.DEInternal.Weighted>
3.7046

> <Gold.Chemscore.Rot.Weighted>
2.5600

> <Gold.Chemscore.Internal.Correction.Weighted>
   9.000000E+99

> <Gold.Protein.RotatedTorsions>
[ 6907 6896 6895 6894 ] final -120.37 input  -60.11 | X-H torsion
[ 7974 7965 7964 7962 ] final  120.33 input  175.53 | X-H torsion
[ 8008 7997 7996 7995 ] final  179.01 input   59.86 | X-H torsion
[ 10167 10162 10161 10158 ] final  -26.20 input  -65.29 | X-H torsion
[ 10718 10713 10712 10709 ] final   64.48 input   66.30 | X-H torsion
[ 10763 10752 10751 10750 ] final  -44.12 input  -60.55 | X-H torsion
[ 11005 11000 10999 10996 ] final    9.12 input  -57.11 | X-H torsion

> <Gold.Protein.ActiveResidues>
 VAL166  LYS551  ARG553  GLY616  TRP617  ASP618  TYR619  PRO620  LYS621  CYS622 
 ASP623  PHE694  ASN695  SER759  ASP760  ASP761  ALA762  ILE779  LEU786  VAL792 
 PHE793  MET794  SER795  GLU796  ALA797  LYS798  CYS799  TRP800  GLU811  SER814 

> <Gold.Protein.RotatedAtoms>
  150.8387  133.7971  159.3069 H   0  0  0  0  0  0  0  0  0  0  0  0  # atno 6907 bound_to 6896
  151.5678  135.1062  159.9997 H   0  0  0  0  0  0  0  0  0  0  0  0  # atno 6908 bound_to 6896
  152.4455  133.7486  159.6737 H   0  0  0  0  0  0  0  0  0  0  0  0  # atno 6909 bound_to 6896
  145.1324  139.3319  143.4658 H   0  0  0  0  0  0  0  0  0  0  0  0  # atno 7974 bound_to 7965
  156.0483  140.1319  157.0079 H   0  0  0  0  0  0  0  0  0  0  0  0  # atno 8008 bound_to 7997
  154.4422  140.1016  156.6408 H   0  0  0  0  0  0  0  0  0  0  0  0  # atno 8009 bound_to 7997
  155.5563  140.3464  155.4482 H   0  0  0  0  0  0  0  0  0  0  0  0  # atno 8010 bound_to 7997
  140.7284  143.4198  151.0969 H   0  0  0  0  0  0  0  0  0  0  0  0  # atno 10167 bound_to 10162
  157.6042  130.9162  149.9851 H   0  0  0  0  0  0  0  0  0  0  0  0  # atno 10718 bound_to 10713
  154.0068  135.6686  153.4762 H   0  0  0  0  0  0  0  0  0  0  0  0  # atno 10763 bound_to 10752
  153.0638  135.5012  154.8150 H   0  0  0  0  0  0  0  0  0  0  0  0  # atno 10764 bound_to 10752
  154.7019  135.3080  154.9291 H   0  0  0  0  0  0  0  0  0  0  0  0  # atno 10765 bound_to 10752
  140.5293  134.0482  155.7868 H   0  0  0  0  0  0  0  0  0  0  0  0  # atno 11005 bound_to 11000
  146.3512  140.1328  142.8596 LP  0  0  0  0  0  0  0  0  0  0  0  0  # atno 17320 bound_to 7965
  145.0621  140.9095  143.4933 LP  0  0  0  0  0  0  0  0  0  0  0  0  # atno 17321 bound_to 7965
  139.7843  143.8310  152.3142 LP  0  0  0  0  0  0  0  0  0  0  0  0  # atno 17342 bound_to 10162
  139.8272  144.7270  150.9496 LP  0  0  0  0  0  0  0  0  0  0  0  0  # atno 17343 bound_to 10162
  156.1124  130.3649  150.0027 LP  0  0  0  0  0  0  0  0  0  0  0  0  # atno 17370 bound_to 10713
  156.8122  130.9329  151.3644 LP  0  0  0  0  0  0  0  0  0  0  0  0  # atno 17371 bound_to 10713
  141.1290  133.9333  157.2574 LP  0  0  0  0  0  0  0  0  0  0  0  0  # atno 17394 bound_to 11000
  139.9563  135.0165  156.9137 LP  0  0  0  0  0  0  0  0  0  0  0  0  # atno 17395 bound_to 11000

$$$$
