AV-unprocessed.smi:2310|AV-procd|sdf|9260|dock10
  -GOLD-   2272012483D 1   1.00000     0.00000
 Structure written by MMmdl.
 45 46  0  0  0  0  0  0  0  0  3 V2000
  149.2059  133.1535  153.5546 C   0  0  0  0  0  0  0  0  0  0  0  0
  149.4383  134.3810  154.4568 C   0  0  0  0  0  0  0  0  0  0  0  0
  150.2993  134.1130  155.7120 C   0  0  1  0  0  0  0  0  0  0  0  0
  151.0242  132.7540  155.6374 C   0  0  0  0  0  0  0  0  0  0  0  0
  151.7938  132.3887  156.8408 C   0  0  0  0  0  0  0  0  0  0  0  0
  152.3945  132.1018  157.7890 N   0  0  0  0  0  0  0  0  0  0  0  0
  151.2871  135.1865  155.8711 N   0  5  0  0  0  0  0  0  0  0  0  0
  151.2726  136.1186  156.8608 C   0  0  0  0  0  0  0  0  0  0  0  0
  150.7593  136.0226  157.9817 O   0  0  0  0  0  0  0  0  0  0  0  0
  151.9372  137.2344  156.5138 N   0  0  0  0  0  0  0  0  0  0  0  0
  152.1277  138.4243  157.2675 C   0  0  0  0  0  0  0  0  0  0  0  0
  152.3826  138.4141  158.6601 C   0  0  0  0  0  0  0  0  0  0  0  0
  152.5335  139.6328  159.3511 C   0  0  0  0  0  0  0  0  0  0  0  0
  152.4147  140.8552  158.6498 C   0  0  0  0  0  0  0  0  0  0  0  0
  152.5584  142.1104  159.2705 N   0  0  0  0  0  0  0  0  0  0  0  0
  152.2188  143.3495  158.5828 C   0  0  0  0  0  0  0  0  0  0  0  0
  151.8289  144.3389  159.6868 C   0  0  0  0  0  0  0  0  0  0  0  0
  152.4900  143.7737  160.9441 C   0  0  0  0  0  0  0  0  0  0  0  0
  152.4469  142.2641  160.7113 C   0  0  0  0  0  0  0  0  0  0  0  0
  152.1568  140.8157  157.3212 N   0  3  0  0  0  0  0  0  0  0  0  0
  152.0042  139.6730  156.6153 C   0  0  0  0  0  0  0  0  0  0  0  0
  151.7140  139.7990  155.1310 C   0  0  0  0  0  0  0  0  0  0  0  0
  148.6178  133.4346  152.6809 H   0  0  0  0  0  0  0  0  0  0  0  0
  148.6563  132.3627  154.0683 H   0  0  0  0  0  0  0  0  0  0  0  0
  150.1425  132.7294  153.1882 H   0  0  0  0  0  0  0  0  0  0  0  0
  149.9280  135.1497  153.8582 H   0  0  0  0  0  0  0  0  0  0  0  0
  148.4739  134.8007  154.7464 H   0  0  0  0  0  0  0  0  0  0  0  0
  149.6230  134.0673  156.5672 H   0  0  0  0  0  0  0  0  0  0  0  0
  150.3152  131.9505  155.4356 H   0  0  0  0  0  0  0  0  0  0  0  0
  151.7275  132.7618  154.8047 H   0  0  0  0  0  0  0  0  0  0  0  0
  152.4289  137.1891  155.6332 H   0  0  0  0  0  0  0  0  0  0  0  0
  152.4510  137.4883  159.2115 H   0  0  0  0  0  0  0  0  0  0  0  0
  152.7340  139.6108  160.4117 H   0  0  0  0  0  0  0  0  0  0  0  0
  153.0964  143.7019  158.0400 H   0  0  0  0  0  0  0  0  0  0  0  0
  151.4039  143.2208  157.8693 H   0  0  0  0  0  0  0  0  0  0  0  0
  152.1360  145.3617  159.4673 H   0  0  0  0  0  0  0  0  0  0  0  0
  150.7457  144.3358  159.8139 H   0  0  0  0  0  0  0  0  0  0  0  0
  153.5265  144.1101  160.9980 H   0  0  0  0  0  0  0  0  0  0  0  0
  151.9884  144.0756  161.8638 H   0  0  0  0  0  0  0  0  0  0  0  0
  151.4965  141.8490  161.0495 H   0  0  0  0  0  0  0  0  0  0  0  0
  153.2559  141.7548  161.2356 H   0  0  0  0  0  0  0  0  0  0  0  0
  150.7517  139.3453  154.8931 H   0  0  0  0  0  0  0  0  0  0  0  0
  152.4853  139.2926  154.5501 H   0  0  0  0  0  0  0  0  0  0  0  0
  151.6851  140.8429  154.8170 H   0  0  0  0  0  0  0  0  0  0  0  0
  152.0718  141.7005  156.8213 H   0  0  0  0  0  0  0  0  0  0  0  0
  1  2  1  0  0  0  0
  1 23  1  0  0  0  0
  1 24  1  0  0  0  0
  1 25  1  0  0  0  0
  2  3  1  0  0  0  0
  2 26  1  0  0  0  0
  2 27  1  0  0  0  0
  3  4  1  0  0  0  0
  3  7  1  0  0  0  0
  3 28  1  0  0  0  0
  4  5  1  0  0  0  0
  4 29  1  0  0  0  0
  4 30  1  0  0  0  0
  5  6  3  0  0  0  0
  7  8  1  0  0  0  0
  8  9  2  0  0  0  0
  8 10  1  0  0  0  0
 10 11  1  0  0  0  0
 10 31  1  0  0  0  0
 11 21  1  0  0  0  0
 11 12  2  0  0  0  0
 12 13  1  0  0  0  0
 12 32  1  0  0  0  0
 13 14  2  0  0  0  0
 13 33  1  0  0  0  0
 14 15  1  0  0  0  0
 14 20  1  0  0  0  0
 15 19  1  0  0  0  0
 15 16  1  0  0  0  0
 16 17  1  0  0  0  0
 16 34  1  0  0  0  0
 16 35  1  0  0  0  0
 17 18  1  0  0  0  0
 17 36  1  0  0  0  0
 17 37  1  0  0  0  0
 18 19  1  0  0  0  0
 18 38  1  0  0  0  0
 18 39  1  0  0  0  0
 19 40  1  0  0  0  0
 19 41  1  0  0  0  0
 20 21  2  0  0  0  0
 20 45  1  0  0  0  0
 21 22  1  0  0  0  0
 22 42  1  0  0  0  0
 22 43  1  0  0  0  0
 22 44  1  0  0  0  0
M  CHG  1   7  -1
M  CHG  1  20   1
M  END
> <s_m_source_file>
AV-unprocessed.smi

> <i_m_source_file_index>
2310

> <i_lp_mmshare_version>
43012

> <i_f3d_flags>
0

> <s_epik_input>
TiNDW0NIMl1bQ0BASF0oW0NIMl1bQ0gzXSlbTkhdQyg9TylbTkhdYzFbY0hdW2NIXWMobmMxW0NIM10pTjJbQ0gyXVtDSDJdW0NIMl1bQ0gyXTI=

> <s_epik_cmdline>
J2VwaWtfcHl0aG9uJywgJy1waCcsICc3LjAnLCAnLXRuJywgJzgnLCAnLW1hJywgJzIwMCcsICctbWV0YWxfYmluZGluZycsICctaW1hZScsICc8aW5maWxlLm1hZT4nLCAnLW9tYWUnLCAnPG91dGZpbGUubWFlPic=

> <r_lp_tautomer_probability>
0.999994

> <r_epik_Ionization_Penalty>
7.34515

> <r_epik_Ionization_Penalty_Charging>
7.34514

> <r_epik_Ionization_Penalty_Neutral>
2.56118e-06

> <r_epik_State_Penalty>
6.99243

> <r_epik_Charging_Adjusted_Penalty>
14.3376

> <i_epik_Tot_Q>
0

> <i_epik_Tot_abs_Q>
2

> <r_epik_Metal_State_Penalty>
3.10684

> <b_epik_Metal_Only>
1

> <s_lp_Force_Field>
OPLS_2005

> <r_lp_Energy>
34.805

> <b_lp_Chiralities_Consistent>
1

> <s_lp_Variant>
AV-unprocessed.smi:2310-6

> <Gold.Version>
5.8.1

> <Gold.Id.Protein>
6NUR|6NUR_protein|mol2

> <Gold.PLP.Fitness>
48.7148

> <Gold.PLP.PLP>
-40.7589

> <Gold.PLP.part.hbond>
-3.0000

> <Gold.PLP.part.metal>
0.0000

> <Gold.PLP.part.buried>
-1.0729

> <Gold.PLP.part.nonpolar>
-35.3168

> <Gold.PLP.part.repulsive>
0.2666

> <Gold.PLP.ligand.clash>
0.0000

> <Gold.PLP.ligand.torsion>
1.2549

> <Gold.PLP.Chemscore.Hbond>
3.4019

> <Gold.PLP.Chemscore.CHOScore>
0.0000

> <Gold.PLP.Chemscore.Metal>
0.0000

> <Gold.Chemscore.Hbonds>
donor molecule, donor type, donor heavy atom, donor atom, acceptor molecule, acceptor atom, score
      P1  H  6896  6907       L1     9  0.41
      P1  H  6896  6909       L1     6  1.00
      P1  H 10752 10763       L1     7  1.97

> <Gold.PLP.Chemscore.Internal.Correction>
0.2601

> <Gold.Rescore>
     Score         DG    S(hbond)    S(metal)    S(lipo)     H(rot)  DE(clash)    DE(int)     intcor
     17.26     -19.96       2.07        0.00      96.50       1.45       0.29       2.40       ----

> <Gold.Chemscore.Fitness>
17.2621

> <Gold.Chemscore.DG>
-19.9586

> <Gold.Chemscore.ZeroCoef>
-5.4800

> <Gold.Chemscore.Hbond>
2.0653

> <Gold.Chemscore.Metal>
0.0000

> <Gold.Chemscore.Lipo>
96.5009

> <Gold.Chemscore.Internal_Hbond>
0.0000

> <Gold.Chemscore.DEClash>
0.2930

> <Gold.Chemscore.DEInternal>
2.4036

> <Gold.Chemscore.Rot>
1.4492

> <Gold.Chemscore.Internal.Correction>
   9.000000E+99

> <Gold.Chemscore.Hbonds>
donor molecule, donor type, donor heavy atom, donor atom, acceptor molecule, acceptor atom, score
      P1  H  6896  6907       L1     9  0.40
      P1  H  6896  6909       L1     6  0.67
      P1  H 10752 10763       L1     7  0.53

> <Gold.Chemscore.Hbond.Weighted>
-6.8980

> <Gold.Chemscore.Metal.Weighted>
-0.0000

> <Gold.Chemscore.Lipo.Weighted>
-11.2906

> <Gold.Chemscore.Internal_Hbond.Weighted>
0.0000

> <Gold.Chemscore.DEClash.Weighted>
0.2930

> <Gold.Chemscore.DEInternal.Weighted>
2.4036

> <Gold.Chemscore.Rot.Weighted>
3.7100

> <Gold.Chemscore.Internal.Correction.Weighted>
   9.000000E+99

> <Gold.Protein.RotatedTorsions>
[ 6907 6896 6895 6894 ] final  -69.71 input  -60.11 | X-H torsion
[ 7974 7965 7964 7962 ] final  145.52 input  175.53 | X-H torsion
[ 8008 7997 7996 7995 ] final   44.21 input   59.86 | X-H torsion
[ 10167 10162 10161 10158 ] final -107.11 input  -65.29 | X-H torsion
[ 10718 10713 10712 10709 ] final   34.69 input   66.30 | X-H torsion
[ 10763 10752 10751 10750 ] final   70.53 input  -60.55 | X-H torsion
[ 11005 11000 10999 10996 ] final   75.81 input  -57.11 | X-H torsion

> <Gold.Protein.ActiveResidues>
 VAL166  LYS551  ARG553  GLY616  TRP617  ASP618  TYR619  PRO620  LYS621  CYS622 
 ASP623  PHE694  ASN695  SER759  ASP760  ASP761  ALA762  ILE779  LEU786  VAL792 
 PHE793  MET794  SER795  GLU796  ALA797  LYS798  CYS799  TRP800  GLU811  SER814 

> <Gold.Protein.RotatedAtoms>
  150.7292  134.5557  159.5816 H   0  0  0  0  0  0  0  0  0  0  0  0  # atno 6907 bound_to 6896
  152.3033  134.7582  160.0362 H   0  0  0  0  0  0  0  0  0  0  0  0  # atno 6908 bound_to 6896
  151.8155  133.3352  159.3605 H   0  0  0  0  0  0  0  0  0  0  0  0  # atno 6909 bound_to 6896
  144.8746  139.5793  143.5871 H   0  0  0  0  0  0  0  0  0  0  0  0  # atno 7974 bound_to 7965
  155.3155  140.3393  155.4242 H   0  0  0  0  0  0  0  0  0  0  0  0  # atno 8008 bound_to 7997
  156.1935  140.1706  156.8083 H   0  0  0  0  0  0  0  0  0  0  0  0  # atno 8009 bound_to 7997
  154.5470  140.0713  156.8589 H   0  0  0  0  0  0  0  0  0  0  0  0  # atno 8010 bound_to 7997
  140.1805  143.3971  152.1285 H   0  0  0  0  0  0  0  0  0  0  0  0  # atno 10167 bound_to 10162
  157.3135  130.7411  149.6739 H   0  0  0  0  0  0  0  0  0  0  0  0  # atno 10718 bound_to 10713
  153.0347  135.5170  154.7455 H   0  0  0  0  0  0  0  0  0  0  0  0  # atno 10763 bound_to 10752
  154.6442  135.2916  155.0069 H   0  0  0  0  0  0  0  0  0  0  0  0  # atno 10764 bound_to 10752
  154.0976  135.6641  153.4915 H   0  0  0  0  0  0  0  0  0  0  0  0  # atno 10765 bound_to 10752
  139.9326  134.7549  156.1318 H   0  0  0  0  0  0  0  0  0  0  0  0  # atno 11005 bound_to 11000
  146.2954  139.7261  142.9131 LP  0  0  0  0  0  0  0  0  0  0  0  0  # atno 17320 bound_to 7965
  145.4067  141.0391  143.3040 LP  0  0  0  0  0  0  0  0  0  0  0  0  # atno 17321 bound_to 7965
  139.5298  144.7146  151.5096 LP  0  0  0  0  0  0  0  0  0  0  0  0  # atno 17342 bound_to 10162
  140.6523  143.8671  150.6798 LP  0  0  0  0  0  0  0  0  0  0  0  0  # atno 17343 bound_to 10162
  155.9679  130.4244  150.4608 LP  0  0  0  0  0  0  0  0  0  0  0  0  # atno 17370 bound_to 10713
  157.2610  131.0567  151.2320 LP  0  0  0  0  0  0  0  0  0  0  0  0  # atno 17371 bound_to 10713
  141.0923  133.6709  156.2569 LP  0  0  0  0  0  0  0  0  0  0  0  0  # atno 17394 bound_to 11000
  140.6160  134.5410  157.5541 LP  0  0  0  0  0  0  0  0  0  0  0  0  # atno 17395 bound_to 11000

$$$$
