AV-unprocessed.smi:213|AV-procd|sdf|1646|dock4
  -GOLD-   2262020 23D 1   1.00000     0.00000
 Structure written by MMmdl.
 58 61  0  0  0  0  0  0  0  0  1 V2000
  149.4312  141.6085  155.0142 C   0  0  0  0  0  0  0  0  0  0  0  0
  150.3893  141.4478  156.2121 C   0  0  1  0  0  0  0  0  0  0  0  0
  149.8414  142.1021  157.5040 C   0  0  0  0  0  0  0  0  0  0  0  0
  150.8440  142.5000  158.4940 N   0  0  0  0  0  0  0  0  0  0  0  0
  151.5209  143.7251  158.0824 C   0  0  0  0  0  0  0  0  0  0  0  0
  152.5634  144.1835  159.1153 C   0  0  0  0  0  0  0  0  0  0  0  0
  153.5062  143.1395  159.3307 O   0  0  0  0  0  0  0  0  0  0  0  0
  152.8937  141.9370  159.7838 C   0  0  0  0  0  0  0  0  0  0  0  0
  151.8410  141.4687  158.7633 C   0  0  0  0  0  0  0  0  0  0  0  0
  150.6788  140.0271  156.4283 N   0  0  0  0  0  0  0  0  0  0  0  0
  151.9833  139.4676  156.0785 C   0  0  0  0  0  0  0  0  0  0  0  0
  149.6905  139.1545  156.7656 C   0  0  0  0  0  0  0  0  0  0  0  0
  148.5287  139.2156  156.0611 N   0  0  0  0  0  0  0  0  0  0  0  0
  147.5210  138.3827  156.3343 C   0  0  0  0  0  0  0  0  0  0  0  0
  147.4578  137.4267  157.2614 N   0  0  0  0  0  0  0  0  0  0  0  0
  148.6121  137.3642  157.9834 C   0  0  0  0  0  0  0  0  0  0  0  0
  149.7677  138.1799  157.8071 C   0  0  0  0  0  0  0  0  0  0  0  0
  150.7292  137.8240  158.7476 N   0  0  0  0  0  0  0  0  0  0  0  0
  150.1832  136.8532  159.4257 C   0  0  0  0  0  0  0  0  0  0  0  0
  148.9102  136.5138  159.0328 N   0  0  0  0  0  0  0  0  0  0  0  0
  148.0661  135.4811  159.6076 C   0  0  0  0  0  0  0  0  0  0  0  0
  146.9602  136.0591  160.5127 C   0  0  2  0  0  0  0  0  0  0  0  0
  147.5178  137.0525  161.3527 O   0  0  0  0  0  0  0  0  0  0  0  0
  146.3012  134.9790  161.3904 C   0  0  1  0  0  0  0  0  0  0  0  0
  144.8996  135.3325  161.8846 C   0  0  0  0  0  0  0  0  0  0  0  0
  144.3427  133.9715  162.2447 C   0  0  0  0  0  0  0  0  0  0  0  0
  145.0147  133.0435  161.2309 C   0  0  0  0  0  0  0  0  0  0  0  0
  146.0727  133.7935  160.6390 O   0  0  0  0  0  0  0  0  0  0  0  0
  149.2553  142.6532  154.7651 H   0  0  0  0  0  0  0  0  0  0  0  0
  148.4574  141.1589  155.2086 H   0  0  0  0  0  0  0  0  0  0  0  0
  149.8421  141.1322  154.1235 H   0  0  0  0  0  0  0  0  0  0  0  0
  151.3161  141.9446  155.9267 H   0  0  0  0  0  0  0  0  0  0  0  0
  149.2028  142.9500  157.2525 H   0  0  0  0  0  0  0  0  0  0  0  0
  149.1799  141.3802  157.9861 H   0  0  0  0  0  0  0  0  0  0  0  0
  152.0119  143.5708  157.1204 H   0  0  0  0  0  0  0  0  0  0  0  0
  150.7900  144.5208  157.9347 H   0  0  0  0  0  0  0  0  0  0  0  0
  153.0879  145.0697  158.7583 H   0  0  0  0  0  0  0  0  0  0  0  0
  152.0824  144.4521  160.0573 H   0  0  0  0  0  0  0  0  0  0  0  0
  153.6607  141.1735  159.9145 H   0  0  0  0  0  0  0  0  0  0  0  0
  152.4359  142.1014  160.7604 H   0  0  0  0  0  0  0  0  0  0  0  0
  151.3588  140.5783  159.1632 H   0  0  0  0  0  0  0  0  0  0  0  0
  152.3352  141.1778  157.8353 H   0  0  0  0  0  0  0  0  0  0  0  0
  151.8759  138.5220  155.5455 H   0  0  0  0  0  0  0  0  0  0  0  0
  152.5723  139.2920  156.9790 H   0  0  0  0  0  0  0  0  0  0  0  0
  152.5434  140.1439  155.4331 H   0  0  0  0  0  0  0  0  0  0  0  0
  146.6393  138.4991  155.7216 H   0  0  0  0  0  0  0  0  0  0  0  0
  150.6957  136.3606  160.2391 H   0  0  0  0  0  0  0  0  0  0  0  0
  147.6262  134.9111  158.7884 H   0  0  0  0  0  0  0  0  0  0  0  0
  148.6947  134.7867  160.1668 H   0  0  0  0  0  0  0  0  0  0  0  0
  146.1981  136.5327  159.8924 H   0  0  0  0  0  0  0  0  0  0  0  0
  147.2081  136.9087  162.2338 H   0  0  0  0  0  0  0  0  0  0  0  0
  146.9401  134.7319  162.2407 H   0  0  0  0  0  0  0  0  0  0  0  0
  144.9045  136.0257  162.7264 H   0  0  0  0  0  0  0  0  0  0  0  0
  144.3107  135.7757  161.0800 H   0  0  0  0  0  0  0  0  0  0  0  0
  144.6484  133.7011  163.2564 H   0  0  0  0  0  0  0  0  0  0  0  0
  143.2540  133.9338  162.1987 H   0  0  0  0  0  0  0  0  0  0  0  0
  145.4042  132.1469  161.7140 H   0  0  0  0  0  0  0  0  0  0  0  0
  144.3184  132.7333  160.4513 H   0  0  0  0  0  0  0  0  0  0  0  0
  1  2  1  0  0  0  0
  1 29  1  0  0  0  0
  1 30  1  0  0  0  0
  1 31  1  0  0  0  0
  2  3  1  0  0  0  0
  2 10  1  0  0  0  0
  2 32  1  0  0  0  0
  3  4  1  0  0  0  0
  3 33  1  0  0  0  0
  3 34  1  0  0  0  0
  4  9  1  0  0  0  0
  4  5  1  0  0  0  0
  5  6  1  0  0  0  0
  5 35  1  0  0  0  0
  5 36  1  0  0  0  0
  6  7  1  0  0  0  0
  6 37  1  0  0  0  0
  6 38  1  0  0  0  0
  7  8  1  0  0  0  0
  8  9  1  0  0  0  0
  8 39  1  0  0  0  0
  8 40  1  0  0  0  0
  9 41  1  0  0  0  0
  9 42  1  0  0  0  0
 10 11  1  0  0  0  0
 10 12  1  0  0  0  0
 11 43  1  0  0  0  0
 11 44  1  0  0  0  0
 11 45  1  0  0  0  0
 12 17  1  0  0  0  0
 12 13  2  0  0  0  0
 13 14  1  0  0  0  0
 14 15  2  0  0  0  0
 14 46  1  0  0  0  0
 15 16  1  0  0  0  0
 16 20  1  0  0  0  0
 16 17  2  0  0  0  0
 17 18  1  0  0  0  0
 18 19  2  0  0  0  0
 19 20  1  0  0  0  0
 19 47  1  0  0  0  0
 20 21  1  0  0  0  0
 21 22  1  0  0  0  0
 21 48  1  0  0  0  0
 21 49  1  0  0  0  0
 22 23  1  0  0  0  0
 22 24  1  0  0  0  0
 22 50  1  0  0  0  0
 23 51  1  0  0  0  0
 24 28  1  0  0  0  0
 24 25  1  0  0  0  0
 24 52  1  0  0  0  0
 25 26  1  0  0  0  0
 25 53  1  0  0  0  0
 25 54  1  0  0  0  0
 26 27  1  0  0  0  0
 26 55  1  0  0  0  0
 26 56  1  0  0  0  0
 27 28  1  0  0  0  0
 27 57  1  0  0  0  0
 27 58  1  0  0  0  0
M  END
> <s_m_source_file>
AV-unprocessed.smi

> <i_m_source_file_index>
213

> <i_lp_mmshare_version>
43012

> <i_f3d_flags>
0

> <s_epik_input>
W0NIMl0xW0NIMl1PW0NIMl1bQ0gyXU4xW0NIMl1bQ0BASF0oW0NIM10pTihbQ0gzXSljKG5bY0hdbjIpYyhjMjMpbltjSF1uM1tDSDJdW0NASF0oW09IXSlbQ0BASF00W0NIMl1bQ0gyXVtDSDJdTzQ=

> <s_epik_cmdline>
J2VwaWtfcHl0aG9uJywgJy1waCcsICc3LjAnLCAnLXRuJywgJzgnLCAnLW1hJywgJzIwMCcsICctbWV0YWxfYmluZGluZycsICctaW1hZScsICc8aW5maWxlLm1hZT4nLCAnLW9tYWUnLCAnPG91dGZpbGUubWFlPic=

> <r_lp_tautomer_probability>
1

> <r_epik_Ionization_Penalty>
0.423322

> <r_epik_Ionization_Penalty_Charging>
0

> <r_epik_Ionization_Penalty_Neutral>
0.423322

> <r_epik_State_Penalty>
0.569486

> <r_epik_Charging_Adjusted_Penalty>
0.569486

> <i_epik_Tot_Q>
0

> <i_epik_Tot_abs_Q>
0

> <r_epik_Metal_State_Penalty>
0.568671

> <b_epik_Metal_Only>
0

> <s_lp_Force_Field>
OPLS_2005

> <r_lp_Energy>
53.3549

> <b_lp_Chiralities_Consistent>
1

> <s_lp_Variant>
AV-unprocessed.smi:213-14

> <Gold.Version>
5.8.1

> <Gold.Id.Protein>
6NUR|6NUR_protein|mol2

> <Gold.PLP.Fitness>
46.5002

> <Gold.PLP.PLP>
-45.0845

> <Gold.PLP.part.hbond>
-2.0000

> <Gold.PLP.part.metal>
0.0000

> <Gold.PLP.part.buried>
-4.1705

> <Gold.PLP.part.nonpolar>
-40.5227

> <Gold.PLP.part.repulsive>
0.0793

> <Gold.PLP.ligand.clash>
0.0000

> <Gold.PLP.ligand.torsion>
2.0485

> <Gold.PLP.Chemscore.Hbond>
1.6800

> <Gold.PLP.Chemscore.CHOScore>
0.0000

> <Gold.PLP.Chemscore.Metal>
0.0000

> <Gold.Chemscore.Hbonds>
donor molecule, donor type, donor heavy atom, donor atom, acceptor molecule, acceptor atom, score
      P1  H  6931  6943       L1    23  0.74
      P1  H  6934  6947       L1    23  0.89

> <Gold.PLP.Chemscore.Internal.Correction>
0.4727

> <Gold.Rescore>
     Score         DG    S(hbond)    S(metal)    S(lipo)     H(rot)  DE(clash)    DE(int)     intcor
     10.70     -15.50       1.33        0.00     107.65       2.74       0.23       4.56       ----

> <Gold.Chemscore.Fitness>
10.7048

> <Gold.Chemscore.DG>
-15.4978

> <Gold.Chemscore.ZeroCoef>
-5.4800

> <Gold.Chemscore.Hbond>
1.3269

> <Gold.Chemscore.Metal>
0.0000

> <Gold.Chemscore.Lipo>
107.6458

> <Gold.Chemscore.Internal_Hbond>
0.0000

> <Gold.Chemscore.DEClash>
0.2288

> <Gold.Chemscore.DEInternal>
4.5642

> <Gold.Chemscore.Rot>
2.7378

> <Gold.Chemscore.Internal.Correction>
   9.000000E+99

> <Gold.Chemscore.Hbonds>
donor molecule, donor type, donor heavy atom, donor atom, acceptor molecule, acceptor atom, score
      P1  H  6931  6943       L1    23  0.08
      P1  H  6934  6947       L1    23  0.45

> <Gold.Chemscore.Hbond.Weighted>
-4.4320

> <Gold.Chemscore.Metal.Weighted>
-0.0000

> <Gold.Chemscore.Lipo.Weighted>
-12.5946

> <Gold.Chemscore.Internal_Hbond.Weighted>
0.0000

> <Gold.Chemscore.DEClash.Weighted>
0.2288

> <Gold.Chemscore.DEInternal.Weighted>
4.5642

> <Gold.Chemscore.Rot.Weighted>
7.0087

> <Gold.Chemscore.Internal.Correction.Weighted>
   9.000000E+99

> <Gold.Protein.RotatedTorsions>
[ 6907 6896 6895 6894 ] final  -52.77 input  -60.11 | X-H torsion
[ 7974 7965 7964 7962 ] final -106.26 input  175.53 | X-H torsion
[ 8008 7997 7996 7995 ] final   20.34 input   59.86 | X-H torsion
[ 10167 10162 10161 10158 ] final  130.98 input  -65.29 | X-H torsion
[ 10718 10713 10712 10709 ] final   74.87 input   66.30 | X-H torsion
[ 10763 10752 10751 10750 ] final  -37.19 input  -60.55 | X-H torsion
[ 11005 11000 10999 10996 ] final  161.76 input  -57.11 | X-H torsion

> <Gold.Protein.ActiveResidues>
 VAL166  LYS551  ARG553  GLY616  TRP617  ASP618  TYR619  PRO620  LYS621  CYS622 
 ASP623  PHE694  ASN695  SER759  ASP760  ASP761  ALA762  ILE779  LEU786  VAL792 
 PHE793  MET794  SER795  GLU796  ALA797  LYS798  CYS799  TRP800  GLU811  SER814 

> <Gold.Protein.RotatedAtoms>
  150.8487  134.7805  159.6991 H   0  0  0  0  0  0  0  0  0  0  0  0  # atno 6907 bound_to 6896
  152.4558  134.5292  159.9815 H   0  0  0  0  0  0  0  0  0  0  0  0  # atno 6908 bound_to 6896
  151.5417  133.3393  159.2972 H   0  0  0  0  0  0  0  0  0  0  0  0  # atno 6909 bound_to 6896
  145.2200  140.9130  143.3265 H   0  0  0  0  0  0  0  0  0  0  0  0  # atno 7974 bound_to 7965
  154.9342  140.3044  155.5153 H   0  0  0  0  0  0  0  0  0  0  0  0  # atno 8008 bound_to 7997
  156.3001  140.2348  156.4341 H   0  0  0  0  0  0  0  0  0  0  0  0  # atno 8009 bound_to 7997
  154.8208  140.0423  157.1398 H   0  0  0  0  0  0  0  0  0  0  0  0  # atno 8010 bound_to 7997
  139.5405  144.6725  151.4641 H   0  0  0  0  0  0  0  0  0  0  0  0  # atno 10167 bound_to 10162
  157.6610  130.9699  150.1273 H   0  0  0  0  0  0  0  0  0  0  0  0  # atno 10718 bound_to 10713
  153.8922  135.6811  153.4760 H   0  0  0  0  0  0  0  0  0  0  0  0  # atno 10763 bound_to 10752
  153.1175  135.4755  154.9137 H   0  0  0  0  0  0  0  0  0  0  0  0  # atno 10764 bound_to 10752
  154.7617  135.3212  154.8319 H   0  0  0  0  0  0  0  0  0  0  0  0  # atno 10765 bound_to 10752
  140.2190  134.8210  157.3201 H   0  0  0  0  0  0  0  0  0  0  0  0  # atno 11005 bound_to 11000
  144.9774  139.3818  143.6279 LP  0  0  0  0  0  0  0  0  0  0  0  0  # atno 17320 bound_to 7965
  146.3378  139.8899  142.8810 LP  0  0  0  0  0  0  0  0  0  0  0  0  # atno 17321 bound_to 7965
  140.6632  143.8453  150.6912 LP  0  0  0  0  0  0  0  0  0  0  0  0  # atno 17342 bound_to 10162
  140.1854  143.4080  152.1902 LP  0  0  0  0  0  0  0  0  0  0  0  0  # atno 17343 bound_to 10162
  156.2129  130.3668  149.8649 LP  0  0  0  0  0  0  0  0  0  0  0  0  # atno 17370 bound_to 10713
  156.6523  130.8748  151.3533 LP  0  0  0  0  0  0  0  0  0  0  0  0  # atno 17371 bound_to 10713
  140.1869  134.4419  155.7738 LP  0  0  0  0  0  0  0  0  0  0  0  0  # atno 17394 bound_to 11000
  141.2224  133.7009  156.7963 LP  0  0  0  0  0  0  0  0  0  0  0  0  # atno 17395 bound_to 11000

$$$$
