AV-unprocessed.smi:1478|AV-procd|sdf|5982|dock2
  -GOLD-   22720 6 73D 1   1.00000     0.00000
 Structure written by MMmdl.
 46 47  0  0  0  0  0  0  0  0  1 V2000
  144.6472  141.6399  159.0804 C   0  0  0  0  0  0  0  0  0  0  0  0
  145.2108  140.4553  159.6160 O   0  0  0  0  0  0  0  0  0  0  0  0
  145.0091  139.3310  158.7768 C   0  0  0  0  0  0  0  0  0  0  0  0
  144.6951  138.1083  159.6520 C   0  0  0  0  0  0  0  0  0  0  0  0
  145.9113  137.3640  159.9946 N   0  0  0  0  0  0  0  0  0  0  0  0
  146.8424  137.3000  158.9709 N   0  0  0  0  0  0  0  0  0  0  0  0
  147.9572  136.6658  159.1446 C   0  0  0  0  0  0  0  0  0  0  0  0
  148.9862  136.5759  158.0714 C   0  0  0  0  0  0  0  0  0  0  0  0
  150.1550  136.2713  158.3154 O   0  0  0  0  0  0  0  0  0  0  0  0
  148.5452  136.8424  156.8283 N   0  0  0  0  0  0  0  0  0  0  0  0
  149.3532  136.8251  155.6092 C   0  0  0  0  0  0  0  0  0  0  0  0
  150.2390  138.0895  155.4154 C   0  0  0  0  0  0  0  0  0  0  0  0
  149.3949  139.0842  154.5710 C   0  0  0  0  0  0  0  0  0  0  0  0
  148.9259  138.6829  153.3849 N   0  0  0  0  0  0  0  0  0  0  0  0
  149.1806  140.2248  154.9791 O   0  0  0  0  0  0  0  0  0  0  0  0
  150.6835  138.6964  156.7779 C   0  0  0  0  0  0  0  0  0  0  0  0
  151.7036  139.8405  156.6096 C   0  0  0  0  0  0  0  0  0  0  0  0
  152.8410  139.3721  155.8949 O   0  0  0  0  0  0  0  0  0  0  0  0
  152.5272  138.9173  154.5836 C   0  0  0  0  0  0  0  0  0  0  0  0
  151.5509  137.7271  154.6637 C   0  0  0  0  0  0  0  0  0  0  0  0
  148.2506  136.0095  160.4079 C   0  0  0  0  0  0  0  0  0  0  0  0
  147.3320  136.0792  161.3960 C   0  0  0  0  0  0  0  0  0  0  0  0
  146.0643  136.7908  161.2265 C   0  0  0  0  0  0  0  0  0  0  0  0
  145.2108  136.8648  162.1100 O   0  0  0  0  0  0  0  0  0  0  0  0
  144.8276  142.4719  159.7608 H   0  0  0  0  0  0  0  0  0  0  0  0
  143.5686  141.5402  158.9493 H   0  0  0  0  0  0  0  0  0  0  0  0
  145.0956  141.8888  158.1178 H   0  0  0  0  0  0  0  0  0  0  0  0
  144.1878  139.5275  158.0858 H   0  0  0  0  0  0  0  0  0  0  0  0
  145.9042  139.1449  158.1811 H   0  0  0  0  0  0  0  0  0  0  0  0
  144.1901  138.4360  160.5627 H   0  0  0  0  0  0  0  0  0  0  0  0
  143.9819  137.4568  159.1436 H   0  0  0  0  0  0  0  0  0  0  0  0
  147.5695  137.0803  156.7203 H   0  0  0  0  0  0  0  0  0  0  0  0
  149.9845  135.9372  155.6683 H   0  0  0  0  0  0  0  0  0  0  0  0
  148.7163  136.6721  154.7355 H   0  0  0  0  0  0  0  0  0  0  0  0
  148.3735  139.3131  152.8218 H   0  0  0  0  0  0  0  0  0  0  0  0
  149.1246  137.7486  153.0574 H   0  0  0  0  0  0  0  0  0  0  0  0
  149.8270  139.0341  157.3626 H   0  0  0  0  0  0  0  0  0  0  0  0
  151.1609  137.9289  157.3867 H   0  0  0  0  0  0  0  0  0  0  0  0
  151.2698  140.7012  156.0995 H   0  0  0  0  0  0  0  0  0  0  0  0
  152.0301  140.1914  157.5886 H   0  0  0  0  0  0  0  0  0  0  0  0
  152.1183  139.7353  153.9889 H   0  0  0  0  0  0  0  0  0  0  0  0
  153.4500  138.6068  154.0936 H   0  0  0  0  0  0  0  0  0  0  0  0
  152.0639  136.9127  155.1758 H   0  0  0  0  0  0  0  0  0  0  0  0
  151.3398  137.3521  153.6612 H   0  0  0  0  0  0  0  0  0  0  0  0
  149.1780  135.4769  160.5615 H   0  0  0  0  0  0  0  0  0  0  0  0
  147.5371  135.5959  162.3400 H   0  0  0  0  0  0  0  0  0  0  0  0
  1  2  1  0  0  0  0
  1 25  1  0  0  0  0
  1 26  1  0  0  0  0
  1 27  1  0  0  0  0
  2  3  1  0  0  0  0
  3  4  1  0  0  0  0
  3 28  1  0  0  0  0
  3 29  1  0  0  0  0
  4  5  1  0  0  0  0
  4 30  1  0  0  0  0
  4 31  1  0  0  0  0
  5 23  1  0  0  0  0
  5  6  1  0  0  0  0
  6  7  2  0  0  0  0
  7  8  1  0  0  0  0
  7 21  1  0  0  0  0
  8  9  2  0  0  0  0
  8 10  1  0  0  0  0
 10 11  1  0  0  0  0
 10 32  1  0  0  0  0
 11 12  1  0  0  0  0
 11 33  1  0  0  0  0
 11 34  1  0  0  0  0
 12 20  1  0  0  0  0
 12 13  1  0  0  0  0
 12 16  1  0  0  0  0
 13 14  1  0  0  0  0
 13 15  2  0  0  0  0
 14 35  1  0  0  0  0
 14 36  1  0  0  0  0
 16 17  1  0  0  0  0
 16 37  1  0  0  0  0
 16 38  1  0  0  0  0
 17 18  1  0  0  0  0
 17 39  1  0  0  0  0
 17 40  1  0  0  0  0
 18 19  1  0  0  0  0
 19 20  1  0  0  0  0
 19 41  1  0  0  0  0
 19 42  1  0  0  0  0
 20 43  1  0  0  0  0
 20 44  1  0  0  0  0
 21 22  2  0  0  0  0
 21 45  1  0  0  0  0
 22 23  1  0  0  0  0
 22 46  1  0  0  0  0
 23 24  2  0  0  0  0
M  END
> <s_m_source_file>
AV-unprocessed.smi

> <i_m_source_file_index>
1478

> <i_lp_mmshare_version>
43012

> <i_f3d_flags>
0

> <s_epik_input>
W0NIM11PW0NIMl1bQ0gyXW4xbmMoW2NIXVtjSF1jMT1PKUMoPU8pW05IXVtDSDJdQzIoQyg9TylbTkgyXSlbQ0gyXVtDSDJdT1tDSDJdW0NIMl0y

> <s_epik_cmdline>
J2VwaWtfcHl0aG9uJywgJy1waCcsICc3LjAnLCAnLXRuJywgJzgnLCAnLW1hJywgJzIwMCcsICctbWV0YWxfYmluZGluZycsICctaW1hZScsICc8aW5maWxlLm1hZT4nLCAnLW9tYWUnLCAnPG91dGZpbGUubWFlPic=

> <r_lp_tautomer_probability>
1

> <r_epik_Ionization_Penalty>
1.88897e-06

> <r_epik_Ionization_Penalty_Charging>
5.89949e-09

> <r_epik_Ionization_Penalty_Neutral>
1.88307e-06

> <r_epik_State_Penalty>
-0

> <r_epik_Charging_Adjusted_Penalty>
5.89949e-09

> <i_epik_Tot_Q>
0

> <i_epik_Tot_abs_Q>
0

> <r_epik_Metal_State_Penalty>
-0

> <b_epik_Metal_Only>
0

> <s_lp_Force_Field>
OPLS_2005

> <r_lp_Energy>
34.3796

> <b_lp_Chiralities_Consistent>
1

> <s_lp_Variant>
AV-unprocessed.smi:1478-1

> <Gold.Version>
5.8.1

> <Gold.Id.Protein>
6NUR|6NUR_protein|mol2

> <Gold.PLP.Fitness>
36.3245

> <Gold.PLP.PLP>
-28.2994

> <Gold.PLP.part.hbond>
-5.0000

> <Gold.PLP.part.metal>
0.0000

> <Gold.PLP.part.buried>
-4.7937

> <Gold.PLP.part.nonpolar>
-19.2006

> <Gold.PLP.part.repulsive>
0.1595

> <Gold.PLP.ligand.clash>
0.0000

> <Gold.PLP.ligand.torsion>
1.6993

> <Gold.PLP.Chemscore.Hbond>
3.7360

> <Gold.PLP.Chemscore.CHOScore>
0.0000

> <Gold.PLP.Chemscore.Metal>
0.0000

> <Gold.Chemscore.Hbonds>
donor molecule, donor type, donor heavy atom, donor atom, acceptor molecule, acceptor atom, score
      L1  H    14    35       P1  7957  0.11
      L1  H    14    36       P1  7948  1.00
      P1  H  6896  6908       L1     9  0.87
      P1  H  6934  6946       L1     2  0.42
      P1  H  7997  8010       L1    18  1.00

> <Gold.PLP.Chemscore.Internal.Correction>
0.2156

> <Gold.Rescore>
     Score         DG    S(hbond)    S(metal)    S(lipo)     H(rot)  DE(clash)    DE(int)     intcor
     14.44     -16.17       3.46        0.00      51.64       2.69       0.04       1.70       ----

> <Gold.Chemscore.Fitness>
14.4400

> <Gold.Chemscore.DG>
-16.1721

> <Gold.Chemscore.ZeroCoef>
-5.4800

> <Gold.Chemscore.Hbond>
3.4573

> <Gold.Chemscore.Metal>
0.0000

> <Gold.Chemscore.Lipo>
51.6443

> <Gold.Chemscore.Internal_Hbond>
0.0000

> <Gold.Chemscore.DEClash>
0.0355

> <Gold.Chemscore.DEInternal>
1.6966

> <Gold.Chemscore.Rot>
2.6944

> <Gold.Chemscore.Internal.Correction>
   9.000000E+99

> <Gold.Chemscore.Hbonds>
donor molecule, donor type, donor heavy atom, donor atom, acceptor molecule, acceptor atom, score
      L1  H    14    35       P1  7957  0.11
      L1  H    14    36       P1  7948  0.97
      P1  H  6896  6908       L1     9  0.80
      P1  H  6934  6946       L1     2  0.34
      P1  H  7997  8010       L1    18  0.84

> <Gold.Chemscore.Hbond.Weighted>
-11.5474

> <Gold.Chemscore.Metal.Weighted>
-0.0000

> <Gold.Chemscore.Lipo.Weighted>
-6.0424

> <Gold.Chemscore.Internal_Hbond.Weighted>
0.0000

> <Gold.Chemscore.DEClash.Weighted>
0.0355

> <Gold.Chemscore.DEInternal.Weighted>
1.6966

> <Gold.Chemscore.Rot.Weighted>
6.8976

> <Gold.Chemscore.Internal.Correction.Weighted>
   9.000000E+99

> <Gold.Protein.RotatedTorsions>
[ 6907 6896 6895 6894 ] final -172.66 input  -60.11 | X-H torsion
[ 7974 7965 7964 7962 ] final   51.11 input  175.53 | X-H torsion
[ 8008 7997 7996 7995 ] final   99.85 input   59.86 | X-H torsion
[ 10167 10162 10161 10158 ] final  -19.40 input  -65.29 | X-H torsion
[ 10718 10713 10712 10709 ] final  133.41 input   66.30 | X-H torsion
[ 10763 10752 10751 10750 ] final  -60.84 input  -60.55 | X-H torsion
[ 11005 11000 10999 10996 ] final  -76.30 input  -57.11 | X-H torsion

> <Gold.Protein.ActiveResidues>
 VAL166  LYS551  ARG553  GLY616  TRP617  ASP618  TYR619  PRO620  LYS621  CYS622 
 ASP623  PHE694  ASN695  SER759  ASP760  ASP761  ALA762  ILE779  LEU786  VAL792 
 PHE793  MET794  SER795  GLU796  ALA797  LYS798  CYS799  TRP800  GLU811  SER814 

> <Gold.Protein.RotatedAtoms>
  151.5436  133.3428  159.2939 H   0  0  0  0  0  0  0  0  0  0  0  0  # atno 6907 bound_to 6896
  150.8521  134.7851  159.7027 H   0  0  0  0  0  0  0  0  0  0  0  0  # atno 6908 bound_to 6896
  152.4564  134.5290  159.9857 H   0  0  0  0  0  0  0  0  0  0  0  0  # atno 6909 bound_to 6896
  145.9945  139.4374  143.0053 H   0  0  0  0  0  0  0  0  0  0  0  0  # atno 7974 bound_to 7965
  156.1145  140.3222  155.8120 H   0  0  0  0  0  0  0  0  0  0  0  0  # atno 8008 bound_to 7997
  155.4614  140.0539  157.3007 H   0  0  0  0  0  0  0  0  0  0  0  0  # atno 8009 bound_to 7997
  154.4783  140.2042  155.9838 H   0  0  0  0  0  0  0  0  0  0  0  0  # atno 8010 bound_to 7997
  140.7268  143.4822  151.0102 H   0  0  0  0  0  0  0  0  0  0  0  0  # atno 10167 bound_to 10162
  157.4775  131.1084  150.9724 H   0  0  0  0  0  0  0  0  0  0  0  0  # atno 10718 bound_to 10713
  154.2754  135.6282  153.5326 H   0  0  0  0  0  0  0  0  0  0  0  0  # atno 10763 bound_to 10752
  152.9874  135.5620  154.5554 H   0  0  0  0  0  0  0  0  0  0  0  0  # atno 10764 bound_to 10752
  154.5133  135.2878  155.1299 H   0  0  0  0  0  0  0  0  0  0  0  0  # atno 10765 bound_to 10752
  141.1653  133.6978  156.7647 H   0  0  0  0  0  0  0  0  0  0  0  0  # atno 11005 bound_to 11000
  145.7580  140.9946  143.1215 LP  0  0  0  0  0  0  0  0  0  0  0  0  # atno 17320 bound_to 7965
  144.6899  139.9295  143.7471 LP  0  0  0  0  0  0  0  0  0  0  0  0  # atno 17321 bound_to 7965
  139.8521  143.7424  152.3177 LP  0  0  0  0  0  0  0  0  0  0  0  0  # atno 17342 bound_to 10162
  139.7610  144.7506  151.0364 LP  0  0  0  0  0  0  0  0  0  0  0  0  # atno 17343 bound_to 10162
  157.0468  130.5771  149.5364 LP  0  0  0  0  0  0  0  0  0  0  0  0  # atno 17370 bound_to 10713
  156.0104  130.5195  150.7971 LP  0  0  0  0  0  0  0  0  0  0  0  0  # atno 17371 bound_to 10713
  140.2508  134.8542  157.3665 LP  0  0  0  0  0  0  0  0  0  0  0  0  # atno 17394 bound_to 11000
  140.1705  134.4615  155.7835 LP  0  0  0  0  0  0  0  0  0  0  0  0  # atno 17395 bound_to 11000

$$$$
