AV-unprocessed.smi:1414|AV-procd|sdf|5762|dock10
  -GOLD-   22720 5403D 1   1.00000     0.00000
 Structure written by MMmdl.
 45 46  0  0  0  0  0  0  0  0  1 V2000
  153.1510  138.8215  154.7094 C   0  0  0  0  0  0  0  0  0  0  0  0
  152.0846  138.9360  155.8043 C   0  0  1  0  0  0  0  0  0  0  0  0
  151.8244  137.5881  156.4935 C   0  0  0  0  0  0  0  0  0  0  0  0
  150.9065  137.7437  157.6308 N   0  0  0  0  0  0  0  0  0  0  0  0
  149.3983  136.8846  157.6869 S   0  0  0  0  0  0  0  0  0  0  0  0
  149.6775  135.5639  158.2713 O   0  0  0  0  0  0  0  0  0  0  0  0
  148.4018  137.7668  158.3143 O   0  0  0  0  0  0  0  0  0  0  0  0
  148.9624  136.6352  155.9074 C   0  0  0  0  0  0  0  0  0  0  0  0
  147.8726  135.5653  155.7199 C   0  0  0  0  0  0  0  0  0  0  0  0
  147.6510  135.2487  154.3129 N   0  0  0  0  0  0  0  0  0  0  0  0
  146.6828  134.4583  153.8294 C   0  0  0  0  0  0  0  0  0  0  0  0
  145.8404  133.9039  154.5334 O   0  0  0  0  0  0  0  0  0  0  0  0
  146.7740  134.3402  152.4940 N   0  0  0  0  0  0  0  0  0  0  0  0
  145.9173  133.6226  151.6172 C   0  0  0  0  0  0  0  0  0  0  0  0
  144.5398  133.5839  151.9157 C   0  0  0  0  0  0  0  0  0  0  0  0
  143.6757  132.8604  151.0718 C   0  0  0  0  0  0  0  0  0  0  0  0
  144.2282  132.1915  149.9623 C   0  0  0  0  0  0  0  0  0  0  0  0
  145.5461  132.2047  149.6713 N   0  0  0  0  0  0  0  0  0  0  0  0
  146.3689  132.9030  150.4831 C   0  0  0  0  0  0  0  0  0  0  0  0
  151.1952  138.8573  158.5519 C   0  0  0  0  0  0  0  0  0  0  0  0
  151.6230  140.1478  157.8197 C   0  0  2  0  0  0  0  0  0  0  0  0
  150.4458  141.0073  157.3347 C   0  0  0  0  0  0  0  0  0  0  0  0
  152.5462  139.8748  156.7682 O   0  0  0  0  0  0  0  0  0  0  0  0
  152.8457  138.1157  153.9367 H   0  0  0  0  0  0  0  0  0  0  0  0
  154.1027  138.4799  155.1176 H   0  0  0  0  0  0  0  0  0  0  0  0
  153.3212  139.7857  154.2300 H   0  0  0  0  0  0  0  0  0  0  0  0
  151.1676  139.2940  155.3370 H   0  0  0  0  0  0  0  0  0  0  0  0
  151.4205  136.8735  155.7766 H   0  0  0  0  0  0  0  0  0  0  0  0
  152.7603  137.1689  156.8643 H   0  0  0  0  0  0  0  0  0  0  0  0
  148.6820  137.5938  155.4721 H   0  0  0  0  0  0  0  0  0  0  0  0
  149.8733  136.3111  155.4038 H   0  0  0  0  0  0  0  0  0  0  0  0
  148.1765  134.6384  156.2059 H   0  0  0  0  0  0  0  0  0  0  0  0
  146.9400  135.8722  156.1935 H   0  0  0  0  0  0  0  0  0  0  0  0
  148.2980  135.6567  153.6538 H   0  0  0  0  0  0  0  0  0  0  0  0
  147.5777  134.7709  152.0609 H   0  0  0  0  0  0  0  0  0  0  0  0
  144.1467  134.1050  152.7765 H   0  0  0  0  0  0  0  0  0  0  0  0
  142.6150  132.8177  151.2701 H   0  0  0  0  0  0  0  0  0  0  0  0
  143.5954  131.6259  149.2945 H   0  0  0  0  0  0  0  0  0  0  0  0
  147.4135  132.8550  150.2172 H   0  0  0  0  0  0  0  0  0  0  0  0
  150.3414  139.0525  159.2004 H   0  0  0  0  0  0  0  0  0  0  0  0
  152.0070  138.5363  159.2050 H   0  0  0  0  0  0  0  0  0  0  0  0
  152.1670  140.7604  158.5392 H   0  0  0  0  0  0  0  0  0  0  0  0
  149.8136  141.3108  158.1692 H   0  0  0  0  0  0  0  0  0  0  0  0
  149.8178  140.4699  156.6302 H   0  0  0  0  0  0  0  0  0  0  0  0
  150.8003  141.9129  156.8425 H   0  0  0  0  0  0  0  0  0  0  0  0
  1  2  1  0  0  0  0
  1 24  1  0  0  0  0
  1 25  1  0  0  0  0
  1 26  1  0  0  0  0
  2 23  1  0  0  0  0
  2  3  1  0  0  0  0
  2 27  1  0  0  0  0
  3  4  1  0  0  0  0
  3 28  1  0  0  0  0
  3 29  1  0  0  0  0
  4  5  1  0  0  0  0
  4 20  1  0  0  0  0
  5  6  2  0  0  0  0
  5  7  2  0  0  0  0
  5  8  1  0  0  0  0
  8  9  1  0  0  0  0
  8 30  1  0  0  0  0
  8 31  1  0  0  0  0
  9 10  1  0  0  0  0
  9 32  1  0  0  0  0
  9 33  1  0  0  0  0
 10 11  1  0  0  0  0
 10 34  1  0  0  0  0
 11 12  2  0  0  0  0
 11 13  1  0  0  0  0
 13 14  1  0  0  0  0
 13 35  1  0  0  0  0
 14 19  1  0  0  0  0
 14 15  2  0  0  0  0
 15 16  1  0  0  0  0
 15 36  1  0  0  0  0
 16 17  2  0  0  0  0
 16 37  1  0  0  0  0
 17 18  1  0  0  0  0
 17 38  1  0  0  0  0
 18 19  2  0  0  0  0
 19 39  1  0  0  0  0
 20 21  1  0  0  0  0
 20 40  1  0  0  0  0
 20 41  1  0  0  0  0
 21 22  1  0  0  0  0
 21 23  1  0  0  0  0
 21 42  1  0  0  0  0
 22 43  1  0  0  0  0
 22 44  1  0  0  0  0
 22 45  1  0  0  0  0
M  END
> <s_m_source_file>
AV-unprocessed.smi

> <i_m_source_file_index>
1414

> <i_lp_mmshare_version>
43012

> <i_f3d_flags>
0

> <s_epik_input>
W0NIM11bQ0BASF0xW0NIMl1OKFtDSDJdW0NASF0oTzEpW0NIM10pUyg9TykoPU8pW0NIMl1bQ0gyXVtOSF1DKD1PKVtOSF1jMltjSF1bY0hdW2NIXW5bY0hdMg==

> <s_epik_cmdline>
J2VwaWtfcHl0aG9uJywgJy1waCcsICc3LjAnLCAnLXRuJywgJzgnLCAnLW1hJywgJzIwMCcsICctbWV0YWxfYmluZGluZycsICctaW1hZScsICc8aW5maWxlLm1hZT4nLCAnLW9tYWUnLCAnPG91dGZpbGUubWFlPic=

> <r_epik_Ionization_Penalty>
0.00437531

> <r_epik_Ionization_Penalty_Charging>
0

> <r_epik_Ionization_Penalty_Neutral>
0.00437531

> <r_epik_State_Penalty>
0.00312896

> <r_epik_Charging_Adjusted_Penalty>
0.00312896

> <i_epik_Tot_Q>
0

> <i_epik_Tot_abs_Q>
0

> <r_epik_Metal_State_Penalty>
-0

> <b_epik_Metal_Only>
0

> <s_lp_Force_Field>
OPLS_2005

> <r_lp_Energy>
7.0755

> <b_lp_Chiralities_Consistent>
1

> <s_lp_Variant>
AV-unprocessed.smi:1414-3

> <Gold.Version>
5.8.1

> <Gold.Id.Protein>
6NUR|6NUR_protein|mol2

> <Gold.PLP.Fitness>
45.0191

> <Gold.PLP.PLP>
-31.3735

> <Gold.PLP.part.hbond>
-4.0000

> <Gold.PLP.part.metal>
0.0000

> <Gold.PLP.part.buried>
-6.0222

> <Gold.PLP.part.nonpolar>
-22.7417

> <Gold.PLP.part.repulsive>
0.2344

> <Gold.PLP.ligand.clash>
0.0000

> <Gold.PLP.ligand.torsion>
1.7421

> <Gold.PLP.Chemscore.Hbond>
4.0000

> <Gold.PLP.Chemscore.CHOScore>
1.0000

> <Gold.PLP.Chemscore.Metal>
0.0000

> <Gold.Chemscore.Hbonds>
donor molecule, donor type, donor heavy atom, donor atom, acceptor molecule, acceptor atom, score
      L1  H    10    34       P1  7948  1.00
      L1  H    13    35       P1  7948  1.00
      P1  H  6896  6907       L1     6  1.00
      P1  H  7997  8010       L1    23  1.00
      L1  C    19    39       P1 10747  0.99

> <Gold.PLP.Chemscore.Internal.Correction>
2.1299

> <Gold.Rescore>
     Score         DG    S(hbond)    S(metal)    S(lipo)     H(rot)  DE(clash)    DE(int)     intcor
     20.25     -23.17       3.81        0.00      76.88       1.57       0.00       2.92       ----

> <Gold.Chemscore.Fitness>
20.2503

> <Gold.Chemscore.DG>
-23.1689

> <Gold.Chemscore.ZeroCoef>
-5.4800

> <Gold.Chemscore.Hbond>
3.8055

> <Gold.Chemscore.Metal>
0.0000

> <Gold.Chemscore.Lipo>
76.8755

> <Gold.Chemscore.Internal_Hbond>
0.0000

> <Gold.Chemscore.DEClash>
0.0021

> <Gold.Chemscore.DEInternal>
2.9164

> <Gold.Chemscore.Rot>
1.5687

> <Gold.Chemscore.Internal.Correction>
   9.000000E+99

> <Gold.Chemscore.Hbonds>
donor molecule, donor type, donor heavy atom, donor atom, acceptor molecule, acceptor atom, score
      L1  H    10    34       P1  7948  0.96
      L1  H    13    35       P1  7948  0.72
      P1  H  6896  6907       L1     6  0.97
      P1  H  7997  8010       L1    23  0.78

> <Gold.Chemscore.Hbond.Weighted>
-12.7104

> <Gold.Chemscore.Metal.Weighted>
-0.0000

> <Gold.Chemscore.Lipo.Weighted>
-8.9944

> <Gold.Chemscore.Internal_Hbond.Weighted>
0.0000

> <Gold.Chemscore.DEClash.Weighted>
0.0021

> <Gold.Chemscore.DEInternal.Weighted>
2.9164

> <Gold.Chemscore.Rot.Weighted>
4.0160

> <Gold.Chemscore.Internal.Correction.Weighted>
   9.000000E+99

> <Gold.Protein.RotatedTorsions>
[ 6907 6896 6895 6894 ] final  -58.44 input  -60.11 | X-H torsion
[ 7974 7965 7964 7962 ] final  152.05 input  175.53 | X-H torsion
[ 8008 7997 7996 7995 ] final   57.76 input   59.86 | X-H torsion
[ 10167 10162 10161 10158 ] final -177.25 input  -65.29 | X-H torsion
[ 10718 10713 10712 10709 ] final  167.95 input   66.30 | X-H torsion
[ 10763 10752 10751 10750 ] final  -53.19 input  -60.55 | X-H torsion
[ 11005 11000 10999 10996 ] final -101.51 input  -57.11 | X-H torsion

> <Gold.Protein.ActiveResidues>
 VAL166  LYS551  ARG553  GLY616  TRP617  ASP618  TYR619  PRO620  LYS621  CYS622 
 ASP623  PHE694  ASN695  SER759  ASP760  ASP761  ALA762  ILE779  LEU786  VAL792 
 PHE793  MET794  SER795  GLU796  ALA797  LYS798  CYS799  TRP800  GLU811  SER814 

> <Gold.Protein.RotatedAtoms>
  150.8006  134.7097  159.6596 H   0  0  0  0  0  0  0  0  0  0  0  0  # atno 6907 bound_to 6896
  152.4123  134.6100  160.0033 H   0  0  0  0  0  0  0  0  0  0  0  0  # atno 6908 bound_to 6896
  151.6339  133.3293  159.3151 H   0  0  0  0  0  0  0  0  0  0  0  0  # atno 6909 bound_to 6896
  144.8249  139.6618  143.6084 H   0  0  0  0  0  0  0  0  0  0  0  0  # atno 7974 bound_to 7965
  155.5391  140.3484  155.4443 H   0  0  0  0  0  0  0  0  0  0  0  0  # atno 8008 bound_to 7997
  156.0664  140.1352  156.9907 H   0  0  0  0  0  0  0  0  0  0  0  0  # atno 8009 bound_to 7997
  154.4505  140.0974  156.6578 H   0  0  0  0  0  0  0  0  0  0  0  0  # atno 8010 bound_to 7997
  139.5489  144.2161  152.1040 H   0  0  0  0  0  0  0  0  0  0  0  0  # atno 10167 bound_to 10162
  157.0441  131.0295  151.2703 H   0  0  0  0  0  0  0  0  0  0  0  0  # atno 10718 bound_to 10713
  154.1548  135.6484  153.4972 H   0  0  0  0  0  0  0  0  0  0  0  0  # atno 10763 bound_to 10752
  153.0127  135.5346  154.6771 H   0  0  0  0  0  0  0  0  0  0  0  0  # atno 10764 bound_to 10752
  154.6069  135.2949  155.0446 H   0  0  0  0  0  0  0  0  0  0  0  0  # atno 10765 bound_to 10752
  141.1228  133.8483  157.1240 H   0  0  0  0  0  0  0  0  0  0  0  0  # atno 11005 bound_to 11000
  146.2555  139.6292  142.9398 LP  0  0  0  0  0  0  0  0  0  0  0  0  # atno 17320 bound_to 7965
  145.5022  141.0437  143.2534 LP  0  0  0  0  0  0  0  0  0  0  0  0  # atno 17321 bound_to 7965
  140.1653  144.4987  150.6609 LP  0  0  0  0  0  0  0  0  0  0  0  0  # atno 17342 bound_to 10162
  140.6746  143.2299  151.5540 LP  0  0  0  0  0  0  0  0  0  0  0  0  # atno 17343 bound_to 10162
  157.5082  130.7922  149.7676 LP  0  0  0  0  0  0  0  0  0  0  0  0  # atno 17370 bound_to 10713
  156.0028  130.3871  150.2540 LP  0  0  0  0  0  0  0  0  0  0  0  0  # atno 17371 bound_to 10713
  140.0199  134.9950  157.0571 LP  0  0  0  0  0  0  0  0  0  0  0  0  # atno 17394 bound_to 11000
  140.4456  134.1635  155.7177 LP  0  0  0  0  0  0  0  0  0  0  0  0  # atno 17395 bound_to 11000

$$$$
