AV-unprocessed.smi:1715|AV-procd|sdf|6913|dock9
  -GOLD-   22720 8113D 1   1.00000     0.00000
 Structure written by MMmdl.
 41 42  0  0  0  0  0  0  0  0  2 V2000
  150.1268  133.9532  155.6827 C   0  0  0  0  0  0  0  0  0  0  0  0
  150.0464  135.2199  154.8236 C   0  0  1  0  0  0  0  0  0  0  0  0
  148.6676  135.9001  154.9164 C   0  0  0  0  0  0  0  0  0  0  0  0
  148.6528  137.1582  154.1327 N   0  3  1  0  0  0  0  0  0  0  0  0
  147.3215  137.8141  154.1465 C   0  0  0  0  0  0  0  0  0  0  0  0
  146.6334  137.7863  152.7676 C   0  0  0  0  0  0  0  0  0  0  0  0
  145.2578  138.2649  152.8455 N   0  0  0  0  0  0  0  0  0  0  0  0
  144.1704  137.4814  152.8101 C   0  0  0  0  0  0  0  0  0  0  0  0
  144.2215  136.2562  152.6994 O   0  0  0  0  0  0  0  0  0  0  0  0
  143.0421  138.2033  152.9080 N   0  0  0  0  0  0  0  0  0  0  0  0
  141.7087  137.7207  152.8973 C   0  0  0  0  0  0  0  0  0  0  0  0
  141.3156  136.4190  153.3112 C   0  0  0  0  0  0  0  0  0  0  0  0
  140.0066  136.2489  153.1943 N   0  0  0  0  0  0  0  0  0  0  0  0
  139.5599  137.4297  152.7105 N   0  0  0  0  0  0  0  0  0  0  0  0
  140.5608  138.3553  152.5134 C   0  0  0  0  0  0  0  0  0  0  0  0
  149.7580  138.0473  154.5682 C   0  0  0  0  0  0  0  0  0  0  0  0
  151.1085  137.3097  154.4880 C   0  0  1  0  0  0  0  0  0  0  0  0
  152.2679  138.1663  155.0080 C   0  0  0  0  0  0  0  0  0  0  0  0
  151.0424  136.1286  155.2791 O   0  0  0  0  0  0  0  0  0  0  0  0
  138.5799  137.5868  152.5225 H   0  0  0  0  0  0  0  0  0  0  0  0
  149.3885  133.2160  155.3664 H   0  0  0  0  0  0  0  0  0  0  0  0
  149.9479  134.1766  156.7348 H   0  0  0  0  0  0  0  0  0  0  0  0
  151.1111  133.4913  155.6037 H   0  0  0  0  0  0  0  0  0  0  0  0
  150.2546  134.9489  153.7870 H   0  0  0  0  0  0  0  0  0  0  0  0
  147.8992  135.2228  154.5412 H   0  0  0  0  0  0  0  0  0  0  0  0
  148.4228  136.1184  155.9574 H   0  0  0  0  0  0  0  0  0  0  0  0
  146.6762  137.2942  154.8563 H   0  0  0  0  0  0  0  0  0  0  0  0
  147.4237  138.8360  154.5154 H   0  0  0  0  0  0  0  0  0  0  0  0
  147.1759  138.3868  152.0367 H   0  0  0  0  0  0  0  0  0  0  0  0
  146.6160  136.7669  152.3809 H   0  0  0  0  0  0  0  0  0  0  0  0
  145.1243  139.2614  152.9397 H   0  0  0  0  0  0  0  0  0  0  0  0
  143.1455  139.2034  152.9996 H   0  0  0  0  0  0  0  0  0  0  0  0
  141.9238  135.6085  153.6849 H   0  0  0  0  0  0  0  0  0  0  0  0
  140.3646  139.3461  152.1315 H   0  0  0  0  0  0  0  0  0  0  0  0
  149.7989  138.9378  153.9417 H   0  0  0  0  0  0  0  0  0  0  0  0
  149.5732  138.3845  155.5896 H   0  0  0  0  0  0  0  0  0  0  0  0
  151.3174  137.0364  153.4520 H   0  0  0  0  0  0  0  0  0  0  0  0
  152.3726  139.0817  154.4253 H   0  0  0  0  0  0  0  0  0  0  0  0
  153.2112  137.6234  154.9456 H   0  0  0  0  0  0  0  0  0  0  0  0
  152.1146  138.4479  156.0503 H   0  0  0  0  0  0  0  0  0  0  0  0
  148.8396  136.8979  153.1747 H   0  0  0  0  0  0  0  0  0  0  0  0
  1  2  1  0  0  0  0
  1 21  1  0  0  0  0
  1 22  1  0  0  0  0
  1 23  1  0  0  0  0
  2 19  1  0  0  0  0
  2  3  1  0  0  0  0
  2 24  1  0  0  0  0
  3  4  1  0  0  0  0
  3 25  1  0  0  0  0
  3 26  1  0  0  0  0
  4  5  1  0  0  0  0
  4 16  1  0  0  0  0
  4 41  1  0  0  0  0
  5  6  1  0  0  0  0
  5 27  1  0  0  0  0
  5 28  1  0  0  0  0
  6  7  1  0  0  0  0
  6 29  1  0  0  0  0
  6 30  1  0  0  0  0
  7  8  1  0  0  0  0
  7 31  1  0  0  0  0
  8  9  2  0  0  0  0
  8 10  1  0  0  0  0
 10 11  1  0  0  0  0
 10 32  1  0  0  0  0
 11 15  2  0  0  0  0
 11 12  1  0  0  0  0
 12 13  2  0  0  0  0
 12 33  1  0  0  0  0
 13 14  1  0  0  0  0
 14 20  1  0  0  0  0
 14 15  1  0  0  0  0
 15 34  1  0  0  0  0
 16 17  1  0  0  0  0
 16 35  1  0  0  0  0
 16 36  1  0  0  0  0
 17 18  1  0  0  0  0
 17 19  1  0  0  0  0
 17 37  1  0  0  0  0
 18 38  1  0  0  0  0
 18 39  1  0  0  0  0
 18 40  1  0  0  0  0
M  CHG  1   4   1
M  END
> <s_m_source_file>
AV-unprocessed.smi

> <i_m_source_file_index>
1715

> <i_lp_mmshare_version>
43012

> <i_f3d_flags>
0

> <s_epik_input>
W0NIM11bQ0BASF0xW0NIMl1OKFtDSDJdW0NASF0oTzEpW0NIM10pW0NIMl1bQ0gyXVtOSF1DKD1PKVtOSF1jMltjSF1uW25IXVtjSF0y

> <s_epik_cmdline>
J2VwaWtfcHl0aG9uJywgJy1waCcsICc3LjAnLCAnLXRuJywgJzgnLCAnLW1hJywgJzIwMCcsICctbWV0YWxfYmluZGluZycsICctaW1hZScsICc8aW5maWxlLm1hZT4nLCAnLW9tYWUnLCAnPG91dGZpbGUubWFlPic=

> <r_lp_tautomer_probability>
0.5

> <r_epik_Ionization_Penalty>
0.646007

> <r_epik_Ionization_Penalty_Charging>
0.645968

> <r_epik_Ionization_Penalty_Neutral>
3.91671e-05

> <r_epik_State_Penalty>
0.664063

> <r_epik_Charging_Adjusted_Penalty>
1.31003

> <i_epik_Tot_Q>
1

> <i_epik_Tot_abs_Q>
1

> <r_epik_Metal_State_Penalty>
0.664064

> <b_epik_Metal_Only>
0

> <s_lp_Force_Field>
OPLS_2005

> <r_lp_Energy>
16.9027

> <b_lp_Chiralities_Consistent>
1

> <s_lp_Variant>
AV-unprocessed.smi:1715-5

> <Gold.Version>
5.8.1

> <Gold.Id.Protein>
6NUR|6NUR_protein|mol2

> <Gold.PLP.Fitness>
43.8217

> <Gold.PLP.PLP>
-28.3786

> <Gold.PLP.part.hbond>
-5.4923

> <Gold.PLP.part.metal>
0.0000

> <Gold.PLP.part.buried>
-3.7877

> <Gold.PLP.part.nonpolar>
-20.1671

> <Gold.PLP.part.repulsive>
0.4500

> <Gold.PLP.ligand.clash>
0.0000

> <Gold.PLP.ligand.torsion>
0.9990

> <Gold.PLP.Chemscore.Hbond>
4.8080

> <Gold.PLP.Chemscore.CHOScore>
1.0000

> <Gold.PLP.Chemscore.Metal>
0.0000

> <Gold.Chemscore.Hbonds>
donor molecule, donor type, donor heavy atom, donor atom, acceptor molecule, acceptor atom, score
      L1  H     4    41       P1  7948  1.66
      L1  H     7    31       P1 10175  0.67
      L1  H    10    32       P1 10175  0.73
      P1  H 10752 10764       L1    19  0.53
      L1  C    15    34       P1 10160  0.23

> <Gold.PLP.Chemscore.Internal.Correction>
0.0171

> <Gold.Rescore>
     Score         DG    S(hbond)    S(metal)    S(lipo)     H(rot)  DE(clash)    DE(int)     intcor
     15.65     -17.79       2.96        0.00      57.19       1.67       0.00       2.15       ----

> <Gold.Chemscore.Fitness>
15.6463

> <Gold.Chemscore.DG>
-17.7921

> <Gold.Chemscore.ZeroCoef>
-5.4800

> <Gold.Chemscore.Hbond>
2.9605

> <Gold.Chemscore.Metal>
0.0000

> <Gold.Chemscore.Lipo>
57.1935

> <Gold.Chemscore.Internal_Hbond>
0.0000

> <Gold.Chemscore.DEClash>
0.0000

> <Gold.Chemscore.DEInternal>
2.1458

> <Gold.Chemscore.Rot>
1.6671

> <Gold.Chemscore.Internal.Correction>
   9.000000E+99

> <Gold.Chemscore.Hbonds>
donor molecule, donor type, donor heavy atom, donor atom, acceptor molecule, acceptor atom, score
      L1  H     4    41       P1  7948  0.82
      L1  H     7    31       P1 10175  0.65
      L1  H    10    32       P1 10175  0.68
      P1  H 10752 10764       L1    19  0.03

> <Gold.Chemscore.Hbond.Weighted>
-9.8882

> <Gold.Chemscore.Metal.Weighted>
-0.0000

> <Gold.Chemscore.Lipo.Weighted>
-6.6916

> <Gold.Chemscore.Internal_Hbond.Weighted>
0.0000

> <Gold.Chemscore.DEClash.Weighted>
0.0000

> <Gold.Chemscore.DEInternal.Weighted>
2.1458

> <Gold.Chemscore.Rot.Weighted>
4.2677

> <Gold.Chemscore.Internal.Correction.Weighted>
   9.000000E+99

> <Gold.Protein.RotatedTorsions>
[ 6907 6896 6895 6894 ] final -137.23 input  -60.11 | X-H torsion
[ 7974 7965 7964 7962 ] final   35.07 input  175.53 | X-H torsion
[ 8008 7997 7996 7995 ] final  -72.47 input   59.86 | X-H torsion
[ 10167 10162 10161 10158 ] final  -13.36 input  -65.29 | X-H torsion
[ 10718 10713 10712 10709 ] final   38.46 input   66.30 | X-H torsion
[ 10763 10752 10751 10750 ] final  -51.25 input  -60.55 | X-H torsion
[ 11005 11000 10999 10996 ] final -139.81 input  -57.11 | X-H torsion

> <Gold.Protein.ActiveResidues>
 VAL166  LYS551  ARG553  GLY616  TRP617  ASP618  TYR619  PRO620  LYS621  CYS622 
 ASP623  PHE694  ASN695  SER759  ASP760  ASP761  ALA762  ILE779  LEU786  VAL792 
 PHE793  MET794  SER795  GLU796  ALA797  LYS798  CYS799  TRP800  GLU811  SER814 

> <Gold.Protein.RotatedAtoms>
  151.0199  133.5887  159.2672 H   0  0  0  0  0  0  0  0  0  0  0  0  # atno 6907 bound_to 6896
  151.3007  135.0767  159.9247 H   0  0  0  0  0  0  0  0  0  0  0  0  # atno 6908 bound_to 6896
  152.5320  133.9881  159.7892 H   0  0  0  0  0  0  0  0  0  0  0  0  # atno 6909 bound_to 6896
  146.1309  139.6189  142.9227 H   0  0  0  0  0  0  0  0  0  0  0  0  # atno 7974 bound_to 7965
  154.5169  140.0796  156.8098 H   0  0  0  0  0  0  0  0  0  0  0  0  # atno 8008 bound_to 7997
  155.3661  140.3420  155.4224 H   0  0  0  0  0  0  0  0  0  0  0  0  # atno 8009 bound_to 7997
  156.1638  140.1597  156.8554 H   0  0  0  0  0  0  0  0  0  0  0  0  # atno 8010 bound_to 7997
  140.7180  143.5434  150.9383 H   0  0  0  0  0  0  0  0  0  0  0  0  # atno 10167 bound_to 10162
  157.3591  130.7640  149.7034 H   0  0  0  0  0  0  0  0  0  0  0  0  # atno 10718 bound_to 10713
  154.1236  135.6531  153.4908 H   0  0  0  0  0  0  0  0  0  0  0  0  # atno 10763 bound_to 10752
  153.0217  135.5276  154.7072 H   0  0  0  0  0  0  0  0  0  0  0  0  # atno 10764 bound_to 10752
  154.6287  135.2973  155.0212 H   0  0  0  0  0  0  0  0  0  0  0  0  # atno 10765 bound_to 10752
  140.8483  134.2317  157.4774 H   0  0  0  0  0  0  0  0  0  0  0  0  # atno 11005 bound_to 11000
  145.5263  141.0429  143.2407 LP  0  0  0  0  0  0  0  0  0  0  0  0  # atno 17320 bound_to 7965
  144.7689  139.6780  143.7203 LP  0  0  0  0  0  0  0  0  0  0  0  0  # atno 17321 bound_to 7965
  139.9157  143.6666  152.3107 LP  0  0  0  0  0  0  0  0  0  0  0  0  # atno 17342 bound_to 10162
  139.7065  144.7627  151.1184 LP  0  0  0  0  0  0  0  0  0  0  0  0  # atno 17343 bound_to 10162
  155.9734  130.4119  150.4004 LP  0  0  0  0  0  0  0  0  0  0  0  0  # atno 17370 bound_to 10713
  157.2078  131.0453  151.2615 LP  0  0  0  0  0  0  0  0  0  0  0  0  # atno 17371 bound_to 10713
  139.8704  134.9670  156.4583 LP  0  0  0  0  0  0  0  0  0  0  0  0  # atno 17394 bound_to 11000
  140.8818  133.7912  155.9475 LP  0  0  0  0  0  0  0  0  0  0  0  0  # atno 17395 bound_to 11000

$$$$
