AV-unprocessed.smi:1160|AV-procd|sdf|4916|dock9
  -GOLD-   22720 3493D 1   1.00000     0.00000
 Structure written by MMmdl.
 44 45  0  0  0  0  0  0  0  0  1 V2000
  145.1061  144.3335  153.1504 C   0  0  0  0  0  0  0  0  0  0  0  0
  145.1916  143.2540  154.2322 C   0  0  0  0  0  0  0  0  0  0  0  0
  146.5559  142.8798  154.3976 O   0  0  0  0  0  0  0  0  0  0  0  0
  146.9469  141.6090  154.0196 C   0  0  0  0  0  0  0  0  0  0  0  0
  146.1203  140.8915  153.2181 N   0  0  0  0  0  0  0  0  0  0  0  0
  146.5032  139.6540  152.8434 C   0  0  0  0  0  0  0  0  0  0  0  0
  147.7220  139.0728  153.2373 C   0  0  0  0  0  0  0  0  0  0  0  0
  148.5812  139.8147  154.0689 C   0  0  0  0  0  0  0  0  0  0  0  0
  148.1867  141.1102  154.4839 C   0  0  0  0  0  0  0  0  0  0  0  0
  148.9772  141.9544  155.3129 N   0  0  0  0  0  0  0  0  0  0  0  0
  150.1440  141.6878  155.9242 C   0  0  0  0  0  0  0  0  0  0  0  0
  150.7681  140.6306  155.8406 O   0  0  0  0  0  0  0  0  0  0  0  0
  150.5449  142.7306  156.6655 N   0  0  0  0  0  0  0  0  0  0  0  0
  151.7507  142.7835  157.4878 C   0  0  0  0  0  0  0  0  0  0  0  0
  151.7624  141.5898  158.4660 C   0  0  0  0  0  0  0  0  0  0  0  0
  152.9059  141.7175  159.4877 C   0  0  0  0  0  0  0  0  0  0  0  0
  152.7740  143.0005  160.1883 N   0  0  0  0  0  0  0  0  0  0  0  0
  152.4041  143.0891  161.4885 C   0  0  0  0  0  0  0  0  0  0  0  0
  152.2349  144.4696  162.1268 C   0  0  0  0  0  0  0  0  0  0  0  0
  152.1957  142.0992  162.1900 O   0  0  0  0  0  0  0  0  0  0  0  0
  152.9572  144.1365  159.2758 C   0  0  0  0  0  0  0  0  0  0  0  0
  151.8197  144.1316  158.2384 C   0  0  0  0  0  0  0  0  0  0  0  0
  144.0731  144.6429  152.9901 H   0  0  0  0  0  0  0  0  0  0  0  0
  145.4966  143.9669  152.2008 H   0  0  0  0  0  0  0  0  0  0  0  0
  145.6805  145.2167  153.4312 H   0  0  0  0  0  0  0  0  0  0  0  0
  144.7875  143.6416  155.1687 H   0  0  0  0  0  0  0  0  0  0  0  0
  144.5920  142.3919  153.9350 H   0  0  0  0  0  0  0  0  0  0  0  0
  145.8202  139.1135  152.2049 H   0  0  0  0  0  0  0  0  0  0  0  0
  147.9944  138.0818  152.9058 H   0  0  0  0  0  0  0  0  0  0  0  0
  149.5248  139.3789  154.3569 H   0  0  0  0  0  0  0  0  0  0  0  0
  148.5603  142.8478  155.5304 H   0  0  0  0  0  0  0  0  0  0  0  0
  149.9614  143.5544  156.6720 H   0  0  0  0  0  0  0  0  0  0  0  0
  152.6426  142.7030  156.8637 H   0  0  0  0  0  0  0  0  0  0  0  0
  150.8122  141.5378  159.0002 H   0  0  0  0  0  0  0  0  0  0  0  0
  151.8578  140.6541  157.9139 H   0  0  0  0  0  0  0  0  0  0  0  0
  152.8960  140.8623  160.1645 H   0  0  0  0  0  0  0  0  0  0  0  0
  153.8702  141.6805  158.9788 H   0  0  0  0  0  0  0  0  0  0  0  0
  151.4747  145.0487  161.6021 H   0  0  0  0  0  0  0  0  0  0  0  0
  153.1756  145.0203  162.1116 H   0  0  0  0  0  0  0  0  0  0  0  0
  151.9220  144.3755  163.1672 H   0  0  0  0  0  0  0  0  0  0  0  0
  152.9934  145.1014  159.7796 H   0  0  0  0  0  0  0  0  0  0  0  0
  153.9196  144.0366  158.7719 H   0  0  0  0  0  0  0  0  0  0  0  0
  151.9598  144.9479  157.5288 H   0  0  0  0  0  0  0  0  0  0  0  0
  150.8733  144.3232  158.7467 H   0  0  0  0  0  0  0  0  0  0  0  0
  1  2  1  0  0  0  0
  1 23  1  0  0  0  0
  1 24  1  0  0  0  0
  1 25  1  0  0  0  0
  2  3  1  0  0  0  0
  2 26  1  0  0  0  0
  2 27  1  0  0  0  0
  3  4  1  0  0  0  0
  4  9  1  0  0  0  0
  4  5  2  0  0  0  0
  5  6  1  0  0  0  0
  6  7  2  0  0  0  0
  6 28  1  0  0  0  0
  7  8  1  0  0  0  0
  7 29  1  0  0  0  0
  8  9  2  0  0  0  0
  8 30  1  0  0  0  0
  9 10  1  0  0  0  0
 10 11  1  0  0  0  0
 10 31  1  0  0  0  0
 11 12  2  0  0  0  0
 11 13  1  0  0  0  0
 13 14  1  0  0  0  0
 13 32  1  0  0  0  0
 14 22  1  0  0  0  0
 14 15  1  0  0  0  0
 14 33  1  0  0  0  0
 15 16  1  0  0  0  0
 15 34  1  0  0  0  0
 15 35  1  0  0  0  0
 16 17  1  0  0  0  0
 16 36  1  0  0  0  0
 16 37  1  0  0  0  0
 17 18  1  0  0  0  0
 17 21  1  0  0  0  0
 18 19  1  0  0  0  0
 18 20  2  0  0  0  0
 19 38  1  0  0  0  0
 19 39  1  0  0  0  0
 19 40  1  0  0  0  0
 21 22  1  0  0  0  0
 21 41  1  0  0  0  0
 21 42  1  0  0  0  0
 22 43  1  0  0  0  0
 22 44  1  0  0  0  0
M  END
> <s_m_source_file>
AV-unprocessed.smi

> <i_m_source_file_index>
1160

> <i_lp_mmshare_version>
43012

> <i_f3d_flags>
0

> <s_epik_input>
W0NIM11bQ0gyXU9jMW5bY0hdW2NIXVtjSF1jMVtOSF1DKD1PKVtOSF1bQ0hdMltDSDJdW0NIMl1OKEMoPU8pW0NIM10pW0NIMl1bQ0gyXTI=

> <s_epik_cmdline>
J2VwaWtfcHl0aG9uJywgJy1waCcsICc3LjAnLCAnLXRuJywgJzgnLCAnLW1hJywgJzIwMCcsICctbWV0YWxfYmluZGluZycsICctaW1hZScsICc8aW5maWxlLm1hZT4nLCAnLW9tYWUnLCAnPG91dGZpbGUubWFlPic=

> <r_lp_tautomer_probability>
1

> <r_epik_Ionization_Penalty>
0.00011666

> <r_epik_Ionization_Penalty_Charging>
0

> <r_epik_Ionization_Penalty_Neutral>
0.00011666

> <r_epik_State_Penalty>
-0

> <r_epik_Charging_Adjusted_Penalty>
0

> <i_epik_Tot_Q>
0

> <i_epik_Tot_abs_Q>
0

> <r_epik_Metal_State_Penalty>
-0

> <b_epik_Metal_Only>
0

> <s_lp_Force_Field>
OPLS_2005

> <r_lp_Energy>
24.4955

> <b_lp_Chiralities_Consistent>
1

> <s_lp_Variant>
AV-unprocessed.smi:1160-1

> <Gold.Version>
5.8.1

> <Gold.Id.Protein>
6NUR|6NUR_protein|mol2

> <Gold.PLP.Fitness>
47.3374

> <Gold.PLP.PLP>
-38.9396

> <Gold.PLP.part.hbond>
-2.9059

> <Gold.PLP.part.metal>
0.0000

> <Gold.PLP.part.buried>
0.0610

> <Gold.PLP.part.nonpolar>
-42.0346

> <Gold.PLP.part.repulsive>
4.1159

> <Gold.PLP.ligand.clash>
0.0000

> <Gold.PLP.ligand.torsion>
0.5980

> <Gold.PLP.Chemscore.Hbond>
2.7475

> <Gold.PLP.Chemscore.CHOScore>
0.4435

> <Gold.PLP.Chemscore.Metal>
0.0000

> <Gold.Chemscore.Hbonds>
donor molecule, donor type, donor heavy atom, donor atom, acceptor molecule, acceptor atom, score
      L1  H    10    31       P1  8028  0.91
      L1  H    13    32       P1  8028  0.94
      P1  H  6933  6945       L1    20  0.65
      L1  C     6    28       P1 10175  0.44

> <Gold.PLP.Chemscore.Internal.Correction>
0.0207

> <Gold.Rescore>
     Score         DG    S(hbond)    S(metal)    S(lipo)     H(rot)  DE(clash)    DE(int)     intcor
     17.46     -24.05       2.83        0.00     109.21       1.43       3.62       2.97       ----

> <Gold.Chemscore.Fitness>
17.4622

> <Gold.Chemscore.DG>
-24.0521

> <Gold.Chemscore.ZeroCoef>
-5.4800

> <Gold.Chemscore.Hbond>
2.8308

> <Gold.Chemscore.Metal>
0.0000

> <Gold.Chemscore.Lipo>
109.2067

> <Gold.Chemscore.Internal_Hbond>
0.0000

> <Gold.Chemscore.DEClash>
3.6185

> <Gold.Chemscore.DEInternal>
2.9713

> <Gold.Chemscore.Rot>
1.4297

> <Gold.Chemscore.Internal.Correction>
   9.000000E+99

> <Gold.Chemscore.Hbonds>
donor molecule, donor type, donor heavy atom, donor atom, acceptor molecule, acceptor atom, score
      L1  H    10    31       P1  8028  0.88
      L1  H    13    32       P1  8028  0.91
      P1  H  6933  6945       L1    20  0.40

> <Gold.Chemscore.Hbond.Weighted>
-9.4549

> <Gold.Chemscore.Metal.Weighted>
-0.0000

> <Gold.Chemscore.Lipo.Weighted>
-12.7772

> <Gold.Chemscore.Internal_Hbond.Weighted>
0.0000

> <Gold.Chemscore.DEClash.Weighted>
3.6185

> <Gold.Chemscore.DEInternal.Weighted>
2.9713

> <Gold.Chemscore.Rot.Weighted>
3.6600

> <Gold.Chemscore.Internal.Correction.Weighted>
   9.000000E+99

> <Gold.Protein.RotatedTorsions>
[ 6907 6896 6895 6894 ] final -152.06 input  -60.11 | X-H torsion
[ 7974 7965 7964 7962 ] final   -3.34 input  175.53 | X-H torsion
[ 8008 7997 7996 7995 ] final  -57.24 input   59.86 | X-H torsion
[ 10167 10162 10161 10158 ] final -147.88 input  -65.29 | X-H torsion
[ 10718 10713 10712 10709 ] final -120.16 input   66.30 | X-H torsion
[ 10763 10752 10751 10750 ] final  145.59 input  -60.55 | X-H torsion
[ 11005 11000 10999 10996 ] final  176.36 input  -57.11 | X-H torsion

> <Gold.Protein.ActiveResidues>
 VAL166  LYS551  ARG553  GLY616  TRP617  ASP618  TYR619  PRO620  LYS621  CYS622 
 ASP623  PHE694  ASN695  SER759  ASP760  ASP761  ALA762  ILE779  LEU786  VAL792 
 PHE793  MET794  SER795  GLU796  ALA797  LYS798  CYS799  TRP800  GLU811  SER814 

> <Gold.Protein.RotatedAtoms>
  151.2222  133.4496  159.2600 H   0  0  0  0  0  0  0  0  0  0  0  0  # atno 6907 bound_to 6896
  151.0874  134.9895  159.8396 H   0  0  0  0  0  0  0  0  0  0  0  0  # atno 6908 bound_to 6896
  152.5431  134.2158  159.8821 H   0  0  0  0  0  0  0  0  0  0  0  0  # atno 6909 bound_to 6896
  146.2391  140.1707  142.8332 H   0  0  0  0  0  0  0  0  0  0  0  0  # atno 7974 bound_to 7965
  154.4260  140.1111  156.5766 H   0  0  0  0  0  0  0  0  0  0  0  0  # atno 8008 bound_to 7997
  155.6156  140.3494  155.4617 H   0  0  0  0  0  0  0  0  0  0  0  0  # atno 8009 bound_to 7997
  156.0064  140.1210  157.0486 H   0  0  0  0  0  0  0  0  0  0  0  0  # atno 8010 bound_to 7997
  139.7582  143.8416  152.2601 H   0  0  0  0  0  0  0  0  0  0  0  0  # atno 10167 bound_to 10162
  156.1237  130.6342  150.9506 H   0  0  0  0  0  0  0  0  0  0  0  0  # atno 10718 bound_to 10713
  154.0078  135.2917  155.3395 H   0  0  0  0  0  0  0  0  0  0  0  0  # atno 10763 bound_to 10752
  154.7121  135.5145  153.8685 H   0  0  0  0  0  0  0  0  0  0  0  0  # atno 10764 bound_to 10752
  153.0736  135.6656  154.0313 H   0  0  0  0  0  0  0  0  0  0  0  0  # atno 10765 bound_to 10752
  140.3723  134.7019  157.4400 H   0  0  0  0  0  0  0  0  0  0  0  0  # atno 11005 bound_to 11000
  145.0014  140.8635  143.5279 LP  0  0  0  0  0  0  0  0  0  0  0  0  # atno 17320 bound_to 7965
  145.1727  139.2395  143.5334 LP  0  0  0  0  0  0  0  0  0  0  0  0  # atno 17321 bound_to 7965
  139.8414  144.7208  150.9326 LP  0  0  0  0  0  0  0  0  0  0  0  0  # atno 17342 bound_to 10162
  140.7805  143.3980  151.1197 LP  0  0  0  0  0  0  0  0  0  0  0  0  # atno 17343 bound_to 10162
  157.6419  131.0909  150.8233 LP  0  0  0  0  0  0  0  0  0  0  0  0  # atno 17370 bound_to 10713
  156.8327  130.5021  149.5330 LP  0  0  0  0  0  0  0  0  0  0  0  0  # atno 17371 bound_to 10713
  140.0542  134.6087  155.8825 LP  0  0  0  0  0  0  0  0  0  0  0  0  # atno 17394 bound_to 11000
  141.1950  133.6585  156.5624 LP  0  0  0  0  0  0  0  0  0  0  0  0  # atno 17395 bound_to 11000

$$$$
