AV-unprocessed.smi:1634|AV-procd|sdf|6538|dock10
  -GOLD-   22720 7223D 1   1.00000     0.00000
 Structure written by MMmdl.
 37 37  0  0  0  0  0  0  0  0  2 V2000
  146.6460  141.5871  155.1156 C   0  0  0  0  0  0  0  0  0  0  0  0
  147.3626  140.2372  155.2676 C   0  0  0  0  0  0  0  0  0  0  0  0
  147.0758  139.6190  156.6451 C   0  0  0  0  0  0  0  0  0  0  0  0
  148.8723  140.3846  155.0198 C   0  0  0  0  0  0  0  0  0  0  0  0
  149.5125  139.1367  155.2655 O   0  0  0  0  0  0  0  0  0  0  0  0
  150.8533  139.0313  154.7937 C   0  0  2  0  0  0  0  0  0  0  0  0
  151.1854  137.5367  154.6721 C   0  0  0  0  0  0  0  0  0  0  0  0
  151.8160  139.7418  155.7591 C   0  0  0  0  0  0  0  0  0  0  0  0
  153.0159  139.7882  155.4888 O   0  0  0  0  0  0  0  0  0  0  0  0
  151.2448  140.2427  156.8722 N   0  0  0  0  0  0  0  0  0  0  0  0
  151.8216  140.9293  157.9546 C   0  0  0  0  0  0  0  0  0  0  0  0
  151.3248  142.0665  158.5163 C   0  0  0  0  0  0  0  0  0  0  0  0
  151.9736  142.7256  159.6435 C   0  0  0  0  0  0  0  0  0  0  0  0
  151.4785  144.0079  160.2868 C   0  0  0  0  0  0  0  0  0  0  0  0
  152.1049  144.2122  161.4450 F   0  0  0  0  0  0  0  0  0  0  0  0
  151.7288  145.0494  159.4937 F   0  0  0  0  0  0  0  0  0  0  0  0
  150.1667  143.9619  160.5205 F   0  0  0  0  0  0  0  0  0  0  0  0
  153.1123  142.0633  160.0560 C   0  0  0  0  0  0  0  0  0  0  0  0
  153.6623  140.9310  159.5663 N   0  5  0  0  0  0  0  0  0  0  0  0
  153.0513  140.3250  158.5094 C   0  0  0  0  0  0  0  0  0  0  0  0
  153.5005  139.2915  158.0127 O   0  0  0  0  0  0  0  0  0  0  0  0
  147.0046  142.3101  155.8491 H   0  0  0  0  0  0  0  0  0  0  0  0
  145.5696  141.4794  155.2526 H   0  0  0  0  0  0  0  0  0  0  0  0
  146.8096  142.0104  154.1241 H   0  0  0  0  0  0  0  0  0  0  0  0
  146.9619  139.5655  154.5072 H   0  0  0  0  0  0  0  0  0  0  0  0
  147.4610  140.2471  157.4488 H   0  0  0  0  0  0  0  0  0  0  0  0
  147.5371  138.6359  156.7430 H   0  0  0  0  0  0  0  0  0  0  0  0
  146.0045  139.4937  156.8048 H   0  0  0  0  0  0  0  0  0  0  0  0
  149.0520  140.6805  153.9853 H   0  0  0  0  0  0  0  0  0  0  0  0
  149.2747  141.1730  155.6573 H   0  0  0  0  0  0  0  0  0  0  0  0
  150.9237  139.4780  153.7997 H   0  0  0  0  0  0  0  0  0  0  0  0
  152.2116  137.3850  154.3358 H   0  0  0  0  0  0  0  0  0  0  0  0
  150.5279  137.0535  153.9491 H   0  0  0  0  0  0  0  0  0  0  0  0
  151.0636  137.0190  155.6245 H   0  0  0  0  0  0  0  0  0  0  0  0
  150.2538  140.0767  156.9733 H   0  0  0  0  0  0  0  0  0  0  0  0
  150.4176  142.5156  158.1495 H   0  0  0  0  0  0  0  0  0  0  0  0
  153.6644  142.5152  160.9078 H   0  0  0  0  0  0  0  0  0  0  0  0
  1  2  1  0  0  0  0
  1 22  1  0  0  0  0
  1 23  1  0  0  0  0
  1 24  1  0  0  0  0
  2  3  1  0  0  0  0
  2  4  1  0  0  0  0
  2 25  1  0  0  0  0
  3 26  1  0  0  0  0
  3 27  1  0  0  0  0
  3 28  1  0  0  0  0
  4  5  1  0  0  0  0
  4 29  1  0  0  0  0
  4 30  1  0  0  0  0
  5  6  1  0  0  0  0
  6  7  1  0  0  0  0
  6  8  1  0  0  0  0
  6 31  1  0  0  0  0
  7 32  1  0  0  0  0
  7 33  1  0  0  0  0
  7 34  1  0  0  0  0
  8  9  2  0  0  0  0
  8 10  1  0  0  0  0
 10 11  1  0  0  0  0
 10 35  1  0  0  0  0
 11 20  1  0  0  0  0
 11 12  2  0  0  0  0
 12 13  1  0  0  0  0
 12 36  1  0  0  0  0
 13 14  1  0  0  0  0
 13 18  2  0  0  0  0
 14 15  1  0  0  0  0
 14 16  1  0  0  0  0
 14 17  1  0  0  0  0
 18 19  1  0  0  0  0
 18 37  1  0  0  0  0
 19 20  1  0  0  0  0
 20 21  2  0  0  0  0
M  CHG  1  19  -1
M  END
> <s_m_source_file>
AV-unprocessed.smi

> <i_m_source_file_index>
1634

> <i_lp_mmshare_version>
43012

> <i_f3d_flags>
0

> <s_epik_input>
W0NIM11bQ0hdKFtDSDNdKVtDSDJdT1tDQEhdKFtDSDNdKUMoPU8pW05IXWMxW2NIXWMoQyhGKShGKUYpW2NIXVtuSF1jMT1P

> <s_epik_cmdline>
J2VwaWtfcHl0aG9uJywgJy1waCcsICc3LjAnLCAnLXRuJywgJzgnLCAnLW1hJywgJzIwMCcsICctbWV0YWxfYmluZGluZycsICctaW1hZScsICc8aW5maWxlLm1hZT4nLCAnLW9tYWUnLCAnPG91dGZpbGUubWFlPic=

> <r_epik_Ionization_Penalty>
2.55349

> <r_epik_Ionization_Penalty_Charging>
0.0582825

> <r_epik_Ionization_Penalty_Neutral>
2.49521

> <r_epik_State_Penalty>
2.65983

> <r_epik_Charging_Adjusted_Penalty>
2.71812

> <i_epik_Tot_Q>
-1

> <i_epik_Tot_abs_Q>
1

> <r_epik_Metal_State_Penalty>
0.516727

> <b_epik_Metal_Only>
0

> <s_lp_Force_Field>
OPLS_2005

> <r_lp_Energy>
22.0513

> <b_lp_Chiralities_Consistent>
1

> <s_lp_Variant>
AV-unprocessed.smi:1634-3

> <Gold.Version>
5.8.1

> <Gold.Id.Protein>
6NUR|6NUR_protein|mol2

> <Gold.PLP.Fitness>
48.4928

> <Gold.PLP.PLP>
-47.6571

> <Gold.PLP.part.hbond>
-2.0000

> <Gold.PLP.part.metal>
0.0000

> <Gold.PLP.part.buried>
-5.2853

> <Gold.PLP.part.nonpolar>
-39.2665

> <Gold.PLP.part.repulsive>
0.2031

> <Gold.PLP.ligand.clash>
0.0014

> <Gold.PLP.ligand.torsion>
1.1530

> <Gold.PLP.Chemscore.Hbond>
1.0208

> <Gold.PLP.Chemscore.CHOScore>
0.0000

> <Gold.PLP.Chemscore.Metal>
0.0000

> <Gold.Chemscore.Hbonds>
donor molecule, donor type, donor heavy atom, donor atom, acceptor molecule, acceptor atom, score
      P1  H  7997  8009       L1    21  0.85
      P1  H  7997  8010       L1     9  0.45

> <Gold.PLP.Chemscore.Internal.Correction>
0.0807

> <Gold.Rescore>
     Score         DG    S(hbond)    S(metal)    S(lipo)     H(rot)  DE(clash)    DE(int)     intcor
      9.52     -13.66       0.68        0.00      88.78       1.75       0.17       3.97       ----

> <Gold.Chemscore.Fitness>
9.5247

> <Gold.Chemscore.DG>
-13.6598

> <Gold.Chemscore.ZeroCoef>
-5.4800

> <Gold.Chemscore.Hbond>
0.6835

> <Gold.Chemscore.Metal>
0.0000

> <Gold.Chemscore.Lipo>
88.7752

> <Gold.Chemscore.Internal_Hbond>
0.0000

> <Gold.Chemscore.DEClash>
0.1650

> <Gold.Chemscore.DEInternal>
3.9701

> <Gold.Chemscore.Rot>
1.7538

> <Gold.Chemscore.Internal.Correction>
   9.000000E+99

> <Gold.Chemscore.Hbonds>
donor molecule, donor type, donor heavy atom, donor atom, acceptor molecule, acceptor atom, score
      P1  H  7997  8009       L1    21  0.14
      P1  H  7997  8010       L1     9  0.46

> <Gold.Chemscore.Hbond.Weighted>
-2.2828

> <Gold.Chemscore.Metal.Weighted>
-0.0000

> <Gold.Chemscore.Lipo.Weighted>
-10.3867

> <Gold.Chemscore.Internal_Hbond.Weighted>
0.0000

> <Gold.Chemscore.DEClash.Weighted>
0.1650

> <Gold.Chemscore.DEInternal.Weighted>
3.9701

> <Gold.Chemscore.Rot.Weighted>
4.4898

> <Gold.Chemscore.Internal.Correction.Weighted>
   9.000000E+99

> <Gold.Protein.RotatedTorsions>
[ 6907 6896 6895 6894 ] final  -10.92 input  -60.11 | X-H torsion
[ 7974 7965 7964 7962 ] final  -17.81 input  175.53 | X-H torsion
[ 8008 7997 7996 7995 ] final  135.39 input   59.86 | X-H torsion
[ 10167 10162 10161 10158 ] final   64.03 input  -65.29 | X-H torsion
[ 10718 10713 10712 10709 ] final  114.61 input   66.30 | X-H torsion
[ 10763 10752 10751 10750 ] final -133.76 input  -60.55 | X-H torsion
[ 11005 11000 10999 10996 ] final   54.22 input  -57.11 | X-H torsion

> <Gold.Protein.ActiveResidues>
 VAL166  LYS551  ARG553  GLY616  TRP617  ASP618  TYR619  PRO620  LYS621  CYS622 
 ASP623  PHE694  ASN695  SER759  ASP760  ASP761  ALA762  ILE779  LEU786  VAL792 
 PHE793  MET794  SER795  GLU796  ALA797  LYS798  CYS799  TRP800  GLU811  SER814 

> <Gold.Protein.RotatedAtoms>
  151.3943  135.0961  159.9535 H   0  0  0  0  0  0  0  0  0  0  0  0  # atno 6907 bound_to 6896
  152.5070  133.8949  159.7423 H   0  0  0  0  0  0  0  0  0  0  0  0  # atno 6908 bound_to 6896
  150.9410  133.6601  159.2819 H   0  0  0  0  0  0  0  0  0  0  0  0  # atno 6909 bound_to 6896
  146.1923  140.3832  142.8453 H   0  0  0  0  0  0  0  0  0  0  0  0  # atno 7974 bound_to 7965
  156.3003  140.2472  156.3573 H   0  0  0  0  0  0  0  0  0  0  0  0  # atno 8008 bound_to 7997
  154.8910  140.0409  157.1857 H   0  0  0  0  0  0  0  0  0  0  0  0  # atno 8009 bound_to 7997
  154.8598  140.2919  155.5550 H   0  0  0  0  0  0  0  0  0  0  0  0  # atno 8010 bound_to 7997
  140.1267  144.4681  150.6889 H   0  0  0  0  0  0  0  0  0  0  0  0  # atno 10167 bound_to 10162
  157.6271  131.1001  150.7211 H   0  0  0  0  0  0  0  0  0  0  0  0  # atno 10718 bound_to 10713
  154.8728  135.3756  154.4625 H   0  0  0  0  0  0  0  0  0  0  0  0  # atno 10763 bound_to 10752
  153.5292  135.7028  153.5697 H   0  0  0  0  0  0  0  0  0  0  0  0  # atno 10764 bound_to 10752
  153.3909  135.3972  155.1887 H   0  0  0  0  0  0  0  0  0  0  0  0  # atno 10765 bound_to 10752
  140.0703  134.5478  155.9053 H   0  0  0  0  0  0  0  0  0  0  0  0  # atno 11005 bound_to 11000
  144.8511  140.7002  143.6168 LP  0  0  0  0  0  0  0  0  0  0  0  0  # atno 17320 bound_to 7965
  145.3754  139.1649  143.4309 LP  0  0  0  0  0  0  0  0  0  0  0  0  # atno 17321 bound_to 7965
  140.6841  143.2341  151.5307 LP  0  0  0  0  0  0  0  0  0  0  0  0  # atno 17342 bound_to 10162
  139.5541  144.2321  152.1581 LP  0  0  0  0  0  0  0  0  0  0  0  0  # atno 17343 bound_to 10162
  156.7557  130.4783  149.5447 LP  0  0  0  0  0  0  0  0  0  0  0  0  # atno 17370 bound_to 10713
  156.1450  130.6270  151.0518 LP  0  0  0  0  0  0  0  0  0  0  0  0  # atno 17371 bound_to 10713
  141.2009  133.6615  156.5923 LP  0  0  0  0  0  0  0  0  0  0  0  0  # atno 17394 bound_to 11000
  140.3636  134.7666  157.4551 LP  0  0  0  0  0  0  0  0  0  0  0  0  # atno 17395 bound_to 11000

$$$$
