AV-unprocessed.smi:782|AV-procd|sdf|3715|dock1
  -GOLD-   22720 1143D 1   1.00000     0.00000
 Structure written by MMmdl.
 41 41  0  0  0  0  0  0  0  0  1 V2000
  151.5471  144.4538  159.1176 C   0  0  0  0  0  0  0  0  0  0  0  0
  152.8353  143.6617  159.3808 C   0  0  0  0  0  0  0  0  0  0  0  0
  152.6764  142.1427  159.1881 C   0  0  0  0  0  0  0  0  0  0  0  0
  151.6518  141.8130  158.2026 N   0  0  0  0  0  0  0  0  0  0  0  0
  151.7034  140.7781  157.3504 C   0  0  0  0  0  0  0  0  0  0  0  0
  152.6509  139.9919  157.3039 O   0  0  0  0  0  0  0  0  0  0  0  0
  150.4905  140.6185  156.4252 C   0  0  0  0  0  0  0  0  0  0  0  0
  150.5479  139.4098  155.6195 N   0  0  0  0  0  0  0  0  0  0  0  0
  149.7829  138.2663  155.7422 C   0  0  0  0  0  0  0  0  0  0  0  0
  150.2143  137.4247  154.7562 C   0  0  0  0  0  0  0  0  0  0  0  0
  149.7718  136.1180  154.4285 N   0  0  0  0  0  0  0  0  0  0  0  0
  149.6027  135.0704  155.2583 C   0  0  0  0  0  0  0  0  0  0  0  0
  149.8268  135.1262  156.4682 O   0  0  0  0  0  0  0  0  0  0  0  0
  149.1104  133.7355  154.6452 C   0  0  0  0  0  0  0  0  0  0  0  0
  150.0701  133.1854  153.5629 C   0  0  0  0  0  0  0  0  0  0  0  0
  147.7228  133.9610  154.0092 C   0  0  0  0  0  0  0  0  0  0  0  0
  148.9812  132.6942  155.7756 C   0  0  0  0  0  0  0  0  0  0  0  0
  151.2398  138.1260  154.0704 C   0  0  0  0  0  0  0  0  0  0  0  0
  151.4395  139.3230  154.6005 N   0  0  0  0  0  0  0  0  0  0  0  0
  151.7233  145.5244  159.2227 H   0  0  0  0  0  0  0  0  0  0  0  0
  150.7590  144.1801  159.8194 H   0  0  0  0  0  0  0  0  0  0  0  0
  151.1753  144.2760  158.1082 H   0  0  0  0  0  0  0  0  0  0  0  0
  153.6145  144.0220  158.7086 H   0  0  0  0  0  0  0  0  0  0  0  0
  153.1895  143.8717  160.3909 H   0  0  0  0  0  0  0  0  0  0  0  0
  153.6206  141.7123  158.8537 H   0  0  0  0  0  0  0  0  0  0  0  0
  152.4440  141.6654  160.1414 H   0  0  0  0  0  0  0  0  0  0  0  0
  150.8373  142.4091  158.1764 H   0  0  0  0  0  0  0  0  0  0  0  0
  149.5777  140.6098  157.0228 H   0  0  0  0  0  0  0  0  0  0  0  0
  150.4274  141.4762  155.7542 H   0  0  0  0  0  0  0  0  0  0  0  0
  149.0219  138.1658  156.5017 H   0  0  0  0  0  0  0  0  0  0  0  0
  149.5704  135.9546  153.4525 H   0  0  0  0  0  0  0  0  0  0  0  0
  149.6911  132.2533  153.1420 H   0  0  0  0  0  0  0  0  0  0  0  0
  151.0603  132.9716  153.9680 H   0  0  0  0  0  0  0  0  0  0  0  0
  150.1892  133.8848  152.7340 H   0  0  0  0  0  0  0  0  0  0  0  0
  147.7652  134.7059  153.2133 H   0  0  0  0  0  0  0  0  0  0  0  0
  146.9887  134.3021  154.7408 H   0  0  0  0  0  0  0  0  0  0  0  0
  147.3351  133.0401  153.5723 H   0  0  0  0  0  0  0  0  0  0  0  0
  148.6257  131.7374  155.3920 H   0  0  0  0  0  0  0  0  0  0  0  0
  148.2774  133.0142  156.5453 H   0  0  0  0  0  0  0  0  0  0  0  0
  149.9408  132.5131  156.2619 H   0  0  0  0  0  0  0  0  0  0  0  0
  151.8360  137.8128  153.2261 H   0  0  0  0  0  0  0  0  0  0  0  0
  1  2  1  0  0  0  0
  1 20  1  0  0  0  0
  1 21  1  0  0  0  0
  1 22  1  0  0  0  0
  2  3  1  0  0  0  0
  2 23  1  0  0  0  0
  2 24  1  0  0  0  0
  3  4  1  0  0  0  0
  3 25  1  0  0  0  0
  3 26  1  0  0  0  0
  4  5  1  0  0  0  0
  4 27  1  0  0  0  0
  5  6  2  0  0  0  0
  5  7  1  0  0  0  0
  7  8  1  0  0  0  0
  7 28  1  0  0  0  0
  7 29  1  0  0  0  0
  8 19  1  0  0  0  0
  8  9  1  0  0  0  0
  9 10  2  0  0  0  0
  9 30  1  0  0  0  0
 10 11  1  0  0  0  0
 10 18  1  0  0  0  0
 11 12  1  0  0  0  0
 11 31  1  0  0  0  0
 12 13  2  0  0  0  0
 12 14  1  0  0  0  0
 14 15  1  0  0  0  0
 14 16  1  0  0  0  0
 14 17  1  0  0  0  0
 15 32  1  0  0  0  0
 15 33  1  0  0  0  0
 15 34  1  0  0  0  0
 16 35  1  0  0  0  0
 16 36  1  0  0  0  0
 16 37  1  0  0  0  0
 17 38  1  0  0  0  0
 17 39  1  0  0  0  0
 17 40  1  0  0  0  0
 18 19  2  0  0  0  0
 18 41  1  0  0  0  0
M  END
> <s_m_source_file>
AV-unprocessed.smi

> <i_m_source_file_index>
782

> <i_lp_mmshare_version>
43012

> <i_f3d_flags>
0

> <s_epik_input>
W0NIM11bQ0gyXVtDSDJdW05IXUMoPU8pW0NIMl1uMVtjSF1jKFtjSF1uMSlbTkhdQyg9TylDKFtDSDNdKShbQ0gzXSlbQ0gzXQ==

> <s_epik_cmdline>
J2VwaWtfcHl0aG9uJywgJy1waCcsICc3LjAnLCAnLXRuJywgJzgnLCAnLW1hJywgJzIwMCcsICctbWV0YWxfYmluZGluZycsICctaW1hZScsICc8aW5maWxlLm1hZT4nLCAnLW9tYWUnLCAnPG91dGZpbGUubWFlPic=

> <r_lp_tautomer_probability>
1

> <r_epik_Ionization_Penalty>
2.67567e-05

> <r_epik_Ionization_Penalty_Charging>
0

> <r_epik_Ionization_Penalty_Neutral>
2.67567e-05

> <r_epik_State_Penalty>
-0

> <r_epik_Charging_Adjusted_Penalty>
0

> <i_epik_Tot_Q>
0

> <i_epik_Tot_abs_Q>
0

> <r_epik_Metal_State_Penalty>
-0

> <b_epik_Metal_Only>
0

> <s_lp_Force_Field>
OPLS_2005

> <r_lp_Energy>
17.0583

> <b_lp_Chiralities_Consistent>
1

> <s_lp_Variant>
AV-unprocessed.smi:782-1

> <Gold.Version>
5.8.1

> <Gold.Id.Protein>
6NUR|6NUR_protein|mol2

> <Gold.PLP.Fitness>
42.9437

> <Gold.PLP.PLP>
-32.8855

> <Gold.PLP.part.hbond>
-3.0000

> <Gold.PLP.part.metal>
0.0000

> <Gold.PLP.part.buried>
-3.3996

> <Gold.PLP.part.nonpolar>
-25.8731

> <Gold.PLP.part.repulsive>
0.2005

> <Gold.PLP.ligand.clash>
0.0000

> <Gold.PLP.ligand.torsion>
0.9535

> <Gold.PLP.Chemscore.Hbond>
3.0000

> <Gold.PLP.Chemscore.CHOScore>
0.8908

> <Gold.PLP.Chemscore.Metal>
0.0000

> <Gold.Chemscore.Hbonds>
donor molecule, donor type, donor heavy atom, donor atom, acceptor molecule, acceptor atom, score
      L1  H    11    31       P1  7948  1.00
      P1  H  7989  7998       L1    19  1.00
      P1  H  7997  8009       L1     6  1.00
      L1  C    18    41       P1  7949  0.76

> <Gold.PLP.Chemscore.Internal.Correction>
0.2927

> <Gold.Rescore>
     Score         DG    S(hbond)    S(metal)    S(lipo)     H(rot)  DE(clash)    DE(int)     intcor
     19.03     -20.04       2.92        0.00      80.19       1.79       0.03       0.97       ----

> <Gold.Chemscore.Fitness>
19.0336

> <Gold.Chemscore.DG>
-20.0354

> <Gold.Chemscore.ZeroCoef>
-5.4800

> <Gold.Chemscore.Hbond>
2.9186

> <Gold.Chemscore.Metal>
0.0000

> <Gold.Chemscore.Lipo>
80.1857

> <Gold.Chemscore.Internal_Hbond>
0.0000

> <Gold.Chemscore.DEClash>
0.0293

> <Gold.Chemscore.DEInternal>
0.9725

> <Gold.Chemscore.Rot>
1.7868

> <Gold.Chemscore.Internal.Correction>
   9.000000E+99

> <Gold.Chemscore.Hbonds>
donor molecule, donor type, donor heavy atom, donor atom, acceptor molecule, acceptor atom, score
      L1  H    11    31       P1  7948  0.25
      P1  H  7989  7998       L1    19  0.94
      P1  H  7997  8009       L1     6  0.99

> <Gold.Chemscore.Hbond.Weighted>
-9.7480

> <Gold.Chemscore.Metal.Weighted>
-0.0000

> <Gold.Chemscore.Lipo.Weighted>
-9.3817

> <Gold.Chemscore.Internal_Hbond.Weighted>
0.0000

> <Gold.Chemscore.DEClash.Weighted>
0.0293

> <Gold.Chemscore.DEInternal.Weighted>
0.9725

> <Gold.Chemscore.Rot.Weighted>
4.5743

> <Gold.Chemscore.Internal.Correction.Weighted>
   9.000000E+99

> <Gold.Protein.RotatedTorsions>
[ 6907 6896 6895 6894 ] final -137.56 input  -60.11 | X-H torsion
[ 7974 7965 7964 7962 ] final -118.30 input  175.53 | X-H torsion
[ 8008 7997 7996 7995 ] final  172.10 input   59.86 | X-H torsion
[ 10167 10162 10161 10158 ] final -114.79 input  -65.29 | X-H torsion
[ 10718 10713 10712 10709 ] final  -54.33 input   66.30 | X-H torsion
[ 10763 10752 10751 10750 ] final  -10.86 input  -60.55 | X-H torsion
[ 11005 11000 10999 10996 ] final  133.73 input  -57.11 | X-H torsion

> <Gold.Protein.ActiveResidues>
 VAL166  LYS551  ARG553  GLY616  TRP617  ASP618  TYR619  PRO620  LYS621  CYS622 
 ASP623  PHE694  ASN695  SER759  ASP760  ASP761  ALA762  ILE779  LEU786  VAL792 
 PHE793  MET794  SER795  GLU796  ALA797  LYS798  CYS799  TRP800  GLU811  SER814 

> <Gold.Protein.RotatedAtoms>
  151.0240  133.5850  159.2667 H   0  0  0  0  0  0  0  0  0  0  0  0  # atno 6907 bound_to 6896
  151.2956  135.0753  159.9230 H   0  0  0  0  0  0  0  0  0  0  0  0  # atno 6908 bound_to 6896
  152.5330  133.9931  159.7914 H   0  0  0  0  0  0  0  0  0  0  0  0  # atno 6909 bound_to 6896
  145.0754  140.8389  143.4070 H   0  0  0  0  0  0  0  0  0  0  0  0  # atno 7974 bound_to 7965
  156.1207  140.1494  156.9208 H   0  0  0  0  0  0  0  0  0  0  0  0  # atno 8008 bound_to 7997
  154.4834  140.0872  156.7471 H   0  0  0  0  0  0  0  0  0  0  0  0  # atno 8009 bound_to 7997
  155.4433  140.3432  155.4294 H   0  0  0  0  0  0  0  0  0  0  0  0  # atno 8010 bound_to 7997
  140.0971  143.4646  152.1835 H   0  0  0  0  0  0  0  0  0  0  0  0  # atno 10167 bound_to 10162
  156.1460  130.4153  150.0023 H   0  0  0  0  0  0  0  0  0  0  0  0  # atno 10718 bound_to 10713
  153.4753  135.7017  153.5969 H   0  0  0  0  0  0  0  0  0  0  0  0  # atno 10763 bound_to 10752
  153.4205  135.3826  155.2108 H   0  0  0  0  0  0  0  0  0  0  0  0  # atno 10764 bound_to 10752
  154.8724  135.3926  154.4196 H   0  0  0  0  0  0  0  0  0  0  0  0  # atno 10765 bound_to 10752
  139.9870  134.9528  156.9766 H   0  0  0  0  0  0  0  0  0  0  0  0  # atno 11005 bound_to 11000
  145.1242  139.2674  143.5573 LP  0  0  0  0  0  0  0  0  0  0  0  0  # atno 17320 bound_to 7965
  146.3530  140.0874  142.8614 LP  0  0  0  0  0  0  0  0  0  0  0  0  # atno 17321 bound_to 7965
  139.5692  144.7453  151.3938 LP  0  0  0  0  0  0  0  0  0  0  0  0  # atno 17342 bound_to 10162
  140.6997  143.7661  150.7384 LP  0  0  0  0  0  0  0  0  0  0  0  0  # atno 17343 bound_to 10162
  156.7895  130.9251  151.3646 LP  0  0  0  0  0  0  0  0  0  0  0  0  # atno 17370 bound_to 10713
  157.6617  130.8971  149.9843 LP  0  0  0  0  0  0  0  0  0  0  0  0  # atno 17371 bound_to 10713
  140.4983  134.1123  155.7245 LP  0  0  0  0  0  0  0  0  0  0  0  0  # atno 17394 bound_to 11000
  141.1533  133.8929  157.2042 LP  0  0  0  0  0  0  0  0  0  0  0  0  # atno 17395 bound_to 11000

$$$$
