AV-unprocessed.smi:3128|AV-procd|sdf|11920|dock1
  -GOLD-   2272017303D 1   1.00000     0.00000
 Structure written by MMmdl.
 39 39  0  0  0  0  0  0  0  0  1 V2000
  152.3510  139.1883  155.1062 C   0  0  0  0  0  0  0  0  0  0  0  0
  151.1500  139.1020  156.0654 C   0  0  0  0  0  0  0  0  0  0  0  0
  150.4157  137.7649  155.8454 C   0  0  0  0  0  0  0  0  0  0  0  0
  150.2013  140.3231  155.9364 C   0  0  2  0  0  0  0  0  0  0  0  0
  149.5506  140.4447  154.5440 C   0  0  0  0  0  0  0  0  0  0  0  0
  150.9287  141.5583  156.2229 N   0  0  0  0  0  0  0  0  0  0  0  0
  150.9246  142.2124  157.3948 C   0  0  0  0  0  0  0  0  0  0  0  0
  150.3182  141.8185  158.3906 O   0  0  0  0  0  0  0  0  0  0  0  0
  151.7037  143.5299  157.4483 C   0  0  0  0  0  0  0  0  0  0  0  0
  150.8488  144.6835  157.7592 N   0  0  0  0  0  0  0  0  0  0  0  0
  150.4137  144.7262  159.1522 C   0  0  0  0  0  0  0  0  0  0  0  0
  151.5861  145.1396  160.0553 C   0  0  0  0  0  0  0  0  0  0  0  0
  152.1915  143.9900  160.7045 N   0  0  0  0  0  0  0  0  0  0  0  0
  152.3464  143.7487  162.0532 C   0  0  0  0  0  0  0  0  0  0  0  0
  152.9937  142.5531  162.1800 C   0  0  0  0  0  0  0  0  0  0  0  0
  153.1955  142.1337  160.8353 C   0  0  0  0  0  0  0  0  0  0  0  0
  152.7135  142.9951  159.9542 N   0  0  0  0  0  0  0  0  0  0  0  0
  152.0243  139.2709  154.0691 H   0  0  0  0  0  0  0  0  0  0  0  0
  152.9799  138.3009  155.1851 H   0  0  0  0  0  0  0  0  0  0  0  0
  152.9874  140.0444  155.3271 H   0  0  0  0  0  0  0  0  0  0  0  0
  151.5459  139.0882  157.0818 H   0  0  0  0  0  0  0  0  0  0  0  0
  149.9528  137.7270  154.8587 H   0  0  0  0  0  0  0  0  0  0  0  0
  149.6339  137.6008  156.5868 H   0  0  0  0  0  0  0  0  0  0  0  0
  151.1039  136.9225  155.9199 H   0  0  0  0  0  0  0  0  0  0  0  0
  149.4069  140.2087  156.6764 H   0  0  0  0  0  0  0  0  0  0  0  0
  148.8957  139.6015  154.3278 H   0  0  0  0  0  0  0  0  0  0  0  0
  150.3033  140.4972  153.7568 H   0  0  0  0  0  0  0  0  0  0  0  0
  148.9369  141.3433  154.4714 H   0  0  0  0  0  0  0  0  0  0  0  0
  151.4525  141.9624  155.4604 H   0  0  0  0  0  0  0  0  0  0  0  0
  152.4581  143.4393  158.2302 H   0  0  0  0  0  0  0  0  0  0  0  0
  152.2438  143.7041  156.5161 H   0  0  0  0  0  0  0  0  0  0  0  0
  150.0416  144.7307  157.1545 H   0  0  0  0  0  0  0  0  0  0  0  0
  149.5971  145.4435  159.2372 H   0  0  0  0  0  0  0  0  0  0  0  0
  150.0248  143.7683  159.4966 H   0  0  0  0  0  0  0  0  0  0  0  0
  152.3499  145.6735  159.4884 H   0  0  0  0  0  0  0  0  0  0  0  0
  151.2351  145.8242  160.8287 H   0  0  0  0  0  0  0  0  0  0  0  0
  151.9936  144.4437  162.8009 H   0  0  0  0  0  0  0  0  0  0  0  0
  153.2828  142.0560  163.0941 H   0  0  0  0  0  0  0  0  0  0  0  0
  153.6759  141.2358  160.4757 H   0  0  0  0  0  0  0  0  0  0  0  0
  1  2  1  0  0  0  0
  1 18  1  0  0  0  0
  1 19  1  0  0  0  0
  1 20  1  0  0  0  0
  2  3  1  0  0  0  0
  2  4  1  0  0  0  0
  2 21  1  0  0  0  0
  3 22  1  0  0  0  0
  3 23  1  0  0  0  0
  3 24  1  0  0  0  0
  4  5  1  0  0  0  0
  4  6  1  0  0  0  0
  4 25  1  0  0  0  0
  5 26  1  0  0  0  0
  5 27  1  0  0  0  0
  5 28  1  0  0  0  0
  6  7  1  0  0  0  0
  6 29  1  0  0  0  0
  7  8  2  0  0  0  0
  7  9  1  0  0  0  0
  9 10  1  0  0  0  0
  9 30  1  0  0  0  0
  9 31  1  0  0  0  0
 10 11  1  0  0  0  0
 10 32  1  0  0  0  0
 11 12  1  0  0  0  0
 11 33  1  0  0  0  0
 11 34  1  0  0  0  0
 12 13  1  0  0  0  0
 12 35  1  0  0  0  0
 12 36  1  0  0  0  0
 13 17  1  0  0  0  0
 13 14  1  0  0  0  0
 14 15  2  0  0  0  0
 14 37  1  0  0  0  0
 15 16  1  0  0  0  0
 15 38  1  0  0  0  0
 16 17  2  0  0  0  0
 16 39  1  0  0  0  0
M  END
> <s_m_source_file>
AV-unprocessed.smi

> <i_m_source_file_index>
3128

> <i_lp_mmshare_version>
43012

> <i_f3d_flags>
0

> <s_epik_input>
W0NIM11bQ0hdKFtDSDNdKVtDQEhdKFtDSDNdKVtOSF1DKD1PKVtDSDJdW05IXVtDSDJdW0NIMl1uMVtjSF1bY0hdW2NIXW4x

> <s_epik_cmdline>
J2VwaWtfcHl0aG9uJywgJy1waCcsICc3LjAnLCAnLXRuJywgJzgnLCAnLW1hJywgJzIwMCcsICctbWV0YWxfYmluZGluZycsICctaW1hZScsICc8aW5maWxlLm1hZT4nLCAnLW9tYWUnLCAnPG91dGZpbGUubWFlPic=

> <r_lp_tautomer_probability>
1

> <r_epik_Ionization_Penalty>
0.724947

> <r_epik_Ionization_Penalty_Charging>
0

> <r_epik_Ionization_Penalty_Neutral>
0.724947

> <r_epik_State_Penalty>
0.747959

> <r_epik_Charging_Adjusted_Penalty>
0.747959

> <i_epik_Tot_Q>
0

> <i_epik_Tot_abs_Q>
0

> <r_epik_Metal_State_Penalty>
0.746178

> <b_epik_Metal_Only>
0

> <s_lp_Force_Field>
OPLS_2005

> <r_lp_Energy>
7.88811

> <b_lp_Chiralities_Consistent>
1

> <s_lp_Variant>
AV-unprocessed.smi:3128-3

> <Gold.Version>
5.8.1

> <Gold.Id.Protein>
6NUR|6NUR_protein|mol2

> <Gold.PLP.Fitness>
43.3296

> <Gold.PLP.PLP>
-41.6172

> <Gold.PLP.part.hbond>
-1.4849

> <Gold.PLP.part.metal>
0.0000

> <Gold.PLP.part.buried>
-4.8474

> <Gold.PLP.part.nonpolar>
-34.7158

> <Gold.PLP.part.repulsive>
0.1662

> <Gold.PLP.ligand.clash>
0.0000

> <Gold.PLP.ligand.torsion>
0.6432

> <Gold.PLP.Chemscore.Hbond>
0.9000

> <Gold.PLP.Chemscore.CHOScore>
0.0000

> <Gold.PLP.Chemscore.Metal>
0.0000

> <Gold.Chemscore.Hbonds>
donor molecule, donor type, donor heavy atom, donor atom, acceptor molecule, acceptor atom, score
      L1  H    10    32       P1  8028  1.00

> <Gold.PLP.Chemscore.Internal.Correction>
0.2988

> <Gold.Rescore>
     Score         DG    S(hbond)    S(metal)    S(lipo)     H(rot)  DE(clash)    DE(int)     intcor
     10.69     -14.89       0.95        0.00     100.16       2.15       1.26       2.93       ----

> <Gold.Chemscore.Fitness>
10.6910

> <Gold.Chemscore.DG>
-14.8866

> <Gold.Chemscore.ZeroCoef>
-5.4800

> <Gold.Chemscore.Hbond>
0.9547

> <Gold.Chemscore.Metal>
0.0000

> <Gold.Chemscore.Lipo>
100.1602

> <Gold.Chemscore.Internal_Hbond>
0.0000

> <Gold.Chemscore.DEClash>
1.2607

> <Gold.Chemscore.DEInternal>
2.9348

> <Gold.Chemscore.Rot>
2.1488

> <Gold.Chemscore.Internal.Correction>
   9.000000E+99

> <Gold.Chemscore.Hbonds>
donor molecule, donor type, donor heavy atom, donor atom, acceptor molecule, acceptor atom, score
      L1  H    10    32       P1  8028  0.26

> <Gold.Chemscore.Hbond.Weighted>
-3.1889

> <Gold.Chemscore.Metal.Weighted>
-0.0000

> <Gold.Chemscore.Lipo.Weighted>
-11.7187

> <Gold.Chemscore.Internal_Hbond.Weighted>
0.0000

> <Gold.Chemscore.DEClash.Weighted>
1.2607

> <Gold.Chemscore.DEInternal.Weighted>
2.9348

> <Gold.Chemscore.Rot.Weighted>
5.5010

> <Gold.Chemscore.Internal.Correction.Weighted>
   9.000000E+99

> <Gold.Protein.RotatedTorsions>
[ 6907 6896 6895 6894 ] final  178.24 input  -60.11 | X-H torsion
[ 7974 7965 7964 7962 ] final -143.75 input  175.53 | X-H torsion
[ 8008 7997 7996 7995 ] final   17.42 input   59.86 | X-H torsion
[ 10167 10162 10161 10158 ] final  -91.73 input  -65.29 | X-H torsion
[ 10718 10713 10712 10709 ] final  -20.92 input   66.30 | X-H torsion
[ 10763 10752 10751 10750 ] final   64.42 input  -60.55 | X-H torsion
[ 11005 11000 10999 10996 ] final  168.06 input  -57.11 | X-H torsion

> <Gold.Protein.ActiveResidues>
 VAL166  LYS551  ARG553  GLY616  TRP617  ASP618  TYR619  PRO620  LYS621  CYS622 
 ASP623  PHE694  ASN695  SER759  ASP760  ASP761  ALA762  ILE779  LEU786  VAL792 
 PHE793  MET794  SER795  GLU796  ALA797  LYS798  CYS799  TRP800  GLU811  SER814 

> <Gold.Protein.RotatedAtoms>
  151.6911  133.3311  159.3242 H   0  0  0  0  0  0  0  0  0  0  0  0  # atno 6907 bound_to 6896
  150.7778  134.6698  159.6394 H   0  0  0  0  0  0  0  0  0  0  0  0  # atno 6908 bound_to 6896
  152.3826  134.6569  160.0189 H   0  0  0  0  0  0  0  0  0  0  0  0  # atno 6909 bound_to 6896
  144.8347  140.5796  143.5492 H   0  0  0  0  0  0  0  0  0  0  0  0  # atno 7974 bound_to 7965
  154.8911  140.2987  155.5370 H   0  0  0  0  0  0  0  0  0  0  0  0  # atno 8008 bound_to 7997
  156.3021  140.2424  156.3862 H   0  0  0  0  0  0  0  0  0  0  0  0  # atno 8009 bound_to 7997
  154.8617  140.0405  157.1658 H   0  0  0  0  0  0  0  0  0  0  0  0  # atno 8010 bound_to 7997
  140.3419  143.2937  151.9825 H   0  0  0  0  0  0  0  0  0  0  0  0  # atno 10167 bound_to 10162
  156.5252  130.4642  149.6576 H   0  0  0  0  0  0  0  0  0  0  0  0  # atno 10718 bound_to 10713
  153.0055  135.5393  154.6507 H   0  0  0  0  0  0  0  0  0  0  0  0  # atno 10763 bound_to 10752
  154.5740  135.2844  155.0801 H   0  0  0  0  0  0  0  0  0  0  0  0  # atno 10764 bound_to 10752
  154.1956  135.6493  153.5125 H   0  0  0  0  0  0  0  0  0  0  0  0  # atno 10765 bound_to 10752
  140.2832  134.7733  157.3776 H   0  0  0  0  0  0  0  0  0  0  0  0  # atno 11005 bound_to 11000
  145.4821  139.1494  143.3756 LP  0  0  0  0  0  0  0  0  0  0  0  0  # atno 17320 bound_to 7965
  146.2647  140.4957  142.8839 LP  0  0  0  0  0  0  0  0  0  0  0  0  # atno 17321 bound_to 7965
  139.4839  144.6149  151.7364 LP  0  0  0  0  0  0  0  0  0  0  0  0  # atno 17342 bound_to 10162
  140.5301  144.0744  150.6050 LP  0  0  0  0  0  0  0  0  0  0  0  0  # atno 17343 bound_to 10162
  156.3112  130.7230  151.2123 LP  0  0  0  0  0  0  0  0  0  0  0  0  # atno 17370 bound_to 10713
  157.7430  131.0481  150.4976 LP  0  0  0  0  0  0  0  0  0  0  0  0  # atno 17371 bound_to 10713
  140.1264  134.5153  155.8141 LP  0  0  0  0  0  0  0  0  0  0  0  0  # atno 17394 bound_to 11000
  141.2159  133.6774  156.6959 LP  0  0  0  0  0  0  0  0  0  0  0  0  # atno 17395 bound_to 11000

$$$$
