AV-unprocessed.smi:2775|AV-procd|sdf|10702|dock2
  -GOLD-   2272015143D 1   1.00000     0.00000
 Structure written by MMmdl.
 43 46  0  0  0  0  0  0  0  0  2 V2000
  147.3089  139.1668  152.7720 C   0  0  0  0  0  0  0  0  0  0  0  0
  148.5500  139.0851  153.6397 C   0  0  0  0  0  0  0  0  0  0  0  0
  149.3000  137.9643  153.5599 N   0  3  0  0  0  0  0  0  0  0  0  0
  150.4200  137.7762  154.2876 C   0  0  0  0  0  0  0  0  0  0  0  0
  150.8567  138.7763  155.1781 C   0  0  0  0  0  0  0  0  0  0  0  0
  150.1136  139.9793  155.2947 C   0  0  0  0  0  0  0  0  0  0  0  0
  150.4610  141.0460  156.1709 N   0  0  0  0  0  0  0  0  0  0  0  0
  151.5552  141.2220  156.9361 C   0  0  0  0  0  0  0  0  0  0  0  0
  152.5260  140.4698  156.9641 O   0  0  0  0  0  0  0  0  0  0  0  0
  151.5170  142.3372  157.6853 N   0  0  0  0  0  0  0  0  0  0  0  0
  152.5365  142.8184  158.6177 C   0  0  2  0  0  0  0  0  0  0  0  0
  152.6415  141.9398  159.8659 C   0  0  1  0  0  0  0  0  0  0  0  0
  153.6617  140.9893  160.3796 C   0  0  0  0  0  0  0  0  0  0  0  0
  153.6559  141.4574  161.8573 C   0  0  0  0  0  0  0  0  0  0  0  0
  152.8663  142.6714  161.8836 O   0  0  0  0  0  0  0  0  0  0  0  0
  153.0244  143.2210  160.5895 C   0  0  2  0  0  0  0  0  0  0  0  0
  152.0235  143.8908  159.6363 C   0  0  0  0  0  0  0  0  0  0  0  0
  150.5473  144.0875  160.0293 C   0  0  0  0  0  0  0  0  0  0  0  0
  150.8667  145.5682  160.2600 C   0  0  0  0  0  0  0  0  0  0  0  0
  152.0984  145.3984  159.3637 C   0  0  0  0  0  0  0  0  0  0  0  0
  148.9381  140.1255  154.5164 C   0  0  0  0  0  0  0  0  0  0  0  0
  147.9794  141.5639  154.6335 Cl  0  0  0  0  0  0  0  0  0  0  0  0
  147.3768  140.0157  152.0908 H   0  0  0  0  0  0  0  0  0  0  0  0
  146.4203  139.2920  153.3915 H   0  0  0  0  0  0  0  0  0  0  0  0
  147.1799  138.2629  152.1751 H   0  0  0  0  0  0  0  0  0  0  0  0
  150.9285  136.8344  154.1406 H   0  0  0  0  0  0  0  0  0  0  0  0
  151.7477  138.5880  155.7554 H   0  0  0  0  0  0  0  0  0  0  0  0
  149.7794  141.7895  156.2212 H   0  0  0  0  0  0  0  0  0  0  0  0
  150.6968  142.9192  157.5909 H   0  0  0  0  0  0  0  0  0  0  0  0
  153.5064  143.0479  158.1681 H   0  0  0  0  0  0  0  0  0  0  0  0
  151.6424  141.5903  160.1524 H   0  0  0  0  0  0  0  0  0  0  0  0
  153.3647  139.9462  160.2681 H   0  0  0  0  0  0  0  0  0  0  0  0
  154.6334  141.1385  159.9070 H   0  0  0  0  0  0  0  0  0  0  0  0
  153.2095  140.7152  162.5196 H   0  0  0  0  0  0  0  0  0  0  0  0
  154.6706  141.6558  162.2051 H   0  0  0  0  0  0  0  0  0  0  0  0
  154.0560  143.5405  160.4081 H   0  0  0  0  0  0  0  0  0  0  0  0
  149.8535  143.9371  159.2013 H   0  0  0  0  0  0  0  0  0  0  0  0
  150.2323  143.5487  160.9233 H   0  0  0  0  0  0  0  0  0  0  0  0
  150.1165  146.2615  159.8784 H   0  0  0  0  0  0  0  0  0  0  0  0
  151.1276  145.7846  161.2971 H   0  0  0  0  0  0  0  0  0  0  0  0
  153.0007  145.8863  159.7333 H   0  0  0  0  0  0  0  0  0  0  0  0
  151.8957  145.6605  158.3254 H   0  0  0  0  0  0  0  0  0  0  0  0
  149.0036  137.2241  152.9231 H   0  0  0  0  0  0  0  0  0  0  0  0
  1  2  1  0  0  0  0
  1 23  1  0  0  0  0
  1 24  1  0  0  0  0
  1 25  1  0  0  0  0
  2 21  1  0  0  0  0
  2  3  2  0  0  0  0
  3  4  1  0  0  0  0
  3 43  1  0  0  0  0
  4  5  2  0  0  0  0
  4 26  1  0  0  0  0
  5  6  1  0  0  0  0
  5 27  1  0  0  0  0
  6  7  1  0  0  0  0
  6 21  2  0  0  0  0
  7  8  1  0  0  0  0
  7 28  1  0  0  0  0
  8  9  2  0  0  0  0
  8 10  1  0  0  0  0
 10 11  1  0  0  0  0
 10 29  1  0  0  0  0
 11 17  1  0  0  0  0
 11 12  1  0  0  0  0
 11 30  1  0  0  0  0
 12 16  1  0  0  0  0
 12 13  1  0  0  0  0
 12 31  1  0  0  0  0
 13 14  1  0  0  0  0
 13 32  1  0  0  0  0
 13 33  1  0  0  0  0
 14 15  1  0  0  0  0
 14 34  1  0  0  0  0
 14 35  1  0  0  0  0
 15 16  1  0  0  0  0
 16 17  1  0  0  0  0
 16 36  1  0  0  0  0
 17 20  1  0  0  0  0
 17 18  1  0  0  0  0
 18 19  1  0  0  0  0
 18 37  1  0  0  0  0
 18 38  1  0  0  0  0
 19 20  1  0  0  0  0
 19 39  1  0  0  0  0
 19 40  1  0  0  0  0
 20 41  1  0  0  0  0
 20 42  1  0  0  0  0
 21 22  1  0  0  0  0
M  CHG  1   3   1
M  END
> <s_m_source_file>
AV-unprocessed.smi

> <i_m_source_file_index>
2775

> <i_lp_mmshare_version>
43012

> <i_f3d_flags>
0

> <s_epik_input>
W0NIM11jMW5bY0hdW2NIXWMoYzFDbClbTkhdQyg9TylbTkhdW0NAQEhdMltDQEhdKFtDSDJdW0NIMl1PMylbQ0BASF0zQzI0W0NIMl1bQ0gyXVtDSDJdNA==

> <s_epik_cmdline>
J2VwaWtfcHl0aG9uJywgJy1waCcsICc3LjAnLCAnLXRuJywgJzgnLCAnLW1hJywgJzIwMCcsICctbWV0YWxfYmluZGluZycsICctaW1hZScsICc8aW5maWxlLm1hZT4nLCAnLW9tYWUnLCAnPG91dGZpbGUubWFlPic=

> <r_epik_Ionization_Penalty>
2.4104

> <r_epik_Ionization_Penalty_Charging>
2.41038

> <r_epik_Ionization_Penalty_Neutral>
1.9872e-05

> <r_epik_State_Penalty>
2.56896

> <r_epik_Charging_Adjusted_Penalty>
4.97934

> <i_epik_Tot_Q>
1

> <i_epik_Tot_abs_Q>
1

> <r_epik_Metal_State_Penalty>
2.57906

> <b_epik_Metal_Only>
0

> <s_lp_Force_Field>
OPLS_2005

> <r_lp_Energy>
84.5881

> <b_lp_Chiralities_Consistent>
1

> <s_lp_Variant>
AV-unprocessed.smi:2775-15

> <Gold.Version>
5.8.1

> <Gold.Id.Protein>
6NUR|6NUR_protein|mol2

> <Gold.PLP.Fitness>
54.1881

> <Gold.PLP.PLP>
-45.4276

> <Gold.PLP.part.hbond>
-1.7578

> <Gold.PLP.part.metal>
0.0000

> <Gold.PLP.part.buried>
-2.1451

> <Gold.PLP.part.nonpolar>
-40.5632

> <Gold.PLP.part.repulsive>
0.2163

> <Gold.PLP.ligand.clash>
0.0000

> <Gold.PLP.ligand.torsion>
0.1721

> <Gold.PLP.Chemscore.Hbond>
2.9280

> <Gold.PLP.Chemscore.CHOScore>
0.0000

> <Gold.PLP.Chemscore.Metal>
0.0000

> <Gold.Chemscore.Hbonds>
donor molecule, donor type, donor heavy atom, donor atom, acceptor molecule, acceptor atom, score
      L1  H     3    43       P1  7948  1.53
      P1  H  7997  8008       L1     9  0.91

> <Gold.PLP.Chemscore.Internal.Correction>
0.3206

> <Gold.Rescore>
     Score         DG    S(hbond)    S(metal)    S(lipo)     H(rot)  DE(clash)    DE(int)     intcor
     21.14     -24.83       1.60        0.00     141.66       1.00       2.43       1.26       ----

> <Gold.Chemscore.Fitness>
21.1372

> <Gold.Chemscore.DG>
-24.8342

> <Gold.Chemscore.ZeroCoef>
-5.4800

> <Gold.Chemscore.Hbond>
1.5989

> <Gold.Chemscore.Metal>
0.0000

> <Gold.Chemscore.Lipo>
141.6575

> <Gold.Chemscore.Internal_Hbond>
0.0000

> <Gold.Chemscore.DEClash>
2.4344

> <Gold.Chemscore.DEInternal>
1.2626

> <Gold.Chemscore.Rot>
1.0000

> <Gold.Chemscore.Internal.Correction>
   9.000000E+99

> <Gold.Chemscore.Hbonds>
donor molecule, donor type, donor heavy atom, donor atom, acceptor molecule, acceptor atom, score
      L1  H     3    43       P1  7948  0.75
      P1  H  7997  8008       L1     9  0.88

> <Gold.Chemscore.Hbond.Weighted>
-5.3402

> <Gold.Chemscore.Metal.Weighted>
-0.0000

> <Gold.Chemscore.Lipo.Weighted>
-16.5739

> <Gold.Chemscore.Internal_Hbond.Weighted>
0.0000

> <Gold.Chemscore.DEClash.Weighted>
2.4344

> <Gold.Chemscore.DEInternal.Weighted>
1.2626

> <Gold.Chemscore.Rot.Weighted>
2.5600

> <Gold.Chemscore.Internal.Correction.Weighted>
   9.000000E+99

> <Gold.Protein.RotatedTorsions>
[ 6907 6896 6895 6894 ] final -168.13 input  -60.11 | X-H torsion
[ 7974 7965 7964 7962 ] final   48.99 input  175.53 | X-H torsion
[ 8008 7997 7996 7995 ] final  -52.34 input   59.86 | X-H torsion
[ 10167 10162 10161 10158 ] final  -42.13 input  -65.29 | X-H torsion
[ 10718 10713 10712 10709 ] final  142.03 input   66.30 | X-H torsion
[ 10763 10752 10751 10750 ] final  -99.36 input  -60.55 | X-H torsion
[ 11005 11000 10999 10996 ] final   57.98 input  -57.11 | X-H torsion

> <Gold.Protein.ActiveResidues>
 VAL166  LYS551  ARG553  GLY616  TRP617  ASP618  TYR619  PRO620  LYS621  CYS622 
 ASP623  PHE694  ASN695  SER759  ASP760  ASP761  ALA762  ILE779  LEU786  VAL792 
 PHE793  MET794  SER795  GLU796  ALA797  LYS798  CYS799  TRP800  GLU811  SER814 

> <Gold.Protein.RotatedAtoms>
  151.4706  133.3570  159.2822 H   0  0  0  0  0  0  0  0  0  0  0  0  # atno 6907 bound_to 6896
  150.8964  134.8374  159.7340 H   0  0  0  0  0  0  0  0  0  0  0  0  # atno 6908 bound_to 6896
  152.4853  134.4621  159.9660 H   0  0  0  0  0  0  0  0  0  0  0  0  # atno 6909 bound_to 6896
  146.0151  139.4587  142.9932 H   0  0  0  0  0  0  0  0  0  0  0  0  # atno 7974 bound_to 7965
  154.4104  140.1226  156.4976 H   0  0  0  0  0  0  0  0  0  0  0  0  # atno 8008 bound_to 7997
  155.6928  140.3495  155.4881 H   0  0  0  0  0  0  0  0  0  0  0  0  # atno 8009 bound_to 7997
  155.9454  140.1095  157.1011 H   0  0  0  0  0  0  0  0  0  0  0  0  # atno 8010 bound_to 7997
  140.6979  143.3055  151.3165 H   0  0  0  0  0  0  0  0  0  0  0  0  # atno 10167 bound_to 10162
  157.3852  131.0997  151.0700 H   0  0  0  0  0  0  0  0  0  0  0  0  # atno 10718 bound_to 10713
  154.7492  135.4975  153.9258 H   0  0  0  0  0  0  0  0  0  0  0  0  # atno 10763 bound_to 10752
  153.1125  135.6712  153.9484 H   0  0  0  0  0  0  0  0  0  0  0  0  # atno 10764 bound_to 10752
  153.9239  135.3085  155.3426 H   0  0  0  0  0  0  0  0  0  0  0  0  # atno 10765 bound_to 10752
  140.0411  134.5871  155.9380 H   0  0  0  0  0  0  0  0  0  0  0  0  # atno 11005 bound_to 11000
  145.7281  141.0052  143.1366 LP  0  0  0  0  0  0  0  0  0  0  0  0  # atno 17320 bound_to 7965
  144.6968  139.8951  143.7455 LP  0  0  0  0  0  0  0  0  0  0  0  0  # atno 17321 bound_to 7965
  139.6459  144.0452  152.2590 LP  0  0  0  0  0  0  0  0  0  0  0  0  # atno 17342 bound_to 10162
  139.9973  144.6319  150.7761 LP  0  0  0  0  0  0  0  0  0  0  0  0  # atno 17343 bound_to 10162
  157.1754  130.6286  149.5654 LP  0  0  0  0  0  0  0  0  0  0  0  0  # atno 17370 bound_to 10713
  155.9785  130.4771  150.6659 LP  0  0  0  0  0  0  0  0  0  0  0  0  # atno 17371 bound_to 10713
  141.1883  133.6562  156.5321 LP  0  0  0  0  0  0  0  0  0  0  0  0  # atno 17394 bound_to 11000
  140.4067  134.7308  157.4812 LP  0  0  0  0  0  0  0  0  0  0  0  0  # atno 17395 bound_to 11000

$$$$
