AV-unprocessed.smi:1013|AV-procd|sdf|4426|dock10
  -GOLD-   22720 2383D 1   1.00000     0.00000
 Structure written by MMmdl.
 30 31  0  0  0  0  0  0  0  0  3 V2000
  151.9196  140.0129  158.1353 O   0  0  0  0  0  0  0  0  0  0  0  0
  151.1901  140.9421  158.5452 C   0  0  0  0  0  0  0  0  0  0  0  0
  151.1529  141.3636  159.7236 O   0  5  0  0  0  0  0  0  0  0  0  0
  150.2583  141.6037  157.5125 C   0  0  2  0  0  0  0  0  0  0  0  0
  150.2638  140.8230  156.1782 C   0  0  0  0  0  0  0  0  0  0  0  0
  149.0169  140.9578  155.4440 N   0  0  0  0  0  0  0  0  0  0  0  0
  148.6707  140.4003  154.2321 C   0  0  0  0  0  0  0  0  0  0  0  0
  147.4007  140.8102  153.9453 C   0  0  0  0  0  0  0  0  0  0  0  0
  147.0398  141.6250  155.0578 C   0  0  0  0  0  0  0  0  0  0  0  0
  145.7461  142.3569  155.2997 C   0  0  0  0  0  0  0  0  0  0  0  0
  144.7359  141.4916  155.3897 F   0  0  0  0  0  0  0  0  0  0  0  0
  145.8207  143.0476  156.4373 F   0  0  0  0  0  0  0  0  0  0  0  0
  145.5022  143.1980  154.2950 F   0  0  0  0  0  0  0  0  0  0  0  0
  148.0130  141.7005  155.9557 N   0  0  0  0  0  0  0  0  0  0  0  0
  150.6955  142.9978  157.2799 N   0  3  0  0  0  0  0  0  0  0  0  0
  150.8428  143.8102  158.5053 C   0  0  0  0  0  0  0  0  0  0  0  0
  151.6955  145.0413  158.3216 C   0  0  0  0  0  0  0  0  0  0  0  0
  152.2542  143.8290  159.0377 C   0  0  0  0  0  0  0  0  0  0  0  0
  149.2353  141.6330  157.8940 H   0  0  0  0  0  0  0  0  0  0  0  0
  151.0616  141.1970  155.5355 H   0  0  0  0  0  0  0  0  0  0  0  0
  150.4760  139.7643  156.3408 H   0  0  0  0  0  0  0  0  0  0  0  0
  149.3507  139.7704  153.6781 H   0  0  0  0  0  0  0  0  0  0  0  0
  146.8163  140.5668  153.0706 H   0  0  0  0  0  0  0  0  0  0  0  0
  151.5804  142.9680  156.7931 H   0  0  0  0  0  0  0  0  0  0  0  0
  150.0028  143.8059  159.1975 H   0  0  0  0  0  0  0  0  0  0  0  0
  152.0755  145.2590  157.3249 H   0  0  0  0  0  0  0  0  0  0  0  0
  151.4547  145.9121  158.9281 H   0  0  0  0  0  0  0  0  0  0  0  0
  152.3834  143.9034  160.1155 H   0  0  0  0  0  0  0  0  0  0  0  0
  153.0110  143.2436  158.5181 H   0  0  0  0  0  0  0  0  0  0  0  0
  150.0127  143.4489  156.6892 H   0  0  0  0  0  0  0  0  0  0  0  0
  1  2  2  0  0  0  0
  2  3  1  0  0  0  0
  2  4  1  0  0  0  0
  4  5  1  0  0  0  0
  4 15  1  0  0  0  0
  4 19  1  0  0  0  0
  5  6  1  0  0  0  0
  5 20  1  0  0  0  0
  5 21  1  0  0  0  0
  6 14  1  0  0  0  0
  6  7  1  0  0  0  0
  7  8  2  0  0  0  0
  7 22  1  0  0  0  0
  8  9  1  0  0  0  0
  8 23  1  0  0  0  0
  9 10  1  0  0  0  0
  9 14  2  0  0  0  0
 10 11  1  0  0  0  0
 10 12  1  0  0  0  0
 10 13  1  0  0  0  0
 15 16  1  0  0  0  0
 15 24  1  0  0  0  0
 15 30  1  0  0  0  0
 16 18  1  0  0  0  0
 16 17  1  0  0  0  0
 16 25  1  0  0  0  0
 17 18  1  0  0  0  0
 17 26  1  0  0  0  0
 17 27  1  0  0  0  0
 18 28  1  0  0  0  0
 18 29  1  0  0  0  0
M  CHG  1   3  -1
M  CHG  1  15   1
M  END
> <s_m_source_file>
AV-unprocessed.smi

> <i_m_source_file_index>
1013

> <i_lp_mmshare_version>
43012

> <i_f3d_flags>
0

> <s_epik_input>
W0NIMl0xW0NIMl1bQ0hdMVtOSF1bQ0BIXShDKD1PKVtPSF0pW0NIMl1uMltjSF1bY0hdYyhuMilDKEYpKEYpRg==

> <s_epik_cmdline>
J2VwaWtfcHl0aG9uJywgJy1waCcsICc3LjAnLCAnLXRuJywgJzgnLCAnLW1hJywgJzIwMCcsICctbWV0YWxfYmluZGluZycsICctaW1hZScsICc8aW5maWxlLm1hZT4nLCAnLW9tYWUnLCAnPG91dGZpbGUubWFlPic=

> <r_lp_tautomer_probability>
1

> <r_epik_Ionization_Penalty>
0.183175

> <r_epik_Ionization_Penalty_Charging>
0.183175

> <r_epik_Ionization_Penalty_Neutral>
3.57035e-11

> <r_epik_State_Penalty>
0.172705

> <r_epik_Charging_Adjusted_Penalty>
0.35588

> <i_epik_Tot_Q>
0

> <i_epik_Tot_abs_Q>
2

> <r_epik_Metal_State_Penalty>
0.172705

> <b_epik_Metal_Only>
0

> <s_lp_Force_Field>
OPLS_2005

> <r_lp_Energy>
11.6824

> <b_lp_Chiralities_Consistent>
1

> <s_lp_Variant>
AV-unprocessed.smi:1013-1

> <Gold.Version>
5.8.1

> <Gold.Id.Protein>
6NUR|6NUR_protein|mol2

> <Gold.PLP.Fitness>
50.2839

> <Gold.PLP.PLP>
-36.2455

> <Gold.PLP.part.hbond>
-2.0000

> <Gold.PLP.part.metal>
0.0000

> <Gold.PLP.part.buried>
-3.4032

> <Gold.PLP.part.nonpolar>
-31.3733

> <Gold.PLP.part.repulsive>
1.6104

> <Gold.PLP.ligand.clash>
0.0000

> <Gold.PLP.ligand.torsion>
0.8166

> <Gold.PLP.Chemscore.Hbond>
4.0000

> <Gold.PLP.Chemscore.CHOScore>
1.0000

> <Gold.PLP.Chemscore.Metal>
0.0000

> <Gold.Chemscore.Hbonds>
donor molecule, donor type, donor heavy atom, donor atom, acceptor molecule, acceptor atom, score
      L1  H    15    30       P1  8028  2.00
      L1  C     7    22       P1  7957  0.79

> <Gold.PLP.Chemscore.Internal.Correction>
0.6716

> <Gold.Rescore>
     Score         DG    S(hbond)    S(metal)    S(lipo)     H(rot)  DE(clash)    DE(int)     intcor
     11.52     -13.88       1.96        0.00      72.65       2.60       0.03       2.33       ----

> <Gold.Chemscore.Fitness>
11.5225

> <Gold.Chemscore.DG>
-13.8791

> <Gold.Chemscore.ZeroCoef>
-5.4800

> <Gold.Chemscore.Hbond>
1.9605

> <Gold.Chemscore.Metal>
0.0000

> <Gold.Chemscore.Lipo>
72.6453

> <Gold.Chemscore.Internal_Hbond>
0.0000

> <Gold.Chemscore.DEClash>
0.0272

> <Gold.Chemscore.DEInternal>
2.3293

> <Gold.Chemscore.Rot>
2.5970

> <Gold.Chemscore.Internal.Correction>
   9.000000E+99

> <Gold.Chemscore.Hbonds>
donor molecule, donor type, donor heavy atom, donor atom, acceptor molecule, acceptor atom, score
      L1  H    15    30       P1  8028  0.98

> <Gold.Chemscore.Hbond.Weighted>
-6.5480

> <Gold.Chemscore.Metal.Weighted>
-0.0000

> <Gold.Chemscore.Lipo.Weighted>
-8.4995

> <Gold.Chemscore.Internal_Hbond.Weighted>
0.0000

> <Gold.Chemscore.DEClash.Weighted>
0.0272

> <Gold.Chemscore.DEInternal.Weighted>
2.3293

> <Gold.Chemscore.Rot.Weighted>
6.6484

> <Gold.Chemscore.Internal.Correction.Weighted>
   9.000000E+99

> <Gold.Protein.RotatedTorsions>
[ 6907 6896 6895 6894 ] final  126.72 input  -60.11 | X-H torsion
[ 7974 7965 7964 7962 ] final -178.88 input  175.53 | X-H torsion
[ 8008 7997 7996 7995 ] final   64.84 input   59.86 | X-H torsion
[ 10167 10162 10161 10158 ] final -143.94 input  -65.29 | X-H torsion
[ 10718 10713 10712 10709 ] final -146.72 input   66.30 | X-H torsion
[ 10763 10752 10751 10750 ] final -148.29 input  -60.55 | X-H torsion
[ 11005 11000 10999 10996 ] final   31.47 input  -57.11 | X-H torsion

> <Gold.Protein.ActiveResidues>
 VAL166  LYS551  ARG553  GLY616  TRP617  ASP618  TYR619  PRO620  LYS621  CYS622 
 ASP623  PHE694  ASN695  SER759  ASP760  ASP761  ALA762  ILE779  LEU786  VAL792 
 PHE793  MET794  SER795  GLU796  ALA797  LYS798  CYS799  TRP800  GLU811  SER814 

> <Gold.Protein.RotatedAtoms>
  152.3878  133.6636  159.6212 H   0  0  0  0  0  0  0  0  0  0  0  0  # atno 6907 bound_to 6896
  150.7793  133.9005  159.3349 H   0  0  0  0  0  0  0  0  0  0  0  0  # atno 6908 bound_to 6896
  151.6798  135.0965  160.0265 H   0  0  0  0  0  0  0  0  0  0  0  0  # atno 6909 bound_to 6896
  144.7133  140.0802  143.6426 H   0  0  0  0  0  0  0  0  0  0  0  0  # atno 7974 bound_to 7965
  155.6523  140.3497  155.4753 H   0  0  0  0  0  0  0  0  0  0  0  0  # atno 8008 bound_to 7997
  155.9837  140.1179  157.0726 H   0  0  0  0  0  0  0  0  0  0  0  0  # atno 8009 bound_to 7997
  154.4199  140.1133  156.5457 H   0  0  0  0  0  0  0  0  0  0  0  0  # atno 8010 bound_to 7997
  139.7945  143.7919  152.2653 H   0  0  0  0  0  0  0  0  0  0  0  0  # atno 10167 bound_to 10162
  156.3984  130.7921  151.2130 H   0  0  0  0  0  0  0  0  0  0  0  0  # atno 10718 bound_to 10713
  154.8241  135.3338  154.6950 H   0  0  0  0  0  0  0  0  0  0  0  0  # atno 10763 bound_to 10752
  153.7579  135.6934  153.4936 H   0  0  0  0  0  0  0  0  0  0  0  0  # atno 10764 bound_to 10752
  153.2131  135.4475  155.0352 H   0  0  0  0  0  0  0  0  0  0  0  0  # atno 10765 bound_to 10752
  140.2835  134.2945  155.7794 H   0  0  0  0  0  0  0  0  0  0  0  0  # atno 11005 bound_to 11000
  145.9708  139.2869  143.1100 LP  0  0  0  0  0  0  0  0  0  0  0  0  # atno 17320 bound_to 7965
  145.9118  140.9175  143.0450 LP  0  0  0  0  0  0  0  0  0  0  0  0  # atno 17321 bound_to 7965
  139.8020  144.7370  150.9812 LP  0  0  0  0  0  0  0  0  0  0  0  0  # atno 17342 bound_to 10162
  140.7820  143.4335  151.0658 LP  0  0  0  0  0  0  0  0  0  0  0  0  # atno 17343 bound_to 10162
  157.7503  131.0294  150.4092 LP  0  0  0  0  0  0  0  0  0  0  0  0  # atno 17370 bound_to 10713
  156.4366  130.3983  149.6724 LP  0  0  0  0  0  0  0  0  0  0  0  0  # atno 17371 bound_to 10713
  141.2158  133.7540  156.9517 LP  0  0  0  0  0  0  0  0  0  0  0  0  # atno 17394 bound_to 11000
  140.1261  134.9386  157.2272 LP  0  0  0  0  0  0  0  0  0  0  0  0  # atno 17395 bound_to 11000

$$$$
