AV-unprocessed.smi:276|AV-procd|sdf|2073|dock5
  -GOLD-   2262021333D 1   1.00000     0.00000
 Structure written by MMmdl.
 57 61  0  0  0  0  0  0  0  0  1 V2000
  145.2525  133.9986  151.1601 C   0  0  0  0  0  0  0  0  0  0  0  0
  145.4508  134.4189  152.4984 O   0  0  0  0  0  0  0  0  0  0  0  0
  146.0723  135.6914  152.5839 C   0  0  1  0  0  0  0  0  0  0  0  0
  145.1613  136.8711  152.2227 C   0  0  0  0  0  0  0  0  0  0  0  0
  145.7674  137.6483  153.4079 C   0  0  2  0  0  0  0  0  0  0  0  0
  146.9029  138.4808  152.9840 N   0  0  0  0  0  0  0  0  0  0  0  0
  146.8719  138.9558  151.6045 C   0  0  0  0  0  0  0  0  0  0  0  0
  147.2176  139.5045  153.8082 C   0  0  0  0  0  0  0  0  0  0  0  0
  146.2079  140.3317  154.1758 N   0  0  0  0  0  0  0  0  0  0  0  0
  146.4576  141.3809  154.9647 C   0  0  0  0  0  0  0  0  0  0  0  0
  147.6215  141.7762  155.4850 N   0  0  0  0  0  0  0  0  0  0  0  0
  148.6353  140.9353  155.1301 C   0  0  0  0  0  0  0  0  0  0  0  0
  148.5218  139.7764  154.3122 C   0  0  0  0  0  0  0  0  0  0  0  0
  149.7633  139.1652  154.1833 N   0  0  0  0  0  0  0  0  0  0  0  0
  150.5683  139.9301  154.8682 C   0  0  0  0  0  0  0  0  0  0  0  0
  149.9788  141.0313  155.4466 N   0  0  0  0  0  0  0  0  0  0  0  0
  150.6396  142.0524  156.2392 C   0  0  0  0  0  0  0  0  0  0  0  0
  151.1092  141.5537  157.6258 C   0  0  2  0  0  0  0  0  0  0  0  0
  149.9269  141.3441  158.3711 O   0  0  0  0  0  0  0  0  0  0  0  0
  151.9881  142.5410  158.4305 C   0  0  2  0  0  0  0  0  0  0  0  0
  152.3075  142.1438  159.8772 C   0  0  0  0  0  0  0  0  0  0  0  0
  152.4755  143.4662  160.6096 C   0  0  0  0  0  0  0  0  0  0  0  0
  151.9781  144.5064  159.6083 C   0  0  0  0  0  0  0  0  0  0  0  0
  151.2689  143.7483  158.6412 O   0  0  0  0  0  0  0  0  0  0  0  0
  146.1303  136.2628  154.0118 C   0  0  0  0  0  0  0  0  0  0  0  0
  145.2366  135.6647  155.1142 C   0  0  0  0  0  0  0  0  0  0  0  0
  146.4613  134.8943  155.6145 C   0  0  0  0  0  0  0  0  0  0  0  0
  147.3245  135.9620  154.9389 C   0  0  0  0  0  0  0  0  0  0  0  0
  144.7809  133.0161  151.1515 H   0  0  0  0  0  0  0  0  0  0  0  0
  146.2012  133.9214  150.6278 H   0  0  0  0  0  0  0  0  0  0  0  0
  144.6029  134.6877  150.6193 H   0  0  0  0  0  0  0  0  0  0  0  0
  147.0448  135.7378  152.0891 H   0  0  0  0  0  0  0  0  0  0  0  0
  145.3348  137.2790  151.2275 H   0  0  0  0  0  0  0  0  0  0  0  0
  144.1043  136.6448  152.3735 H   0  0  0  0  0  0  0  0  0  0  0  0
  145.0077  138.1869  153.9746 H   0  0  0  0  0  0  0  0  0  0  0  0
  147.6322  139.7161  151.4189 H   0  0  0  0  0  0  0  0  0  0  0  0
  145.8981  139.3860  151.3684 H   0  0  0  0  0  0  0  0  0  0  0  0
  147.0606  138.1381  150.9098 H   0  0  0  0  0  0  0  0  0  0  0  0
  145.6036  141.9961  155.2073 H   0  0  0  0  0  0  0  0  0  0  0  0
  151.6243  139.7193  154.9567 H   0  0  0  0  0  0  0  0  0  0  0  0
  151.4824  142.4547  155.6757 H   0  0  0  0  0  0  0  0  0  0  0  0
  149.9294  142.8719  156.3586 H   0  0  0  0  0  0  0  0  0  0  0  0
  151.6207  140.5961  157.5228 H   0  0  0  0  0  0  0  0  0  0  0  0
  149.1937  141.6604  157.8657 H   0  0  0  0  0  0  0  0  0  0  0  0
  152.9155  142.7579  157.8962 H   0  0  0  0  0  0  0  0  0  0  0  0
  151.4728  141.5975  160.3177 H   0  0  0  0  0  0  0  0  0  0  0  0
  153.1981  141.5205  159.9509 H   0  0  0  0  0  0  0  0  0  0  0  0
  151.8762  143.4766  161.5203 H   0  0  0  0  0  0  0  0  0  0  0  0
  153.5138  143.6519  160.8863 H   0  0  0  0  0  0  0  0  0  0  0  0
  151.3412  145.2629  160.0673 H   0  0  0  0  0  0  0  0  0  0  0  0
  152.8172  145.0110  159.1270 H   0  0  0  0  0  0  0  0  0  0  0  0
  144.8952  136.4151  155.8295 H   0  0  0  0  0  0  0  0  0  0  0  0
  144.4118  135.0414  154.7681 H   0  0  0  0  0  0  0  0  0  0  0  0
  146.5586  134.8433  156.6988 H   0  0  0  0  0  0  0  0  0  0  0  0
  146.5629  133.9119  155.1507 H   0  0  0  0  0  0  0  0  0  0  0  0
  148.2138  135.5815  154.4362 H   0  0  0  0  0  0  0  0  0  0  0  0
  147.5664  136.7660  155.6328 H   0  0  0  0  0  0  0  0  0  0  0  0
  1  2  1  0  0  0  0
  1 29  1  0  0  0  0
  1 30  1  0  0  0  0
  1 31  1  0  0  0  0
  2  3  1  0  0  0  0
  3 25  1  0  0  0  0
  3  4  1  0  0  0  0
  3 32  1  0  0  0  0
  4  5  1  0  0  0  0
  4 33  1  0  0  0  0
  4 34  1  0  0  0  0
  5  6  1  0  0  0  0
  5 25  1  0  0  0  0
  5 35  1  0  0  0  0
  6  7  1  0  0  0  0
  6  8  1  0  0  0  0
  7 36  1  0  0  0  0
  7 37  1  0  0  0  0
  7 38  1  0  0  0  0
  8 13  1  0  0  0  0
  8  9  2  0  0  0  0
  9 10  1  0  0  0  0
 10 11  2  0  0  0  0
 10 39  1  0  0  0  0
 11 12  1  0  0  0  0
 12 16  1  0  0  0  0
 12 13  2  0  0  0  0
 13 14  1  0  0  0  0
 14 15  2  0  0  0  0
 15 16  1  0  0  0  0
 15 40  1  0  0  0  0
 16 17  1  0  0  0  0
 17 18  1  0  0  0  0
 17 41  1  0  0  0  0
 17 42  1  0  0  0  0
 18 19  1  0  0  0  0
 18 20  1  0  0  0  0
 18 43  1  0  0  0  0
 19 44  1  0  0  0  0
 20 24  1  0  0  0  0
 20 21  1  0  0  0  0
 20 45  1  0  0  0  0
 21 22  1  0  0  0  0
 21 46  1  0  0  0  0
 21 47  1  0  0  0  0
 22 23  1  0  0  0  0
 22 48  1  0  0  0  0
 22 49  1  0  0  0  0
 23 24  1  0  0  0  0
 23 50  1  0  0  0  0
 23 51  1  0  0  0  0
 25 28  1  0  0  0  0
 25 26  1  0  0  0  0
 26 27  1  0  0  0  0
 26 52  1  0  0  0  0
 26 53  1  0  0  0  0
 27 28  1  0  0  0  0
 27 54  1  0  0  0  0
 27 55  1  0  0  0  0
 28 56  1  0  0  0  0
 28 57  1  0  0  0  0
M  END
> <s_m_source_file>
AV-unprocessed.smi

> <i_m_source_file_index>
276

> <i_lp_mmshare_version>
43012

> <i_f3d_flags>
0

> <s_epik_input>
W0NIMl0xW0NIMl1bQ0gyXUMxMltDQEhdKE9bQ0gzXSlbQ0gyXVtDQEhdMk4oW0NIM10pYyhuW2NIXW4zKWMoYzM0KW5bY0hdbjRbQ0gyXVtDQEhdKFtPSF0pW0NAQEhdNVtDSDJdW0NIMl1bQ0gyXU81

> <s_epik_cmdline>
J2VwaWtfcHl0aG9uJywgJy1waCcsICc3LjAnLCAnLXRuJywgJzgnLCAnLW1hJywgJzIwMCcsICctbWV0YWxfYmluZGluZycsICctaW1hZScsICc8aW5maWxlLm1hZT4nLCAnLW9tYWUnLCAnPG91dGZpbGUubWFlPic=

> <r_lp_tautomer_probability>
1

> <r_epik_Ionization_Penalty>
0.00204117

> <r_epik_Ionization_Penalty_Charging>
0

> <r_epik_Ionization_Penalty_Neutral>
0.00204117

> <r_epik_State_Penalty>
0.00127401

> <r_epik_Charging_Adjusted_Penalty>
0.00127401

> <i_epik_Tot_Q>
0

> <i_epik_Tot_abs_Q>
0

> <r_epik_Metal_State_Penalty>
-0

> <b_epik_Metal_Only>
0

> <s_lp_Force_Field>
OPLS_2005

> <r_lp_Energy>
57.8978

> <b_lp_Chiralities_Consistent>
1

> <s_lp_Variant>
AV-unprocessed.smi:276-4

> <Gold.Version>
5.8.1

> <Gold.Id.Protein>
6NUR|6NUR_protein|mol2

> <Gold.PLP.Fitness>
37.7553

> <Gold.PLP.PLP>
-40.1403

> <Gold.PLP.part.hbond>
0.0000

> <Gold.PLP.part.metal>
0.0000

> <Gold.PLP.part.buried>
-3.3465

> <Gold.PLP.part.nonpolar>
-38.3175

> <Gold.PLP.part.repulsive>
1.3329

> <Gold.PLP.ligand.clash>
0.0000

> <Gold.PLP.ligand.torsion>
1.6097

> <Gold.PLP.Chemscore.Hbond>
0.0000

> <Gold.PLP.Chemscore.CHOScore>
0.0000

> <Gold.PLP.Chemscore.Metal>
0.0000

> <Gold.PLP.Chemscore.Internal.Correction>
0.8344

> <Gold.Rescore>
     Score         DG    S(hbond)    S(metal)    S(lipo)     H(rot)  DE(clash)    DE(int)     intcor
      7.78      -9.22       0.00        0.00      91.45       2.72       0.05       1.39       ----

> <Gold.Chemscore.Fitness>
7.7818

> <Gold.Chemscore.DG>
-9.2238

> <Gold.Chemscore.ZeroCoef>
-5.4800

> <Gold.Chemscore.Hbond>
0.0000

> <Gold.Chemscore.Metal>
0.0000

> <Gold.Chemscore.Lipo>
91.4516

> <Gold.Chemscore.Internal_Hbond>
0.0000

> <Gold.Chemscore.DEClash>
0.0519

> <Gold.Chemscore.DEInternal>
1.3901

> <Gold.Chemscore.Rot>
2.7172

> <Gold.Chemscore.Internal.Correction>
   9.000000E+99

> <Gold.Chemscore.Hbond.Weighted>
-0.0000

> <Gold.Chemscore.Metal.Weighted>
-0.0000

> <Gold.Chemscore.Lipo.Weighted>
-10.6998

> <Gold.Chemscore.Internal_Hbond.Weighted>
0.0000

> <Gold.Chemscore.DEClash.Weighted>
0.0519

> <Gold.Chemscore.DEInternal.Weighted>
1.3901

> <Gold.Chemscore.Rot.Weighted>
6.9560

> <Gold.Chemscore.Internal.Correction.Weighted>
   9.000000E+99

> <Gold.Protein.RotatedTorsions>
[ 6907 6896 6895 6894 ] final -144.83 input  -60.11 | X-H torsion
[ 7974 7965 7964 7962 ] final   -8.36 input  175.53 | X-H torsion
[ 8008 7997 7996 7995 ] final -179.05 input   59.86 | X-H torsion
[ 10167 10162 10161 10158 ] final   97.80 input  -65.29 | X-H torsion
[ 10718 10713 10712 10709 ] final -157.26 input   66.30 | X-H torsion
[ 10763 10752 10751 10750 ] final  -43.01 input  -60.55 | X-H torsion
[ 11005 11000 10999 10996 ] final   70.88 input  -57.11 | X-H torsion

> <Gold.Protein.ActiveResidues>
 VAL166  LYS551  ARG553  GLY616  TRP617  ASP618  TYR619  PRO620  LYS621  CYS622 
 ASP623  PHE694  ASN695  SER759  ASP760  ASP761  ALA762  ILE779  LEU786  VAL792 
 PHE793  MET794  SER795  GLU796  ALA797  LYS798  CYS799  TRP800  GLU811  SER814 

> <Gold.Protein.RotatedAtoms>
  151.1194  133.5115  159.2602 H   0  0  0  0  0  0  0  0  0  0  0  0  # atno 6907 bound_to 6896
  151.1878  135.0389  159.8829 H   0  0  0  0  0  0  0  0  0  0  0  0  # atno 6908 bound_to 6896
  152.5455  134.1039  159.8383 H   0  0  0  0  0  0  0  0  0  0  0  0  # atno 6909 bound_to 6896
  146.2282  140.2457  142.8345 H   0  0  0  0  0  0  0  0  0  0  0  0  # atno 7974 bound_to 7965
  156.0259  140.1271  157.0309 H   0  0  0  0  0  0  0  0  0  0  0  0  # atno 8008 bound_to 7997
  154.4330  140.1059  156.6101 H   0  0  0  0  0  0  0  0  0  0  0  0  # atno 8009 bound_to 7997
  155.5877  140.3469  155.4560 H   0  0  0  0  0  0  0  0  0  0  0  0  # atno 8010 bound_to 7997
  139.7767  144.6903  151.0079 H   0  0  0  0  0  0  0  0  0  0  0  0  # atno 10167 bound_to 10162
  156.5379  130.8550  151.2739 H   0  0  0  0  0  0  0  0  0  0  0  0  # atno 10718 bound_to 10713
  153.9886  135.6708  153.4753 H   0  0  0  0  0  0  0  0  0  0  0  0  # atno 10763 bound_to 10752
  153.0715  135.4971  154.8312 H   0  0  0  0  0  0  0  0  0  0  0  0  # atno 10764 bound_to 10752
  154.7123  135.3100  154.9141 H   0  0  0  0  0  0  0  0  0  0  0  0  # atno 10765 bound_to 10752
  139.9574  134.7121  156.0723 H   0  0  0  0  0  0  0  0  0  0  0  0  # atno 11005 bound_to 11000
  144.9450  140.8119  143.5607 LP  0  0  0  0  0  0  0  0  0  0  0  0  # atno 17320 bound_to 7965
  145.2412  139.2072  143.4992 LP  0  0  0  0  0  0  0  0  0  0  0  0  # atno 17321 bound_to 7965
  140.7816  143.4528  151.0388 LP  0  0  0  0  0  0  0  0  0  0  0  0  # atno 17342 bound_to 10162
  139.8210  143.7820  152.3177 LP  0  0  0  0  0  0  0  0  0  0  0  0  # atno 17343 bound_to 10162
  157.7410  130.9862  150.2419 LP  0  0  0  0  0  0  0  0  0  0  0  0  # atno 17370 bound_to 10713
  156.2999  130.3757  149.7760 LP  0  0  0  0  0  0  0  0  0  0  0  0  # atno 17371 bound_to 10713
  141.1247  133.6603  156.3305 LP  0  0  0  0  0  0  0  0  0  0  0  0  # atno 17394 bound_to 11000
  140.5579  134.5963  157.5425 LP  0  0  0  0  0  0  0  0  0  0  0  0  # atno 17395 bound_to 11000

$$$$
