AV-unprocessed.smi:844|AV-procd|sdf|3925|dock6
  -GOLD-   22720 1383D 1   1.00000     0.00000
 Structure written by MMmdl.
 33 35  0  0  0  0  0  0  0  0  2 V2000
  153.2093  139.4033  156.9835 O   0  0  0  0  0  0  0  0  0  0  0  0
  152.0103  140.0415  157.3725 C   0  0  2  0  0  0  0  0  0  0  0  0
  151.4677  140.8197  156.1567 C   0  0  0  0  0  0  0  0  0  0  0  0
  150.5963  140.0001  155.3055 N   0  0  0  0  0  0  0  0  0  0  0  0
  150.8184  138.7817  154.7417 C   0  0  0  0  0  0  0  0  0  0  0  0
  149.7089  138.4533  154.0233 N   0  3  0  0  0  0  0  0  0  0  0  0
  148.7627  139.4746  154.1335 C   0  0  0  0  0  0  0  0  0  0  0  0
  147.4894  139.6017  153.5870 C   0  0  0  0  0  0  0  0  0  0  0  0
  146.7812  140.7808  153.9000 C   0  0  0  0  0  0  0  0  0  0  0  0
  147.3411  141.7774  154.7259 C   0  0  0  0  0  0  0  0  0  0  0  0
  148.6332  141.6384  155.2740 C   0  0  0  0  0  0  0  0  0  0  0  0
  149.3258  140.4702  154.9591 C   0  0  0  0  0  0  0  0  0  0  0  0
  152.1981  140.9376  158.5918 C   0  0  0  0  0  0  0  0  0  0  0  0
  151.6416  142.2361  158.6142 C   0  0  0  0  0  0  0  0  0  0  0  0
  151.7971  143.0585  159.7466 C   0  0  0  0  0  0  0  0  0  0  0  0
  152.5079  142.5875  160.8666 C   0  0  0  0  0  0  0  0  0  0  0  0
  152.6545  143.3765  161.9571 F   0  0  0  0  0  0  0  0  0  0  0  0
  153.0618  141.2935  160.8536 C   0  0  0  0  0  0  0  0  0  0  0  0
  152.9073  140.4692  159.7220 C   0  0  0  0  0  0  0  0  0  0  0  0
  153.4352  139.2212  159.7332 F   0  0  0  0  0  0  0  0  0  0  0  0
  153.0553  138.4715  156.9469 H   0  0  0  0  0  0  0  0  0  0  0  0
  151.3155  139.2407  157.6254 H   0  0  0  0  0  0  0  0  0  0  0  0
  150.8925  141.6881  156.4814 H   0  0  0  0  0  0  0  0  0  0  0  0
  152.2826  141.2007  155.5394 H   0  0  0  0  0  0  0  0  0  0  0  0
  151.7164  138.1884  154.8379 H   0  0  0  0  0  0  0  0  0  0  0  0
  147.0581  138.8405  152.9535 H   0  0  0  0  0  0  0  0  0  0  0  0
  145.7884  140.9239  153.4984 H   0  0  0  0  0  0  0  0  0  0  0  0
  146.7681  142.6670  154.9437 H   0  0  0  0  0  0  0  0  0  0  0  0
  149.0550  142.4074  155.9045 H   0  0  0  0  0  0  0  0  0  0  0  0
  151.0881  142.6056  157.7632 H   0  0  0  0  0  0  0  0  0  0  0  0
  151.3692  144.0501  159.7565 H   0  0  0  0  0  0  0  0  0  0  0  0
  153.6040  140.9310  161.7146 H   0  0  0  0  0  0  0  0  0  0  0  0
  149.6080  137.5948  153.4970 H   0  0  0  0  0  0  0  0  0  0  0  0
  1  2  1  0  0  0  0
  1 21  1  0  0  0  0
  2  3  1  0  0  0  0
  2 13  1  0  0  0  0
  2 22  1  0  0  0  0
  3  4  1  0  0  0  0
  3 23  1  0  0  0  0
  3 24  1  0  0  0  0
  4 12  1  0  0  0  0
  4  5  1  0  0  0  0
  5  6  2  0  0  0  0
  5 25  1  0  0  0  0
  6  7  1  0  0  0  0
  6 33  1  0  0  0  0
  7 12  2  0  0  0  0
  7  8  1  0  0  0  0
  8  9  2  0  0  0  0
  8 26  1  0  0  0  0
  9 10  1  0  0  0  0
  9 27  1  0  0  0  0
 10 11  2  0  0  0  0
 10 28  1  0  0  0  0
 11 12  1  0  0  0  0
 11 29  1  0  0  0  0
 13 19  1  0  0  0  0
 13 14  2  0  0  0  0
 14 15  1  0  0  0  0
 14 30  1  0  0  0  0
 15 16  2  0  0  0  0
 15 31  1  0  0  0  0
 16 17  1  0  0  0  0
 16 18  1  0  0  0  0
 18 19  2  0  0  0  0
 18 32  1  0  0  0  0
 19 20  1  0  0  0  0
M  CHG  1   6   1
M  END
> <s_m_source_file>
AV-unprocessed.smi

> <i_m_source_file_index>
844

> <i_lp_mmshare_version>
43012

> <i_f3d_flags>
0

> <s_epik_input>
RmMxW2NIXWMoRilbY0hdW2NIXWMxW0NASF0oW09IXSlbQ0gyXW4oW2NIXW4yKWMoYzIzKVtjSF1bY0hdW2NIXVtjSF0z

> <s_epik_cmdline>
J2VwaWtfcHl0aG9uJywgJy1waCcsICc3LjAnLCAnLXRuJywgJzgnLCAnLW1hJywgJzIwMCcsICctbWV0YWxfYmluZGluZycsICctaW1hZScsICc8aW5maWxlLm1hZT4nLCAnLW9tYWUnLCAnPG91dGZpbGUubWFlPic=

> <r_epik_Ionization_Penalty>
1.3029

> <r_epik_Ionization_Penalty_Charging>
1.3029

> <r_epik_Ionization_Penalty_Neutral>
1.79538e-06

> <r_epik_State_Penalty>
1.377

> <r_epik_Charging_Adjusted_Penalty>
2.6799

> <i_epik_Tot_Q>
1

> <i_epik_Tot_abs_Q>
1

> <r_epik_Metal_State_Penalty>
5.40879

> <b_epik_Metal_Only>
0

> <s_lp_Force_Field>
OPLS_2005

> <r_lp_Energy>
17.7817

> <b_lp_Chiralities_Consistent>
1

> <s_lp_Variant>
AV-unprocessed.smi:844-3

> <Gold.Version>
5.8.1

> <Gold.Id.Protein>
6NUR|6NUR_protein|mol2

> <Gold.PLP.Fitness>
53.9214

> <Gold.PLP.PLP>
-46.3914

> <Gold.PLP.part.hbond>
-2.4424

> <Gold.PLP.part.metal>
0.0000

> <Gold.PLP.part.buried>
0.8721

> <Gold.PLP.part.nonpolar>
-43.9578

> <Gold.PLP.part.repulsive>
0.0473

> <Gold.PLP.ligand.clash>
0.0000

> <Gold.PLP.ligand.torsion>
0.7407

> <Gold.PLP.Chemscore.Hbond>
3.0000

> <Gold.PLP.Chemscore.CHOScore>
0.0000

> <Gold.PLP.Chemscore.Metal>
0.0000

> <Gold.Chemscore.Hbonds>
donor molecule, donor type, donor heavy atom, donor atom, acceptor molecule, acceptor atom, score
      L1  H     6    33       P1  7948  1.17
      P1  H  7997  8008       L1     1  0.78

> <Gold.PLP.Chemscore.Internal.Correction>
0.0114

> <Gold.Rescore>
     Score         DG    S(hbond)    S(metal)    S(lipo)     H(rot)  DE(clash)    DE(int)     intcor
     17.61     -19.43       1.94        0.00     108.82       2.06       0.29       1.53       ----

> <Gold.Chemscore.Fitness>
17.6127

> <Gold.Chemscore.DG>
-19.4320

> <Gold.Chemscore.ZeroCoef>
-5.4800

> <Gold.Chemscore.Hbond>
1.9441

> <Gold.Chemscore.Metal>
0.0000

> <Gold.Chemscore.Lipo>
108.8172

> <Gold.Chemscore.Internal_Hbond>
0.0000

> <Gold.Chemscore.DEClash>
0.2882

> <Gold.Chemscore.DEInternal>
1.5312

> <Gold.Chemscore.Rot>
2.0597

> <Gold.Chemscore.Internal.Correction>
   9.000000E+99

> <Gold.Chemscore.Hbonds>
donor molecule, donor type, donor heavy atom, donor atom, acceptor molecule, acceptor atom, score
      L1  H     6    33       P1  7948  0.51
      P1  H  7997  8008       L1     1  0.75

> <Gold.Chemscore.Hbond.Weighted>
-6.4932

> <Gold.Chemscore.Metal.Weighted>
-0.0000

> <Gold.Chemscore.Lipo.Weighted>
-12.7316

> <Gold.Chemscore.Internal_Hbond.Weighted>
0.0000

> <Gold.Chemscore.DEClash.Weighted>
0.2882

> <Gold.Chemscore.DEInternal.Weighted>
1.5312

> <Gold.Chemscore.Rot.Weighted>
5.2728

> <Gold.Chemscore.Internal.Correction.Weighted>
   9.000000E+99

> <Gold.Protein.RotatedTorsions>
[ 6907 6896 6895 6894 ] final   51.85 input  -60.11 | X-H torsion
[ 7974 7965 7964 7962 ] final -110.06 input  175.53 | X-H torsion
[ 8008 7997 7996 7995 ] final  -46.69 input   59.86 | X-H torsion
[ 10167 10162 10161 10158 ] final -143.32 input  -65.29 | X-H torsion
[ 10718 10713 10712 10709 ] final  -58.55 input   66.30 | X-H torsion
[ 10763 10752 10751 10750 ] final  -76.13 input  -60.55 | X-H torsion
[ 11005 11000 10999 10996 ] final  -19.17 input  -57.11 | X-H torsion

> <Gold.Protein.ActiveResidues>
 VAL166  LYS551  ARG553  GLY616  TRP617  ASP618  TYR619  PRO620  LYS621  CYS622 
 ASP623  PHE694  ASN695  SER759  ASP760  ASP761  ALA762  ILE779  LEU786  VAL792 
 PHE793  MET794  SER795  GLU796  ALA797  LYS798  CYS799  TRP800  GLU811  SER814 

> <Gold.Protein.RotatedAtoms>
  152.3171  134.7426  160.0322 H   0  0  0  0  0  0  0  0  0  0  0  0  # atno 6907 bound_to 6896
  151.7888  133.3352  159.3501 H   0  0  0  0  0  0  0  0  0  0  0  0  # atno 6908 bound_to 6896
  150.7350  134.5793  159.5975 H   0  0  0  0  0  0  0  0  0  0  0  0  # atno 6909 bound_to 6896
  145.1729  140.8934  143.3525 H   0  0  0  0  0  0  0  0  0  0  0  0  # atno 7974 bound_to 7965
  154.4009  140.1365  156.4052 H   0  0  0  0  0  0  0  0  0  0  0  0  # atno 8008 bound_to 7997
  155.7786  140.3482  155.5265 H   0  0  0  0  0  0  0  0  0  0  0  0  # atno 8009 bound_to 7997
  155.8696  140.0969  157.1549 H   0  0  0  0  0  0  0  0  0  0  0  0  # atno 8010 bound_to 7997
  139.8004  143.7841  152.2657 H   0  0  0  0  0  0  0  0  0  0  0  0  # atno 10167 bound_to 10162
  156.1126  130.4173  150.0593 H   0  0  0  0  0  0  0  0  0  0  0  0  # atno 10718 bound_to 10713
  154.4957  135.5808  153.6493 H   0  0  0  0  0  0  0  0  0  0  0  0  # atno 10763 bound_to 10752
  152.9870  135.6123  154.3067 H   0  0  0  0  0  0  0  0  0  0  0  0  # atno 10764 bound_to 10752
  154.2971  135.2847  155.2608 H   0  0  0  0  0  0  0  0  0  0  0  0  # atno 10765 bound_to 10752
  140.8341  133.7975  155.9789 H   0  0  0  0  0  0  0  0  0  0  0  0  # atno 11005 bound_to 11000
  145.0215  139.3420  143.6070 LP  0  0  0  0  0  0  0  0  0  0  0  0  # atno 17320 bound_to 7965
  146.3466  139.9517  142.8728 LP  0  0  0  0  0  0  0  0  0  0  0  0  # atno 17321 bound_to 7965
  139.7959  144.7392  150.9890 LP  0  0  0  0  0  0  0  0  0  0  0  0  # atno 17342 bound_to 10162
  140.7820  143.4394  151.0574 LP  0  0  0  0  0  0  0  0  0  0  0  0  # atno 17343 bound_to 10162
  156.8553  130.9473  151.3622 LP  0  0  0  0  0  0  0  0  0  0  0  0  # atno 17370 bound_to 10713
  157.6308  130.8728  149.9271 LP  0  0  0  0  0  0  0  0  0  0  0  0  # atno 17371 bound_to 10713
  140.8967  134.2429  157.5065 LP  0  0  0  0  0  0  0  0  0  0  0  0  # atno 17394 bound_to 11000
  139.8704  134.9687  156.4640 LP  0  0  0  0  0  0  0  0  0  0  0  0  # atno 17395 bound_to 11000

$$$$
