AV-unprocessed.smi:2695|AV-procd|sdf|10407|dock9
  -GOLD-   2272014443D 1   1.00000     0.00000
 Structure written by MMmdl.
 41 42  0  0  0  0  0  0  0  0  2 V2000
  150.3734  135.2964  154.9153 C   0  0  0  0  0  0  0  0  0  0  0  0
  150.4239  133.8306  155.3298 C   0  0  0  0  0  0  0  0  0  0  0  0
  151.0083  133.4671  156.4927 C   0  0  0  0  0  0  0  0  0  0  0  0
  151.0425  132.1432  156.9109 C   0  0  0  0  0  0  0  0  0  0  0  0
  151.5848  131.8008  157.9848 O   0  5  0  0  0  0  0  0  0  0  0  0
  150.4329  131.2247  156.0661 C   0  0  0  0  0  0  0  0  0  0  0  0
  149.7815  131.5566  154.8048 C   0  0  0  0  0  0  0  0  0  0  0  0
  149.2426  130.7008  154.1005 O   0  0  0  0  0  0  0  0  0  0  0  0
  149.8204  132.8766  154.4679 N   0  0  0  0  0  0  0  0  0  0  0  0
  149.2285  133.2959  153.1764 C   0  0  0  0  0  0  0  0  0  0  0  0
  147.7013  133.1414  153.1191 C   0  0  0  0  0  0  0  0  0  0  0  0
  147.1446  132.1505  153.5938 O   0  0  0  0  0  0  0  0  0  0  0  0
  147.0393  134.1492  152.5304 N   0  0  0  0  0  0  0  0  0  0  0  0
  145.5913  134.2312  152.3304 C   0  0  2  0  0  0  0  0  0  0  0  0
  145.2501  133.8040  150.8794 C   0  0  0  0  0  0  0  0  0  0  0  0
  143.8473  133.2149  150.6868 C   0  0  0  0  0  0  0  0  0  0  0  0
  143.9087  132.4414  149.3655 C   0  0  0  0  0  0  0  0  0  0  0  0
  145.3883  132.1065  149.1305 C   0  0  0  0  0  0  0  0  0  0  0  0
  146.1542  132.6968  150.3184 C   0  0  0  0  0  0  0  0  0  0  0  0
  145.1184  135.6577  152.6931 C   0  0  0  0  0  0  0  0  0  0  0  0
  143.7873  135.7189  152.6394 F   0  0  0  0  0  0  0  0  0  0  0  0
  145.5112  135.9856  153.9248 F   0  0  0  0  0  0  0  0  0  0  0  0
  145.6000  136.5542  151.8333 F   0  0  0  0  0  0  0  0  0  0  0  0
  150.6598  135.9430  155.7456 H   0  0  0  0  0  0  0  0  0  0  0  0
  149.3699  135.5970  154.6138 H   0  0  0  0  0  0  0  0  0  0  0  0
  151.0667  135.4887  154.0964 H   0  0  0  0  0  0  0  0  0  0  0  0
  151.4570  134.2285  157.1147 H   0  0  0  0  0  0  0  0  0  0  0  0
  150.4336  130.1834  156.3547 H   0  0  0  0  0  0  0  0  0  0  0  0
  149.4887  134.3194  152.9126 H   0  0  0  0  0  0  0  0  0  0  0  0
  149.6613  132.7119  152.3616 H   0  0  0  0  0  0  0  0  0  0  0  0
  147.5842  134.9240  152.1810 H   0  0  0  0  0  0  0  0  0  0  0  0
  145.0882  133.5403  153.0091 H   0  0  0  0  0  0  0  0  0  0  0  0
  145.3442  134.6715  150.2239 H   0  0  0  0  0  0  0  0  0  0  0  0
  143.6198  132.5247  151.5003 H   0  0  0  0  0  0  0  0  0  0  0  0
  143.0678  133.9769  150.6707 H   0  0  0  0  0  0  0  0  0  0  0  0
  143.2868  131.5464  149.3988 H   0  0  0  0  0  0  0  0  0  0  0  0
  143.5388  133.0638  148.5497 H   0  0  0  0  0  0  0  0  0  0  0  0
  145.5557  131.0324  149.0447 H   0  0  0  0  0  0  0  0  0  0  0  0
  145.7265  132.5647  148.2001 H   0  0  0  0  0  0  0  0  0  0  0  0
  147.1395  133.0641  150.0287 H   0  0  0  0  0  0  0  0  0  0  0  0
  146.3029  131.9232  151.0737 H   0  0  0  0  0  0  0  0  0  0  0  0
  1  2  1  0  0  0  0
  1 24  1  0  0  0  0
  1 25  1  0  0  0  0
  1 26  1  0  0  0  0
  2  9  1  0  0  0  0
  2  3  2  0  0  0  0
  3  4  1  0  0  0  0
  3 27  1  0  0  0  0
  4  5  1  0  0  0  0
  4  6  2  0  0  0  0
  6  7  1  0  0  0  0
  6 28  1  0  0  0  0
  7  8  2  0  0  0  0
  7  9  1  0  0  0  0
  9 10  1  0  0  0  0
 10 11  1  0  0  0  0
 10 29  1  0  0  0  0
 10 30  1  0  0  0  0
 11 12  2  0  0  0  0
 11 13  1  0  0  0  0
 13 14  1  0  0  0  0
 13 31  1  0  0  0  0
 14 15  1  0  0  0  0
 14 20  1  0  0  0  0
 14 32  1  0  0  0  0
 15 19  1  0  0  0  0
 15 16  1  0  0  0  0
 15 33  1  0  0  0  0
 16 17  1  0  0  0  0
 16 34  1  0  0  0  0
 16 35  1  0  0  0  0
 17 18  1  0  0  0  0
 17 36  1  0  0  0  0
 17 37  1  0  0  0  0
 18 19  1  0  0  0  0
 18 38  1  0  0  0  0
 18 39  1  0  0  0  0
 19 40  1  0  0  0  0
 19 41  1  0  0  0  0
 20 21  1  0  0  0  0
 20 22  1  0  0  0  0
 20 23  1  0  0  0  0
M  CHG  1   5  -1
M  END
> <s_m_source_file>
AV-unprocessed.smi

> <i_m_source_file_index>
2695

> <i_lp_mmshare_version>
43012

> <i_f3d_flags>
0

> <s_epik_input>
W0NIM11jMVtjSF1jKFtPSF0pW2NIXWMoPU8pbjFbQ0gyXUMoPU8pW05IXVtDQEBIXShDKEYpKEYpRilbQ0hdMltDSDJdW0NIMl1bQ0gyXVtDSDJdMg==

> <s_epik_cmdline>
J2VwaWtfcHl0aG9uJywgJy1waCcsICc3LjAnLCAnLXRuJywgJzgnLCAnLW1hJywgJzIwMCcsICctbWV0YWxfYmluZGluZycsICctaW1hZScsICc8aW5maWxlLm1hZT4nLCAnLW9tYWUnLCAnPG91dGZpbGUubWFlPic=

> <r_lp_tautomer_probability>
1

> <r_epik_Ionization_Penalty>
0.176977

> <r_epik_Ionization_Penalty_Charging>
0.176977

> <r_epik_Ionization_Penalty_Neutral>
1.44272e-07

> <r_epik_State_Penalty>
0.160849

> <r_epik_Charging_Adjusted_Penalty>
0.337826

> <i_epik_Tot_Q>
-1

> <i_epik_Tot_abs_Q>
1

> <r_epik_Metal_State_Penalty>
0.16085

> <b_epik_Metal_Only>
0

> <s_lp_Force_Field>
OPLS_2005

> <r_lp_Energy>
43.1089

> <b_lp_Chiralities_Consistent>
1

> <s_lp_Variant>
AV-unprocessed.smi:2695-1

> <Gold.Version>
5.8.1

> <Gold.Id.Protein>
6NUR|6NUR_protein|mol2

> <Gold.PLP.Fitness>
48.9742

> <Gold.PLP.PLP>
-42.0192

> <Gold.PLP.part.hbond>
-2.0000

> <Gold.PLP.part.metal>
0.0000

> <Gold.PLP.part.buried>
-5.1129

> <Gold.PLP.part.nonpolar>
-34.7939

> <Gold.PLP.part.repulsive>
0.1669

> <Gold.PLP.ligand.clash>
0.0000

> <Gold.PLP.ligand.torsion>
1.1750

> <Gold.PLP.Chemscore.Hbond>
3.0000

> <Gold.PLP.Chemscore.CHOScore>
0.0000

> <Gold.PLP.Chemscore.Metal>
0.0000

> <Gold.Chemscore.Hbonds>
donor molecule, donor type, donor heavy atom, donor atom, acceptor molecule, acceptor atom, score
      L1  H    13    31       P1  7948  1.00
      P1  H  6896  6908       L1     5  1.95

> <Gold.PLP.Chemscore.Internal.Correction>
0.3051

> <Gold.Rescore>
     Score         DG    S(hbond)    S(metal)    S(lipo)     H(rot)  DE(clash)    DE(int)     intcor
     14.61     -17.25       1.85        0.00      86.05       1.75       0.19       2.46       ----

> <Gold.Chemscore.Fitness>
14.6072

> <Gold.Chemscore.DG>
-17.2520

> <Gold.Chemscore.ZeroCoef>
-5.4800

> <Gold.Chemscore.Hbond>
1.8544

> <Gold.Chemscore.Metal>
0.0000

> <Gold.Chemscore.Lipo>
86.0541

> <Gold.Chemscore.Internal_Hbond>
0.0000

> <Gold.Chemscore.DEClash>
0.1889

> <Gold.Chemscore.DEInternal>
2.4559

> <Gold.Chemscore.Rot>
1.7539

> <Gold.Chemscore.Internal.Correction>
   9.000000E+99

> <Gold.Chemscore.Hbonds>
donor molecule, donor type, donor heavy atom, donor atom, acceptor molecule, acceptor atom, score
      L1  H    13    31       P1  7948  0.91
      P1  H  6896  6908       L1     5  0.80

> <Gold.Chemscore.Hbond.Weighted>
-6.1935

> <Gold.Chemscore.Metal.Weighted>
-0.0000

> <Gold.Chemscore.Lipo.Weighted>
-10.0683

> <Gold.Chemscore.Internal_Hbond.Weighted>
0.0000

> <Gold.Chemscore.DEClash.Weighted>
0.1889

> <Gold.Chemscore.DEInternal.Weighted>
2.4559

> <Gold.Chemscore.Rot.Weighted>
4.4899

> <Gold.Chemscore.Internal.Correction.Weighted>
   9.000000E+99

> <Gold.Protein.RotatedTorsions>
[ 6907 6896 6895 6894 ] final   45.47 input  -60.11 | X-H torsion
[ 7974 7965 7964 7962 ] final -103.57 input  175.53 | X-H torsion
[ 8008 7997 7996 7995 ] final   35.51 input   59.86 | X-H torsion
[ 10167 10162 10161 10158 ] final  121.21 input  -65.29 | X-H torsion
[ 10718 10713 10712 10709 ] final   96.99 input   66.30 | X-H torsion
[ 10763 10752 10751 10750 ] final   -2.75 input  -60.55 | X-H torsion
[ 11005 11000 10999 10996 ] final -102.57 input  -57.11 | X-H torsion

> <Gold.Protein.ActiveResidues>
 VAL166  LYS551  ARG553  GLY616  TRP617  ASP618  TYR619  PRO620  LYS621  CYS622 
 ASP623  PHE694  ASN695  SER759  ASP760  ASP761  ALA762  ILE779  LEU786  VAL792 
 PHE793  MET794  SER795  GLU796  ALA797  LYS798  CYS799  TRP800  GLU811  SER814 

> <Gold.Protein.RotatedAtoms>
  152.2449  134.8191  160.0454 H   0  0  0  0  0  0  0  0  0  0  0  0  # atno 6907 bound_to 6896
  151.8893  133.3507  159.3801 H   0  0  0  0  0  0  0  0  0  0  0  0  # atno 6908 bound_to 6896
  150.7065  134.4866  159.5540 H   0  0  0  0  0  0  0  0  0  0  0  0  # atno 6909 bound_to 6896
  145.2542  140.9248  143.3078 H   0  0  0  0  0  0  0  0  0  0  0  0  # atno 7974 bound_to 7965
  155.1723  140.3293  155.4390 H   0  0  0  0  0  0  0  0  0  0  0  0  # atno 8008 bound_to 7997
  156.2506  140.1941  156.6776 H   0  0  0  0  0  0  0  0  0  0  0  0  # atno 8009 bound_to 7997
  154.6329  140.0580  156.9740 H   0  0  0  0  0  0  0  0  0  0  0  0  # atno 8010 bound_to 7997
  139.5934  144.7033  151.3236 H   0  0  0  0  0  0  0  0  0  0  0  0  # atno 10167 bound_to 10162
  157.6919  131.0595  150.4575 H   0  0  0  0  0  0  0  0  0  0  0  0  # atno 10718 bound_to 10713
  153.3622  135.6991  153.6703 H   0  0  0  0  0  0  0  0  0  0  0  0  # atno 10763 bound_to 10752
  153.5387  135.3577  155.2709 H   0  0  0  0  0  0  0  0  0  0  0  0  # atno 10764 bound_to 10752
  154.8670  135.4198  154.2882 H   0  0  0  0  0  0  0  0  0  0  0  0  # atno 10765 bound_to 10752
  141.1183  133.8569  157.1377 H   0  0  0  0  0  0  0  0  0  0  0  0  # atno 11005 bound_to 11000
  144.9476  139.4119  143.6418 LP  0  0  0  0  0  0  0  0  0  0  0  0  # atno 17320 bound_to 7965
  146.3294  139.8467  142.8880 LP  0  0  0  0  0  0  0  0  0  0  0  0  # atno 17321 bound_to 7965
  140.7192  143.7184  150.7715 LP  0  0  0  0  0  0  0  0  0  0  0  0  # atno 17342 bound_to 10162
  140.0744  143.5029  152.2563 LP  0  0  0  0  0  0  0  0  0  0  0  0  # atno 17343 bound_to 10162
  156.4922  130.4098  149.6400 LP  0  0  0  0  0  0  0  0  0  0  0  0  # atno 17370 bound_to 10713
  156.3406  130.7380  151.2325 LP  0  0  0  0  0  0  0  0  0  0  0  0  # atno 17371 bound_to 10713
  140.0121  134.9983  157.0417 LP  0  0  0  0  0  0  0  0  0  0  0  0  # atno 17394 bound_to 11000
  140.4581  134.1512  155.7188 LP  0  0  0  0  0  0  0  0  0  0  0  0  # atno 17395 bound_to 11000

$$$$
