AV-unprocessed.smi:942|AV-procd|sdf|4224|dock3
  -GOLD-   22720 2133D 1   1.00000     0.00000
 Structure written by MMmdl.
 43 45  0  0  0  0  0  0  0  0  2 V2000
  150.7150  140.6486  158.1812 O   0  0  0  0  0  0  0  0  0  0  0  0
  150.5663  141.7876  157.7382 C   0  0  0  0  0  0  0  0  0  0  0  0
  149.7607  142.0730  156.7039 N   0  0  0  0  0  0  0  0  0  0  0  0
  148.9511  141.0979  155.9776 C   0  0  1  0  0  0  0  0  0  0  0  0
  147.5048  141.6001  155.7867 C   0  0  0  0  0  0  0  0  0  0  0  0
  147.3344  141.8615  154.2886 C   0  0  0  0  0  0  0  0  0  0  0  0
  148.2940  140.8809  153.6228 C   0  0  0  0  0  0  0  0  0  0  0  0
  149.5107  140.8710  154.5564 C   0  0  2  0  0  0  0  0  0  0  0  0
  150.3270  139.6529  154.4435 N   0  0  0  0  0  0  0  0  0  0  0  0
  151.4690  139.3360  155.1374 C   0  0  0  0  0  0  0  0  0  0  0  0
  151.8789  138.1102  154.6808 C   0  0  0  0  0  0  0  0  0  0  0  0
  150.9779  137.7330  153.7221 N   0  3  0  0  0  0  0  0  0  0  0  0
  150.0390  138.6735  153.5758 C   0  0  0  0  0  0  0  0  0  0  0  0
  151.3135  142.9692  158.3711 C   0  0  0  0  0  0  0  0  0  0  0  0
  152.2466  142.4920  159.5049 C   0  0  0  0  0  0  0  0  0  0  0  0
  152.9812  143.6724  160.1620 C   0  0  0  0  0  0  0  0  0  0  0  0
  151.9897  144.7267  160.6789 C   0  0  0  0  0  0  0  0  0  0  0  0
  151.0560  145.2067  159.5569 C   0  0  0  0  0  0  0  0  0  0  0  0
  150.3208  144.0257  158.9022 C   0  0  0  0  0  0  0  0  0  0  0  0
  149.6927  143.0365  156.4098 H   0  0  0  0  0  0  0  0  0  0  0  0
  148.9269  140.1566  156.5304 H   0  0  0  0  0  0  0  0  0  0  0  0
  146.8109  140.8182  156.0975 H   0  0  0  0  0  0  0  0  0  0  0  0
  147.2704  142.4858  156.3795 H   0  0  0  0  0  0  0  0  0  0  0  0
  146.3040  141.7341  153.9551 H   0  0  0  0  0  0  0  0  0  0  0  0
  147.6355  142.8841  154.0572 H   0  0  0  0  0  0  0  0  0  0  0  0
  147.8243  139.8978  153.5779 H   0  0  0  0  0  0  0  0  0  0  0  0
  148.5502  141.1732  152.6040 H   0  0  0  0  0  0  0  0  0  0  0  0
  150.1384  141.7196  154.2749 H   0  0  0  0  0  0  0  0  0  0  0  0
  151.8953  139.9891  155.8852 H   0  0  0  0  0  0  0  0  0  0  0  0
  152.7239  137.4961  154.9567 H   0  0  0  0  0  0  0  0  0  0  0  0
  149.2109  138.6447  152.8902 H   0  0  0  0  0  0  0  0  0  0  0  0
  151.9290  143.4390  157.6014 H   0  0  0  0  0  0  0  0  0  0  0  0
  151.6735  141.9600  160.2662 H   0  0  0  0  0  0  0  0  0  0  0  0
  152.9767  141.7808  159.1163 H   0  0  0  0  0  0  0  0  0  0  0  0
  153.6024  143.3133  160.9829 H   0  0  0  0  0  0  0  0  0  0  0  0
  153.6580  144.1304  159.4398 H   0  0  0  0  0  0  0  0  0  0  0  0
  151.3971  144.3039  161.4911 H   0  0  0  0  0  0  0  0  0  0  0  0
  152.5324  145.5736  161.0997 H   0  0  0  0  0  0  0  0  0  0  0  0
  150.3335  145.9202  159.9540 H   0  0  0  0  0  0  0  0  0  0  0  0
  151.6354  145.7407  158.8025 H   0  0  0  0  0  0  0  0  0  0  0  0
  149.6938  144.3941  158.0892 H   0  0  0  0  0  0  0  0  0  0  0  0
  149.6455  143.5755  159.6319 H   0  0  0  0  0  0  0  0  0  0  0  0
  151.0164  136.8692  153.1955 H   0  0  0  0  0  0  0  0  0  0  0  0
  1  2  2  0  0  0  0
  2  3  1  0  0  0  0
  2 14  1  0  0  0  0
  3  4  1  0  0  0  0
  3 20  1  0  0  0  0
  4  8  1  0  0  0  0
  4  5  1  0  0  0  0
  4 21  1  0  0  0  0
  5  6  1  0  0  0  0
  5 22  1  0  0  0  0
  5 23  1  0  0  0  0
  6  7  1  0  0  0  0
  6 24  1  0  0  0  0
  6 25  1  0  0  0  0
  7  8  1  0  0  0  0
  7 26  1  0  0  0  0
  7 27  1  0  0  0  0
  8  9  1  0  0  0  0
  8 28  1  0  0  0  0
  9 13  1  0  0  0  0
  9 10  1  0  0  0  0
 10 11  2  0  0  0  0
 10 29  1  0  0  0  0
 11 12  1  0  0  0  0
 11 30  1  0  0  0  0
 12 13  2  0  0  0  0
 12 43  1  0  0  0  0
 13 31  1  0  0  0  0
 14 19  1  0  0  0  0
 14 15  1  0  0  0  0
 14 32  1  0  0  0  0
 15 16  1  0  0  0  0
 15 33  1  0  0  0  0
 15 34  1  0  0  0  0
 16 17  1  0  0  0  0
 16 35  1  0  0  0  0
 16 36  1  0  0  0  0
 17 18  1  0  0  0  0
 17 37  1  0  0  0  0
 17 38  1  0  0  0  0
 18 19  1  0  0  0  0
 18 39  1  0  0  0  0
 18 40  1  0  0  0  0
 19 41  1  0  0  0  0
 19 42  1  0  0  0  0
M  CHG  1  12   1
M  END
> <s_m_source_file>
AV-unprocessed.smi

> <i_m_source_file_index>
942

> <i_lp_mmshare_version>
43012

> <i_f3d_flags>
0

> <s_epik_input>
W0NIMl0xW0NIMl1bQ0gyXVtDSDJdW0NIMl1bQ0hdMUMoPU8pW05IXVtDQEBIXTJbQ0gyXVtDSDJdW0NIMl1bQ0BIXTJuM1tjSF1bY0hdbltjSF0z

> <s_epik_cmdline>
J2VwaWtfcHl0aG9uJywgJy1waCcsICc3LjAnLCAnLXRuJywgJzgnLCAnLW1hJywgJzIwMCcsICctbWV0YWxfYmluZGluZycsICctaW1hZScsICc8aW5maWxlLm1hZT4nLCAnLW9tYWUnLCAnPG91dGZpbGUubWFlPic=

> <r_lp_tautomer_probability>
1

> <r_epik_Ionization_Penalty>
0.185467

> <r_epik_Ionization_Penalty_Charging>
0

> <r_epik_Ionization_Penalty_Neutral>
0.185467

> <r_epik_State_Penalty>
0.175036

> <r_epik_Charging_Adjusted_Penalty>
0.175036

> <i_epik_Tot_Q>
1

> <i_epik_Tot_abs_Q>
1

> <r_epik_Metal_State_Penalty>
0.487091

> <b_epik_Metal_Only>
0

> <s_lp_Force_Field>
OPLS_2005

> <r_lp_Energy>
33.5167

> <b_lp_Chiralities_Consistent>
1

> <s_lp_Variant>
AV-unprocessed.smi:942-4

> <Gold.Version>
5.8.1

> <Gold.Id.Protein>
6NUR|6NUR_protein|mol2

> <Gold.PLP.Fitness>
53.2240

> <Gold.PLP.PLP>
-41.4270

> <Gold.PLP.part.hbond>
-2.7402

> <Gold.PLP.part.metal>
0.0000

> <Gold.PLP.part.buried>
1.5658

> <Gold.PLP.part.nonpolar>
-39.9307

> <Gold.PLP.part.repulsive>
0.1389

> <Gold.PLP.ligand.clash>
0.0000

> <Gold.PLP.ligand.torsion>
0.1324

> <Gold.PLP.Chemscore.Hbond>
2.8560

> <Gold.PLP.Chemscore.CHOScore>
1.1586

> <Gold.PLP.Chemscore.Metal>
0.0000

> <Gold.Chemscore.Hbonds>
donor molecule, donor type, donor heavy atom, donor atom, acceptor molecule, acceptor atom, score
      L1  H     3    20       P1  8028  1.00
      L1  H    12    43       P1  7949  1.95
      L1  C    13    31       P1  7948  0.50
      L1  C    13    31       P1  7957  0.60

> <Gold.PLP.Chemscore.Internal.Correction>
0.0181

> <Gold.Rescore>
     Score         DG    S(hbond)    S(metal)    S(lipo)     H(rot)  DE(clash)    DE(int)     intcor
     18.01     -18.67       1.41        0.00     104.99       1.48       0.33       0.33       ----

> <Gold.Chemscore.Fitness>
18.0108

> <Gold.Chemscore.DG>
-18.6712

> <Gold.Chemscore.ZeroCoef>
-5.4800

> <Gold.Chemscore.Hbond>
1.4053

> <Gold.Chemscore.Metal>
0.0000

> <Gold.Chemscore.Lipo>
104.9911

> <Gold.Chemscore.Internal_Hbond>
0.0000

> <Gold.Chemscore.DEClash>
0.3348

> <Gold.Chemscore.DEInternal>
0.3256

> <Gold.Chemscore.Rot>
1.4790

> <Gold.Chemscore.Internal.Correction>
   9.000000E+99

> <Gold.Chemscore.Hbonds>
donor molecule, donor type, donor heavy atom, donor atom, acceptor molecule, acceptor atom, score
      L1  H     3    20       P1  8028  0.95
      L1  H    12    43       P1  7949  0.28

> <Gold.Chemscore.Hbond.Weighted>
-4.6936

> <Gold.Chemscore.Metal.Weighted>
-0.0000

> <Gold.Chemscore.Lipo.Weighted>
-12.2840

> <Gold.Chemscore.Internal_Hbond.Weighted>
0.0000

> <Gold.Chemscore.DEClash.Weighted>
0.3348

> <Gold.Chemscore.DEInternal.Weighted>
0.3256

> <Gold.Chemscore.Rot.Weighted>
3.7863

> <Gold.Chemscore.Internal.Correction.Weighted>
   9.000000E+99

> <Gold.Protein.RotatedTorsions>
[ 6907 6896 6895 6894 ] final   96.63 input  -60.11 | X-H torsion
[ 7974 7965 7964 7962 ] final   28.30 input  175.53 | X-H torsion
[ 8008 7997 7996 7995 ] final   88.19 input   59.86 | X-H torsion
[ 10167 10162 10161 10158 ] final  120.77 input  -65.29 | X-H torsion
[ 10718 10713 10712 10709 ] final  -11.45 input   66.30 | X-H torsion
[ 10763 10752 10751 10750 ] final  -93.56 input  -60.55 | X-H torsion
[ 11005 11000 10999 10996 ] final  -14.00 input  -57.11 | X-H torsion

> <Gold.Protein.ActiveResidues>
 VAL166  LYS551  ARG553  GLY616  TRP617  ASP618  TYR619  PRO620  LYS621  CYS622 
 ASP623  PHE694  ASN695  SER759  ASP760  ASP761  ALA762  ILE779  LEU786  VAL792 
 PHE793  MET794  SER795  GLU796  ALA797  LYS798  CYS799  TRP800  GLU811  SER814 

> <Gold.Protein.RotatedAtoms>
  152.5433  134.0856  159.8254 H   0  0  0  0  0  0  0  0  0  0  0  0  # atno 6907 bound_to 6896
  151.0952  133.5278  159.2620 H   0  0  0  0  0  0  0  0  0  0  0  0  # atno 6908 bound_to 6896
  151.2053  135.0468  159.8943 H   0  0  0  0  0  0  0  0  0  0  0  0  # atno 6909 bound_to 6896
  146.1737  139.7075  142.8950 H   0  0  0  0  0  0  0  0  0  0  0  0  # atno 7974 bound_to 7965
  155.9847  140.3374  155.6696 H   0  0  0  0  0  0  0  0  0  0  0  0  # atno 8008 bound_to 7997
  155.6502  140.0704  157.2607 H   0  0  0  0  0  0  0  0  0  0  0  0  # atno 8009 bound_to 7997
  154.4202  140.1727  156.1653 H   0  0  0  0  0  0  0  0  0  0  0  0  # atno 8010 bound_to 7997
  139.5961  144.7042  151.3173 H   0  0  0  0  0  0  0  0  0  0  0  0  # atno 10167 bound_to 10162
  156.6588  130.4976  149.6037 H   0  0  0  0  0  0  0  0  0  0  0  0  # atno 10718 bound_to 10713
  154.6971  135.5190  153.8473 H   0  0  0  0  0  0  0  0  0  0  0  0  # atno 10763 bound_to 10752
  153.0675  135.6590  154.0331 H   0  0  0  0  0  0  0  0  0  0  0  0  # atno 10764 bound_to 10752
  154.0196  135.2995  155.3362 H   0  0  0  0  0  0  0  0  0  0  0  0  # atno 10765 bound_to 10752
  140.7819  133.8356  155.9300 H   0  0  0  0  0  0  0  0  0  0  0  0  # atno 11005 bound_to 11000
  145.4271  141.0412  143.2931 LP  0  0  0  0  0  0  0  0  0  0  0  0  # atno 17320 bound_to 7965
  144.8202  139.5805  143.6990 LP  0  0  0  0  0  0  0  0  0  0  0  0  # atno 17321 bound_to 7965
  140.7213  143.7128  150.7756 LP  0  0  0  0  0  0  0  0  0  0  0  0  # atno 17342 bound_to 10162
  140.0694  143.5076  152.2587 LP  0  0  0  0  0  0  0  0  0  0  0  0  # atno 17343 bound_to 10162
  156.2027  130.6630  151.1185 LP  0  0  0  0  0  0  0  0  0  0  0  0  # atno 17370 bound_to 10713
  157.7116  131.0731  150.6478 LP  0  0  0  0  0  0  0  0  0  0  0  0  # atno 17371 bound_to 10713
  140.9474  134.1823  157.4753 LP  0  0  0  0  0  0  0  0  0  0  0  0  # atno 17394 bound_to 11000
  139.8741  134.9896  156.5463 LP  0  0  0  0  0  0  0  0  0  0  0  0  # atno 17395 bound_to 11000

$$$$
