AV-unprocessed.smi:2746|AV-procd|sdf|10571|dock2
  -GOLD-   2272015 23D 1   1.00000     0.00000
 Structure written by MMmdl.
 38 39  0  0  0  0  0  0  0  0  1 V2000
  152.5965  143.0757  160.0937 C   0  0  0  0  0  0  0  0  0  0  0  0
  151.9797  142.6610  158.9736 C   0  0  0  0  0  0  0  0  0  0  0  0
  151.5600  143.5237  157.7905 C   0  0  2  0  0  0  0  0  0  0  0  0
  150.8500  144.7989  158.2644 C   0  0  0  0  0  0  0  0  0  0  0  0
  150.6965  142.8035  156.8548 N   0  0  0  0  0  0  0  0  0  0  0  0
  150.8672  141.5423  156.4210 C   0  0  0  0  0  0  0  0  0  0  0  0
  151.8202  140.8343  156.7491 O   0  0  0  0  0  0  0  0  0  0  0  0
  149.8225  141.0356  155.4619 C   0  0  0  0  0  0  0  0  0  0  0  0
  148.5455  141.6433  155.4255 C   0  0  0  0  0  0  0  0  0  0  0  0
  147.5844  141.1729  154.5083 C   0  0  0  0  0  0  0  0  0  0  0  0
  146.3180  141.7724  154.4689 N   0  0  0  0  0  0  0  0  0  0  0  0
  146.3555  143.1705  154.0601 C   0  0  0  0  0  0  0  0  0  0  0  0
  144.9232  143.7154  153.9183 C   0  0  0  0  0  0  0  0  0  0  0  0
  144.2158  143.5250  155.1407 O   0  0  0  0  0  0  0  0  0  0  0  0
  144.1207  142.1478  155.4948 C   0  0  0  0  0  0  0  0  0  0  0  0
  145.5330  141.5657  155.6796 C   0  0  0  0  0  0  0  0  0  0  0  0
  147.9363  140.1037  153.6562 C   0  0  0  0  0  0  0  0  0  0  0  0
  149.2310  139.5620  153.7607 C   0  0  0  0  0  0  0  0  0  0  0  0
  150.1544  140.0130  154.6353 N   0  0  0  0  0  0  0  0  0  0  0  0
  152.8603  144.1102  160.2568 H   0  0  0  0  0  0  0  0  0  0  0  0
  152.8481  142.3718  160.8732 H   0  0  0  0  0  0  0  0  0  0  0  0
  151.7459  141.6103  158.8820 H   0  0  0  0  0  0  0  0  0  0  0  0
  152.4829  143.8244  157.2925 H   0  0  0  0  0  0  0  0  0  0  0  0
  151.4875  145.3780  158.9333 H   0  0  0  0  0  0  0  0  0  0  0  0
  149.9301  144.5649  158.8016 H   0  0  0  0  0  0  0  0  0  0  0  0
  150.5902  145.4407  157.4219 H   0  0  0  0  0  0  0  0  0  0  0  0
  149.8848  143.2994  156.5147 H   0  0  0  0  0  0  0  0  0  0  0  0
  148.3010  142.4609  156.0886 H   0  0  0  0  0  0  0  0  0  0  0  0
  146.9023  143.7566  154.7999 H   0  0  0  0  0  0  0  0  0  0  0  0
  146.8885  143.2660  153.1133 H   0  0  0  0  0  0  0  0  0  0  0  0
  144.9469  144.7794  153.6829 H   0  0  0  0  0  0  0  0  0  0  0  0
  144.3970  143.2192  153.1010 H   0  0  0  0  0  0  0  0  0  0  0  0
  143.5515  142.0564  156.4200 H   0  0  0  0  0  0  0  0  0  0  0  0
  143.5714  141.6011  154.7265 H   0  0  0  0  0  0  0  0  0  0  0  0
  145.4736  140.5003  155.9055 H   0  0  0  0  0  0  0  0  0  0  0  0
  146.0212  142.0499  156.5265 H   0  0  0  0  0  0  0  0  0  0  0  0
  147.2353  139.7041  152.9383 H   0  0  0  0  0  0  0  0  0  0  0  0
  149.5341  138.7445  153.1236 H   0  0  0  0  0  0  0  0  0  0  0  0
  1  2  2  0  0  0  0
  1 20  1  0  0  0  0
  1 21  1  0  0  0  0
  2  3  1  0  0  0  0
  2 22  1  0  0  0  0
  3  4  1  0  0  0  0
  3  5  1  0  0  0  0
  3 23  1  0  0  0  0
  4 24  1  0  0  0  0
  4 25  1  0  0  0  0
  4 26  1  0  0  0  0
  5  6  1  0  0  0  0
  5 27  1  0  0  0  0
  6  7  2  0  0  0  0
  6  8  1  0  0  0  0
  8 19  1  0  0  0  0
  8  9  2  0  0  0  0
  9 10  1  0  0  0  0
  9 28  1  0  0  0  0
 10 11  1  0  0  0  0
 10 17  2  0  0  0  0
 11 16  1  0  0  0  0
 11 12  1  0  0  0  0
 12 13  1  0  0  0  0
 12 29  1  0  0  0  0
 12 30  1  0  0  0  0
 13 14  1  0  0  0  0
 13 31  1  0  0  0  0
 13 32  1  0  0  0  0
 14 15  1  0  0  0  0
 15 16  1  0  0  0  0
 15 33  1  0  0  0  0
 15 34  1  0  0  0  0
 16 35  1  0  0  0  0
 16 36  1  0  0  0  0
 17 18  1  0  0  0  0
 17 37  1  0  0  0  0
 18 19  2  0  0  0  0
 18 38  1  0  0  0  0
M  END
> <s_m_source_file>
AV-unprocessed.smi

> <i_m_source_file_index>
2746

> <i_lp_mmshare_version>
43012

> <i_f3d_flags>
0

> <s_epik_input>
W0NIMl09W0NIXVtDQEhdKFtDSDNdKVtOSF1DKD1PKWMxW2NIXWMoW2NIXVtjSF1uMSlOMltDSDJdW0NIMl1PW0NIMl1bQ0gyXTI=

> <s_epik_cmdline>
J2VwaWtfcHl0aG9uJywgJy1waCcsICc3LjAnLCAnLXRuJywgJzgnLCAnLW1hJywgJzIwMCcsICctbWV0YWxfYmluZGluZycsICctaW1hZScsICc8aW5maWxlLm1hZT4nLCAnLW9tYWUnLCAnPG91dGZpbGUubWFlPic=

> <r_lp_tautomer_probability>
1

> <r_epik_Ionization_Penalty>
0.373275

> <r_epik_Ionization_Penalty_Charging>
0

> <r_epik_Ionization_Penalty_Neutral>
0.373275

> <r_epik_State_Penalty>
0.370855

> <r_epik_Charging_Adjusted_Penalty>
0.370855

> <i_epik_Tot_Q>
0

> <i_epik_Tot_abs_Q>
0

> <r_epik_Metal_State_Penalty>
0.225885

> <b_epik_Metal_Only>
0

> <s_lp_Force_Field>
OPLS_2005

> <r_lp_Energy>
24.2376

> <b_lp_Chiralities_Consistent>
1

> <s_lp_Variant>
AV-unprocessed.smi:2746-1

> <Gold.Version>
5.8.1

> <Gold.Id.Protein>
6NUR|6NUR_protein|mol2

> <Gold.PLP.Fitness>
39.3580

> <Gold.PLP.PLP>
-32.4999

> <Gold.PLP.part.hbond>
-2.0000

> <Gold.PLP.part.metal>
0.0000

> <Gold.PLP.part.buried>
2.1655

> <Gold.PLP.part.nonpolar>
-33.0759

> <Gold.PLP.part.repulsive>
0.4238

> <Gold.PLP.ligand.clash>
0.0000

> <Gold.PLP.ligand.torsion>
0.5782

> <Gold.PLP.Chemscore.Hbond>
1.9913

> <Gold.PLP.Chemscore.CHOScore>
0.6391

> <Gold.PLP.Chemscore.Metal>
0.0000

> <Gold.Chemscore.Hbonds>
donor molecule, donor type, donor heavy atom, donor atom, acceptor molecule, acceptor atom, score
      L1  H     5    27       P1  8028  1.00
      P1  H  7989  7998       L1    19  0.96
      L1  C    18    38       P1  7948  0.25
      L1  C    18    38       P1  7957  0.32

> <Gold.PLP.Chemscore.Internal.Correction>
0.1235

> <Gold.Rescore>
     Score         DG    S(hbond)    S(metal)    S(lipo)     H(rot)  DE(clash)    DE(int)     intcor
     14.65     -16.79       1.02        0.00      95.55       1.27       0.25       1.88       ----

> <Gold.Chemscore.Fitness>
14.6545

> <Gold.Chemscore.DG>
-16.7921

> <Gold.Chemscore.ZeroCoef>
-5.4800

> <Gold.Chemscore.Hbond>
1.0165

> <Gold.Chemscore.Metal>
0.0000

> <Gold.Chemscore.Lipo>
95.5470

> <Gold.Chemscore.Internal_Hbond>
0.0000

> <Gold.Chemscore.DEClash>
0.2531

> <Gold.Chemscore.DEInternal>
1.8845

> <Gold.Chemscore.Rot>
1.2742

> <Gold.Chemscore.Internal.Correction>
   9.000000E+99

> <Gold.Chemscore.Hbonds>
donor molecule, donor type, donor heavy atom, donor atom, acceptor molecule, acceptor atom, score
      L1  H     5    27       P1  8028  0.98
      P1  H  7989  7998       L1    19  0.14

> <Gold.Chemscore.Hbond.Weighted>
-3.3951

> <Gold.Chemscore.Metal.Weighted>
-0.0000

> <Gold.Chemscore.Lipo.Weighted>
-11.1790

> <Gold.Chemscore.Internal_Hbond.Weighted>
0.0000

> <Gold.Chemscore.DEClash.Weighted>
0.2531

> <Gold.Chemscore.DEInternal.Weighted>
1.8845

> <Gold.Chemscore.Rot.Weighted>
3.2619

> <Gold.Chemscore.Internal.Correction.Weighted>
   9.000000E+99

> <Gold.Protein.RotatedTorsions>
[ 6907 6896 6895 6894 ] final   71.22 input  -60.11 | X-H torsion
[ 7974 7965 7964 7962 ] final  152.52 input  175.53 | X-H torsion
[ 8008 7997 7996 7995 ] final -174.35 input   59.86 | X-H torsion
[ 10167 10162 10161 10158 ] final  -61.43 input  -65.29 | X-H torsion
[ 10718 10713 10712 10709 ] final   -5.69 input   66.30 | X-H torsion
[ 10763 10752 10751 10750 ] final -129.84 input  -60.55 | X-H torsion
[ 11005 11000 10999 10996 ] final -114.32 input  -57.11 | X-H torsion

> <Gold.Protein.ActiveResidues>
 VAL166  LYS551  ARG553  GLY616  TRP617  ASP618  TYR619  PRO620  LYS621  CYS622 
 ASP623  PHE694  ASN695  SER759  ASP760  ASP761  ALA762  ILE779  LEU786  VAL792 
 PHE793  MET794  SER795  GLU796  ALA797  LYS798  CYS799  TRP800  GLU811  SER814 

> <Gold.Protein.RotatedAtoms>
  152.4797  134.4753  159.9648 H   0  0  0  0  0  0  0  0  0  0  0  0  # atno 6907 bound_to 6896
  151.4762  133.3551  159.2839 H   0  0  0  0  0  0  0  0  0  0  0  0  # atno 6908 bound_to 6896
  150.8860  134.8283  159.7320 H   0  0  0  0  0  0  0  0  0  0  0  0  # atno 6909 bound_to 6896
  144.8217  139.6680  143.6098 H   0  0  0  0  0  0  0  0  0  0  0  0  # atno 7974 bound_to 7965
  155.9690  140.1159  157.0829 H   0  0  0  0  0  0  0  0  0  0  0  0  # atno 8008 bound_to 7997
  154.4151  140.1167  156.5348 H   0  0  0  0  0  0  0  0  0  0  0  0  # atno 8009 bound_to 7997
  155.6621  140.3473  155.4789 H   0  0  0  0  0  0  0  0  0  0  0  0  # atno 8010 bound_to 7997
  140.6006  143.2360  151.5937 H   0  0  0  0  0  0  0  0  0  0  0  0  # atno 10167 bound_to 10162
  156.7429  130.5215  149.5820 H   0  0  0  0  0  0  0  0  0  0  0  0  # atno 10718 bound_to 10713
  154.8757  135.3882  154.3985 H   0  0  0  0  0  0  0  0  0  0  0  0  # atno 10763 bound_to 10752
  153.4712  135.7030  153.5997 H   0  0  0  0  0  0  0  0  0  0  0  0  # atno 10764 bound_to 10752
  153.4453  135.3846  155.2220 H   0  0  0  0  0  0  0  0  0  0  0  0  # atno 10765 bound_to 10752
  141.0559  133.9613  157.2755 H   0  0  0  0  0  0  0  0  0  0  0  0  # atno 11005 bound_to 11000
  146.2522  139.6224  142.9419 LP  0  0  0  0  0  0  0  0  0  0  0  0  # atno 17320 bound_to 7965
  145.5091  141.0436  143.2498 LP  0  0  0  0  0  0  0  0  0  0  0  0  # atno 17321 bound_to 7965
  139.5288  144.2977  152.1099 LP  0  0  0  0  0  0  0  0  0  0  0  0  # atno 17342 bound_to 10162
  140.2157  144.4517  150.6365 LP  0  0  0  0  0  0  0  0  0  0  0  0  # atno 17343 bound_to 10162
  156.1452  130.6272  151.0522 LP  0  0  0  0  0  0  0  0  0  0  0  0  # atno 17370 bound_to 10713
  157.6811  131.0838  150.7368 LP  0  0  0  0  0  0  0  0  0  0  0  0  # atno 17371 bound_to 10713
  139.9390  135.0193  156.8647 LP  0  0  0  0  0  0  0  0  0  0  0  0  # atno 17394 bound_to 11000
  140.5965  134.0212  155.7520 LP  0  0  0  0  0  0  0  0  0  0  0  0  # atno 17395 bound_to 11000

$$$$
