AV-unprocessed.smi:161|AV-procd|sdf|1375|dock9
  -GOLD-   2262019 93D 1   1.00000     0.00000
 Structure written by MMmdl.
 52 55  0  0  0  0  0  0  0  0  1 V2000
  149.8403  134.4685  154.8986 C   0  0  0  0  0  0  0  0  0  0  0  0
  148.9630  133.8029  155.9611 C   0  0  0  0  0  0  0  0  0  0  0  0
  148.6798  134.7450  156.9826 O   0  0  0  0  0  0  0  0  0  0  0  0
  148.1416  134.3437  158.1471 C   0  0  0  0  0  0  0  0  0  0  0  0
  147.9072  133.1649  158.4169 O   0  0  0  0  0  0  0  0  0  0  0  0
  147.8846  135.5216  159.0576 C   0  0  2  0  0  0  0  0  0  0  0  0
  148.4883  135.4818  160.4658 C   0  0  0  0  0  0  0  0  0  0  0  0
  147.3779  136.5395  160.6033 C   0  0  2  0  0  0  0  0  0  0  0  0
  146.9292  137.0776  161.9524 C   0  0  0  0  0  0  0  0  0  0  0  0
  146.5440  135.5273  159.8073 C   0  0  0  0  0  0  0  0  0  0  0  0
  147.6962  137.5789  159.6624 O   0  0  0  0  0  0  0  0  0  0  0  0
  148.1097  136.9124  158.4674 C   0  0  0  0  0  0  0  0  0  0  0  0
  147.1647  137.2808  157.2872 C   0  0  0  0  0  0  0  0  0  0  0  0
  147.4338  138.6971  156.7499 C   0  0  0  0  0  0  0  0  0  0  0  0
  148.8523  138.7966  156.3886 N   0  0  0  0  0  0  0  0  0  0  0  0
  149.3744  138.6423  155.1457 C   0  0  0  0  0  0  0  0  0  0  0  0
  148.6719  138.6187  154.1346 O   0  0  0  0  0  0  0  0  0  0  0  0
  150.8451  138.5580  154.9922 C   0  0  0  0  0  0  0  0  0  0  0  0
  151.6961  137.6497  154.4257 C   0  0  0  0  0  0  0  0  0  0  0  0
  153.0030  138.1102  154.5553 N   0  0  0  0  0  0  0  0  0  0  0  0
  152.9920  139.2552  155.1593 N   0  0  0  0  0  0  0  0  0  0  0  0
  151.6996  139.5620  155.4307 N   0  0  0  0  0  0  0  0  0  0  0  0
  151.4115  140.8126  156.1214 C   0  0  0  0  0  0  0  0  0  0  0  0
  151.9988  140.8384  157.5386 C   0  0  0  0  0  0  0  0  0  0  0  0
  149.6896  138.7300  157.5889 C   0  0  0  0  0  0  0  0  0  0  0  0
  149.5863  137.3051  158.1601 C   0  0  0  0  0  0  0  0  0  0  0  0
  150.0887  133.7649  154.1042 H   0  0  0  0  0  0  0  0  0  0  0  0
  150.7739  134.8294  155.3303 H   0  0  0  0  0  0  0  0  0  0  0  0
  149.3285  135.3178  154.4452 H   0  0  0  0  0  0  0  0  0  0  0  0
  148.0393  133.4467  155.5027 H   0  0  0  0  0  0  0  0  0  0  0  0
  149.4723  132.9400  156.3908 H   0  0  0  0  0  0  0  0  0  0  0  0
  148.3495  134.5580  161.0354 H   0  0  0  0  0  0  0  0  0  0  0  0
  149.5034  135.8605  160.5718 H   0  0  0  0  0  0  0  0  0  0  0  0
  146.6939  136.2673  162.6428 H   0  0  0  0  0  0  0  0  0  0  0  0
  146.0374  137.6965  161.8528 H   0  0  0  0  0  0  0  0  0  0  0  0
  147.7068  137.6880  162.4115 H   0  0  0  0  0  0  0  0  0  0  0  0
  145.6885  135.9482  159.2819 H   0  0  0  0  0  0  0  0  0  0  0  0
  146.2693  134.6086  160.3345 H   0  0  0  0  0  0  0  0  0  0  0  0
  147.3001  136.5677  156.4738 H   0  0  0  0  0  0  0  0  0  0  0  0
  146.1173  137.2108  157.5748 H   0  0  0  0  0  0  0  0  0  0  0  0
  146.7526  138.9151  155.9314 H   0  0  0  0  0  0  0  0  0  0  0  0
  147.2004  139.4359  157.5179 H   0  0  0  0  0  0  0  0  0  0  0  0
  151.4767  136.7101  153.9404 H   0  0  0  0  0  0  0  0  0  0  0  0
  151.8202  141.6415  155.5416 H   0  0  0  0  0  0  0  0  0  0  0  0
  150.3331  140.9665  156.1500 H   0  0  0  0  0  0  0  0  0  0  0  0
  151.8265  141.8061  158.0094 H   0  0  0  0  0  0  0  0  0  0  0  0
  153.0746  140.6622  157.5250 H   0  0  0  0  0  0  0  0  0  0  0  0
  151.5420  140.0803  158.1742 H   0  0  0  0  0  0  0  0  0  0  0  0
  150.7315  138.9835  157.3873 H   0  0  0  0  0  0  0  0  0  0  0  0
  149.3480  139.4590  158.3249 H   0  0  0  0  0  0  0  0  0  0  0  0
  150.2148  137.2339  159.0458 H   0  0  0  0  0  0  0  0  0  0  0  0
  150.0138  136.6222  157.4271 H   0  0  0  0  0  0  0  0  0  0  0  0
  1  2  1  0  0  0  0
  1 27  1  0  0  0  0
  1 28  1  0  0  0  0
  1 29  1  0  0  0  0
  2  3  1  0  0  0  0
  2 30  1  0  0  0  0
  2 31  1  0  0  0  0
  3  4  1  0  0  0  0
  4  5  2  0  0  0  0
  4  6  1  0  0  0  0
  6 10  1  0  0  0  0
  6 12  1  0  0  0  0
  6  7  1  0  0  0  0
  7  8  1  0  0  0  0
  7 32  1  0  0  0  0
  7 33  1  0  0  0  0
  8  9  1  0  0  0  0
  8 10  1  0  0  0  0
  8 11  1  0  0  0  0
  9 34  1  0  0  0  0
  9 35  1  0  0  0  0
  9 36  1  0  0  0  0
 10 37  1  0  0  0  0
 10 38  1  0  0  0  0
 11 12  1  0  0  0  0
 12 26  1  0  0  0  0
 12 13  1  0  0  0  0
 13 14  1  0  0  0  0
 13 39  1  0  0  0  0
 13 40  1  0  0  0  0
 14 15  1  0  0  0  0
 14 41  1  0  0  0  0
 14 42  1  0  0  0  0
 15 16  1  0  0  0  0
 15 25  1  0  0  0  0
 16 17  2  0  0  0  0
 16 18  1  0  0  0  0
 18 22  1  0  0  0  0
 18 19  2  0  0  0  0
 19 20  1  0  0  0  0
 19 43  1  0  0  0  0
 20 21  2  0  0  0  0
 21 22  1  0  0  0  0
 22 23  1  0  0  0  0
 23 24  1  0  0  0  0
 23 44  1  0  0  0  0
 23 45  1  0  0  0  0
 24 46  1  0  0  0  0
 24 47  1  0  0  0  0
 24 48  1  0  0  0  0
 25 26  1  0  0  0  0
 25 49  1  0  0  0  0
 25 50  1  0  0  0  0
 26 51  1  0  0  0  0
 26 52  1  0  0  0  0
M  END
> <s_m_source_file>
AV-unprocessed.smi

> <i_m_source_file_index>
161

> <i_lp_mmshare_version>
43012

> <i_f3d_flags>
2

> <s_epik_input>
W0NIM11bQ0gyXU9DKD1PKVtDQEBdMShbQ0gyXVtDQF0oTzIpKFtDSDNdKVtDSDJdMSlDMjNbQ0gyXVtDSDJdTihbQ0gyXVtDSDJdMylDKD1PKWM0W2NIXW5ubjRbQ0gyXVtDSDNd

> <s_epik_cmdline>
J2VwaWtfcHl0aG9uJywgJy1waCcsICc3LjAnLCAnLXRuJywgJzgnLCAnLW1hJywgJzIwMCcsICctbWV0YWxfYmluZGluZycsICctaW1hZScsICc8aW5maWxlLm1hZT4nLCAnLW9tYWUnLCAnPG91dGZpbGUubWFlPic=

> <r_lp_tautomer_probability>
1

> <r_epik_Ionization_Penalty>
1.75517e-07

> <r_epik_Ionization_Penalty_Charging>
0

> <r_epik_Ionization_Penalty_Neutral>
1.75517e-07

> <r_epik_State_Penalty>
-0

> <r_epik_Charging_Adjusted_Penalty>
0

> <i_epik_Tot_Q>
0

> <i_epik_Tot_abs_Q>
0

> <r_epik_Metal_State_Penalty>
-0

> <b_epik_Metal_Only>
0

> <s_epik_Chemistry_Notes>
This compound has an ester and may undergo hydrolysis at high or low pH.

> <s_lp_Force_Field>
OPLS_2005

> <r_lp_Energy>
59.4881

> <b_lp_Chiralities_Consistent>
0

> <s_lp_Variant>
AV-unprocessed.smi:161-1

> <Gold.Version>
5.8.1

> <Gold.Id.Protein>
6NUR|6NUR_protein|mol2

> <Gold.PLP.Fitness>
37.0447

> <Gold.PLP.PLP>
-30.8750

> <Gold.PLP.part.hbond>
-2.7116

> <Gold.PLP.part.metal>
0.0000

> <Gold.PLP.part.buried>
-6.1721

> <Gold.PLP.part.nonpolar>
-22.9613

> <Gold.PLP.part.repulsive>
0.2177

> <Gold.PLP.ligand.clash>
0.0000

> <Gold.PLP.ligand.torsion>
1.4782

> <Gold.PLP.Chemscore.Hbond>
1.7680

> <Gold.PLP.Chemscore.CHOScore>
1.0000

> <Gold.PLP.Chemscore.Metal>
0.0000

> <Gold.Chemscore.Hbonds>
donor molecule, donor type, donor heavy atom, donor atom, acceptor molecule, acceptor atom, score
      P1  H  6934  6947       L1    11  0.48
      P1  H  7997  8010       L1    21  1.00
      L1  C    19    43       P1  7949  0.90

> <Gold.PLP.Chemscore.Internal.Correction>
0.8222

> <Gold.Rescore>
     Score         DG    S(hbond)    S(metal)    S(lipo)     H(rot)  DE(clash)    DE(int)     intcor
     12.60     -16.51       1.99        0.00      69.36       1.47       0.00       3.91       ----

> <Gold.Chemscore.Fitness>
12.5958

> <Gold.Chemscore.DG>
-16.5074

> <Gold.Chemscore.ZeroCoef>
-5.4800

> <Gold.Chemscore.Hbond>
1.9949

> <Gold.Chemscore.Metal>
0.0000

> <Gold.Chemscore.Lipo>
69.3645

> <Gold.Chemscore.Internal_Hbond>
0.0000

> <Gold.Chemscore.DEClash>
0.0047

> <Gold.Chemscore.DEInternal>
3.9070

> <Gold.Chemscore.Rot>
1.4652

> <Gold.Chemscore.Internal.Correction>
   9.000000E+99

> <Gold.Chemscore.Hbonds>
donor molecule, donor type, donor heavy atom, donor atom, acceptor molecule, acceptor atom, score
      P1  H  6934  6947       L1    11  0.05
      P1  H  7997  8010       L1    21  0.98

> <Gold.Chemscore.Hbond.Weighted>
-6.6628

> <Gold.Chemscore.Metal.Weighted>
-0.0000

> <Gold.Chemscore.Lipo.Weighted>
-8.1156

> <Gold.Chemscore.Internal_Hbond.Weighted>
0.0000

> <Gold.Chemscore.DEClash.Weighted>
0.0047

> <Gold.Chemscore.DEInternal.Weighted>
3.9070

> <Gold.Chemscore.Rot.Weighted>
3.7510

> <Gold.Chemscore.Internal.Correction.Weighted>
   9.000000E+99

> <Gold.Protein.RotatedTorsions>
[ 6907 6896 6895 6894 ] final  -57.65 input  -60.11 | X-H torsion
[ 7974 7965 7964 7962 ] final  -54.29 input  175.53 | X-H torsion
[ 8008 7997 7996 7995 ] final   97.42 input   59.86 | X-H torsion
[ 10167 10162 10161 10158 ] final   16.14 input  -65.29 | X-H torsion
[ 10718 10713 10712 10709 ] final  179.52 input   66.30 | X-H torsion
[ 10763 10752 10751 10750 ] final -164.44 input  -60.55 | X-H torsion
[ 11005 11000 10999 10996 ] final  143.57 input  -57.11 | X-H torsion

> <Gold.Protein.ActiveResidues>
 VAL166  LYS551  ARG553  GLY616  TRP617  ASP618  TYR619  PRO620  LYS621  CYS622 
 ASP623  PHE694  ASN695  SER759  ASP760  ASP761  ALA762  ILE779  LEU786  VAL792 
 PHE793  MET794  SER795  GLU796  ALA797  LYS798  CYS799  TRP800  GLU811  SER814 

> <Gold.Protein.RotatedAtoms>
  150.8069  134.7199  159.6651 H   0  0  0  0  0  0  0  0  0  0  0  0  # atno 6907 bound_to 6896
  152.4188  134.5989  160.0004 H   0  0  0  0  0  0  0  0  0  0  0  0  # atno 6908 bound_to 6896
  151.6210  133.3302  159.3124 H   0  0  0  0  0  0  0  0  0  0  0  0  # atno 6909 bound_to 6896
  145.8872  140.8098  142.9809 H   0  0  0  0  0  0  0  0  0  0  0  0  # atno 7974 bound_to 7965
  156.0900  140.3258  155.7803 H   0  0  0  0  0  0  0  0  0  0  0  0  # atno 8008 bound_to 7997
  155.5012  140.0569  157.2956 H   0  0  0  0  0  0  0  0  0  0  0  0  # atno 8009 bound_to 7997
  154.4632  140.1976  156.0205 H   0  0  0  0  0  0  0  0  0  0  0  0  # atno 8010 bound_to 7997
  140.5818  143.8966  150.6796 H   0  0  0  0  0  0  0  0  0  0  0  0  # atno 10167 bound_to 10162
  156.8746  130.9795  151.3069 H   0  0  0  0  0  0  0  0  0  0  0  0  # atno 10718 bound_to 10713
  154.7028  135.2991  154.9316 H   0  0  0  0  0  0  0  0  0  0  0  0  # atno 10763 bound_to 10752
  154.0242  135.6678  153.4779 H   0  0  0  0  0  0  0  0  0  0  0  0  # atno 10764 bound_to 10752
  153.0694  135.5069  154.8181 H   0  0  0  0  0  0  0  0  0  0  0  0  # atno 10765 bound_to 10752
  140.0564  134.9228  157.1107 H   0  0  0  0  0  0  0  0  0  0  0  0  # atno 11005 bound_to 11000
  144.6729  140.1475  143.7432 LP  0  0  0  0  0  0  0  0  0  0  0  0  # atno 17320 bound_to 7965
  145.8952  139.2398  143.1526 LP  0  0  0  0  0  0  0  0  0  0  0  0  # atno 17321 bound_to 7965
  140.2467  143.3623  152.1441 LP  0  0  0  0  0  0  0  0  0  0  0  0  # atno 17342 bound_to 10162
  139.5174  144.6991  151.5544 LP  0  0  0  0  0  0  0  0  0  0  0  0  # atno 17343 bound_to 10162
  157.6176  130.8630  149.9054 LP  0  0  0  0  0  0  0  0  0  0  0  0  # atno 17370 bound_to 10713
  156.0709  130.3685  150.0778 LP  0  0  0  0  0  0  0  0  0  0  0  0  # atno 17371 bound_to 10713
  140.3838  134.2258  155.7169 LP  0  0  0  0  0  0  0  0  0  0  0  0  # atno 17394 bound_to 11000
  141.1954  133.8107  157.0718 LP  0  0  0  0  0  0  0  0  0  0  0  0  # atno 17395 bound_to 11000

$$$$
