AV-unprocessed.smi:275|AV-procd|sdf|2063|dock5
  -GOLD-   2262021313D 1   1.00000     0.00000
 Structure written by MMmdl.
 65 69  0  0  0  0  0  0  0  0  1 V2000
  145.1277  137.4824  160.0567 C   0  0  0  0  0  0  0  0  0  0  0  0
  146.4138  137.5939  159.2249 C   0  0  0  0  0  0  0  0  0  0  0  0
  146.0944  138.2310  157.8539 C   0  0  0  0  0  0  0  0  0  0  0  0
  147.1823  136.2464  159.1948 C   0  0  1  0  0  0  0  0  0  0  0  0
  148.4846  136.3906  158.5402 N   0  0  0  0  0  0  0  0  0  0  0  0
  148.8107  135.4454  157.5124 C   0  0  0  0  0  0  0  0  0  0  0  0
  149.9532  134.7160  157.6373 N   0  0  0  0  0  0  0  0  0  0  0  0
  150.3240  133.8278  156.7121 C   0  0  0  0  0  0  0  0  0  0  0  0
  149.7143  133.5134  155.5709 N   0  0  0  0  0  0  0  0  0  0  0  0
  148.5826  134.2527  155.4066 C   0  0  0  0  0  0  0  0  0  0  0  0
  148.0687  135.2296  156.3100 C   0  0  0  0  0  0  0  0  0  0  0  0
  146.9045  135.7754  155.7797 N   0  0  0  0  0  0  0  0  0  0  0  0
  146.7315  135.1506  154.6484 C   0  0  0  0  0  0  0  0  0  0  0  0
  147.6913  134.2141  154.3488 N   0  0  0  0  0  0  0  0  0  0  0  0
  147.7441  133.3810  153.1597 C   0  0  0  0  0  0  0  0  0  0  0  0
  146.4998  132.4724  152.9926 C   0  0  2  0  0  0  0  0  0  0  0  0
  146.7793  131.0418  153.5204 C   0  0  0  0  0  0  0  0  0  0  0  0
  147.8605  130.4353  152.8445 O   0  0  0  0  0  0  0  0  0  0  0  0
  146.0319  132.4782  151.5112 C   0  0  2  0  0  0  0  0  0  0  0  0
  145.5908  133.8449  150.9929 C   0  0  0  0  0  0  0  0  0  0  0  0
  144.5171  133.5391  149.9445 C   0  0  0  0  0  0  0  0  0  0  0  0
  144.3779  132.1256  149.9335 O   0  0  0  0  0  0  0  0  0  0  0  0
  144.7967  131.6334  151.1942 C   0  0  0  0  0  0  0  0  0  0  0  0
  149.2057  136.2500  159.8039 C   0  0  0  0  0  0  0  0  0  0  0  0
  147.9320  135.6540  160.4187 C   0  0  0  0  0  0  0  0  0  0  0  0
  147.9368  134.1121  160.5107 C   0  0  0  0  0  0  0  0  0  0  0  0
  146.5903  133.5259  160.9668 C   0  0  0  0  0  0  0  0  0  0  0  0
  146.1834  134.0836  162.3351 C   0  0  0  0  0  0  0  0  0  0  0  0
  146.2036  135.6162  162.3300 C   0  0  0  0  0  0  0  0  0  0  0  0
  147.5547  136.1572  161.8275 C   0  0  0  0  0  0  0  0  0  0  0  0
  144.4137  136.8023  159.5911 H   0  0  0  0  0  0  0  0  0  0  0  0
  144.6409  138.4522  160.1622 H   0  0  0  0  0  0  0  0  0  0  0  0
  145.3378  137.1125  161.0605 H   0  0  0  0  0  0  0  0  0  0  0  0
  147.0373  138.3129  159.7545 H   0  0  0  0  0  0  0  0  0  0  0  0
  145.3992  137.6194  157.2782 H   0  0  0  0  0  0  0  0  0  0  0  0
  146.9804  138.3870  157.2432 H   0  0  0  0  0  0  0  0  0  0  0  0
  145.6275  139.2074  157.9851 H   0  0  0  0  0  0  0  0  0  0  0  0
  146.5711  135.4566  158.7617 H   0  0  0  0  0  0  0  0  0  0  0  0
  151.2414  133.2954  156.9155 H   0  0  0  0  0  0  0  0  0  0  0  0
  145.8934  135.3561  153.9984 H   0  0  0  0  0  0  0  0  0  0  0  0
  147.8551  134.0506  152.3072 H   0  0  0  0  0  0  0  0  0  0  0  0
  148.6508  132.7757  153.1924 H   0  0  0  0  0  0  0  0  0  0  0  0
  145.7033  132.9029  153.6022 H   0  0  0  0  0  0  0  0  0  0  0  0
  146.9754  131.0546  154.5929 H   0  0  0  0  0  0  0  0  0  0  0  0
  145.9257  130.3838  153.3674 H   0  0  0  0  0  0  0  0  0  0  0  0
  147.9511  130.8429  151.9967 H   0  0  0  0  0  0  0  0  0  0  0  0
  146.8467  132.1225  150.8787 H   0  0  0  0  0  0  0  0  0  0  0  0
  145.1580  134.4468  151.7930 H   0  0  0  0  0  0  0  0  0  0  0  0
  146.4254  134.4054  150.5705 H   0  0  0  0  0  0  0  0  0  0  0  0
  143.5670  133.9993  150.2195 H   0  0  0  0  0  0  0  0  0  0  0  0
  144.7943  133.8984  148.9532 H   0  0  0  0  0  0  0  0  0  0  0  0
  145.0143  130.5666  151.1379 H   0  0  0  0  0  0  0  0  0  0  0  0
  144.0059  131.7903  151.9299 H   0  0  0  0  0  0  0  0  0  0  0  0
  150.0590  135.5721  159.8198 H   0  0  0  0  0  0  0  0  0  0  0  0
  149.4745  137.2195  160.2230 H   0  0  0  0  0  0  0  0  0  0  0  0
  148.1956  133.6698  159.5486 H   0  0  0  0  0  0  0  0  0  0  0  0
  148.7194  133.7838  161.1962 H   0  0  0  0  0  0  0  0  0  0  0  0
  145.8186  133.7560  160.2315 H   0  0  0  0  0  0  0  0  0  0  0  0
  146.6554  132.4386  161.0148 H   0  0  0  0  0  0  0  0  0  0  0  0
  145.1931  133.7207  162.6112 H   0  0  0  0  0  0  0  0  0  0  0  0
  146.8722  133.7145  163.0959 H   0  0  0  0  0  0  0  0  0  0  0  0
  145.3951  135.9852  161.6995 H   0  0  0  0  0  0  0  0  0  0  0  0
  146.0040  135.9908  163.3344 H   0  0  0  0  0  0  0  0  0  0  0  0
  148.3320  135.8720  162.5376 H   0  0  0  0  0  0  0  0  0  0  0  0
  147.5280  137.2436  161.8648 H   0  0  0  0  0  0  0  0  0  0  0  0
  1  2  1  0  0  0  0
  1 31  1  0  0  0  0
  1 32  1  0  0  0  0
  1 33  1  0  0  0  0
  2  3  1  0  0  0  0
  2  4  1  0  0  0  0
  2 34  1  0  0  0  0
  3 35  1  0  0  0  0
  3 36  1  0  0  0  0
  3 37  1  0  0  0  0
  4 25  1  0  0  0  0
  4  5  1  0  0  0  0
  4 38  1  0  0  0  0
  5  6  1  0  0  0  0
  5 24  1  0  0  0  0
  6 11  1  0  0  0  0
  6  7  2  0  0  0  0
  7  8  1  0  0  0  0
  8  9  2  0  0  0  0
  8 39  1  0  0  0  0
  9 10  1  0  0  0  0
 10 14  1  0  0  0  0
 10 11  2  0  0  0  0
 11 12  1  0  0  0  0
 12 13  2  0  0  0  0
 13 14  1  0  0  0  0
 13 40  1  0  0  0  0
 14 15  1  0  0  0  0
 15 16  1  0  0  0  0
 15 41  1  0  0  0  0
 15 42  1  0  0  0  0
 16 17  1  0  0  0  0
 16 19  1  0  0  0  0
 16 43  1  0  0  0  0
 17 18  1  0  0  0  0
 17 44  1  0  0  0  0
 17 45  1  0  0  0  0
 18 46  1  0  0  0  0
 19 23  1  0  0  0  0
 19 20  1  0  0  0  0
 19 47  1  0  0  0  0
 20 21  1  0  0  0  0
 20 48  1  0  0  0  0
 20 49  1  0  0  0  0
 21 22  1  0  0  0  0
 21 50  1  0  0  0  0
 21 51  1  0  0  0  0
 22 23  1  0  0  0  0
 23 52  1  0  0  0  0
 23 53  1  0  0  0  0
 24 25  1  0  0  0  0
 24 54  1  0  0  0  0
 24 55  1  0  0  0  0
 25 30  1  0  0  0  0
 25 26  1  0  0  0  0
 26 27  1  0  0  0  0
 26 56  1  0  0  0  0
 26 57  1  0  0  0  0
 27 28  1  0  0  0  0
 27 58  1  0  0  0  0
 27 59  1  0  0  0  0
 28 29  1  0  0  0  0
 28 60  1  0  0  0  0
 28 61  1  0  0  0  0
 29 30  1  0  0  0  0
 29 62  1  0  0  0  0
 29 63  1  0  0  0  0
 30 64  1  0  0  0  0
 30 65  1  0  0  0  0
M  END
> <s_m_source_file>
AV-unprocessed.smi

> <i_m_source_file_index>
275

> <i_lp_mmshare_version>
43012

> <i_f3d_flags>
0

> <s_epik_input>
W0NIMl0xW0NIMl1bQ0gyXVtDSDJdW0NIMl1DMTJbQ0BIXShbQ0hdKFtDSDNdKVtDSDNdKU4oW0NIMl0yKWMobltjSF1uMyljKGMzNCluW2NIXW40W0NIMl1bQ0BIXShbQ0gyXVtPSF0pW0NAQEhdNVtDSDJdW0NIMl1PW0NIMl01

> <s_epik_cmdline>
J2VwaWtfcHl0aG9uJywgJy1waCcsICc3LjAnLCAnLXRuJywgJzgnLCAnLW1hJywgJzIwMCcsICctbWV0YWxfYmluZGluZycsICctaW1hZScsICc8aW5maWxlLm1hZT4nLCAnLW9tYWUnLCAnPG91dGZpbGUubWFlPic=

> <r_lp_tautomer_probability>
1

> <r_epik_Ionization_Penalty>
0.00375122

> <r_epik_Ionization_Penalty_Charging>
0

> <r_epik_Ionization_Penalty_Neutral>
0.00375122

> <r_epik_State_Penalty>
0.00260593

> <r_epik_Charging_Adjusted_Penalty>
0.00260593

> <i_epik_Tot_Q>
0

> <i_epik_Tot_abs_Q>
0

> <r_epik_Metal_State_Penalty>
-0

> <b_epik_Metal_Only>
0

> <s_lp_Force_Field>
OPLS_2005

> <r_lp_Energy>
70.0888

> <b_lp_Chiralities_Consistent>
1

> <s_lp_Variant>
AV-unprocessed.smi:275-2

> <Gold.Version>
5.8.1

> <Gold.Id.Protein>
6NUR|6NUR_protein|mol2

> <Gold.PLP.Fitness>
42.8587

> <Gold.PLP.PLP>
-38.4428

> <Gold.PLP.part.hbond>
-2.9021

> <Gold.PLP.part.metal>
0.0000

> <Gold.PLP.part.buried>
-6.9941

> <Gold.PLP.part.nonpolar>
-30.6518

> <Gold.PLP.part.repulsive>
0.1724

> <Gold.PLP.ligand.clash>
0.0000

> <Gold.PLP.ligand.torsion>
0.8847

> <Gold.PLP.Chemscore.Hbond>
1.8815

> <Gold.PLP.Chemscore.CHOScore>
0.0000

> <Gold.PLP.Chemscore.Metal>
0.0000

> <Gold.Chemscore.Hbonds>
donor molecule, donor type, donor heavy atom, donor atom, acceptor molecule, acceptor atom, score
      L1  H    18    46       P1 10747  0.88
      P1  H  6896  6908       L1     7  0.88

> <Gold.PLP.Chemscore.Internal.Correction>
0.5409

> <Gold.Rescore>
     Score         DG    S(hbond)    S(metal)    S(lipo)     H(rot)  DE(clash)    DE(int)     intcor
     14.70     -15.86       1.47        0.00     102.16       2.54       0.15       1.01       ----

> <Gold.Chemscore.Fitness>
14.7015

> <Gold.Chemscore.DG>
-15.8568

> <Gold.Chemscore.ZeroCoef>
-5.4800

> <Gold.Chemscore.Hbond>
1.4732

> <Gold.Chemscore.Metal>
0.0000

> <Gold.Chemscore.Lipo>
102.1622

> <Gold.Chemscore.Internal_Hbond>
0.0000

> <Gold.Chemscore.DEClash>
0.1476

> <Gold.Chemscore.DEInternal>
1.0077

> <Gold.Chemscore.Rot>
2.5377

> <Gold.Chemscore.Internal.Correction>
   9.000000E+99

> <Gold.Chemscore.Hbonds>
donor molecule, donor type, donor heavy atom, donor atom, acceptor molecule, acceptor atom, score
      L1  H    18    46       P1 10747  0.84
      P1  H  6896  6908       L1     7  0.67

> <Gold.Chemscore.Hbond.Weighted>
-4.9204

> <Gold.Chemscore.Metal.Weighted>
-0.0000

> <Gold.Chemscore.Lipo.Weighted>
-11.9530

> <Gold.Chemscore.Internal_Hbond.Weighted>
0.0000

> <Gold.Chemscore.DEClash.Weighted>
0.1476

> <Gold.Chemscore.DEInternal.Weighted>
1.0077

> <Gold.Chemscore.Rot.Weighted>
6.4966

> <Gold.Chemscore.Internal.Correction.Weighted>
   9.000000E+99

> <Gold.Protein.RotatedTorsions>
[ 6907 6896 6895 6894 ] final  147.42 input  -60.11 | X-H torsion
[ 7974 7965 7964 7962 ] final  151.19 input  175.53 | X-H torsion
[ 8008 7997 7996 7995 ] final -103.84 input   59.86 | X-H torsion
[ 10167 10162 10161 10158 ] final  128.72 input  -65.29 | X-H torsion
[ 10718 10713 10712 10709 ] final -113.08 input   66.30 | X-H torsion
[ 10763 10752 10751 10750 ] final  156.94 input  -60.55 | X-H torsion
[ 11005 11000 10999 10996 ] final   95.55 input  -57.11 | X-H torsion

> <Gold.Protein.ActiveResidues>
 VAL166  LYS551  ARG553  GLY616  TRP617  ASP618  TYR619  PRO620  LYS621  CYS622 
 ASP623  PHE694  ASN695  SER759  ASP760  ASP761  ALA762  ILE779  LEU786  VAL792 
 PHE793  MET794  SER795  GLU796  ALA797  LYS798  CYS799  TRP800  GLU811  SER814 

> <Gold.Protein.RotatedAtoms>
  152.1551  133.4546  159.4832 H   0  0  0  0  0  0  0  0  0  0  0  0  # atno 6907 bound_to 6896
  150.6900  134.2141  159.4380 H   0  0  0  0  0  0  0  0  0  0  0  0  # atno 6908 bound_to 6896
  152.0040  134.9912  160.0616 H   0  0  0  0  0  0  0  0  0  0  0  0  # atno 6909 bound_to 6896
  144.8310  139.6505  143.6059 H   0  0  0  0  0  0  0  0  0  0  0  0  # atno 7974 bound_to 7965
  154.8766  140.0421  157.1757 H   0  0  0  0  0  0  0  0  0  0  0  0  # atno 8008 bound_to 7997
  154.8683  140.2954  155.5476 H   0  0  0  0  0  0  0  0  0  0  0  0  # atno 8009 bound_to 7997
  156.2999  140.2434  156.3667 H   0  0  0  0  0  0  0  0  0  0  0  0  # atno 8010 bound_to 7997
  139.5513  144.6815  151.4315 H   0  0  0  0  0  0  0  0  0  0  0  0  # atno 10167 bound_to 10162
  156.0745  130.5954  150.8594 H   0  0  0  0  0  0  0  0  0  0  0  0  # atno 10718 bound_to 10713
  154.1924  135.2794  155.3018 H   0  0  0  0  0  0  0  0  0  0  0  0  # atno 10763 bound_to 10752
  154.5919  135.5557  153.7290 H   0  0  0  0  0  0  0  0  0  0  0  0  # atno 10764 bound_to 10752
  153.0109  135.6370  154.2062 H   0  0  0  0  0  0  0  0  0  0  0  0  # atno 10765 bound_to 10752
  139.8788  134.8905  156.4027 H   0  0  0  0  0  0  0  0  0  0  0  0  # atno 11005 bound_to 11000
  146.2613  139.6417  142.9360 LP  0  0  0  0  0  0  0  0  0  0  0  0  # atno 17320 bound_to 7965
  145.4895  141.0438  143.2601 LP  0  0  0  0  0  0  0  0  0  0  0  0  # atno 17321 bound_to 7965
  140.6776  143.8154  150.7079 LP  0  0  0  0  0  0  0  0  0  0  0  0  # atno 17342 bound_to 10162
  140.1598  143.4285  152.2075 LP  0  0  0  0  0  0  0  0  0  0  0  0  # atno 17343 bound_to 10162
  157.5833  131.0946  150.9237 LP  0  0  0  0  0  0  0  0  0  0  0  0  # atno 17370 bound_to 10713
  156.9428  130.5391  149.5280 LP  0  0  0  0  0  0  0  0  0  0  0  0  # atno 17371 bound_to 10713
  140.9255  133.7615  155.9959 LP  0  0  0  0  0  0  0  0  0  0  0  0  # atno 17394 bound_to 11000
  140.8390  134.3088  157.5320 LP  0  0  0  0  0  0  0  0  0  0  0  0  # atno 17395 bound_to 11000

$$$$
