AV-unprocessed.smi:1901|AV-procd|sdf|7718|dock4
  -GOLD-   22720 9463D 1   1.00000     0.00000
 Structure written by MMmdl.
 27 28  0  0  0  0  0  0  0  0  2 V2000
  151.0466  140.4626  158.5351 O   0  0  0  0  0  0  0  0  0  0  0  0
  152.2460  140.2802  158.3158 C   0  0  0  0  0  0  0  0  0  0  0  0
  153.1544  140.9322  159.0538 N   0  0  0  0  0  0  0  0  0  0  0  0
  152.8504  141.8666  160.1308 C   0  0  0  0  0  0  0  0  0  0  0  0
  152.4759  143.2489  159.5714 C   0  0  2  0  0  0  0  0  0  0  0  0
  152.1519  144.2928  160.6221 C   0  0  0  0  0  0  0  0  0  0  0  0
  151.3793  145.3276  159.8096 C   0  0  0  0  0  0  0  0  0  0  0  0
  150.7151  144.5999  158.7799 O   0  0  0  0  0  0  0  0  0  0  0  0
  151.1899  143.2570  158.7457 C   0  0  0  0  0  0  0  0  0  0  0  0
  152.8018  139.4676  157.3810 N   0  5  0  0  0  0  0  0  0  0  0  0
  152.2202  139.1014  156.2172 C   0  0  0  0  0  0  0  0  0  0  0  0
  152.4847  138.0008  155.4938 N   0  0  0  0  0  0  0  0  0  0  0  0
  151.7211  137.8859  154.3321 C   0  0  0  0  0  0  0  0  0  0  0  0
  150.8462  138.9233  154.1567 C   0  0  0  0  0  0  0  0  0  0  0  0
  150.9619  140.0775  155.4532 S   0  0  0  0  0  0  0  0  0  0  0  0
  154.1288  140.7635  158.8515 H   0  0  0  0  0  0  0  0  0  0  0  0
  152.0247  141.4723  160.7248 H   0  0  0  0  0  0  0  0  0  0  0  0
  153.7128  141.9469  160.7945 H   0  0  0  0  0  0  0  0  0  0  0  0
  153.2908  143.6213  158.9480 H   0  0  0  0  0  0  0  0  0  0  0  0
  151.5098  143.8678  161.3952 H   0  0  0  0  0  0  0  0  0  0  0  0
  153.0370  144.7085  161.1043 H   0  0  0  0  0  0  0  0  0  0  0  0
  150.6730  145.8923  160.4184 H   0  0  0  0  0  0  0  0  0  0  0  0
  152.0667  146.0349  159.3442 H   0  0  0  0  0  0  0  0  0  0  0  0
  151.3489  142.9167  157.7221 H   0  0  0  0  0  0  0  0  0  0  0  0
  150.4341  142.6156  159.2009 H   0  0  0  0  0  0  0  0  0  0  0  0
  151.8665  137.0316  153.6881 H   0  0  0  0  0  0  0  0  0  0  0  0
  150.1455  139.0795  153.3507 H   0  0  0  0  0  0  0  0  0  0  0  0
  1  2  2  0  0  0  0
  2  3  1  0  0  0  0
  2 10  1  0  0  0  0
  3  4  1  0  0  0  0
  3 16  1  0  0  0  0
  4  5  1  0  0  0  0
  4 17  1  0  0  0  0
  4 18  1  0  0  0  0
  5  9  1  0  0  0  0
  5  6  1  0  0  0  0
  5 19  1  0  0  0  0
  6  7  1  0  0  0  0
  6 20  1  0  0  0  0
  6 21  1  0  0  0  0
  7  8  1  0  0  0  0
  7 22  1  0  0  0  0
  7 23  1  0  0  0  0
  8  9  1  0  0  0  0
  9 24  1  0  0  0  0
  9 25  1  0  0  0  0
 10 11  1  0  0  0  0
 11 15  1  0  0  0  0
 11 12  2  0  0  0  0
 12 13  1  0  0  0  0
 13 14  2  0  0  0  0
 13 26  1  0  0  0  0
 14 15  1  0  0  0  0
 14 27  1  0  0  0  0
M  CHG  1  10  -1
M  END
> <s_m_source_file>
AV-unprocessed.smi

> <i_m_source_file_index>
1901

> <i_lp_mmshare_version>
43012

> <i_f3d_flags>
0

> <s_epik_input>
czFbY0hdW2NIXW5jMVtOSF1DKD1PKVtOSF1bQ0gyXVtDQEBIXTJbQ0gyXVtDSDJdT1tDSDJdMg==

> <s_epik_cmdline>
J2VwaWtfcHl0aG9uJywgJy1waCcsICc3LjAnLCAnLXRuJywgJzgnLCAnLW1hJywgJzIwMCcsICctbWV0YWxfYmluZGluZycsICctaW1hZScsICc8aW5maWxlLm1hZT4nLCAnLW9tYWUnLCAnPG91dGZpbGUubWFlPic=

> <r_lp_tautomer_probability>
0.999

> <r_epik_Ionization_Penalty>
8.4411

> <r_epik_Ionization_Penalty_Charging>
6.72681

> <r_epik_Ionization_Penalty_Neutral>
1.71429

> <r_epik_State_Penalty>
6.72698

> <r_epik_Charging_Adjusted_Penalty>
13.4538

> <i_epik_Tot_Q>
-1

> <i_epik_Tot_abs_Q>
1

> <r_epik_Metal_State_Penalty>
2.64812

> <b_epik_Metal_Only>
1

> <s_lp_Force_Field>
OPLS_2005

> <r_lp_Energy>
18.4833

> <b_lp_Chiralities_Consistent>
1

> <s_lp_Variant>
AV-unprocessed.smi:1901-3

> <Gold.Version>
5.8.1

> <Gold.Id.Protein>
6NUR|6NUR_protein|mol2

> <Gold.PLP.Fitness>
44.2365

> <Gold.PLP.PLP>
-33.0695

> <Gold.PLP.part.hbond>
-1.0000

> <Gold.PLP.part.metal>
0.0000

> <Gold.PLP.part.buried>
-4.7152

> <Gold.PLP.part.nonpolar>
-27.2990

> <Gold.PLP.part.repulsive>
0.2641

> <Gold.PLP.ligand.clash>
0.0000

> <Gold.PLP.ligand.torsion>
0.4197

> <Gold.PLP.Chemscore.Hbond>
2.0000

> <Gold.PLP.Chemscore.CHOScore>
2.0000

> <Gold.PLP.Chemscore.Metal>
0.0000

> <Gold.Chemscore.Hbonds>
donor molecule, donor type, donor heavy atom, donor atom, acceptor molecule, acceptor atom, score
      P1  H  7997  8008       L1    10  2.00
      L1  C    13    26       P1  7949  1.00
      L1  C    14    27       P1  7957  1.00

> <Gold.PLP.Chemscore.Internal.Correction>
0.0064

> <Gold.Rescore>
     Score         DG    S(hbond)    S(metal)    S(lipo)     H(rot)  DE(clash)    DE(int)     intcor
     13.28     -13.84       0.77        0.00      77.92       1.30       0.01       0.54       ----

> <Gold.Chemscore.Fitness>
13.2847

> <Gold.Chemscore.DG>
-13.8360

> <Gold.Chemscore.ZeroCoef>
-5.4800

> <Gold.Chemscore.Hbond>
0.7687

> <Gold.Chemscore.Metal>
0.0000

> <Gold.Chemscore.Lipo>
77.9192

> <Gold.Chemscore.Internal_Hbond>
0.0000

> <Gold.Chemscore.DEClash>
0.0095

> <Gold.Chemscore.DEInternal>
0.5418

> <Gold.Chemscore.Rot>
1.3000

> <Gold.Chemscore.Internal.Correction>
   9.000000E+99

> <Gold.Chemscore.Hbonds>
donor molecule, donor type, donor heavy atom, donor atom, acceptor molecule, acceptor atom, score
      P1  H  7997  8008       L1    10  0.39

> <Gold.Chemscore.Hbond.Weighted>
-2.5674

> <Gold.Chemscore.Metal.Weighted>
-0.0000

> <Gold.Chemscore.Lipo.Weighted>
-9.1165

> <Gold.Chemscore.Internal_Hbond.Weighted>
0.0000

> <Gold.Chemscore.DEClash.Weighted>
0.0095

> <Gold.Chemscore.DEInternal.Weighted>
0.5418

> <Gold.Chemscore.Rot.Weighted>
3.3280

> <Gold.Chemscore.Internal.Correction.Weighted>
   9.000000E+99

> <Gold.Protein.RotatedTorsions>
[ 6907 6896 6895 6894 ] final   10.40 input  -60.11 | X-H torsion
[ 7974 7965 7964 7962 ] final  165.17 input  175.53 | X-H torsion
[ 8008 7997 7996 7995 ] final  -78.05 input   59.86 | X-H torsion
[ 10167 10162 10161 10158 ] final  101.89 input  -65.29 | X-H torsion
[ 10718 10713 10712 10709 ] final   61.94 input   66.30 | X-H torsion
[ 10763 10752 10751 10750 ] final  164.50 input  -60.55 | X-H torsion
[ 11005 11000 10999 10996 ] final -134.51 input  -57.11 | X-H torsion

> <Gold.Protein.ActiveResidues>
 VAL166  LYS551  ARG553  GLY616  TRP617  ASP618  TYR619  PRO620  LYS621  CYS622 
 ASP623  PHE694  ASN695  SER759  ASP760  ASP761  ALA762  ILE779  LEU786  VAL792 
 PHE793  MET794  SER795  GLU796  ALA797  LYS798  CYS799  TRP800  GLU811  SER814 

> <Gold.Protein.RotatedAtoms>
  151.7376  135.0861  160.0310 H   0  0  0  0  0  0  0  0  0  0  0  0  # atno 6907 bound_to 6896
  152.3500  133.6164  159.5946 H   0  0  0  0  0  0  0  0  0  0  0  0  # atno 6908 bound_to 6896
  150.7534  133.9505  159.3526 H   0  0  0  0  0  0  0  0  0  0  0  0  # atno 6909 bound_to 6896
  144.7514  139.8431  143.6365 H   0  0  0  0  0  0  0  0  0  0  0  0  # atno 7974 bound_to 7965
  154.5653  140.0700  156.8881 H   0  0  0  0  0  0  0  0  0  0  0  0  # atno 8008 bound_to 7997
  155.2735  140.3367  155.4245 H   0  0  0  0  0  0  0  0  0  0  0  0  # atno 8009 bound_to 7997
  156.2075  140.1746  156.7753 H   0  0  0  0  0  0  0  0  0  0  0  0  # atno 8010 bound_to 7997
  139.7398  144.7014  151.0592 H   0  0  0  0  0  0  0  0  0  0  0  0  # atno 10167 bound_to 10162
  157.5865  130.9023  149.9525 H   0  0  0  0  0  0  0  0  0  0  0  0  # atno 10718 bound_to 10713
  154.3099  135.2757  155.2571 H   0  0  0  0  0  0  0  0  0  0  0  0  # atno 10763 bound_to 10752
  154.4970  135.5818  153.6506 H   0  0  0  0  0  0  0  0  0  0  0  0  # atno 10764 bound_to 10752
  152.9889  135.6148  154.3276 H   0  0  0  0  0  0  0  0  0  0  0  0  # atno 10765 bound_to 10752
  140.8983  134.1723  157.4478 H   0  0  0  0  0  0  0  0  0  0  0  0  # atno 11005 bound_to 11000
  146.1468  139.4540  143.0074 LP  0  0  0  0  0  0  0  0  0  0  0  0  # atno 17320 bound_to 7965
  145.6932  141.0158  143.1544 LP  0  0  0  0  0  0  0  0  0  0  0  0  # atno 17321 bound_to 7965
  140.7784  143.4938  150.9859 LP  0  0  0  0  0  0  0  0  0  0  0  0  # atno 17342 bound_to 10162
  139.8626  143.7294  152.3172 LP  0  0  0  0  0  0  0  0  0  0  0  0  # atno 17343 bound_to 10162
  156.0914  130.3663  150.0387 LP  0  0  0  0  0  0  0  0  0  0  0  0  # atno 17370 bound_to 10713
  156.8517  130.9461  151.3625 LP  0  0  0  0  0  0  0  0  0  0  0  0  # atno 17371 bound_to 10713
  139.8738  134.9887  156.5427 LP  0  0  0  0  0  0  0  0  0  0  0  0  # atno 17394 bound_to 11000
  140.8261  133.8315  155.8940 LP  0  0  0  0  0  0  0  0  0  0  0  0  # atno 17395 bound_to 11000

$$$$
