AV-unprocessed.smi:1599|AV-procd|sdf|6423|dock9
  -GOLD-   22720 7 63D 1   1.00000     0.00000
 Structure written by MMmdl.
 39 40  0  0  0  0  0  0  0  0  1 V2000
  147.0886  141.9402  154.1494 C   0  0  0  0  0  0  0  0  0  0  0  0
  148.2993  141.0993  153.7158 C   0  0  2  0  0  0  0  0  0  0  0  0
  147.8205  139.9747  152.9153 N   0  0  0  0  0  0  0  0  0  0  0  0
  146.8281  139.1398  153.2562 C   0  0  0  0  0  0  0  0  0  0  0  0
  146.2030  139.2156  154.3140 O   0  0  0  0  0  0  0  0  0  0  0  0
  146.6108  138.2263  152.2961 N   0  0  0  0  0  0  0  0  0  0  0  0
  145.6450  137.1886  152.2982 C   0  0  0  0  0  0  0  0  0  0  0  0
  144.3113  137.3254  152.7627 C   0  0  0  0  0  0  0  0  0  0  0  0
  143.6415  136.1897  152.6382 N   0  0  0  0  0  0  0  0  0  0  0  0
  144.5272  135.3163  152.0956 N   0  0  0  0  0  0  0  0  0  0  0  0
  144.1135  133.9531  151.8146 C   0  0  0  0  0  0  0  0  0  0  0  0
  144.2363  133.6329  150.3238 C   0  0  0  0  0  0  0  0  0  0  0  0
  144.3442  134.6670  149.4849 N   0  0  0  0  0  0  0  0  0  0  0  0
  144.2310  132.4673  149.9340 O   0  0  0  0  0  0  0  0  0  0  0  0
  145.7621  135.8945  151.8758 C   0  0  0  0  0  0  0  0  0  0  0  0
  149.1103  140.5776  154.9203 C   0  0  2  0  0  0  0  0  0  0  0  0
  149.3835  141.6180  156.0080 C   0  0  0  0  0  0  0  0  0  0  0  0
  150.6471  141.1105  156.6855 C   0  0  0  0  0  0  0  0  0  0  0  0
  151.1973  140.0634  155.7140 C   0  0  0  0  0  0  0  0  0  0  0  0
  150.4272  140.2173  154.5310 O   0  0  0  0  0  0  0  0  0  0  0  0
  147.3979  142.8282  154.7008 H   0  0  0  0  0  0  0  0  0  0  0  0
  146.4160  141.3683  154.7896 H   0  0  0  0  0  0  0  0  0  0  0  0
  146.5176  142.2794  153.2845 H   0  0  0  0  0  0  0  0  0  0  0  0
  148.9424  141.7367  153.1061 H   0  0  0  0  0  0  0  0  0  0  0  0
  148.2724  139.8312  152.0243 H   0  0  0  0  0  0  0  0  0  0  0  0
  147.1937  138.2833  151.4739 H   0  0  0  0  0  0  0  0  0  0  0  0
  143.8165  138.1916  153.1769 H   0  0  0  0  0  0  0  0  0  0  0  0
  144.7391  133.2727  152.3938 H   0  0  0  0  0  0  0  0  0  0  0  0
  143.0849  133.8049  152.1475 H   0  0  0  0  0  0  0  0  0  0  0  0
  144.4188  134.5033  148.4910 H   0  0  0  0  0  0  0  0  0  0  0  0
  144.3419  135.6093  149.8474 H   0  0  0  0  0  0  0  0  0  0  0  0
  146.5848  135.3417  151.4468 H   0  0  0  0  0  0  0  0  0  0  0  0
  148.6226  139.7042  155.3583 H   0  0  0  0  0  0  0  0  0  0  0  0
  149.5794  142.5918  155.5569 H   0  0  0  0  0  0  0  0  0  0  0  0
  148.5495  141.7310  156.7015 H   0  0  0  0  0  0  0  0  0  0  0  0
  151.3553  141.9241  156.8459 H   0  0  0  0  0  0  0  0  0  0  0  0
  150.4291  140.6589  157.6539 H   0  0  0  0  0  0  0  0  0  0  0  0
  152.2600  140.1964  155.5103 H   0  0  0  0  0  0  0  0  0  0  0  0
  151.0495  139.0576  156.1097 H   0  0  0  0  0  0  0  0  0  0  0  0
  1  2  1  0  0  0  0
  1 21  1  0  0  0  0
  1 22  1  0  0  0  0
  1 23  1  0  0  0  0
  2  3  1  0  0  0  0
  2 16  1  0  0  0  0
  2 24  1  0  0  0  0
  3  4  1  0  0  0  0
  3 25  1  0  0  0  0
  4  5  2  0  0  0  0
  4  6  1  0  0  0  0
  6  7  1  0  0  0  0
  6 26  1  0  0  0  0
  7 15  2  0  0  0  0
  7  8  1  0  0  0  0
  8  9  2  0  0  0  0
  8 27  1  0  0  0  0
  9 10  1  0  0  0  0
 10 11  1  0  0  0  0
 10 15  1  0  0  0  0
 11 12  1  0  0  0  0
 11 28  1  0  0  0  0
 11 29  1  0  0  0  0
 12 13  1  0  0  0  0
 12 14  2  0  0  0  0
 13 30  1  0  0  0  0
 13 31  1  0  0  0  0
 15 32  1  0  0  0  0
 16 20  1  0  0  0  0
 16 17  1  0  0  0  0
 16 33  1  0  0  0  0
 17 18  1  0  0  0  0
 17 34  1  0  0  0  0
 17 35  1  0  0  0  0
 18 19  1  0  0  0  0
 18 36  1  0  0  0  0
 18 37  1  0  0  0  0
 19 20  1  0  0  0  0
 19 38  1  0  0  0  0
 19 39  1  0  0  0  0
M  END
> <s_m_source_file>
AV-unprocessed.smi

> <i_m_source_file_index>
1599

> <i_lp_mmshare_version>
43012

> <i_f3d_flags>
0

> <s_epik_input>
TzFbQ0gyXVtDSDJdW0NIMl1bQ0BIXTFbQ0BIXShbQ0gzXSlbTkhdQyg9TylbTkhdYzJbY0hdbm4oW2NIXTIpW0NIMl1DKD1PKVtOSDJd

> <s_epik_cmdline>
J2VwaWtfcHl0aG9uJywgJy1waCcsICc3LjAnLCAnLXRuJywgJzgnLCAnLW1hJywgJzIwMCcsICctbWV0YWxfYmluZGluZycsICctaW1hZScsICc8aW5maWxlLm1hZT4nLCAnLW9tYWUnLCAnPG91dGZpbGUubWFlPic=

> <r_lp_tautomer_probability>
1

> <r_epik_Ionization_Penalty>
4.15391e-05

> <r_epik_Ionization_Penalty_Charging>
0

> <r_epik_Ionization_Penalty_Neutral>
4.15391e-05

> <r_epik_State_Penalty>
-0

> <r_epik_Charging_Adjusted_Penalty>
0

> <i_epik_Tot_Q>
0

> <i_epik_Tot_abs_Q>
0

> <r_epik_Metal_State_Penalty>
-0

> <b_epik_Metal_Only>
0

> <s_lp_Force_Field>
OPLS_2005

> <r_lp_Energy>
20.6042

> <b_lp_Chiralities_Consistent>
1

> <s_lp_Variant>
AV-unprocessed.smi:1599-1

> <Gold.Version>
5.8.1

> <Gold.Id.Protein>
6NUR|6NUR_protein|mol2

> <Gold.PLP.Fitness>
44.3437

> <Gold.PLP.PLP>
-33.9164

> <Gold.PLP.part.hbond>
-3.7026

> <Gold.PLP.part.metal>
0.0000

> <Gold.PLP.part.buried>
-4.3050

> <Gold.PLP.part.nonpolar>
-27.1250

> <Gold.PLP.part.repulsive>
0.7918

> <Gold.PLP.ligand.clash>
0.0000

> <Gold.PLP.ligand.torsion>
0.9518

> <Gold.PLP.Chemscore.Hbond>
2.3280

> <Gold.PLP.Chemscore.CHOScore>
1.7725

> <Gold.PLP.Chemscore.Metal>
0.0000

> <Gold.Chemscore.Hbonds>
donor molecule, donor type, donor heavy atom, donor atom, acceptor molecule, acceptor atom, score
      L1  H     3    25       P1  7957  0.96
      L1  H    13    30       P1  7921  0.38
      P1  H  7989  7998       L1    20  1.00
      L1  C     8    27       P1 10175  1.00
      L1  C    15    32       P1  7948  0.77

> <Gold.PLP.Chemscore.Internal.Correction>
0.0294

> <Gold.Rescore>
     Score         DG    S(hbond)    S(metal)    S(lipo)     H(rot)  DE(clash)    DE(int)     intcor
     11.65     -15.20       2.70        0.00      55.81       2.28       0.05       3.49       ----

> <Gold.Chemscore.Fitness>
11.6548

> <Gold.Chemscore.DG>
-15.2001

> <Gold.Chemscore.ZeroCoef>
-5.4800

> <Gold.Chemscore.Hbond>
2.7044

> <Gold.Chemscore.Metal>
0.0000

> <Gold.Chemscore.Lipo>
55.8123

> <Gold.Chemscore.Internal_Hbond>
0.0000

> <Gold.Chemscore.DEClash>
0.0514

> <Gold.Chemscore.DEInternal>
3.4940

> <Gold.Chemscore.Rot>
2.2823

> <Gold.Chemscore.Internal.Correction>
   9.000000E+99

> <Gold.Chemscore.Hbonds>
donor molecule, donor type, donor heavy atom, donor atom, acceptor molecule, acceptor atom, score
      L1  H     3    25       P1  7957  0.90
      L1  H    13    30       P1  7921  0.38
      P1  H  7989  7998       L1    20  0.25

> <Gold.Chemscore.Hbond.Weighted>
-9.0328

> <Gold.Chemscore.Metal.Weighted>
-0.0000

> <Gold.Chemscore.Lipo.Weighted>
-6.5300

> <Gold.Chemscore.Internal_Hbond.Weighted>
0.0000

> <Gold.Chemscore.DEClash.Weighted>
0.0514

> <Gold.Chemscore.DEInternal.Weighted>
3.4940

> <Gold.Chemscore.Rot.Weighted>
5.8427

> <Gold.Chemscore.Internal.Correction.Weighted>
   9.000000E+99

> <Gold.Protein.RotatedTorsions>
[ 6907 6896 6895 6894 ] final  151.28 input  -60.11 | X-H torsion
[ 7974 7965 7964 7962 ] final  118.38 input  175.53 | X-H torsion
[ 8008 7997 7996 7995 ] final  -63.09 input   59.86 | X-H torsion
[ 10167 10162 10161 10158 ] final  178.14 input  -65.29 | X-H torsion
[ 10718 10713 10712 10709 ] final  -45.85 input   66.30 | X-H torsion
[ 10763 10752 10751 10750 ] final -108.68 input  -60.55 | X-H torsion
[ 11005 11000 10999 10996 ] final  136.73 input  -57.11 | X-H torsion

> <Gold.Protein.ActiveResidues>
 VAL166  LYS551  ARG553  GLY616  TRP617  ASP618  TYR619  PRO620  LYS621  CYS622 
 ASP623  PHE694  ASN695  SER759  ASP760  ASP761  ALA762  ILE779  LEU786  VAL792 
 PHE793  MET794  SER795  GLU796  ALA797  LYS798  CYS799  TRP800  GLU811  SER814 

> <Gold.Protein.RotatedAtoms>
  152.1028  133.4259  159.4594 H   0  0  0  0  0  0  0  0  0  0  0  0  # atno 6907 bound_to 6896
  150.6864  134.2740  159.4609 H   0  0  0  0  0  0  0  0  0  0  0  0  # atno 6908 bound_to 6896
  152.0602  134.9599  160.0625 H   0  0  0  0  0  0  0  0  0  0  0  0  # atno 6909 bound_to 6896
  145.1559  139.3183  143.4542 H   0  0  0  0  0  0  0  0  0  0  0  0  # atno 7974 bound_to 7965
  154.4535  140.0982  156.6689 H   0  0  0  0  0  0  0  0  0  0  0  0  # atno 8008 bound_to 7997
  155.5210  140.3479  155.4388 H   0  0  0  0  0  0  0  0  0  0  0  0  # atno 8009 bound_to 7997
  156.0730  140.1354  156.9794 H   0  0  0  0  0  0  0  0  0  0  0  0  # atno 8010 bound_to 7997
  139.5281  144.2716  152.0623 H   0  0  0  0  0  0  0  0  0  0  0  0  # atno 10167 bound_to 10162
  156.2242  130.4168  149.8955 H   0  0  0  0  0  0  0  0  0  0  0  0  # atno 10718 bound_to 10713
  154.8149  135.4629  154.0617 H   0  0  0  0  0  0  0  0  0  0  0  0  # atno 10763 bound_to 10752
  153.2018  135.6870  153.8229 H   0  0  0  0  0  0  0  0  0  0  0  0  # atno 10764 bound_to 10752
  153.7711  135.3270  155.3329 H   0  0  0  0  0  0  0  0  0  0  0  0  # atno 10765 bound_to 10752
  140.0066  134.9457  157.0188 H   0  0  0  0  0  0  0  0  0  0  0  0  # atno 11005 bound_to 11000
  146.3489  140.1651  142.8590 LP  0  0  0  0  0  0  0  0  0  0  0  0  # atno 17320 bound_to 7965
  145.0381  140.8924  143.5069 LP  0  0  0  0  0  0  0  0  0  0  0  0  # atno 17321 bound_to 7965
  140.2175  144.4500  150.6357 LP  0  0  0  0  0  0  0  0  0  0  0  0  # atno 17342 bound_to 10162
  140.6440  143.2209  151.6227 LP  0  0  0  0  0  0  0  0  0  0  0  0  # atno 17343 bound_to 10162
  156.6591  130.8775  151.3544 LP  0  0  0  0  0  0  0  0  0  0  0  0  # atno 17370 bound_to 10713
  157.7102  130.9431  150.1064 LP  0  0  0  0  0  0  0  0  0  0  0  0  # atno 17371 bound_to 10713
  140.4630  134.1464  155.7193 LP  0  0  0  0  0  0  0  0  0  0  0  0  # atno 17394 bound_to 11000
  141.1681  133.8663  157.1654 LP  0  0  0  0  0  0  0  0  0  0  0  0  # atno 17395 bound_to 11000

$$$$
