AV-unprocessed.smi:1419|AV-procd|sdf|5782|dock5
  -GOLD-   22720 5423D 1   1.00000     0.00000
 Structure written by MMmdl.
 41 42  0  0  0  0  0  0  0  0  1 V2000
  148.1862  141.7078  155.1047 C   0  0  0  0  0  0  0  0  0  0  0  0
  149.6096  141.3140  155.5212 C   0  0  2  0  0  0  0  0  0  0  0  0
  149.6219  139.9924  156.3163 C   0  0  0  0  0  0  0  0  0  0  0  0
  150.4699  138.9831  155.7066 N   0  0  0  0  0  0  0  0  0  0  0  0
  150.6071  138.7066  154.3527 C   0  0  0  0  0  0  0  0  0  0  0  0
  151.5225  137.6834  154.2514 C   0  0  0  0  0  0  0  0  0  0  0  0
  151.9536  137.3120  155.5229 N   0  0  0  0  0  0  0  0  0  0  0  0
  151.2859  138.1235  156.3324 C   0  0  0  0  0  0  0  0  0  0  0  0
  150.1912  142.3898  156.3223 N   0  0  0  0  0  0  0  0  0  0  0  0
  151.2257  142.2717  157.1728 C   0  0  0  0  0  0  0  0  0  0  0  0
  151.8828  141.2348  157.2744 O   0  0  0  0  0  0  0  0  0  0  0  0
  151.4905  143.3888  157.8936 N   0  0  0  0  0  0  0  0  0  0  0  0
  150.5129  144.3819  158.3574 C   0  0  0  0  0  0  0  0  0  0  0  0
  150.2884  144.1622  159.8663 C   0  0  2  0  0  0  0  0  0  0  0  0
  149.3197  145.1897  160.4612 C   0  0  0  0  0  0  0  0  0  0  0  0
  151.5366  144.2814  160.5537 O   0  0  0  0  0  0  0  0  0  0  0  0
  152.5865  143.4257  160.0897 C   0  0  1  0  0  0  0  0  0  0  0  0
  152.3554  141.9674  160.5266 C   0  0  0  0  0  0  0  0  0  0  0  0
  152.7734  143.6049  158.5671 C   0  0  0  0  0  0  0  0  0  0  0  0
  147.7282  140.9299  154.4933 H   0  0  0  0  0  0  0  0  0  0  0  0
  148.1888  142.6275  154.5185 H   0  0  0  0  0  0  0  0  0  0  0  0
  147.5465  141.8675  155.9736 H   0  0  0  0  0  0  0  0  0  0  0  0
  150.1861  141.1689  154.6059 H   0  0  0  0  0  0  0  0  0  0  0  0
  149.9617  140.1646  157.3389 H   0  0  0  0  0  0  0  0  0  0  0  0
  148.6122  139.5861  156.3868 H   0  0  0  0  0  0  0  0  0  0  0  0
  150.0626  139.2506  153.5948 H   0  0  0  0  0  0  0  0  0  0  0  0
  151.9009  137.1901  153.3684 H   0  0  0  0  0  0  0  0  0  0  0  0
  151.4000  138.0975  157.4062 H   0  0  0  0  0  0  0  0  0  0  0  0
  149.7255  143.2845  156.2798 H   0  0  0  0  0  0  0  0  0  0  0  0
  150.9050  145.3839  158.1768 H   0  0  0  0  0  0  0  0  0  0  0  0
  149.5600  144.3431  157.8297 H   0  0  0  0  0  0  0  0  0  0  0  0
  149.8730  143.1681  160.0343 H   0  0  0  0  0  0  0  0  0  0  0  0
  148.3410  145.1276  159.9850 H   0  0  0  0  0  0  0  0  0  0  0  0
  149.6929  146.2058  160.3303 H   0  0  0  0  0  0  0  0  0  0  0  0
  149.1807  145.0206  161.5294 H   0  0  0  0  0  0  0  0  0  0  0  0
  153.4986  143.7655  160.5809 H   0  0  0  0  0  0  0  0  0  0  0  0
  153.2026  141.3412  160.2457 H   0  0  0  0  0  0  0  0  0  0  0  0
  151.4674  141.5328  160.0708 H   0  0  0  0  0  0  0  0  0  0  0  0
  152.2388  141.8999  161.6083 H   0  0  0  0  0  0  0  0  0  0  0  0
  153.5609  142.9446  158.2008 H   0  0  0  0  0  0  0  0  0  0  0  0
  153.1183  144.6179  158.3543 H   0  0  0  0  0  0  0  0  0  0  0  0
  1  2  1  0  0  0  0
  1 20  1  0  0  0  0
  1 21  1  0  0  0  0
  1 22  1  0  0  0  0
  2  3  1  0  0  0  0
  2  9  1  0  0  0  0
  2 23  1  0  0  0  0
  3  4  1  0  0  0  0
  3 24  1  0  0  0  0
  3 25  1  0  0  0  0
  4  8  1  0  0  0  0
  4  5  1  0  0  0  0
  5  6  2  0  0  0  0
  5 26  1  0  0  0  0
  6  7  1  0  0  0  0
  6 27  1  0  0  0  0
  7  8  2  0  0  0  0
  8 28  1  0  0  0  0
  9 10  1  0  0  0  0
  9 29  1  0  0  0  0
 10 11  2  0  0  0  0
 10 12  1  0  0  0  0
 12 19  1  0  0  0  0
 12 13  1  0  0  0  0
 13 14  1  0  0  0  0
 13 30  1  0  0  0  0
 13 31  1  0  0  0  0
 14 15  1  0  0  0  0
 14 16  1  0  0  0  0
 14 32  1  0  0  0  0
 15 33  1  0  0  0  0
 15 34  1  0  0  0  0
 15 35  1  0  0  0  0
 16 17  1  0  0  0  0
 17 18  1  0  0  0  0
 17 19  1  0  0  0  0
 17 36  1  0  0  0  0
 18 37  1  0  0  0  0
 18 38  1  0  0  0  0
 18 39  1  0  0  0  0
 19 40  1  0  0  0  0
 19 41  1  0  0  0  0
M  END
> <s_m_source_file>
AV-unprocessed.smi

> <i_m_source_file_index>
1419

> <i_lp_mmshare_version>
43012

> <i_f3d_flags>
0

> <s_epik_input>
W2NIXTFuW2NIXVtjSF1uMVtDSDJdW0NAQEhdKFtDSDNdKVtOSF1DKD1PKU4yW0NIMl1bQ0BASF0oW0NIM10pT1tDQEBIXShbQ0gzXSlbQ0gyXTI=

> <s_epik_cmdline>
J2VwaWtfcHl0aG9uJywgJy1waCcsICc3LjAnLCAnLXRuJywgJzgnLCAnLW1hJywgJzIwMCcsICctbWV0YWxfYmluZGluZycsICctaW1hZScsICc8aW5maWxlLm1hZT4nLCAnLW9tYWUnLCAnPG91dGZpbGUubWFlPic=

> <r_lp_tautomer_probability>
1

> <r_epik_Ionization_Penalty>
0.625124

> <r_epik_Ionization_Penalty_Charging>
0.625093

> <r_epik_Ionization_Penalty_Neutral>
3.17415e-05

> <r_epik_State_Penalty>
0.641455

> <r_epik_Charging_Adjusted_Penalty>
1.26655

> <i_epik_Tot_Q>
0

> <i_epik_Tot_abs_Q>
0

> <r_epik_Metal_State_Penalty>
0.307717

> <b_epik_Metal_Only>
0

> <s_lp_Force_Field>
OPLS_2005

> <r_lp_Energy>
29.9288

> <b_lp_Chiralities_Consistent>
1

> <s_lp_Variant>
AV-unprocessed.smi:1419-9

> <Gold.Version>
5.8.1

> <Gold.Id.Protein>
6NUR|6NUR_protein|mol2

> <Gold.PLP.Fitness>
42.0183

> <Gold.PLP.PLP>
-34.2414

> <Gold.PLP.part.hbond>
-2.0000

> <Gold.PLP.part.metal>
0.0000

> <Gold.PLP.part.buried>
-2.4119

> <Gold.PLP.part.nonpolar>
-30.7219

> <Gold.PLP.part.repulsive>
0.2484

> <Gold.PLP.ligand.clash>
0.0000

> <Gold.PLP.ligand.torsion>
1.6157

> <Gold.PLP.Chemscore.Hbond>
1.6497

> <Gold.PLP.Chemscore.CHOScore>
2.0000

> <Gold.PLP.Chemscore.Metal>
0.0000

> <Gold.Chemscore.Hbonds>
donor molecule, donor type, donor heavy atom, donor atom, acceptor molecule, acceptor atom, score
      L1  H     9    29       P1  8028  1.00
      P1  H 10752 10765       L1     7  0.46
      L1  C     5    26       P1  7957  0.85
      L1  C     6    27       P1  7949  1.00

> <Gold.PLP.Chemscore.Internal.Correction>
0.0591

> <Gold.Rescore>
     Score         DG    S(hbond)    S(metal)    S(lipo)     H(rot)  DE(clash)    DE(int)     intcor
     11.19     -15.72       1.06        0.00      91.91       1.58       0.15       4.38       ----

> <Gold.Chemscore.Fitness>
11.1900

> <Gold.Chemscore.DG>
-15.7246

> <Gold.Chemscore.ZeroCoef>
-5.4800

> <Gold.Chemscore.Hbond>
1.0564

> <Gold.Chemscore.Metal>
0.0000

> <Gold.Chemscore.Lipo>
91.9053

> <Gold.Chemscore.Internal_Hbond>
0.0000

> <Gold.Chemscore.DEClash>
0.1530

> <Gold.Chemscore.DEInternal>
4.3815

> <Gold.Chemscore.Rot>
1.5769

> <Gold.Chemscore.Internal.Correction>
   9.000000E+99

> <Gold.Chemscore.Hbonds>
donor molecule, donor type, donor heavy atom, donor atom, acceptor molecule, acceptor atom, score
      L1  H     9    29       P1  8028  1.00
      P1  H 10752 10765       L1     7  0.06

> <Gold.Chemscore.Hbond.Weighted>
-3.5285

> <Gold.Chemscore.Metal.Weighted>
-0.0000

> <Gold.Chemscore.Lipo.Weighted>
-10.7529

> <Gold.Chemscore.Internal_Hbond.Weighted>
0.0000

> <Gold.Chemscore.DEClash.Weighted>
0.1530

> <Gold.Chemscore.DEInternal.Weighted>
4.3815

> <Gold.Chemscore.Rot.Weighted>
4.0369

> <Gold.Chemscore.Internal.Correction.Weighted>
   9.000000E+99

> <Gold.Protein.RotatedTorsions>
[ 6907 6896 6895 6894 ] final  149.12 input  -60.11 | X-H torsion
[ 7974 7965 7964 7962 ] final  -77.19 input  175.53 | X-H torsion
[ 8008 7997 7996 7995 ] final    3.32 input   59.86 | X-H torsion
[ 10167 10162 10161 10158 ] final  156.29 input  -65.29 | X-H torsion
[ 10718 10713 10712 10709 ] final   45.11 input   66.30 | X-H torsion
[ 10763 10752 10751 10750 ] final -164.78 input  -60.55 | X-H torsion
[ 11005 11000 10999 10996 ] final  137.73 input  -57.11 | X-H torsion

> <Gold.Protein.ActiveResidues>
 VAL166  LYS551  ARG553  GLY616  TRP617  ASP618  TYR619  PRO620  LYS621  CYS622 
 ASP623  PHE694  ASN695  SER759  ASP760  ASP761  ALA762  ILE779  LEU786  VAL792 
 PHE793  MET794  SER795  GLU796  ALA797  LYS798  CYS799  TRP800  GLU811  SER814 

> <Gold.Protein.RotatedAtoms>
  152.1323  133.4415  159.4726 H   0  0  0  0  0  0  0  0  0  0  0  0  # atno 6907 bound_to 6896
  150.6879  134.2406  159.4480 H   0  0  0  0  0  0  0  0  0  0  0  0  # atno 6908 bound_to 6896
  152.0291  134.9778  160.0623 H   0  0  0  0  0  0  0  0  0  0  0  0  # atno 6909 bound_to 6896
  145.6030  140.9404  143.1231 H   0  0  0  0  0  0  0  0  0  0  0  0  # atno 7974 bound_to 7965
  154.7023  140.2675  155.6708 H   0  0  0  0  0  0  0  0  0  0  0  0  # atno 8008 bound_to 7997
  156.2769  140.2770  156.1561 H   0  0  0  0  0  0  0  0  0  0  0  0  # atno 8009 bound_to 7997
  155.0748  140.0372  157.2610 H   0  0  0  0  0  0  0  0  0  0  0  0  # atno 8010 bound_to 7997
  139.4821  144.5022  151.8151 H   0  0  0  0  0  0  0  0  0  0  0  0  # atno 10167 bound_to 10162
  157.4341  130.8042  149.7631 H   0  0  0  0  0  0  0  0  0  0  0  0  # atno 10718 bound_to 10713
  154.6996  135.2985  154.9361 H   0  0  0  0  0  0  0  0  0  0  0  0  # atno 10763 bound_to 10752
  154.0297  135.6671  153.4783 H   0  0  0  0  0  0  0  0  0  0  0  0  # atno 10764 bound_to 10752
  153.0671  135.5082  154.8132 H   0  0  0  0  0  0  0  0  0  0  0  0  # atno 10765 bound_to 10752
  140.0134  134.9429  157.0326 H   0  0  0  0  0  0  0  0  0  0  0  0  # atno 11005 bound_to 11000
  144.7302  139.7750  143.7350 LP  0  0  0  0  0  0  0  0  0  0  0  0  # atno 17320 bound_to 7965
  146.1562  139.4661  143.0017 LP  0  0  0  0  0  0  0  0  0  0  0  0  # atno 17321 bound_to 7965
  140.4516  144.1847  150.5898 LP  0  0  0  0  0  0  0  0  0  0  0  0  # atno 17342 bound_to 10162
  140.4578  143.2461  151.9260 LP  0  0  0  0  0  0  0  0  0  0  0  0  # atno 17343 bound_to 10162
  155.9924  130.3931  150.2944 LP  0  0  0  0  0  0  0  0  0  0  0  0  # atno 17370 bound_to 10713
  157.1104  131.0220  151.3050 LP  0  0  0  0  0  0  0  0  0  0  0  0  # atno 17371 bound_to 10713
  140.4513  134.1579  155.7182 LP  0  0  0  0  0  0  0  0  0  0  0  0  # atno 17394 bound_to 11000
  141.1727  133.8577  157.1521 LP  0  0  0  0  0  0  0  0  0  0  0  0  # atno 17395 bound_to 11000

$$$$
