AV-unprocessed.smi:3283|AV-procd|sdf|12569|dock9
  -GOLD-   2272018493D 1   1.00000     0.00000
 Structure written by MMmdl.
 44 45  0  0  0  0  0  0  0  0  2 V2000
  151.7501  140.2136  158.8109 C   0  0  0  0  0  0  0  0  0  0  0  0
  152.2065  141.4176  159.6180 C   0  0  0  0  0  0  0  0  0  0  0  0
  153.1471  141.2653  160.5697 C   0  0  0  0  0  0  0  0  0  0  0  0
  153.6219  142.3712  161.4833 C   0  0  0  0  0  0  0  0  0  0  0  0
  152.5934  143.5023  161.5553 C   0  0  0  0  0  0  0  0  0  0  0  0
  152.1502  143.9486  160.1525 C   0  0  2  0  0  0  0  0  0  0  0  0
  151.1880  145.1463  160.2767 C   0  0  0  0  0  0  0  0  0  0  0  0
  151.5402  142.7773  159.3218 C   0  0  1  0  0  0  0  0  0  0  0  0
  151.5505  143.1346  157.8116 C   0  0  0  0  0  0  0  0  0  0  0  0
  150.2746  142.8171  157.1394 N   0  3  0  0  0  0  0  0  0  0  0  0
  150.3208  141.6150  156.2841 C   0  0  0  0  0  0  0  0  0  0  0  0
  149.6429  141.8572  154.9269 C   0  0  0  0  0  0  0  0  0  0  0  0
  148.8368  140.6911  154.4413 C   0  0  0  0  0  0  0  0  0  0  0  0
  149.1927  139.3760  154.3304 C   0  0  0  0  0  0  0  0  0  0  0  0
  148.0350  138.7452  153.7982 C   0  0  0  0  0  0  0  0  0  0  0  0
  147.0452  139.5960  153.5931 N   0  0  0  0  0  0  0  0  0  0  0  0
  147.5297  140.7909  153.9924 N   0  0  0  0  0  0  0  0  0  0  0  0
  146.6730  141.9587  153.8997 C   0  0  0  0  0  0  0  0  0  0  0  0
  150.6638  140.1302  158.8326 H   0  0  0  0  0  0  0  0  0  0  0  0
  152.1583  139.2874  159.2169 H   0  0  0  0  0  0  0  0  0  0  0  0
  152.0820  140.2873  157.7756 H   0  0  0  0  0  0  0  0  0  0  0  0
  153.6030  140.2985  160.7281 H   0  0  0  0  0  0  0  0  0  0  0  0
  153.7915  141.9637  162.4804 H   0  0  0  0  0  0  0  0  0  0  0  0
  154.5814  142.7389  161.1187 H   0  0  0  0  0  0  0  0  0  0  0  0
  151.7238  143.1675  162.1233 H   0  0  0  0  0  0  0  0  0  0  0  0
  153.0178  144.3414  162.1077 H   0  0  0  0  0  0  0  0  0  0  0  0
  153.0468  144.2966  159.6364 H   0  0  0  0  0  0  0  0  0  0  0  0
  150.2630  144.8588  160.7778 H   0  0  0  0  0  0  0  0  0  0  0  0
  150.9211  145.5703  159.3100 H   0  0  0  0  0  0  0  0  0  0  0  0
  151.6395  145.9500  160.8595 H   0  0  0  0  0  0  0  0  0  0  0  0
  150.5023  142.6655  159.6390 H   0  0  0  0  0  0  0  0  0  0  0  0
  151.7317  144.1975  157.6601 H   0  0  0  0  0  0  0  0  0  0  0  0
  152.3688  142.6116  157.3142 H   0  0  0  0  0  0  0  0  0  0  0  0
  149.5682  142.6786  157.8480 H   0  0  0  0  0  0  0  0  0  0  0  0
  151.3589  141.3153  156.1338 H   0  0  0  0  0  0  0  0  0  0  0  0
  149.8220  140.7938  156.8005 H   0  0  0  0  0  0  0  0  0  0  0  0
  148.9857  142.7228  155.0149 H   0  0  0  0  0  0  0  0  0  0  0  0
  150.3926  142.1386  154.1875 H   0  0  0  0  0  0  0  0  0  0  0  0
  150.1416  138.9299  154.5894 H   0  0  0  0  0  0  0  0  0  0  0  0
  147.8868  137.7033  153.5545 H   0  0  0  0  0  0  0  0  0  0  0  0
  146.7265  142.5375  154.8219 H   0  0  0  0  0  0  0  0  0  0  0  0
  145.6354  141.6606  153.7407 H   0  0  0  0  0  0  0  0  0  0  0  0
  146.9898  142.5808  153.0634 H   0  0  0  0  0  0  0  0  0  0  0  0
  150.0082  143.6072  156.5690 H   0  0  0  0  0  0  0  0  0  0  0  0
  1  2  1  0  0  0  0
  1 19  1  0  0  0  0
  1 20  1  0  0  0  0
  1 21  1  0  0  0  0
  2  8  1  0  0  0  0
  2  3  2  0  0  0  0
  3  4  1  0  0  0  0
  3 22  1  0  0  0  0
  4  5  1  0  0  0  0
  4 23  1  0  0  0  0
  4 24  1  0  0  0  0
  5  6  1  0  0  0  0
  5 25  1  0  0  0  0
  5 26  1  0  0  0  0
  6  7  1  0  0  0  0
  6  8  1  0  0  0  0
  6 27  1  0  0  0  0
  7 28  1  0  0  0  0
  7 29  1  0  0  0  0
  7 30  1  0  0  0  0
  8  9  1  0  0  0  0
  8 31  1  0  0  0  0
  9 10  1  0  0  0  0
  9 32  1  0  0  0  0
  9 33  1  0  0  0  0
 10 11  1  0  0  0  0
 10 34  1  0  0  0  0
 10 44  1  0  0  0  0
 11 12  1  0  0  0  0
 11 35  1  0  0  0  0
 11 36  1  0  0  0  0
 12 13  1  0  0  0  0
 12 37  1  0  0  0  0
 12 38  1  0  0  0  0
 13 17  1  0  0  0  0
 13 14  2  0  0  0  0
 14 15  1  0  0  0  0
 14 39  1  0  0  0  0
 15 16  2  0  0  0  0
 15 40  1  0  0  0  0
 16 17  1  0  0  0  0
 17 18  1  0  0  0  0
 18 41  1  0  0  0  0
 18 42  1  0  0  0  0
 18 43  1  0  0  0  0
M  CHG  1  10   1
M  END
> <s_m_source_file>
AV-unprocessed.smi

> <i_m_source_file_index>
3283

> <i_lp_mmshare_version>
43012

> <i_f3d_flags>
0

> <s_epik_input>
W0NIM11DMT1bQ0hdW0NIMl1bQ0gyXVtDQEBIXShbQ0gzXSlbQ0BIXTFbQ0gyXVtOSF1bQ0gyXVtDSDJdYzJbY0hdW2NIXW5uMltDSDNd

> <s_epik_cmdline>
J2VwaWtfcHl0aG9uJywgJy1waCcsICc3LjAnLCAnLXRuJywgJzgnLCAnLW1hJywgJzIwMCcsICctbWV0YWxfYmluZGluZycsICctaW1hZScsICc8aW5maWxlLm1hZT4nLCAnLW9tYWUnLCAnPG91dGZpbGUubWFlPic=

> <r_lp_tautomer_probability>
1

> <r_epik_Ionization_Penalty>
0.000866911

> <r_epik_Ionization_Penalty_Charging>
0.000836385

> <r_epik_Ionization_Penalty_Neutral>
3.05258e-05

> <r_epik_State_Penalty>
-0

> <r_epik_Charging_Adjusted_Penalty>
0.000836385

> <i_epik_Tot_Q>
1

> <i_epik_Tot_abs_Q>
1

> <r_epik_Metal_State_Penalty>
-0

> <b_epik_Metal_Only>
0

> <s_lp_Force_Field>
OPLS_2005

> <r_lp_Energy>
14.6109

> <b_lp_Chiralities_Consistent>
1

> <s_lp_Variant>
AV-unprocessed.smi:3283-2

> <Gold.Version>
5.8.1

> <Gold.Id.Protein>
6NUR|6NUR_protein|mol2

> <Gold.PLP.Fitness>
48.3619

> <Gold.PLP.PLP>
-42.5187

> <Gold.PLP.part.hbond>
-1.0000

> <Gold.PLP.part.metal>
0.0000

> <Gold.PLP.part.buried>
-3.3376

> <Gold.PLP.part.nonpolar>
-37.9399

> <Gold.PLP.part.repulsive>
0.1977

> <Gold.PLP.ligand.clash>
0.0000

> <Gold.PLP.ligand.torsion>
1.5960

> <Gold.PLP.Chemscore.Hbond>
2.0000

> <Gold.PLP.Chemscore.CHOScore>
0.9964

> <Gold.PLP.Chemscore.Metal>
0.0000

> <Gold.Chemscore.Hbonds>
donor molecule, donor type, donor heavy atom, donor atom, acceptor molecule, acceptor atom, score
      L1  H    10    44       P1  8028  2.00
      L1  C    15    40       P1  7948  1.00

> <Gold.PLP.Chemscore.Internal.Correction>
0.0461

> <Gold.Rescore>
     Score         DG    S(hbond)    S(metal)    S(lipo)     H(rot)  DE(clash)    DE(int)     intcor
     18.57     -20.63       1.00        0.00     133.54       1.48       0.47       1.59       ----

> <Gold.Chemscore.Fitness>
18.5739

> <Gold.Chemscore.DG>
-20.6286

> <Gold.Chemscore.ZeroCoef>
-5.4800

> <Gold.Chemscore.Hbond>
0.9955

> <Gold.Chemscore.Metal>
0.0000

> <Gold.Chemscore.Lipo>
133.5427

> <Gold.Chemscore.Internal_Hbond>
0.0000

> <Gold.Chemscore.DEClash>
0.4671

> <Gold.Chemscore.DEInternal>
1.5876

> <Gold.Chemscore.Rot>
1.4847

> <Gold.Chemscore.Internal.Correction>
   9.000000E+99

> <Gold.Chemscore.Hbonds>
donor molecule, donor type, donor heavy atom, donor atom, acceptor molecule, acceptor atom, score
      L1  H    10    44       P1  8028  0.99

> <Gold.Chemscore.Hbond.Weighted>
-3.3249

> <Gold.Chemscore.Metal.Weighted>
-0.0000

> <Gold.Chemscore.Lipo.Weighted>
-15.6245

> <Gold.Chemscore.Internal_Hbond.Weighted>
0.0000

> <Gold.Chemscore.DEClash.Weighted>
0.4671

> <Gold.Chemscore.DEInternal.Weighted>
1.5876

> <Gold.Chemscore.Rot.Weighted>
3.8008

> <Gold.Chemscore.Internal.Correction.Weighted>
   9.000000E+99

> <Gold.Protein.RotatedTorsions>
[ 6907 6896 6895 6894 ] final   -5.69 input  -60.11 | X-H torsion
[ 7974 7965 7964 7962 ] final   41.60 input  175.53 | X-H torsion
[ 8008 7997 7996 7995 ] final  136.93 input   59.86 | X-H torsion
[ 10167 10162 10161 10158 ] final   36.08 input  -65.29 | X-H torsion
[ 10718 10713 10712 10709 ] final  134.51 input   66.30 | X-H torsion
[ 10763 10752 10751 10750 ] final  138.41 input  -60.55 | X-H torsion
[ 11005 11000 10999 10996 ] final -141.04 input  -57.11 | X-H torsion

> <Gold.Protein.ActiveResidues>
 VAL166  LYS551  ARG553  GLY616  TRP617  ASP618  TYR619  PRO620  LYS621  CYS622 
 ASP623  PHE694  ASN695  SER759  ASP760  ASP761  ALA762  ILE779  LEU786  VAL792 
 PHE793  MET794  SER795  GLU796  ALA797  LYS798  CYS799  TRP800  GLU811  SER814 

> <Gold.Protein.RotatedAtoms>
  151.4776  135.1050  159.9768 H   0  0  0  0  0  0  0  0  0  0  0  0  # atno 6907 bound_to 6896
  152.4792  133.8208  159.7063 H   0  0  0  0  0  0  0  0  0  0  0  0  # atno 6908 bound_to 6896
  150.8851  133.7257  159.2947 H   0  0  0  0  0  0  0  0  0  0  0  0  # atno 6909 bound_to 6896
  146.0810  139.5397  142.9537 H   0  0  0  0  0  0  0  0  0  0  0  0  # atno 7974 bound_to 7965
  156.3003  140.2432  156.3826 H   0  0  0  0  0  0  0  0  0  0  0  0  # atno 8008 bound_to 7997
  154.8687  140.0417  157.1731 H   0  0  0  0  0  0  0  0  0  0  0  0  # atno 8009 bound_to 7997
  154.8818  140.2950  155.5424 H   0  0  0  0  0  0  0  0  0  0  0  0  # atno 8010 bound_to 7997
  140.4161  144.1525  150.6143 H   0  0  0  0  0  0  0  0  0  0  0  0  # atno 10167 bound_to 10162
  157.4665  131.1077  150.9856 H   0  0  0  0  0  0  0  0  0  0  0  0  # atno 10718 bound_to 10713
  153.8892  135.3035  155.3447 H   0  0  0  0  0  0  0  0  0  0  0  0  # atno 10763 bound_to 10752
  154.7725  135.4878  153.9680 H   0  0  0  0  0  0  0  0  0  0  0  0  # atno 10764 bound_to 10752
  153.1307  135.6803  153.9281 H   0  0  0  0  0  0  0  0  0  0  0  0  # atno 10765 bound_to 10752
  140.8363  134.2456  157.4832 H   0  0  0  0  0  0  0  0  0  0  0  0  # atno 11005 bound_to 11000
  145.6218  141.0321  143.1911 LP  0  0  0  0  0  0  0  0  0  0  0  0  # atno 17320 bound_to 7965
  144.7293  139.7775  143.7353 LP  0  0  0  0  0  0  0  0  0  0  0  0  # atno 17321 bound_to 7965
  140.4585  143.2458  151.9252 LP  0  0  0  0  0  0  0  0  0  0  0  0  # atno 17342 bound_to 10162
  139.4782  144.5491  151.8412 LP  0  0  0  0  0  0  0  0  0  0  0  0  # atno 17343 bound_to 10162
  157.0635  130.5835  149.5390 LP  0  0  0  0  0  0  0  0  0  0  0  0  # atno 17370 bound_to 10713
  156.0053  130.5138  150.7807 LP  0  0  0  0  0  0  0  0  0  0  0  0  # atno 17371 bound_to 10713
  139.8704  134.9612  156.4389 LP  0  0  0  0  0  0  0  0  0  0  0  0  # atno 17394 bound_to 11000
  140.8944  133.7825  155.9608 LP  0  0  0  0  0  0  0  0  0  0  0  0  # atno 17395 bound_to 11000

$$$$
