AV-unprocessed.smi:1643|AV-procd|sdf|6577|dock1
  -GOLD-   22720 7263D 1   1.00000     0.00000
 Structure written by MMmdl.
 53 55  0  0  0  0  0  0  0  0  1 V2000
  153.5814  130.9528  160.5568 C   0  0  0  0  0  0  0  0  0  0  0  0
  154.4573  132.0747  159.9939 C   0  0  0  0  0  0  0  0  0  0  0  0
  154.1379  132.5784  158.9167 O   0  0  0  0  0  0  0  0  0  0  0  0
  155.5505  132.4693  160.6899 N   0  0  0  0  0  0  0  0  0  0  0  0
  155.8847  131.9070  162.0030 C   0  0  0  0  0  0  0  0  0  0  0  0
  155.2245  132.7319  163.1192 C   0  0  0  0  0  0  0  0  0  0  0  0
  155.5701  134.2359  163.0966 C   0  0  0  0  0  0  0  0  0  0  0  0
  155.0166  134.9586  161.9422 N   0  0  0  0  0  0  0  0  0  0  0  0
  154.6486  136.3377  162.2709 C   0  0  0  0  0  0  0  0  0  0  0  0
  154.2163  137.1919  161.0624 C   0  0  1  0  0  0  0  0  0  0  0  0
  152.9344  136.7629  160.6507 O   0  0  0  0  0  0  0  0  0  0  0  0
  154.1585  138.6950  161.4002 C   0  0  0  0  0  0  0  0  0  0  0  0
  153.7313  139.4935  160.2672 N   0  0  0  0  0  0  0  0  0  0  0  0
  153.6885  139.1269  158.9720 C   0  0  0  0  0  0  0  0  0  0  0  0
  153.2597  140.0337  158.0980 N   0  0  0  0  0  0  0  0  0  0  0  0
  152.9886  141.1120  158.9238 C   0  0  0  0  0  0  0  0  0  0  0  0
  152.4991  142.4017  158.6214 C   0  0  0  0  0  0  0  0  0  0  0  0
  152.2958  143.3577  159.6426 C   0  0  0  0  0  0  0  0  0  0  0  0
  151.7676  144.7325  159.2728 C   0  0  0  0  0  0  0  0  0  0  0  0
  152.5846  143.0293  160.9919 C   0  0  0  0  0  0  0  0  0  0  0  0
  152.3754  144.0386  162.1070 C   0  0  0  0  0  0  0  0  0  0  0  0
  153.0747  141.7462  161.3107 C   0  0  0  0  0  0  0  0  0  0  0  0
  153.2720  140.8045  160.2860 C   0  0  0  0  0  0  0  0  0  0  0  0
  155.9291  134.9480  160.7893 C   0  0  0  0  0  0  0  0  0  0  0  0
  156.4325  133.5732  160.2933 C   0  0  0  0  0  0  0  0  0  0  0  0
  154.1644  130.0463  160.7194 H   0  0  0  0  0  0  0  0  0  0  0  0
  152.7784  130.7091  159.8602 H   0  0  0  0  0  0  0  0  0  0  0  0
  153.1237  131.2542  161.4993 H   0  0  0  0  0  0  0  0  0  0  0  0
  155.5687  130.8652  162.0766 H   0  0  0  0  0  0  0  0  0  0  0  0
  156.9647  131.8823  162.1528 H   0  0  0  0  0  0  0  0  0  0  0  0
  154.1414  132.6125  163.0688 H   0  0  0  0  0  0  0  0  0  0  0  0
  155.5239  132.3155  164.0812 H   0  0  0  0  0  0  0  0  0  0  0  0
  155.1834  134.6540  164.0241 H   0  0  0  0  0  0  0  0  0  0  0  0
  156.6498  134.3816  163.1525 H   0  0  0  0  0  0  0  0  0  0  0  0
  153.8569  136.3291  163.0220 H   0  0  0  0  0  0  0  0  0  0  0  0
  155.4963  136.8400  162.7393 H   0  0  0  0  0  0  0  0  0  0  0  0
  154.8882  137.0329  160.2198 H   0  0  0  0  0  0  0  0  0  0  0  0
  152.4418  137.5195  160.3712 H   0  0  0  0  0  0  0  0  0  0  0  0
  153.4877  138.8791  162.2408 H   0  0  0  0  0  0  0  0  0  0  0  0
  155.1425  139.0541  161.7042 H   0  0  0  0  0  0  0  0  0  0  0  0
  153.9922  138.1406  158.6526 H   0  0  0  0  0  0  0  0  0  0  0  0
  152.2800  142.6518  157.5937 H   0  0  0  0  0  0  0  0  0  0  0  0
  150.8393  144.9421  159.8047 H   0  0  0  0  0  0  0  0  0  0  0  0
  151.5639  144.8065  158.2041 H   0  0  0  0  0  0  0  0  0  0  0  0
  152.4962  145.5019  159.5294 H   0  0  0  0  0  0  0  0  0  0  0  0
  152.6544  143.6234  163.0762 H   0  0  0  0  0  0  0  0  0  0  0  0
  151.3284  144.3375  162.1608 H   0  0  0  0  0  0  0  0  0  0  0  0
  152.9825  144.9278  161.9366 H   0  0  0  0  0  0  0  0  0  0  0  0
  153.2994  141.4809  162.3331 H   0  0  0  0  0  0  0  0  0  0  0  0
  155.4205  135.4276  159.9523 H   0  0  0  0  0  0  0  0  0  0  0  0
  156.7947  135.5779  160.9992 H   0  0  0  0  0  0  0  0  0  0  0  0
  157.4317  133.4078  160.6975 H   0  0  0  0  0  0  0  0  0  0  0  0
  156.5875  133.5964  159.2146 H   0  0  0  0  0  0  0  0  0  0  0  0
  1  2  1  0  0  0  0
  1 26  1  0  0  0  0
  1 27  1  0  0  0  0
  1 28  1  0  0  0  0
  2  3  2  0  0  0  0
  2  4  1  0  0  0  0
  4 25  1  0  0  0  0
  4  5  1  0  0  0  0
  5  6  1  0  0  0  0
  5 29  1  0  0  0  0
  5 30  1  0  0  0  0
  6  7  1  0  0  0  0
  6 31  1  0  0  0  0
  6 32  1  0  0  0  0
  7  8  1  0  0  0  0
  7 33  1  0  0  0  0
  7 34  1  0  0  0  0
  8  9  1  0  0  0  0
  8 24  1  0  0  0  0
  9 10  1  0  0  0  0
  9 35  1  0  0  0  0
  9 36  1  0  0  0  0
 10 11  1  0  0  0  0
 10 12  1  0  0  0  0
 10 37  1  0  0  0  0
 11 38  1  0  0  0  0
 12 13  1  0  0  0  0
 12 39  1  0  0  0  0
 12 40  1  0  0  0  0
 13 23  1  0  0  0  0
 13 14  1  0  0  0  0
 14 15  2  0  0  0  0
 14 41  1  0  0  0  0
 15 16  1  0  0  0  0
 16 23  2  0  0  0  0
 16 17  1  0  0  0  0
 17 18  2  0  0  0  0
 17 42  1  0  0  0  0
 18 19  1  0  0  0  0
 18 20  1  0  0  0  0
 19 43  1  0  0  0  0
 19 44  1  0  0  0  0
 19 45  1  0  0  0  0
 20 21  1  0  0  0  0
 20 22  2  0  0  0  0
 21 46  1  0  0  0  0
 21 47  1  0  0  0  0
 21 48  1  0  0  0  0
 22 23  1  0  0  0  0
 22 49  1  0  0  0  0
 24 25  1  0  0  0  0
 24 50  1  0  0  0  0
 24 51  1  0  0  0  0
 25 52  1  0  0  0  0
 25 53  1  0  0  0  0
M  END
> <s_m_source_file>
AV-unprocessed.smi

> <i_m_source_file_index>
1643

> <i_lp_mmshare_version>
43012

> <i_f3d_flags>
0

> <s_epik_input>
W0NIM11DKD1PKU4xW0NIMl1bQ0gyXVtDSDJdTihbQ0gyXVtDSDJdMSlbQ0gyXVtDQEhdKFtPSF0pW0NIMl1uKFtjSF1uMiljKGMyMylbY0hdYyhbQ0gzXSljKFtjSF0zKVtDSDNd

> <s_epik_cmdline>
J2VwaWtfcHl0aG9uJywgJy1waCcsICc3LjAnLCAnLXRuJywgJzgnLCAnLW1hJywgJzIwMCcsICctbWV0YWxfYmluZGluZycsICctaW1hZScsICc8aW5maWxlLm1hZT4nLCAnLW9tYWUnLCAnPG91dGZpbGUubWFlPic=

> <r_epik_Ionization_Penalty>
1.17666

> <r_epik_Ionization_Penalty_Charging>
0

> <r_epik_Ionization_Penalty_Neutral>
1.17666

> <r_epik_State_Penalty>
1.20405

> <r_epik_Charging_Adjusted_Penalty>
1.20405

> <i_epik_Tot_Q>
0

> <i_epik_Tot_abs_Q>
0

> <r_epik_Metal_State_Penalty>
1.13307

> <b_epik_Metal_Only>
0

> <s_lp_Force_Field>
OPLS_2005

> <r_lp_Energy>
45.5249

> <b_lp_Chiralities_Consistent>
1

> <s_lp_Variant>
AV-unprocessed.smi:1643-6

> <Gold.Version>
5.8.1

> <Gold.Id.Protein>
6NUR|6NUR_protein|mol2

> <Gold.PLP.Fitness>
48.8843

> <Gold.PLP.PLP>
-40.6504

> <Gold.PLP.part.hbond>
-3.0000

> <Gold.PLP.part.metal>
0.0000

> <Gold.PLP.part.buried>
-1.9816

> <Gold.PLP.part.nonpolar>
-34.2009

> <Gold.PLP.part.repulsive>
0.0000

> <Gold.PLP.ligand.clash>
0.1381

> <Gold.PLP.ligand.torsion>
0.3520

> <Gold.PLP.Chemscore.Hbond>
3.0000

> <Gold.PLP.Chemscore.CHOScore>
0.0000

> <Gold.PLP.Chemscore.Metal>
0.0000

> <Gold.Chemscore.Hbonds>
donor molecule, donor type, donor heavy atom, donor atom, acceptor molecule, acceptor atom, score
      P1  H  6896  6908       L1    11  1.00
      P1  H  6896  6909       L1     3  0.66
      P1  H  7997  8010       L1    15  0.95

> <Gold.PLP.Chemscore.Internal.Correction>
0.0761

> <Gold.Rescore>
     Score         DG    S(hbond)    S(metal)    S(lipo)     H(rot)  DE(clash)    DE(int)     intcor
     19.93     -21.43       2.04        0.00     123.22       2.07       0.09       1.42       ----

> <Gold.Chemscore.Fitness>
19.9269

> <Gold.Chemscore.DG>
-21.4350

> <Gold.Chemscore.ZeroCoef>
-5.4800

> <Gold.Chemscore.Hbond>
2.0434

> <Gold.Chemscore.Metal>
0.0000

> <Gold.Chemscore.Lipo>
123.2187

> <Gold.Chemscore.Internal_Hbond>
0.0000

> <Gold.Chemscore.DEClash>
0.0862

> <Gold.Chemscore.DEInternal>
1.4219

> <Gold.Chemscore.Rot>
2.0650

> <Gold.Chemscore.Internal.Correction>
   9.000000E+99

> <Gold.Chemscore.Hbonds>
donor molecule, donor type, donor heavy atom, donor atom, acceptor molecule, acceptor atom, score
      P1  H  6896  6908       L1    11  0.70
      P1  H  6896  6909       L1     3  0.15
      P1  H  7997  8010       L1    15  0.21

> <Gold.Chemscore.Hbond.Weighted>
-6.8249

> <Gold.Chemscore.Metal.Weighted>
-0.0000

> <Gold.Chemscore.Lipo.Weighted>
-14.4166

> <Gold.Chemscore.Internal_Hbond.Weighted>
0.0000

> <Gold.Chemscore.DEClash.Weighted>
0.0862

> <Gold.Chemscore.DEInternal.Weighted>
1.4219

> <Gold.Chemscore.Rot.Weighted>
5.2865

> <Gold.Chemscore.Internal.Correction.Weighted>
   9.000000E+99

> <Gold.Protein.RotatedTorsions>
[ 6907 6896 6895 6894 ] final  -95.54 input  -60.11 | X-H torsion
[ 7974 7965 7964 7962 ] final  -68.31 input  175.53 | X-H torsion
[ 8008 7997 7996 7995 ] final   33.62 input   59.86 | X-H torsion
[ 10167 10162 10161 10158 ] final  -34.26 input  -65.29 | X-H torsion
[ 10718 10713 10712 10709 ] final  -64.99 input   66.30 | X-H torsion
[ 10763 10752 10751 10750 ] final  -35.49 input  -60.55 | X-H torsion
[ 11005 11000 10999 10996 ] final -163.54 input  -57.11 | X-H torsion

> <Gold.Protein.ActiveResidues>
 VAL166  LYS551  ARG553  GLY616  TRP617  ASP618  TYR619  PRO620  LYS621  CYS622 
 ASP623  PHE694  ASN695  SER759  ASP760  ASP761  ALA762  ILE779  LEU786  VAL792 
 PHE793  MET794  SER795  GLU796  ALA797  LYS798  CYS799  TRP800  GLU811  SER814 

> <Gold.Protein.RotatedAtoms>
  150.6966  134.1641  159.4187 H   0  0  0  0  0  0  0  0  0  0  0  0  # atno 6907 bound_to 6896
  151.9621  135.0116  160.0557 H   0  0  0  0  0  0  0  0  0  0  0  0  # atno 6908 bound_to 6896
  152.1917  133.4743  159.5048 H   0  0  0  0  0  0  0  0  0  0  0  0  # atno 6909 bound_to 6896
  145.7181  140.9050  143.0645 H   0  0  0  0  0  0  0  0  0  0  0  0  # atno 7974 bound_to 7965
  155.1415  140.3266  155.4451 H   0  0  0  0  0  0  0  0  0  0  0  0  # atno 8008 bound_to 7997
  156.2603  140.1993  156.6480 H   0  0  0  0  0  0  0  0  0  0  0  0  # atno 8009 bound_to 7997
  154.6539  140.0555  156.9973 H   0  0  0  0  0  0  0  0  0  0  0  0  # atno 8010 bound_to 7997
  140.7189  143.3561  151.2057 H   0  0  0  0  0  0  0  0  0  0  0  0  # atno 10167 bound_to 10162
  156.0696  130.4241  150.1499 H   0  0  0  0  0  0  0  0  0  0  0  0  # atno 10718 bound_to 10713
  153.8641  135.6837  153.4780 H   0  0  0  0  0  0  0  0  0  0  0  0  # atno 10763 bound_to 10752
  153.1325  135.4692  154.9368 H   0  0  0  0  0  0  0  0  0  0  0  0  # atno 10764 bound_to 10752
  154.7745  135.3249  154.8071 H   0  0  0  0  0  0  0  0  0  0  0  0  # atno 10765 bound_to 10752
  140.5969  134.4987  157.5200 H   0  0  0  0  0  0  0  0  0  0  0  0  # atno 11005 bound_to 11000
  144.6924  139.9166  143.7466 LP  0  0  0  0  0  0  0  0  0  0  0  0  # atno 17320 bound_to 7965
  146.0651  139.3642  143.0557 LP  0  0  0  0  0  0  0  0  0  0  0  0  # atno 17321 bound_to 7965
  139.7102  143.9389  152.2944 LP  0  0  0  0  0  0  0  0  0  0  0  0  # atno 17342 bound_to 10162
  139.9111  144.6856  150.8561 LP  0  0  0  0  0  0  0  0  0  0  0  0  # atno 17343 bound_to 10162
  156.9552  130.9787  151.3490 LP  0  0  0  0  0  0  0  0  0  0  0  0  # atno 17370 bound_to 10713
  157.5759  130.8343  149.8455 LP  0  0  0  0  0  0  0  0  0  0  0  0  # atno 17371 bound_to 10713
  139.9249  134.8075  156.1098 LP  0  0  0  0  0  0  0  0  0  0  0  0  # atno 17394 bound_to 11000
  141.0898  133.6719  156.2515 LP  0  0  0  0  0  0  0  0  0  0  0  0  # atno 17395 bound_to 11000

$$$$
