AV-unprocessed.smi:2893|AV-procd|sdf|11124|dock2
  -GOLD-   2272015593D 1   1.00000     0.00000
 Structure written by MMmdl.
 37 39  0  0  0  0  0  0  0  0  1 V2000
  138.2194  140.5747  153.3774 C   0  0  0  0  0  0  0  0  0  0  0  0
  139.1533  140.2340  154.5466 C   0  0  0  0  0  0  0  0  0  0  0  0
  139.9789  139.0684  154.2541 N   0  0  0  0  0  0  0  0  0  0  0  0
  139.5577  137.7920  154.2795 C   0  0  0  0  0  0  0  0  0  0  0  0
  138.3992  137.4693  154.5462 O   0  0  0  0  0  0  0  0  0  0  0  0
  140.5845  136.7533  153.9139 C   0  0  0  0  0  0  0  0  0  0  0  0
  141.8950  137.1450  153.5635 C   0  0  0  0  0  0  0  0  0  0  0  0
  142.8111  136.1372  153.2165 C   0  0  0  0  0  0  0  0  0  0  0  0
  142.3583  134.8045  153.2383 C   0  0  0  0  0  0  0  0  0  0  0  0
  143.2529  133.7798  152.8991 N   0  0  0  0  0  0  0  0  0  0  0  0
  144.3272  133.9986  151.9351 C   0  0  2  0  0  0  0  0  0  0  0  0
  144.1620  133.1737  150.6564 C   0  0  0  0  0  0  0  0  0  0  0  0
  145.5180  132.4595  150.5638 C   0  0  2  0  0  0  0  0  0  0  0  0
  145.6248  131.3192  151.5843 C   0  0  0  0  0  0  0  0  0  0  0  0
  145.7747  132.0893  152.8947 C   0  0  0  0  0  0  0  0  0  0  0  0
  145.7223  133.5497  152.4145 C   0  0  1  0  0  0  0  0  0  0  0  0
  146.3726  133.4203  151.1613 O   0  0  0  0  0  0  0  0  0  0  0  0
  141.0859  134.4891  153.5830 N   0  0  0  0  0  0  0  0  0  0  0  0
  140.2133  135.4478  153.9106 N   0  0  0  0  0  0  0  0  0  0  0  0
  137.6364  141.4695  153.5959 H   0  0  0  0  0  0  0  0  0  0  0  0
  137.5175  139.7642  153.1787 H   0  0  0  0  0  0  0  0  0  0  0  0
  138.7839  140.7614  152.4634 H   0  0  0  0  0  0  0  0  0  0  0  0
  139.8151  141.0773  154.7451 H   0  0  0  0  0  0  0  0  0  0  0  0
  138.5770  140.0697  155.4585 H   0  0  0  0  0  0  0  0  0  0  0  0
  140.9459  139.2386  154.0163 H   0  0  0  0  0  0  0  0  0  0  0  0
  142.1965  138.1825  153.5605 H   0  0  0  0  0  0  0  0  0  0  0  0
  143.8266  136.3827  152.9425 H   0  0  0  0  0  0  0  0  0  0  0  0
  143.2642  132.9319  153.4473 H   0  0  0  0  0  0  0  0  0  0  0  0
  144.3582  135.0548  151.6635 H   0  0  0  0  0  0  0  0  0  0  0  0
  143.3316  132.4669  150.6919 H   0  0  0  0  0  0  0  0  0  0  0  0
  144.0090  133.8315  149.8003 H   0  0  0  0  0  0  0  0  0  0  0  0
  145.7996  132.1736  149.5501 H   0  0  0  0  0  0  0  0  0  0  0  0
  144.7513  130.6666  151.5728 H   0  0  0  0  0  0  0  0  0  0  0  0
  146.5100  130.7105  151.3957 H   0  0  0  0  0  0  0  0  0  0  0  0
  144.9989  131.8487  153.6215 H   0  0  0  0  0  0  0  0  0  0  0  0
  146.7409  131.8724  153.3513 H   0  0  0  0  0  0  0  0  0  0  0  0
  146.2061  134.2532  153.0925 H   0  0  0  0  0  0  0  0  0  0  0  0
  1  2  1  0  0  0  0
  1 20  1  0  0  0  0
  1 21  1  0  0  0  0
  1 22  1  0  0  0  0
  2  3  1  0  0  0  0
  2 23  1  0  0  0  0
  2 24  1  0  0  0  0
  3  4  1  0  0  0  0
  3 25  1  0  0  0  0
  4  5  2  0  0  0  0
  4  6  1  0  0  0  0
  6 19  1  0  0  0  0
  6  7  2  0  0  0  0
  7  8  1  0  0  0  0
  7 26  1  0  0  0  0
  8  9  2  0  0  0  0
  8 27  1  0  0  0  0
  9 10  1  0  0  0  0
  9 18  1  0  0  0  0
 10 11  1  0  0  0  0
 10 28  1  0  0  0  0
 11 16  1  0  0  0  0
 11 12  1  0  0  0  0
 11 29  1  0  0  0  0
 12 13  1  0  0  0  0
 12 30  1  0  0  0  0
 12 31  1  0  0  0  0
 13 17  1  0  0  0  0
 13 14  1  0  0  0  0
 13 32  1  0  0  0  0
 14 15  1  0  0  0  0
 14 33  1  0  0  0  0
 14 34  1  0  0  0  0
 15 16  1  0  0  0  0
 15 35  1  0  0  0  0
 15 36  1  0  0  0  0
 16 17  1  0  0  0  0
 16 37  1  0  0  0  0
 18 19  2  0  0  0  0
M  END
> <s_m_source_file>
AV-unprocessed.smi

> <i_m_source_file_index>
2893

> <i_lp_mmshare_version>
43012

> <i_f3d_flags>
0

> <s_epik_input>
W0NIM11bQ0gyXVtOSF1DKD1PKWMxW2NIXVtjSF1jKG5uMSlbTkhdW0NASF0oW0NIMl1bQ0BASF0yMylbQ0BASF0oTzMpW0NIMl1bQ0gyXTI=

> <s_epik_cmdline>
J2VwaWtfcHl0aG9uJywgJy1waCcsICc3LjAnLCAnLXRuJywgJzgnLCAnLW1hJywgJzIwMCcsICctbWV0YWxfYmluZGluZycsICctaW1hZScsICc8aW5maWxlLm1hZT4nLCAnLW9tYWUnLCAnPG91dGZpbGUubWFlPic=

> <r_lp_tautomer_probability>
1

> <r_epik_Ionization_Penalty>
0.00432031

> <r_epik_Ionization_Penalty_Charging>
0

> <r_epik_Ionization_Penalty_Neutral>
0.00432031

> <r_epik_State_Penalty>
-0

> <r_epik_Charging_Adjusted_Penalty>
0

> <i_epik_Tot_Q>
0

> <i_epik_Tot_abs_Q>
0

> <r_epik_Metal_State_Penalty>
-0

> <b_epik_Metal_Only>
0

> <s_lp_Force_Field>
OPLS_2005

> <r_lp_Energy>
51.9869

> <b_lp_Chiralities_Consistent>
1

> <s_lp_Variant>
AV-unprocessed.smi:2893-3

> <Gold.Version>
5.8.1

> <Gold.Id.Protein>
6NUR|6NUR_protein|mol2

> <Gold.PLP.Fitness>
40.3097

> <Gold.PLP.PLP>
-36.0922

> <Gold.PLP.part.hbond>
-4.3918

> <Gold.PLP.part.metal>
0.0000

> <Gold.PLP.part.buried>
-9.2802

> <Gold.PLP.part.nonpolar>
-23.2964

> <Gold.PLP.part.repulsive>
0.6063

> <Gold.PLP.ligand.clash>
0.0000

> <Gold.PLP.ligand.torsion>
0.3686

> <Gold.PLP.Chemscore.Hbond>
1.6392

> <Gold.PLP.Chemscore.CHOScore>
0.0000

> <Gold.PLP.Chemscore.Metal>
0.0000

> <Gold.Chemscore.Hbonds>
donor molecule, donor type, donor heavy atom, donor atom, acceptor molecule, acceptor atom, score
      L1  H    10    28       P1 10957  1.00
      P1  H 11000 11005       L1    19  0.38

> <Gold.PLP.Chemscore.Internal.Correction>
0.0372

> <Gold.Rescore>
     Score         DG    S(hbond)    S(metal)    S(lipo)     H(rot)  DE(clash)    DE(int)     intcor
     13.14     -13.50       0.96        0.00      67.59       1.21       0.04       0.32       ----

> <Gold.Chemscore.Fitness>
13.1443

> <Gold.Chemscore.DG>
-13.4996

> <Gold.Chemscore.ZeroCoef>
-5.4800

> <Gold.Chemscore.Hbond>
0.9578

> <Gold.Chemscore.Metal>
0.0000

> <Gold.Chemscore.Lipo>
67.5915

> <Gold.Chemscore.Internal_Hbond>
0.0000

> <Gold.Chemscore.DEClash>
0.0396

> <Gold.Chemscore.DEInternal>
0.3156

> <Gold.Chemscore.Rot>
1.2061

> <Gold.Chemscore.Internal.Correction>
   9.000000E+99

> <Gold.Chemscore.Hbonds>
donor molecule, donor type, donor heavy atom, donor atom, acceptor molecule, acceptor atom, score
      L1  H    10    28       P1 10957  0.81
      P1  H 11000 11005       L1    19  0.02

> <Gold.Chemscore.Hbond.Weighted>
-3.1990

> <Gold.Chemscore.Metal.Weighted>
-0.0000

> <Gold.Chemscore.Lipo.Weighted>
-7.9082

> <Gold.Chemscore.Internal_Hbond.Weighted>
0.0000

> <Gold.Chemscore.DEClash.Weighted>
0.0396

> <Gold.Chemscore.DEInternal.Weighted>
0.3156

> <Gold.Chemscore.Rot.Weighted>
3.0876

> <Gold.Chemscore.Internal.Correction.Weighted>
   9.000000E+99

> <Gold.Protein.RotatedTorsions>
[ 6907 6896 6895 6894 ] final  -41.29 input  -60.11 | X-H torsion
[ 7974 7965 7964 7962 ] final  142.32 input  175.53 | X-H torsion
[ 8008 7997 7996 7995 ] final  -18.58 input   59.86 | X-H torsion
[ 10167 10162 10161 10158 ] final -107.96 input  -65.29 | X-H torsion
[ 10718 10713 10712 10709 ] final -125.39 input   66.30 | X-H torsion
[ 10763 10752 10751 10750 ] final  -49.81 input  -60.55 | X-H torsion
[ 11005 11000 10999 10996 ] final   64.57 input  -57.11 | X-H torsion

> <Gold.Protein.ActiveResidues>
 VAL166  LYS551  ARG553  GLY616  TRP617  ASP618  TYR619  PRO620  LYS621  CYS622 
 ASP623  PHE694  ASN695  SER759  ASP760  ASP761  ALA762  ILE779  LEU786  VAL792 
 PHE793  MET794  SER795  GLU796  ALA797  LYS798  CYS799  TRP800  GLU811  SER814 

> <Gold.Protein.RotatedAtoms>
  150.9684  134.9061  159.7772 H   0  0  0  0  0  0  0  0  0  0  0  0  # atno 6907 bound_to 6896
  152.5181  134.3575  159.9283 H   0  0  0  0  0  0  0  0  0  0  0  0  # atno 6908 bound_to 6896
  151.3585  133.3858  159.2722 H   0  0  0  0  0  0  0  0  0  0  0  0  # atno 6909 bound_to 6896
  144.9018  139.5412  143.5750 H   0  0  0  0  0  0  0  0  0  0  0  0  # atno 7974 bound_to 7965
  154.4896  140.2112  155.9578 H   0  0  0  0  0  0  0  0  0  0  0  0  # atno 8008 bound_to 7997
  156.1286  140.3201  155.8283 H   0  0  0  0  0  0  0  0  0  0  0  0  # atno 8009 bound_to 7997
  155.4338  140.0505  157.3007 H   0  0  0  0  0  0  0  0  0  0  0  0  # atno 8010 bound_to 7997
  140.1713  143.4040  152.1352 H   0  0  0  0  0  0  0  0  0  0  0  0  # atno 10167 bound_to 10162
  156.1671  130.6642  151.0129 H   0  0  0  0  0  0  0  0  0  0  0  0  # atno 10718 bound_to 10713
  154.1001  135.6564  153.4867 H   0  0  0  0  0  0  0  0  0  0  0  0  # atno 10763 bound_to 10752
  153.0291  135.5223  154.7295 H   0  0  0  0  0  0  0  0  0  0  0  0  # atno 10764 bound_to 10752
  154.6444  135.2992  155.0033 H   0  0  0  0  0  0  0  0  0  0  0  0  # atno 10765 bound_to 10752
  139.9950  134.6531  156.0026 H   0  0  0  0  0  0  0  0  0  0  0  0  # atno 11005 bound_to 11000
  146.3112  139.7755  142.9018 LP  0  0  0  0  0  0  0  0  0  0  0  0  # atno 17320 bound_to 7965
  145.3603  141.0324  143.3288 LP  0  0  0  0  0  0  0  0  0  0  0  0  # atno 17321 bound_to 7965
  139.5337  144.7186  151.4968 LP  0  0  0  0  0  0  0  0  0  0  0  0  # atno 17342 bound_to 10162
  140.6580  143.8558  150.6856 LP  0  0  0  0  0  0  0  0  0  0  0  0  # atno 17343 bound_to 10162
  157.6776  131.0846  150.7455 LP  0  0  0  0  0  0  0  0  0  0  0  0  # atno 17370 bound_to 10713
  156.7515  130.4770  149.5455 LP  0  0  0  0  0  0  0  0  0  0  0  0  # atno 17371 bound_to 10713
  141.1597  133.6540  156.4277 LP  0  0  0  0  0  0  0  0  0  0  0  0  # atno 17394 bound_to 11000
  140.4835  134.6642  157.5181 LP  0  0  0  0  0  0  0  0  0  0  0  0  # atno 17395 bound_to 11000

$$$$
