AV-unprocessed.smi:490|AV-procd|sdf|2706|dock1
  -GOLD-   2262023143D 1   1.00000     0.00000
 Structure written by MMmdl.
 50 52  0  0  0  0  0  0  0  0  2 V2000
  153.1248  142.8478  163.4304 C   0  0  0  0  0  0  0  0  0  0  0  0
  152.7673  142.8889  161.9545 C   0  0  0  0  0  0  0  0  0  0  0  0
  152.0338  143.9866  161.4601 C   0  0  0  0  0  0  0  0  0  0  0  0
  151.6814  144.0533  160.1009 C   0  0  0  0  0  0  0  0  0  0  0  0
  152.0653  143.0255  159.2180 C   0  0  0  0  0  0  0  0  0  0  0  0
  151.6675  143.1122  157.7559 C   0  0  0  0  0  0  0  0  0  0  0  0
  152.8153  141.9277  159.7010 C   0  0  0  0  0  0  0  0  0  0  0  0
  153.1912  140.9309  158.8377 O   0  0  0  0  0  0  0  0  0  0  0  0
  152.2467  139.8748  158.7404 C   0  0  0  0  0  0  0  0  0  0  0  0
  151.4578  140.0372  157.4329 C   0  0  1  0  0  0  0  0  0  0  0  0
  152.3184  139.7432  156.3505 O   0  0  0  0  0  0  0  0  0  0  0  0
  150.2361  139.0990  157.3786 C   0  0  0  0  0  0  0  0  0  0  0  0
  149.8042  138.8032  156.0021 N   0  0  0  0  0  0  0  0  0  0  0  0
  149.9249  137.6561  155.2725 C   0  0  0  0  0  0  0  0  0  0  0  0
  150.5410  136.3687  155.7131 C   0  0  0  0  0  0  0  0  0  0  0  0
  151.8284  136.5498  156.2598 O   0  0  0  0  0  0  0  0  0  0  0  0
  149.3629  137.8918  154.0535 N   0  3  0  0  0  0  0  0  0  0  0  0
  148.8758  139.1981  154.0016 C   0  0  0  0  0  0  0  0  0  0  0  0
  148.2270  139.8871  152.9813 C   0  0  0  0  0  0  0  0  0  0  0  0
  147.8525  141.2188  153.2555 C   0  0  0  0  0  0  0  0  0  0  0  0
  148.1239  141.8149  154.5041 C   0  0  0  0  0  0  0  0  0  0  0  0
  148.7832  141.1064  155.5304 C   0  0  0  0  0  0  0  0  0  0  0  0
  149.1533  139.7904  155.2510 C   0  0  0  0  0  0  0  0  0  0  0  0
  153.1547  141.8471  161.0751 C   0  0  0  0  0  0  0  0  0  0  0  0
  153.9346  140.6501  161.6032 C   0  0  0  0  0  0  0  0  0  0  0  0
  152.8756  143.7872  163.9252 H   0  0  0  0  0  0  0  0  0  0  0  0
  154.1930  142.6753  163.5652 H   0  0  0  0  0  0  0  0  0  0  0  0
  152.5777  142.0492  163.9318 H   0  0  0  0  0  0  0  0  0  0  0  0
  151.7325  144.7836  162.1243 H   0  0  0  0  0  0  0  0  0  0  0  0
  151.1139  144.8981  159.7388 H   0  0  0  0  0  0  0  0  0  0  0  0
  151.4169  142.1281  157.3588 H   0  0  0  0  0  0  0  0  0  0  0  0
  152.4861  143.5240  157.1658 H   0  0  0  0  0  0  0  0  0  0  0  0
  150.7963  143.7548  157.6253 H   0  0  0  0  0  0  0  0  0  0  0  0
  152.7280  138.8969  158.7947 H   0  0  0  0  0  0  0  0  0  0  0  0
  151.5634  139.9403  159.5891 H   0  0  0  0  0  0  0  0  0  0  0  0
  151.1171  141.0692  157.3425 H   0  0  0  0  0  0  0  0  0  0  0  0
  151.7870  139.5300  155.5983 H   0  0  0  0  0  0  0  0  0  0  0  0
  150.4285  138.1663  157.9092 H   0  0  0  0  0  0  0  0  0  0  0  0
  149.3904  139.5610  157.8881 H   0  0  0  0  0  0  0  0  0  0  0  0
  149.9015  135.8987  156.4606 H   0  0  0  0  0  0  0  0  0  0  0  0
  150.6035  135.6807  154.8702 H   0  0  0  0  0  0  0  0  0  0  0  0
  152.1108  137.4337  156.0802 H   0  0  0  0  0  0  0  0  0  0  0  0
  148.0150  139.4312  152.0253 H   0  0  0  0  0  0  0  0  0  0  0  0
  147.3444  141.7935  152.4946 H   0  0  0  0  0  0  0  0  0  0  0  0
  147.8184  142.8362  154.6800 H   0  0  0  0  0  0  0  0  0  0  0  0
  148.9780  141.5720  156.4849 H   0  0  0  0  0  0  0  0  0  0  0  0
  153.9658  139.8270  160.8897 H   0  0  0  0  0  0  0  0  0  0  0  0
  153.4796  140.2634  162.5152 H   0  0  0  0  0  0  0  0  0  0  0  0
  154.9614  140.9404  161.8270 H   0  0  0  0  0  0  0  0  0  0  0  0
  149.3121  137.2030  153.3141 H   0  0  0  0  0  0  0  0  0  0  0  0
  1  2  1  0  0  0  0
  1 26  1  0  0  0  0
  1 27  1  0  0  0  0
  1 28  1  0  0  0  0
  2 24  1  0  0  0  0
  2  3  2  0  0  0  0
  3  4  1  0  0  0  0
  3 29  1  0  0  0  0
  4  5  2  0  0  0  0
  4 30  1  0  0  0  0
  5  6  1  0  0  0  0
  5  7  1  0  0  0  0
  6 31  1  0  0  0  0
  6 32  1  0  0  0  0
  6 33  1  0  0  0  0
  7  8  1  0  0  0  0
  7 24  2  0  0  0  0
  8  9  1  0  0  0  0
  9 10  1  0  0  0  0
  9 34  1  0  0  0  0
  9 35  1  0  0  0  0
 10 11  1  0  0  0  0
 10 12  1  0  0  0  0
 10 36  1  0  0  0  0
 11 37  1  0  0  0  0
 12 13  1  0  0  0  0
 12 38  1  0  0  0  0
 12 39  1  0  0  0  0
 13 23  1  0  0  0  0
 13 14  1  0  0  0  0
 14 15  1  0  0  0  0
 14 17  2  0  0  0  0
 15 16  1  0  0  0  0
 15 40  1  0  0  0  0
 15 41  1  0  0  0  0
 16 42  1  0  0  0  0
 17 18  1  0  0  0  0
 17 50  1  0  0  0  0
 18 23  2  0  0  0  0
 18 19  1  0  0  0  0
 19 20  2  0  0  0  0
 19 43  1  0  0  0  0
 20 21  1  0  0  0  0
 20 44  1  0  0  0  0
 21 22  2  0  0  0  0
 21 45  1  0  0  0  0
 22 23  1  0  0  0  0
 22 46  1  0  0  0  0
 24 25  1  0  0  0  0
 25 47  1  0  0  0  0
 25 48  1  0  0  0  0
 25 49  1  0  0  0  0
M  CHG  1  17   1
M  END
> <s_m_source_file>
AV-unprocessed.smi

> <i_m_source_file_index>
490

> <i_lp_mmshare_version>
43012

> <i_f3d_flags>
0

> <s_epik_input>
W0NIM11jMVtjSF1bY0hdYyhbQ0gzXSljKGMxW0NIM10pT1tDSDJdW0NASF0oW09IXSlbQ0gyXW4oYyhuMilbQ0gyXVtPSF0pYyhjMjMpW2NIXVtjSF1bY0hdW2NIXTM=

> <s_epik_cmdline>
J2VwaWtfcHl0aG9uJywgJy1waCcsICc3LjAnLCAnLXRuJywgJzgnLCAnLW1hJywgJzIwMCcsICctbWV0YWxfYmluZGluZycsICctaW1hZScsICc8aW5maWxlLm1hZT4nLCAnLW9tYWUnLCAnPG91dGZpbGUubWFlPic=

> <r_lp_tautomer_probability>
1

> <r_epik_Ionization_Penalty>
1.43125

> <r_epik_Ionization_Penalty_Charging>
1.43039

> <r_epik_Ionization_Penalty_Neutral>
0.000858184

> <r_epik_State_Penalty>
1.51493

> <r_epik_Charging_Adjusted_Penalty>
2.94531

> <i_epik_Tot_Q>
1

> <i_epik_Tot_abs_Q>
1

> <r_epik_Metal_State_Penalty>
5.5599

> <b_epik_Metal_Only>
0

> <s_lp_Force_Field>
OPLS_2005

> <r_lp_Energy>
24.5509

> <b_lp_Chiralities_Consistent>
1

> <s_lp_Variant>
AV-unprocessed.smi:490-4

> <Gold.Version>
5.8.1

> <Gold.Id.Protein>
6NUR|6NUR_protein|mol2

> <Gold.PLP.Fitness>
61.1566

> <Gold.PLP.PLP>
-51.3200

> <Gold.PLP.part.hbond>
-3.9990

> <Gold.PLP.part.metal>
0.0000

> <Gold.PLP.part.buried>
0.9183

> <Gold.PLP.part.nonpolar>
-46.1772

> <Gold.PLP.part.repulsive>
0.0165

> <Gold.PLP.ligand.clash>
0.0000

> <Gold.PLP.ligand.torsion>
1.2219

> <Gold.PLP.Chemscore.Hbond>
4.0000

> <Gold.PLP.Chemscore.CHOScore>
0.0000

> <Gold.PLP.Chemscore.Metal>
0.0000

> <Gold.Chemscore.Hbonds>
donor molecule, donor type, donor heavy atom, donor atom, acceptor molecule, acceptor atom, score
      L1  H    17    50       P1  7948  2.00
      P1  H  7997  8009       L1    11  0.78
      P1  H 10752 10765       L1    16  0.76

> <Gold.PLP.Chemscore.Internal.Correction>
0.2803

> <Gold.Rescore>
     Score         DG    S(hbond)    S(metal)    S(lipo)     H(rot)  DE(clash)    DE(int)     intcor
     21.09     -24.29       2.61        0.00     152.34       3.02       1.98       1.22       ----

> <Gold.Chemscore.Fitness>
21.0905

> <Gold.Chemscore.DG>
-24.2883

> <Gold.Chemscore.ZeroCoef>
-5.4800

> <Gold.Chemscore.Hbond>
2.6079

> <Gold.Chemscore.Metal>
0.0000

> <Gold.Chemscore.Lipo>
152.3417

> <Gold.Chemscore.Internal_Hbond>
0.0000

> <Gold.Chemscore.DEClash>
1.9788

> <Gold.Chemscore.DEInternal>
1.2190

> <Gold.Chemscore.Rot>
3.0180

> <Gold.Chemscore.Internal.Correction>
   9.000000E+99

> <Gold.Chemscore.Hbonds>
donor molecule, donor type, donor heavy atom, donor atom, acceptor molecule, acceptor atom, score
      L1  H    17    50       P1  7948  0.97
      P1  H  7997  8009       L1    11  0.71
      P1  H 10752 10765       L1    16  0.18

> <Gold.Chemscore.Hbond.Weighted>
-8.7104

> <Gold.Chemscore.Metal.Weighted>
-0.0000

> <Gold.Chemscore.Lipo.Weighted>
-17.8240

> <Gold.Chemscore.Internal_Hbond.Weighted>
0.0000

> <Gold.Chemscore.DEClash.Weighted>
1.9788

> <Gold.Chemscore.DEInternal.Weighted>
1.2190

> <Gold.Chemscore.Rot.Weighted>
7.7260

> <Gold.Chemscore.Internal.Correction.Weighted>
   9.000000E+99

> <Gold.Protein.RotatedTorsions>
[ 6907 6896 6895 6894 ] final -157.43 input  -60.11 | X-H torsion
[ 7974 7965 7964 7962 ] final   56.45 input  175.53 | X-H torsion
[ 8008 7997 7996 7995 ] final -145.56 input   59.86 | X-H torsion
[ 10167 10162 10161 10158 ] final -171.04 input  -65.29 | X-H torsion
[ 10718 10713 10712 10709 ] final  -36.55 input   66.30 | X-H torsion
[ 10763 10752 10751 10750 ] final -137.33 input  -60.55 | X-H torsion
[ 11005 11000 10999 10996 ] final   -2.71 input  -57.11 | X-H torsion

> <Gold.Protein.ActiveResidues>
 VAL166  LYS551  ARG553  GLY616  TRP617  ASP618  TYR619  PRO620  LYS621  CYS622 
 ASP623  PHE694  ASN695  SER759  ASP760  ASP761  ALA762  ILE779  LEU786  VAL792 
 PHE793  MET794  SER795  GLU796  ALA797  LYS798  CYS799  TRP800  GLU811  SER814 

> <Gold.Protein.RotatedAtoms>
  151.3028  133.4115  159.2640 H   0  0  0  0  0  0  0  0  0  0  0  0  # atno 6907 bound_to 6896
  151.0181  134.9448  159.8054 H   0  0  0  0  0  0  0  0  0  0  0  0  # atno 6908 bound_to 6896
  152.5317  134.2991  159.9124 H   0  0  0  0  0  0  0  0  0  0  0  0  # atno 6909 bound_to 6896
  145.9397  139.3877  143.0371 H   0  0  0  0  0  0  0  0  0  0  0  0  # atno 7974 bound_to 7965
  155.5452  140.0611  157.2861 H   0  0  0  0  0  0  0  0  0  0  0  0  # atno 8008 bound_to 7997
  154.4439  140.1912  156.0675 H   0  0  0  0  0  0  0  0  0  0  0  0  # atno 8009 bound_to 7997
  156.0556  140.3279  155.7405 H   0  0  0  0  0  0  0  0  0  0  0  0  # atno 8010 bound_to 7997
  139.5826  144.1389  152.1535 H   0  0  0  0  0  0  0  0  0  0  0  0  # atno 10167 bound_to 10162
  156.3255  130.4272  149.7920 H   0  0  0  0  0  0  0  0  0  0  0  0  # atno 10718 bound_to 10713
  154.8664  135.3645  154.5206 H   0  0  0  0  0  0  0  0  0  0  0  0  # atno 10763 bound_to 10752
  153.5836  135.7017  153.5457 H   0  0  0  0  0  0  0  0  0  0  0  0  # atno 10764 bound_to 10752
  153.3435  135.4091  155.1553 H   0  0  0  0  0  0  0  0  0  0  0  0  # atno 10765 bound_to 10752
  140.6614  133.9317  155.8438 H   0  0  0  0  0  0  0  0  0  0  0  0  # atno 11005 bound_to 11000
  145.8317  140.9627  143.0846 LP  0  0  0  0  0  0  0  0  0  0  0  0  # atno 17320 bound_to 7965
  144.6777  140.0170  143.7484 LP  0  0  0  0  0  0  0  0  0  0  0  0  # atno 17321 bound_to 7965
  140.0946  144.5592  150.7031 LP  0  0  0  0  0  0  0  0  0  0  0  0  # atno 17342 bound_to 10162
  140.7102  143.2499  151.4603 LP  0  0  0  0  0  0  0  0  0  0  0  0  # atno 17343 bound_to 10162
  156.5212  130.8216  151.3204 LP  0  0  0  0  0  0  0  0  0  0  0  0  # atno 17370 bound_to 10713
  157.7420  130.9882  150.2487 LP  0  0  0  0  0  0  0  0  0  0  0  0  # atno 17371 bound_to 10713
  141.0462  134.0550  157.3841 LP  0  0  0  0  0  0  0  0  0  0  0  0  # atno 17394 bound_to 11000
  139.9012  135.0165  156.7275 LP  0  0  0  0  0  0  0  0  0  0  0  0  # atno 17395 bound_to 11000

$$$$
