AV-unprocessed.smi:101|AV-procd|sdf|929|dock2
  -GOLD-   2262017443D 1   1.00000     0.00000
 Structure written by MMmdl.
 43 45  0  0  0  0  0  0  0  0  2 V2000
  145.4639  143.6930  153.5851 C   0  0  0  0  0  0  0  0  0  0  0  0
  145.7815  142.7687  154.7479 C   0  0  0  0  0  0  0  0  0  0  0  0
  146.4506  141.6060  154.5845 C   0  0  0  0  0  0  0  0  0  0  0  0
  146.7435  140.7596  155.6447 N   0  0  0  0  0  0  0  0  0  0  0  0
  147.5809  139.4964  155.4681 C   0  0  2  0  0  0  0  0  0  0  0  0
  148.8173  139.7189  156.0684 O   0  0  0  0  0  0  0  0  0  0  0  0
  149.7083  140.2352  155.0899 C   0  0  1  0  0  0  0  0  0  0  0  0
  151.1614  140.1511  155.5792 C   0  0  0  0  0  0  0  0  0  0  0  0
  151.3231  141.0354  156.6757 O   0  0  0  0  0  0  0  0  0  0  0  0
  152.1853  140.7378  157.6652 C   0  0  0  0  0  0  0  0  0  0  0  0
  152.8331  139.6901  157.7143 O   0  0  0  0  0  0  0  0  0  0  0  0
  152.2769  141.8127  158.6953 C   0  0  0  0  0  0  0  0  0  0  0  0
  152.8435  141.5179  159.9573 C   0  0  0  0  0  0  0  0  0  0  0  0
  152.9442  142.5136  160.9487 C   0  0  0  0  0  0  0  0  0  0  0  0
  152.4796  143.8163  160.6901 C   0  0  0  0  0  0  0  0  0  0  0  0
  151.9132  144.1222  159.4389 C   0  0  0  0  0  0  0  0  0  0  0  0
  151.8109  143.1278  158.4466 C   0  0  0  0  0  0  0  0  0  0  0  0
  149.3587  139.4110  153.8378 C   0  0  1  0  0  0  0  0  0  0  0  0
  150.1570  138.2397  153.7618 O   0  0  0  0  0  0  0  0  0  0  0  0
  147.8589  139.1057  154.0000 C   0  0  1  0  0  0  0  0  0  0  0  0
  147.5366  137.7526  153.7361 O   0  0  0  0  0  0  0  0  0  0  0  0
  146.4199  141.1805  156.9647 C   0  0  0  0  0  0  0  0  0  0  0  0
  146.7792  140.4760  157.9082 O   0  0  0  0  0  0  0  0  0  0  0  0
  145.7274  142.3422  157.1380 N   0  5  0  0  0  0  0  0  0  0  0  0
  145.3714  143.1524  156.1018 C   0  0  0  0  0  0  0  0  0  0  0  0
  144.7296  144.1888  156.2710 O   0  0  0  0  0  0  0  0  0  0  0  0
  145.8372  143.2901  152.6434 H   0  0  0  0  0  0  0  0  0  0  0  0
  145.9214  144.6706  153.7400 H   0  0  0  0  0  0  0  0  0  0  0  0
  144.3861  143.8282  153.4905 H   0  0  0  0  0  0  0  0  0  0  0  0
  146.7773  141.3562  153.5878 H   0  0  0  0  0  0  0  0  0  0  0  0
  147.0376  138.7054  155.9869 H   0  0  0  0  0  0  0  0  0  0  0  0
  149.4626  141.2807  154.9008 H   0  0  0  0  0  0  0  0  0  0  0  0
  151.4145  139.1293  155.8660 H   0  0  0  0  0  0  0  0  0  0  0  0
  151.8418  140.4524  154.7814 H   0  0  0  0  0  0  0  0  0  0  0  0
  153.2072  140.5249  160.1790 H   0  0  0  0  0  0  0  0  0  0  0  0
  153.3788  142.2765  161.9085 H   0  0  0  0  0  0  0  0  0  0  0  0
  152.5573  144.5799  161.4502 H   0  0  0  0  0  0  0  0  0  0  0  0
  151.5555  145.1216  159.2387 H   0  0  0  0  0  0  0  0  0  0  0  0
  151.3694  143.3966  157.4978 H   0  0  0  0  0  0  0  0  0  0  0  0
  149.5421  139.9909  152.9328 H   0  0  0  0  0  0  0  0  0  0  0  0
  149.7201  137.6131  153.2058 H   0  0  0  0  0  0  0  0  0  0  0  0
  147.2496  139.6912  153.3144 H   0  0  0  0  0  0  0  0  0  0  0  0
  148.2178  137.3892  153.1907 H   0  0  0  0  0  0  0  0  0  0  0  0
  1  2  1  0  0  0  0
  1 27  1  0  0  0  0
  1 28  1  0  0  0  0
  1 29  1  0  0  0  0
  2 25  1  0  0  0  0
  2  3  2  0  0  0  0
  3  4  1  0  0  0  0
  3 30  1  0  0  0  0
  4  5  1  0  0  0  0
  4 22  1  0  0  0  0
  5 20  1  0  0  0  0
  5  6  1  0  0  0  0
  5 31  1  0  0  0  0
  6  7  1  0  0  0  0
  7  8  1  0  0  0  0
  7 18  1  0  0  0  0
  7 32  1  0  0  0  0
  8  9  1  0  0  0  0
  8 33  1  0  0  0  0
  8 34  1  0  0  0  0
  9 10  1  0  0  0  0
 10 11  2  0  0  0  0
 10 12  1  0  0  0  0
 12 17  1  0  0  0  0
 12 13  2  0  0  0  0
 13 14  1  0  0  0  0
 13 35  1  0  0  0  0
 14 15  2  0  0  0  0
 14 36  1  0  0  0  0
 15 16  1  0  0  0  0
 15 37  1  0  0  0  0
 16 17  2  0  0  0  0
 16 38  1  0  0  0  0
 17 39  1  0  0  0  0
 18 19  1  0  0  0  0
 18 20  1  0  0  0  0
 18 40  1  0  0  0  0
 19 41  1  0  0  0  0
 20 21  1  0  0  0  0
 20 42  1  0  0  0  0
 21 43  1  0  0  0  0
 22 23  2  0  0  0  0
 22 24  1  0  0  0  0
 24 25  1  0  0  0  0
 25 26  2  0  0  0  0
M  CHG  1  24  -1
M  END
> <s_m_source_file>
AV-unprocessed.smi

> <i_m_source_file_index>
101

> <i_lp_mmshare_version>
43012

> <i_f3d_flags>
0

> <s_epik_input>
Tz1jMVtuSF1jKD1PKW4oW2NIXWMxW0NIM10pW0NAQEhdMk9bQ0BIXShbQ0BASF0oW09IXSlbQ0BIXTJbT0hdKVtDSDJdT0MoPU8pYzNbY0hdW2NIXVtjSF1bY0hdW2NIXTM=

> <s_epik_cmdline>
J2VwaWtfcHl0aG9uJywgJy1waCcsICc3LjAnLCAnLXRuJywgJzgnLCAnLW1hJywgJzIwMCcsICctbWV0YWxfYmluZGluZycsICctaW1hZScsICc8aW5maWxlLm1hZT4nLCAnLW9tYWUnLCAnPG91dGZpbGUubWFlPic=

> <r_lp_tautomer_probability>
0.999537

> <r_epik_Ionization_Penalty>
3.21006

> <r_epik_Ionization_Penalty_Charging>
5.75142e-08

> <r_epik_Ionization_Penalty_Neutral>
3.21006

> <r_epik_State_Penalty>
3.20925

> <r_epik_Charging_Adjusted_Penalty>
3.20925

> <i_epik_Tot_Q>
-1

> <i_epik_Tot_abs_Q>
1

> <r_epik_Metal_State_Penalty>
0.119957

> <b_epik_Metal_Only>
1

> <s_epik_Chemistry_Notes>
This compound has an ester and may undergo hydrolysis at high or low pH. This compound contains an acetal/aminal-like group ( X-CH(R)-Y where X, Y are N, S, or O) that may be acid/base labile, releasing an aldehyde.

> <s_lp_Force_Field>
OPLS_2005

> <r_lp_Energy>
45.1107

> <b_lp_Chiralities_Consistent>
1

> <s_lp_Variant>
AV-unprocessed.smi:101-17

> <Gold.Version>
5.8.1

> <Gold.Id.Protein>
6NUR|6NUR_protein|mol2

> <Gold.PLP.Fitness>
52.8326

> <Gold.PLP.PLP>
-44.6548

> <Gold.PLP.part.hbond>
-3.6251

> <Gold.PLP.part.metal>
0.0000

> <Gold.PLP.part.buried>
-2.7828

> <Gold.PLP.part.nonpolar>
-38.0700

> <Gold.PLP.part.repulsive>
0.2524

> <Gold.PLP.ligand.clash>
0.0000

> <Gold.PLP.ligand.torsion>
0.4759

> <Gold.PLP.Chemscore.Hbond>
2.9913

> <Gold.PLP.Chemscore.CHOScore>
0.0000

> <Gold.PLP.Chemscore.Metal>
0.0000

> <Gold.Chemscore.Hbonds>
donor molecule, donor type, donor heavy atom, donor atom, acceptor molecule, acceptor atom, score
      L1  H    19    41       P1  7948  0.99
      L1  H    21    43       P1  7948  1.00
      P1  H  7997  8010       L1    11  1.00

> <Gold.PLP.Chemscore.Internal.Correction>
0.1557

> <Gold.Rescore>
     Score         DG    S(hbond)    S(metal)    S(lipo)     H(rot)  DE(clash)    DE(int)     intcor
     16.13     -19.20       2.80        0.00     108.83       3.27       1.35       1.73       ----

> <Gold.Chemscore.Fitness>
16.1262

> <Gold.Chemscore.DG>
-19.1987

> <Gold.Chemscore.ZeroCoef>
-5.4800

> <Gold.Chemscore.Hbond>
2.7979

> <Gold.Chemscore.Metal>
0.0000

> <Gold.Chemscore.Lipo>
108.8335

> <Gold.Chemscore.Internal_Hbond>
0.0000

> <Gold.Chemscore.DEClash>
1.3463

> <Gold.Chemscore.DEInternal>
1.7262

> <Gold.Chemscore.Rot>
3.2656

> <Gold.Chemscore.Internal.Correction>
   9.000000E+99

> <Gold.Chemscore.Hbonds>
donor molecule, donor type, donor heavy atom, donor atom, acceptor molecule, acceptor atom, score
      L1  H    19    41       P1  7948  0.65
      L1  H    21    43       P1  7948  0.99
      P1  H  7997  8010       L1    11  0.39

> <Gold.Chemscore.Hbond.Weighted>
-9.3450

> <Gold.Chemscore.Metal.Weighted>
-0.0000

> <Gold.Chemscore.Lipo.Weighted>
-12.7335

> <Gold.Chemscore.Internal_Hbond.Weighted>
0.0000

> <Gold.Chemscore.DEClash.Weighted>
1.3463

> <Gold.Chemscore.DEInternal.Weighted>
1.7262

> <Gold.Chemscore.Rot.Weighted>
8.3598

> <Gold.Chemscore.Internal.Correction.Weighted>
   9.000000E+99

> <Gold.Protein.RotatedTorsions>
[ 6907 6896 6895 6894 ] final  168.02 input  -60.11 | X-H torsion
[ 7974 7965 7964 7962 ] final  141.28 input  175.53 | X-H torsion
[ 8008 7997 7996 7995 ] final   59.87 input   59.86 | X-H torsion
[ 10167 10162 10161 10158 ] final   32.31 input  -65.29 | X-H torsion
[ 10718 10713 10712 10709 ] final -130.60 input   66.30 | X-H torsion
[ 10763 10752 10751 10750 ] final -146.60 input  -60.55 | X-H torsion
[ 11005 11000 10999 10996 ] final   27.51 input  -57.11 | X-H torsion

> <Gold.Protein.ActiveResidues>
 VAL166  LYS551  ARG553  GLY616  TRP617  ASP618  TYR619  PRO620  LYS621  CYS622 
 ASP623  PHE694  ASN695  SER759  ASP760  ASP761  ALA762  ILE779  LEU786  VAL792 
 PHE793  MET794  SER795  GLU796  ALA797  LYS798  CYS799  TRP800  GLU811  SER814 

> <Gold.Protein.RotatedAtoms>
  151.8541  133.3445  159.3682 H   0  0  0  0  0  0  0  0  0  0  0  0  # atno 6907 bound_to 6896
  150.7198  134.5270  159.5691 H   0  0  0  0  0  0  0  0  0  0  0  0  # atno 6908 bound_to 6896
  152.2770  134.7871  160.0455 H   0  0  0  0  0  0  0  0  0  0  0  0  # atno 6909 bound_to 6896
  144.9110  139.5293  143.5708 H   0  0  0  0  0  0  0  0  0  0  0  0  # atno 7974 bound_to 7965
  155.5732  140.3490  155.4521 H   0  0  0  0  0  0  0  0  0  0  0  0  # atno 8008 bound_to 7997
  156.0428  140.1300  157.0162 H   0  0  0  0  0  0  0  0  0  0  0  0  # atno 8009 bound_to 7997
  154.4399  140.1020  156.6248 H   0  0  0  0  0  0  0  0  0  0  0  0  # atno 8010 bound_to 7997
  140.4510  144.1048  150.6192 H   0  0  0  0  0  0  0  0  0  0  0  0  # atno 10167 bound_to 10162
  156.2161  130.6949  151.0704 H   0  0  0  0  0  0  0  0  0  0  0  0  # atno 10718 bound_to 10713
  154.8328  135.3382  154.6687 H   0  0  0  0  0  0  0  0  0  0  0  0  # atno 10763 bound_to 10752
  153.7305  135.6952  153.4995 H   0  0  0  0  0  0  0  0  0  0  0  0  # atno 10764 bound_to 10752
  153.2316  135.4414  155.0553 H   0  0  0  0  0  0  0  0  0  0  0  0  # atno 10765 bound_to 10752
  140.3255  134.2496  155.7710 H   0  0  0  0  0  0  0  0  0  0  0  0  # atno 11005 bound_to 11000
  146.3158  139.7917  142.8984 LP  0  0  0  0  0  0  0  0  0  0  0  0  # atno 17320 bound_to 7965
  145.3454  141.0296  143.3369 LP  0  0  0  0  0  0  0  0  0  0  0  0  # atno 17321 bound_to 7965
  140.4207  143.2613  151.9719 LP  0  0  0  0  0  0  0  0  0  0  0  0  # atno 17342 bound_to 10162
  139.4796  144.5833  151.7896 LP  0  0  0  0  0  0  0  0  0  0  0  0  # atno 17343 bound_to 10162
  157.7063  131.0754  150.6654 LP  0  0  0  0  0  0  0  0  0  0  0  0  # atno 17370 bound_to 10713
  156.6715  130.4541  149.5656 LP  0  0  0  0  0  0  0  0  0  0  0  0  # atno 17371 bound_to 10713
  141.2076  133.7800  157.0108 LP  0  0  0  0  0  0  0  0  0  0  0  0  # atno 17394 bound_to 11000
  140.0905  134.9595  157.1769 LP  0  0  0  0  0  0  0  0  0  0  0  0  # atno 17395 bound_to 11000

$$$$
