AV-unprocessed.smi:3338|AV-procd|sdf|12872|dock6
  -GOLD-   2272019273D 1   1.00000     0.00000
 Structure written by MMmdl.
 44 45  0  0  0  0  0  0  0  0  2 V2000
  151.0882  145.0468  158.5026 C   0  0  0  0  0  0  0  0  0  0  0  0
  151.8781  143.7325  158.5755 C   0  0  1  0  0  0  0  0  0  0  0  0
  152.4564  143.5008  159.9813 C   0  0  0  0  0  0  0  0  0  0  0  0
  153.2220  142.1728  160.0273 C   0  0  0  0  0  0  0  0  0  0  0  0
  152.3322  141.0089  159.5629 C   0  0  0  0  0  0  0  0  0  0  0  0
  151.7898  141.2587  158.2021 N   0  3  1  0  0  0  0  0  0  0  0  0
  151.0403  140.0900  157.6760 C   0  0  0  0  0  0  0  0  0  0  0  0
  150.9537  140.0883  156.1373 C   0  0  0  0  0  0  0  0  0  0  0  0
  149.6321  139.6802  155.6768 N   0  0  0  0  0  0  0  0  0  0  0  0
  148.9803  140.2211  154.6342 C   0  0  0  0  0  0  0  0  0  0  0  0
  149.4626  141.1164  153.9392 O   0  0  0  0  0  0  0  0  0  0  0  0
  147.5817  139.6539  154.3327 C   0  0  2  0  0  0  0  0  0  0  0  0
  147.5169  138.8866  152.9961 C   0  0  0  0  0  0  0  0  0  0  0  0
  146.5712  140.7040  154.4005 N   0  0  0  0  0  0  0  0  0  0  0  0
  146.4274  141.8000  153.5738 C   0  0  0  0  0  0  0  0  0  0  0  0
  145.3313  142.4941  153.9989 C   0  0  0  0  0  0  0  0  0  0  0  0
  144.8570  141.7338  155.1036 C   0  0  0  0  0  0  0  0  0  0  0  0
  145.5962  140.6622  155.3385 N   0  0  0  0  0  0  0  0  0  0  0  0
  151.0150  142.5280  158.1487 C   0  0  0  0  0  0  0  0  0  0  0  0
  150.2359  145.0368  159.1827 H   0  0  0  0  0  0  0  0  0  0  0  0
  150.7087  145.2223  157.4955 H   0  0  0  0  0  0  0  0  0  0  0  0
  151.7170  145.8969  158.7690 H   0  0  0  0  0  0  0  0  0  0  0  0
  152.7118  143.8135  157.8763 H   0  0  0  0  0  0  0  0  0  0  0  0
  153.1191  144.3211  160.2598 H   0  0  0  0  0  0  0  0  0  0  0  0
  151.6517  143.4855  160.7181 H   0  0  0  0  0  0  0  0  0  0  0  0
  154.1056  142.2360  159.3907 H   0  0  0  0  0  0  0  0  0  0  0  0
  153.5825  141.9858  161.0392 H   0  0  0  0  0  0  0  0  0  0  0  0
  152.9201  140.0901  159.5651 H   0  0  0  0  0  0  0  0  0  0  0  0
  151.5088  140.8605  160.2634 H   0  0  0  0  0  0  0  0  0  0  0  0
  151.5465  139.1764  157.9911 H   0  0  0  0  0  0  0  0  0  0  0  0
  150.0445  140.0578  158.1210 H   0  0  0  0  0  0  0  0  0  0  0  0
  151.1402  141.0830  155.7346 H   0  0  0  0  0  0  0  0  0  0  0  0
  151.7154  139.4331  155.7110 H   0  0  0  0  0  0  0  0  0  0  0  0
  149.1683  138.9509  156.1996 H   0  0  0  0  0  0  0  0  0  0  0  0
  147.3556  138.9387  155.1252 H   0  0  0  0  0  0  0  0  0  0  0  0
  148.2346  138.0657  152.9764 H   0  0  0  0  0  0  0  0  0  0  0  0
  147.7300  139.5327  152.1434 H   0  0  0  0  0  0  0  0  0  0  0  0
  146.5269  138.4559  152.8437 H   0  0  0  0  0  0  0  0  0  0  0  0
  147.1103  141.9936  152.7596 H   0  0  0  0  0  0  0  0  0  0  0  0
  144.9280  143.4056  153.5831 H   0  0  0  0  0  0  0  0  0  0  0  0
  144.0021  141.9250  155.7354 H   0  0  0  0  0  0  0  0  0  0  0  0
  150.1368  142.4445  158.7915 H   0  0  0  0  0  0  0  0  0  0  0  0
  150.6482  142.7012  157.1378 H   0  0  0  0  0  0  0  0  0  0  0  0
  152.5920  141.3769  157.5998 H   0  0  0  0  0  0  0  0  0  0  0  0
  1  2  1  0  0  0  0
  1 20  1  0  0  0  0
  1 21  1  0  0  0  0
  1 22  1  0  0  0  0
  2 19  1  0  0  0  0
  2  3  1  0  0  0  0
  2 23  1  0  0  0  0
  3  4  1  0  0  0  0
  3 24  1  0  0  0  0
  3 25  1  0  0  0  0
  4  5  1  0  0  0  0
  4 26  1  0  0  0  0
  4 27  1  0  0  0  0
  5  6  1  0  0  0  0
  5 28  1  0  0  0  0
  5 29  1  0  0  0  0
  6  7  1  0  0  0  0
  6 19  1  0  0  0  0
  6 44  1  0  0  0  0
  7  8  1  0  0  0  0
  7 30  1  0  0  0  0
  7 31  1  0  0  0  0
  8  9  1  0  0  0  0
  8 32  1  0  0  0  0
  8 33  1  0  0  0  0
  9 10  1  0  0  0  0
  9 34  1  0  0  0  0
 10 11  2  0  0  0  0
 10 12  1  0  0  0  0
 12 13  1  0  0  0  0
 12 14  1  0  0  0  0
 12 35  1  0  0  0  0
 13 36  1  0  0  0  0
 13 37  1  0  0  0  0
 13 38  1  0  0  0  0
 14 18  1  0  0  0  0
 14 15  1  0  0  0  0
 15 16  2  0  0  0  0
 15 39  1  0  0  0  0
 16 17  1  0  0  0  0
 16 40  1  0  0  0  0
 17 18  2  0  0  0  0
 17 41  1  0  0  0  0
 19 42  1  0  0  0  0
 19 43  1  0  0  0  0
M  CHG  1   6   1
M  END
> <s_m_source_file>
AV-unprocessed.smi

> <i_m_source_file_index>
3338

> <i_lp_mmshare_version>
43012

> <i_f3d_flags>
0

> <s_epik_input>
W0NIM11bQ0BASF0xW0NIMl1bQ0gyXVtDSDJdTihbQ0gyXTEpW0NIMl1bQ0gyXVtOSF1DKD1PKVtDQEhdKFtDSDNdKW4yW2NIXVtjSF1bY0hdbjI=

> <s_epik_cmdline>
J2VwaWtfcHl0aG9uJywgJy1waCcsICc3LjAnLCAnLXRuJywgJzgnLCAnLW1hJywgJzIwMCcsICctbWV0YWxfYmluZGluZycsICctaW1hZScsICc8aW5maWxlLm1hZT4nLCAnLW9tYWUnLCAnPG91dGZpbGUubWFlPic=

> <r_lp_tautomer_probability>
1

> <r_epik_Ionization_Penalty>
0.00225707

> <r_epik_Ionization_Penalty_Charging>
0.00223709

> <r_epik_Ionization_Penalty_Neutral>
1.99775e-05

> <r_epik_State_Penalty>
0.00153978

> <r_epik_Charging_Adjusted_Penalty>
0.00377687

> <i_epik_Tot_Q>
1

> <i_epik_Tot_abs_Q>
1

> <r_epik_Metal_State_Penalty>
-0

> <b_epik_Metal_Only>
0

> <s_lp_Force_Field>
OPLS_2005

> <r_lp_Energy>
19.9397

> <b_lp_Chiralities_Consistent>
1

> <s_lp_Variant>
AV-unprocessed.smi:3338-4

> <Gold.Version>
5.8.1

> <Gold.Id.Protein>
6NUR|6NUR_protein|mol2

> <Gold.PLP.Fitness>
43.6031

> <Gold.PLP.PLP>
-42.2994

> <Gold.PLP.part.hbond>
-2.0000

> <Gold.PLP.part.metal>
0.0000

> <Gold.PLP.part.buried>
-5.1658

> <Gold.PLP.part.nonpolar>
-35.3575

> <Gold.PLP.part.repulsive>
0.4299

> <Gold.PLP.ligand.clash>
0.0000

> <Gold.PLP.ligand.torsion>
0.6892

> <Gold.PLP.Chemscore.Hbond>
0.8570

> <Gold.PLP.Chemscore.CHOScore>
0.0000

> <Gold.PLP.Chemscore.Metal>
0.0000

> <Gold.Chemscore.Hbonds>
donor molecule, donor type, donor heavy atom, donor atom, acceptor molecule, acceptor atom, score
      P1  H  7989  7998       L1    11  0.22
      P1  H  8011  8017       L1    11  0.73

> <Gold.PLP.Chemscore.Internal.Correction>
0.1111

> <Gold.Rescore>
     Score         DG    S(hbond)    S(metal)    S(lipo)     H(rot)  DE(clash)    DE(int)     intcor
     15.95     -17.25       1.12        0.00     107.03       1.76       0.64       0.66       ----

> <Gold.Chemscore.Fitness>
15.9491

> <Gold.Chemscore.DG>
-17.2474

> <Gold.Chemscore.ZeroCoef>
-5.4800

> <Gold.Chemscore.Hbond>
1.1205

> <Gold.Chemscore.Metal>
0.0000

> <Gold.Chemscore.Lipo>
107.0329

> <Gold.Chemscore.Internal_Hbond>
0.0000

> <Gold.Chemscore.DEClash>
0.6401

> <Gold.Chemscore.DEInternal>
0.6582

> <Gold.Chemscore.Rot>
1.7570

> <Gold.Chemscore.Internal.Correction>
   9.000000E+99

> <Gold.Chemscore.Hbonds>
donor molecule, donor type, donor heavy atom, donor atom, acceptor molecule, acceptor atom, score
      P1  H  7989  7998       L1    11  0.19
      P1  H  8011  8017       L1    11  0.70

> <Gold.Chemscore.Hbond.Weighted>
-3.7425

> <Gold.Chemscore.Metal.Weighted>
-0.0000

> <Gold.Chemscore.Lipo.Weighted>
-12.5228

> <Gold.Chemscore.Internal_Hbond.Weighted>
0.0000

> <Gold.Chemscore.DEClash.Weighted>
0.6401

> <Gold.Chemscore.DEInternal.Weighted>
0.6582

> <Gold.Chemscore.Rot.Weighted>
4.4979

> <Gold.Chemscore.Internal.Correction.Weighted>
   9.000000E+99

> <Gold.Protein.RotatedTorsions>
[ 6907 6896 6895 6894 ] final  132.52 input  -60.11 | X-H torsion
[ 7974 7965 7964 7962 ] final -146.24 input  175.53 | X-H torsion
[ 8008 7997 7996 7995 ] final  -43.48 input   59.86 | X-H torsion
[ 10167 10162 10161 10158 ] final -150.90 input  -65.29 | X-H torsion
[ 10718 10713 10712 10709 ] final   97.23 input   66.30 | X-H torsion
[ 10763 10752 10751 10750 ] final  126.32 input  -60.55 | X-H torsion
[ 11005 11000 10999 10996 ] final -146.65 input  -57.11 | X-H torsion

> <Gold.Protein.ActiveResidues>
 VAL166  LYS551  ARG553  GLY616  TRP617  ASP618  TYR619  PRO620  LYS621  CYS622 
 ASP623  PHE694  ASN695  SER759  ASP760  ASP761  ALA762  ILE779  LEU786  VAL792 
 PHE793  MET794  SER795  GLU796  ALA797  LYS798  CYS799  TRP800  GLU811  SER814 

> <Gold.Protein.RotatedAtoms>
  152.3316  133.5964  159.5813 H   0  0  0  0  0  0  0  0  0  0  0  0  # atno 6907 bound_to 6896
  150.7426  133.9859  159.3600 H   0  0  0  0  0  0  0  0  0  0  0  0  # atno 6908 bound_to 6896
  151.7734  135.0781  160.0414 H   0  0  0  0  0  0  0  0  0  0  0  0  # atno 6909 bound_to 6896
  144.8173  140.5481  143.5602 H   0  0  0  0  0  0  0  0  0  0  0  0  # atno 7974 bound_to 7965
  154.3997  140.1447  156.3525 H   0  0  0  0  0  0  0  0  0  0  0  0  # atno 8008 bound_to 7997
  155.8256  140.3468  155.5519 H   0  0  0  0  0  0  0  0  0  0  0  0  # atno 8009 bound_to 7997
  155.8242  140.0902  157.1821 H   0  0  0  0  0  0  0  0  0  0  0  0  # atno 8010 bound_to 7997
  139.7314  143.8802  152.2536 H   0  0  0  0  0  0  0  0  0  0  0  0  # atno 10167 bound_to 10162
  157.6915  131.0603  150.4613 H   0  0  0  0  0  0  0  0  0  0  0  0  # atno 10718 bound_to 10713
  153.6914  135.3298  155.3203 H   0  0  0  0  0  0  0  0  0  0  0  0  # atno 10763 bound_to 10752
  154.8439  135.4432  154.1504 H   0  0  0  0  0  0  0  0  0  0  0  0  # atno 10764 bound_to 10752
  153.2547  135.6985  153.7719 H   0  0  0  0  0  0  0  0  0  0  0  0  # atno 10765 bound_to 10752
  140.7798  134.3092  157.5049 H   0  0  0  0  0  0  0  0  0  0  0  0  # atno 11005 bound_to 11000
  145.5185  139.1477  143.3565 LP  0  0  0  0  0  0  0  0  0  0  0  0  # atno 17320 bound_to 7965
  146.2477  140.5326  142.8907 LP  0  0  0  0  0  0  0  0  0  0  0  0  # atno 17321 bound_to 7965
  139.8726  144.7060  150.8969 LP  0  0  0  0  0  0  0  0  0  0  0  0  # atno 17342 bound_to 10162
  140.7772  143.3725  151.1623 LP  0  0  0  0  0  0  0  0  0  0  0  0  # atno 17343 bound_to 10162
  156.4957  130.4105  149.6381 LP  0  0  0  0  0  0  0  0  0  0  0  0  # atno 17370 bound_to 10713
  156.3375  130.7364  151.2304 LP  0  0  0  0  0  0  0  0  0  0  0  0  # atno 17371 bound_to 10713
  139.8744  134.9311  156.3521 LP  0  0  0  0  0  0  0  0  0  0  0  0  # atno 17394 bound_to 11000
  140.9493  133.7461  156.0251 LP  0  0  0  0  0  0  0  0  0  0  0  0  # atno 17395 bound_to 11000

$$$$
