AV-unprocessed.smi:671|AV-procd|sdf|3285|dock4
  -GOLD-   22720 0243D 1   1.00000     0.00000
 Structure written by MMmdl.
 50 51  0  0  0  0  0  0  0  0  2 V2000
  148.0832  141.2889  153.8129 C   0  0  0  0  0  0  0  0  0  0  0  0
  149.2189  141.2287  154.7793 C   0  0  0  0  0  0  0  0  0  0  0  0
  149.6646  142.2878  155.5060 N   0  3  0  0  0  0  0  0  0  0  0  0
  150.6968  141.9192  156.2775 N   0  0  0  0  0  0  0  0  0  0  0  0
  151.3227  142.9223  157.1390 C   0  0  0  0  0  0  0  0  0  0  0  0
  150.9800  140.5985  156.0881 C   0  0  0  0  0  0  0  0  0  0  0  0
  152.0745  139.8625  156.7912 C   0  0  0  0  0  0  0  0  0  0  0  0
  150.0433  140.1573  155.1427 C   0  0  0  0  0  0  0  0  0  0  0  0
  149.9263  138.7643  154.5894 C   0  0  0  0  0  0  0  0  0  0  0  0
  148.7362  137.9733  155.1795 C   0  0  2  0  0  0  0  0  0  0  0  0
  149.0955  137.2564  156.4902 C   0  0  0  0  0  0  0  0  0  0  0  0
  148.2525  136.9816  154.2153 N   0  0  0  0  0  0  0  0  0  0  0  0
  147.1746  136.1811  154.3147 C   0  0  0  0  0  0  0  0  0  0  0  0
  146.4390  136.2023  155.2991 O   0  0  0  0  0  0  0  0  0  0  0  0
  146.9859  135.3691  153.2607 N   0  0  0  0  0  0  0  0  0  0  0  0
  145.9346  134.3628  153.1172 C   0  0  2  0  0  0  0  0  0  0  0  0
  146.5319  133.0714  152.5251 C   0  0  0  0  0  0  0  0  0  0  0  0
  145.9962  132.9458  151.0913 C   0  0  0  0  0  0  0  0  0  0  0  0
  145.3387  134.2876  150.7695 C   0  0  0  0  0  0  0  0  0  0  0  0
  144.8393  134.7970  152.1220 C   0  0  2  0  0  0  0  0  0  0  0  0
  144.4570  136.2870  152.1256 C   0  0  0  0  0  0  0  0  0  0  0  0
  147.4115  140.4437  153.9613 H   0  0  0  0  0  0  0  0  0  0  0  0
  148.4601  141.2576  152.7907 H   0  0  0  0  0  0  0  0  0  0  0  0
  147.5130  142.2087  153.9451 H   0  0  0  0  0  0  0  0  0  0  0  0
  151.8819  142.4275  157.9334 H   0  0  0  0  0  0  0  0  0  0  0  0
  150.5536  143.5551  157.5839 H   0  0  0  0  0  0  0  0  0  0  0  0
  152.0011  143.5319  156.5415 H   0  0  0  0  0  0  0  0  0  0  0  0
  152.2232  138.8722  156.3631 H   0  0  0  0  0  0  0  0  0  0  0  0
  151.8287  139.7467  157.8468 H   0  0  0  0  0  0  0  0  0  0  0  0
  153.0123  140.4129  156.7102 H   0  0  0  0  0  0  0  0  0  0  0  0
  149.8240  138.8297  153.5058 H   0  0  0  0  0  0  0  0  0  0  0  0
  150.8493  138.2067  154.7464 H   0  0  0  0  0  0  0  0  0  0  0  0
  147.9214  138.6634  155.4043 H   0  0  0  0  0  0  0  0  0  0  0  0
  149.3809  137.9653  157.2675 H   0  0  0  0  0  0  0  0  0  0  0  0
  149.9253  136.5629  156.3499 H   0  0  0  0  0  0  0  0  0  0  0  0
  148.2468  136.6867  156.8702 H   0  0  0  0  0  0  0  0  0  0  0  0
  148.8014  136.8877  153.3725 H   0  0  0  0  0  0  0  0  0  0  0  0
  147.6409  135.4407  152.4965 H   0  0  0  0  0  0  0  0  0  0  0  0
  145.4884  134.1495  154.0903 H   0  0  0  0  0  0  0  0  0  0  0  0
  147.6228  133.0889  152.5327 H   0  0  0  0  0  0  0  0  0  0  0  0
  146.2301  132.2034  153.1121 H   0  0  0  0  0  0  0  0  0  0  0  0
  146.7793  132.6919  150.3763 H   0  0  0  0  0  0  0  0  0  0  0  0
  145.2474  132.1537  151.0511 H   0  0  0  0  0  0  0  0  0  0  0  0
  146.0824  134.9743  150.3631 H   0  0  0  0  0  0  0  0  0  0  0  0
  144.5384  134.1929  150.0349 H   0  0  0  0  0  0  0  0  0  0  0  0
  143.9409  134.2285  152.3688 H   0  0  0  0  0  0  0  0  0  0  0  0
  145.2879  136.9221  151.8173 H   0  0  0  0  0  0  0  0  0  0  0  0
  144.1410  136.6058  153.1193 H   0  0  0  0  0  0  0  0  0  0  0  0
  143.6302  136.4751  151.4405 H   0  0  0  0  0  0  0  0  0  0  0  0
  149.3184  143.2390  155.5146 H   0  0  0  0  0  0  0  0  0  0  0  0
  1  2  1  0  0  0  0
  1 22  1  0  0  0  0
  1 23  1  0  0  0  0
  1 24  1  0  0  0  0
  2  8  1  0  0  0  0
  2  3  2  0  0  0  0
  3  4  1  0  0  0  0
  3 50  1  0  0  0  0
  4  5  1  0  0  0  0
  4  6  1  0  0  0  0
  5 25  1  0  0  0  0
  5 26  1  0  0  0  0
  5 27  1  0  0  0  0
  6  7  1  0  0  0  0
  6  8  2  0  0  0  0
  7 28  1  0  0  0  0
  7 29  1  0  0  0  0
  7 30  1  0  0  0  0
  8  9  1  0  0  0  0
  9 10  1  0  0  0  0
  9 31  1  0  0  0  0
  9 32  1  0  0  0  0
 10 11  1  0  0  0  0
 10 12  1  0  0  0  0
 10 33  1  0  0  0  0
 11 34  1  0  0  0  0
 11 35  1  0  0  0  0
 11 36  1  0  0  0  0
 12 13  1  0  0  0  0
 12 37  1  0  0  0  0
 13 14  2  0  0  0  0
 13 15  1  0  0  0  0
 15 16  1  0  0  0  0
 15 38  1  0  0  0  0
 16 20  1  0  0  0  0
 16 17  1  0  0  0  0
 16 39  1  0  0  0  0
 17 18  1  0  0  0  0
 17 40  1  0  0  0  0
 17 41  1  0  0  0  0
 18 19  1  0  0  0  0
 18 42  1  0  0  0  0
 18 43  1  0  0  0  0
 19 20  1  0  0  0  0
 19 44  1  0  0  0  0
 19 45  1  0  0  0  0
 20 21  1  0  0  0  0
 20 46  1  0  0  0  0
 21 47  1  0  0  0  0
 21 48  1  0  0  0  0
 21 49  1  0  0  0  0
M  CHG  1   3   1
M  END
> <s_m_source_file>
AV-unprocessed.smi

> <i_m_source_file_index>
671

> <i_lp_mmshare_version>
43012

> <i_f3d_flags>
0

> <s_epik_input>
W0NIM11jMW5uKFtDSDNdKWMoW0NIM10pYzFbQ0gyXVtDQEhdKFtDSDNdKVtOSF1DKD1PKVtOSF1bQ0BASF0yW0NIMl1bQ0gyXVtDSDJdW0NASF0yW0NIM10=

> <s_epik_cmdline>
J2VwaWtfcHl0aG9uJywgJy1waCcsICc3LjAnLCAnLXRuJywgJzgnLCAnLW1hJywgJzIwMCcsICctbWV0YWxfYmluZGluZycsICctaW1hZScsICc8aW5maWxlLm1hZT4nLCAnLW9tYWUnLCAnPG91dGZpbGUubWFlPic=

> <r_lp_tautomer_probability>
1

> <r_epik_Ionization_Penalty>
2.28705

> <r_epik_Ionization_Penalty_Charging>
2.28698

> <r_epik_Ionization_Penalty_Neutral>
6.23157e-05

> <r_epik_State_Penalty>
2.43671

> <r_epik_Charging_Adjusted_Penalty>
4.72369

> <i_epik_Tot_Q>
1

> <i_epik_Tot_abs_Q>
1

> <r_epik_Metal_State_Penalty>
2.44911

> <b_epik_Metal_Only>
0

> <s_lp_Force_Field>
OPLS_2005

> <r_lp_Energy>
35.629

> <b_lp_Chiralities_Consistent>
1

> <s_lp_Variant>
AV-unprocessed.smi:671-13

> <Gold.Version>
5.8.1

> <Gold.Id.Protein>
6NUR|6NUR_protein|mol2

> <Gold.PLP.Fitness>
45.3329

> <Gold.PLP.PLP>
-34.8710

> <Gold.PLP.part.hbond>
-3.0000

> <Gold.PLP.part.metal>
0.0000

> <Gold.PLP.part.buried>
-3.7311

> <Gold.PLP.part.nonpolar>
-29.0235

> <Gold.PLP.part.repulsive>
0.2219

> <Gold.PLP.ligand.clash>
0.0000

> <Gold.PLP.ligand.torsion>
0.7353

> <Gold.PLP.Chemscore.Hbond>
3.9680

> <Gold.PLP.Chemscore.CHOScore>
0.0000

> <Gold.PLP.Chemscore.Metal>
0.0000

> <Gold.Chemscore.Hbonds>
donor molecule, donor type, donor heavy atom, donor atom, acceptor molecule, acceptor atom, score
      L1  H     3    50       P1  8028  2.00
      L1  H    12    37       P1  7948  0.99
      L1  H    15    38       P1  7948  0.98

> <Gold.PLP.Chemscore.Internal.Correction>
0.0286

> <Gold.Rescore>
     Score         DG    S(hbond)    S(metal)    S(lipo)     H(rot)  DE(clash)    DE(int)     intcor
     19.92     -20.90       2.85        0.00      83.47       1.51       0.28       0.71       ----

> <Gold.Chemscore.Fitness>
19.9166

> <Gold.Chemscore.DG>
-20.9008

> <Gold.Chemscore.ZeroCoef>
-5.4800

> <Gold.Chemscore.Hbond>
2.8470

> <Gold.Chemscore.Metal>
0.0000

> <Gold.Chemscore.Lipo>
83.4748

> <Gold.Chemscore.Internal_Hbond>
0.0000

> <Gold.Chemscore.DEClash>
0.2770

> <Gold.Chemscore.DEInternal>
0.7071

> <Gold.Chemscore.Rot>
1.5057

> <Gold.Chemscore.Internal.Correction>
   9.000000E+99

> <Gold.Chemscore.Hbonds>
donor molecule, donor type, donor heavy atom, donor atom, acceptor molecule, acceptor atom, score
      L1  H     3    50       P1  8028  0.94
      L1  H    12    37       P1  7948  0.93
      L1  H    15    38       P1  7948  0.93

> <Gold.Chemscore.Hbond.Weighted>
-9.5089

> <Gold.Chemscore.Metal.Weighted>
-0.0000

> <Gold.Chemscore.Lipo.Weighted>
-9.7666

> <Gold.Chemscore.Internal_Hbond.Weighted>
0.0000

> <Gold.Chemscore.DEClash.Weighted>
0.2770

> <Gold.Chemscore.DEInternal.Weighted>
0.7071

> <Gold.Chemscore.Rot.Weighted>
3.8547

> <Gold.Chemscore.Internal.Correction.Weighted>
   9.000000E+99

> <Gold.Protein.RotatedTorsions>
[ 6907 6896 6895 6894 ] final  133.43 input  -60.11 | X-H torsion
[ 7974 7965 7964 7962 ] final   -9.23 input  175.53 | X-H torsion
[ 8008 7997 7996 7995 ] final  -30.85 input   59.86 | X-H torsion
[ 10167 10162 10161 10158 ] final   78.92 input  -65.29 | X-H torsion
[ 10718 10713 10712 10709 ] final  176.64 input   66.30 | X-H torsion
[ 10763 10752 10751 10750 ] final   22.01 input  -60.55 | X-H torsion
[ 11005 11000 10999 10996 ] final   30.49 input  -57.11 | X-H torsion

> <Gold.Protein.ActiveResidues>
 VAL166  LYS551  ARG553  GLY616  TRP617  ASP618  TYR619  PRO620  LYS621  CYS622 
 ASP623  PHE694  ASN695  SER759  ASP760  ASP761  ALA762  ILE779  LEU786  VAL792 
 PHE793  MET794  SER795  GLU796  ALA797  LYS798  CYS799  TRP800  GLU811  SER814 

> <Gold.Protein.RotatedAtoms>
  152.3221  133.5864  159.5751 H   0  0  0  0  0  0  0  0  0  0  0  0  # atno 6907 bound_to 6896
  150.7377  133.9996  159.3642 H   0  0  0  0  0  0  0  0  0  0  0  0  # atno 6908 bound_to 6896
  151.7879  135.0744  160.0434 H   0  0  0  0  0  0  0  0  0  0  0  0  # atno 6909 bound_to 6896
  146.2258  140.2585  142.8350 H   0  0  0  0  0  0  0  0  0  0  0  0  # atno 7974 bound_to 7965
  154.4235  140.1780  156.1473 H   0  0  0  0  0  0  0  0  0  0  0  0  # atno 8008 bound_to 7997
  155.9943  140.3366  155.6759 H   0  0  0  0  0  0  0  0  0  0  0  0  # atno 8009 bound_to 7997
  155.6329  140.0672  157.2634 H   0  0  0  0  0  0  0  0  0  0  0  0  # atno 8010 bound_to 7997
  139.9658  144.5929  150.8030 H   0  0  0  0  0  0  0  0  0  0  0  0  # atno 10167 bound_to 10162
  156.9172  130.9929  151.3011 H   0  0  0  0  0  0  0  0  0  0  0  0  # atno 10718 bound_to 10713
  153.0949  135.6657  153.9782 H   0  0  0  0  0  0  0  0  0  0  0  0  # atno 10763 bound_to 10752
  153.9369  135.2998  155.3445 H   0  0  0  0  0  0  0  0  0  0  0  0  # atno 10764 bound_to 10752
  154.7367  135.5098  153.9127 H   0  0  0  0  0  0  0  0  0  0  0  0  # atno 10765 bound_to 10752
  140.2938  134.2834  155.7769 H   0  0  0  0  0  0  0  0  0  0  0  0  # atno 11005 bound_to 11000
  144.9357  140.8024  143.5661 LP  0  0  0  0  0  0  0  0  0  0  0  0  # atno 17320 bound_to 7965
  145.2532  139.2023  143.4931 LP  0  0  0  0  0  0  0  0  0  0  0  0  # atno 17321 bound_to 7965
  140.7538  143.3016  151.3067 LP  0  0  0  0  0  0  0  0  0  0  0  0  # atno 17342 bound_to 10162
  139.6519  144.0346  152.2632 LP  0  0  0  0  0  0  0  0  0  0  0  0  # atno 17343 bound_to 10162
  157.5930  130.8458  149.8688 LP  0  0  0  0  0  0  0  0  0  0  0  0  # atno 17370 bound_to 10713
  156.0508  130.3718  150.1206 LP  0  0  0  0  0  0  0  0  0  0  0  0  # atno 17371 bound_to 10713
  141.2141  133.7602  156.9665 LP  0  0  0  0  0  0  0  0  0  0  0  0  # atno 17394 bound_to 11000
  140.1171  134.9440  157.2150 LP  0  0  0  0  0  0  0  0  0  0  0  0  # atno 17395 bound_to 11000

$$$$
