AV-unprocessed.smi:1380|AV-procd|sdf|5600|dock10
  -GOLD-   22720 5203D 1   1.00000     0.00000
 Structure written by MMmdl.
 33 34  0  0  0  0  0  0  0  0  1 V2000
  150.2986  142.0683  159.2314 O   0  0  0  0  0  0  0  0  0  0  0  0
  149.6144  142.8591  158.5815 C   0  0  0  0  0  0  0  0  0  0  0  0
  148.7445  142.4924  157.6309 N   0  0  0  0  0  0  0  0  0  0  0  0
  148.5121  141.1176  157.1987 C   0  0  0  0  0  0  0  0  0  0  0  0
  149.1649  140.8038  155.8380 C   0  0  0  0  0  0  0  0  0  0  0  0
  150.2761  139.7720  155.9259 C   0  0  0  0  0  0  0  0  0  0  0  0
  150.2025  138.5686  155.1951 C   0  0  0  0  0  0  0  0  0  0  0  0
  151.2605  137.6454  155.3004 C   0  0  0  0  0  0  0  0  0  0  0  0
  152.3497  137.9659  156.1351 C   0  0  0  0  0  0  0  0  0  0  0  0
  152.4313  139.1153  156.8396 N   0  0  0  0  0  0  0  0  0  0  0  0
  151.4118  139.9944  156.7344 C   0  0  0  0  0  0  0  0  0  0  0  0
  149.6613  144.1902  158.7261 N   0  0  0  0  0  0  0  0  0  0  0  0
  150.5489  144.8951  159.6411 C   0  0  0  0  0  0  0  0  0  0  0  0
  151.9979  144.9605  159.1969 C   0  0  0  0  0  0  0  0  0  0  0  0
  152.4891  144.1650  158.0092 C   0  0  0  0  0  0  0  0  0  0  0  0
  152.9147  143.7776  159.4044 C   0  0  0  0  0  0  0  0  0  0  0  0
  148.2288  143.2150  157.1502 H   0  0  0  0  0  0  0  0  0  0  0  0
  148.8628  140.4186  157.9593 H   0  0  0  0  0  0  0  0  0  0  0  0
  147.4335  140.9765  157.1253 H   0  0  0  0  0  0  0  0  0  0  0  0
  148.4078  140.4491  155.1372 H   0  0  0  0  0  0  0  0  0  0  0  0
  149.5674  141.7200  155.4046 H   0  0  0  0  0  0  0  0  0  0  0  0
  149.3528  138.3575  154.5628 H   0  0  0  0  0  0  0  0  0  0  0  0
  151.2381  136.7139  154.7544 H   0  0  0  0  0  0  0  0  0  0  0  0
  153.1781  137.2809  156.2387 H   0  0  0  0  0  0  0  0  0  0  0  0
  151.5102  140.9058  157.3062 H   0  0  0  0  0  0  0  0  0  0  0  0
  149.0609  144.7564  158.1445 H   0  0  0  0  0  0  0  0  0  0  0  0
  150.1776  145.9152  159.7382 H   0  0  0  0  0  0  0  0  0  0  0  0
  150.4879  144.4520  160.6368 H   0  0  0  0  0  0  0  0  0  0  0  0
  152.4567  145.9364  159.3448 H   0  0  0  0  0  0  0  0  0  0  0  0
  151.7766  143.5168  157.5028 H   0  0  0  0  0  0  0  0  0  0  0  0
  153.2322  144.6321  157.3662 H   0  0  0  0  0  0  0  0  0  0  0  0
  153.9437  143.9840  159.6917 H   0  0  0  0  0  0  0  0  0  0  0  0
  152.4863  142.8695  159.8237 H   0  0  0  0  0  0  0  0  0  0  0  0
  1  2  2  0  0  0  0
  2  3  1  0  0  0  0
  2 12  1  0  0  0  0
  3  4  1  0  0  0  0
  3 17  1  0  0  0  0
  4  5  1  0  0  0  0
  4 18  1  0  0  0  0
  4 19  1  0  0  0  0
  5  6  1  0  0  0  0
  5 20  1  0  0  0  0
  5 21  1  0  0  0  0
  6 11  1  0  0  0  0
  6  7  2  0  0  0  0
  7  8  1  0  0  0  0
  7 22  1  0  0  0  0
  8  9  2  0  0  0  0
  8 23  1  0  0  0  0
  9 10  1  0  0  0  0
  9 24  1  0  0  0  0
 10 11  2  0  0  0  0
 11 25  1  0  0  0  0
 12 13  1  0  0  0  0
 12 26  1  0  0  0  0
 13 14  1  0  0  0  0
 13 27  1  0  0  0  0
 13 28  1  0  0  0  0
 14 16  1  0  0  0  0
 14 15  1  0  0  0  0
 14 29  1  0  0  0  0
 15 16  1  0  0  0  0
 15 30  1  0  0  0  0
 15 31  1  0  0  0  0
 16 32  1  0  0  0  0
 16 33  1  0  0  0  0
M  END
> <s_m_source_file>
AV-unprocessed.smi

> <i_m_source_file_index>
1380

> <i_lp_mmshare_version>
43012

> <i_f3d_flags>
0

> <s_epik_input>
W0NIMl0xW0NIMl1bQ0hdMVtDSDJdW05IXUMoPU8pW05IXVtDSDJdW0NIMl1jMltjSF1bY0hdW2NIXW5bY0hdMg==

> <s_epik_cmdline>
J2VwaWtfcHl0aG9uJywgJy1waCcsICc3LjAnLCAnLXRuJywgJzgnLCAnLW1hJywgJzIwMCcsICctbWV0YWxfYmluZGluZycsICctaW1hZScsICc8aW5maWxlLm1hZT4nLCAnLW9tYWUnLCAnPG91dGZpbGUubWFlPic=

> <r_epik_Ionization_Penalty>
0.0144004

> <r_epik_Ionization_Penalty_Charging>
0

> <r_epik_Ionization_Penalty_Neutral>
0.0144004

> <r_epik_State_Penalty>
0.0112076

> <r_epik_Charging_Adjusted_Penalty>
0.0112076

> <i_epik_Tot_Q>
0

> <i_epik_Tot_abs_Q>
0

> <r_epik_Metal_State_Penalty>
0.0109423

> <b_epik_Metal_Only>
0

> <s_lp_Force_Field>
OPLS_2005

> <r_lp_Energy>
8.98924

> <b_lp_Chiralities_Consistent>
1

> <s_lp_Variant>
AV-unprocessed.smi:1380-1

> <Gold.Version>
5.8.1

> <Gold.Id.Protein>
6NUR|6NUR_protein|mol2

> <Gold.PLP.Fitness>
47.3194

> <Gold.PLP.PLP>
-40.9932

> <Gold.PLP.part.hbond>
-4.4002

> <Gold.PLP.part.metal>
0.0000

> <Gold.PLP.part.buried>
-3.7553

> <Gold.PLP.part.nonpolar>
-32.4249

> <Gold.PLP.part.repulsive>
0.1695

> <Gold.PLP.ligand.clash>
0.0000

> <Gold.PLP.ligand.torsion>
1.0107

> <Gold.PLP.Chemscore.Hbond>
2.5928

> <Gold.PLP.Chemscore.CHOScore>
0.0000

> <Gold.PLP.Chemscore.Metal>
0.0000

> <Gold.Chemscore.Hbonds>
donor molecule, donor type, donor heavy atom, donor atom, acceptor molecule, acceptor atom, score
      L1  H     3    17       P1  8028  0.30
      L1  H    12    26       P1  8029  1.00
      P1  H  7997  8010       L1    10  0.42

> <Gold.PLP.Chemscore.Internal.Correction>
0.5692

> <Gold.Rescore>
     Score         DG    S(hbond)    S(metal)    S(lipo)     H(rot)  DE(clash)    DE(int)     intcor
     16.66     -18.22       1.79        0.00      95.11       1.70       0.06       1.51       ----

> <Gold.Chemscore.Fitness>
16.6623

> <Gold.Chemscore.DG>
-18.2241

> <Gold.Chemscore.ZeroCoef>
-5.4800

> <Gold.Chemscore.Hbond>
1.7875

> <Gold.Chemscore.Metal>
0.0000

> <Gold.Chemscore.Lipo>
95.1054

> <Gold.Chemscore.Internal_Hbond>
0.0000

> <Gold.Chemscore.DEClash>
0.0560

> <Gold.Chemscore.DEInternal>
1.5058

> <Gold.Chemscore.Rot>
1.7006

> <Gold.Chemscore.Internal.Correction>
   9.000000E+99

> <Gold.Chemscore.Hbonds>
donor molecule, donor type, donor heavy atom, donor atom, acceptor molecule, acceptor atom, score
      L1  H     3    17       P1  8028  0.04
      L1  H    12    26       P1  8029  0.30
      P1  H  7997  8010       L1    10  0.17

> <Gold.Chemscore.Hbond.Weighted>
-5.9702

> <Gold.Chemscore.Metal.Weighted>
-0.0000

> <Gold.Chemscore.Lipo.Weighted>
-11.1273

> <Gold.Chemscore.Internal_Hbond.Weighted>
0.0000

> <Gold.Chemscore.DEClash.Weighted>
0.0560

> <Gold.Chemscore.DEInternal.Weighted>
1.5058

> <Gold.Chemscore.Rot.Weighted>
4.3534

> <Gold.Chemscore.Internal.Correction.Weighted>
   9.000000E+99

> <Gold.Protein.RotatedTorsions>
[ 6907 6896 6895 6894 ] final -121.04 input  -60.11 | X-H torsion
[ 7974 7965 7964 7962 ] final  -84.07 input  175.53 | X-H torsion
[ 8008 7997 7996 7995 ] final   85.77 input   59.86 | X-H torsion
[ 10167 10162 10161 10158 ] final  103.20 input  -65.29 | X-H torsion
[ 10718 10713 10712 10709 ] final  -95.32 input   66.30 | X-H torsion
[ 10763 10752 10751 10750 ] final -112.12 input  -60.55 | X-H torsion
[ 11005 11000 10999 10996 ] final  106.18 input  -57.11 | X-H torsion

> <Gold.Protein.ActiveResidues>
 VAL166  LYS551  ARG553  GLY616  TRP617  ASP618  TYR619  PRO620  LYS621  CYS622 
 ASP623  PHE694  ASN695  SER759  ASP760  ASP761  ALA762  ILE779  LEU786  VAL792 
 PHE793  MET794  SER795  GLU796  ALA797  LYS798  CYS799  TRP800  GLU811  SER814 

> <Gold.Protein.RotatedAtoms>
  150.8448  133.7879  159.3047 H   0  0  0  0  0  0  0  0  0  0  0  0  # atno 6907 bound_to 6896
  151.5570  135.1065  159.9973 H   0  0  0  0  0  0  0  0  0  0  0  0  # atno 6908 bound_to 6896
  152.4504  133.7575  159.6784 H   0  0  0  0  0  0  0  0  0  0  0  0  # atno 6909 bound_to 6896
  145.5116  140.9539  143.1704 H   0  0  0  0  0  0  0  0  0  0  0  0  # atno 7974 bound_to 7965
  155.9543  140.3398  155.6435 H   0  0  0  0  0  0  0  0  0  0  0  0  # atno 8008 bound_to 7997
  155.6880  140.0745  157.2477 H   0  0  0  0  0  0  0  0  0  0  0  0  # atno 8009 bound_to 7997
  154.4129  140.1662  156.2042 H   0  0  0  0  0  0  0  0  0  0  0  0  # atno 8010 bound_to 7997
  139.7284  144.7042  151.0761 H   0  0  0  0  0  0  0  0  0  0  0  0  # atno 10167 bound_to 10162
  156.0041  130.5104  150.6058 H   0  0  0  0  0  0  0  0  0  0  0  0  # atno 10718 bound_to 10713
  154.8334  135.4502  154.1145 H   0  0  0  0  0  0  0  0  0  0  0  0  # atno 10763 bound_to 10752
  153.2398  135.6915  153.7802 H   0  0  0  0  0  0  0  0  0  0  0  0  # atno 10764 bound_to 10752
  153.7154  135.3350  155.3231 H   0  0  0  0  0  0  0  0  0  0  0  0  # atno 10765 bound_to 10752
  139.8811  134.9360  156.5627 H   0  0  0  0  0  0  0  0  0  0  0  0  # atno 11005 bound_to 11000
  144.7724  139.6704  143.7189 LP  0  0  0  0  0  0  0  0  0  0  0  0  # atno 17320 bound_to 7965
  146.2163  139.5555  142.9648 LP  0  0  0  0  0  0  0  0  0  0  0  0  # atno 17321 bound_to 7965
  140.7767  143.5075  150.9693 LP  0  0  0  0  0  0  0  0  0  0  0  0  # atno 17342 bound_to 10162
  139.8763  143.7128  152.3161 LP  0  0  0  0  0  0  0  0  0  0  0  0  # atno 17343 bound_to 10162
  157.3899  131.0794  151.1403 LP  0  0  0  0  0  0  0  0  0  0  0  0  # atno 17370 bound_to 10713
  157.2098  130.6432  149.5769 LP  0  0  0  0  0  0  0  0  0  0  0  0  # atno 17371 bound_to 10713
  140.8157  133.8393  155.8850 LP  0  0  0  0  0  0  0  0  0  0  0  0  # atno 17394 bound_to 11000
  140.9465  134.1834  157.4760 LP  0  0  0  0  0  0  0  0  0  0  0  0  # atno 17395 bound_to 11000

$$$$
