AV-unprocessed.smi:3289|AV-procd|sdf|12610|dock9
  -GOLD-   2272018543D 1   1.00000     0.00000
 Structure written by MMmdl.
 39 40  0  0  0  0  0  0  0  0  1 V2000
  148.6367  140.8465  156.8551 C   0  0  0  0  0  0  0  0  0  0  0  0
  149.6473  141.1128  155.7306 C   0  0  0  0  0  0  0  0  0  0  0  0
  148.9816  141.7376  154.4952 C   0  0  0  0  0  0  0  0  0  0  0  0
  150.4193  139.8697  155.3785 C   0  0  0  0  0  0  0  0  0  0  0  0
  150.5683  139.4371  154.1285 N   0  0  0  0  0  0  0  0  0  0  0  0
  151.3041  138.2637  154.2355 C   0  0  0  0  0  0  0  0  0  0  0  0
  151.5696  138.0154  155.5591 C   0  0  0  0  0  0  0  0  0  0  0  0
  150.9908  139.0481  156.2875 N   0  0  0  0  0  0  0  0  0  0  0  0
  151.0181  139.1611  157.7388 C   0  0  0  0  0  0  0  0  0  0  0  0
  152.3136  139.8180  158.2208 C   0  0  0  0  0  0  0  0  0  0  0  0
  153.3810  139.2119  158.1293 O   0  0  0  0  0  0  0  0  0  0  0  0
  152.2053  141.0521  158.7367 N   0  0  0  0  0  0  0  0  0  0  0  0
  153.3138  141.8458  159.2542 C   0  0  0  0  0  0  0  0  0  0  0  0
  152.8383  143.2195  159.7548 C   0  0  1  0  0  0  0  0  0  0  0  0
  152.6773  144.2553  158.6468 C   0  0  0  0  0  0  0  0  0  0  0  0
  151.7708  145.2749  159.3037 C   0  0  0  0  0  0  0  0  0  0  0  0
  150.9044  144.4223  160.2335 C   0  0  0  0  0  0  0  0  0  0  0  0
  151.5303  143.1440  160.3064 O   0  0  0  0  0  0  0  0  0  0  0  0
  149.1364  140.4699  157.7483 H   0  0  0  0  0  0  0  0  0  0  0  0
  147.8917  140.1093  156.5543 H   0  0  0  0  0  0  0  0  0  0  0  0
  148.1090  141.7590  157.1331 H   0  0  0  0  0  0  0  0  0  0  0  0
  150.3413  141.8611  156.1076 H   0  0  0  0  0  0  0  0  0  0  0  0
  149.7209  141.9728  153.7290 H   0  0  0  0  0  0  0  0  0  0  0  0
  148.4674  142.6640  154.7524 H   0  0  0  0  0  0  0  0  0  0  0  0
  148.2472  141.0631  154.0537 H   0  0  0  0  0  0  0  0  0  0  0  0
  151.5792  137.6924  153.3614 H   0  0  0  0  0  0  0  0  0  0  0  0
  152.1021  137.2040  156.0333 H   0  0  0  0  0  0  0  0  0  0  0  0
  150.1742  139.7726  158.0604 H   0  0  0  0  0  0  0  0  0  0  0  0
  150.8736  138.1773  158.1864 H   0  0  0  0  0  0  0  0  0  0  0  0
  151.2886  141.4740  158.7699 H   0  0  0  0  0  0  0  0  0  0  0  0
  153.7558  141.2902  160.0816 H   0  0  0  0  0  0  0  0  0  0  0  0
  154.0990  141.9565  158.5043 H   0  0  0  0  0  0  0  0  0  0  0  0
  153.5185  143.6046  160.5169 H   0  0  0  0  0  0  0  0  0  0  0  0
  153.6263  144.6784  158.3164 H   0  0  0  0  0  0  0  0  0  0  0  0
  152.1778  143.8152  157.7823 H   0  0  0  0  0  0  0  0  0  0  0  0
  152.3652  145.9770  159.8902 H   0  0  0  0  0  0  0  0  0  0  0  0
  151.1849  145.8466  158.5835 H   0  0  0  0  0  0  0  0  0  0  0  0
  150.8312  144.8690  161.2254 H   0  0  0  0  0  0  0  0  0  0  0  0
  149.8944  144.3023  159.8407 H   0  0  0  0  0  0  0  0  0  0  0  0
  1  2  1  0  0  0  0
  1 19  1  0  0  0  0
  1 20  1  0  0  0  0
  1 21  1  0  0  0  0
  2  3  1  0  0  0  0
  2  4  1  0  0  0  0
  2 22  1  0  0  0  0
  3 23  1  0  0  0  0
  3 24  1  0  0  0  0
  3 25  1  0  0  0  0
  4  8  1  0  0  0  0
  4  5  2  0  0  0  0
  5  6  1  0  0  0  0
  6  7  2  0  0  0  0
  6 26  1  0  0  0  0
  7  8  1  0  0  0  0
  7 27  1  0  0  0  0
  8  9  1  0  0  0  0
  9 10  1  0  0  0  0
  9 28  1  0  0  0  0
  9 29  1  0  0  0  0
 10 11  2  0  0  0  0
 10 12  1  0  0  0  0
 12 13  1  0  0  0  0
 12 30  1  0  0  0  0
 13 14  1  0  0  0  0
 13 31  1  0  0  0  0
 13 32  1  0  0  0  0
 14 18  1  0  0  0  0
 14 15  1  0  0  0  0
 14 33  1  0  0  0  0
 15 16  1  0  0  0  0
 15 34  1  0  0  0  0
 15 35  1  0  0  0  0
 16 17  1  0  0  0  0
 16 36  1  0  0  0  0
 16 37  1  0  0  0  0
 17 18  1  0  0  0  0
 17 38  1  0  0  0  0
 17 39  1  0  0  0  0
M  END
> <s_m_source_file>
AV-unprocessed.smi

> <i_m_source_file_index>
3289

> <i_lp_mmshare_version>
43012

> <i_f3d_flags>
0

> <s_epik_input>
W0NIM11bQ0hdKFtDSDNdKWMxbltjSF1bY0hdbjFbQ0gyXUMoPU8pW05IXVtDSDJdW0NAQEhdMltDSDJdW0NIMl1bQ0gyXU8y

> <s_epik_cmdline>
J2VwaWtfcHl0aG9uJywgJy1waCcsICc3LjAnLCAnLXRuJywgJzgnLCAnLW1hJywgJzIwMCcsICctbWV0YWxfYmluZGluZycsICctaW1hZScsICc8aW5maWxlLm1hZT4nLCAnLW9tYWUnLCAnPG91dGZpbGUubWFlPic=

> <r_lp_tautomer_probability>
1

> <r_epik_Ionization_Penalty>
0.587725

> <r_epik_Ionization_Penalty_Charging>
0.587725

> <r_epik_Ionization_Penalty_Neutral>
1.43432e-07

> <r_epik_State_Penalty>
0.601029

> <r_epik_Charging_Adjusted_Penalty>
1.18875

> <i_epik_Tot_Q>
0

> <i_epik_Tot_abs_Q>
0

> <r_epik_Metal_State_Penalty>
0.297663

> <b_epik_Metal_Only>
0

> <s_lp_Force_Field>
OPLS_2005

> <r_lp_Energy>
18.4157

> <b_lp_Chiralities_Consistent>
1

> <s_lp_Variant>
AV-unprocessed.smi:3289-4

> <Gold.Version>
5.8.1

> <Gold.Id.Protein>
6NUR|6NUR_protein|mol2

> <Gold.PLP.Fitness>
45.0039

> <Gold.PLP.PLP>
-38.1582

> <Gold.PLP.part.hbond>
-2.5482

> <Gold.PLP.part.metal>
0.0000

> <Gold.PLP.part.buried>
-4.1402

> <Gold.PLP.part.nonpolar>
-31.6457

> <Gold.PLP.part.repulsive>
0.3521

> <Gold.PLP.ligand.clash>
0.0000

> <Gold.PLP.ligand.torsion>
0.8545

> <Gold.PLP.Chemscore.Hbond>
1.8500

> <Gold.PLP.Chemscore.CHOScore>
0.9771

> <Gold.PLP.Chemscore.Metal>
0.0000

> <Gold.Chemscore.Hbonds>
donor molecule, donor type, donor heavy atom, donor atom, acceptor molecule, acceptor atom, score
      P1  H  7989  7998       L1     5  0.90
      P1  H  7997  8008       L1    11  1.00
      L1  C     6    26       P1  7949  0.92

> <Gold.PLP.Chemscore.Internal.Correction>
0.0732

> <Gold.Rescore>
     Score         DG    S(hbond)    S(metal)    S(lipo)     H(rot)  DE(clash)    DE(int)     intcor
     16.17     -17.07       1.46        0.00      94.81       1.72       0.03       0.86       ----

> <Gold.Chemscore.Fitness>
16.1721

> <Gold.Chemscore.DG>
-17.0662

> <Gold.Chemscore.ZeroCoef>
-5.4800

> <Gold.Chemscore.Hbond>
1.4641

> <Gold.Chemscore.Metal>
0.0000

> <Gold.Chemscore.Lipo>
94.8116

> <Gold.Chemscore.Internal_Hbond>
0.0000

> <Gold.Chemscore.DEClash>
0.0309

> <Gold.Chemscore.DEInternal>
0.8632

> <Gold.Chemscore.Rot>
1.7175

> <Gold.Chemscore.Internal.Correction>
   9.000000E+99

> <Gold.Chemscore.Hbonds>
donor molecule, donor type, donor heavy atom, donor atom, acceptor molecule, acceptor atom, score
      P1  H  7989  7998       L1     5  0.14
      P1  H  7997  8008       L1    11  0.82

> <Gold.Chemscore.Hbond.Weighted>
-4.8900

> <Gold.Chemscore.Metal.Weighted>
-0.0000

> <Gold.Chemscore.Lipo.Weighted>
-11.0930

> <Gold.Chemscore.Internal_Hbond.Weighted>
0.0000

> <Gold.Chemscore.DEClash.Weighted>
0.0309

> <Gold.Chemscore.DEInternal.Weighted>
0.8632

> <Gold.Chemscore.Rot.Weighted>
4.3967

> <Gold.Chemscore.Internal.Correction.Weighted>
   9.000000E+99

> <Gold.Protein.RotatedTorsions>
[ 6907 6896 6895 6894 ] final   89.87 input  -60.11 | X-H torsion
[ 7974 7965 7964 7962 ] final -149.41 input  175.53 | X-H torsion
[ 8008 7997 7996 7995 ] final  -80.85 input   59.86 | X-H torsion
[ 10167 10162 10161 10158 ] final  126.51 input  -65.29 | X-H torsion
[ 10718 10713 10712 10709 ] final  -82.86 input   66.30 | X-H torsion
[ 10763 10752 10751 10750 ] final  -56.85 input  -60.55 | X-H torsion
[ 11005 11000 10999 10996 ] final   69.00 input  -57.11 | X-H torsion

> <Gold.Protein.ActiveResidues>
 VAL166  LYS551  ARG553  GLY616  TRP617  ASP618  TYR619  PRO620  LYS621  CYS622 
 ASP623  PHE694  ASN695  SER759  ASP760  ASP761  ALA762  ILE779  LEU786  VAL792 
 PHE793  MET794  SER795  GLU796  ALA797  LYS798  CYS799  TRP800  GLU811  SER814 

> <Gold.Protein.RotatedAtoms>
  152.5440  134.1899  159.8669 H   0  0  0  0  0  0  0  0  0  0  0  0  # atno 6907 bound_to 6896
  151.1895  133.4669  159.2602 H   0  0  0  0  0  0  0  0  0  0  0  0  # atno 6908 bound_to 6896
  151.1097  135.0031  159.8543 H   0  0  0  0  0  0  0  0  0  0  0  0  # atno 6909 bound_to 6896
  144.7969  140.5068  143.5734 H   0  0  0  0  0  0  0  0  0  0  0  0  # atno 7974 bound_to 7965
  154.5924  140.0657  156.9256 H   0  0  0  0  0  0  0  0  0  0  0  0  # atno 8008 bound_to 7997
  155.2273  140.3335  155.4289 H   0  0  0  0  0  0  0  0  0  0  0  0  # atno 8009 bound_to 7997
  156.2264  140.1821  156.7336 H   0  0  0  0  0  0  0  0  0  0  0  0  # atno 8010 bound_to 7997
  139.5627  144.6892  151.3997 H   0  0  0  0  0  0  0  0  0  0  0  0  # atno 10167 bound_to 10162
  156.0026  130.4647  150.4169 H   0  0  0  0  0  0  0  0  0  0  0  0  # atno 10718 bound_to 10713
  154.2132  135.6391  153.5121 H   0  0  0  0  0  0  0  0  0  0  0  0  # atno 10763 bound_to 10752
  152.9985  135.5479  154.6193 H   0  0  0  0  0  0  0  0  0  0  0  0  # atno 10764 bound_to 10752
  154.5635  135.2911  155.0870 H   0  0  0  0  0  0  0  0  0  0  0  0  # atno 10765 bound_to 10752
  139.9679  134.6950  156.0508 H   0  0  0  0  0  0  0  0  0  0  0  0  # atno 11005 bound_to 11000
  145.5650  139.1481  143.3320 LP  0  0  0  0  0  0  0  0  0  0  0  0  # atno 17320 bound_to 7965
  146.2240  140.5785  142.9004 LP  0  0  0  0  0  0  0  0  0  0  0  0  # atno 17321 bound_to 7965
  140.6908  143.7865  150.7253 LP  0  0  0  0  0  0  0  0  0  0  0  0  # atno 17342 bound_to 10162
  140.1347  143.4495  152.2232 LP  0  0  0  0  0  0  0  0  0  0  0  0  # atno 17343 bound_to 10162
  157.2228  131.0486  151.2537 LP  0  0  0  0  0  0  0  0  0  0  0  0  # atno 17370 bound_to 10713
  157.3784  130.7218  149.6613 LP  0  0  0  0  0  0  0  0  0  0  0  0  # atno 17371 bound_to 10713
  141.1358  133.6575  156.3591 LP  0  0  0  0  0  0  0  0  0  0  0  0  # atno 17394 bound_to 11000
  140.5357  134.6169  157.5364 LP  0  0  0  0  0  0  0  0  0  0  0  0  # atno 17395 bound_to 11000

$$$$
