AV-unprocessed.smi:1833|AV-procd|sdf|7467|dock1
  -GOLD-   22720 9163D 1   1.00000     0.00000
 Structure written by MMmdl.
 42 43  0  0  0  0  0  0  0  0  2 V2000
  145.5261  132.3235  150.3973 C   0  0  0  0  0  0  0  0  0  0  0  0
  146.7575  133.2342  150.5113 C   0  0  0  0  0  0  0  0  0  0  0  0
  146.5496  134.3466  151.4716 N   0  3  1  0  0  0  0  0  0  0  0  0
  145.4086  135.2192  151.0896 C   0  0  0  0  0  0  0  0  0  0  0  0
  145.3107  136.4457  152.0135 C   0  0  0  0  0  0  0  0  0  0  0  0
  145.2361  136.0301  153.4923 C   0  0  0  0  0  0  0  0  0  0  0  0
  146.3954  135.0865  153.8583 C   0  0  2  0  0  0  0  0  0  0  0  0
  147.6585  135.8250  153.8549 N   0  0  0  0  0  0  0  0  0  0  0  0
  148.0412  136.7046  154.7907 C   0  0  0  0  0  0  0  0  0  0  0  0
  147.3798  136.9710  155.7938 O   0  0  0  0  0  0  0  0  0  0  0  0
  149.2224  137.2654  154.4938 N   0  0  0  0  0  0  0  0  0  0  0  0
  149.8961  138.2877  155.2913 C   0  0  0  0  0  0  0  0  0  0  0  0
  150.1236  139.5948  154.5078 C   0  0  0  0  0  0  0  0  0  0  0  0
  148.8878  140.4121  154.3067 C   0  0  0  0  0  0  0  0  0  0  0  0
  148.8790  141.7477  154.3307 N   0  0  0  0  0  0  0  0  0  0  0  0
  147.5976  142.2770  154.1601 C   0  0  0  0  0  0  0  0  0  0  0  0
  146.6253  141.3210  154.0106 C   0  0  0  0  0  0  0  0  0  0  0  0
  147.2875  139.7113  154.0784 S   0  0  0  0  0  0  0  0  0  0  0  0
  146.4257  133.8900  152.8816 C   0  0  0  0  0  0  0  0  0  0  0  0
  145.7385  131.4717  149.7509 H   0  0  0  0  0  0  0  0  0  0  0  0
  144.6675  132.8428  149.9729 H   0  0  0  0  0  0  0  0  0  0  0  0
  145.2342  131.9322  151.3722 H   0  0  0  0  0  0  0  0  0  0  0  0
  147.5929  132.6190  150.8477 H   0  0  0  0  0  0  0  0  0  0  0  0
  147.0393  133.6293  149.5341 H   0  0  0  0  0  0  0  0  0  0  0  0
  145.5299  135.5584  150.0600 H   0  0  0  0  0  0  0  0  0  0  0  0
  144.4818  134.6442  151.1264 H   0  0  0  0  0  0  0  0  0  0  0  0
  146.1749  137.0917  151.8539 H   0  0  0  0  0  0  0  0  0  0  0  0
  144.4344  137.0393  151.7510 H   0  0  0  0  0  0  0  0  0  0  0  0
  145.2404  136.9116  154.1350 H   0  0  0  0  0  0  0  0  0  0  0  0
  144.2877  135.5233  153.6752 H   0  0  0  0  0  0  0  0  0  0  0  0
  146.2261  134.7142  154.8703 H   0  0  0  0  0  0  0  0  0  0  0  0
  148.2662  135.6842  153.0609 H   0  0  0  0  0  0  0  0  0  0  0  0
  149.6840  136.9802  153.6424 H   0  0  0  0  0  0  0  0  0  0  0  0
  149.3377  138.4938  156.2058 H   0  0  0  0  0  0  0  0  0  0  0  0
  150.8578  137.8855  155.6100 H   0  0  0  0  0  0  0  0  0  0  0  0
  150.8635  140.2067  155.0250 H   0  0  0  0  0  0  0  0  0  0  0  0
  150.5471  139.3675  153.5290 H   0  0  0  0  0  0  0  0  0  0  0  0
  147.4676  143.3492  154.1595 H   0  0  0  0  0  0  0  0  0  0  0  0
  145.5652  141.4660  153.8659 H   0  0  0  0  0  0  0  0  0  0  0  0
  145.5144  133.2996  152.9899 H   0  0  0  0  0  0  0  0  0  0  0  0
  147.2483  133.2252  153.1416 H   0  0  0  0  0  0  0  0  0  0  0  0
  147.3767  134.9240  151.4212 H   0  0  0  0  0  0  0  0  0  0  0  0
  1  2  1  0  0  0  0
  1 20  1  0  0  0  0
  1 21  1  0  0  0  0
  1 22  1  0  0  0  0
  2  3  1  0  0  0  0
  2 23  1  0  0  0  0
  2 24  1  0  0  0  0
  3 19  1  0  0  0  0
  3  4  1  0  0  0  0
  3 42  1  0  0  0  0
  4  5  1  0  0  0  0
  4 25  1  0  0  0  0
  4 26  1  0  0  0  0
  5  6  1  0  0  0  0
  5 27  1  0  0  0  0
  5 28  1  0  0  0  0
  6  7  1  0  0  0  0
  6 29  1  0  0  0  0
  6 30  1  0  0  0  0
  7  8  1  0  0  0  0
  7 19  1  0  0  0  0
  7 31  1  0  0  0  0
  8  9  1  0  0  0  0
  8 32  1  0  0  0  0
  9 10  2  0  0  0  0
  9 11  1  0  0  0  0
 11 12  1  0  0  0  0
 11 33  1  0  0  0  0
 12 13  1  0  0  0  0
 12 34  1  0  0  0  0
 12 35  1  0  0  0  0
 13 14  1  0  0  0  0
 13 36  1  0  0  0  0
 13 37  1  0  0  0  0
 14 18  1  0  0  0  0
 14 15  2  0  0  0  0
 15 16  1  0  0  0  0
 16 17  2  0  0  0  0
 16 38  1  0  0  0  0
 17 18  1  0  0  0  0
 17 39  1  0  0  0  0
 19 40  1  0  0  0  0
 19 41  1  0  0  0  0
M  CHG  1   3   1
M  END
> <s_m_source_file>
AV-unprocessed.smi

> <i_m_source_file_index>
1833

> <i_lp_mmshare_version>
43012

> <i_f3d_flags>
0

> <s_epik_input>
W0NIM11bQ0gyXU4xW0NIMl1bQ0gyXVtDSDJdW0NASF0oW0NIMl0xKVtOSF1DKD1PKVtOSF1bQ0gyXVtDSDJdYzJuW2NIXVtjSF1zMg==

> <s_epik_cmdline>
J2VwaWtfcHl0aG9uJywgJy1waCcsICc3LjAnLCAnLXRuJywgJzgnLCAnLW1hJywgJzIwMCcsICctbWV0YWxfYmluZGluZycsICctaW1hZScsICc8aW5maWxlLm1hZT4nLCAnLW9tYWUnLCAnPG91dGZpbGUubWFlPic=

> <r_lp_tautomer_probability>
1

> <r_epik_Ionization_Penalty>
0.00269629

> <r_epik_Ionization_Penalty_Charging>
0.00233899

> <r_epik_Ionization_Penalty_Neutral>
0.000357304

> <r_epik_State_Penalty>
-0

> <r_epik_Charging_Adjusted_Penalty>
0.00233899

> <i_epik_Tot_Q>
1

> <i_epik_Tot_abs_Q>
1

> <r_epik_Metal_State_Penalty>
-0

> <b_epik_Metal_Only>
0

> <s_lp_Force_Field>
OPLS_2005

> <r_lp_Energy>
15.7918

> <b_lp_Chiralities_Consistent>
1

> <s_lp_Variant>
AV-unprocessed.smi:1833-3

> <Gold.Version>
5.8.1

> <Gold.Id.Protein>
6NUR|6NUR_protein|mol2

> <Gold.PLP.Fitness>
43.6084

> <Gold.PLP.PLP>
-28.1614

> <Gold.PLP.part.hbond>
-3.5766

> <Gold.PLP.part.metal>
0.0000

> <Gold.PLP.part.buried>
-1.5996

> <Gold.PLP.part.nonpolar>
-22.4751

> <Gold.PLP.part.repulsive>
0.2752

> <Gold.PLP.ligand.clash>
0.0000

> <Gold.PLP.ligand.torsion>
0.5891

> <Gold.PLP.Chemscore.Hbond>
3.7472

> <Gold.PLP.Chemscore.CHOScore>
1.7747

> <Gold.PLP.Chemscore.Metal>
0.0000

> <Gold.Chemscore.Hbonds>
donor molecule, donor type, donor heavy atom, donor atom, acceptor molecule, acceptor atom, score
      L1  H     3    42       P1  7948  1.95
      L1  H     8    32       P1  7948  0.86
      L1  H    11    33       P1  7948  0.67
      P1  H  8011  8017       L1    15  0.15
      L1  C    16    38       P1  8028  0.81
      L1  C    17    39       P1 10175  1.00

> <Gold.PLP.Chemscore.Internal.Correction>
0.0592

> <Gold.Rescore>
     Score         DG    S(hbond)    S(metal)    S(lipo)     H(rot)  DE(clash)    DE(int)     intcor
     16.65     -17.38       2.34        0.00      72.48       1.71       0.12       0.61       ----

> <Gold.Chemscore.Fitness>
16.6492

> <Gold.Chemscore.DG>
-17.3777

> <Gold.Chemscore.ZeroCoef>
-5.4800

> <Gold.Chemscore.Hbond>
2.3375

> <Gold.Chemscore.Metal>
0.0000

> <Gold.Chemscore.Lipo>
72.4787

> <Gold.Chemscore.Internal_Hbond>
0.0000

> <Gold.Chemscore.DEClash>
0.1183

> <Gold.Chemscore.DEInternal>
0.6103

> <Gold.Chemscore.Rot>
1.7147

> <Gold.Chemscore.Internal.Correction>
   9.000000E+99

> <Gold.Chemscore.Hbonds>
donor molecule, donor type, donor heavy atom, donor atom, acceptor molecule, acceptor atom, score
      L1  H     3    42       P1  7948  0.51
      L1  H     8    32       P1  7948  0.80
      L1  H    11    33       P1  7948  0.44
      P1  H  8011  8017       L1    15  0.02

> <Gold.Chemscore.Hbond.Weighted>
-7.8073

> <Gold.Chemscore.Metal.Weighted>
-0.0000

> <Gold.Chemscore.Lipo.Weighted>
-8.4800

> <Gold.Chemscore.Internal_Hbond.Weighted>
0.0000

> <Gold.Chemscore.DEClash.Weighted>
0.1183

> <Gold.Chemscore.DEInternal.Weighted>
0.6103

> <Gold.Chemscore.Rot.Weighted>
4.3896

> <Gold.Chemscore.Internal.Correction.Weighted>
   9.000000E+99

> <Gold.Protein.RotatedTorsions>
[ 6907 6896 6895 6894 ] final  177.23 input  -60.11 | X-H torsion
[ 7974 7965 7964 7962 ] final  -84.37 input  175.53 | X-H torsion
[ 8008 7997 7996 7995 ] final  -47.31 input   59.86 | X-H torsion
[ 10167 10162 10161 10158 ] final  100.90 input  -65.29 | X-H torsion
[ 10718 10713 10712 10709 ] final  158.24 input   66.30 | X-H torsion
[ 10763 10752 10751 10750 ] final -119.41 input  -60.55 | X-H torsion
[ 11005 11000 10999 10996 ] final -167.85 input  -57.11 | X-H torsion

> <Gold.Protein.ActiveResidues>
 VAL166  LYS551  ARG553  GLY616  TRP617  ASP618  TYR619  PRO620  LYS621  CYS622 
 ASP623  PHE694  ASN695  SER759  ASP760  ASP761  ALA762  ILE779  LEU786  VAL792 
 PHE793  MET794  SER795  GLU796  ALA797  LYS798  CYS799  TRP800  GLU811  SER814 

> <Gold.Protein.RotatedAtoms>
  151.7073  133.3312  159.3281 H   0  0  0  0  0  0  0  0  0  0  0  0  # atno 6907 bound_to 6896
  150.7709  134.6563  159.6325 H   0  0  0  0  0  0  0  0  0  0  0  0  # atno 6908 bound_to 6896
  152.3733  134.6704  160.0220 H   0  0  0  0  0  0  0  0  0  0  0  0  # atno 6909 bound_to 6896
  145.5075  140.9542  143.1726 H   0  0  0  0  0  0  0  0  0  0  0  0  # atno 7974 bound_to 7965
  154.4015  140.1349  156.4154 H   0  0  0  0  0  0  0  0  0  0  0  0  # atno 8008 bound_to 7997
  155.7693  140.3484  155.5218 H   0  0  0  0  0  0  0  0  0  0  0  0  # atno 8009 bound_to 7997
  155.8782  140.0983  157.1494 H   0  0  0  0  0  0  0  0  0  0  0  0  # atno 8010 bound_to 7997
  139.7486  144.6991  151.0467 H   0  0  0  0  0  0  0  0  0  0  0  0  # atno 10167 bound_to 10162
  157.1806  131.0631  151.2134 H   0  0  0  0  0  0  0  0  0  0  0  0  # atno 10718 bound_to 10713
  154.8616  135.4239  154.2295 H   0  0  0  0  0  0  0  0  0  0  0  0  # atno 10763 bound_to 10752
  153.3283  135.6986  153.6976 H   0  0  0  0  0  0  0  0  0  0  0  0  # atno 10764 bound_to 10752
  153.6003  135.3538  155.2916 H   0  0  0  0  0  0  0  0  0  0  0  0  # atno 10765 bound_to 10752
  140.5486  134.5451  157.5117 H   0  0  0  0  0  0  0  0  0  0  0  0  # atno 11005 bound_to 11000
  144.7746  139.6659  143.7180 LP  0  0  0  0  0  0  0  0  0  0  0  0  # atno 17320 bound_to 7965
  146.2187  139.5597  142.9632 LP  0  0  0  0  0  0  0  0  0  0  0  0  # atno 17321 bound_to 7965
  140.7795  143.4837  150.9984 LP  0  0  0  0  0  0  0  0  0  0  0  0  # atno 17342 bound_to 10162
  139.8525  143.7420  152.3177 LP  0  0  0  0  0  0  0  0  0  0  0  0  # atno 17343 bound_to 10162
  157.3956  130.7305  149.6729 LP  0  0  0  0  0  0  0  0  0  0  0  0  # atno 17370 bound_to 10713
  155.9725  130.4134  150.4083 LP  0  0  0  0  0  0  0  0  0  0  0  0  # atno 17371 bound_to 10713
  139.9467  134.7690  156.0546 LP  0  0  0  0  0  0  0  0  0  0  0  0  # atno 17394 bound_to 11000
  141.1185  133.6620  156.3154 LP  0  0  0  0  0  0  0  0  0  0  0  0  # atno 17395 bound_to 11000

$$$$
