AV-unprocessed.smi:392|AV-procd|sdf|2480|dock5
  -GOLD-   2262022423D 1   1.00000     0.00000
 Structure written by MMmdl.
 32 34  0  0  0  0  0  0  0  0  1 V2000
  149.5659  140.9253  157.6378 O   0  0  0  0  0  0  0  0  0  0  0  0
  150.5409  141.7540  157.0373 C   0  0  2  0  0  0  0  0  0  0  0  0
  151.3259  140.9087  156.0156 C   0  0  0  0  0  0  0  0  0  0  0  0
  150.4782  139.9490  155.3318 N   0  0  0  0  0  0  0  0  0  0  0  0
  150.6914  138.6258  155.1966 C   0  0  0  0  0  0  0  0  0  0  0  0
  149.7846  137.9286  154.5180 N   0  0  0  0  0  0  0  0  0  0  0  0
  148.8745  138.9138  154.1749 C   0  0  0  0  0  0  0  0  0  0  0  0
  147.6683  138.8342  153.4426 C   0  0  0  0  0  0  0  0  0  0  0  0
  146.8935  139.9905  153.2142 C   0  0  0  0  0  0  0  0  0  0  0  0
  147.3116  141.2417  153.7125 C   0  0  0  0  0  0  0  0  0  0  0  0
  148.5103  141.3462  154.4440 C   0  0  0  0  0  0  0  0  0  0  0  0
  149.2794  140.1899  154.6705 C   0  0  0  0  0  0  0  0  0  0  0  0
  151.4558  142.4100  158.0658 C   0  0  0  0  0  0  0  0  0  0  0  0
  151.5317  143.8180  158.1546 C   0  0  0  0  0  0  0  0  0  0  0  0
  152.3601  144.4278  159.1160 C   0  0  0  0  0  0  0  0  0  0  0  0
  153.1174  143.6343  159.9978 C   0  0  0  0  0  0  0  0  0  0  0  0
  153.0441  142.2307  159.9181 C   0  0  0  0  0  0  0  0  0  0  0  0
  152.2159  141.6182  158.9573 C   0  0  0  0  0  0  0  0  0  0  0  0
  152.1492  140.2662  158.9031 F   0  0  0  0  0  0  0  0  0  0  0  0
  149.9992  140.3479  158.2478 H   0  0  0  0  0  0  0  0  0  0  0  0
  149.9879  142.5289  156.5054 H   0  0  0  0  0  0  0  0  0  0  0  0
  151.8096  141.5464  155.2740 H   0  0  0  0  0  0  0  0  0  0  0  0
  152.1206  140.3535  156.5159 H   0  0  0  0  0  0  0  0  0  0  0  0
  151.5663  138.1487  155.6139 H   0  0  0  0  0  0  0  0  0  0  0  0
  147.3384  137.8813  153.0563 H   0  0  0  0  0  0  0  0  0  0  0  0
  145.9734  139.9175  152.6533 H   0  0  0  0  0  0  0  0  0  0  0  0
  146.7115  142.1216  153.5325 H   0  0  0  0  0  0  0  0  0  0  0  0
  148.8350  142.3026  154.8261 H   0  0  0  0  0  0  0  0  0  0  0  0
  150.9498  144.4369  157.4875 H   0  0  0  0  0  0  0  0  0  0  0  0
  152.4125  145.5049  159.1780 H   0  0  0  0  0  0  0  0  0  0  0  0
  153.7520  144.1017  160.7362 H   0  0  0  0  0  0  0  0  0  0  0  0
  153.6224  141.6219  160.5975 H   0  0  0  0  0  0  0  0  0  0  0  0
  1  2  1  0  0  0  0
  1 20  1  0  0  0  0
  2  3  1  0  0  0  0
  2 13  1  0  0  0  0
  2 21  1  0  0  0  0
  3  4  1  0  0  0  0
  3 22  1  0  0  0  0
  3 23  1  0  0  0  0
  4 12  1  0  0  0  0
  4  5  1  0  0  0  0
  5  6  2  0  0  0  0
  5 24  1  0  0  0  0
  6  7  1  0  0  0  0
  7 12  2  0  0  0  0
  7  8  1  0  0  0  0
  8  9  2  0  0  0  0
  8 25  1  0  0  0  0
  9 10  1  0  0  0  0
  9 26  1  0  0  0  0
 10 11  2  0  0  0  0
 10 27  1  0  0  0  0
 11 12  1  0  0  0  0
 11 28  1  0  0  0  0
 13 18  1  0  0  0  0
 13 14  2  0  0  0  0
 14 15  1  0  0  0  0
 14 29  1  0  0  0  0
 15 16  2  0  0  0  0
 15 30  1  0  0  0  0
 16 17  1  0  0  0  0
 16 31  1  0  0  0  0
 17 18  2  0  0  0  0
 17 32  1  0  0  0  0
 18 19  1  0  0  0  0
M  END
> <s_m_source_file>
AV-unprocessed.smi

> <i_m_source_file_index>
392

> <i_lp_mmshare_version>
43012

> <i_f3d_flags>
0

> <s_epik_input>
RmMxW2NIXVtjSF1bY0hdW2NIXWMxW0NASF0oW09IXSlbQ0gyXW4oW2NIXW4yKWMoYzIzKVtjSF1bY0hdW2NIXVtjSF0z

> <s_epik_cmdline>
J2VwaWtfcHl0aG9uJywgJy1waCcsICc3LjAnLCAnLXRuJywgJzgnLCAnLW1hJywgJzIwMCcsICctbWV0YWxfYmluZGluZycsICctaW1hZScsICc8aW5maWxlLm1hZT4nLCAnLW9tYWUnLCAnPG91dGZpbGUubWFlPic=

> <r_epik_Ionization_Penalty>
0.0696512

> <r_epik_Ionization_Penalty_Charging>
0

> <r_epik_Ionization_Penalty_Neutral>
0.0696512

> <r_epik_State_Penalty>
0.0610247

> <r_epik_Charging_Adjusted_Penalty>
0.0610247

> <i_epik_Tot_Q>
0

> <i_epik_Tot_abs_Q>
0

> <r_epik_Metal_State_Penalty>
6.42746e-05

> <b_epik_Metal_Only>
0

> <s_lp_Force_Field>
OPLS_2005

> <r_lp_Energy>
12.7977

> <b_lp_Chiralities_Consistent>
1

> <s_lp_Variant>
AV-unprocessed.smi:392-1

> <Gold.Version>
5.8.1

> <Gold.Id.Protein>
6NUR|6NUR_protein|mol2

> <Gold.PLP.Fitness>
43.8447

> <Gold.PLP.PLP>
-44.4007

> <Gold.PLP.part.hbond>
0.0000

> <Gold.PLP.part.metal>
0.0000

> <Gold.PLP.part.buried>
-3.5126

> <Gold.PLP.part.nonpolar>
-41.5093

> <Gold.PLP.part.repulsive>
0.2190

> <Gold.PLP.ligand.clash>
0.0000

> <Gold.PLP.ligand.torsion>
0.2882

> <Gold.PLP.Chemscore.Hbond>
0.0000

> <Gold.PLP.Chemscore.CHOScore>
0.0000

> <Gold.PLP.Chemscore.Metal>
0.0000

> <Gold.PLP.Chemscore.Internal.Correction>
0.0203

> <Gold.Rescore>
     Score         DG    S(hbond)    S(metal)    S(lipo)     H(rot)  DE(clash)    DE(int)     intcor
     13.44     -15.11       0.00        0.00     124.11       1.91       0.16       1.51       ----

> <Gold.Chemscore.Fitness>
13.4369

> <Gold.Chemscore.DG>
-15.1072

> <Gold.Chemscore.ZeroCoef>
-5.4800

> <Gold.Chemscore.Hbond>
0.0000

> <Gold.Chemscore.Metal>
0.0000

> <Gold.Chemscore.Lipo>
124.1107

> <Gold.Chemscore.Internal_Hbond>
0.0000

> <Gold.Chemscore.DEClash>
0.1589

> <Gold.Chemscore.DEInternal>
1.5115

> <Gold.Chemscore.Rot>
1.9116

> <Gold.Chemscore.Internal.Correction>
   9.000000E+99

> <Gold.Chemscore.Hbond.Weighted>
-0.0000

> <Gold.Chemscore.Metal.Weighted>
-0.0000

> <Gold.Chemscore.Lipo.Weighted>
-14.5210

> <Gold.Chemscore.Internal_Hbond.Weighted>
0.0000

> <Gold.Chemscore.DEClash.Weighted>
0.1589

> <Gold.Chemscore.DEInternal.Weighted>
1.5115

> <Gold.Chemscore.Rot.Weighted>
4.8937

> <Gold.Chemscore.Internal.Correction.Weighted>
   9.000000E+99

> <Gold.Protein.RotatedTorsions>
[ 6907 6896 6895 6894 ] final  -98.53 input  -60.11 | X-H torsion
[ 7974 7965 7964 7962 ] final -174.78 input  175.53 | X-H torsion
[ 8008 7997 7996 7995 ] final   32.47 input   59.86 | X-H torsion
[ 10167 10162 10161 10158 ] final   68.53 input  -65.29 | X-H torsion
[ 10718 10713 10712 10709 ] final   23.83 input   66.30 | X-H torsion
[ 10763 10752 10751 10750 ] final  -37.96 input  -60.55 | X-H torsion
[ 11005 11000 10999 10996 ] final   81.96 input  -57.11 | X-H torsion

> <Gold.Protein.ActiveResidues>
 VAL166  LYS551  ARG553  GLY616  TRP617  ASP618  TYR619  PRO620  LYS621  CYS622 
 ASP623  PHE694  ASN695  SER759  ASP760  ASP761  ALA762  ILE779  LEU786  VAL792 
 PHE793  MET794  SER795  GLU796  ALA797  LYS798  CYS799  TRP800  GLU811  SER814 

> <Gold.Protein.RotatedAtoms>
  150.7050  134.1180  159.4023 H   0  0  0  0  0  0  0  0  0  0  0  0  # atno 6907 bound_to 6896
  151.9166  135.0314  160.0528 H   0  0  0  0  0  0  0  0  0  0  0  0  # atno 6908 bound_to 6896
  152.2291  133.5009  159.5242 H   0  0  0  0  0  0  0  0  0  0  0  0  # atno 6909 bound_to 6896
  144.7130  140.1420  143.6391 H   0  0  0  0  0  0  0  0  0  0  0  0  # atno 7974 bound_to 7965
  155.1230  140.3250  155.4492 H   0  0  0  0  0  0  0  0  0  0  0  0  # atno 8008 bound_to 7997
  156.2657  140.2024  156.6300 H   0  0  0  0  0  0  0  0  0  0  0  0  # atno 8009 bound_to 7997
  154.6669  140.0541  157.0110 H   0  0  0  0  0  0  0  0  0  0  0  0  # atno 8010 bound_to 7997
  140.0777  144.5098  150.7184 H   0  0  0  0  0  0  0  0  0  0  0  0  # atno 10167 bound_to 10162
  157.1715  130.6762  149.6079 H   0  0  0  0  0  0  0  0  0  0  0  0  # atno 10718 bound_to 10713
  153.9049  135.6798  153.4753 H   0  0  0  0  0  0  0  0  0  0  0  0  # atno 10763 bound_to 10752
  153.1109  135.4783  154.9031 H   0  0  0  0  0  0  0  0  0  0  0  0  # atno 10764 bound_to 10752
  154.7557  135.3196  154.8430 H   0  0  0  0  0  0  0  0  0  0  0  0  # atno 10765 bound_to 10752
  139.9080  134.8036  156.2111 H   0  0  0  0  0  0  0  0  0  0  0  0  # atno 11005 bound_to 11000
  145.9193  139.2536  143.1390 LP  0  0  0  0  0  0  0  0  0  0  0  0  # atno 17320 bound_to 7965
  145.9636  140.8816  143.0198 LP  0  0  0  0  0  0  0  0  0  0  0  0  # atno 17321 bound_to 7965
  140.7094  143.2493  151.4628 LP  0  0  0  0  0  0  0  0  0  0  0  0  # atno 17342 bound_to 10162
  139.5798  144.1735  152.1953 LP  0  0  0  0  0  0  0  0  0  0  0  0  # atno 17343 bound_to 10162
  155.9738  130.4677  150.6335 LP  0  0  0  0  0  0  0  0  0  0  0  0  # atno 17370 bound_to 10713
  157.4039  131.0814  151.1284 LP  0  0  0  0  0  0  0  0  0  0  0  0  # atno 17371 bound_to 10713
  141.0464  133.6911  156.1692 LP  0  0  0  0  0  0  0  0  0  0  0  0  # atno 17394 bound_to 11000
  140.6877  134.4700  157.5589 LP  0  0  0  0  0  0  0  0  0  0  0  0  # atno 17395 bound_to 11000

$$$$
