AV-unprocessed.smi:1808|AV-procd|sdf|7305|dock4
  -GOLD-   22720 8563D 1   1.00000     0.00000
 Structure written by MMmdl.
 28 29  0  0  0  0  0  0  0  0  1 V2000
  150.8048  140.8566  156.3652 O   0  0  0  0  0  0  0  0  0  0  0  0
  150.2678  141.9416  156.1389 C   0  0  0  0  0  0  0  0  0  0  0  0
  150.7082  143.1030  156.6434 N   0  0  0  0  0  0  0  0  0  0  0  0
  151.8721  143.2499  157.5097 C   0  0  0  0  0  0  0  0  0  0  0  0
  151.4627  143.6097  158.9471 C   0  0  2  0  0  0  0  0  0  0  0  0
  152.2580  144.7708  159.5404 C   0  0  0  0  0  0  0  0  0  0  0  0
  152.1176  144.5063  161.0217 C   0  0  0  0  0  0  0  0  0  0  0  0
  152.2140  142.9846  161.0745 C   0  0  0  0  0  0  0  0  0  0  0  0
  151.7050  142.5147  159.8284 O   0  0  0  0  0  0  0  0  0  0  0  0
  149.1842  142.1268  155.3649 N   0  0  0  0  0  0  0  0  0  0  0  0
  148.4138  141.1473  154.6846 C   0  0  0  0  0  0  0  0  0  0  0  0
  148.8059  139.8836  154.4848 N   0  0  0  0  0  0  0  0  0  0  0  0
  147.8466  139.1398  153.7929 C   0  0  0  0  0  0  0  0  0  0  0  0
  146.7218  139.8580  153.4717 C   0  0  0  0  0  0  0  0  0  0  0  0
  146.8235  141.5071  154.0283 S   0  0  0  0  0  0  0  0  0  0  0  0
  150.2127  143.9486  156.4017 H   0  0  0  0  0  0  0  0  0  0  0  0
  152.4289  142.3126  157.5014 H   0  0  0  0  0  0  0  0  0  0  0  0
  152.5417  144.0114  157.1058 H   0  0  0  0  0  0  0  0  0  0  0  0
  150.3997  143.8521  158.9947 H   0  0  0  0  0  0  0  0  0  0  0  0
  153.3075  144.7105  159.2488 H   0  0  0  0  0  0  0  0  0  0  0  0
  151.8735  145.7461  159.2406 H   0  0  0  0  0  0  0  0  0  0  0  0
  152.8780  145.0047  161.6231 H   0  0  0  0  0  0  0  0  0  0  0  0
  151.1363  144.8338  161.3681 H   0  0  0  0  0  0  0  0  0  0  0  0
  153.2551  142.6717  161.1612 H   0  0  0  0  0  0  0  0  0  0  0  0
  151.6630  142.5629  161.9153 H   0  0  0  0  0  0  0  0  0  0  0  0
  148.8665  143.0788  155.2588 H   0  0  0  0  0  0  0  0  0  0  0  0
  148.0468  138.1019  153.5715 H   0  0  0  0  0  0  0  0  0  0  0  0
  145.8430  139.5174  152.9444 H   0  0  0  0  0  0  0  0  0  0  0  0
  1  2  2  0  0  0  0
  2  3  1  0  0  0  0
  2 10  1  0  0  0  0
  3  4  1  0  0  0  0
  3 16  1  0  0  0  0
  4  5  1  0  0  0  0
  4 17  1  0  0  0  0
  4 18  1  0  0  0  0
  5  9  1  0  0  0  0
  5  6  1  0  0  0  0
  5 19  1  0  0  0  0
  6  7  1  0  0  0  0
  6 20  1  0  0  0  0
  6 21  1  0  0  0  0
  7  8  1  0  0  0  0
  7 22  1  0  0  0  0
  7 23  1  0  0  0  0
  8  9  1  0  0  0  0
  8 24  1  0  0  0  0
  8 25  1  0  0  0  0
 10 11  1  0  0  0  0
 10 26  1  0  0  0  0
 11 15  1  0  0  0  0
 11 12  2  0  0  0  0
 12 13  1  0  0  0  0
 13 14  2  0  0  0  0
 13 27  1  0  0  0  0
 14 15  1  0  0  0  0
 14 28  1  0  0  0  0
M  END
> <s_m_source_file>
AV-unprocessed.smi

> <i_m_source_file_index>
1808

> <i_lp_mmshare_version>
43012

> <i_f3d_flags>
0

> <s_epik_input>
czFbY0hdW2NIXW5jMVtOSF1DKD1PKVtOSF1bQ0gyXVtDQEBIXTJbQ0gyXVtDSDJdW0NIMl1PMg==

> <s_epik_cmdline>
J2VwaWtfcHl0aG9uJywgJy1waCcsICc3LjAnLCAnLXRuJywgJzgnLCAnLW1hJywgJzIwMCcsICctbWV0YWxfYmluZGluZycsICctaW1hZScsICc8aW5maWxlLm1hZT4nLCAnLW9tYWUnLCAnPG91dGZpbGUubWFlPic=

> <r_lp_tautomer_probability>
0.999

> <r_epik_Ionization_Penalty>
0.000333847

> <r_epik_Ionization_Penalty_Charging>
0

> <r_epik_Ionization_Penalty_Neutral>
0.000333847

> <r_epik_State_Penalty>
0.000177984

> <r_epik_Charging_Adjusted_Penalty>
0.000177984

> <i_epik_Tot_Q>
0

> <i_epik_Tot_abs_Q>
0

> <r_epik_Metal_State_Penalty>
0.00767616

> <b_epik_Metal_Only>
0

> <s_lp_Force_Field>
OPLS_2005

> <r_lp_Energy>
15.026

> <b_lp_Chiralities_Consistent>
1

> <s_lp_Variant>
AV-unprocessed.smi:1808-1

> <Gold.Version>
5.8.1

> <Gold.Id.Protein>
6NUR|6NUR_protein|mol2

> <Gold.PLP.Fitness>
41.0612

> <Gold.PLP.PLP>
-30.6637

> <Gold.PLP.part.hbond>
-2.0000

> <Gold.PLP.part.metal>
0.0000

> <Gold.PLP.part.buried>
-4.5812

> <Gold.PLP.part.nonpolar>
-25.6327

> <Gold.PLP.part.repulsive>
0.4036

> <Gold.PLP.ligand.clash>
0.0000

> <Gold.PLP.ligand.torsion>
0.7810

> <Gold.PLP.Chemscore.Hbond>
2.0000

> <Gold.PLP.Chemscore.CHOScore>
1.9857

> <Gold.PLP.Chemscore.Metal>
0.0000

> <Gold.Chemscore.Hbonds>
donor molecule, donor type, donor heavy atom, donor atom, acceptor molecule, acceptor atom, score
      L1  H     3    16       P1  8028  1.00
      L1  H    10    26       P1  8028  1.00
      L1  C    13    27       P1  7948  0.62
      L1  C    14    28       P1 10175  1.00

> <Gold.PLP.Chemscore.Internal.Correction>
0.0022

> <Gold.Rescore>
     Score         DG    S(hbond)    S(metal)    S(lipo)     H(rot)  DE(clash)    DE(int)     intcor
     15.64     -17.81       1.93        0.00      79.20       1.32       0.20       1.97       ----

> <Gold.Chemscore.Fitness>
15.6425

> <Gold.Chemscore.DG>
-17.8150

> <Gold.Chemscore.ZeroCoef>
-5.4800

> <Gold.Chemscore.Hbond>
1.9278

> <Gold.Chemscore.Metal>
0.0000

> <Gold.Chemscore.Lipo>
79.1960

> <Gold.Chemscore.Internal_Hbond>
0.0000

> <Gold.Chemscore.DEClash>
0.2041

> <Gold.Chemscore.DEInternal>
1.9684

> <Gold.Chemscore.Rot>
1.3163

> <Gold.Chemscore.Internal.Correction>
   9.000000E+99

> <Gold.Chemscore.Hbonds>
donor molecule, donor type, donor heavy atom, donor atom, acceptor molecule, acceptor atom, score
      L1  H     3    16       P1  8028  0.95
      L1  H    10    26       P1  8028  0.97

> <Gold.Chemscore.Hbond.Weighted>
-6.4389

> <Gold.Chemscore.Metal.Weighted>
-0.0000

> <Gold.Chemscore.Lipo.Weighted>
-9.2659

> <Gold.Chemscore.Internal_Hbond.Weighted>
0.0000

> <Gold.Chemscore.DEClash.Weighted>
0.2041

> <Gold.Chemscore.DEInternal.Weighted>
1.9684

> <Gold.Chemscore.Rot.Weighted>
3.3698

> <Gold.Chemscore.Internal.Correction.Weighted>
   9.000000E+99

> <Gold.Protein.RotatedTorsions>
[ 6907 6896 6895 6894 ] final  107.57 input  -60.11 | X-H torsion
[ 7974 7965 7964 7962 ] final    3.96 input  175.53 | X-H torsion
[ 8008 7997 7996 7995 ] final   52.12 input   59.86 | X-H torsion
[ 10167 10162 10161 10158 ] final  164.34 input  -65.29 | X-H torsion
[ 10718 10713 10712 10709 ] final  -77.35 input   66.30 | X-H torsion
[ 10763 10752 10751 10750 ] final  117.77 input  -60.55 | X-H torsion
[ 11005 11000 10999 10996 ] final    0.84 input  -57.11 | X-H torsion

> <Gold.Protein.ActiveResidues>
 VAL166  LYS551  ARG553  GLY616  TRP617  ASP618  TYR619  PRO620  LYS621  CYS622 
 ASP623  PHE694  ASN695  SER759  ASP760  ASP761  ALA762  ILE779  LEU786  VAL792 
 PHE793  MET794  SER795  GLU796  ALA797  LYS798  CYS799  TRP800  GLU811  SER814 

> <Gold.Protein.RotatedAtoms>
  152.5149  133.9216  159.7536 H   0  0  0  0  0  0  0  0  0  0  0  0  # atno 6907 bound_to 6896
  150.9586  133.6461  159.2765 H   0  0  0  0  0  0  0  0  0  0  0  0  # atno 6908 bound_to 6896
  151.3714  135.0928  159.9519 H   0  0  0  0  0  0  0  0  0  0  0  0  # atno 6909 bound_to 6896
  146.2444  140.0607  142.8368 H   0  0  0  0  0  0  0  0  0  0  0  0  # atno 7974 bound_to 7965
  155.4466  140.3456  155.4296 H   0  0  0  0  0  0  0  0  0  0  0  0  # atno 8008 bound_to 7997
  156.1246  140.1497  156.9185 H   0  0  0  0  0  0  0  0  0  0  0  0  # atno 8009 bound_to 7997
  154.4848  140.0858  156.7442 H   0  0  0  0  0  0  0  0  0  0  0  0  # atno 8010 bound_to 7997
  139.4887  144.4245  151.9146 H   0  0  0  0  0  0  0  0  0  0  0  0  # atno 10167 bound_to 10162
  156.0147  130.4489  150.3331 H   0  0  0  0  0  0  0  0  0  0  0  0  # atno 10718 bound_to 10713
  153.5575  135.3527  155.2785 H   0  0  0  0  0  0  0  0  0  0  0  0  # atno 10763 bound_to 10752
  154.8699  135.4128  154.2868 H   0  0  0  0  0  0  0  0  0  0  0  0  # atno 10764 bound_to 10752
  153.3607  135.7059  153.6784 H   0  0  0  0  0  0  0  0  0  0  0  0  # atno 10765 bound_to 10752
  140.6221  133.9652  155.8230 H   0  0  0  0  0  0  0  0  0  0  0  0  # atno 11005 bound_to 11000
  145.0902  140.9279  143.4773 LP  0  0  0  0  0  0  0  0  0  0  0  0  # atno 17320 bound_to 7965
  145.0778  139.2982  143.5799 LP  0  0  0  0  0  0  0  0  0  0  0  0  # atno 17321 bound_to 7965
  140.3690  144.2879  150.5922 LP  0  0  0  0  0  0  0  0  0  0  0  0  # atno 17342 bound_to 10162
  140.5336  143.2238  151.8199 LP  0  0  0  0  0  0  0  0  0  0  0  0  # atno 17343 bound_to 10162
  157.1429  131.0301  151.2920 LP  0  0  0  0  0  0  0  0  0  0  0  0  # atno 17370 bound_to 10713
  157.4457  130.7569  149.7107 LP  0  0  0  0  0  0  0  0  0  0  0  0  # atno 17371 bound_to 10713
  141.0735  134.0170  157.3492 LP  0  0  0  0  0  0  0  0  0  0  0  0  # atno 17394 bound_to 11000
  139.9149  135.0195  156.7842 LP  0  0  0  0  0  0  0  0  0  0  0  0  # atno 17395 bound_to 11000

$$$$
