AV-unprocessed.smi:844|AV-procd|sdf|3923|dock5
  -GOLD-   22720 1383D 1   1.00000     0.00000
 Structure written by MMmdl.
 32 34  0  0  0  0  0  0  0  0  1 V2000
  150.9903  144.1585  157.5176 O   0  0  0  0  0  0  0  0  0  0  0  0
  151.4768  142.9013  157.9424 C   0  0  2  0  0  0  0  0  0  0  0  0
  150.3490  141.8662  157.7641 C   0  0  0  0  0  0  0  0  0  0  0  0
  150.3844  141.2379  156.4561 N   0  0  0  0  0  0  0  0  0  0  0  0
  149.9070  141.7384  155.3001 C   0  0  0  0  0  0  0  0  0  0  0  0
  150.0330  140.9844  154.2118 N   0  0  0  0  0  0  0  0  0  0  0  0
  150.6696  139.8649  154.7199 C   0  0  0  0  0  0  0  0  0  0  0  0
  151.0930  138.6793  154.0774 C   0  0  0  0  0  0  0  0  0  0  0  0
  151.7305  137.6575  154.8116 C   0  0  0  0  0  0  0  0  0  0  0  0
  151.9542  137.8043  156.1963 C   0  0  0  0  0  0  0  0  0  0  0  0
  151.5414  138.9766  156.8583 C   0  0  0  0  0  0  0  0  0  0  0  0
  150.9059  139.9934  156.1219 C   0  0  0  0  0  0  0  0  0  0  0  0
  152.0041  142.9389  159.3728 C   0  0  0  0  0  0  0  0  0  0  0  0
  152.9811  142.0098  159.7956 C   0  0  0  0  0  0  0  0  0  0  0  0
  153.4844  142.0536  161.1099 C   0  0  0  0  0  0  0  0  0  0  0  0
  153.0169  143.0288  162.0108 C   0  0  0  0  0  0  0  0  0  0  0  0
  153.5018  143.0719  163.2743 F   0  0  0  0  0  0  0  0  0  0  0  0
  152.0467  143.9607  161.5957 C   0  0  0  0  0  0  0  0  0  0  0  0
  151.5416  143.9186  160.2815 C   0  0  0  0  0  0  0  0  0  0  0  0
  150.6167  144.8308  159.8962 F   0  0  0  0  0  0  0  0  0  0  0  0
  150.2028  144.0199  157.0136 H   0  0  0  0  0  0  0  0  0  0  0  0
  152.2957  142.6531  157.2663 H   0  0  0  0  0  0  0  0  0  0  0  0
  150.4076  141.0921  158.5308 H   0  0  0  0  0  0  0  0  0  0  0  0
  149.3754  142.3450  157.8771 H   0  0  0  0  0  0  0  0  0  0  0  0
  149.4325  142.7079  155.2569 H   0  0  0  0  0  0  0  0  0  0  0  0
  150.9266  138.5560  153.0176 H   0  0  0  0  0  0  0  0  0  0  0  0
  152.0496  136.7556  154.3100 H   0  0  0  0  0  0  0  0  0  0  0  0
  152.4434  137.0162  156.7499 H   0  0  0  0  0  0  0  0  0  0  0  0
  151.7101  139.0929  157.9185 H   0  0  0  0  0  0  0  0  0  0  0  0
  153.3528  141.2616  159.1108 H   0  0  0  0  0  0  0  0  0  0  0  0
  154.2312  141.3399  161.4259 H   0  0  0  0  0  0  0  0  0  0  0  0
  151.6911  144.7115  162.2858 H   0  0  0  0  0  0  0  0  0  0  0  0
  1  2  1  0  0  0  0
  1 21  1  0  0  0  0
  2  3  1  0  0  0  0
  2 13  1  0  0  0  0
  2 22  1  0  0  0  0
  3  4  1  0  0  0  0
  3 23  1  0  0  0  0
  3 24  1  0  0  0  0
  4 12  1  0  0  0  0
  4  5  1  0  0  0  0
  5  6  2  0  0  0  0
  5 25  1  0  0  0  0
  6  7  1  0  0  0  0
  7 12  2  0  0  0  0
  7  8  1  0  0  0  0
  8  9  2  0  0  0  0
  8 26  1  0  0  0  0
  9 10  1  0  0  0  0
  9 27  1  0  0  0  0
 10 11  2  0  0  0  0
 10 28  1  0  0  0  0
 11 12  1  0  0  0  0
 11 29  1  0  0  0  0
 13 19  1  0  0  0  0
 13 14  2  0  0  0  0
 14 15  1  0  0  0  0
 14 30  1  0  0  0  0
 15 16  2  0  0  0  0
 15 31  1  0  0  0  0
 16 17  1  0  0  0  0
 16 18  1  0  0  0  0
 18 19  2  0  0  0  0
 18 32  1  0  0  0  0
 19 20  1  0  0  0  0
M  END
> <s_m_source_file>
AV-unprocessed.smi

> <i_m_source_file_index>
844

> <i_lp_mmshare_version>
43012

> <i_f3d_flags>
0

> <s_epik_input>
RmMxW2NIXWMoRilbY0hdW2NIXWMxW0NASF0oW09IXSlbQ0gyXW4oW2NIXW4yKWMoYzIzKVtjSF1bY0hdW2NIXVtjSF0z

> <s_epik_cmdline>
J2VwaWtfcHl0aG9uJywgJy1waCcsICc3LjAnLCAnLXRuJywgJzgnLCAnLW1hJywgJzIwMCcsICctbWV0YWxfYmluZGluZycsICctaW1hZScsICc8aW5maWxlLm1hZT4nLCAnLW9tYWUnLCAnPG91dGZpbGUubWFlPic=

> <r_epik_Ionization_Penalty>
0.0696514

> <r_epik_Ionization_Penalty_Charging>
0

> <r_epik_Ionization_Penalty_Neutral>
0.0696514

> <r_epik_State_Penalty>
0.0610247

> <r_epik_Charging_Adjusted_Penalty>
0.0610247

> <i_epik_Tot_Q>
0

> <i_epik_Tot_abs_Q>
0

> <r_epik_Metal_State_Penalty>
6.42746e-05

> <b_epik_Metal_Only>
0

> <s_lp_Force_Field>
OPLS_2005

> <r_lp_Energy>
12.41

> <b_lp_Chiralities_Consistent>
1

> <s_lp_Variant>
AV-unprocessed.smi:844-1

> <Gold.Version>
5.8.1

> <Gold.Id.Protein>
6NUR|6NUR_protein|mol2

> <Gold.PLP.Fitness>
54.7440

> <Gold.PLP.PLP>
-51.0733

> <Gold.PLP.part.hbond>
-2.0000

> <Gold.PLP.part.metal>
0.0000

> <Gold.PLP.part.buried>
-5.7676

> <Gold.PLP.part.nonpolar>
-42.1229

> <Gold.PLP.part.repulsive>
0.1446

> <Gold.PLP.ligand.clash>
0.0028

> <Gold.PLP.ligand.torsion>
1.3870

> <Gold.PLP.Chemscore.Hbond>
1.1452

> <Gold.PLP.Chemscore.CHOScore>
1.0000

> <Gold.PLP.Chemscore.Metal>
0.0000

> <Gold.Chemscore.Hbonds>
donor molecule, donor type, donor heavy atom, donor atom, acceptor molecule, acceptor atom, score
      L1  H     1    21       P1  8028  0.94
      P1  H  8011  8017       L1     6  0.12
      L1  C     5    25       P1  8028  1.00

> <Gold.PLP.Chemscore.Internal.Correction>
0.0120

> <Gold.Rescore>
     Score         DG    S(hbond)    S(metal)    S(lipo)     H(rot)  DE(clash)    DE(int)     intcor
     14.39     -17.13       0.88        0.00     118.18       2.00       0.31       2.43       ----

> <Gold.Chemscore.Fitness>
14.3863

> <Gold.Chemscore.DG>
-17.1328

> <Gold.Chemscore.ZeroCoef>
-5.4800

> <Gold.Chemscore.Hbond>
0.8849

> <Gold.Chemscore.Metal>
0.0000

> <Gold.Chemscore.Lipo>
118.1848

> <Gold.Chemscore.Internal_Hbond>
0.0000

> <Gold.Chemscore.DEClash>
0.3128

> <Gold.Chemscore.DEInternal>
2.4337

> <Gold.Chemscore.Rot>
2.0040

> <Gold.Chemscore.Internal.Correction>
   9.000000E+99

> <Gold.Chemscore.Hbonds>
donor molecule, donor type, donor heavy atom, donor atom, acceptor molecule, acceptor atom, score
      L1  H     1    21       P1  8028  0.84
      P1  H  8011  8017       L1     6  0.08

> <Gold.Chemscore.Hbond.Weighted>
-2.9556

> <Gold.Chemscore.Metal.Weighted>
-0.0000

> <Gold.Chemscore.Lipo.Weighted>
-13.8276

> <Gold.Chemscore.Internal_Hbond.Weighted>
0.0000

> <Gold.Chemscore.DEClash.Weighted>
0.3128

> <Gold.Chemscore.DEInternal.Weighted>
2.4337

> <Gold.Chemscore.Rot.Weighted>
5.1303

> <Gold.Chemscore.Internal.Correction.Weighted>
   9.000000E+99

> <Gold.Protein.RotatedTorsions>
[ 6907 6896 6895 6894 ] final  113.23 input  -60.11 | X-H torsion
[ 7974 7965 7964 7962 ] final  169.13 input  175.53 | X-H torsion
[ 8008 7997 7996 7995 ] final  -51.12 input   59.86 | X-H torsion
[ 10167 10162 10161 10158 ] final   92.42 input  -65.29 | X-H torsion
[ 10718 10713 10712 10709 ] final   11.06 input   66.30 | X-H torsion
[ 10763 10752 10751 10750 ] final  -81.26 input  -60.55 | X-H torsion
[ 11005 11000 10999 10996 ] final   44.32 input  -57.11 | X-H torsion

> <Gold.Protein.ActiveResidues>
 VAL166  LYS551  ARG553  GLY616  TRP617  ASP618  TYR619  PRO620  LYS621  CYS622 
 ASP623  PHE694  ASN695  SER759  ASP760  ASP761  ALA762  ILE779  LEU786  VAL792 
 PHE793  MET794  SER795  GLU796  ALA797  LYS798  CYS799  TRP800  GLU811  SER814 

> <Gold.Protein.RotatedAtoms>
  152.4872  133.8404  159.7149 H   0  0  0  0  0  0  0  0  0  0  0  0  # atno 6907 bound_to 6896
  150.8969  133.7160  159.2896 H   0  0  0  0  0  0  0  0  0  0  0  0  # atno 6908 bound_to 6896
  151.4614  135.1042  159.9778 H   0  0  0  0  0  0  0  0  0  0  0  0  # atno 6909 bound_to 6896
  144.7365  139.9010  143.6409 H   0  0  0  0  0  0  0  0  0  0  0  0  # atno 7974 bound_to 7965
  154.4076  140.1256  156.4777 H   0  0  0  0  0  0  0  0  0  0  0  0  # atno 8008 bound_to 7997
  155.7116  140.3494  155.4957 H   0  0  0  0  0  0  0  0  0  0  0  0  # atno 8009 bound_to 7997
  155.9295  140.1067  157.1134 H   0  0  0  0  0  0  0  0  0  0  0  0  # atno 8010 bound_to 7997
  139.8279  144.6701  150.9437 H   0  0  0  0  0  0  0  0  0  0  0  0  # atno 10167 bound_to 10162
  156.9901  130.6039  149.5685 H   0  0  0  0  0  0  0  0  0  0  0  0  # atno 10718 bound_to 10713
  154.5613  135.5632  153.7010 H   0  0  0  0  0  0  0  0  0  0  0  0  # atno 10763 bound_to 10752
  153.0019  135.6274  154.2240 H   0  0  0  0  0  0  0  0  0  0  0  0  # atno 10764 bound_to 10752
  154.2178  135.2871  155.2915 H   0  0  0  0  0  0  0  0  0  0  0  0  # atno 10765 bound_to 10752
  140.1562  134.4398  155.8348 H   0  0  0  0  0  0  0  0  0  0  0  0  # atno 11005 bound_to 11000
  146.1072  139.4073  143.0310 LP  0  0  0  0  0  0  0  0  0  0  0  0  # atno 17320 bound_to 7965
  145.7495  140.9978  143.1258 LP  0  0  0  0  0  0  0  0  0  0  0  0  # atno 17321 bound_to 7965
  140.7809  143.4029  151.1119 LP  0  0  0  0  0  0  0  0  0  0  0  0  # atno 17342 bound_to 10162
  139.7685  143.8529  152.3115 LP  0  0  0  0  0  0  0  0  0  0  0  0  # atno 17343 bound_to 10162
  156.0210  130.5305  150.8276 LP  0  0  0  0  0  0  0  0  0  0  0  0  # atno 17370 bound_to 10713
  157.5465  131.0942  150.9756 LP  0  0  0  0  0  0  0  0  0  0  0  0  # atno 17371 bound_to 10713
  141.2204  133.6893  156.7512 LP  0  0  0  0  0  0  0  0  0  0  0  0  # atno 17394 bound_to 11000
  140.2544  134.8515  157.3699 LP  0  0  0  0  0  0  0  0  0  0  0  0  # atno 17395 bound_to 11000

$$$$
