AV-unprocessed.smi:287|AV-procd|sdf|2195|dock6
  -GOLD-   2262021593D 1   1.00000     0.00000
 Structure written by MMmdl.
 55 58  0  0  0  0  0  0  0  0  1 V2000
  132.9662  137.0470  153.2331 C   0  0  0  0  0  0  0  0  0  0  0  0
  134.0461  137.0005  154.2590 C   0  0  0  0  0  0  0  0  0  0  0  0
  135.4065  137.0887  154.2018 C   0  0  0  0  0  0  0  0  0  0  0  0
  135.8984  136.9616  155.5358 C   0  0  0  0  0  0  0  0  0  0  0  0
  137.3569  137.0047  155.9726 C   0  0  1  0  0  0  0  0  0  0  0  0
  137.5849  138.2168  156.8902 C   0  0  0  0  0  0  0  0  0  0  0  0
  137.7280  135.8741  156.7379 O   0  0  0  0  0  0  0  0  0  0  0  0
  138.3399  137.0501  154.7798 C   0  0  0  0  0  0  0  0  0  0  0  0
  139.5978  136.3674  155.0549 N   0  0  0  0  0  0  0  0  0  0  0  0
  140.6980  136.6106  154.3126 C   0  0  0  0  0  0  0  0  0  0  0  0
  140.5948  137.6459  153.4470 N   0  0  0  0  0  0  0  0  0  0  0  0
  141.6280  137.9725  152.6687 C   0  0  0  0  0  0  0  0  0  0  0  0
  142.8313  137.4035  152.6028 N   0  0  0  0  0  0  0  0  0  0  0  0
  142.9525  136.3539  153.4669 C   0  0  0  0  0  0  0  0  0  0  0  0
  141.9317  135.8941  154.3517 C   0  0  0  0  0  0  0  0  0  0  0  0
  142.4040  134.8028  155.0694 N   0  0  0  0  0  0  0  0  0  0  0  0
  143.6210  134.6326  154.6345 C   0  0  0  0  0  0  0  0  0  0  0  0
  144.0460  135.5277  153.6791 N   0  0  0  0  0  0  0  0  0  0  0  0
  145.3931  135.5143  153.0061 C   0  0  1  0  0  0  0  0  0  0  0  0
  145.6569  134.2173  152.5776 O   0  0  0  0  0  0  0  0  0  0  0  0
  145.2725  134.0737  151.2180 C   0  0  2  0  0  0  0  0  0  0  0  0
  146.0412  132.9045  150.5840 C   0  0  0  0  0  0  0  0  0  0  0  0
  145.4437  132.5404  149.3579 O   0  0  0  0  0  0  0  0  0  0  0  0
  145.6312  135.4404  150.6128 C   0  0  1  0  0  0  0  0  0  0  0  0
  144.7396  135.7629  149.5646 O   0  0  0  0  0  0  0  0  0  0  0  0
  145.4882  136.4307  151.7735 C   0  0  2  0  0  0  0  0  0  0  0  0
  146.6288  137.2628  151.8442 O   0  0  0  0  0  0  0  0  0  0  0  0
  134.7729  136.8270  156.3119 C   0  0  0  0  0  0  0  0  0  0  0  0
  134.5416  136.6797  157.7796 C   0  0  0  0  0  0  0  0  0  0  0  0
  133.6465  136.8421  155.5460 O   0  0  0  0  0  0  0  0  0  0  0  0
  146.0829  135.7934  153.8040 H   0  0  0  0  0  0  0  0  0  0  0  0
  144.1983  133.8970  151.1614 H   0  0  0  0  0  0  0  0  0  0  0  0
  146.6556  135.4278  150.2361 H   0  0  0  0  0  0  0  0  0  0  0  0
  144.6097  137.0705  151.6966 H   0  0  0  0  0  0  0  0  0  0  0  0
  133.3844  137.0138  152.2269 H   0  0  0  0  0  0  0  0  0  0  0  0
  132.3835  137.9633  153.3273 H   0  0  0  0  0  0  0  0  0  0  0  0
  132.2885  136.2003  153.3445 H   0  0  0  0  0  0  0  0  0  0  0  0
  135.9866  137.2219  153.3006 H   0  0  0  0  0  0  0  0  0  0  0  0
  137.3543  139.1499  156.3749 H   0  0  0  0  0  0  0  0  0  0  0  0
  138.6208  138.2757  157.2262 H   0  0  0  0  0  0  0  0  0  0  0  0
  136.9519  138.1678  157.7773 H   0  0  0  0  0  0  0  0  0  0  0  0
  138.6023  135.6169  156.4883 H   0  0  0  0  0  0  0  0  0  0  0  0
  137.8737  136.5483  153.9310 H   0  0  0  0  0  0  0  0  0  0  0  0
  138.5303  138.0800  154.4742 H   0  0  0  0  0  0  0  0  0  0  0  0
  139.5510  135.6331  155.7467 H   0  0  0  0  0  0  0  0  0  0  0  0
  141.4693  138.8099  152.0055 H   0  0  0  0  0  0  0  0  0  0  0  0
  144.2503  133.8361  155.0041 H   0  0  0  0  0  0  0  0  0  0  0  0
  147.0679  133.2037  150.3709 H   0  0  0  0  0  0  0  0  0  0  0  0
  146.0853  132.0465  151.2556 H   0  0  0  0  0  0  0  0  0  0  0  0
  145.4775  133.2823  148.7739 H   0  0  0  0  0  0  0  0  0  0  0  0
  144.4292  136.6458  149.6962 H   0  0  0  0  0  0  0  0  0  0  0  0
  147.3907  136.7451  151.6329 H   0  0  0  0  0  0  0  0  0  0  0  0
  135.0927  137.4381  158.3357 H   0  0  0  0  0  0  0  0  0  0  0  0
  134.8706  135.6997  158.1250 H   0  0  0  0  0  0  0  0  0  0  0  0
  133.4848  136.7862  158.0261 H   0  0  0  0  0  0  0  0  0  0  0  0
  1  2  1  0  0  0  0
  1 35  1  0  0  0  0
  1 36  1  0  0  0  0
  1 37  1  0  0  0  0
  2 30  1  0  0  0  0
  2  3  2  0  0  0  0
  3  4  1  0  0  0  0
  3 38  1  0  0  0  0
  4  5  1  0  0  0  0
  4 28  2  0  0  0  0
  5  6  1  0  0  0  0
  5  7  1  0  0  0  0
  5  8  1  0  0  0  0
  6 39  1  0  0  0  0
  6 40  1  0  0  0  0
  6 41  1  0  0  0  0
  7 42  1  0  0  0  0
  8  9  1  0  0  0  0
  8 43  1  0  0  0  0
  8 44  1  0  0  0  0
  9 10  1  0  0  0  0
  9 45  1  0  0  0  0
 10 15  1  0  0  0  0
 10 11  2  0  0  0  0
 11 12  1  0  0  0  0
 12 13  2  0  0  0  0
 12 46  1  0  0  0  0
 13 14  1  0  0  0  0
 14 18  1  0  0  0  0
 14 15  2  0  0  0  0
 15 16  1  0  0  0  0
 16 17  2  0  0  0  0
 17 18  1  0  0  0  0
 17 47  1  0  0  0  0
 18 19  1  0  0  0  0
 19 31  1  0  0  0  0
 19 26  1  0  0  0  0
 19 20  1  0  0  0  0
 20 21  1  0  0  0  0
 21 32  1  0  0  0  0
 21 22  1  0  0  0  0
 21 24  1  0  0  0  0
 22 23  1  0  0  0  0
 22 48  1  0  0  0  0
 22 49  1  0  0  0  0
 23 50  1  0  0  0  0
 24 33  1  0  0  0  0
 24 25  1  0  0  0  0
 24 26  1  0  0  0  0
 25 51  1  0  0  0  0
 26 34  1  0  0  0  0
 26 27  1  0  0  0  0
 27 52  1  0  0  0  0
 28 29  1  0  0  0  0
 28 30  1  0  0  0  0
 29 53  1  0  0  0  0
 29 54  1  0  0  0  0
 29 55  1  0  0  0  0
M  END
> <s_m_source_file>
AV-unprocessed.smi

> <i_m_source_file_index>
287

> <i_lp_mmshare_version>
43012

> <i_f3d_flags>
0

> <s_epik_input>
W0NIM11jMVtjSF1jKGMobzEpW0NIM10pW0NAQF0oW0NIM10pKFtPSF0pW0NIMl1bTkhdYyhuW2NIXW4yKWMoYzIzKW5bY0hdbjNbQ0BASF00T1tDQEhdKFtDSDJdW09IXSlbQ0BASF0oW09IXSlbQ0BIXTRbT0hd

> <s_epik_cmdline>
J2VwaWtfcHl0aG9uJywgJy1waCcsICc3LjAnLCAnLXRuJywgJzgnLCAnLW1hJywgJzIwMCcsICctbWV0YWxfYmluZGluZycsICctaW1hZScsICc8aW5maWxlLm1hZT4nLCAnLW9tYWUnLCAnPG91dGZpbGUubWFlPic=

> <r_lp_tautomer_probability>
1

> <r_epik_Ionization_Penalty>
0.000992612

> <r_epik_Ionization_Penalty_Charging>
0

> <r_epik_Ionization_Penalty_Neutral>
0.000992612

> <r_epik_State_Penalty>
-0

> <r_epik_Charging_Adjusted_Penalty>
0

> <i_epik_Tot_Q>
0

> <i_epik_Tot_abs_Q>
0

> <r_epik_Metal_State_Penalty>
-0

> <b_epik_Metal_Only>
0

> <s_epik_Chemistry_Notes>
This compound contains an acetal/aminal-like group ( X-CH(R)-Y where X, Y are N, S, or O) that may be acid/base labile, releasing an aldehyde.

> <s_lp_Force_Field>
OPLS_2005

> <r_lp_Energy>
36.8397

> <b_lp_Chiralities_Consistent>
1

> <s_lp_Variant>
AV-unprocessed.smi:287-19

> <Gold.Version>
5.8.1

> <Gold.Id.Protein>
6NUR|6NUR_protein|mol2

> <Gold.PLP.Fitness>
54.1879

> <Gold.PLP.PLP>
-36.2751

> <Gold.PLP.part.hbond>
-7.6075

> <Gold.PLP.part.metal>
0.0000

> <Gold.PLP.part.buried>
-3.3779

> <Gold.PLP.part.nonpolar>
-28.1157

> <Gold.PLP.part.repulsive>
1.6529

> <Gold.PLP.ligand.clash>
0.0000

> <Gold.PLP.ligand.torsion>
1.2194

> <Gold.PLP.Chemscore.Hbond>
4.7191

> <Gold.PLP.Chemscore.CHOScore>
2.0230

> <Gold.PLP.Chemscore.Metal>
0.0000

> <Gold.Chemscore.Hbonds>
donor molecule, donor type, donor heavy atom, donor atom, acceptor molecule, acceptor atom, score
      L1  H     7    42       P1 11000  0.17
      L1  H     9    45       P1 11000  1.00
      L1  H    23    50       P1  7921  0.85
      L1  H    25    51       P1 10171  1.00
      L1  H    27    52       P1  7948  1.00
      P1  H 11000 11005       L1    16  0.53
      L1  C    12    46       P1 10160  1.00
      L1  C    12    46       P1 10175  0.28
      L1  C    17    47       P1 10957  0.35

> <Gold.PLP.Chemscore.Internal.Correction>
0.1252

> <Gold.Rescore>
     Score         DG    S(hbond)    S(metal)    S(lipo)     H(rot)  DE(clash)    DE(int)     intcor
      8.58     -12.14       3.74        0.00      65.45       5.27       1.32       2.23       ----

> <Gold.Chemscore.Fitness>
8.5836

> <Gold.Chemscore.DG>
-12.1394

> <Gold.Chemscore.ZeroCoef>
-5.4800

> <Gold.Chemscore.Hbond>
3.7382

> <Gold.Chemscore.Metal>
0.0000

> <Gold.Chemscore.Lipo>
65.4507

> <Gold.Chemscore.Internal_Hbond>
0.0000

> <Gold.Chemscore.DEClash>
1.3226

> <Gold.Chemscore.DEInternal>
2.2333

> <Gold.Chemscore.Rot>
5.2672

> <Gold.Chemscore.Internal.Correction>
   9.000000E+99

> <Gold.Chemscore.Hbonds>
donor molecule, donor type, donor heavy atom, donor atom, acceptor molecule, acceptor atom, score
      L1  H     9    45       P1 11000  0.20
      L1  H    23    50       P1  7921  0.14
      L1  H    25    51       P1 10171  0.97
      L1  H    27    52       P1  7948  0.97
      P1  H 11000 11005       L1    16  0.42

> <Gold.Chemscore.Hbond.Weighted>
-12.4856

> <Gold.Chemscore.Metal.Weighted>
-0.0000

> <Gold.Chemscore.Lipo.Weighted>
-7.6577

> <Gold.Chemscore.Internal_Hbond.Weighted>
0.0000

> <Gold.Chemscore.DEClash.Weighted>
1.3226

> <Gold.Chemscore.DEInternal.Weighted>
2.2333

> <Gold.Chemscore.Rot.Weighted>
13.4839

> <Gold.Chemscore.Internal.Correction.Weighted>
   9.000000E+99

> <Gold.Protein.RotatedTorsions>
[ 6907 6896 6895 6894 ] final  -85.06 input  -60.11 | X-H torsion
[ 7974 7965 7964 7962 ] final -130.27 input  175.53 | X-H torsion
[ 8008 7997 7996 7995 ] final   37.33 input   59.86 | X-H torsion
[ 10167 10162 10161 10158 ] final   54.05 input  -65.29 | X-H torsion
[ 10718 10713 10712 10709 ] final -170.31 input   66.30 | X-H torsion
[ 10763 10752 10751 10750 ] final -162.32 input  -60.55 | X-H torsion
[ 11005 11000 10999 10996 ] final  -24.47 input  -57.11 | X-H torsion

> <Gold.Protein.ActiveResidues>
 VAL166  LYS551  ARG553  GLY616  TRP617  ASP618  TYR619  PRO620  LYS621  CYS622 
 ASP623  PHE694  ASN695  SER759  ASP760  ASP761  ALA762  ILE779  LEU786  VAL792 
 PHE793  MET794  SER795  GLU796  ALA797  LYS798  CYS799  TRP800  GLU811  SER814 

> <Gold.Protein.RotatedAtoms>
  150.6872  134.3262  159.4807 H   0  0  0  0  0  0  0  0  0  0  0  0  # atno 6907 bound_to 6896
  152.1132  134.9256  160.0575 H   0  0  0  0  0  0  0  0  0  0  0  0  # atno 6908 bound_to 6896
  152.0491  133.3976  159.4406 H   0  0  0  0  0  0  0  0  0  0  0  0  # atno 6909 bound_to 6896
  144.9491  140.7324  143.4799 H   0  0  0  0  0  0  0  0  0  0  0  0  # atno 7974 bound_to 7965
  155.2019  140.3316  155.4342 H   0  0  0  0  0  0  0  0  0  0  0  0  # atno 8008 bound_to 7997
  156.2403  140.1892  156.7055 H   0  0  0  0  0  0  0  0  0  0  0  0  # atno 8009 bound_to 7997
  154.6135  140.0605  156.9510 H   0  0  0  0  0  0  0  0  0  0  0  0  # atno 8010 bound_to 7997
  140.2342  144.3653  150.6403 H   0  0  0  0  0  0  0  0  0  0  0  0  # atno 10167 bound_to 10162
  156.7242  130.9282  151.3100 H   0  0  0  0  0  0  0  0  0  0  0  0  # atno 10718 bound_to 10713
  154.7225  135.3029  154.9024 H   0  0  0  0  0  0  0  0  0  0  0  0  # atno 10763 bound_to 10752
  153.9892  135.6721  153.4757 H   0  0  0  0  0  0  0  0  0  0  0  0  # atno 10764 bound_to 10752
  153.0846  135.4991  154.8489 H   0  0  0  0  0  0  0  0  0  0  0  0  # atno 10765 bound_to 10752
  140.8848  133.7629  156.0347 H   0  0  0  0  0  0  0  0  0  0  0  0  # atno 11005 bound_to 11000
  145.2872  139.1897  143.4759 LP  0  0  0  0  0  0  0  0  0  0  0  0  # atno 17320 bound_to 7965
  146.3314  140.2843  142.8612 LP  0  0  0  0  0  0  0  0  0  0  0  0  # atno 17321 bound_to 7965
  140.6162  143.2172  151.6787 LP  0  0  0  0  0  0  0  0  0  0  0  0  # atno 17342 bound_to 10162
  139.5099  144.3560  152.0607 LP  0  0  0  0  0  0  0  0  0  0  0  0  # atno 17343 bound_to 10162
  157.6885  130.9210  150.0451 LP  0  0  0  0  0  0  0  0  0  0  0  0  # atno 17370 bound_to 10713
  156.1573  130.3643  149.9350 LP  0  0  0  0  0  0  0  0  0  0  0  0  # atno 17371 bound_to 10713
  140.8418  134.3057  157.5310 LP  0  0  0  0  0  0  0  0  0  0  0  0  # atno 17394 bound_to 11000
  139.8723  134.9420  156.3813 LP  0  0  0  0  0  0  0  0  0  0  0  0  # atno 17395 bound_to 11000

$$$$
