AV-unprocessed.smi:3338|AV-procd|sdf|12876|dock1
  -GOLD-   2272019273D 1   1.00000     0.00000
 Structure written by MMmdl.
 44 45  0  0  0  0  0  0  0  0  2 V2000
  147.8301  132.2050  153.7791 C   0  0  0  0  0  0  0  0  0  0  0  0
  147.4356  133.3109  152.7899 C   0  0  1  0  0  0  0  0  0  0  0  0
  146.4179  132.8024  151.7553 C   0  0  0  0  0  0  0  0  0  0  0  0
  146.0220  133.9340  150.7985 C   0  0  0  0  0  0  0  0  0  0  0  0
  145.5072  135.1566  151.5746 C   0  0  0  0  0  0  0  0  0  0  0  0
  146.5124  135.6277  152.5624 N   0  3  1  0  0  0  0  0  0  0  0  0
  146.0947  136.8880  153.2279 C   0  0  0  0  0  0  0  0  0  0  0  0
  146.1407  138.0969  152.2792 C   0  0  0  0  0  0  0  0  0  0  0  0
  147.2991  138.9305  152.5670 N   0  0  0  0  0  0  0  0  0  0  0  0
  147.6823  139.2896  153.8019 C   0  0  0  0  0  0  0  0  0  0  0  0
  147.0633  138.9567  154.8133 O   0  0  0  0  0  0  0  0  0  0  0  0
  148.9493  140.1578  153.8995 C   0  0  1  0  0  0  0  0  0  0  0  0
  148.7631  141.3996  154.7947 C   0  0  0  0  0  0  0  0  0  0  0  0
  150.0943  139.3578  154.3200 N   0  0  0  0  0  0  0  0  0  0  0  0
  150.1962  137.9824  154.3718 C   0  0  0  0  0  0  0  0  0  0  0  0
  151.4397  137.6803  154.8477 C   0  0  0  0  0  0  0  0  0  0  0  0
  152.0362  138.9528  155.0669 C   0  0  0  0  0  0  0  0  0  0  0  0
  151.2284  139.9534  154.7571 N   0  0  0  0  0  0  0  0  0  0  0  0
  146.8810  134.5503  153.5205 C   0  0  0  0  0  0  0  0  0  0  0  0
  146.9687  131.8588  154.3512 H   0  0  0  0  0  0  0  0  0  0  0  0
  148.5793  132.5597  154.4873 H   0  0  0  0  0  0  0  0  0  0  0  0
  148.2517  131.3444  153.2589 H   0  0  0  0  0  0  0  0  0  0  0  0
  148.3393  133.6108  152.2566 H   0  0  0  0  0  0  0  0  0  0  0  0
  146.8360  131.9683  151.1903 H   0  0  0  0  0  0  0  0  0  0  0  0
  145.5295  132.4219  152.2616 H   0  0  0  0  0  0  0  0  0  0  0  0
  146.8823  134.2196  150.1916 H   0  0  0  0  0  0  0  0  0  0  0  0
  145.2570  133.5838  150.1048 H   0  0  0  0  0  0  0  0  0  0  0  0
  145.2798  135.9555  150.8677 H   0  0  0  0  0  0  0  0  0  0  0  0
  144.5763  134.9121  152.0890 H   0  0  0  0  0  0  0  0  0  0  0  0
  145.0691  136.7815  153.5850 H   0  0  0  0  0  0  0  0  0  0  0  0
  146.7119  137.0620  154.1109 H   0  0  0  0  0  0  0  0  0  0  0  0
  146.1955  137.7786  151.2381 H   0  0  0  0  0  0  0  0  0  0  0  0
  145.2327  138.6922  152.3884 H   0  0  0  0  0  0  0  0  0  0  0  0
  147.8552  139.2424  151.7838 H   0  0  0  0  0  0  0  0  0  0  0  0
  149.1614  140.5171  152.8912 H   0  0  0  0  0  0  0  0  0  0  0  0
  147.9473  142.0276  154.4345 H   0  0  0  0  0  0  0  0  0  0  0  0
  149.6656  142.0113  154.8017 H   0  0  0  0  0  0  0  0  0  0  0  0
  148.5412  141.1288  155.8277 H   0  0  0  0  0  0  0  0  0  0  0  0
  149.3836  137.3390  154.0679 H   0  0  0  0  0  0  0  0  0  0  0  0
  151.8601  136.6995  155.0138 H   0  0  0  0  0  0  0  0  0  0  0  0
  153.0239  139.1775  155.4417 H   0  0  0  0  0  0  0  0  0  0  0  0
  146.0066  134.2787  154.1147 H   0  0  0  0  0  0  0  0  0  0  0  0
  147.6346  134.9111  154.2194 H   0  0  0  0  0  0  0  0  0  0  0  0
  147.3435  135.8475  152.0320 H   0  0  0  0  0  0  0  0  0  0  0  0
  1  2  1  0  0  0  0
  1 20  1  0  0  0  0
  1 21  1  0  0  0  0
  1 22  1  0  0  0  0
  2 19  1  0  0  0  0
  2  3  1  0  0  0  0
  2 23  1  0  0  0  0
  3  4  1  0  0  0  0
  3 24  1  0  0  0  0
  3 25  1  0  0  0  0
  4  5  1  0  0  0  0
  4 26  1  0  0  0  0
  4 27  1  0  0  0  0
  5  6  1  0  0  0  0
  5 28  1  0  0  0  0
  5 29  1  0  0  0  0
  6  7  1  0  0  0  0
  6 19  1  0  0  0  0
  6 44  1  0  0  0  0
  7  8  1  0  0  0  0
  7 30  1  0  0  0  0
  7 31  1  0  0  0  0
  8  9  1  0  0  0  0
  8 32  1  0  0  0  0
  8 33  1  0  0  0  0
  9 10  1  0  0  0  0
  9 34  1  0  0  0  0
 10 11  2  0  0  0  0
 10 12  1  0  0  0  0
 12 13  1  0  0  0  0
 12 14  1  0  0  0  0
 12 35  1  0  0  0  0
 13 36  1  0  0  0  0
 13 37  1  0  0  0  0
 13 38  1  0  0  0  0
 14 18  1  0  0  0  0
 14 15  1  0  0  0  0
 15 16  2  0  0  0  0
 15 39  1  0  0  0  0
 16 17  1  0  0  0  0
 16 40  1  0  0  0  0
 17 18  2  0  0  0  0
 17 41  1  0  0  0  0
 19 42  1  0  0  0  0
 19 43  1  0  0  0  0
M  CHG  1   6   1
M  END
> <s_m_source_file>
AV-unprocessed.smi

> <i_m_source_file_index>
3338

> <i_lp_mmshare_version>
43012

> <i_f3d_flags>
0

> <s_epik_input>
W0NIM11bQ0BASF0xW0NIMl1bQ0gyXVtDSDJdTihbQ0gyXTEpW0NIMl1bQ0gyXVtOSF1DKD1PKVtDQEhdKFtDSDNdKW4yW2NIXVtjSF1bY0hdbjI=

> <s_epik_cmdline>
J2VwaWtfcHl0aG9uJywgJy1waCcsICc3LjAnLCAnLXRuJywgJzgnLCAnLW1hJywgJzIwMCcsICctbWV0YWxfYmluZGluZycsICctaW1hZScsICc8aW5maWxlLm1hZT4nLCAnLW9tYWUnLCAnPG91dGZpbGUubWFlPic=

> <r_lp_tautomer_probability>
1

> <r_epik_Ionization_Penalty>
0.00225707

> <r_epik_Ionization_Penalty_Charging>
0.00223709

> <r_epik_Ionization_Penalty_Neutral>
1.99775e-05

> <r_epik_State_Penalty>
0.00153978

> <r_epik_Charging_Adjusted_Penalty>
0.00377687

> <i_epik_Tot_Q>
1

> <i_epik_Tot_abs_Q>
1

> <r_epik_Metal_State_Penalty>
-0

> <b_epik_Metal_Only>
0

> <s_lp_Force_Field>
OPLS_2005

> <r_lp_Energy>
20.7823

> <b_lp_Chiralities_Consistent>
1

> <s_lp_Variant>
AV-unprocessed.smi:3338-8

> <Gold.Version>
5.8.1

> <Gold.Id.Protein>
6NUR|6NUR_protein|mol2

> <Gold.PLP.Fitness>
48.3893

> <Gold.PLP.PLP>
-35.8486

> <Gold.PLP.part.hbond>
-3.4314

> <Gold.PLP.part.metal>
0.0000

> <Gold.PLP.part.buried>
-0.3253

> <Gold.PLP.part.nonpolar>
-32.7671

> <Gold.PLP.part.repulsive>
0.2131

> <Gold.PLP.ligand.clash>
0.0000

> <Gold.PLP.ligand.torsion>
1.3216

> <Gold.PLP.Chemscore.Hbond>
3.9920

> <Gold.PLP.Chemscore.CHOScore>
1.0000

> <Gold.PLP.Chemscore.Metal>
0.0000

> <Gold.Chemscore.Hbonds>
donor molecule, donor type, donor heavy atom, donor atom, acceptor molecule, acceptor atom, score
      L1  H     6    44       P1  7948  2.00
      L1  H     9    34       P1  7957  0.98
      P1  H  7989  7998       L1    18  1.00
      L1  C    15    39       P1  7948  0.97

> <Gold.PLP.Chemscore.Internal.Correction>
0.2080

> <Gold.Rescore>
     Score         DG    S(hbond)    S(metal)    S(lipo)     H(rot)  DE(clash)    DE(int)     intcor
     15.51     -19.04       2.64        0.00      79.01       1.76       0.99       2.54       ----

> <Gold.Chemscore.Fitness>
15.5124

> <Gold.Chemscore.DG>
-19.0372

> <Gold.Chemscore.ZeroCoef>
-5.4800

> <Gold.Chemscore.Hbond>
2.6380

> <Gold.Chemscore.Metal>
0.0000

> <Gold.Chemscore.Lipo>
79.0096

> <Gold.Chemscore.Internal_Hbond>
0.0000

> <Gold.Chemscore.DEClash>
0.9883

> <Gold.Chemscore.DEInternal>
2.5365

> <Gold.Chemscore.Rot>
1.7570

> <Gold.Chemscore.Internal.Correction>
   9.000000E+99

> <Gold.Chemscore.Hbonds>
donor molecule, donor type, donor heavy atom, donor atom, acceptor molecule, acceptor atom, score
      L1  H     6    44       P1  7948  0.98
      L1  H     9    34       P1  7957  0.89
      P1  H  7989  7998       L1    18  0.32

> <Gold.Chemscore.Hbond.Weighted>
-8.8110

> <Gold.Chemscore.Metal.Weighted>
-0.0000

> <Gold.Chemscore.Lipo.Weighted>
-9.2441

> <Gold.Chemscore.Internal_Hbond.Weighted>
0.0000

> <Gold.Chemscore.DEClash.Weighted>
0.9883

> <Gold.Chemscore.DEInternal.Weighted>
2.5365

> <Gold.Chemscore.Rot.Weighted>
4.4979

> <Gold.Chemscore.Internal.Correction.Weighted>
   9.000000E+99

> <Gold.Protein.RotatedTorsions>
[ 6907 6896 6895 6894 ] final  -53.47 input  -60.11 | X-H torsion
[ 7974 7965 7964 7962 ] final -137.46 input  175.53 | X-H torsion
[ 8008 7997 7996 7995 ] final -103.85 input   59.86 | X-H torsion
[ 10167 10162 10161 10158 ] final  -68.85 input  -65.29 | X-H torsion
[ 10718 10713 10712 10709 ] final  -59.68 input   66.30 | X-H torsion
[ 10763 10752 10751 10750 ] final  -93.23 input  -60.55 | X-H torsion
[ 11005 11000 10999 10996 ] final -151.53 input  -57.11 | X-H torsion

> <Gold.Protein.ActiveResidues>
 VAL166  LYS551  ARG553  GLY616  TRP617  ASP618  TYR619  PRO620  LYS621  CYS622 
 ASP623  PHE694  ASN695  SER759  ASP760  ASP761  ALA762  ILE779  LEU786  VAL792 
 PHE793  MET794  SER795  GLU796  ALA797  LYS798  CYS799  TRP800  GLU811  SER814 

> <Gold.Protein.RotatedAtoms>
  150.8424  134.7720  159.6942 H   0  0  0  0  0  0  0  0  0  0  0  0  # atno 6907 bound_to 6896
  152.4508  134.5394  159.9844 H   0  0  0  0  0  0  0  0  0  0  0  0  # atno 6908 bound_to 6896
  151.5531  133.3376  159.2992 H   0  0  0  0  0  0  0  0  0  0  0  0  # atno 6909 bound_to 6896
  144.8840  140.6548  143.5188 H   0  0  0  0  0  0  0  0  0  0  0  0  # atno 7974 bound_to 7965
  154.8769  140.0420  157.1758 H   0  0  0  0  0  0  0  0  0  0  0  0  # atno 8008 bound_to 7997
  154.8680  140.2954  155.5477 H   0  0  0  0  0  0  0  0  0  0  0  0  # atno 8009 bound_to 7997
  156.2999  140.2434  156.3665 H   0  0  0  0  0  0  0  0  0  0  0  0  # atno 8010 bound_to 7997
  140.5476  143.2312  151.6973 H   0  0  0  0  0  0  0  0  0  0  0  0  # atno 10167 bound_to 10162
  156.1044  130.4182  150.0748 H   0  0  0  0  0  0  0  0  0  0  0  0  # atno 10718 bound_to 10713
  154.6939  135.5202  153.8431 H   0  0  0  0  0  0  0  0  0  0  0  0  # atno 10763 bound_to 10752
  153.0652  135.6582  154.0379 H   0  0  0  0  0  0  0  0  0  0  0  0  # atno 10764 bound_to 10752
  154.0249  135.2990  155.3356 H   0  0  0  0  0  0  0  0  0  0  0  0  # atno 10765 bound_to 10752
  140.7286  134.3646  157.5171 H   0  0  0  0  0  0  0  0  0  0  0  0  # atno 11005 bound_to 11000
  145.3903  139.1618  143.4233 LP  0  0  0  0  0  0  0  0  0  0  0  0  # atno 17320 bound_to 7965
  146.3012  140.3991  142.8703 LP  0  0  0  0  0  0  0  0  0  0  0  0  # atno 17321 bound_to 7965
  139.5013  144.3870  152.0318 LP  0  0  0  0  0  0  0  0  0  0  0  0  # atno 17342 bound_to 10162
  140.2984  144.3674  150.6067 LP  0  0  0  0  0  0  0  0  0  0  0  0  # atno 17343 bound_to 10162
  156.8727  130.9530  151.3607 LP  0  0  0  0  0  0  0  0  0  0  0  0  # atno 17370 bound_to 10713
  157.6219  130.8662  149.9124 LP  0  0  0  0  0  0  0  0  0  0  0  0  # atno 17371 bound_to 10713
  139.8831  134.9003  156.2786 LP  0  0  0  0  0  0  0  0  0  0  0  0  # atno 17394 bound_to 11000
  140.9941  133.7191  156.0858 LP  0  0  0  0  0  0  0  0  0  0  0  0  # atno 17395 bound_to 11000

$$$$
