AV-unprocessed.smi:1277|AV-procd|sdf|5345|dock8
  -GOLD-   22720 4473D 1   1.00000     0.00000
 Structure written by MMmdl.
 43 44  0  0  0  0  0  0  0  0  1 V2000
  151.6054  145.5022  160.0354 C   0  0  0  0  0  0  0  0  0  0  0  0
  151.7244  144.0998  159.8737 O   0  0  0  0  0  0  0  0  0  0  0  0
  153.0337  143.7051  159.4978 C   0  0  0  0  0  0  0  0  0  0  0  0
  153.2312  142.2257  159.8412 C   0  0  0  0  0  0  0  0  0  0  0  0
  152.7270  141.4375  158.7674 O   0  0  0  0  0  0  0  0  0  0  0  0
  153.1023  140.1124  158.6877 C   0  0  0  0  0  0  0  0  0  0  0  0
  153.6792  139.5083  159.8220 C   0  0  0  0  0  0  0  0  0  0  0  0
  154.0619  138.1560  159.7489 C   0  0  0  0  0  0  0  0  0  0  0  0
  153.8519  137.4446  158.5506 C   0  0  0  0  0  0  0  0  0  0  0  0
  154.2638  136.0851  158.5059 N   0  0  0  0  0  0  0  0  0  0  0  0
  154.0458  135.1686  157.5450 C   0  0  0  0  0  0  0  0  0  0  0  0
  153.4283  135.3844  156.5014 O   0  0  0  0  0  0  0  0  0  0  0  0
  154.6310  133.7703  157.8254 C   0  0  2  0  0  0  0  0  0  0  0  0
  156.1645  133.8227  157.8940 C   0  0  0  0  0  0  0  0  0  0  0  0
  156.6204  133.5371  156.4708 C   0  0  0  0  0  0  0  0  0  0  0  0
  155.5488  132.5951  155.9182 C   0  0  0  0  0  0  0  0  0  0  0  0
  154.3546  132.8224  156.7364 N   0  0  0  0  0  0  0  0  0  0  0  0
  153.1650  132.2088  156.5508 C   0  0  0  0  0  0  0  0  0  0  0  0
  153.0223  131.2317  155.3823 C   0  0  0  0  0  0  0  0  0  0  0  0
  152.1955  132.4055  157.2835 O   0  0  0  0  0  0  0  0  0  0  0  0
  153.2783  138.1450  157.4611 C   0  0  0  0  0  0  0  0  0  0  0  0
  152.9094  139.4423  157.5248 N   0  0  0  0  0  0  0  0  0  0  0  0
  154.2329  133.3920  158.7694 H   0  0  0  0  0  0  0  0  0  0  0  0
  150.5851  145.7519  160.3268 H   0  0  0  0  0  0  0  0  0  0  0  0
  151.8285  146.0273  159.1059 H   0  0  0  0  0  0  0  0  0  0  0  0
  152.2760  145.8676  160.8140 H   0  0  0  0  0  0  0  0  0  0  0  0
  153.1569  143.8489  158.4234 H   0  0  0  0  0  0  0  0  0  0  0  0
  153.7863  144.3159  159.9991 H   0  0  0  0  0  0  0  0  0  0  0  0
  154.2871  142.0186  160.0247 H   0  0  0  0  0  0  0  0  0  0  0  0
  152.6793  141.9936  160.7534 H   0  0  0  0  0  0  0  0  0  0  0  0
  153.8239  140.0720  160.7317 H   0  0  0  0  0  0  0  0  0  0  0  0
  154.5072  137.6724  160.6061 H   0  0  0  0  0  0  0  0  0  0  0  0
  154.7256  135.7467  159.3375 H   0  0  0  0  0  0  0  0  0  0  0  0
  156.5570  134.7657  158.2777 H   0  0  0  0  0  0  0  0  0  0  0  0
  156.5230  133.0314  158.5539 H   0  0  0  0  0  0  0  0  0  0  0  0
  156.6241  134.4646  155.8968 H   0  0  0  0  0  0  0  0  0  0  0  0
  157.6234  133.1123  156.4224 H   0  0  0  0  0  0  0  0  0  0  0  0
  155.3632  132.7893  154.8610 H   0  0  0  0  0  0  0  0  0  0  0  0
  155.8679  131.5573  156.0257 H   0  0  0  0  0  0  0  0  0  0  0  0
  153.7276  130.4062  155.4800 H   0  0  0  0  0  0  0  0  0  0  0  0
  153.2018  131.7372  154.4331 H   0  0  0  0  0  0  0  0  0  0  0  0
  152.0163  130.8118  155.3526 H   0  0  0  0  0  0  0  0  0  0  0  0
  153.1214  137.6811  156.5000 H   0  0  0  0  0  0  0  0  0  0  0  0
  1  2  1  0  0  0  0
  1 24  1  0  0  0  0
  1 25  1  0  0  0  0
  1 26  1  0  0  0  0
  2  3  1  0  0  0  0
  3  4  1  0  0  0  0
  3 27  1  0  0  0  0
  3 28  1  0  0  0  0
  4  5  1  0  0  0  0
  4 29  1  0  0  0  0
  4 30  1  0  0  0  0
  5  6  1  0  0  0  0
  6 22  1  0  0  0  0
  6  7  2  0  0  0  0
  7  8  1  0  0  0  0
  7 31  1  0  0  0  0
  8  9  2  0  0  0  0
  8 32  1  0  0  0  0
  9 10  1  0  0  0  0
  9 21  1  0  0  0  0
 10 11  1  0  0  0  0
 10 33  1  0  0  0  0
 11 12  2  0  0  0  0
 11 13  1  0  0  0  0
 13 23  1  0  0  0  0
 13 17  1  0  0  0  0
 13 14  1  0  0  0  0
 14 15  1  0  0  0  0
 14 34  1  0  0  0  0
 14 35  1  0  0  0  0
 15 16  1  0  0  0  0
 15 36  1  0  0  0  0
 15 37  1  0  0  0  0
 16 17  1  0  0  0  0
 16 38  1  0  0  0  0
 16 39  1  0  0  0  0
 17 18  1  0  0  0  0
 18 19  1  0  0  0  0
 18 20  2  0  0  0  0
 19 40  1  0  0  0  0
 19 41  1  0  0  0  0
 19 42  1  0  0  0  0
 21 22  2  0  0  0  0
 21 43  1  0  0  0  0
M  END
> <s_m_source_file>
AV-unprocessed.smi

> <i_m_source_file_index>
1277

> <i_lp_mmshare_version>
43012

> <i_f3d_flags>
0

> <s_epik_input>
W0NIM11PW0NIMl1bQ0gyXU9jMVtjSF1bY0hdYyhbY0hdbjEpW05IXUMoPU8pW0NAQEhdMltDSDJdW0NIMl1bQ0gyXU4yQyg9TylbQ0gzXQ==

> <s_epik_cmdline>
J2VwaWtfcHl0aG9uJywgJy1waCcsICc3LjAnLCAnLXRuJywgJzgnLCAnLW1hJywgJzIwMCcsICctbWV0YWxfYmluZGluZycsICctaW1hZScsICc8aW5maWxlLm1hZT4nLCAnLW9tYWUnLCAnPG91dGZpbGUubWFlPic=

> <r_lp_tautomer_probability>
1

> <r_epik_Ionization_Penalty>
1.62854e-05

> <r_epik_Ionization_Penalty_Charging>
0

> <r_epik_Ionization_Penalty_Neutral>
1.62854e-05

> <r_epik_State_Penalty>
-0

> <r_epik_Charging_Adjusted_Penalty>
0

> <i_epik_Tot_Q>
0

> <i_epik_Tot_abs_Q>
0

> <r_epik_Metal_State_Penalty>
-0

> <b_epik_Metal_Only>
0

> <s_lp_Force_Field>
OPLS_2005

> <r_lp_Energy>
18.7182

> <b_lp_Chiralities_Consistent>
1

> <s_lp_Variant>
AV-unprocessed.smi:1277-1

> <Gold.Version>
5.8.1

> <Gold.Id.Protein>
6NUR|6NUR_protein|mol2

> <Gold.PLP.Fitness>
36.4865

> <Gold.PLP.PLP>
-28.4997

> <Gold.PLP.part.hbond>
-3.0000

> <Gold.PLP.part.metal>
0.0000

> <Gold.PLP.part.buried>
-4.6861

> <Gold.PLP.part.nonpolar>
-20.6814

> <Gold.PLP.part.repulsive>
0.1151

> <Gold.PLP.ligand.clash>
0.0000

> <Gold.PLP.ligand.torsion>
0.5476

> <Gold.PLP.Chemscore.Hbond>
3.0000

> <Gold.PLP.Chemscore.CHOScore>
0.0000

> <Gold.PLP.Chemscore.Metal>
0.0000

> <Gold.Chemscore.Hbonds>
donor molecule, donor type, donor heavy atom, donor atom, acceptor molecule, acceptor atom, score
      P1  H  6896  6909       L1    20  0.05
      P1  H  7997  8008       L1    22  0.56
      P1  H 10752 10763       L1    12  0.27

> <Gold.PLP.Chemscore.Internal.Correction>
0.0820

> <Gold.Rescore>
     Score         DG    S(hbond)    S(metal)    S(lipo)     H(rot)  DE(clash)    DE(int)     intcor
     15.09     -16.91       2.47        0.00      68.46       1.89       0.04       1.79       ----

> <Gold.Chemscore.Fitness>
15.0903

> <Gold.Chemscore.DG>
-16.9123

> <Gold.Chemscore.ZeroCoef>
-5.4800

> <Gold.Chemscore.Hbond>
2.4721

> <Gold.Chemscore.Metal>
0.0000

> <Gold.Chemscore.Lipo>
68.4599

> <Gold.Chemscore.Internal_Hbond>
0.0000

> <Gold.Chemscore.DEClash>
0.0369

> <Gold.Chemscore.DEInternal>
1.7852

> <Gold.Chemscore.Rot>
1.8884

> <Gold.Chemscore.Internal.Correction>
   9.000000E+99

> <Gold.Chemscore.Hbonds>
donor molecule, donor type, donor heavy atom, donor atom, acceptor molecule, acceptor atom, score
      P1  H  6896  6909       L1    20  0.07
      P1  H  7997  8008       L1    22  0.01
      P1  H 10752 10763       L1    12  0.26

> <Gold.Chemscore.Hbond.Weighted>
-8.2567

> <Gold.Chemscore.Metal.Weighted>
-0.0000

> <Gold.Chemscore.Lipo.Weighted>
-8.0098

> <Gold.Chemscore.Internal_Hbond.Weighted>
0.0000

> <Gold.Chemscore.DEClash.Weighted>
0.0369

> <Gold.Chemscore.DEInternal.Weighted>
1.7852

> <Gold.Chemscore.Rot.Weighted>
4.8342

> <Gold.Chemscore.Internal.Correction.Weighted>
   9.000000E+99

> <Gold.Protein.RotatedTorsions>
[ 6907 6896 6895 6894 ] final  -95.95 input  -60.11 | X-H torsion
[ 7974 7965 7964 7962 ] final   78.64 input  175.53 | X-H torsion
[ 8008 7997 7996 7995 ] final  -65.58 input   59.86 | X-H torsion
[ 10167 10162 10161 10158 ] final -122.92 input  -65.29 | X-H torsion
[ 10718 10713 10712 10709 ] final   14.44 input   66.30 | X-H torsion
[ 10763 10752 10751 10750 ] final  147.67 input  -60.55 | X-H torsion
[ 11005 11000 10999 10996 ] final  129.09 input  -57.11 | X-H torsion

> <Gold.Protein.ActiveResidues>
 VAL166  LYS551  ARG553  GLY616  TRP617  ASP618  TYR619  PRO620  LYS621  CYS622 
 ASP623  PHE694  ASN695  SER759  ASP760  ASP761  ALA762  ILE779  LEU786  VAL792 
 PHE793  MET794  SER795  GLU796  ALA797  LYS798  CYS799  TRP800  GLU811  SER814 

> <Gold.Protein.RotatedAtoms>
  150.6976  134.1578  159.4164 H   0  0  0  0  0  0  0  0  0  0  0  0  # atno 6907 bound_to 6896
  151.9559  135.0144  160.0554 H   0  0  0  0  0  0  0  0  0  0  0  0  # atno 6908 bound_to 6896
  152.1969  133.4778  159.5074 H   0  0  0  0  0  0  0  0  0  0  0  0  # atno 6909 bound_to 6896
  145.6745  139.2506  143.1849 H   0  0  0  0  0  0  0  0  0  0  0  0  # atno 7974 bound_to 7965
  154.4681  140.0930  156.7072 H   0  0  0  0  0  0  0  0  0  0  0  0  # atno 8008 bound_to 7997
  155.4802  140.3467  155.4320 H   0  0  0  0  0  0  0  0  0  0  0  0  # atno 8009 bound_to 7997
  156.0991  140.1417  156.9480 H   0  0  0  0  0  0  0  0  0  0  0  0  # atno 8010 bound_to 7997
  140.0091  143.5460  152.2271 H   0  0  0  0  0  0  0  0  0  0  0  0  # atno 10167 bound_to 10162
  157.0391  130.6224  149.5748 H   0  0  0  0  0  0  0  0  0  0  0  0  # atno 10718 bound_to 10713
  154.0422  135.2888  155.3353 H   0  0  0  0  0  0  0  0  0  0  0  0  # atno 10763 bound_to 10752
  154.6922  135.5222  153.8411 H   0  0  0  0  0  0  0  0  0  0  0  0  # atno 10764 bound_to 10752
  153.0595  135.6608  154.0625 H   0  0  0  0  0  0  0  0  0  0  0  0  # atno 10765 bound_to 10752
  139.9596  134.9605  156.9097 H   0  0  0  0  0  0  0  0  0  0  0  0  # atno 11005 bound_to 11000
  146.1017  140.7535  142.9546 LP  0  0  0  0  0  0  0  0  0  0  0  0  # atno 17320 bound_to 7965
  144.7046  140.3798  143.7128 LP  0  0  0  0  0  0  0  0  0  0  0  0  # atno 17321 bound_to 7965
  139.6218  144.7630  151.2725 LP  0  0  0  0  0  0  0  0  0  0  0  0  # atno 17342 bound_to 10162
  140.7388  143.6636  150.8143 LP  0  0  0  0  0  0  0  0  0  0  0  0  # atno 17343 bound_to 10162
  156.0044  130.5128  150.7777 LP  0  0  0  0  0  0  0  0  0  0  0  0  # atno 17370 bound_to 10713
  157.5118  131.0926  151.0188 LP  0  0  0  0  0  0  0  0  0  0  0  0  # atno 17371 bound_to 10713
  140.5530  134.0609  155.7375 LP  0  0  0  0  0  0  0  0  0  0  0  0  # atno 17394 bound_to 11000
  141.1272  133.9363  157.2611 LP  0  0  0  0  0  0  0  0  0  0  0  0  # atno 17395 bound_to 11000

$$$$
