AV-unprocessed.smi:83|AV-procd|sdf|800|dock7
  -GOLD-   2262017183D 1   1.00000     0.00000
 Structure written by MMmdl.
 56 59  0  0  0  0  0  0  0  0  1 V2000
  150.3807  138.1337  154.6475 C   0  0  0  0  0  0  0  0  0  0  0  0
  150.1146  139.6402  154.6456 C   0  0  0  0  0  0  0  0  0  0  0  0
  150.9697  140.3969  155.1046 O   0  0  0  0  0  0  0  0  0  0  0  0
  148.9474  140.0881  154.1399 N   0  0  0  0  0  0  0  0  0  0  0  0
  147.9138  139.2176  153.5864 C   0  0  0  0  0  0  0  0  0  0  0  0
  146.8199  140.1584  153.0721 C   0  0  0  0  0  0  0  0  0  0  0  0
  146.9803  141.4254  153.9116 C   0  0  1  0  0  0  0  0  0  0  0  0
  146.1691  141.3013  155.2248 C   0  0  0  0  0  0  0  0  0  0  0  0
  146.3318  142.4320  156.1404 N   0  0  0  0  0  0  0  0  0  0  0  0
  147.5166  142.4266  156.9969 C   0  0  0  0  0  0  0  0  0  0  0  0
  145.2760  143.2306  156.4823 C   0  0  0  0  0  0  0  0  0  0  0  0
  144.9902  143.3811  157.8050 N   0  0  0  0  0  0  0  0  0  0  0  0
  143.9484  144.1115  158.2086 C   0  0  0  0  0  0  0  0  0  0  0  0
  143.0614  144.7744  157.4686 N   0  0  0  0  0  0  0  0  0  0  0  0
  143.3387  144.6492  156.1409 C   0  0  0  0  0  0  0  0  0  0  0  0
  144.4177  143.9153  155.5631 C   0  0  0  0  0  0  0  0  0  0  0  0
  144.3641  144.0505  154.1785 N   0  0  0  0  0  0  0  0  0  0  0  0
  143.3154  144.7909  153.9534 C   0  0  0  0  0  0  0  0  0  0  0  0
  142.6392  145.1939  155.0786 N   0  0  0  0  0  0  0  0  0  0  0  0
  141.4434  146.0167  155.1204 C   0  0  0  0  0  0  0  0  0  0  0  0
  140.2088  145.2881  154.5559 C   0  0  2  0  0  0  0  0  0  0  0  0
  140.2329  145.2880  153.1411 O   0  0  0  0  0  0  0  0  0  0  0  0
  138.8807  145.8717  155.0804 C   0  0  2  0  0  0  0  0  0  0  0  0
  137.6151  145.5027  154.3011 C   0  0  0  0  0  0  0  0  0  0  0  0
  136.6925  146.6382  154.6833 C   0  0  0  0  0  0  0  0  0  0  0  0
  137.6551  147.8226  154.7165 C   0  0  0  0  0  0  0  0  0  0  0  0
  138.9081  147.2959  155.1445 O   0  0  0  0  0  0  0  0  0  0  0  0
  148.5044  141.4797  154.1035 C   0  0  0  0  0  0  0  0  0  0  0  0
  149.5665  137.5966  155.1343 H   0  0  0  0  0  0  0  0  0  0  0  0
  151.3019  137.9066  155.1849 H   0  0  0  0  0  0  0  0  0  0  0  0
  150.4867  137.7600  153.6293 H   0  0  0  0  0  0  0  0  0  0  0  0
  148.3017  138.5810  152.7899 H   0  0  0  0  0  0  0  0  0  0  0  0
  147.5263  138.5743  154.3780 H   0  0  0  0  0  0  0  0  0  0  0  0
  147.0090  140.3930  152.0237 H   0  0  0  0  0  0  0  0  0  0  0  0
  145.8233  139.7196  153.1332 H   0  0  0  0  0  0  0  0  0  0  0  0
  146.6311  142.2979  153.3582 H   0  0  0  0  0  0  0  0  0  0  0  0
  145.1110  141.2583  154.9648 H   0  0  0  0  0  0  0  0  0  0  0  0
  146.3536  140.3466  155.7054 H   0  0  0  0  0  0  0  0  0  0  0  0
  147.9010  143.4378  157.1350 H   0  0  0  0  0  0  0  0  0  0  0  0
  148.3152  141.8288  156.5572 H   0  0  0  0  0  0  0  0  0  0  0  0
  147.2836  142.0049  157.9752 H   0  0  0  0  0  0  0  0  0  0  0  0
  143.8018  144.1678  159.2773 H   0  0  0  0  0  0  0  0  0  0  0  0
  143.0049  145.0634  152.9552 H   0  0  0  0  0  0  0  0  0  0  0  0
  141.2674  146.3060  156.1571 H   0  0  0  0  0  0  0  0  0  0  0  0
  141.6333  146.9385  154.5695 H   0  0  0  0  0  0  0  0  0  0  0  0
  140.2558  144.2428  154.8640 H   0  0  0  0  0  0  0  0  0  0  0  0
  140.0132  144.4205  152.8375 H   0  0  0  0  0  0  0  0  0  0  0  0
  138.7445  145.5347  156.1095 H   0  0  0  0  0  0  0  0  0  0  0  0
  137.7846  145.5196  153.2242 H   0  0  0  0  0  0  0  0  0  0  0  0
  137.2218  144.5217  154.5687 H   0  0  0  0  0  0  0  0  0  0  0  0
  135.8685  146.7778  153.9831 H   0  0  0  0  0  0  0  0  0  0  0  0
  136.2745  146.4646  155.6757 H   0  0  0  0  0  0  0  0  0  0  0  0
  137.7793  148.2379  153.7158 H   0  0  0  0  0  0  0  0  0  0  0  0
  137.3121  148.6214  155.3743 H   0  0  0  0  0  0  0  0  0  0  0  0
  148.8045  142.0519  154.9777 H   0  0  0  0  0  0  0  0  0  0  0  0
  148.9694  141.9575  153.2401 H   0  0  0  0  0  0  0  0  0  0  0  0
  1  2  1  0  0  0  0
  1 29  1  0  0  0  0
  1 30  1  0  0  0  0
  1 31  1  0  0  0  0
  2  3  2  0  0  0  0
  2  4  1  0  0  0  0
  4 28  1  0  0  0  0
  4  5  1  0  0  0  0
  5  6  1  0  0  0  0
  5 32  1  0  0  0  0
  5 33  1  0  0  0  0
  6  7  1  0  0  0  0
  6 34  1  0  0  0  0
  6 35  1  0  0  0  0
  7  8  1  0  0  0  0
  7 28  1  0  0  0  0
  7 36  1  0  0  0  0
  8  9  1  0  0  0  0
  8 37  1  0  0  0  0
  8 38  1  0  0  0  0
  9 10  1  0  0  0  0
  9 11  1  0  0  0  0
 10 39  1  0  0  0  0
 10 40  1  0  0  0  0
 10 41  1  0  0  0  0
 11 16  1  0  0  0  0
 11 12  2  0  0  0  0
 12 13  1  0  0  0  0
 13 14  2  0  0  0  0
 13 42  1  0  0  0  0
 14 15  1  0  0  0  0
 15 19  1  0  0  0  0
 15 16  2  0  0  0  0
 16 17  1  0  0  0  0
 17 18  2  0  0  0  0
 18 19  1  0  0  0  0
 18 43  1  0  0  0  0
 19 20  1  0  0  0  0
 20 21  1  0  0  0  0
 20 44  1  0  0  0  0
 20 45  1  0  0  0  0
 21 22  1  0  0  0  0
 21 23  1  0  0  0  0
 21 46  1  0  0  0  0
 22 47  1  0  0  0  0
 23 27  1  0  0  0  0
 23 24  1  0  0  0  0
 23 48  1  0  0  0  0
 24 25  1  0  0  0  0
 24 49  1  0  0  0  0
 24 50  1  0  0  0  0
 25 26  1  0  0  0  0
 25 51  1  0  0  0  0
 25 52  1  0  0  0  0
 26 27  1  0  0  0  0
 26 53  1  0  0  0  0
 26 54  1  0  0  0  0
 28 55  1  0  0  0  0
 28 56  1  0  0  0  0
M  END
> <s_m_source_file>
AV-unprocessed.smi

> <i_m_source_file_index>
83

> <i_lp_mmshare_version>
43012

> <i_f3d_flags>
0

> <s_epik_input>
W0NIM11DKD1PKU4xW0NIMl1bQ0gyXVtDQEhdKFtDSDJdMSlbQ0gyXU4oW0NIM10pYyhuW2NIXW4yKWMoYzIzKW5bY0hdbjNbQ0gyXVtDQEhdKFtPSF0pW0NAQEhdNFtDSDJdW0NIMl1bQ0gyXU80

> <s_epik_cmdline>
J2VwaWtfcHl0aG9uJywgJy1waCcsICc3LjAnLCAnLXRuJywgJzgnLCAnLW1hJywgJzIwMCcsICctbWV0YWxfYmluZGluZycsICctaW1hZScsICc8aW5maWxlLm1hZT4nLCAnLW9tYWUnLCAnPG91dGZpbGUubWFlPic=

> <r_lp_tautomer_probability>
1

> <r_epik_Ionization_Penalty>
0.00109752

> <r_epik_Ionization_Penalty_Charging>
0

> <r_epik_Ionization_Penalty_Neutral>
0.00109752

> <r_epik_State_Penalty>
0.000634803

> <r_epik_Charging_Adjusted_Penalty>
0.000634803

> <i_epik_Tot_Q>
0

> <i_epik_Tot_abs_Q>
0

> <r_epik_Metal_State_Penalty>
-0

> <b_epik_Metal_Only>
0

> <s_lp_Force_Field>
OPLS_2005

> <r_lp_Energy>
57.114

> <b_lp_Chiralities_Consistent>
1

> <s_lp_Variant>
AV-unprocessed.smi:83-1

> <Gold.Version>
5.8.1

> <Gold.Id.Protein>
6NUR|6NUR_protein|mol2

> <Gold.PLP.Fitness>
46.4027

> <Gold.PLP.PLP>
-43.6212

> <Gold.PLP.part.hbond>
-3.0000

> <Gold.PLP.part.metal>
0.0000

> <Gold.PLP.part.buried>
-0.4993

> <Gold.PLP.part.nonpolar>
-41.0921

> <Gold.PLP.part.repulsive>
0.4142

> <Gold.PLP.ligand.clash>
0.0000

> <Gold.PLP.ligand.torsion>
1.5871

> <Gold.PLP.Chemscore.Hbond>
1.8500

> <Gold.PLP.Chemscore.CHOScore>
0.0000

> <Gold.PLP.Chemscore.Metal>
0.0000

> <Gold.Chemscore.Hbonds>
donor molecule, donor type, donor heavy atom, donor atom, acceptor molecule, acceptor atom, score
      L1  H    22    47       P1 10162  0.62
      P1  H  7989  7998       L1     3  0.75
      L1  C    18    43       P1 10174  0.18

> <Gold.PLP.Chemscore.Internal.Correction>
0.4057

> <Gold.Rescore>
     Score         DG    S(hbond)    S(metal)    S(lipo)     H(rot)  DE(clash)    DE(int)     intcor
      8.79     -11.52       0.78        0.00      86.57       2.62       0.71       2.02       ----

> <Gold.Chemscore.Fitness>
8.7898

> <Gold.Chemscore.DG>
-11.5190

> <Gold.Chemscore.ZeroCoef>
-5.4800

> <Gold.Chemscore.Hbond>
0.7798

> <Gold.Chemscore.Metal>
0.0000

> <Gold.Chemscore.Lipo>
86.5747

> <Gold.Chemscore.Internal_Hbond>
0.0000

> <Gold.Chemscore.DEClash>
0.7070

> <Gold.Chemscore.DEInternal>
2.0222

> <Gold.Chemscore.Rot>
2.6152

> <Gold.Chemscore.Internal.Correction>
   9.000000E+99

> <Gold.Chemscore.Hbonds>
donor molecule, donor type, donor heavy atom, donor atom, acceptor molecule, acceptor atom, score
      L1  H    22    47       P1 10162  0.45
      P1  H  7989  7998       L1     3  0.09

> <Gold.Chemscore.Hbond.Weighted>
-2.6046

> <Gold.Chemscore.Metal.Weighted>
-0.0000

> <Gold.Chemscore.Lipo.Weighted>
-10.1292

> <Gold.Chemscore.Internal_Hbond.Weighted>
0.0000

> <Gold.Chemscore.DEClash.Weighted>
0.7070

> <Gold.Chemscore.DEInternal.Weighted>
2.0222

> <Gold.Chemscore.Rot.Weighted>
6.6949

> <Gold.Chemscore.Internal.Correction.Weighted>
   9.000000E+99

> <Gold.Protein.RotatedTorsions>
[ 6907 6896 6895 6894 ] final   18.95 input  -60.11 | X-H torsion
[ 7974 7965 7964 7962 ] final  -27.72 input  175.53 | X-H torsion
[ 8008 7997 7996 7995 ] final  119.69 input   59.86 | X-H torsion
[ 10167 10162 10161 10158 ] final  -21.38 input  -65.29 | X-H torsion
[ 10718 10713 10712 10709 ] final  -98.62 input   66.30 | X-H torsion
[ 10763 10752 10751 10750 ] final   11.28 input  -60.55 | X-H torsion
[ 11005 11000 10999 10996 ] final   66.53 input  -57.11 | X-H torsion

> <Gold.Protein.ActiveResidues>
 VAL166  LYS551  ARG553  GLY616  TRP617  ASP618  TYR619  PRO620  LYS621  CYS622 
 ASP623  PHE694  ASN695  SER759  ASP760  ASP761  ALA762  ILE779  LEU786  VAL792 
 PHE793  MET794  SER795  GLU796  ALA797  LYS798  CYS799  TRP800  GLU811  SER814 

> <Gold.Protein.RotatedAtoms>
  151.8733  135.0481  160.0481 H   0  0  0  0  0  0  0  0  0  0  0  0  # atno 6907 bound_to 6896
  152.2571  133.5260  159.5368 H   0  0  0  0  0  0  0  0  0  0  0  0  # atno 6908 bound_to 6896
  150.7103  134.0797  159.3936 H   0  0  0  0  0  0  0  0  0  0  0  0  # atno 6909 bound_to 6896
  146.1338  140.5189  142.8682 H   0  0  0  0  0  0  0  0  0  0  0  0  # atno 7974 bound_to 7965
  156.2608  140.2847  156.1031 H   0  0  0  0  0  0  0  0  0  0  0  0  # atno 8008 bound_to 7997
  155.1338  140.0394  157.2799 H   0  0  0  0  0  0  0  0  0  0  0  0  # atno 8009 bound_to 7997
  154.6580  140.2560  155.7146 H   0  0  0  0  0  0  0  0  0  0  0  0  # atno 8010 bound_to 7997
  140.7281  143.4633  151.0348 H   0  0  0  0  0  0  0  0  0  0  0  0  # atno 10167 bound_to 10162
  156.0112  130.5246  150.6550 H   0  0  0  0  0  0  0  0  0  0  0  0  # atno 10718 bound_to 10713
  153.1943  135.6847  153.8312 H   0  0  0  0  0  0  0  0  0  0  0  0  # atno 10763 bound_to 10752
  153.7600  135.3211  155.3336 H   0  0  0  0  0  0  0  0  0  0  0  0  # atno 10764 bound_to 10752
  154.8135  135.4701  154.0680 H   0  0  0  0  0  0  0  0  0  0  0  0  # atno 10765 bound_to 10752
  139.9826  134.6719  156.0234 H   0  0  0  0  0  0  0  0  0  0  0  0  # atno 11005 bound_to 11000
  144.7718  140.5654  143.6665 LP  0  0  0  0  0  0  0  0  0  0  0  0  # atno 17320 bound_to 7965
  145.5202  139.1477  143.3557 LP  0  0  0  0  0  0  0  0  0  0  0  0  # atno 17321 bound_to 7965
  139.8320  143.7679  152.3180 LP  0  0  0  0  0  0  0  0  0  0  0  0  # atno 17342 bound_to 10162
  139.7797  144.7448  151.0105 LP  0  0  0  0  0  0  0  0  0  0  0  0  # atno 17343 bound_to 10162
  157.4303  131.0848  151.1045 LP  0  0  0  0  0  0  0  0  0  0  0  0  # atno 17370 bound_to 10713
  157.1619  130.6229  149.5613 LP  0  0  0  0  0  0  0  0  0  0  0  0  # atno 17371 bound_to 10713
  141.1496  133.6550  156.3973 LP  0  0  0  0  0  0  0  0  0  0  0  0  # atno 17394 bound_to 11000
  140.5065  134.6436  157.5268 LP  0  0  0  0  0  0  0  0  0  0  0  0  # atno 17395 bound_to 11000

$$$$
