AV-unprocessed.smi:748|AV-procd|sdf|3583|dock10
  -GOLD-   22720 0583D 1   1.00000     0.00000
 Structure written by MMmdl.
 50 51  0  0  0  0  0  0  0  0  1 V2000
  144.4260  135.4864  150.1673 C   0  0  0  0  0  0  0  0  0  0  0  0
  145.7500  135.1271  150.8596 C   0  0  0  0  0  0  0  0  0  0  0  0
  145.7737  133.6612  151.3126 C   0  0  0  0  0  0  0  0  0  0  0  0
  145.9726  135.9956  152.0122 N   0  0  0  0  0  0  0  0  0  0  0  0
  146.2993  137.2964  151.9568 C   0  0  0  0  0  0  0  0  0  0  0  0
  146.4587  137.9088  150.9002 O   0  0  0  0  0  0  0  0  0  0  0  0
  146.4702  138.0031  153.3050 C   0  0  0  0  0  0  0  0  0  0  0  0
  147.2040  139.3543  153.1950 C   0  0  0  0  0  0  0  0  0  0  0  0
  148.3990  139.3805  154.0300 N   0  0  0  0  0  0  0  0  0  0  0  0
  149.1448  140.4702  154.2742 C   0  0  0  0  0  0  0  0  0  0  0  0
  148.8840  141.5868  153.8247 O   0  0  0  0  0  0  0  0  0  0  0  0
  150.3043  140.2666  155.2067 C   0  0  0  0  0  0  0  0  0  0  0  0
  151.2523  139.2415  154.9933 C   0  0  0  0  0  0  0  0  0  0  0  0
  152.3200  139.1167  155.9007 C   0  0  0  0  0  0  0  0  0  0  0  0
  152.4909  139.9331  156.9605 N   0  0  0  0  0  0  0  0  0  0  0  0
  151.5998  140.9336  157.1675 C   0  0  0  0  0  0  0  0  0  0  0  0
  151.7966  141.7887  158.2731 N   0  0  0  0  0  0  0  0  0  0  0  0
  151.7960  143.2175  157.9714 C   0  0  0  0  0  0  0  0  0  0  0  0
  151.7085  144.0377  159.2695 C   0  0  0  0  0  0  0  0  0  0  0  0
  152.7565  143.6546  160.1544 O   0  0  0  0  0  0  0  0  0  0  0  0
  152.6700  142.2817  160.5262 C   0  0  2  0  0  0  0  0  0  0  0  0
  153.7741  141.9870  161.5467 C   0  0  0  0  0  0  0  0  0  0  0  0
  152.8008  141.4082  159.2641 C   0  0  0  0  0  0  0  0  0  0  0  0
  150.4918  141.1285  156.3094 C   0  0  0  0  0  0  0  0  0  0  0  0
  144.2537  134.8498  149.2991 H   0  0  0  0  0  0  0  0  0  0  0  0
  144.4283  136.5200  149.8196 H   0  0  0  0  0  0  0  0  0  0  0  0
  143.5785  135.3645  150.8427 H   0  0  0  0  0  0  0  0  0  0  0  0
  146.5637  135.2654  150.1454 H   0  0  0  0  0  0  0  0  0  0  0  0
  145.6360  132.9880  150.4661 H   0  0  0  0  0  0  0  0  0  0  0  0
  144.9826  133.4541  152.0340 H   0  0  0  0  0  0  0  0  0  0  0  0
  146.7263  133.4097  151.7801 H   0  0  0  0  0  0  0  0  0  0  0  0
  145.8636  135.5749  152.9237 H   0  0  0  0  0  0  0  0  0  0  0  0
  145.4825  138.1554  153.7425 H   0  0  0  0  0  0  0  0  0  0  0  0
  147.0122  137.3382  153.9785 H   0  0  0  0  0  0  0  0  0  0  0  0
  147.5135  139.5320  152.1645 H   0  0  0  0  0  0  0  0  0  0  0  0
  146.5418  140.1787  153.4670 H   0  0  0  0  0  0  0  0  0  0  0  0
  148.6774  138.5106  154.4604 H   0  0  0  0  0  0  0  0  0  0  0  0
  151.1754  138.5615  154.1573 H   0  0  0  0  0  0  0  0  0  0  0  0
  153.0602  138.3411  155.7700 H   0  0  0  0  0  0  0  0  0  0  0  0
  152.7143  143.4637  157.4367 H   0  0  0  0  0  0  0  0  0  0  0  0
  150.9676  143.4938  157.3206 H   0  0  0  0  0  0  0  0  0  0  0  0
  151.8026  145.1007  159.0478 H   0  0  0  0  0  0  0  0  0  0  0  0
  150.7403  143.8983  159.7528 H   0  0  0  0  0  0  0  0  0  0  0  0
  151.7033  142.1002  160.9998 H   0  0  0  0  0  0  0  0  0  0  0  0
  153.7383  140.9473  161.8730 H   0  0  0  0  0  0  0  0  0  0  0  0
  153.6659  142.6163  162.4303 H   0  0  0  0  0  0  0  0  0  0  0  0
  154.7621  142.1724  161.1244 H   0  0  0  0  0  0  0  0  0  0  0  0
  152.6807  140.3585  159.5358 H   0  0  0  0  0  0  0  0  0  0  0  0
  153.7950  141.5216  158.8294 H   0  0  0  0  0  0  0  0  0  0  0  0
  149.7805  141.9189  156.5006 H   0  0  0  0  0  0  0  0  0  0  0  0
  1  2  1  0  0  0  0
  1 25  1  0  0  0  0
  1 26  1  0  0  0  0
  1 27  1  0  0  0  0
  2  3  1  0  0  0  0
  2  4  1  0  0  0  0
  2 28  1  0  0  0  0
  3 29  1  0  0  0  0
  3 30  1  0  0  0  0
  3 31  1  0  0  0  0
  4  5  1  0  0  0  0
  4 32  1  0  0  0  0
  5  6  2  0  0  0  0
  5  7  1  0  0  0  0
  7  8  1  0  0  0  0
  7 33  1  0  0  0  0
  7 34  1  0  0  0  0
  8  9  1  0  0  0  0
  8 35  1  0  0  0  0
  8 36  1  0  0  0  0
  9 10  1  0  0  0  0
  9 37  1  0  0  0  0
 10 11  2  0  0  0  0
 10 12  1  0  0  0  0
 12 24  1  0  0  0  0
 12 13  2  0  0  0  0
 13 14  1  0  0  0  0
 13 38  1  0  0  0  0
 14 15  2  0  0  0  0
 14 39  1  0  0  0  0
 15 16  1  0  0  0  0
 16 17  1  0  0  0  0
 16 24  2  0  0  0  0
 17 23  1  0  0  0  0
 17 18  1  0  0  0  0
 18 19  1  0  0  0  0
 18 40  1  0  0  0  0
 18 41  1  0  0  0  0
 19 20  1  0  0  0  0
 19 42  1  0  0  0  0
 19 43  1  0  0  0  0
 20 21  1  0  0  0  0
 21 22  1  0  0  0  0
 21 23  1  0  0  0  0
 21 44  1  0  0  0  0
 22 45  1  0  0  0  0
 22 46  1  0  0  0  0
 22 47  1  0  0  0  0
 23 48  1  0  0  0  0
 23 49  1  0  0  0  0
 24 50  1  0  0  0  0
M  END
> <s_m_source_file>
AV-unprocessed.smi

> <i_m_source_file_index>
748

> <i_lp_mmshare_version>
43012

> <i_f3d_flags>
0

> <s_epik_input>
W0NIM11bQ0hdKFtDSDNdKVtOSF1DKD1PKVtDSDJdW0NIMl1bTkhdQyg9TyljMVtjSF1bY0hdbmMoW2NIXTEpTjJbQ0gyXVtDSDJdT1tDQEBIXShbQ0gzXSlbQ0gyXTI=

> <s_epik_cmdline>
J2VwaWtfcHl0aG9uJywgJy1waCcsICc3LjAnLCAnLXRuJywgJzgnLCAnLW1hJywgJzIwMCcsICctbWV0YWxfYmluZGluZycsICctaW1hZScsICc8aW5maWxlLm1hZT4nLCAnLW9tYWUnLCAnPG91dGZpbGUubWFlPic=

> <r_lp_tautomer_probability>
1

> <r_epik_Ionization_Penalty>
1.38678e-05

> <r_epik_Ionization_Penalty_Charging>
0

> <r_epik_Ionization_Penalty_Neutral>
1.38678e-05

> <r_epik_State_Penalty>
-0

> <r_epik_Charging_Adjusted_Penalty>
0

> <i_epik_Tot_Q>
0

> <i_epik_Tot_abs_Q>
0

> <r_epik_Metal_State_Penalty>
-0

> <b_epik_Metal_Only>
0

> <s_lp_Force_Field>
OPLS_2005

> <r_lp_Energy>
15.3694

> <b_lp_Chiralities_Consistent>
1

> <s_lp_Variant>
AV-unprocessed.smi:748-2

> <Gold.Version>
5.8.1

> <Gold.Id.Protein>
6NUR|6NUR_protein|mol2

> <Gold.PLP.Fitness>
50.2743

> <Gold.PLP.PLP>
-45.9451

> <Gold.PLP.part.hbond>
-4.8713

> <Gold.PLP.part.metal>
0.0000

> <Gold.PLP.part.buried>
-3.6562

> <Gold.PLP.part.nonpolar>
-40.9854

> <Gold.PLP.part.repulsive>
2.7505

> <Gold.PLP.ligand.clash>
0.0000

> <Gold.PLP.ligand.torsion>
1.8181

> <Gold.PLP.Chemscore.Hbond>
2.5360

> <Gold.PLP.Chemscore.CHOScore>
0.0000

> <Gold.PLP.Chemscore.Metal>
0.0000

> <Gold.Chemscore.Hbonds>
donor molecule, donor type, donor heavy atom, donor atom, acceptor molecule, acceptor atom, score
      P1  H  7954  7966       L1     6  1.00
      P1  H  7997  8008       L1    15  0.80
      P1  H  8011  8017       L1    11  0.67

> <Gold.PLP.Chemscore.Internal.Correction>
0.3575

> <Gold.Rescore>
     Score         DG    S(hbond)    S(metal)    S(lipo)     H(rot)  DE(clash)    DE(int)     intcor
     14.84     -19.86       1.87        0.00     110.49       1.87       3.30       1.71       ----

> <Gold.Chemscore.Fitness>
14.8430

> <Gold.Chemscore.DG>
-19.8579

> <Gold.Chemscore.ZeroCoef>
-5.4800

> <Gold.Chemscore.Hbond>
1.8670

> <Gold.Chemscore.Metal>
0.0000

> <Gold.Chemscore.Lipo>
110.4907

> <Gold.Chemscore.Internal_Hbond>
0.0000

> <Gold.Chemscore.DEClash>
3.3049

> <Gold.Chemscore.DEInternal>
1.7100

> <Gold.Chemscore.Rot>
1.8692

> <Gold.Chemscore.Internal.Correction>
   9.000000E+99

> <Gold.Chemscore.Hbonds>
donor molecule, donor type, donor heavy atom, donor atom, acceptor molecule, acceptor atom, score
      P1  H  7954  7966       L1     6  0.96
      P1  H  7997  8008       L1    15  0.11
      P1  H  8011  8017       L1    11  0.67

> <Gold.Chemscore.Hbond.Weighted>
-6.2357

> <Gold.Chemscore.Metal.Weighted>
-0.0000

> <Gold.Chemscore.Lipo.Weighted>
-12.9274

> <Gold.Chemscore.Internal_Hbond.Weighted>
0.0000

> <Gold.Chemscore.DEClash.Weighted>
3.3049

> <Gold.Chemscore.DEInternal.Weighted>
1.7100

> <Gold.Chemscore.Rot.Weighted>
4.7852

> <Gold.Chemscore.Internal.Correction.Weighted>
   9.000000E+99

> <Gold.Protein.RotatedTorsions>
[ 6907 6896 6895 6894 ] final  -94.76 input  -60.11 | X-H torsion
[ 7974 7965 7964 7962 ] final   87.96 input  175.53 | X-H torsion
[ 8008 7997 7996 7995 ] final  -71.49 input   59.86 | X-H torsion
[ 10167 10162 10161 10158 ] final -175.53 input  -65.29 | X-H torsion
[ 10718 10713 10712 10709 ] final  -13.00 input   66.30 | X-H torsion
[ 10763 10752 10751 10750 ] final  -78.52 input  -60.55 | X-H torsion
[ 11005 11000 10999 10996 ] final -123.39 input  -57.11 | X-H torsion

> <Gold.Protein.ActiveResidues>
 VAL166  LYS551  ARG553  GLY616  TRP617  ASP618  TYR619  PRO620  LYS621  CYS622 
 ASP623  PHE694  ASN695  SER759  ASP760  ASP761  ALA762  ILE779  LEU786  VAL792 
 PHE793  MET794  SER795  GLU796  ALA797  LYS798  CYS799  TRP800  GLU811  SER814 

> <Gold.Protein.RotatedAtoms>
  150.6949  134.1762  159.4230 H   0  0  0  0  0  0  0  0  0  0  0  0  # atno 6907 bound_to 6896
  151.9738  135.0061  160.0563 H   0  0  0  0  0  0  0  0  0  0  0  0  # atno 6908 bound_to 6896
  152.1817  133.4677  159.4998 H   0  0  0  0  0  0  0  0  0  0  0  0  # atno 6909 bound_to 6896
  145.5520  139.2296  143.2507 H   0  0  0  0  0  0  0  0  0  0  0  0  # atno 7974 bound_to 7965
  154.5092  140.0814  156.7956 H   0  0  0  0  0  0  0  0  0  0  0  0  # atno 8008 bound_to 7997
  155.3824  140.3428  155.4229 H   0  0  0  0  0  0  0  0  0  0  0  0  # atno 8009 bound_to 7997
  156.1553  140.1571  156.8691 H   0  0  0  0  0  0  0  0  0  0  0  0  # atno 8010 bound_to 7997
  139.5576  144.1950  152.1185 H   0  0  0  0  0  0  0  0  0  0  0  0  # atno 10167 bound_to 10162
  156.6366  130.4916  149.6110 H   0  0  0  0  0  0  0  0  0  0  0  0  # atno 10718 bound_to 10713
  154.5269  135.5727  153.6726 H   0  0  0  0  0  0  0  0  0  0  0  0  # atno 10763 bound_to 10752
  152.9930  135.6195  154.2680 H   0  0  0  0  0  0  0  0  0  0  0  0  # atno 10764 bound_to 10752
  154.2605  135.2856  155.2760 H   0  0  0  0  0  0  0  0  0  0  0  0  # atno 10765 bound_to 10752
  140.9922  134.0522  157.3640 H   0  0  0  0  0  0  0  0  0  0  0  0  # atno 11005 bound_to 11000
  146.1910  140.6343  142.9145 LP  0  0  0  0  0  0  0  0  0  0  0  0  # atno 17320 bound_to 7965
  144.7525  140.5225  143.6792 LP  0  0  0  0  0  0  0  0  0  0  0  0  # atno 17321 bound_to 7965
  140.1457  144.5161  150.6717 LP  0  0  0  0  0  0  0  0  0  0  0  0  # atno 17342 bound_to 10162
  140.6851  143.2346  151.5281 LP  0  0  0  0  0  0  0  0  0  0  0  0  # atno 17343 bound_to 10162
  156.2192  130.6727  151.1351 LP  0  0  0  0  0  0  0  0  0  0  0  0  # atno 17370 bound_to 10713
  157.7184  131.0696  150.6236 LP  0  0  0  0  0  0  0  0  0  0  0  0  # atno 17371 bound_to 10713
  139.8998  135.0160  156.7211 LP  0  0  0  0  0  0  0  0  0  0  0  0  # atno 17394 bound_to 11000
  140.7022  133.9297  155.8031 LP  0  0  0  0  0  0  0  0  0  0  0  0  # atno 17395 bound_to 11000

$$$$
