AV-unprocessed.smi:1392|AV-procd|sdf|5661|dock8
  -GOLD-   22720 5283D 1   1.00000     0.00000
 Structure written by MMmdl.
 39 40  0  0  0  0  0  0  0  0  1 V2000
  141.6044  133.5898  152.6066 C   0  0  0  0  0  0  0  0  0  0  0  0
  142.8976  133.5979  151.9341 N   0  0  0  0  0  0  0  0  0  0  0  0
  143.2879  132.4702  151.0941 C   0  0  0  0  0  0  0  0  0  0  0  0
  143.7844  134.6850  152.1099 C   0  0  0  0  0  0  0  0  0  0  0  0
  143.3263  135.9488  152.5586 C   0  0  0  0  0  0  0  0  0  0  0  0
  144.2483  137.0005  152.7213 C   0  0  0  0  0  0  0  0  0  0  0  0
  145.6135  136.7661  152.4391 C   0  0  0  0  0  0  0  0  0  0  0  0
  146.6357  137.7476  152.5462 N   0  0  0  0  0  0  0  0  0  0  0  0
  146.7185  138.7802  153.4024 C   0  0  0  0  0  0  0  0  0  0  0  0
  145.9046  139.0387  154.2888 O   0  0  0  0  0  0  0  0  0  0  0  0
  147.8264  139.5026  153.1845 N   0  0  0  0  0  0  0  0  0  0  0  0
  148.2183  140.6850  153.9444 C   0  0  0  0  0  0  0  0  0  0  0  0
  149.3149  140.3717  154.9801 C   0  0  2  0  0  0  0  0  0  0  0  0
  150.0450  141.5854  155.5207 C   0  0  0  0  0  0  0  0  0  0  0  0
  151.3137  140.9587  156.0905 C   0  0  0  0  0  0  0  0  0  0  0  0
  151.5888  139.8246  155.2730 O   0  0  0  0  0  0  0  0  0  0  0  0
  150.4782  139.5520  154.4232 C   0  0  0  0  0  0  0  0  0  0  0  0
  145.9728  135.4828  151.9839 C   0  0  0  0  0  0  0  0  0  0  0  0
  145.0930  134.4721  151.8276 N   0  0  0  0  0  0  0  0  0  0  0  0
  141.0004  134.4390  152.2858 H   0  0  0  0  0  0  0  0  0  0  0  0
  141.7342  133.6407  153.6880 H   0  0  0  0  0  0  0  0  0  0  0  0
  141.0452  132.6815  152.3820 H   0  0  0  0  0  0  0  0  0  0  0  0
  143.4864  132.8023  150.0747 H   0  0  0  0  0  0  0  0  0  0  0  0
  142.5035  131.7149  151.0513 H   0  0  0  0  0  0  0  0  0  0  0  0
  144.1877  131.9948  151.4855 H   0  0  0  0  0  0  0  0  0  0  0  0
  142.2861  136.1358  152.7773 H   0  0  0  0  0  0  0  0  0  0  0  0
  143.8859  137.9639  153.0443 H   0  0  0  0  0  0  0  0  0  0  0  0
  147.4242  137.6182  151.9293 H   0  0  0  0  0  0  0  0  0  0  0  0
  148.4435  139.2158  152.4388 H   0  0  0  0  0  0  0  0  0  0  0  0
  148.5556  141.4688  153.2640 H   0  0  0  0  0  0  0  0  0  0  0  0
  147.3302  141.0737  154.4436 H   0  0  0  0  0  0  0  0  0  0  0  0
  148.8816  139.8245  155.8191 H   0  0  0  0  0  0  0  0  0  0  0  0
  150.2974  142.2707  154.7105 H   0  0  0  0  0  0  0  0  0  0  0  0
  149.4721  142.1348  156.2684 H   0  0  0  0  0  0  0  0  0  0  0  0
  152.1526  141.6547  156.1032 H   0  0  0  0  0  0  0  0  0  0  0  0
  151.1422  140.6156  157.1115 H   0  0  0  0  0  0  0  0  0  0  0  0
  150.2566  138.4851  154.3879 H   0  0  0  0  0  0  0  0  0  0  0  0
  150.7331  139.8773  153.4138 H   0  0  0  0  0  0  0  0  0  0  0  0
  147.0003  135.2547  151.7411 H   0  0  0  0  0  0  0  0  0  0  0  0
  1  2  1  0  0  0  0
  1 20  1  0  0  0  0
  1 21  1  0  0  0  0
  1 22  1  0  0  0  0
  2  3  1  0  0  0  0
  2  4  1  0  0  0  0
  3 23  1  0  0  0  0
  3 24  1  0  0  0  0
  3 25  1  0  0  0  0
  4 19  1  0  0  0  0
  4  5  2  0  0  0  0
  5  6  1  0  0  0  0
  5 26  1  0  0  0  0
  6  7  2  0  0  0  0
  6 27  1  0  0  0  0
  7  8  1  0  0  0  0
  7 18  1  0  0  0  0
  8  9  1  0  0  0  0
  8 28  1  0  0  0  0
  9 10  2  0  0  0  0
  9 11  1  0  0  0  0
 11 12  1  0  0  0  0
 11 29  1  0  0  0  0
 12 13  1  0  0  0  0
 12 30  1  0  0  0  0
 12 31  1  0  0  0  0
 13 17  1  0  0  0  0
 13 14  1  0  0  0  0
 13 32  1  0  0  0  0
 14 15  1  0  0  0  0
 14 33  1  0  0  0  0
 14 34  1  0  0  0  0
 15 16  1  0  0  0  0
 15 35  1  0  0  0  0
 15 36  1  0  0  0  0
 16 17  1  0  0  0  0
 17 37  1  0  0  0  0
 17 38  1  0  0  0  0
 18 19  2  0  0  0  0
 18 39  1  0  0  0  0
M  END
> <s_m_source_file>
AV-unprocessed.smi

> <i_m_source_file_index>
1392

> <i_lp_mmshare_version>
43012

> <i_f3d_flags>
0

> <s_epik_input>
W0NIM11OKFtDSDNdKWMxW2NIXVtjSF1jKFtjSF1uMSlbTkhdQyg9TylbTkhdW0NIMl1bQ0BASF0yW0NIMl1bQ0gyXU9bQ0gyXTI=

> <s_epik_cmdline>
J2VwaWtfcHl0aG9uJywgJy1waCcsICc3LjAnLCAnLXRuJywgJzgnLCAnLW1hJywgJzIwMCcsICctbWV0YWxfYmluZGluZycsICctaW1hZScsICc8aW5maWxlLm1hZT4nLCAnLW9tYWUnLCAnPG91dGZpbGUubWFlPic=

> <r_lp_tautomer_probability>
1

> <r_epik_Ionization_Penalty>
0.612298

> <r_epik_Ionization_Penalty_Charging>
0

> <r_epik_Ionization_Penalty_Neutral>
0.612298

> <r_epik_State_Penalty>
0.626495

> <r_epik_Charging_Adjusted_Penalty>
0.626495

> <i_epik_Tot_Q>
0

> <i_epik_Tot_abs_Q>
0

> <r_epik_Metal_State_Penalty>
0.304101

> <b_epik_Metal_Only>
0

> <s_lp_Force_Field>
OPLS_2005

> <r_lp_Energy>
22.6053

> <b_lp_Chiralities_Consistent>
1

> <s_lp_Variant>
AV-unprocessed.smi:1392-3

> <Gold.Version>
5.8.1

> <Gold.Id.Protein>
6NUR|6NUR_protein|mol2

> <Gold.PLP.Fitness>
37.1141

> <Gold.PLP.PLP>
-30.9476

> <Gold.PLP.part.hbond>
-3.0000

> <Gold.PLP.part.metal>
0.0000

> <Gold.PLP.part.buried>
0.5356

> <Gold.PLP.part.nonpolar>
-30.1077

> <Gold.PLP.part.repulsive>
0.3484

> <Gold.PLP.ligand.clash>
0.0000

> <Gold.PLP.ligand.torsion>
0.6024

> <Gold.PLP.Chemscore.Hbond>
1.4548

> <Gold.PLP.Chemscore.CHOScore>
1.0000

> <Gold.PLP.Chemscore.Metal>
0.0000

> <Gold.Chemscore.Hbonds>
donor molecule, donor type, donor heavy atom, donor atom, acceptor molecule, acceptor atom, score
      L1  H     8    28       P1  7948  0.67
      L1  H    11    29       P1  7957  0.77
      L1  C    18    39       P1  7948  1.00

> <Gold.PLP.Chemscore.Internal.Correction>
0.0069

> <Gold.Rescore>
     Score         DG    S(hbond)    S(metal)    S(lipo)     H(rot)  DE(clash)    DE(int)     intcor
     14.25     -15.30       1.42        0.00      70.08       1.21       0.34       0.71       ----

> <Gold.Chemscore.Fitness>
14.2500

> <Gold.Chemscore.DG>
-15.3034

> <Gold.Chemscore.ZeroCoef>
-5.4800

> <Gold.Chemscore.Hbond>
1.4172

> <Gold.Chemscore.Metal>
0.0000

> <Gold.Chemscore.Lipo>
70.0791

> <Gold.Chemscore.Internal_Hbond>
0.0000

> <Gold.Chemscore.DEClash>
0.3440

> <Gold.Chemscore.DEInternal>
0.7094

> <Gold.Chemscore.Rot>
1.2146

> <Gold.Chemscore.Internal.Correction>
   9.000000E+99

> <Gold.Chemscore.Hbonds>
donor molecule, donor type, donor heavy atom, donor atom, acceptor molecule, acceptor atom, score
      L1  H     8    28       P1  7948  0.64
      L1  H    11    29       P1  7957  0.78

> <Gold.Chemscore.Hbond.Weighted>
-4.7335

> <Gold.Chemscore.Metal.Weighted>
-0.0000

> <Gold.Chemscore.Lipo.Weighted>
-8.1993

> <Gold.Chemscore.Internal_Hbond.Weighted>
0.0000

> <Gold.Chemscore.DEClash.Weighted>
0.3440

> <Gold.Chemscore.DEInternal.Weighted>
0.7094

> <Gold.Chemscore.Rot.Weighted>
3.1093

> <Gold.Chemscore.Internal.Correction.Weighted>
   9.000000E+99

> <Gold.Protein.RotatedTorsions>
[ 6907 6896 6895 6894 ] final  158.11 input  -60.11 | X-H torsion
[ 7974 7965 7964 7962 ] final  118.67 input  175.53 | X-H torsion
[ 8008 7997 7996 7995 ] final -150.29 input   59.86 | X-H torsion
[ 10167 10162 10161 10158 ] final  -79.40 input  -65.29 | X-H torsion
[ 10718 10713 10712 10709 ] final  -98.84 input   66.30 | X-H torsion
[ 10763 10752 10751 10750 ] final   52.68 input  -60.55 | X-H torsion
[ 11005 11000 10999 10996 ] final   95.86 input  -57.11 | X-H torsion

> <Gold.Protein.ActiveResidues>
 VAL166  LYS551  ARG553  GLY616  TRP617  ASP618  TYR619  PRO620  LYS621  CYS622 
 ASP623  PHE694  ASN695  SER759  ASP760  ASP761  ALA762  ILE779  LEU786  VAL792 
 PHE793  MET794  SER795  GLU796  ALA797  LYS798  CYS799  TRP800  GLU811  SER814 

> <Gold.Protein.RotatedAtoms>
  152.0052  133.3840  159.4197 H   0  0  0  0  0  0  0  0  0  0  0  0  # atno 6907 bound_to 6896
  150.6905  134.3790  159.5035 H   0  0  0  0  0  0  0  0  0  0  0  0  # atno 6908 bound_to 6896
  152.1543  134.8963  160.0596 H   0  0  0  0  0  0  0  0  0  0  0  0  # atno 6909 bound_to 6896
  145.1524  139.3202  143.4559 H   0  0  0  0  0  0  0  0  0  0  0  0  # atno 7974 bound_to 7965
  155.6211  140.0681  157.2677 H   0  0  0  0  0  0  0  0  0  0  0  0  # atno 8008 bound_to 7997
  154.4229  140.1784  156.1422 H   0  0  0  0  0  0  0  0  0  0  0  0  # atno 8009 bound_to 7997
  156.0008  140.3336  155.6847 H   0  0  0  0  0  0  0  0  0  0  0  0  # atno 8010 bound_to 7997
  140.4596  143.2458  151.8368 H   0  0  0  0  0  0  0  0  0  0  0  0  # atno 10167 bound_to 10162
  156.0118  130.5256  150.6583 H   0  0  0  0  0  0  0  0  0  0  0  0  # atno 10718 bound_to 10713
  152.9790  135.5804  154.4618 H   0  0  0  0  0  0  0  0  0  0  0  0  # atno 10763 bound_to 10752
  154.4193  135.2771  155.1988 H   0  0  0  0  0  0  0  0  0  0  0  0  # atno 10764 bound_to 10752
  154.3744  135.6160  153.5811 H   0  0  0  0  0  0  0  0  0  0  0  0  # atno 10765 bound_to 10752
  139.8785  134.8921  156.4074 H   0  0  0  0  0  0  0  0  0  0  0  0  # atno 11005 bound_to 11000
  146.3493  140.1604  142.8591 LP  0  0  0  0  0  0  0  0  0  0  0  0  # atno 17320 bound_to 7965
  145.0416  140.8950  143.5049 LP  0  0  0  0  0  0  0  0  0  0  0  0  # atno 17321 bound_to 7965
  139.4805  144.5023  151.9043 LP  0  0  0  0  0  0  0  0  0  0  0  0  # atno 17342 bound_to 10162
  140.4109  144.2370  150.5889 LP  0  0  0  0  0  0  0  0  0  0  0  0  # atno 17343 bound_to 10162
  157.4330  131.0851  151.1019 LP  0  0  0  0  0  0  0  0  0  0  0  0  # atno 17370 bound_to 10713
  157.1587  130.6216  149.5604 LP  0  0  0  0  0  0  0  0  0  0  0  0  # atno 17371 bound_to 10713
  140.9224  133.7635  155.9923 LP  0  0  0  0  0  0  0  0  0  0  0  0  # atno 17394 bound_to 11000
  140.8424  134.3051  157.5308 LP  0  0  0  0  0  0  0  0  0  0  0  0  # atno 17395 bound_to 11000

$$$$
