AV-unprocessed.smi:598|AV-procd|sdf|3028|dock6
  -GOLD-   2262023543D 1   1.00000     0.00000
 Structure written by MMmdl.
 43 44  0  0  0  0  0  0  0  0  3 V2000
  153.0403  142.9119  162.6959 C   0  0  0  0  0  0  0  0  0  0  0  0
  152.4233  143.1083  161.2993 C   0  0  1  0  0  0  0  0  0  0  0  0
  151.9900  144.5788  161.1253 C   0  0  0  0  0  0  0  0  0  0  0  0
  151.3551  144.8384  159.7526 C   0  0  0  0  0  0  0  0  0  0  0  0
  152.3040  144.4206  158.6197 C   0  0  0  0  0  0  0  0  0  0  0  0
  152.7478  142.9523  158.7545 C   0  0  2  0  0  0  0  0  0  0  0  0
  151.6131  142.0683  158.4763 N   0  0  0  0  0  0  0  0  0  0  0  0
  151.6813  140.7932  158.0631 C   0  0  0  0  0  0  0  0  0  0  0  0
  152.7429  140.1927  157.8897 O   0  0  0  0  0  0  0  0  0  0  0  0
  150.3313  140.1002  157.8273 C   0  0  0  0  0  0  0  0  0  0  0  0
  149.5782  140.6454  156.6847 N   0  0  0  0  0  0  0  0  0  0  0  0
  148.3057  141.1849  156.9580 C   0  0  0  0  0  0  0  0  0  0  0  0
  147.5266  141.7075  155.9907 C   0  0  0  0  0  0  0  0  0  0  0  0
  146.2216  142.2554  156.2895 N   0  3  0  0  0  0  0  0  0  0  0  0
  145.8601  142.3092  157.4606 O   0  0  0  0  0  0  0  0  0  0  0  0
  145.5147  142.6476  155.3658 O   0  5  0  0  0  0  0  0  0  0  0  0
  148.0399  141.7010  154.6344 C   0  0  0  0  0  0  0  0  0  0  0  0
  149.2547  141.1833  154.3659 C   0  0  0  0  0  0  0  0  0  0  0  0
  150.0998  140.6127  155.4199 C   0  0  0  0  0  0  0  0  0  0  0  0
  151.2087  140.1343  155.1804 O   0  0  0  0  0  0  0  0  0  0  0  0
  153.3755  142.6778  160.1484 C   0  0  2  0  0  0  0  0  0  0  0  0
  153.8616  141.2200  160.2774 C   0  0  0  0  0  0  0  0  0  0  0  0
  153.9831  143.4513  162.7928 H   0  0  0  0  0  0  0  0  0  0  0  0
  153.2304  141.8606  162.9105 H   0  0  0  0  0  0  0  0  0  0  0  0
  152.3693  143.2757  163.4749 H   0  0  0  0  0  0  0  0  0  0  0  0
  151.5264  142.4890  161.2518 H   0  0  0  0  0  0  0  0  0  0  0  0
  151.2812  144.8537  161.9074 H   0  0  0  0  0  0  0  0  0  0  0  0
  152.8536  145.2333  161.2517 H   0  0  0  0  0  0  0  0  0  0  0  0
  150.4144  144.2924  159.6728 H   0  0  0  0  0  0  0  0  0  0  0  0
  151.1050  145.8953  159.6546 H   0  0  0  0  0  0  0  0  0  0  0  0
  151.8269  144.5841  157.6525 H   0  0  0  0  0  0  0  0  0  0  0  0
  153.1842  145.0648  158.6357 H   0  0  0  0  0  0  0  0  0  0  0  0
  153.5188  142.7867  158.0000 H   0  0  0  0  0  0  0  0  0  0  0  0
  150.6947  142.4703  158.5980 H   0  0  0  0  0  0  0  0  0  0  0  0
  150.5141  139.0334  157.6874 H   0  0  0  0  0  0  0  0  0  0  0  0
  149.7358  140.1677  158.7398 H   0  0  0  0  0  0  0  0  0  0  0  0
  148.0122  141.1359  157.9969 H   0  0  0  0  0  0  0  0  0  0  0  0
  147.4540  142.1108  153.8246 H   0  0  0  0  0  0  0  0  0  0  0  0
  149.6174  141.1878  153.3484 H   0  0  0  0  0  0  0  0  0  0  0  0
  154.2657  143.3054  160.2160 H   0  0  0  0  0  0  0  0  0  0  0  0
  153.0277  140.5229  160.3614 H   0  0  0  0  0  0  0  0  0  0  0  0
  154.4976  141.0842  161.1517 H   0  0  0  0  0  0  0  0  0  0  0  0
  154.4534  140.9281  159.4095 H   0  0  0  0  0  0  0  0  0  0  0  0
  1  2  1  0  0  0  0
  1 23  1  0  0  0  0
  1 24  1  0  0  0  0
  1 25  1  0  0  0  0
  2 21  1  0  0  0  0
  2  3  1  0  0  0  0
  2 26  1  0  0  0  0
  3  4  1  0  0  0  0
  3 27  1  0  0  0  0
  3 28  1  0  0  0  0
  4  5  1  0  0  0  0
  4 29  1  0  0  0  0
  4 30  1  0  0  0  0
  5  6  1  0  0  0  0
  5 31  1  0  0  0  0
  5 32  1  0  0  0  0
  6  7  1  0  0  0  0
  6 21  1  0  0  0  0
  6 33  1  0  0  0  0
  7  8  1  0  0  0  0
  7 34  1  0  0  0  0
  8  9  2  0  0  0  0
  8 10  1  0  0  0  0
 10 11  1  0  0  0  0
 10 35  1  0  0  0  0
 10 36  1  0  0  0  0
 11 19  1  0  0  0  0
 11 12  1  0  0  0  0
 12 13  2  0  0  0  0
 12 37  1  0  0  0  0
 13 14  1  0  0  0  0
 13 17  1  0  0  0  0
 14 15  2  0  0  0  0
 14 16  1  0  0  0  0
 17 18  2  0  0  0  0
 17 38  1  0  0  0  0
 18 19  1  0  0  0  0
 18 39  1  0  0  0  0
 19 20  2  0  0  0  0
 21 22  1  0  0  0  0
 21 40  1  0  0  0  0
 22 41  1  0  0  0  0
 22 42  1  0  0  0  0
 22 43  1  0  0  0  0
M  CHG  1  14   1
M  CHG  1  16  -1
M  END
> <s_m_source_file>
AV-unprocessed.smi

> <i_m_source_file_index>
598

> <i_lp_mmshare_version>
43012

> <i_f3d_flags>
0

> <s_epik_input>
W0NIM11bQ0BASF0xW0NIMl1bQ0gyXVtDSDJdW0NASF0oW0NASF0xW0NIM10pW05IXUMoPU8pW0NIMl1uMltjSF1jKFtOK10oPU8pW08tXSlbY0hdW2NIXWMyPU8=

> <s_epik_cmdline>
J2VwaWtfcHl0aG9uJywgJy1waCcsICc3LjAnLCAnLXRuJywgJzgnLCAnLW1hJywgJzIwMCcsICctbWV0YWxfYmluZGluZycsICctaW1hZScsICc8aW5maWxlLm1hZT4nLCAnLW9tYWUnLCAnPG91dGZpbGUubWFlPic=

> <r_lp_tautomer_probability>
1

> <r_epik_Ionization_Penalty>
1.91291e-08

> <r_epik_Ionization_Penalty_Charging>
8.21931e-11

> <r_epik_Ionization_Penalty_Neutral>
1.90469e-08

> <r_epik_State_Penalty>
-0

> <r_epik_Charging_Adjusted_Penalty>
8.21931e-11

> <i_epik_Tot_Q>
0

> <i_epik_Tot_abs_Q>
2

> <r_epik_Metal_State_Penalty>
-0

> <b_epik_Metal_Only>
0

> <s_lp_Force_Field>
OPLS_2005

> <r_lp_Energy>
23.1067

> <b_lp_Chiralities_Consistent>
1

> <s_lp_Variant>
AV-unprocessed.smi:598-8

> <Gold.Version>
5.8.1

> <Gold.Id.Protein>
6NUR|6NUR_protein|mol2

> <Gold.PLP.Fitness>
55.1949

> <Gold.PLP.PLP>
-49.9320

> <Gold.PLP.part.hbond>
-2.0000

> <Gold.PLP.part.metal>
0.0000

> <Gold.PLP.part.buried>
-5.1955

> <Gold.PLP.part.nonpolar>
-42.5335

> <Gold.PLP.part.repulsive>
0.3481

> <Gold.PLP.ligand.clash>
0.0000

> <Gold.PLP.ligand.torsion>
0.3648

> <Gold.PLP.Chemscore.Hbond>
1.9920

> <Gold.PLP.Chemscore.CHOScore>
0.0000

> <Gold.PLP.Chemscore.Metal>
0.0000

> <Gold.Chemscore.Hbonds>
donor molecule, donor type, donor heavy atom, donor atom, acceptor molecule, acceptor atom, score
      P1  H  7989  7998       L1    20  1.00
      P1  H  7997  8010       L1     9  0.99

> <Gold.PLP.Chemscore.Internal.Correction>
0.0164

> <Gold.Rescore>
     Score         DG    S(hbond)    S(metal)    S(lipo)     H(rot)  DE(clash)    DE(int)     intcor
     21.37     -21.78       1.88        0.00     119.33       1.54       0.01       0.40       ----

> <Gold.Chemscore.Fitness>
21.3694

> <Gold.Chemscore.DG>
-21.7825

> <Gold.Chemscore.ZeroCoef>
-5.4800

> <Gold.Chemscore.Hbond>
1.8808

> <Gold.Chemscore.Metal>
0.0000

> <Gold.Chemscore.Lipo>
119.3283

> <Gold.Chemscore.Internal_Hbond>
0.0000

> <Gold.Chemscore.DEClash>
0.0104

> <Gold.Chemscore.DEInternal>
0.4027

> <Gold.Chemscore.Rot>
1.5393

> <Gold.Chemscore.Internal.Correction>
   9.000000E+99

> <Gold.Chemscore.Hbonds>
donor molecule, donor type, donor heavy atom, donor atom, acceptor molecule, acceptor atom, score
      P1  H  7989  7998       L1    20  0.39
      P1  H  7997  8010       L1     9  0.90

> <Gold.Chemscore.Hbond.Weighted>
-6.2818

> <Gold.Chemscore.Metal.Weighted>
-0.0000

> <Gold.Chemscore.Lipo.Weighted>
-13.9614

> <Gold.Chemscore.Internal_Hbond.Weighted>
0.0000

> <Gold.Chemscore.DEClash.Weighted>
0.0104

> <Gold.Chemscore.DEInternal.Weighted>
0.4027

> <Gold.Chemscore.Rot.Weighted>
3.9407

> <Gold.Chemscore.Internal.Correction.Weighted>
   9.000000E+99

> <Gold.Protein.RotatedTorsions>
[ 6907 6896 6895 6894 ] final  146.51 input  -60.11 | X-H torsion
[ 7974 7965 7964 7962 ] final  -82.46 input  175.53 | X-H torsion
[ 8008 7997 7996 7995 ] final   49.15 input   59.86 | X-H torsion
[ 10167 10162 10161 10158 ] final  -17.71 input  -65.29 | X-H torsion
[ 10718 10713 10712 10709 ] final  108.99 input   66.30 | X-H torsion
[ 10763 10752 10751 10750 ] final -126.23 input  -60.55 | X-H torsion
[ 11005 11000 10999 10996 ] final -166.02 input  -57.11 | X-H torsion

> <Gold.Protein.ActiveResidues>
 VAL166  LYS551  ARG553  GLY616  TRP617  ASP618  TYR619  PRO620  LYS621  CYS622 
 ASP623  PHE694  ASN695  SER759  ASP760  ASP761  ALA762  ILE779  LEU786  VAL792 
 PHE793  MET794  SER795  GLU796  ALA797  LYS798  CYS799  TRP800  GLU811  SER814 

> <Gold.Protein.RotatedAtoms>
  152.1669  133.4618  159.4888 H   0  0  0  0  0  0  0  0  0  0  0  0  # atno 6907 bound_to 6896
  150.6914  134.2002  159.4328 H   0  0  0  0  0  0  0  0  0  0  0  0  # atno 6908 bound_to 6896
  151.9907  134.9980  160.0612 H   0  0  0  0  0  0  0  0  0  0  0  0  # atno 6909 bound_to 6896
  145.5330  140.9519  143.1592 H   0  0  0  0  0  0  0  0  0  0  0  0  # atno 7974 bound_to 7965
  155.3974  140.3436  155.4255 H   0  0  0  0  0  0  0  0  0  0  0  0  # atno 8008 bound_to 7997
  156.1523  140.1575  156.8782 H   0  0  0  0  0  0  0  0  0  0  0  0  # atno 8009 bound_to 7997
  154.5063  140.0801  156.7883 H   0  0  0  0  0  0  0  0  0  0  0  0  # atno 8010 bound_to 7997
  140.7250  143.4989  150.9895 H   0  0  0  0  0  0  0  0  0  0  0  0  # atno 10167 bound_to 10162
  157.6562  131.0905  150.6387 H   0  0  0  0  0  0  0  0  0  0  0  0  # atno 10718 bound_to 10713
  154.8744  135.4002  154.3398 H   0  0  0  0  0  0  0  0  0  0  0  0  # atno 10763 bound_to 10752
  153.4199  135.7023  153.6307 H   0  0  0  0  0  0  0  0  0  0  0  0  # atno 10764 bound_to 10752
  153.4973  135.3735  155.2492 H   0  0  0  0  0  0  0  0  0  0  0  0  # atno 10765 bound_to 10752
  140.5692  134.5255  157.5158 H   0  0  0  0  0  0  0  0  0  0  0  0  # atno 11005 bound_to 11000
  144.7616  139.6944  143.7232 LP  0  0  0  0  0  0  0  0  0  0  0  0  # atno 17320 bound_to 7965
  146.2031  139.5339  142.9730 LP  0  0  0  0  0  0  0  0  0  0  0  0  # atno 17321 bound_to 7965
  139.8697  143.7208  152.3167 LP  0  0  0  0  0  0  0  0  0  0  0  0  # atno 17342 bound_to 10162
  139.7452  144.7549  151.0590 LP  0  0  0  0  0  0  0  0  0  0  0  0  # atno 17343 bound_to 10162
  156.6693  130.4535  149.5662 LP  0  0  0  0  0  0  0  0  0  0  0  0  # atno 17370 bound_to 10713
  156.2009  130.6619  151.1166 LP  0  0  0  0  0  0  0  0  0  0  0  0  # atno 17371 bound_to 10713
  139.9370  134.7857  156.0777 LP  0  0  0  0  0  0  0  0  0  0  0  0  # atno 17394 bound_to 11000
  141.1067  133.6657  156.2880 LP  0  0  0  0  0  0  0  0  0  0  0  0  # atno 17395 bound_to 11000

$$$$
