AV-unprocessed.smi:1847|AV-procd|sdf|7517|dock6
  -GOLD-   22720 9223D 1   1.00000     0.00000
 Structure written by MMmdl.
 24 25  0  0  0  0  0  0  0  0  2 V2000
  150.8315  140.9557  158.4563 O   0  0  0  0  0  0  0  0  0  0  0  0
  151.8665  140.5367  157.9299 C   0  0  0  0  0  0  0  0  0  0  0  0
  153.0957  140.6118  158.5027 N   0  5  0  0  0  0  0  0  0  0  0  0
  153.2489  141.1209  159.7353 C   0  0  0  0  0  0  0  0  0  0  0  0
  152.5703  142.2921  160.1396 C   0  0  0  0  0  0  0  0  0  0  0  0
  152.7560  142.7823  161.4478 C   0  0  0  0  0  0  0  0  0  0  0  0
  153.5546  142.1867  162.3578 N   0  0  0  0  0  0  0  0  0  0  0  0
  154.1991  141.0637  161.9783 C   0  0  0  0  0  0  0  0  0  0  0  0
  154.0779  140.4964  160.6940 C   0  0  0  0  0  0  0  0  0  0  0  0
  151.8244  139.9122  156.6099 C   0  0  0  0  0  0  0  0  0  0  0  0
  150.8166  140.2023  155.7525 C   0  0  0  0  0  0  0  0  0  0  0  0
  150.6824  139.6329  154.5107 O   0  0  0  0  0  0  0  0  0  0  0  0
  151.5363  138.5203  154.2732 C   0  0  0  0  0  0  0  0  0  0  0  0
  152.9347  138.7892  154.8467 C   0  0  0  0  0  0  0  0  0  0  0  0
  152.8474  139.0665  156.2395 O   0  0  0  0  0  0  0  0  0  0  0  0
  151.9162  142.8117  159.4549 H   0  0  0  0  0  0  0  0  0  0  0  0
  152.2467  143.6779  161.7715 H   0  0  0  0  0  0  0  0  0  0  0  0
  154.8314  140.6008  162.7214 H   0  0  0  0  0  0  0  0  0  0  0  0
  154.6176  139.5933  160.4483 H   0  0  0  0  0  0  0  0  0  0  0  0
  149.9988  140.8753  155.9667 H   0  0  0  0  0  0  0  0  0  0  0  0
  151.1025  137.6301  154.7306 H   0  0  0  0  0  0  0  0  0  0  0  0
  151.5924  138.3358  153.2004 H   0  0  0  0  0  0  0  0  0  0  0  0
  153.5826  137.9260  154.6946 H   0  0  0  0  0  0  0  0  0  0  0  0
  153.4009  139.6352  154.3396 H   0  0  0  0  0  0  0  0  0  0  0  0
  1  2  2  0  0  0  0
  2  3  1  0  0  0  0
  2 10  1  0  0  0  0
  3  4  1  0  0  0  0
  4  9  1  0  0  0  0
  4  5  2  0  0  0  0
  5  6  1  0  0  0  0
  5 16  1  0  0  0  0
  6  7  2  0  0  0  0
  6 17  1  0  0  0  0
  7  8  1  0  0  0  0
  8  9  2  0  0  0  0
  8 18  1  0  0  0  0
  9 19  1  0  0  0  0
 10 15  1  0  0  0  0
 10 11  2  0  0  0  0
 11 12  1  0  0  0  0
 11 20  1  0  0  0  0
 12 13  1  0  0  0  0
 13 14  1  0  0  0  0
 13 21  1  0  0  0  0
 13 22  1  0  0  0  0
 14 15  1  0  0  0  0
 14 23  1  0  0  0  0
 14 24  1  0  0  0  0
M  CHG  1   3  -1
M  END
> <s_m_source_file>
AV-unprocessed.smi

> <i_m_source_file_index>
1847

> <i_lp_mmshare_version>
43012

> <i_f3d_flags>
0

> <s_epik_input>
TzFbQ0gyXVtDSDJdT1tDSF09QzFDKD1PKVtOSF1jMltjSF1bY0hdbltjSF1bY0hdMg==

> <s_epik_cmdline>
J2VwaWtfcHl0aG9uJywgJy1waCcsICc3LjAnLCAnLXRuJywgJzgnLCAnLW1hJywgJzIwMCcsICctbWV0YWxfYmluZGluZycsICctaW1hZScsICc8aW5maWxlLm1hZT4nLCAnLW9tYWUnLCAnPG91dGZpbGUubWFlPic=

> <r_epik_Ionization_Penalty>
6.68616

> <r_epik_Ionization_Penalty_Charging>
5.33655

> <r_epik_Ionization_Penalty_Neutral>
1.34962

> <r_epik_State_Penalty>
5.36971

> <r_epik_Charging_Adjusted_Penalty>
10.7063

> <i_epik_Tot_Q>
-1

> <i_epik_Tot_abs_Q>
1

> <r_epik_Metal_State_Penalty>
1.43726

> <b_epik_Metal_Only>
1

> <s_lp_Force_Field>
OPLS_2005

> <r_lp_Energy>
5.87976

> <b_lp_Chiralities_Consistent>
1

> <s_lp_Variant>
AV-unprocessed.smi:1847-3

> <Gold.Version>
5.8.1

> <Gold.Id.Protein>
6NUR|6NUR_protein|mol2

> <Gold.PLP.Fitness>
39.0215

> <Gold.PLP.PLP>
-33.6774

> <Gold.PLP.part.hbond>
-3.0145

> <Gold.PLP.part.metal>
0.0000

> <Gold.PLP.part.buried>
-3.5796

> <Gold.PLP.part.nonpolar>
-27.0728

> <Gold.PLP.part.repulsive>
0.1488

> <Gold.PLP.ligand.clash>
0.0000

> <Gold.PLP.ligand.torsion>
0.5868

> <Gold.PLP.Chemscore.Hbond>
2.0000

> <Gold.PLP.Chemscore.CHOScore>
0.0000

> <Gold.PLP.Chemscore.Metal>
0.0000

> <Gold.Chemscore.Hbonds>
donor molecule, donor type, donor heavy atom, donor atom, acceptor molecule, acceptor atom, score
      P1  H  7989  7998       L1    12  0.85
      P1  H  7997  8009       L1    15  0.98

> <Gold.PLP.Chemscore.Internal.Correction>
0.5178

> <Gold.Rescore>
     Score         DG    S(hbond)    S(metal)    S(lipo)     H(rot)  DE(clash)    DE(int)     intcor
     15.36     -17.39       0.83        0.00      78.05       0.00       0.03       2.00       ----

> <Gold.Chemscore.Fitness>
15.3567

> <Gold.Chemscore.DG>
-17.3865

> <Gold.Chemscore.ZeroCoef>
-5.4800

> <Gold.Chemscore.Hbond>
0.8307

> <Gold.Chemscore.Metal>
0.0000

> <Gold.Chemscore.Lipo>
78.0499

> <Gold.Chemscore.Internal_Hbond>
0.0000

> <Gold.Chemscore.DEClash>
0.0255

> <Gold.Chemscore.DEInternal>
2.0043

> <Gold.Chemscore.Rot>
0.0000

> <Gold.Chemscore.Internal.Correction>
   9.000000E+99

> <Gold.Chemscore.Hbonds>
donor molecule, donor type, donor heavy atom, donor atom, acceptor molecule, acceptor atom, score
      P1  H  7989  7998       L1    12  0.04
      P1  H  7997  8009       L1    15  0.22

> <Gold.Chemscore.Hbond.Weighted>
-2.7747

> <Gold.Chemscore.Metal.Weighted>
-0.0000

> <Gold.Chemscore.Lipo.Weighted>
-9.1318

> <Gold.Chemscore.Internal_Hbond.Weighted>
0.0000

> <Gold.Chemscore.DEClash.Weighted>
0.0255

> <Gold.Chemscore.DEInternal.Weighted>
2.0043

> <Gold.Chemscore.Rot.Weighted>
0.0000

> <Gold.Chemscore.Internal.Correction.Weighted>
   9.000000E+99

> <Gold.Protein.RotatedTorsions>
[ 6907 6896 6895 6894 ] final   99.37 input  -60.11 | X-H torsion
[ 7974 7965 7964 7962 ] final  118.70 input  175.53 | X-H torsion
[ 8008 7997 7996 7995 ] final  174.54 input   59.86 | X-H torsion
[ 10167 10162 10161 10158 ] final  -67.97 input  -65.29 | X-H torsion
[ 10718 10713 10712 10709 ] final -176.84 input   66.30 | X-H torsion
[ 10763 10752 10751 10750 ] final  180.00 input  -60.55 | X-H torsion
[ 11005 11000 10999 10996 ] final -160.58 input  -57.11 | X-H torsion

> <Gold.Protein.ActiveResidues>
 VAL166  LYS551  ARG553  GLY616  TRP617  ASP618  TYR619  PRO620  LYS621  CYS622 
 ASP623  PHE694  ASN695  SER759  ASP760  ASP761  ALA762  ILE779  LEU786  VAL792 
 PHE793  MET794  SER795  GLU796  ALA797  LYS798  CYS799  TRP800  GLU811  SER814 

> <Gold.Protein.RotatedAtoms>
  152.5393  134.0439  159.8079 H   0  0  0  0  0  0  0  0  0  0  0  0  # atno 6907 bound_to 6896
  151.0591  133.5551  159.2643 H   0  0  0  0  0  0  0  0  0  0  0  0  # atno 6908 bound_to 6896
  151.2457  135.0612  159.9096 H   0  0  0  0  0  0  0  0  0  0  0  0  # atno 6909 bound_to 6896
  145.1521  139.3204  143.4561 H   0  0  0  0  0  0  0  0  0  0  0  0  # atno 7974 bound_to 7965
  156.0963  140.1432  156.9526 H   0  0  0  0  0  0  0  0  0  0  0  0  # atno 8008 bound_to 7997
  154.4674  140.0921  156.7101 H   0  0  0  0  0  0  0  0  0  0  0  0  # atno 8009 bound_to 7997
  155.4835  140.3445  155.4345 H   0  0  0  0  0  0  0  0  0  0  0  0  # atno 8010 bound_to 7997
  140.5543  143.2312  151.6852 H   0  0  0  0  0  0  0  0  0  0  0  0  # atno 10167 bound_to 10162
  156.8206  130.9618  151.3112 H   0  0  0  0  0  0  0  0  0  0  0  0  # atno 10718 bound_to 10713
  154.5278  135.2798  155.1206 H   0  0  0  0  0  0  0  0  0  0  0  0  # atno 10763 bound_to 10752
  154.2738  135.6298  153.5324 H   0  0  0  0  0  0  0  0  0  0  0  0  # atno 10764 bound_to 10752
  152.9950  135.5635  154.5784 H   0  0  0  0  0  0  0  0  0  0  0  0  # atno 10765 bound_to 10752
  140.6300  134.4661  157.5229 H   0  0  0  0  0  0  0  0  0  0  0  0  # atno 11005 bound_to 11000
  146.3493  140.1599  142.8591 LP  0  0  0  0  0  0  0  0  0  0  0  0  # atno 17320 bound_to 7965
  145.0420  140.8953  143.5047 LP  0  0  0  0  0  0  0  0  0  0  0  0  # atno 17321 bound_to 7965
  139.5041  144.3767  152.0416 LP  0  0  0  0  0  0  0  0  0  0  0  0  # atno 17342 bound_to 10162
  140.2887  144.3778  150.6095 LP  0  0  0  0  0  0  0  0  0  0  0  0  # atno 17343 bound_to 10162
  157.6458  130.8843  149.9536 LP  0  0  0  0  0  0  0  0  0  0  0  0  # atno 17370 bound_to 10713
  156.0991  130.3657  150.0252 LP  0  0  0  0  0  0  0  0  0  0  0  0  # atno 17371 bound_to 10713
  139.9120  134.8325  156.1496 LP  0  0  0  0  0  0  0  0  0  0  0  0  # atno 17394 bound_to 11000
  141.0682  133.6809  156.2087 LP  0  0  0  0  0  0  0  0  0  0  0  0  # atno 17395 bound_to 11000

$$$$
