AV-unprocessed.smi:2473|AV-procd|sdf|9750|dock1
  -GOLD-   2272013393D 1   1.00000     0.00000
 Structure written by MMmdl.
 47 48  0  0  0  0  0  0  0  0  1 V2000
  146.6007  139.2908  157.7468 C   0  0  0  0  0  0  0  0  0  0  0  0
  147.5995  139.5865  156.6188 C   0  0  1  0  0  0  0  0  0  0  0  0
  148.7872  138.6046  156.6620 C   0  0  0  0  0  0  0  0  0  0  0  0
  149.8095  138.8203  155.5239 C   0  0  2  0  0  0  0  0  0  0  0  0
  150.8060  139.9647  155.7857 C   0  0  0  0  0  0  0  0  0  0  0  0
  151.7302  140.1963  155.0065 O   0  0  0  0  0  0  0  0  0  0  0  0
  150.5617  140.7192  156.8693 N   0  0  0  0  0  0  0  0  0  0  0  0
  151.3135  141.9066  157.2671 C   0  0  0  0  0  0  0  0  0  0  0  0
  152.1831  141.6651  158.5170 C   0  0  0  0  0  0  0  0  0  0  0  0
  152.1216  142.7733  159.5269 C   0  0  0  0  0  0  0  0  0  0  0  0
  151.8911  142.5697  160.8205 N   0  0  0  0  0  0  0  0  0  0  0  0
  151.9505  143.8337  161.3963 C   0  0  0  0  0  0  0  0  0  0  0  0
  152.2120  144.7661  160.4221 C   0  0  0  0  0  0  0  0  0  0  0  0
  152.3181  144.0725  159.2240 N   0  0  0  0  0  0  0  0  0  0  0  0
  152.5888  144.6608  157.9262 C   0  0  0  0  0  0  0  0  0  0  0  0
  149.1117  138.9047  154.1433 C   0  0  0  0  0  0  0  0  0  0  0  0
  147.8642  139.8261  154.0534 C   0  0  0  0  0  0  0  0  0  0  0  0
  148.2463  141.3216  153.9985 C   0  0  0  0  0  0  0  0  0  0  0  0
  147.1208  139.5035  152.7410 C   0  0  0  0  0  0  0  0  0  0  0  0
  146.9121  139.5381  155.2399 C   0  0  0  0  0  0  0  0  0  0  0  0
  146.1735  138.2923  157.6483 H   0  0  0  0  0  0  0  0  0  0  0  0
  145.7785  140.0067  157.7414 H   0  0  0  0  0  0  0  0  0  0  0  0
  147.0831  139.3515  158.7227 H   0  0  0  0  0  0  0  0  0  0  0  0
  147.9682  140.5973  156.7878 H   0  0  0  0  0  0  0  0  0  0  0  0
  149.2865  138.6689  157.6304 H   0  0  0  0  0  0  0  0  0  0  0  0
  148.4064  137.5845  156.5966 H   0  0  0  0  0  0  0  0  0  0  0  0
  150.4277  137.9210  155.5054 H   0  0  0  0  0  0  0  0  0  0  0  0
  149.7760  140.4655  157.4505 H   0  0  0  0  0  0  0  0  0  0  0  0
  151.9545  142.1882  156.4318 H   0  0  0  0  0  0  0  0  0  0  0  0
  150.6426  142.7513  157.4318 H   0  0  0  0  0  0  0  0  0  0  0  0
  151.9065  140.7212  158.9863 H   0  0  0  0  0  0  0  0  0  0  0  0
  153.2229  141.5481  158.2100 H   0  0  0  0  0  0  0  0  0  0  0  0
  151.8020  143.9727  162.4568 H   0  0  0  0  0  0  0  0  0  0  0  0
  152.3294  145.8381  160.4819 H   0  0  0  0  0  0  0  0  0  0  0  0
  152.7899  145.7272  158.0320 H   0  0  0  0  0  0  0  0  0  0  0  0
  151.7253  144.5276  157.2745 H   0  0  0  0  0  0  0  0  0  0  0  0
  153.4584  144.1857  157.4734 H   0  0  0  0  0  0  0  0  0  0  0  0
  149.8325  139.1836  153.3733 H   0  0  0  0  0  0  0  0  0  0  0  0
  148.8061  137.8896  153.8852 H   0  0  0  0  0  0  0  0  0  0  0  0
  147.3681  141.9447  153.8263 H   0  0  0  0  0  0  0  0  0  0  0  0
  148.9488  141.5210  153.1888 H   0  0  0  0  0  0  0  0  0  0  0  0
  148.7017  141.6787  154.9182 H   0  0  0  0  0  0  0  0  0  0  0  0
  146.2258  140.1166  152.6285 H   0  0  0  0  0  0  0  0  0  0  0  0
  146.8048  138.4604  152.7029 H   0  0  0  0  0  0  0  0  0  0  0  0
  147.7535  139.6844  151.8714 H   0  0  0  0  0  0  0  0  0  0  0  0
  146.4696  138.5488  155.1121 H   0  0  0  0  0  0  0  0  0  0  0  0
  146.0779  140.2407  155.2207 H   0  0  0  0  0  0  0  0  0  0  0  0
  1  2  1  0  0  0  0
  1 21  1  0  0  0  0
  1 22  1  0  0  0  0
  1 23  1  0  0  0  0
  2 20  1  0  0  0  0
  2  3  1  0  0  0  0
  2 24  1  0  0  0  0
  3  4  1  0  0  0  0
  3 25  1  0  0  0  0
  3 26  1  0  0  0  0
  4  5  1  0  0  0  0
  4 16  1  0  0  0  0
  4 27  1  0  0  0  0
  5  6  2  0  0  0  0
  5  7  1  0  0  0  0
  7  8  1  0  0  0  0
  7 28  1  0  0  0  0
  8  9  1  0  0  0  0
  8 29  1  0  0  0  0
  8 30  1  0  0  0  0
  9 10  1  0  0  0  0
  9 31  1  0  0  0  0
  9 32  1  0  0  0  0
 10 14  1  0  0  0  0
 10 11  2  0  0  0  0
 11 12  1  0  0  0  0
 12 13  2  0  0  0  0
 12 33  1  0  0  0  0
 13 14  1  0  0  0  0
 13 34  1  0  0  0  0
 14 15  1  0  0  0  0
 15 35  1  0  0  0  0
 15 36  1  0  0  0  0
 15 37  1  0  0  0  0
 16 17  1  0  0  0  0
 16 38  1  0  0  0  0
 16 39  1  0  0  0  0
 17 18  1  0  0  0  0
 17 19  1  0  0  0  0
 17 20  1  0  0  0  0
 18 40  1  0  0  0  0
 18 41  1  0  0  0  0
 18 42  1  0  0  0  0
 19 43  1  0  0  0  0
 19 44  1  0  0  0  0
 19 45  1  0  0  0  0
 20 46  1  0  0  0  0
 20 47  1  0  0  0  0
M  END
> <s_m_source_file>
AV-unprocessed.smi

> <i_m_source_file_index>
2473

> <i_lp_mmshare_version>
43012

> <i_f3d_flags>
0

> <s_epik_input>
W0NIM11bQ0BASF0oW0NIMl0xKVtDSDJdW0NASF0oW0NIMl1DMShbQ0gzXSlbQ0gzXSlDKD1PKVtOSF1bQ0gyXVtDSDJdYzJuW2NIXVtjSF1uMltDSDNd

> <s_epik_cmdline>
J2VwaWtfcHl0aG9uJywgJy1waCcsICc3LjAnLCAnLXRuJywgJzgnLCAnLW1hJywgJzIwMCcsICctbWV0YWxfYmluZGluZycsICctaW1hZScsICc8aW5maWxlLm1hZT4nLCAnLW9tYWUnLCAnPG91dGZpbGUubWFlPic=

> <r_lp_tautomer_probability>
1

> <r_epik_Ionization_Penalty>
1.22858

> <r_epik_Ionization_Penalty_Charging>
1.22858

> <r_epik_Ionization_Penalty_Neutral>
2.12671e-08

> <r_epik_State_Penalty>
1.2965

> <r_epik_Charging_Adjusted_Penalty>
2.52508

> <i_epik_Tot_Q>
0

> <i_epik_Tot_abs_Q>
0

> <r_epik_Metal_State_Penalty>
0.411461

> <b_epik_Metal_Only>
0

> <s_lp_Force_Field>
OPLS_2005

> <r_lp_Energy>
14.2462

> <b_lp_Chiralities_Consistent>
1

> <s_lp_Variant>
AV-unprocessed.smi:2473-8

> <Gold.Version>
5.8.1

> <Gold.Id.Protein>
6NUR|6NUR_protein|mol2

> <Gold.PLP.Fitness>
41.5403

> <Gold.PLP.PLP>
-39.6003

> <Gold.PLP.part.hbond>
-2.0000

> <Gold.PLP.part.metal>
0.0000

> <Gold.PLP.part.buried>
-3.5639

> <Gold.PLP.part.nonpolar>
-34.0918

> <Gold.PLP.part.repulsive>
0.1437

> <Gold.PLP.ligand.clash>
0.0000

> <Gold.PLP.ligand.torsion>
0.5083

> <Gold.PLP.Chemscore.Hbond>
0.9440

> <Gold.PLP.Chemscore.CHOScore>
0.0000

> <Gold.PLP.Chemscore.Metal>
0.0000

> <Gold.Chemscore.Hbonds>
donor molecule, donor type, donor heavy atom, donor atom, acceptor molecule, acceptor atom, score
      P1  H  7989  7998       L1     6  0.93

> <Gold.PLP.Chemscore.Internal.Correction>
0.1245

> <Gold.Rescore>
     Score         DG    S(hbond)    S(metal)    S(lipo)     H(rot)  DE(clash)    DE(int)     intcor
     14.70     -15.26       0.98        0.00      88.72       1.51       0.10       0.46       ----

> <Gold.Chemscore.Fitness>
14.7050

> <Gold.Chemscore.DG>
-15.2639

> <Gold.Chemscore.ZeroCoef>
-5.4800

> <Gold.Chemscore.Hbond>
0.9795

> <Gold.Chemscore.Metal>
0.0000

> <Gold.Chemscore.Lipo>
88.7214

> <Gold.Chemscore.Internal_Hbond>
0.0000

> <Gold.Chemscore.DEClash>
0.1025

> <Gold.Chemscore.DEInternal>
0.4564

> <Gold.Chemscore.Rot>
1.5109

> <Gold.Chemscore.Internal.Correction>
   9.000000E+99

> <Gold.Chemscore.Hbonds>
donor molecule, donor type, donor heavy atom, donor atom, acceptor molecule, acceptor atom, score
      P1  H  7989  7998       L1     6  0.89

> <Gold.Chemscore.Hbond.Weighted>
-3.2715

> <Gold.Chemscore.Metal.Weighted>
-0.0000

> <Gold.Chemscore.Lipo.Weighted>
-10.3804

> <Gold.Chemscore.Internal_Hbond.Weighted>
0.0000

> <Gold.Chemscore.DEClash.Weighted>
0.1025

> <Gold.Chemscore.DEInternal.Weighted>
0.4564

> <Gold.Chemscore.Rot.Weighted>
3.8680

> <Gold.Chemscore.Internal.Correction.Weighted>
   9.000000E+99

> <Gold.Protein.RotatedTorsions>
[ 6907 6896 6895 6894 ] final   -6.96 input  -60.11 | X-H torsion
[ 7974 7965 7964 7962 ] final   39.16 input  175.53 | X-H torsion
[ 8008 7997 7996 7995 ] final  161.61 input   59.86 | X-H torsion
[ 10167 10162 10161 10158 ] final  100.78 input  -65.29 | X-H torsion
[ 10718 10713 10712 10709 ] final -159.55 input   66.30 | X-H torsion
[ 10763 10752 10751 10750 ] final -113.25 input  -60.55 | X-H torsion
[ 11005 11000 10999 10996 ] final  -91.96 input  -57.11 | X-H torsion

> <Gold.Protein.ActiveResidues>
 VAL166  LYS551  ARG553  GLY616  TRP617  ASP618  TYR619  PRO620  LYS621  CYS622 
 ASP623  PHE694  ASN695  SER759  ASP760  ASP761  ALA762  ILE779  LEU786  VAL792 
 PHE793  MET794  SER795  GLU796  ALA797  LYS798  CYS799  TRP800  GLU811  SER814 

> <Gold.Protein.RotatedAtoms>
  151.4571  135.1035  159.9714 H   0  0  0  0  0  0  0  0  0  0  0  0  # atno 6907 bound_to 6896
  152.4867  133.8386  159.7151 H   0  0  0  0  0  0  0  0  0  0  0  0  # atno 6908 bound_to 6896
  150.8982  133.7093  159.2913 H   0  0  0  0  0  0  0  0  0  0  0  0  # atno 6909 bound_to 6896
  146.1006  139.5685  142.9417 H   0  0  0  0  0  0  0  0  0  0  0  0  # atno 7974 bound_to 7965
  156.2091  140.1772  156.7735 H   0  0  0  0  0  0  0  0  0  0  0  0  # atno 8008 bound_to 7997
  154.5696  140.0685  156.8974 H   0  0  0  0  0  0  0  0  0  0  0  0  # atno 8009 bound_to 7997
  155.2697  140.3341  155.4268 H   0  0  0  0  0  0  0  0  0  0  0  0  # atno 8010 bound_to 7997
  139.7496  144.6988  151.0452 H   0  0  0  0  0  0  0  0  0  0  0  0  # atno 10167 bound_to 10162
  156.5697  130.8683  151.2834 H   0  0  0  0  0  0  0  0  0  0  0  0  # atno 10718 bound_to 10713
  154.8387  135.4461  154.1319 H   0  0  0  0  0  0  0  0  0  0  0  0  # atno 10763 bound_to 10752
  153.2527  135.6928  153.7668 H   0  0  0  0  0  0  0  0  0  0  0  0  # atno 10764 bound_to 10752
  153.6974  135.3377  155.3192 H   0  0  0  0  0  0  0  0  0  0  0  0  # atno 10765 bound_to 10752
  141.1533  133.7789  156.9953 H   0  0  0  0  0  0  0  0  0  0  0  0  # atno 11005 bound_to 11000
  145.5862  141.0376  143.2095 LP  0  0  0  0  0  0  0  0  0  0  0  0  # atno 17320 bound_to 7965
  144.7429  139.7398  143.7303 LP  0  0  0  0  0  0  0  0  0  0  0  0  # atno 17321 bound_to 7965
  140.7796  143.4825  150.9999 LP  0  0  0  0  0  0  0  0  0  0  0  0  # atno 17342 bound_to 10162
  139.8513  143.7435  152.3178 LP  0  0  0  0  0  0  0  0  0  0  0  0  # atno 17343 bound_to 10162
  157.7351  130.9756  150.2063 LP  0  0  0  0  0  0  0  0  0  0  0  0  # atno 17370 bound_to 10713
  156.2726  130.3723  149.8016 LP  0  0  0  0  0  0  0  0  0  0  0  0  # atno 17371 bound_to 10713
  140.0976  134.9555  157.1873 LP  0  0  0  0  0  0  0  0  0  0  0  0  # atno 17394 bound_to 11000
  140.3362  134.2755  155.7219 LP  0  0  0  0  0  0  0  0  0  0  0  0  # atno 17395 bound_to 11000

$$$$
