AV-unprocessed.smi:147|AV-procd|sdf|1201|dock10
  -GOLD-   2262018363D 1   1.00000     0.00000
 Structure written by MMmdl.
 55 57  0  0  0  0  0  0  0  0  1 V2000
  151.6529  144.2739  157.1472 C   0  0  0  0  0  0  0  0  0  0  0  0
  150.9371  143.1616  157.9312 C   0  0  0  0  0  0  0  0  0  0  0  0
  151.6525  142.8676  159.2597 C   0  0  0  0  0  0  0  0  0  0  0  0
  150.8227  141.8860  157.0866 C   0  0  0  0  0  0  0  0  0  0  0  0
  151.4327  140.8678  157.4152 O   0  0  0  0  0  0  0  0  0  0  0  0
  150.0347  141.9530  156.0025 N   0  0  0  0  0  0  0  0  0  0  0  0
  149.7802  140.8504  155.0841 C   0  0  0  0  0  0  0  0  0  0  0  0
  148.5381  141.1221  154.2155 C   0  0  0  0  0  0  0  0  0  0  0  0
  147.2882  140.9436  154.9552 N   0  0  0  0  0  0  0  0  0  0  0  0
  147.0191  141.8491  156.0660 C   0  0  0  0  0  0  0  0  0  0  0  0
  146.5778  139.7830  154.8498 C   0  0  0  0  0  0  0  0  0  0  0  0
  145.9104  139.3236  155.9433 N   0  0  0  0  0  0  0  0  0  0  0  0
  145.1958  138.1973  155.8905 C   0  0  0  0  0  0  0  0  0  0  0  0
  145.0180  137.3729  154.8594 N   0  0  0  0  0  0  0  0  0  0  0  0
  145.6917  137.8094  153.7578 C   0  0  0  0  0  0  0  0  0  0  0  0
  146.4820  138.9929  153.6618 C   0  0  0  0  0  0  0  0  0  0  0  0
  146.9979  139.0957  152.3731 N   0  0  0  0  0  0  0  0  0  0  0  0
  146.5339  138.0493  151.7481 C   0  0  0  0  0  0  0  0  0  0  0  0
  145.7648  137.2057  152.5146 N   0  0  0  0  0  0  0  0  0  0  0  0
  145.1066  136.0094  152.0776 C   0  0  0  0  0  0  0  0  0  0  0  0
  145.3571  134.6707  152.7752 C   0  0  0  0  0  0  0  0  0  0  0  0
  145.1620  133.9387  151.4285 C   0  0  0  0  0  0  0  0  0  0  0  0
  146.1507  132.7951  151.1493 C   0  0  0  0  0  0  0  0  0  0  0  0
  147.3984  133.0342  151.7676 O   0  0  0  0  0  0  0  0  0  0  0  0
  143.7274  133.4483  151.1482 C   0  0  0  0  0  0  0  0  0  0  0  0
  143.5550  133.1064  149.7878 O   0  0  0  0  0  0  0  0  0  0  0  0
  145.5289  135.2968  150.7901 C   0  0  0  0  0  0  0  0  0  0  0  0
  151.1479  144.4824  156.2033 H   0  0  0  0  0  0  0  0  0  0  0  0
  152.6857  144.0057  156.9207 H   0  0  0  0  0  0  0  0  0  0  0  0
  151.6718  145.2020  157.7188 H   0  0  0  0  0  0  0  0  0  0  0  0
  149.9299  143.5117  158.1630 H   0  0  0  0  0  0  0  0  0  0  0  0
  151.1443  142.0806  159.8184 H   0  0  0  0  0  0  0  0  0  0  0  0
  151.6754  143.7543  159.8935 H   0  0  0  0  0  0  0  0  0  0  0  0
  152.6836  142.5499  159.0994 H   0  0  0  0  0  0  0  0  0  0  0  0
  149.5709  142.8278  155.8049 H   0  0  0  0  0  0  0  0  0  0  0  0
  150.6624  140.7307  154.4550 H   0  0  0  0  0  0  0  0  0  0  0  0
  149.6681  139.9185  155.6404 H   0  0  0  0  0  0  0  0  0  0  0  0
  148.5678  142.1479  153.8466 H   0  0  0  0  0  0  0  0  0  0  0  0
  148.5500  140.4947  153.3232 H   0  0  0  0  0  0  0  0  0  0  0  0
  146.1013  142.4099  155.8889 H   0  0  0  0  0  0  0  0  0  0  0  0
  147.8278  142.5703  156.1875 H   0  0  0  0  0  0  0  0  0  0  0  0
  146.9232  141.3008  157.0037 H   0  0  0  0  0  0  0  0  0  0  0  0
  144.6977  137.9152  156.8063 H   0  0  0  0  0  0  0  0  0  0  0  0
  146.7504  137.8596  150.7068 H   0  0  0  0  0  0  0  0  0  0  0  0
  144.0404  136.2410  152.0603 H   0  0  0  0  0  0  0  0  0  0  0  0
  146.3745  134.5895  153.1624 H   0  0  0  0  0  0  0  0  0  0  0  0
  144.6281  134.4249  153.5478 H   0  0  0  0  0  0  0  0  0  0  0  0
  145.7664  131.8496  151.5332 H   0  0  0  0  0  0  0  0  0  0  0  0
  146.3058  132.6494  150.0801 H   0  0  0  0  0  0  0  0  0  0  0  0
  148.0340  132.4402  151.3986 H   0  0  0  0  0  0  0  0  0  0  0  0
  143.4886  132.5679  151.7448 H   0  0  0  0  0  0  0  0  0  0  0  0
  142.9879  134.2031  151.4163 H   0  0  0  0  0  0  0  0  0  0  0  0
  142.6983  133.3947  149.5121 H   0  0  0  0  0  0  0  0  0  0  0  0
  144.9410  135.5641  149.9116 H   0  0  0  0  0  0  0  0  0  0  0  0
  146.5976  135.3947  150.5886 H   0  0  0  0  0  0  0  0  0  0  0  0
  1  2  1  0  0  0  0
  1 28  1  0  0  0  0
  1 29  1  0  0  0  0
  1 30  1  0  0  0  0
  2  3  1  0  0  0  0
  2  4  1  0  0  0  0
  2 31  1  0  0  0  0
  3 32  1  0  0  0  0
  3 33  1  0  0  0  0
  3 34  1  0  0  0  0
  4  5  2  0  0  0  0
  4  6  1  0  0  0  0
  6  7  1  0  0  0  0
  6 35  1  0  0  0  0
  7  8  1  0  0  0  0
  7 36  1  0  0  0  0
  7 37  1  0  0  0  0
  8  9  1  0  0  0  0
  8 38  1  0  0  0  0
  8 39  1  0  0  0  0
  9 10  1  0  0  0  0
  9 11  1  0  0  0  0
 10 40  1  0  0  0  0
 10 41  1  0  0  0  0
 10 42  1  0  0  0  0
 11 16  1  0  0  0  0
 11 12  2  0  0  0  0
 12 13  1  0  0  0  0
 13 14  2  0  0  0  0
 13 43  1  0  0  0  0
 14 15  1  0  0  0  0
 15 19  1  0  0  0  0
 15 16  2  0  0  0  0
 16 17  1  0  0  0  0
 17 18  2  0  0  0  0
 18 19  1  0  0  0  0
 18 44  1  0  0  0  0
 19 20  1  0  0  0  0
 20 27  1  0  0  0  0
 20 21  1  0  0  0  0
 20 45  1  0  0  0  0
 21 22  1  0  0  0  0
 21 46  1  0  0  0  0
 21 47  1  0  0  0  0
 22 23  1  0  0  0  0
 22 25  1  0  0  0  0
 22 27  1  0  0  0  0
 23 24  1  0  0  0  0
 23 48  1  0  0  0  0
 23 49  1  0  0  0  0
 24 50  1  0  0  0  0
 25 26  1  0  0  0  0
 25 51  1  0  0  0  0
 25 52  1  0  0  0  0
 26 53  1  0  0  0  0
 27 54  1  0  0  0  0
 27 55  1  0  0  0  0
M  END
> <s_m_source_file>
AV-unprocessed.smi

> <i_m_source_file_index>
147

> <i_lp_mmshare_version>
43012

> <i_f3d_flags>
0

> <s_epik_input>
W0NIM11bQ0hdKFtDSDNdKUMoPU8pW05IXVtDSDJdW0NIMl1OKFtDSDNdKWMobltjSF1uMSljKGMxMiluW2NIXW4yW0NIXShbQ0gyXTMpW0NIMl1DMyhbQ0gyXVtPSF0pW0NIMl1bT0hd

> <s_epik_cmdline>
J2VwaWtfcHl0aG9uJywgJy1waCcsICc3LjAnLCAnLXRuJywgJzgnLCAnLW1hJywgJzIwMCcsICctbWV0YWxfYmluZGluZycsICctaW1hZScsICc8aW5maWxlLm1hZT4nLCAnLW9tYWUnLCAnPG91dGZpbGUubWFlPic=

> <r_lp_tautomer_probability>
1

> <r_epik_Ionization_Penalty>
0.00124047

> <r_epik_Ionization_Penalty_Charging>
0

> <r_epik_Ionization_Penalty_Neutral>
0.00124047

> <r_epik_State_Penalty>
0.000682986

> <r_epik_Charging_Adjusted_Penalty>
0.000682986

> <i_epik_Tot_Q>
0

> <i_epik_Tot_abs_Q>
0

> <r_epik_Metal_State_Penalty>
-0

> <b_epik_Metal_Only>
0

> <s_lp_Force_Field>
OPLS_2005

> <r_lp_Energy>
28.5646

> <b_lp_Chiralities_Consistent>
1

> <s_lp_Variant>
AV-unprocessed.smi:147-1

> <Gold.Version>
5.8.1

> <Gold.Id.Protein>
6NUR|6NUR_protein|mol2

> <Gold.PLP.Fitness>
48.0422

> <Gold.PLP.PLP>
-41.1851

> <Gold.PLP.part.hbond>
-3.0000

> <Gold.PLP.part.metal>
0.0000

> <Gold.PLP.part.buried>
-4.3244

> <Gold.PLP.part.nonpolar>
-35.4326

> <Gold.PLP.part.repulsive>
1.3953

> <Gold.PLP.ligand.clash>
0.0000

> <Gold.PLP.ligand.torsion>
1.3534

> <Gold.PLP.Chemscore.Hbond>
2.9263

> <Gold.PLP.Chemscore.CHOScore>
0.0000

> <Gold.PLP.Chemscore.Metal>
0.0000

> <Gold.Chemscore.Hbonds>
donor molecule, donor type, donor heavy atom, donor atom, acceptor molecule, acceptor atom, score
      L1  H     6    35       P1  8028  1.00
      L1  H    24    50       P1 10747  0.70
      L1  H    26    53       P1 10186  1.00

> <Gold.PLP.Chemscore.Internal.Correction>
0.7850

> <Gold.Rescore>
     Score         DG    S(hbond)    S(metal)    S(lipo)     H(rot)  DE(clash)    DE(int)     intcor
     11.99     -15.04       2.91        0.00      89.34       4.15       0.81       2.24       ----

> <Gold.Chemscore.Fitness>
11.9936

> <Gold.Chemscore.DG>
-15.0368

> <Gold.Chemscore.ZeroCoef>
-5.4800

> <Gold.Chemscore.Hbond>
2.9106

> <Gold.Chemscore.Metal>
0.0000

> <Gold.Chemscore.Lipo>
89.3351

> <Gold.Chemscore.Internal_Hbond>
0.0000

> <Gold.Chemscore.DEClash>
0.8075

> <Gold.Chemscore.DEInternal>
2.2357

> <Gold.Chemscore.Rot>
4.1472

> <Gold.Chemscore.Internal.Correction>
   9.000000E+99

> <Gold.Chemscore.Hbonds>
donor molecule, donor type, donor heavy atom, donor atom, acceptor molecule, acceptor atom, score
      L1  H     6    35       P1  8028  0.94
      L1  H    24    50       P1 10747  0.69
      L1  H    26    53       P1 10186  0.97

> <Gold.Chemscore.Hbond.Weighted>
-9.7213

> <Gold.Chemscore.Metal.Weighted>
-0.0000

> <Gold.Chemscore.Lipo.Weighted>
-10.4522

> <Gold.Chemscore.Internal_Hbond.Weighted>
0.0000

> <Gold.Chemscore.DEClash.Weighted>
0.8075

> <Gold.Chemscore.DEInternal.Weighted>
2.2357

> <Gold.Chemscore.Rot.Weighted>
10.6167

> <Gold.Chemscore.Internal.Correction.Weighted>
   9.000000E+99

> <Gold.Protein.RotatedTorsions>
[ 6907 6896 6895 6894 ] final  170.69 input  -60.11 | X-H torsion
[ 7974 7965 7964 7962 ] final -141.63 input  175.53 | X-H torsion
[ 8008 7997 7996 7995 ] final  -17.82 input   59.86 | X-H torsion
[ 10167 10162 10161 10158 ] final -112.01 input  -65.29 | X-H torsion
[ 10718 10713 10712 10709 ] final -141.00 input   66.30 | X-H torsion
[ 10763 10752 10751 10750 ] final  128.84 input  -60.55 | X-H torsion
[ 11005 11000 10999 10996 ] final   53.91 input  -57.11 | X-H torsion

> <Gold.Protein.ActiveResidues>
 VAL166  LYS551  ARG553  GLY616  TRP617  ASP618  TYR619  PRO620  LYS621  CYS622 
 ASP623  PHE694  ASN695  SER759  ASP760  ASP761  ALA762  ILE779  LEU786  VAL792 
 PHE793  MET794  SER795  GLU796  ALA797  LYS798  CYS799  TRP800  GLU811  SER814 

> <Gold.Protein.RotatedAtoms>
  151.8120  133.3383  159.3558 H   0  0  0  0  0  0  0  0  0  0  0  0  # atno 6907 bound_to 6896
  150.7323  134.5654  159.5873 H   0  0  0  0  0  0  0  0  0  0  0  0  # atno 6908 bound_to 6896
  152.3068  134.7547  160.0397 H   0  0  0  0  0  0  0  0  0  0  0  0  # atno 6909 bound_to 6896
  144.8504  140.6056  143.5393 H   0  0  0  0  0  0  0  0  0  0  0  0  # atno 7974 bound_to 7965
  154.4950  140.2132  155.9466 H   0  0  0  0  0  0  0  0  0  0  0  0  # atno 8008 bound_to 7997
  156.1358  140.3189  155.8387 H   0  0  0  0  0  0  0  0  0  0  0  0  # atno 8009 bound_to 7997
  155.4212  140.0497  157.3016 H   0  0  0  0  0  0  0  0  0  0  0  0  # atno 8010 bound_to 7997
  140.1274  143.4390  152.1650 H   0  0  0  0  0  0  0  0  0  0  0  0  # atno 10167 bound_to 10162
  156.3289  130.7575  151.1688 H   0  0  0  0  0  0  0  0  0  0  0  0  # atno 10718 bound_to 10713
  153.7321  135.3237  155.3288 H   0  0  0  0  0  0  0  0  0  0  0  0  # atno 10763 bound_to 10752
  154.8322  135.4524  154.1111 H   0  0  0  0  0  0  0  0  0  0  0  0  # atno 10764 bound_to 10752
  153.2262  135.6954  153.8024 H   0  0  0  0  0  0  0  0  0  0  0  0  # atno 10765 bound_to 10752
  140.0729  134.5444  155.9027 H   0  0  0  0  0  0  0  0  0  0  0  0  # atno 11005 bound_to 11000
  145.4511  139.1523  143.3918 LP  0  0  0  0  0  0  0  0  0  0  0  0  # atno 17320 bound_to 7965
  146.2780  140.4636  142.8787 LP  0  0  0  0  0  0  0  0  0  0  0  0  # atno 17321 bound_to 7965
  139.5537  144.7357  151.4357 LP  0  0  0  0  0  0  0  0  0  0  0  0  # atno 17342 bound_to 10162
  140.6837  143.8023  150.7156 LP  0  0  0  0  0  0  0  0  0  0  0  0  # atno 17343 bound_to 10162
  157.7426  131.0487  150.5008 LP  0  0  0  0  0  0  0  0  0  0  0  0  # atno 17370 bound_to 10713
  156.5171  130.4153  149.6270 LP  0  0  0  0  0  0  0  0  0  0  0  0  # atno 17371 bound_to 10713
  141.2019  133.6621  156.5974 LP  0  0  0  0  0  0  0  0  0  0  0  0  # atno 17394 bound_to 11000
  140.3600  134.7695  157.4527 LP  0  0  0  0  0  0  0  0  0  0  0  0  # atno 17395 bound_to 11000

$$$$
