AV-unprocessed.smi:224|AV-procd|sdf|1718|dock3
  -GOLD-   2262020193D 1   1.00000     0.00000
 Structure written by MMmdl.
 56 59  0  0  0  0  0  0  0  0  2 V2000
  145.5775  132.6440  149.7416 C   0  0  0  0  0  0  0  0  0  0  0  0
  145.3131  133.7493  150.7749 C   0  0  1  0  0  0  0  0  0  0  0  0
  145.0169  134.9414  150.0789 O   0  0  0  0  0  0  0  0  0  0  0  0
  144.1305  133.4281  151.7127 C   0  0  0  0  0  0  0  0  0  0  0  0
  144.4401  133.6874  153.1487 N   0  3  1  0  0  0  0  0  0  0  0  0
  145.7866  133.1599  153.5134 C   0  0  0  0  0  0  0  0  0  0  0  0
  146.1215  133.3865  154.9965 C   0  0  0  0  0  0  0  0  0  0  0  0
  145.9502  134.7866  155.3644 N   0  0  0  0  0  0  0  0  0  0  0  0
  146.9910  135.6512  155.2257 C   0  0  0  0  0  0  0  0  0  0  0  0
  148.2402  135.2725  155.6071 N   0  0  0  0  0  0  0  0  0  0  0  0
  149.2737  136.1083  155.4727 C   0  0  0  0  0  0  0  0  0  0  0  0
  149.2815  137.3530  154.9945 N   0  0  0  0  0  0  0  0  0  0  0  0
  148.0307  137.7481  154.6230 C   0  0  0  0  0  0  0  0  0  0  0  0
  146.8423  136.9671  154.7001 C   0  0  0  0  0  0  0  0  0  0  0  0
  145.7615  137.7094  154.2383 N   0  0  0  0  0  0  0  0  0  0  0  0
  146.2814  138.8584  153.9025 C   0  0  0  0  0  0  0  0  0  0  0  0
  147.6373  138.9713  154.1091 N   0  0  0  0  0  0  0  0  0  0  0  0
  148.4630  140.1384  153.8384 C   0  0  0  0  0  0  0  0  0  0  0  0
  147.9970  141.4050  154.5938 C   0  0  1  0  0  0  0  0  0  0  0  0
  148.9877  142.4099  154.4585 O   0  0  0  0  0  0  0  0  0  0  0  0
  146.6656  141.9697  154.1081 C   0  0  0  0  0  0  0  0  0  0  0  0
  146.0864  142.5974  155.3679 C   0  0  0  0  0  0  0  0  0  0  0  0
  146.4392  141.6607  156.3718 O   0  0  0  0  0  0  0  0  0  0  0  0
  147.7467  141.1667  156.0964 C   0  0  0  0  0  0  0  0  0  0  0  0
  144.6220  135.3042  155.0626 C   0  0  0  0  0  0  0  0  0  0  0  0
  144.2527  135.1135  153.5734 C   0  0  2  0  0  0  0  0  0  0  0  0
  142.8085  135.6181  153.3727 C   0  0  0  0  0  0  0  0  0  0  0  0
  145.8538  131.7074  150.2265 H   0  0  0  0  0  0  0  0  0  0  0  0
  146.3956  132.9182  149.0746 H   0  0  0  0  0  0  0  0  0  0  0  0
  144.6969  132.4529  149.1272 H   0  0  0  0  0  0  0  0  0  0  0  0
  146.2228  133.9392  151.3427 H   0  0  0  0  0  0  0  0  0  0  0  0
  145.2027  134.8140  149.1608 H   0  0  0  0  0  0  0  0  0  0  0  0
  143.2491  134.0059  151.4286 H   0  0  0  0  0  0  0  0  0  0  0  0
  143.8648  132.3882  151.5416 H   0  0  0  0  0  0  0  0  0  0  0  0
  145.8498  132.0923  153.3105 H   0  0  0  0  0  0  0  0  0  0  0  0
  146.5392  133.6384  152.8854 H   0  0  0  0  0  0  0  0  0  0  0  0
  145.4534  132.7888  155.6175 H   0  0  0  0  0  0  0  0  0  0  0  0
  147.1318  133.0425  155.2232 H   0  0  0  0  0  0  0  0  0  0  0  0
  150.2310  135.7258  155.7949 H   0  0  0  0  0  0  0  0  0  0  0  0
  145.6846  139.6653  153.5019 H   0  0  0  0  0  0  0  0  0  0  0  0
  149.4928  139.8984  154.1060 H   0  0  0  0  0  0  0  0  0  0  0  0
  148.4618  140.3183  152.7625 H   0  0  0  0  0  0  0  0  0  0  0  0
  148.7949  143.1040  155.0702 H   0  0  0  0  0  0  0  0  0  0  0  0
  146.7583  142.6707  153.2774 H   0  0  0  0  0  0  0  0  0  0  0  0
  146.0065  141.1618  153.7890 H   0  0  0  0  0  0  0  0  0  0  0  0
  146.5545  143.5600  155.5794 H   0  0  0  0  0  0  0  0  0  0  0  0
  145.0072  142.7410  155.3117 H   0  0  0  0  0  0  0  0  0  0  0  0
  147.7845  140.1090  156.3593 H   0  0  0  0  0  0  0  0  0  0  0  0
  148.4758  141.6835  156.7230 H   0  0  0  0  0  0  0  0  0  0  0  0
  143.9055  134.7750  155.6922 H   0  0  0  0  0  0  0  0  0  0  0  0
  144.5330  136.3565  155.3286 H   0  0  0  0  0  0  0  0  0  0  0  0
  144.9226  135.7332  152.9745 H   0  0  0  0  0  0  0  0  0  0  0  0
  142.6676  136.5874  153.8524 H   0  0  0  0  0  0  0  0  0  0  0  0
  142.0829  134.9304  153.8085 H   0  0  0  0  0  0  0  0  0  0  0  0
  142.5521  135.7660  152.3249 H   0  0  0  0  0  0  0  0  0  0  0  0
  143.7688  133.1564  153.6845 H   0  0  0  0  0  0  0  0  0  0  0  0
  1  2  1  0  0  0  0
  1 28  1  0  0  0  0
  1 29  1  0  0  0  0
  1 30  1  0  0  0  0
  2  3  1  0  0  0  0
  2  4  1  0  0  0  0
  2 31  1  0  0  0  0
  3 32  1  0  0  0  0
  4  5  1  0  0  0  0
  4 33  1  0  0  0  0
  4 34  1  0  0  0  0
  5 26  1  0  0  0  0
  5  6  1  0  0  0  0
  5 56  1  0  0  0  0
  6  7  1  0  0  0  0
  6 35  1  0  0  0  0
  6 36  1  0  0  0  0
  7  8  1  0  0  0  0
  7 37  1  0  0  0  0
  7 38  1  0  0  0  0
  8  9  1  0  0  0  0
  8 25  1  0  0  0  0
  9 14  1  0  0  0  0
  9 10  2  0  0  0  0
 10 11  1  0  0  0  0
 11 12  2  0  0  0  0
 11 39  1  0  0  0  0
 12 13  1  0  0  0  0
 13 17  1  0  0  0  0
 13 14  2  0  0  0  0
 14 15  1  0  0  0  0
 15 16  2  0  0  0  0
 16 17  1  0  0  0  0
 16 40  1  0  0  0  0
 17 18  1  0  0  0  0
 18 19  1  0  0  0  0
 18 41  1  0  0  0  0
 18 42  1  0  0  0  0
 19 24  1  0  0  0  0
 19 20  1  0  0  0  0
 19 21  1  0  0  0  0
 20 43  1  0  0  0  0
 21 22  1  0  0  0  0
 21 44  1  0  0  0  0
 21 45  1  0  0  0  0
 22 23  1  0  0  0  0
 22 46  1  0  0  0  0
 22 47  1  0  0  0  0
 23 24  1  0  0  0  0
 24 48  1  0  0  0  0
 24 49  1  0  0  0  0
 25 26  1  0  0  0  0
 25 50  1  0  0  0  0
 25 51  1  0  0  0  0
 26 27  1  0  0  0  0
 26 52  1  0  0  0  0
 27 53  1  0  0  0  0
 27 54  1  0  0  0  0
 27 55  1  0  0  0  0
M  CHG  1   5   1
M  END
> <s_m_source_file>
AV-unprocessed.smi

> <i_m_source_file_index>
224

> <i_lp_mmshare_version>
43012

> <i_f3d_flags>
0

> <s_epik_input>
W0NIM11bQ0BIXShbT0hdKVtDSDJdTjFbQ0gyXVtDSDJdTihbQ0gyXVtDQEhdMVtDSDNdKWMobltjSF1uMiljKGMyMyluW2NIXW4zW0NIMl1bQ0BAXTQoW09IXSlbQ0gyXVtDSDJdT1tDSDJdNA==

> <s_epik_cmdline>
J2VwaWtfcHl0aG9uJywgJy1waCcsICc3LjAnLCAnLXRuJywgJzgnLCAnLW1hJywgJzIwMCcsICctbWV0YWxfYmluZGluZycsICctaW1hZScsICc8aW5maWxlLm1hZT4nLCAnLW9tYWUnLCAnPG91dGZpbGUubWFlPic=

> <r_lp_tautomer_probability>
1

> <r_epik_Ionization_Penalty>
0.00516958

> <r_epik_Ionization_Penalty_Charging>
0.00509693

> <r_epik_Ionization_Penalty_Neutral>
7.26542e-05

> <r_epik_State_Penalty>
-0

> <r_epik_Charging_Adjusted_Penalty>
0.00509693

> <i_epik_Tot_Q>
1

> <i_epik_Tot_abs_Q>
1

> <r_epik_Metal_State_Penalty>
-0

> <b_epik_Metal_Only>
0

> <s_lp_Force_Field>
OPLS_2005

> <r_lp_Energy>
49.0033

> <b_lp_Chiralities_Consistent>
1

> <s_lp_Variant>
AV-unprocessed.smi:224-12

> <Gold.Version>
5.8.1

> <Gold.Id.Protein>
6NUR|6NUR_protein|mol2

> <Gold.PLP.Fitness>
43.9164

> <Gold.PLP.PLP>
-30.2766

> <Gold.PLP.part.hbond>
-4.0000

> <Gold.PLP.part.metal>
0.0000

> <Gold.PLP.part.buried>
-4.4938

> <Gold.PLP.part.nonpolar>
-22.6245

> <Gold.PLP.part.repulsive>
0.4034

> <Gold.PLP.ligand.clash>
0.0000

> <Gold.PLP.ligand.torsion>
1.1922

> <Gold.PLP.Chemscore.Hbond>
4.1724

> <Gold.PLP.Chemscore.CHOScore>
1.0000

> <Gold.PLP.Chemscore.Metal>
0.0000

> <Gold.Chemscore.Hbonds>
donor molecule, donor type, donor heavy atom, donor atom, acceptor molecule, acceptor atom, score
      L1  H     3    32       P1  7921  1.00
      L1  H     5    56       P1 10957  1.72
      L1  H    20    43       P1  8028  1.00
      P1  H  8011  8017       L1    20  0.07
      L1  C    16    40       P1 10175  1.00

> <Gold.PLP.Chemscore.Internal.Correction>
0.5071

> <Gold.Rescore>
     Score         DG    S(hbond)    S(metal)    S(lipo)     H(rot)  DE(clash)    DE(int)     intcor
     10.35     -14.53       3.11        0.00      62.16       3.36       0.76       3.42       ----

> <Gold.Chemscore.Fitness>
10.3479

> <Gold.Chemscore.DG>
-14.5306

> <Gold.Chemscore.ZeroCoef>
-5.4800

> <Gold.Chemscore.Hbond>
3.1086

> <Gold.Chemscore.Metal>
0.0000

> <Gold.Chemscore.Lipo>
62.1567

> <Gold.Chemscore.Internal_Hbond>
0.0000

> <Gold.Chemscore.DEClash>
0.7578

> <Gold.Chemscore.DEInternal>
3.4249

> <Gold.Chemscore.Rot>
3.3611

> <Gold.Chemscore.Internal.Correction>
   9.000000E+99

> <Gold.Chemscore.Hbonds>
donor molecule, donor type, donor heavy atom, donor atom, acceptor molecule, acceptor atom, score
      L1  H     3    32       P1  7921  0.99
      L1  H     5    56       P1 10957  0.81
      L1  H    20    43       P1  8028  0.98
      P1  H  8011  8017       L1    20  0.06

> <Gold.Chemscore.Hbond.Weighted>
-10.3827

> <Gold.Chemscore.Metal.Weighted>
-0.0000

> <Gold.Chemscore.Lipo.Weighted>
-7.2723

> <Gold.Chemscore.Internal_Hbond.Weighted>
0.0000

> <Gold.Chemscore.DEClash.Weighted>
0.7578

> <Gold.Chemscore.DEInternal.Weighted>
3.4249

> <Gold.Chemscore.Rot.Weighted>
8.6045

> <Gold.Chemscore.Internal.Correction.Weighted>
   9.000000E+99

> <Gold.Protein.RotatedTorsions>
[ 6907 6896 6895 6894 ] final  134.52 input  -60.11 | X-H torsion
[ 7974 7965 7964 7962 ] final -137.30 input  175.53 | X-H torsion
[ 8008 7997 7996 7995 ] final -139.49 input   59.86 | X-H torsion
[ 10167 10162 10161 10158 ] final -126.90 input  -65.29 | X-H torsion
[ 10718 10713 10712 10709 ] final  -74.76 input   66.30 | X-H torsion
[ 10763 10752 10751 10750 ] final   81.20 input  -60.55 | X-H torsion
[ 11005 11000 10999 10996 ] final  -94.84 input  -57.11 | X-H torsion

> <Gold.Protein.ActiveResidues>
 VAL166  LYS551  ARG553  GLY616  TRP617  ASP618  TYR619  PRO620  LYS621  CYS622 
 ASP623  PHE694  ASN695  SER759  ASP760  ASP761  ALA762  ILE779  LEU786  VAL792 
 PHE793  MET794  SER795  GLU796  ALA797  LYS798  CYS799  TRP800  GLU811  SER814 

> <Gold.Protein.RotatedAtoms>
  152.3104  133.5747  159.5676 H   0  0  0  0  0  0  0  0  0  0  0  0  # atno 6907 bound_to 6896
  150.7320  134.0160  159.3694 H   0  0  0  0  0  0  0  0  0  0  0  0  # atno 6908 bound_to 6896
  151.8053  135.0697  160.0457 H   0  0  0  0  0  0  0  0  0  0  0  0  # atno 6909 bound_to 6896
  144.8854  140.6567  143.5179 H   0  0  0  0  0  0  0  0  0  0  0  0  # atno 7974 bound_to 7965
  155.4457  140.0535  157.3006 H   0  0  0  0  0  0  0  0  0  0  0  0  # atno 8008 bound_to 7997
  154.4799  140.2077  155.9745 H   0  0  0  0  0  0  0  0  0  0  0  0  # atno 8009 bound_to 7997
  156.1189  140.3191  155.8185 H   0  0  0  0  0  0  0  0  0  0  0  0  # atno 8010 bound_to 7997
  139.9666  143.5891  152.2427 H   0  0  0  0  0  0  0  0  0  0  0  0  # atno 10167 bound_to 10162
  156.0231  130.4424  150.2940 H   0  0  0  0  0  0  0  0  0  0  0  0  # atno 10718 bound_to 10713
  153.1097  135.4774  154.9013 H   0  0  0  0  0  0  0  0  0  0  0  0  # atno 10763 bound_to 10752
  154.7467  135.3095  154.8634 H   0  0  0  0  0  0  0  0  0  0  0  0  # atno 10764 bound_to 10752
  153.9226  135.6853  153.4801 H   0  0  0  0  0  0  0  0  0  0  0  0  # atno 10765 bound_to 10752
  141.1459  133.7984  157.0354 H   0  0  0  0  0  0  0  0  0  0  0  0  # atno 11005 bound_to 11000
  145.3879  139.1623  143.4245 LP  0  0  0  0  0  0  0  0  0  0  0  0  # atno 17320 bound_to 7965
  146.3021  140.3965  142.8700 LP  0  0  0  0  0  0  0  0  0  0  0  0  # atno 17321 bound_to 7965
  139.6513  144.7661  151.2142 LP  0  0  0  0  0  0  0  0  0  0  0  0  # atno 17342 bound_to 10162
  140.7536  143.6156  150.8562 LP  0  0  0  0  0  0  0  0  0  0  0  0  # atno 17343 bound_to 10162
  157.1044  131.0204  151.3073 LP  0  0  0  0  0  0  0  0  0  0  0  0  # atno 17370 bound_to 10713
  157.4755  130.7734  149.7363 LP  0  0  0  0  0  0  0  0  0  0  0  0  # atno 17371 bound_to 10713
  140.0727  134.9693  157.1494 LP  0  0  0  0  0  0  0  0  0  0  0  0  # atno 17394 bound_to 11000
  140.3687  134.2414  155.7180 LP  0  0  0  0  0  0  0  0  0  0  0  0  # atno 17395 bound_to 11000

$$$$
