AV-unprocessed.smi:3018|AV-procd|sdf|11481|dock6
  -GOLD-   2272016423D 1   1.00000     0.00000
 Structure written by MMmdl.
 44 45  0  0  0  0  0  0  0  0  2 V2000
  150.3497  139.1407  156.7368 C   0  0  0  0  0  0  0  0  0  0  0  0
  151.0189  140.0666  155.7131 C   0  0  0  0  0  0  0  0  0  0  0  0
  150.4228  141.4868  155.7217 C   0  0  2  0  0  0  0  0  0  0  0  0
  150.3018  141.9038  157.0800 O   0  0  0  0  0  0  0  0  0  0  0  0
  151.5131  142.2664  157.7376 C   0  0  0  0  0  0  0  0  0  0  0  0
  151.4526  141.8378  159.2174 C   0  0  0  0  0  0  0  0  0  0  0  0
  152.6853  142.3292  159.9928 C   0  0  0  0  0  0  0  0  0  0  0  0
  152.8613  143.8508  159.8618 C   0  0  0  0  0  0  0  0  0  0  0  0
  152.9096  144.2835  158.3877 C   0  0  0  0  0  0  0  0  0  0  0  0
  151.6710  143.7918  157.6223 C   0  0  0  0  0  0  0  0  0  0  0  0
  149.0398  141.5324  155.0532 C   0  0  0  0  0  0  0  0  0  0  0  0
  148.9258  141.3625  153.8389 O   0  0  0  0  0  0  0  0  0  0  0  0
  147.9956  141.7417  155.8669 N   0  0  0  0  0  0  0  0  0  0  0  0
  146.5971  141.7044  155.4565 C   0  0  0  0  0  0  0  0  0  0  0  0
  145.7599  142.7405  156.2268 C   0  0  0  0  0  0  0  0  0  0  0  0
  146.0406  142.7492  157.7200 C   0  0  0  0  0  0  0  0  0  0  0  0
  145.8371  141.8240  158.5839 N   0  0  0  0  0  0  0  0  0  0  0  0
  146.2927  142.3773  159.8247 N   0  5  0  0  0  0  0  0  0  0  0  0
  146.7390  143.6300  159.5618 C   0  0  0  0  0  0  0  0  0  0  0  0
  147.2104  144.4562  160.3399 O   0  0  0  0  0  0  0  0  0  0  0  0
  146.5932  143.8730  158.2635 N   0  0  0  0  0  0  0  0  0  0  0  0
  146.8323  144.7192  157.7686 H   0  0  0  0  0  0  0  0  0  0  0  0
  150.7942  138.1457  156.7098 H   0  0  0  0  0  0  0  0  0  0  0  0
  149.2835  139.0342  156.5353 H   0  0  0  0  0  0  0  0  0  0  0  0
  150.4612  139.5282  157.7499 H   0  0  0  0  0  0  0  0  0  0  0  0
  152.0867  140.1130  155.9316 H   0  0  0  0  0  0  0  0  0  0  0  0
  150.9275  139.6285  154.7182 H   0  0  0  0  0  0  0  0  0  0  0  0
  151.1027  142.1444  155.1777 H   0  0  0  0  0  0  0  0  0  0  0  0
  152.3771  141.8033  157.2596 H   0  0  0  0  0  0  0  0  0  0  0  0
  150.5491  142.2402  159.6772 H   0  0  0  0  0  0  0  0  0  0  0  0
  151.3828  140.7535  159.2997 H   0  0  0  0  0  0  0  0  0  0  0  0
  152.5973  142.0546  161.0444 H   0  0  0  0  0  0  0  0  0  0  0  0
  153.5748  141.8240  159.6162 H   0  0  0  0  0  0  0  0  0  0  0  0
  152.0362  144.3579  160.3633 H   0  0  0  0  0  0  0  0  0  0  0  0
  153.7733  144.1642  160.3708 H   0  0  0  0  0  0  0  0  0  0  0  0
  152.9833  145.3690  158.3200 H   0  0  0  0  0  0  0  0  0  0  0  0
  153.8094  143.8853  157.9189 H   0  0  0  0  0  0  0  0  0  0  0  0
  151.7482  144.0774  156.5727 H   0  0  0  0  0  0  0  0  0  0  0  0
  150.7808  144.2857  158.0141 H   0  0  0  0  0  0  0  0  0  0  0  0
  148.1800  141.8669  156.8517 H   0  0  0  0  0  0  0  0  0  0  0  0
  146.5434  141.9084  154.3867 H   0  0  0  0  0  0  0  0  0  0  0  0
  146.1833  140.7056  155.6092 H   0  0  0  0  0  0  0  0  0  0  0  0
  145.9361  143.7353  155.8150 H   0  0  0  0  0  0  0  0  0  0  0  0
  144.6996  142.5345  156.0787 H   0  0  0  0  0  0  0  0  0  0  0  0
  1  2  1  0  0  0  0
  1 23  1  0  0  0  0
  1 24  1  0  0  0  0
  1 25  1  0  0  0  0
  2  3  1  0  0  0  0
  2 26  1  0  0  0  0
  2 27  1  0  0  0  0
  3  4  1  0  0  0  0
  3 11  1  0  0  0  0
  3 28  1  0  0  0  0
  4  5  1  0  0  0  0
  5 10  1  0  0  0  0
  5  6  1  0  0  0  0
  5 29  1  0  0  0  0
  6  7  1  0  0  0  0
  6 30  1  0  0  0  0
  6 31  1  0  0  0  0
  7  8  1  0  0  0  0
  7 32  1  0  0  0  0
  7 33  1  0  0  0  0
  8  9  1  0  0  0  0
  8 34  1  0  0  0  0
  8 35  1  0  0  0  0
  9 10  1  0  0  0  0
  9 36  1  0  0  0  0
  9 37  1  0  0  0  0
 10 38  1  0  0  0  0
 10 39  1  0  0  0  0
 11 12  2  0  0  0  0
 11 13  1  0  0  0  0
 13 14  1  0  0  0  0
 13 40  1  0  0  0  0
 14 15  1  0  0  0  0
 14 41  1  0  0  0  0
 14 42  1  0  0  0  0
 15 16  1  0  0  0  0
 15 43  1  0  0  0  0
 15 44  1  0  0  0  0
 16 21  1  0  0  0  0
 16 17  2  0  0  0  0
 17 18  1  0  0  0  0
 18 19  1  0  0  0  0
 19 20  2  0  0  0  0
 19 21  1  0  0  0  0
 21 22  1  0  0  0  0
M  CHG  1  18  -1
M  END
> <s_m_source_file>
AV-unprocessed.smi

> <i_m_source_file_index>
3018

> <i_lp_mmshare_version>
43012

> <i_f3d_flags>
0

> <s_epik_input>
W0NIMl0xW0NIMl1bQ0gyXVtDSDJdW0NIMl1bQ0hdMU9bQ0BASF0oW0NIMl1bQ0gzXSlDKD1PKVtOSF1bQ0gyXVtDSDJdYzJuW25IXWMoPU8pW25IXTI=

> <s_epik_cmdline>
J2VwaWtfcHl0aG9uJywgJy1waCcsICc3LjAnLCAnLXRuJywgJzgnLCAnLW1hJywgJzIwMCcsICctbWV0YWxfYmluZGluZycsICctaW1hZScsICc8aW5maWxlLm1hZT4nLCAnLW9tYWUnLCAnPG91dGZpbGUubWFlPic=

> <r_lp_tautomer_probability>
1

> <r_epik_Ionization_Penalty>
14.1812

> <r_epik_Ionization_Penalty_Charging>
13.7758

> <r_epik_Ionization_Penalty_Neutral>
0.405355

> <r_epik_State_Penalty>
4.92413

> <r_epik_Charging_Adjusted_Penalty>
18.7

> <i_epik_Tot_Q>
-1

> <i_epik_Tot_abs_Q>
1

> <r_epik_Metal_State_Penalty>
1.32654

> <b_epik_Metal_Only>
1

> <s_lp_Force_Field>
OPLS_2005

> <r_lp_Energy>
19.863

> <b_lp_Chiralities_Consistent>
1

> <s_lp_Variant>
AV-unprocessed.smi:3018-3

> <Gold.Version>
5.8.1

> <Gold.Id.Protein>
6NUR|6NUR_protein|mol2

> <Gold.PLP.Fitness>
46.8702

> <Gold.PLP.PLP>
-37.7546

> <Gold.PLP.part.hbond>
-4.1099

> <Gold.PLP.part.metal>
0.0000

> <Gold.PLP.part.buried>
-3.6502

> <Gold.PLP.part.nonpolar>
-28.7772

> <Gold.PLP.part.repulsive>
0.6082

> <Gold.PLP.ligand.clash>
0.0000

> <Gold.PLP.ligand.torsion>
1.1045

> <Gold.PLP.Chemscore.Hbond>
3.7200

> <Gold.PLP.Chemscore.CHOScore>
0.0000

> <Gold.PLP.Chemscore.Metal>
0.0000

> <Gold.Chemscore.Hbonds>
donor molecule, donor type, donor heavy atom, donor atom, acceptor molecule, acceptor atom, score
      L1  H    21    22       P1  8029  1.00
      P1  H  6934  6946       L1    18  2.00
      P1  H  8011  8017       L1    12  0.78

> <Gold.PLP.Chemscore.Internal.Correction>
0.1646

> <Gold.Rescore>
     Score         DG    S(hbond)    S(metal)    S(lipo)     H(rot)  DE(clash)    DE(int)     intcor
     13.26     -14.76       1.75        0.00      94.45       2.98       0.12       1.38       ----

> <Gold.Chemscore.Fitness>
13.2596

> <Gold.Chemscore.DG>
-14.7557

> <Gold.Chemscore.ZeroCoef>
-5.4800

> <Gold.Chemscore.Hbond>
1.7505

> <Gold.Chemscore.Metal>
0.0000

> <Gold.Chemscore.Lipo>
94.4487

> <Gold.Chemscore.Internal_Hbond>
0.0000

> <Gold.Chemscore.DEClash>
0.1168

> <Gold.Chemscore.DEInternal>
1.3793

> <Gold.Chemscore.Rot>
2.9772

> <Gold.Chemscore.Internal.Correction>
   9.000000E+99

> <Gold.Chemscore.Hbonds>
donor molecule, donor type, donor heavy atom, donor atom, acceptor molecule, acceptor atom, score
      L1  H    21    22       P1  8029  0.29
      P1  H  6934  6946       L1    18  0.35
      P1  H  8011  8017       L1    12  0.72

> <Gold.Chemscore.Hbond.Weighted>
-5.8468

> <Gold.Chemscore.Metal.Weighted>
-0.0000

> <Gold.Chemscore.Lipo.Weighted>
-11.0505

> <Gold.Chemscore.Internal_Hbond.Weighted>
0.0000

> <Gold.Chemscore.DEClash.Weighted>
0.1168

> <Gold.Chemscore.DEInternal.Weighted>
1.3793

> <Gold.Chemscore.Rot.Weighted>
7.6216

> <Gold.Chemscore.Internal.Correction.Weighted>
   9.000000E+99

> <Gold.Protein.RotatedTorsions>
[ 6907 6896 6895 6894 ] final -168.82 input  -60.11 | X-H torsion
[ 7974 7965 7964 7962 ] final -154.21 input  175.53 | X-H torsion
[ 8008 7997 7996 7995 ] final   43.15 input   59.86 | X-H torsion
[ 10167 10162 10161 10158 ] final  -99.09 input  -65.29 | X-H torsion
[ 10718 10713 10712 10709 ] final -162.20 input   66.30 | X-H torsion
[ 10763 10752 10751 10750 ] final  135.71 input  -60.55 | X-H torsion
[ 11005 11000 10999 10996 ] final -158.11 input  -57.11 | X-H torsion

> <Gold.Protein.ActiveResidues>
 VAL166  LYS551  ARG553  GLY616  TRP617  ASP618  TYR619  PRO620  LYS621  CYS622 
 ASP623  PHE694  ASN695  SER759  ASP760  ASP761  ALA762  ILE779  LEU786  VAL792 
 PHE793  MET794  SER795  GLU796  ALA797  LYS798  CYS799  TRP800  GLU811  SER814 

> <Gold.Protein.RotatedAtoms>
  151.4818  133.3545  159.2839 H   0  0  0  0  0  0  0  0  0  0  0  0  # atno 6907 bound_to 6896
  150.8892  134.8296  159.7292 H   0  0  0  0  0  0  0  0  0  0  0  0  # atno 6908 bound_to 6896
  152.4812  134.4725  159.9692 H   0  0  0  0  0  0  0  0  0  0  0  0  # atno 6909 bound_to 6896
  144.7701  140.4420  143.5913 H   0  0  0  0  0  0  0  0  0  0  0  0  # atno 7974 bound_to 7965
  155.2979  140.3383  155.4249 H   0  0  0  0  0  0  0  0  0  0  0  0  # atno 8008 bound_to 7997
  156.2015  140.1734  156.7929 H   0  0  0  0  0  0  0  0  0  0  0  0  # atno 8009 bound_to 7997
  154.5565  140.0695  156.8736 H   0  0  0  0  0  0  0  0  0  0  0  0  # atno 8010 bound_to 7997
  140.2662  143.3374  152.0579 H   0  0  0  0  0  0  0  0  0  0  0  0  # atno 10167 bound_to 10162
  156.6070  130.8834  151.2927 H   0  0  0  0  0  0  0  0  0  0  0  0  # atno 10718 bound_to 10713
  153.8445  135.3087  155.3428 H   0  0  0  0  0  0  0  0  0  0  0  0  # atno 10763 bound_to 10752
  154.7918  135.4778  154.0073 H   0  0  0  0  0  0  0  0  0  0  0  0  # atno 10764 bound_to 10752
  153.1555  135.6851  153.8910 H   0  0  0  0  0  0  0  0  0  0  0  0  # atno 10765 bound_to 10752
  140.6572  134.4388  157.5235 H   0  0  0  0  0  0  0  0  0  0  0  0  # atno 11005 bound_to 11000
  145.6350  139.1541  143.2948 LP  0  0  0  0  0  0  0  0  0  0  0  0  # atno 17320 bound_to 7965
  146.1841  140.6451  142.9176 LP  0  0  0  0  0  0  0  0  0  0  0  0  # atno 17321 bound_to 7965
  139.5002  144.6687  151.6295 LP  0  0  0  0  0  0  0  0  0  0  0  0  # atno 17342 bound_to 10162
  140.5927  143.9752  150.6334 LP  0  0  0  0  0  0  0  0  0  0  0  0  # atno 17343 bound_to 10162
  157.7264  130.9629  150.1656 LP  0  0  0  0  0  0  0  0  0  0  0  0  # atno 17370 bound_to 10713
  156.2421  130.3692  149.8325 LP  0  0  0  0  0  0  0  0  0  0  0  0  # atno 17371 bound_to 10713
  139.9025  134.8523  156.1836 LP  0  0  0  0  0  0  0  0  0  0  0  0  # atno 17394 bound_to 11000
  141.0492  133.6897  156.1741 LP  0  0  0  0  0  0  0  0  0  0  0  0  # atno 17395 bound_to 11000

$$$$
