AV-unprocessed.smi:616|AV-procd|sdf|3072|dock3
  -GOLD-   2262023593D 1   1.00000     0.00000
 Structure written by MMmdl.
 34 35  0  0  0  0  0  0  0  0  1 V2000
  150.8618  144.8076  159.7960 C   0  0  0  0  0  0  0  0  0  0  0  0
  151.7058  143.5710  160.0579 C   0  0  0  0  0  0  0  0  0  0  0  0
  152.4507  143.4930  161.1832 C   0  0  0  0  0  0  0  0  0  0  0  0
  153.2857  142.3340  161.5019 C   0  0  0  0  0  0  0  0  0  0  0  0
  153.9651  142.2749  162.5271 O   0  0  0  0  0  0  0  0  0  0  0  0
  153.2612  141.3247  160.5887 N   0  0  0  0  0  0  0  0  0  0  0  0
  154.0630  140.1188  160.8138 C   0  0  0  0  0  0  0  0  0  0  0  0
  152.4966  141.3954  159.4117 C   0  0  0  0  0  0  0  0  0  0  0  0
  151.7240  142.4632  159.1103 C   0  0  0  0  0  0  0  0  0  0  0  0
  150.9495  142.5845  157.9432 N   0  0  0  0  0  0  0  0  0  0  0  0
  150.7713  141.7166  156.9290 C   0  0  0  0  0  0  0  0  0  0  0  0
  151.2605  140.5905  156.8432 O   0  0  0  0  0  0  0  0  0  0  0  0
  149.9654  142.2382  155.9934 N   0  0  0  0  0  0  0  0  0  0  0  0
  149.5561  141.5593  154.7708 C   0  0  0  0  0  0  0  0  0  0  0  0
  148.0669  141.2972  154.6541 C   0  0  0  0  0  0  0  0  0  0  0  0
  147.4190  141.0444  153.3123 C   0  0  0  0  0  0  0  0  0  0  0  0
  147.1556  142.3371  154.0447 C   0  0  0  0  0  0  0  0  0  0  0  0
  150.9616  145.5423  160.5957 H   0  0  0  0  0  0  0  0  0  0  0  0
  149.8083  144.5375  159.7183 H   0  0  0  0  0  0  0  0  0  0  0  0
  151.1658  145.2838  158.8635 H   0  0  0  0  0  0  0  0  0  0  0  0
  152.4368  144.3141  161.8852 H   0  0  0  0  0  0  0  0  0  0  0  0
  153.8821  139.3444  160.0678 H   0  0  0  0  0  0  0  0  0  0  0  0
  153.8394  139.6816  161.7882 H   0  0  0  0  0  0  0  0  0  0  0  0
  155.1265  140.3598  160.7857 H   0  0  0  0  0  0  0  0  0  0  0  0
  152.6011  140.5244  158.7863 H   0  0  0  0  0  0  0  0  0  0  0  0
  150.4532  143.4601  157.8640 H   0  0  0  0  0  0  0  0  0  0  0  0
  149.6045  143.1698  156.1394 H   0  0  0  0  0  0  0  0  0  0  0  0
  149.8556  142.1870  153.9314 H   0  0  0  0  0  0  0  0  0  0  0  0
  150.1052  140.6222  154.6612 H   0  0  0  0  0  0  0  0  0  0  0  0
  147.6509  140.7534  155.5004 H   0  0  0  0  0  0  0  0  0  0  0  0
  148.0504  141.0884  152.4272 H   0  0  0  0  0  0  0  0  0  0  0  0
  146.6143  140.3132  153.2744 H   0  0  0  0  0  0  0  0  0  0  0  0
  146.1736  142.4694  154.4939 H   0  0  0  0  0  0  0  0  0  0  0  0
  147.6113  143.2403  153.6439 H   0  0  0  0  0  0  0  0  0  0  0  0
  1  2  1  0  0  0  0
  1 18  1  0  0  0  0
  1 19  1  0  0  0  0
  1 20  1  0  0  0  0
  2  9  1  0  0  0  0
  2  3  2  0  0  0  0
  3  4  1  0  0  0  0
  3 21  1  0  0  0  0
  4  5  2  0  0  0  0
  4  6  1  0  0  0  0
  6  7  1  0  0  0  0
  6  8  1  0  0  0  0
  7 22  1  0  0  0  0
  7 23  1  0  0  0  0
  7 24  1  0  0  0  0
  8  9  2  0  0  0  0
  8 25  1  0  0  0  0
  9 10  1  0  0  0  0
 10 11  1  0  0  0  0
 10 26  1  0  0  0  0
 11 12  2  0  0  0  0
 11 13  1  0  0  0  0
 13 14  1  0  0  0  0
 13 27  1  0  0  0  0
 14 15  1  0  0  0  0
 14 28  1  0  0  0  0
 14 29  1  0  0  0  0
 15 17  1  0  0  0  0
 15 16  1  0  0  0  0
 15 30  1  0  0  0  0
 16 17  1  0  0  0  0
 16 31  1  0  0  0  0
 16 32  1  0  0  0  0
 17 33  1  0  0  0  0
 17 34  1  0  0  0  0
M  END
> <s_m_source_file>
AV-unprocessed.smi

> <i_m_source_file_index>
616

> <i_lp_mmshare_version>
43012

> <i_f3d_flags>
0

> <s_epik_input>
W0NIM11jMVtjSF1jKD1PKW4oW0NIM10pW2NIXWMxW05IXUMoPU8pW05IXVtDSDJdW0NIXTJbQ0gyXVtDSDJdMg==

> <s_epik_cmdline>
J2VwaWtfcHl0aG9uJywgJy1waCcsICc3LjAnLCAnLXRuJywgJzgnLCAnLW1hJywgJzIwMCcsICctbWV0YWxfYmluZGluZycsICctaW1hZScsICc8aW5maWxlLm1hZT4nLCAnLW9tYWUnLCAnPG91dGZpbGUubWFlPic=

> <r_lp_tautomer_probability>
1

> <r_epik_Ionization_Penalty>
2.97505e-05

> <r_epik_Ionization_Penalty_Charging>
8.23988e-06

> <r_epik_Ionization_Penalty_Neutral>
2.15106e-05

> <r_epik_State_Penalty>
-0

> <r_epik_Charging_Adjusted_Penalty>
8.23988e-06

> <i_epik_Tot_Q>
0

> <i_epik_Tot_abs_Q>
0

> <r_epik_Metal_State_Penalty>
-0

> <b_epik_Metal_Only>
0

> <s_lp_Force_Field>
OPLS_2005

> <r_lp_Energy>
26.2007

> <b_lp_Chiralities_Consistent>
1

> <s_lp_Variant>
AV-unprocessed.smi:616-1

> <Gold.Version>
5.8.1

> <Gold.Id.Protein>
6NUR|6NUR_protein|mol2

> <Gold.PLP.Fitness>
44.6743

> <Gold.PLP.PLP>
-41.6870

> <Gold.PLP.part.hbond>
-2.0000

> <Gold.PLP.part.metal>
0.0000

> <Gold.PLP.part.buried>
-4.6643

> <Gold.PLP.part.nonpolar>
-34.6148

> <Gold.PLP.part.repulsive>
0.1773

> <Gold.PLP.ligand.clash>
0.0000

> <Gold.PLP.ligand.torsion>
0.2759

> <Gold.PLP.Chemscore.Hbond>
1.0000

> <Gold.PLP.Chemscore.CHOScore>
0.0000

> <Gold.PLP.Chemscore.Metal>
0.0000

> <Gold.Chemscore.Hbonds>
donor molecule, donor type, donor heavy atom, donor atom, acceptor molecule, acceptor atom, score
      L1  H    13    27       P1  8028  1.00

> <Gold.PLP.Chemscore.Internal.Correction>
0.5391

> <Gold.Rescore>
     Score         DG    S(hbond)    S(metal)    S(lipo)     H(rot)  DE(clash)    DE(int)     intcor
     14.17     -15.64       0.95        0.00      85.55       1.18       0.04       1.43       ----

> <Gold.Chemscore.Fitness>
14.1713

> <Gold.Chemscore.DG>
-15.6388

> <Gold.Chemscore.ZeroCoef>
-5.4800

> <Gold.Chemscore.Hbond>
0.9526

> <Gold.Chemscore.Metal>
0.0000

> <Gold.Chemscore.Lipo>
85.5474

> <Gold.Chemscore.Internal_Hbond>
0.0000

> <Gold.Chemscore.DEClash>
0.0402

> <Gold.Chemscore.DEInternal>
1.4272

> <Gold.Chemscore.Rot>
1.1844

> <Gold.Chemscore.Internal.Correction>
   9.000000E+99

> <Gold.Chemscore.Hbonds>
donor molecule, donor type, donor heavy atom, donor atom, acceptor molecule, acceptor atom, score
      L1  H    13    27       P1  8028  0.99

> <Gold.Chemscore.Hbond.Weighted>
-3.1817

> <Gold.Chemscore.Metal.Weighted>
-0.0000

> <Gold.Chemscore.Lipo.Weighted>
-10.0090

> <Gold.Chemscore.Internal_Hbond.Weighted>
0.0000

> <Gold.Chemscore.DEClash.Weighted>
0.0402

> <Gold.Chemscore.DEInternal.Weighted>
1.4272

> <Gold.Chemscore.Rot.Weighted>
3.0320

> <Gold.Chemscore.Internal.Correction.Weighted>
   9.000000E+99

> <Gold.Protein.RotatedTorsions>
[ 6907 6896 6895 6894 ] final  -36.98 input  -60.11 | X-H torsion
[ 7974 7965 7964 7962 ] final -127.01 input  175.53 | X-H torsion
[ 8008 7997 7996 7995 ] final   10.26 input   59.86 | X-H torsion
[ 10167 10162 10161 10158 ] final  137.22 input  -65.29 | X-H torsion
[ 10718 10713 10712 10709 ] final   48.12 input   66.30 | X-H torsion
[ 10763 10752 10751 10750 ] final -165.82 input  -60.55 | X-H torsion
[ 11005 11000 10999 10996 ] final   35.75 input  -57.11 | X-H torsion

> <Gold.Protein.ActiveResidues>
 VAL166  LYS551  ARG553  GLY616  TRP617  ASP618  TYR619  PRO620  LYS621  CYS622 
 ASP623  PHE694  ASN695  SER759  ASP760  ASP761  ALA762  ILE779  LEU786  VAL792 
 PHE793  MET794  SER795  GLU796  ALA797  LYS798  CYS799  TRP800  GLU811  SER814 

> <Gold.Protein.RotatedAtoms>
  151.0204  134.9464  159.8055 H   0  0  0  0  0  0  0  0  0  0  0  0  # atno 6907 bound_to 6896
  152.5323  134.2911  159.9053 H   0  0  0  0  0  0  0  0  0  0  0  0  # atno 6908 bound_to 6896
  151.2919  133.4119  159.2668 H   0  0  0  0  0  0  0  0  0  0  0  0  # atno 6909 bound_to 6896
  144.9814  140.7644  143.4610 H   0  0  0  0  0  0  0  0  0  0  0  0  # atno 7974 bound_to 7965
  154.7911  140.2835  155.5991 H   0  0  0  0  0  0  0  0  0  0  0  0  # atno 8008 bound_to 7997
  156.2964  140.2604  156.2687 H   0  0  0  0  0  0  0  0  0  0  0  0  # atno 8009 bound_to 7997
  154.9669  140.0376  157.2206 H   0  0  0  0  0  0  0  0  0  0  0  0  # atno 8010 bound_to 7997
  139.5152  144.6422  151.5538 H   0  0  0  0  0  0  0  0  0  0  0  0  # atno 10167 bound_to 10162
  157.4655  130.8223  149.7931 H   0  0  0  0  0  0  0  0  0  0  0  0  # atno 10718 bound_to 10713
  154.6894  135.2968  154.9501 H   0  0  0  0  0  0  0  0  0  0  0  0  # atno 10763 bound_to 10752
  154.0469  135.6650  153.4800 H   0  0  0  0  0  0  0  0  0  0  0  0  # atno 10764 bound_to 10752
  153.0601  135.5120  154.7978 H   0  0  0  0  0  0  0  0  0  0  0  0  # atno 10765 bound_to 10752
  140.2395  134.3432  155.7931 H   0  0  0  0  0  0  0  0  0  0  0  0  # atno 11005 bound_to 11000
  145.2415  139.2070  143.4990 LP  0  0  0  0  0  0  0  0  0  0  0  0  # atno 17320 bound_to 7965
  146.3409  140.2312  142.8593 LP  0  0  0  0  0  0  0  0  0  0  0  0  # atno 17321 bound_to 7965
  140.6193  143.9289  150.6513 LP  0  0  0  0  0  0  0  0  0  0  0  0  # atno 17342 bound_to 10162
  140.2557  143.3560  152.1367 LP  0  0  0  0  0  0  0  0  0  0  0  0  # atno 17343 bound_to 10162
  156.0048  130.3861  150.2471 LP  0  0  0  0  0  0  0  0  0  0  0  0  # atno 17370 bound_to 10713
  157.0650  131.0101  151.3209 LP  0  0  0  0  0  0  0  0  0  0  0  0  # atno 17371 bound_to 10713
  141.2212  133.7290  156.8862 LP  0  0  0  0  0  0  0  0  0  0  0  0  # atno 17394 bound_to 11000
  140.1668  134.9127  157.2784 LP  0  0  0  0  0  0  0  0  0  0  0  0  # atno 17395 bound_to 11000

$$$$
