AV-unprocessed.smi:3187|AV-procd|sdf|12179|dock6
  -GOLD-   2272018 23D 1   1.00000     0.00000
 Structure written by MMmdl.
 42 43  0  0  0  0  0  0  0  0  3 V2000
  151.5682  139.6790  158.7849 C   0  0  0  0  0  0  0  0  0  0  0  0
  151.9955  141.0787  159.1953 C   0  0  0  0  0  0  0  0  0  0  0  0
  153.1444  141.2772  159.8716 C   0  0  0  0  0  0  0  0  0  0  0  0
  153.6334  142.6246  160.3733 C   0  0  0  0  0  0  0  0  0  0  0  0
  152.7832  143.8013  159.8674 C   0  0  0  0  0  0  0  0  0  0  0  0
  151.2908  143.4321  159.8135 C   0  0  1  0  0  0  0  0  0  0  0  0
  150.3993  144.6573  159.5469 C   0  0  0  0  0  0  0  0  0  0  0  0
  151.0472  142.2354  158.8506 C   0  0  1  0  0  0  0  0  0  0  0  0
  151.1294  142.6345  157.3535 C   0  0  0  0  0  0  0  0  0  0  0  0
  149.8948  142.3184  156.6082 N   0  3  0  0  0  0  0  0  0  0  0  0
  149.9793  141.0943  155.7883 C   0  0  0  0  0  0  0  0  0  0  0  0
  149.4235  141.3357  154.3775 C   0  0  0  0  0  0  0  0  0  0  0  0
  147.9605  141.4070  154.3725 N   0  0  0  0  0  0  0  0  0  0  0  0
  147.1640  142.1773  155.1809 C   0  0  0  0  0  0  0  0  0  0  0  0
  145.8680  141.9120  154.8200 C   0  0  0  0  0  0  0  0  0  0  0  0
  145.9279  140.9928  153.8071 N   0  3  0  0  0  0  0  0  0  0  0  0
  147.2012  140.6872  153.5358 C   0  0  0  0  0  0  0  0  0  0  0  0
  150.5303  139.4969  159.0647 H   0  0  0  0  0  0  0  0  0  0  0  0
  152.1801  138.9231  159.2786 H   0  0  0  0  0  0  0  0  0  0  0  0
  151.6737  139.5270  157.7122 H   0  0  0  0  0  0  0  0  0  0  0  0
  153.7723  140.4327  160.1167 H   0  0  0  0  0  0  0  0  0  0  0  0
  153.6065  142.5954  161.4631 H   0  0  0  0  0  0  0  0  0  0  0  0
  154.6766  142.7636  160.0882 H   0  0  0  0  0  0  0  0  0  0  0  0
  152.9411  144.6643  160.5153 H   0  0  0  0  0  0  0  0  0  0  0  0
  153.1254  144.1027  158.8772 H   0  0  0  0  0  0  0  0  0  0  0  0
  151.0185  143.0858  160.8123 H   0  0  0  0  0  0  0  0  0  0  0  0
  150.6861  145.1825  158.6359 H   0  0  0  0  0  0  0  0  0  0  0  0
  150.4749  145.3736  160.3656 H   0  0  0  0  0  0  0  0  0  0  0  0
  149.3507  144.3713  159.4602 H   0  0  0  0  0  0  0  0  0  0  0  0
  150.0321  141.8859  159.0457 H   0  0  0  0  0  0  0  0  0  0  0  0
  151.2943  143.7058  157.2470 H   0  0  0  0  0  0  0  0  0  0  0  0
  151.9725  142.1338  156.8762 H   0  0  0  0  0  0  0  0  0  0  0  0
  149.1443  142.2068  157.2752 H   0  0  0  0  0  0  0  0  0  0  0  0
  151.0195  140.7704  155.7310 H   0  0  0  0  0  0  0  0  0  0  0  0
  149.4186  140.2969  156.2785 H   0  0  0  0  0  0  0  0  0  0  0  0
  149.8033  142.2737  153.9694 H   0  0  0  0  0  0  0  0  0  0  0  0
  149.7301  140.5405  153.6959 H   0  0  0  0  0  0  0  0  0  0  0  0
  147.5660  142.8406  155.9333 H   0  0  0  0  0  0  0  0  0  0  0  0
  144.9324  142.2985  155.1979 H   0  0  0  0  0  0  0  0  0  0  0  0
  147.5450  139.9945  152.7881 H   0  0  0  0  0  0  0  0  0  0  0  0
  149.6776  143.1002  156.0064 H   0  0  0  0  0  0  0  0  0  0  0  0
  145.1257  140.6002  153.3299 H   0  0  0  0  0  0  0  0  0  0  0  0
  1  2  1  0  0  0  0
  1 18  1  0  0  0  0
  1 19  1  0  0  0  0
  1 20  1  0  0  0  0
  2  8  1  0  0  0  0
  2  3  2  0  0  0  0
  3  4  1  0  0  0  0
  3 21  1  0  0  0  0
  4  5  1  0  0  0  0
  4 22  1  0  0  0  0
  4 23  1  0  0  0  0
  5  6  1  0  0  0  0
  5 24  1  0  0  0  0
  5 25  1  0  0  0  0
  6  7  1  0  0  0  0
  6  8  1  0  0  0  0
  6 26  1  0  0  0  0
  7 27  1  0  0  0  0
  7 28  1  0  0  0  0
  7 29  1  0  0  0  0
  8  9  1  0  0  0  0
  8 30  1  0  0  0  0
  9 10  1  0  0  0  0
  9 31  1  0  0  0  0
  9 32  1  0  0  0  0
 10 11  1  0  0  0  0
 10 33  1  0  0  0  0
 10 41  1  0  0  0  0
 11 12  1  0  0  0  0
 11 34  1  0  0  0  0
 11 35  1  0  0  0  0
 12 13  1  0  0  0  0
 12 36  1  0  0  0  0
 12 37  1  0  0  0  0
 13 17  1  0  0  0  0
 13 14  1  0  0  0  0
 14 15  2  0  0  0  0
 14 38  1  0  0  0  0
 15 16  1  0  0  0  0
 15 39  1  0  0  0  0
 16 17  2  0  0  0  0
 16 42  1  0  0  0  0
 17 40  1  0  0  0  0
M  CHG  1  10   1
M  CHG  1  16   1
M  END
> <s_m_source_file>
AV-unprocessed.smi

> <i_m_source_file_index>
3187

> <i_lp_mmshare_version>
43012

> <i_f3d_flags>
0

> <s_epik_input>
W0NIM11DMT1bQ0hdW0NIMl1bQ0gyXVtDQEBIXShbQ0gzXSlbQ0BIXTFbQ0gyXVtOSF1bQ0gyXVtDSDJdbjJbY0hdW2NIXW5bY0hdMg==

> <s_epik_cmdline>
J2VwaWtfcHl0aG9uJywgJy1waCcsICc3LjAnLCAnLXRuJywgJzgnLCAnLW1hJywgJzIwMCcsICctbWV0YWxfYmluZGluZycsICctaW1hZScsICc8aW5maWxlLm1hZT4nLCAnLW9tYWUnLCAnPG91dGZpbGUubWFlPic=

> <r_lp_tautomer_probability>
1

> <r_epik_Ionization_Penalty>
1.51066

> <r_epik_Ionization_Penalty_Charging>
0.0026721

> <r_epik_Ionization_Penalty_Neutral>
1.50798

> <r_epik_State_Penalty>
1.12593

> <r_epik_Charging_Adjusted_Penalty>
1.12861

> <i_epik_Tot_Q>
2

> <i_epik_Tot_abs_Q>
2

> <r_epik_Metal_State_Penalty>
5.12155

> <b_epik_Metal_Only>
0

> <s_lp_Force_Field>
OPLS_2005

> <r_lp_Energy>
24.2531

> <b_lp_Chiralities_Consistent>
1

> <s_lp_Variant>
AV-unprocessed.smi:3187-5

> <Gold.Version>
5.8.1

> <Gold.Id.Protein>
6NUR|6NUR_protein|mol2

> <Gold.PLP.Fitness>
51.9742

> <Gold.PLP.PLP>
-36.9410

> <Gold.PLP.part.hbond>
-2.0000

> <Gold.PLP.part.metal>
0.0000

> <Gold.PLP.part.buried>
-1.3444

> <Gold.PLP.part.nonpolar>
-33.9124

> <Gold.PLP.part.repulsive>
0.0533

> <Gold.PLP.ligand.clash>
0.0000

> <Gold.PLP.ligand.torsion>
1.4912

> <Gold.PLP.Chemscore.Hbond>
3.9840

> <Gold.PLP.Chemscore.CHOScore>
2.0000

> <Gold.PLP.Chemscore.Metal>
0.0000

> <Gold.Chemscore.Hbonds>
donor molecule, donor type, donor heavy atom, donor atom, acceptor molecule, acceptor atom, score
      L1  H    10    41       P1  8028  2.00
      L1  H    16    42       P1 10175  2.00
      L1  C    14    38       P1  8028  0.97
      L1  C    17    40       P1  7957  0.79

> <Gold.PLP.Chemscore.Internal.Correction>
0.0636

> <Gold.Rescore>
     Score         DG    S(hbond)    S(metal)    S(lipo)     H(rot)  DE(clash)    DE(int)     intcor
     17.44     -18.92       1.93        0.00     102.95       1.97       0.05       1.43       ----

> <Gold.Chemscore.Fitness>
17.4401

> <Gold.Chemscore.DG>
-18.9194

> <Gold.Chemscore.ZeroCoef>
-5.4800

> <Gold.Chemscore.Hbond>
1.9298

> <Gold.Chemscore.Metal>
0.0000

> <Gold.Chemscore.Lipo>
102.9494

> <Gold.Chemscore.Internal_Hbond>
0.0000

> <Gold.Chemscore.DEClash>
0.0465

> <Gold.Chemscore.DEInternal>
1.4328

> <Gold.Chemscore.Rot>
1.9732

> <Gold.Chemscore.Internal.Correction>
   9.000000E+99

> <Gold.Chemscore.Hbonds>
donor molecule, donor type, donor heavy atom, donor atom, acceptor molecule, acceptor atom, score
      L1  H    10    41       P1  8028  0.97
      L1  H    16    42       P1 10175  0.94

> <Gold.Chemscore.Hbond.Weighted>
-6.4457

> <Gold.Chemscore.Metal.Weighted>
-0.0000

> <Gold.Chemscore.Lipo.Weighted>
-12.0451

> <Gold.Chemscore.Internal_Hbond.Weighted>
0.0000

> <Gold.Chemscore.DEClash.Weighted>
0.0465

> <Gold.Chemscore.DEInternal.Weighted>
1.4328

> <Gold.Chemscore.Rot.Weighted>
5.0514

> <Gold.Chemscore.Internal.Correction.Weighted>
   9.000000E+99

> <Gold.Protein.RotatedTorsions>
[ 6907 6896 6895 6894 ] final -140.75 input  -60.11 | X-H torsion
[ 7974 7965 7964 7962 ] final   67.08 input  175.53 | X-H torsion
[ 8008 7997 7996 7995 ] final   44.83 input   59.86 | X-H torsion
[ 10167 10162 10161 10158 ] final  179.65 input  -65.29 | X-H torsion
[ 10718 10713 10712 10709 ] final  -22.34 input   66.30 | X-H torsion
[ 10763 10752 10751 10750 ] final -141.42 input  -60.55 | X-H torsion
[ 11005 11000 10999 10996 ] final  -67.33 input  -57.11 | X-H torsion

> <Gold.Protein.ActiveResidues>
 VAL166  LYS551  ARG553  GLY616  TRP617  ASP618  TYR619  PRO620  LYS621  CYS622 
 ASP623  PHE694  ASN695  SER759  ASP760  ASP761  ALA762  ILE779  LEU786  VAL792 
 PHE793  MET794  SER795  GLU796  ALA797  LYS798  CYS799  TRP800  GLU811  SER814 

> <Gold.Protein.RotatedAtoms>
  151.0647  133.5515  159.2631 H   0  0  0  0  0  0  0  0  0  0  0  0  # atno 6907 bound_to 6896
  151.2477  135.0610  159.9059 H   0  0  0  0  0  0  0  0  0  0  0  0  # atno 6908 bound_to 6896
  152.5403  134.0413  159.8122 H   0  0  0  0  0  0  0  0  0  0  0  0  # atno 6909 bound_to 6896
  145.8189  139.3074  143.1055 H   0  0  0  0  0  0  0  0  0  0  0  0  # atno 7974 bound_to 7965
  155.3257  140.3399  155.4240 H   0  0  0  0  0  0  0  0  0  0  0  0  # atno 8008 bound_to 7997
  156.1886  140.1689  156.8172 H   0  0  0  0  0  0  0  0  0  0  0  0  # atno 8009 bound_to 7997
  154.5416  140.0724  156.8502 H   0  0  0  0  0  0  0  0  0  0  0  0  # atno 8010 bound_to 7997
  139.5345  144.2536  152.0765 H   0  0  0  0  0  0  0  0  0  0  0  0  # atno 10167 bound_to 10162
  156.5059  130.4598  149.6675 H   0  0  0  0  0  0  0  0  0  0  0  0  # atno 10718 bound_to 10713
  154.8545  135.3525  154.5866 H   0  0  0  0  0  0  0  0  0  0  0  0  # atno 10763 bound_to 10752
  153.6476  135.6995  153.5224 H   0  0  0  0  0  0  0  0  0  0  0  0  # atno 10764 bound_to 10752
  153.2920  135.4232  155.1134 H   0  0  0  0  0  0  0  0  0  0  0  0  # atno 10765 bound_to 10752
  141.1505  133.6717  156.6277 H   0  0  0  0  0  0  0  0  0  0  0  0  # atno 11005 bound_to 11000
  145.9696  140.8771  143.0169 LP  0  0  0  0  0  0  0  0  0  0  0  0  # atno 17320 bound_to 7965
  144.6749  140.1927  143.7395 LP  0  0  0  0  0  0  0  0  0  0  0  0  # atno 17321 bound_to 7965
  140.2004  144.4663  150.6434 LP  0  0  0  0  0  0  0  0  0  0  0  0  # atno 17342 bound_to 10162
  140.6544  143.2233  151.6002 LP  0  0  0  0  0  0  0  0  0  0  0  0  # atno 17343 bound_to 10162
  156.3287  130.7320  151.2245 LP  0  0  0  0  0  0  0  0  0  0  0  0  # atno 17370 bound_to 10713
  157.7457  131.0435  150.4750 LP  0  0  0  0  0  0  0  0  0  0  0  0  # atno 17371 bound_to 10713
  140.3491  134.7784  157.4454 LP  0  0  0  0  0  0  0  0  0  0  0  0  # atno 17394 bound_to 11000
  140.0875  134.5646  155.8477 LP  0  0  0  0  0  0  0  0  0  0  0  0  # atno 17395 bound_to 11000

$$$$
