AV-unprocessed.smi:1144|AV-procd|sdf|4876|dock6
  -GOLD-   22720 3453D 1   1.00000     0.00000
 Structure written by MMmdl.
 35 36  0  0  0  0  0  0  0  0  2 V2000
  147.8691  136.1750  154.9938 C   0  0  0  0  0  0  0  0  0  0  0  0
  148.4615  137.3849  154.3849 N   0  3  1  0  0  0  0  0  0  0  0  0
  147.4443  138.3970  154.0209 C   0  0  0  0  0  0  0  0  0  0  0  0
  148.1158  139.6138  153.3640 C   0  0  0  0  0  0  0  0  0  0  0  0
  149.1020  140.1427  154.2422 O   0  0  0  0  0  0  0  0  0  0  0  0
  150.1423  139.2091  154.5191 C   0  0  1  0  0  0  0  0  0  0  0  0
  151.1858  139.9034  155.4045 C   0  0  0  0  0  0  0  0  0  0  0  0
  150.6484  140.2276  156.7173 N   0  0  0  0  0  0  0  0  0  0  0  0
  151.4017  140.7363  157.7578 C   0  0  0  0  0  0  0  0  0  0  0  0
  152.1569  139.8891  158.4661 N   0  0  0  0  0  0  0  0  0  0  0  0
  152.8791  140.4126  159.4800 C   0  0  0  0  0  0  0  0  0  0  0  0
  152.8447  141.7883  159.7827 C   0  0  0  0  0  0  0  0  0  0  0  0
  152.0128  142.5886  158.9678 C   0  0  0  0  0  0  0  0  0  0  0  0
  151.8763  144.0892  159.1776 C   0  0  0  0  0  0  0  0  0  0  0  0
  152.4647  144.4811  160.3085 F   0  0  0  0  0  0  0  0  0  0  0  0
  152.4413  144.7386  158.1596 F   0  0  0  0  0  0  0  0  0  0  0  0
  150.5861  144.4195  159.2362 F   0  0  0  0  0  0  0  0  0  0  0  0
  151.2934  142.0517  157.9543 N   0  0  0  0  0  0  0  0  0  0  0  0
  149.5253  137.9844  155.2228 C   0  0  0  0  0  0  0  0  0  0  0  0
  147.3687  136.4136  155.9334 H   0  0  0  0  0  0  0  0  0  0  0  0
  148.6395  135.4301  155.1956 H   0  0  0  0  0  0  0  0  0  0  0  0
  147.1385  135.7243  154.3213 H   0  0  0  0  0  0  0  0  0  0  0  0
  146.7146  137.9602  153.3379 H   0  0  0  0  0  0  0  0  0  0  0  0
  146.9016  138.7092  154.9147 H   0  0  0  0  0  0  0  0  0  0  0  0
  148.5681  139.3432  152.4085 H   0  0  0  0  0  0  0  0  0  0  0  0
  147.3747  140.3862  153.1579 H   0  0  0  0  0  0  0  0  0  0  0  0
  150.6139  138.8929  153.5864 H   0  0  0  0  0  0  0  0  0  0  0  0
  152.0687  139.2721  155.5125 H   0  0  0  0  0  0  0  0  0  0  0  0
  151.5109  140.8314  154.9328 H   0  0  0  0  0  0  0  0  0  0  0  0
  149.6742  140.0366  156.9018 H   0  0  0  0  0  0  0  0  0  0  0  0
  153.4880  139.7296  160.0537 H   0  0  0  0  0  0  0  0  0  0  0  0
  153.4259  142.1981  160.5953 H   0  0  0  0  0  0  0  0  0  0  0  0
  149.1083  138.2746  156.1888 H   0  0  0  0  0  0  0  0  0  0  0  0
  150.2981  137.2397  155.4184 H   0  0  0  0  0  0  0  0  0  0  0  0
  148.9006  137.0912  153.5237 H   0  0  0  0  0  0  0  0  0  0  0  0
  1  2  1  0  0  0  0
  1 20  1  0  0  0  0
  1 21  1  0  0  0  0
  1 22  1  0  0  0  0
  2 19  1  0  0  0  0
  2  3  1  0  0  0  0
  2 35  1  0  0  0  0
  3  4  1  0  0  0  0
  3 23  1  0  0  0  0
  3 24  1  0  0  0  0
  4  5  1  0  0  0  0
  4 25  1  0  0  0  0
  4 26  1  0  0  0  0
  5  6  1  0  0  0  0
  6  7  1  0  0  0  0
  6 19  1  0  0  0  0
  6 27  1  0  0  0  0
  7  8  1  0  0  0  0
  7 28  1  0  0  0  0
  7 29  1  0  0  0  0
  8  9  1  0  0  0  0
  8 30  1  0  0  0  0
  9 18  1  0  0  0  0
  9 10  2  0  0  0  0
 10 11  1  0  0  0  0
 11 12  2  0  0  0  0
 11 31  1  0  0  0  0
 12 13  1  0  0  0  0
 12 32  1  0  0  0  0
 13 14  1  0  0  0  0
 13 18  2  0  0  0  0
 14 15  1  0  0  0  0
 14 16  1  0  0  0  0
 14 17  1  0  0  0  0
 19 33  1  0  0  0  0
 19 34  1  0  0  0  0
M  CHG  1   2   1
M  END
> <s_m_source_file>
AV-unprocessed.smi

> <i_m_source_file_index>
1144

> <i_lp_mmshare_version>
43012

> <i_f3d_flags>
0

> <s_epik_input>
W0NIM11OMVtDSDJdW0NIMl1PW0NASF0oW0NIMl0xKVtDSDJdW05IXWMybltjSF1bY0hdYyhuMilDKEYpKEYpRg==

> <s_epik_cmdline>
J2VwaWtfcHl0aG9uJywgJy1waCcsICc3LjAnLCAnLXRuJywgJzgnLCAnLW1hJywgJzIwMCcsICctbWV0YWxfYmluZGluZycsICctaW1hZScsICc8aW5maWxlLm1hZT4nLCAnLW9tYWUnLCAnPG91dGZpbGUubWFlPic=

> <r_lp_tautomer_probability>
1

> <r_epik_Ionization_Penalty>
0.178506

> <r_epik_Ionization_Penalty_Charging>
0.178504

> <r_epik_Ionization_Penalty_Neutral>
2.47225e-06

> <r_epik_State_Penalty>
0.167974

> <r_epik_Charging_Adjusted_Penalty>
0.346478

> <i_epik_Tot_Q>
1

> <i_epik_Tot_abs_Q>
1

> <r_epik_Metal_State_Penalty>
0.167974

> <b_epik_Metal_Only>
0

> <s_lp_Force_Field>
OPLS_2005

> <r_lp_Energy>
9.30015

> <b_lp_Chiralities_Consistent>
1

> <s_lp_Variant>
AV-unprocessed.smi:1144-1

> <Gold.Version>
5.8.1

> <Gold.Id.Protein>
6NUR|6NUR_protein|mol2

> <Gold.PLP.Fitness>
38.4484

> <Gold.PLP.PLP>
-34.4504

> <Gold.PLP.part.hbond>
-1.0000

> <Gold.PLP.part.metal>
0.0000

> <Gold.PLP.part.buried>
-2.1744

> <Gold.PLP.part.nonpolar>
-31.3549

> <Gold.PLP.part.repulsive>
0.2148

> <Gold.PLP.ligand.clash>
0.0000

> <Gold.PLP.ligand.torsion>
1.0042

> <Gold.PLP.Chemscore.Hbond>
2.0000

> <Gold.PLP.Chemscore.CHOScore>
0.0000

> <Gold.PLP.Chemscore.Metal>
0.0000

> <Gold.Chemscore.Hbonds>
donor molecule, donor type, donor heavy atom, donor atom, acceptor molecule, acceptor atom, score
      L1  H     2    35       P1  7948  2.00

> <Gold.PLP.Chemscore.Internal.Correction>
0.0062

> <Gold.Rescore>
     Score         DG    S(hbond)    S(metal)    S(lipo)     H(rot)  DE(clash)    DE(int)     intcor
     12.34     -13.37       0.99        0.00      68.38       1.34       0.21       0.83       ----

> <Gold.Chemscore.Fitness>
12.3398

> <Gold.Chemscore.DG>
-13.3736

> <Gold.Chemscore.ZeroCoef>
-5.4800

> <Gold.Chemscore.Hbond>
0.9934

> <Gold.Chemscore.Metal>
0.0000

> <Gold.Chemscore.Lipo>
68.3804

> <Gold.Chemscore.Internal_Hbond>
0.0000

> <Gold.Chemscore.DEClash>
0.2076

> <Gold.Chemscore.DEInternal>
0.8262

> <Gold.Chemscore.Rot>
1.3379

> <Gold.Chemscore.Internal.Correction>
   9.000000E+99

> <Gold.Chemscore.Hbonds>
donor molecule, donor type, donor heavy atom, donor atom, acceptor molecule, acceptor atom, score
      L1  H     2    35       P1  7948  0.98

> <Gold.Chemscore.Hbond.Weighted>
-3.3181

> <Gold.Chemscore.Metal.Weighted>
-0.0000

> <Gold.Chemscore.Lipo.Weighted>
-8.0005

> <Gold.Chemscore.Internal_Hbond.Weighted>
0.0000

> <Gold.Chemscore.DEClash.Weighted>
0.2076

> <Gold.Chemscore.DEInternal.Weighted>
0.8262

> <Gold.Chemscore.Rot.Weighted>
3.4250

> <Gold.Chemscore.Internal.Correction.Weighted>
   9.000000E+99

> <Gold.Protein.RotatedTorsions>
[ 6907 6896 6895 6894 ] final -162.74 input  -60.11 | X-H torsion
[ 7974 7965 7964 7962 ] final -107.28 input  175.53 | X-H torsion
[ 8008 7997 7996 7995 ] final  -96.88 input   59.86 | X-H torsion
[ 10167 10162 10161 10158 ] final -117.73 input  -65.29 | X-H torsion
[ 10718 10713 10712 10709 ] final  148.56 input   66.30 | X-H torsion
[ 10763 10752 10751 10750 ] final   56.58 input  -60.55 | X-H torsion
[ 11005 11000 10999 10996 ] final   76.03 input  -57.11 | X-H torsion

> <Gold.Protein.ActiveResidues>
 VAL166  LYS551  ARG553  GLY616  TRP617  ASP618  TYR619  PRO620  LYS621  CYS622 
 ASP623  PHE694  ASN695  SER759  ASP760  ASP761  ALA762  ILE779  LEU786  VAL792 
 PHE793  MET794  SER795  GLU796  ALA797  LYS798  CYS799  TRP800  GLU811  SER814 

> <Gold.Protein.RotatedAtoms>
  151.3850  133.3808  159.2714 H   0  0  0  0  0  0  0  0  0  0  0  0  # atno 6907 bound_to 6896
  150.9548  134.8945  159.7705 H   0  0  0  0  0  0  0  0  0  0  0  0  # atno 6908 bound_to 6896
  152.5126  134.3807  159.9402 H   0  0  0  0  0  0  0  0  0  0  0  0  # atno 6909 bound_to 6896
  145.2073  140.9081  143.3335 H   0  0  0  0  0  0  0  0  0  0  0  0  # atno 7974 bound_to 7965
  154.7804  140.0467  157.1122 H   0  0  0  0  0  0  0  0  0  0  0  0  # atno 8008 bound_to 7997
  154.9712  140.3090  155.4967 H   0  0  0  0  0  0  0  0  0  0  0  0  # atno 8009 bound_to 7997
  156.2935  140.2253  156.4804 H   0  0  0  0  0  0  0  0  0  0  0  0  # atno 8010 bound_to 7997
  140.0652  143.4930  152.2010 H   0  0  0  0  0  0  0  0  0  0  0  0  # atno 10167 bound_to 10162
  157.3070  131.0881  151.1346 H   0  0  0  0  0  0  0  0  0  0  0  0  # atno 10718 bound_to 10713
  152.9834  135.5671  154.5251 H   0  0  0  0  0  0  0  0  0  0  0  0  # atno 10763 bound_to 10752
  154.4733  135.2785  155.1628 H   0  0  0  0  0  0  0  0  0  0  0  0  # atno 10764 bound_to 10752
  154.3168  135.6277  153.5543 H   0  0  0  0  0  0  0  0  0  0  0  0  # atno 10765 bound_to 10752
  139.9316  134.7567  156.1345 H   0  0  0  0  0  0  0  0  0  0  0  0  # atno 11005 bound_to 11000
  144.9889  139.3708  143.6224 LP  0  0  0  0  0  0  0  0  0  0  0  0  # atno 17320 bound_to 7965
  146.3405  139.9063  142.8787 LP  0  0  0  0  0  0  0  0  0  0  0  0  # atno 17321 bound_to 7965
  139.5870  144.7535  151.3496 LP  0  0  0  0  0  0  0  0  0  0  0  0  # atno 17342 bound_to 10162
  140.7153  143.7283  150.7643 LP  0  0  0  0  0  0  0  0  0  0  0  0  # atno 17343 bound_to 10162
  157.2682  130.6692  149.6007 LP  0  0  0  0  0  0  0  0  0  0  0  0  # atno 17370 bound_to 10713
  155.9675  130.4487  150.5630 LP  0  0  0  0  0  0  0  0  0  0  0  0  # atno 17371 bound_to 10713
  141.0908  133.6715  156.2537 LP  0  0  0  0  0  0  0  0  0  0  0  0  # atno 17394 bound_to 11000
  140.6186  134.5385  157.5544 LP  0  0  0  0  0  0  0  0  0  0  0  0  # atno 17395 bound_to 11000

$$$$
