AV-unprocessed.smi:3335|AV-procd|sdf|12840|dock5
  -GOLD-   2272019223D 1   1.00000     0.00000
 Structure written by MMmdl.
 47 48  0  0  0  0  0  0  0  0  2 V2000
  148.9750  136.0107  155.9284 C   0  0  0  0  0  0  0  0  0  0  0  0
  149.4686  137.3472  155.4553 C   0  0  0  0  0  0  0  0  0  0  0  0
  150.5862  137.6217  154.6182 C   0  0  0  0  0  0  0  0  0  0  0  0
  150.7423  138.9131  154.3791 N   0  0  0  0  0  0  0  0  0  0  0  0
  149.7428  139.5140  155.0637 N   0  0  0  0  0  0  0  0  0  0  0  0
  149.5563  140.9625  155.0083 C   0  0  1  0  0  0  0  0  0  0  0  0
  148.2924  141.3538  154.2166 C   0  0  0  0  0  0  0  0  0  0  0  0
  149.6203  141.6256  156.4110 C   0  0  1  0  0  0  0  0  0  0  0  0
  148.4717  141.2029  157.3523 C   0  0  0  0  0  0  0  0  0  0  0  0
  150.9450  141.3404  157.0180 N   0  3  0  0  0  0  0  0  0  0  0  0
  151.3515  142.1167  158.2161 C   0  0  2  0  0  0  0  0  0  0  0  0
  151.9595  143.4786  157.8283 C   0  0  0  0  0  0  0  0  0  0  0  0
  152.3713  141.3042  159.0368 C   0  0  0  0  0  0  0  0  0  0  0  0
  152.8441  140.2768  158.5470 O   0  0  0  0  0  0  0  0  0  0  0  0
  152.7353  141.7389  160.2631 N   0  0  0  0  0  0  0  0  0  0  0  0
  153.6881  141.0947  161.1682 C   0  0  0  0  0  0  0  0  0  0  0  0
  153.5530  141.8282  162.5027 C   0  0  0  0  0  0  0  0  0  0  0  0
  153.0498  143.2108  162.1155 C   0  0  0  0  0  0  0  0  0  0  0  0
  152.2057  142.9615  160.8660 C   0  0  0  0  0  0  0  0  0  0  0  0
  148.9570  138.5860  155.7166 C   0  0  0  0  0  0  0  0  0  0  0  0
  149.5090  135.1887  155.4514 H   0  0  0  0  0  0  0  0  0  0  0  0
  147.9156  135.8729  155.7110 H   0  0  0  0  0  0  0  0  0  0  0  0
  149.1007  135.8940  157.0049 H   0  0  0  0  0  0  0  0  0  0  0  0
  151.2800  136.9235  154.1734 H   0  0  0  0  0  0  0  0  0  0  0  0
  150.3935  141.3547  154.4279 H   0  0  0  0  0  0  0  0  0  0  0  0
  148.2201  142.4360  154.1067 H   0  0  0  0  0  0  0  0  0  0  0  0
  147.3765  141.0114  154.6980 H   0  0  0  0  0  0  0  0  0  0  0  0
  148.3148  140.9263  153.2136 H   0  0  0  0  0  0  0  0  0  0  0  0
  149.5509  142.7013  156.2526 H   0  0  0  0  0  0  0  0  0  0  0  0
  147.5010  141.3051  156.8683 H   0  0  0  0  0  0  0  0  0  0  0  0
  148.4345  141.8232  158.2470 H   0  0  0  0  0  0  0  0  0  0  0  0
  148.5737  140.1664  157.6747 H   0  0  0  0  0  0  0  0  0  0  0  0
  150.9591  140.3614  157.2671 H   0  0  0  0  0  0  0  0  0  0  0  0
  150.4661  142.2758  158.8279 H   0  0  0  0  0  0  0  0  0  0  0  0
  152.3613  144.0003  158.6977 H   0  0  0  0  0  0  0  0  0  0  0  0
  151.2160  144.1398  157.3844 H   0  0  0  0  0  0  0  0  0  0  0  0
  152.7736  143.3622  157.1120 H   0  0  0  0  0  0  0  0  0  0  0  0
  153.4976  140.0279  161.2893 H   0  0  0  0  0  0  0  0  0  0  0  0
  154.6964  141.2192  160.7705 H   0  0  0  0  0  0  0  0  0  0  0  0
  152.8055  141.3290  163.1208 H   0  0  0  0  0  0  0  0  0  0  0  0
  154.4859  141.8596  163.0662 H   0  0  0  0  0  0  0  0  0  0  0  0
  152.4903  143.6983  162.9145 H   0  0  0  0  0  0  0  0  0  0  0  0
  153.8973  143.8494  161.8627 H   0  0  0  0  0  0  0  0  0  0  0  0
  152.2514  143.8112  160.1829 H   0  0  0  0  0  0  0  0  0  0  0  0
  151.1611  142.7997  161.1366 H   0  0  0  0  0  0  0  0  0  0  0  0
  148.1004  138.8803  156.3053 H   0  0  0  0  0  0  0  0  0  0  0  0
  151.6519  141.4899  156.3122 H   0  0  0  0  0  0  0  0  0  0  0  0
  1  2  1  0  0  0  0
  1 21  1  0  0  0  0
  1 22  1  0  0  0  0
  1 23  1  0  0  0  0
  2 20  2  0  0  0  0
  2  3  1  0  0  0  0
  3  4  2  0  0  0  0
  3 24  1  0  0  0  0
  4  5  1  0  0  0  0
  5  6  1  0  0  0  0
  5 20  1  0  0  0  0
  6  7  1  0  0  0  0
  6  8  1  0  0  0  0
  6 25  1  0  0  0  0
  7 26  1  0  0  0  0
  7 27  1  0  0  0  0
  7 28  1  0  0  0  0
  8  9  1  0  0  0  0
  8 10  1  0  0  0  0
  8 29  1  0  0  0  0
  9 30  1  0  0  0  0
  9 31  1  0  0  0  0
  9 32  1  0  0  0  0
 10 11  1  0  0  0  0
 10 33  1  0  0  0  0
 10 47  1  0  0  0  0
 11 12  1  0  0  0  0
 11 13  1  0  0  0  0
 11 34  1  0  0  0  0
 12 35  1  0  0  0  0
 12 36  1  0  0  0  0
 12 37  1  0  0  0  0
 13 14  2  0  0  0  0
 13 15  1  0  0  0  0
 15 19  1  0  0  0  0
 15 16  1  0  0  0  0
 16 17  1  0  0  0  0
 16 38  1  0  0  0  0
 16 39  1  0  0  0  0
 17 18  1  0  0  0  0
 17 40  1  0  0  0  0
 17 41  1  0  0  0  0
 18 19  1  0  0  0  0
 18 42  1  0  0  0  0
 18 43  1  0  0  0  0
 19 44  1  0  0  0  0
 19 45  1  0  0  0  0
 20 46  1  0  0  0  0
M  CHG  1  10   1
M  END
> <s_m_source_file>
AV-unprocessed.smi

> <i_m_source_file_index>
3335

> <i_lp_mmshare_version>
43012

> <i_f3d_flags>
0

> <s_epik_input>
W0NIM11jMVtjSF1ubihbY0hdMSlbQ0BIXShbQ0gzXSlbQ0BIXShbQ0gzXSlbTkhdW0NASF0oW0NIM10pQyg9TylOMltDSDJdW0NIMl1bQ0gyXVtDSDJdMg==

> <s_epik_cmdline>
J2VwaWtfcHl0aG9uJywgJy1waCcsICc3LjAnLCAnLXRuJywgJzgnLCAnLW1hJywgJzIwMCcsICctbWV0YWxfYmluZGluZycsICctaW1hZScsICc8aW5maWxlLm1hZT4nLCAnLW9tYWUnLCAnPG91dGZpbGUubWFlPic=

> <r_lp_tautomer_probability>
1

> <r_epik_Ionization_Penalty>
0.14175

> <r_epik_Ionization_Penalty_Charging>
0.141731

> <r_epik_Ionization_Penalty_Neutral>
1.91261e-05

> <r_epik_State_Penalty>
0.131043

> <r_epik_Charging_Adjusted_Penalty>
0.272773

> <i_epik_Tot_Q>
1

> <i_epik_Tot_abs_Q>
1

> <r_epik_Metal_State_Penalty>
0.131408

> <b_epik_Metal_Only>
0

> <s_lp_Force_Field>
OPLS_2005

> <r_lp_Energy>
37.3946

> <b_lp_Chiralities_Consistent>
1

> <s_lp_Variant>
AV-unprocessed.smi:3335-4

> <Gold.Version>
5.8.1

> <Gold.Id.Protein>
6NUR|6NUR_protein|mol2

> <Gold.PLP.Fitness>
48.4488

> <Gold.PLP.PLP>
-41.0599

> <Gold.PLP.part.hbond>
-2.0000

> <Gold.PLP.part.metal>
0.0000

> <Gold.PLP.part.buried>
-1.3739

> <Gold.PLP.part.nonpolar>
-37.0988

> <Gold.PLP.part.repulsive>
0.2812

> <Gold.PLP.ligand.clash>
0.0000

> <Gold.PLP.ligand.torsion>
0.5527

> <Gold.PLP.Chemscore.Hbond>
1.8160

> <Gold.PLP.Chemscore.CHOScore>
0.9246

> <Gold.PLP.Chemscore.Metal>
0.0000

> <Gold.Chemscore.Hbonds>
donor molecule, donor type, donor heavy atom, donor atom, acceptor molecule, acceptor atom, score
      P1  H  7989  7998       L1     4  0.23
      P1  H  7997  8010       L1    14  0.26
      L1  C     3    24       P1  7949  0.20

> <Gold.PLP.Chemscore.Internal.Correction>
0.2726

> <Gold.Rescore>
     Score         DG    S(hbond)    S(metal)    S(lipo)     H(rot)  DE(clash)    DE(int)     intcor
     17.35     -18.97       1.80        0.00     100.65       1.68       0.70       0.92       ----

> <Gold.Chemscore.Fitness>
17.3529

> <Gold.Chemscore.DG>
-18.9706

> <Gold.Chemscore.ZeroCoef>
-5.4800

> <Gold.Chemscore.Hbond>
1.7995

> <Gold.Chemscore.Metal>
0.0000

> <Gold.Chemscore.Lipo>
100.6458

> <Gold.Chemscore.Internal_Hbond>
0.0000

> <Gold.Chemscore.DEClash>
0.7016

> <Gold.Chemscore.DEInternal>
0.9161

> <Gold.Chemscore.Rot>
1.6778

> <Gold.Chemscore.Internal.Correction>
   9.000000E+99

> <Gold.Chemscore.Hbonds>
donor molecule, donor type, donor heavy atom, donor atom, acceptor molecule, acceptor atom, score
      P1  H  7989  7998       L1     4  0.03
      P1  H  7997  8010       L1    14  0.25

> <Gold.Chemscore.Hbond.Weighted>
-6.0102

> <Gold.Chemscore.Metal.Weighted>
-0.0000

> <Gold.Chemscore.Lipo.Weighted>
-11.7756

> <Gold.Chemscore.Internal_Hbond.Weighted>
0.0000

> <Gold.Chemscore.DEClash.Weighted>
0.7016

> <Gold.Chemscore.DEInternal.Weighted>
0.9161

> <Gold.Chemscore.Rot.Weighted>
4.2952

> <Gold.Chemscore.Internal.Correction.Weighted>
   9.000000E+99

> <Gold.Protein.RotatedTorsions>
[ 6907 6896 6895 6894 ] final   10.91 input  -60.11 | X-H torsion
[ 7974 7965 7964 7962 ] final   25.41 input  175.53 | X-H torsion
[ 8008 7997 7996 7995 ] final   35.35 input   59.86 | X-H torsion
[ 10167 10162 10161 10158 ] final   23.63 input  -65.29 | X-H torsion
[ 10718 10713 10712 10709 ] final  136.20 input   66.30 | X-H torsion
[ 10763 10752 10751 10750 ] final   16.55 input  -60.55 | X-H torsion
[ 11005 11000 10999 10996 ] final -157.48 input  -57.11 | X-H torsion

> <Gold.Protein.ActiveResidues>
 VAL166  LYS551  ARG553  GLY616  TRP617  ASP618  TYR619  PRO620  LYS621  CYS622 
 ASP623  PHE694  ASN695  SER759  ASP760  ASP761  ALA762  ILE779  LEU786  VAL792 
 PHE793  MET794  SER795  GLU796  ALA797  LYS798  CYS799  TRP800  GLU811  SER814 

> <Gold.Protein.RotatedAtoms>
  151.7459  135.0844  160.0322 H   0  0  0  0  0  0  0  0  0  0  0  0  # atno 6907 bound_to 6896
  152.3449  133.6106  159.5911 H   0  0  0  0  0  0  0  0  0  0  0  0  # atno 6908 bound_to 6896
  150.7502  133.9581  159.3548 H   0  0  0  0  0  0  0  0  0  0  0  0  # atno 6909 bound_to 6896
  146.1890  139.7470  142.8846 H   0  0  0  0  0  0  0  0  0  0  0  0  # atno 7974 bound_to 7965
  155.1696  140.3290  155.4395 H   0  0  0  0  0  0  0  0  0  0  0  0  # atno 8008 bound_to 7997
  156.2514  140.1946  156.6750 H   0  0  0  0  0  0  0  0  0  0  0  0  # atno 8009 bound_to 7997
  154.6347  140.0578  156.9760 H   0  0  0  0  0  0  0  0  0  0  0  0  # atno 8010 bound_to 7997
  140.5254  143.9933  150.6437 H   0  0  0  0  0  0  0  0  0  0  0  0  # atno 10167 bound_to 10162
  157.4491  131.1064  151.0054 H   0  0  0  0  0  0  0  0  0  0  0  0  # atno 10718 bound_to 10713
  153.1420  135.6762  153.9012 H   0  0  0  0  0  0  0  0  0  0  0  0  # atno 10763 bound_to 10752
  153.8466  135.3098  155.3431 H   0  0  0  0  0  0  0  0  0  0  0  0  # atno 10764 bound_to 10752
  154.7795  135.4896  153.9898 H   0  0  0  0  0  0  0  0  0  0  0  0  # atno 10765 bound_to 10752
  140.6641  134.4317  157.5233 H   0  0  0  0  0  0  0  0  0  0  0  0  # atno 11005 bound_to 11000
  145.3851  141.0364  143.3155 LP  0  0  0  0  0  0  0  0  0  0  0  0  # atno 17320 bound_to 7965
  144.8450  139.5411  143.6882 LP  0  0  0  0  0  0  0  0  0  0  0  0  # atno 17321 bound_to 7965
  140.3293  143.3088  152.0704 LP  0  0  0  0  0  0  0  0  0  0  0  0  # atno 17342 bound_to 10162
  139.4936  144.6520  151.6654 LP  0  0  0  0  0  0  0  0  0  0  0  0  # atno 17343 bound_to 10162
  157.0890  130.5934  149.5436 LP  0  0  0  0  0  0  0  0  0  0  0  0  # atno 17370 bound_to 10713
  155.9980  130.5052  150.7554 LP  0  0  0  0  0  0  0  0  0  0  0  0  # atno 17371 bound_to 10713
  139.9003  134.8572  156.1925 LP  0  0  0  0  0  0  0  0  0  0  0  0  # atno 17394 bound_to 11000
  141.0442  133.6922  156.1653 LP  0  0  0  0  0  0  0  0  0  0  0  0  # atno 17395 bound_to 11000

$$$$
