AV-unprocessed.smi:261|AV-procd|sdf|1985|dock7
  -GOLD-   2262021163D 1   1.00000     0.00000
 Structure written by MMmdl.
 51 54  0  0  0  0  0  0  0  0  1 V2000
  151.2600  144.5022  159.8854 C   0  0  0  0  0  0  0  0  0  0  0  0
  152.4971  144.1319  159.2989 O   0  0  0  0  0  0  0  0  0  0  0  0
  152.4104  142.9728  158.4832 C   0  0  1  0  0  0  0  0  0  0  0  0
  152.0577  141.7053  159.2632 C   0  0  0  0  0  0  0  0  0  0  0  0
  151.3858  140.7861  158.2249 C   0  0  2  0  0  0  0  0  0  0  0  0
  152.3698  139.7600  157.6418 C   0  0  0  0  0  0  0  0  0  0  0  0
  151.9318  139.0200  156.6206 N   0  0  0  0  0  0  0  0  0  0  0  0
  153.4986  139.6203  158.1107 O   0  0  0  0  0  0  0  0  0  0  0  0
  150.9117  141.6951  157.1774 N   0  0  0  0  0  0  0  0  0  0  0  0
  149.6701  141.4786  156.6930 C   0  0  0  0  0  0  0  0  0  0  0  0
  148.5895  141.9984  157.3324 N   0  0  0  0  0  0  0  0  0  0  0  0
  147.3621  141.7777  156.8505 C   0  0  0  0  0  0  0  0  0  0  0  0
  147.0012  141.0818  155.7692 N   0  0  0  0  0  0  0  0  0  0  0  0
  148.0884  140.5628  155.1289 C   0  0  0  0  0  0  0  0  0  0  0  0
  149.4474  140.7133  155.5201 C   0  0  0  0  0  0  0  0  0  0  0  0
  150.2790  140.0463  154.6298 N   0  0  0  0  0  0  0  0  0  0  0  0
  149.4559  139.5272  153.7592 C   0  0  0  0  0  0  0  0  0  0  0  0
  148.1223  139.7876  153.9842 N   0  0  0  0  0  0  0  0  0  0  0  0
  146.9973  139.3366  153.1855 C   0  0  0  0  0  0  0  0  0  0  0  0
  146.5625  137.9027  153.5445 C   0  0  2  0  0  0  0  0  0  0  0  0
  147.6832  137.0399  153.5902 O   0  0  0  0  0  0  0  0  0  0  0  0
  145.4893  137.3476  152.5865 C   0  0  2  0  0  0  0  0  0  0  0  0
  144.7574  136.0816  153.0399 C   0  0  0  0  0  0  0  0  0  0  0  0
  144.2683  135.5369  151.7166 C   0  0  0  0  0  0  0  0  0  0  0  0
  145.4428  135.8553  150.7940 C   0  0  0  0  0  0  0  0  0  0  0  0
  146.0245  137.0552  151.2977 O   0  0  0  0  0  0  0  0  0  0  0  0
  151.2335  143.0736  157.5185 C   0  0  0  0  0  0  0  0  0  0  0  0
  153.3299  142.8240  157.9134 H   0  0  0  0  0  0  0  0  0  0  0  0
  150.5617  140.2471  158.6971 H   0  0  0  0  0  0  0  0  0  0  0  0
  151.4046  145.3794  160.5159 H   0  0  0  0  0  0  0  0  0  0  0  0
  150.8650  143.7011  160.5115 H   0  0  0  0  0  0  0  0  0  0  0  0
  150.5165  144.7546  159.1289 H   0  0  0  0  0  0  0  0  0  0  0  0
  152.9257  141.2561  159.7481 H   0  0  0  0  0  0  0  0  0  0  0  0
  151.3376  141.9464  160.0467 H   0  0  0  0  0  0  0  0  0  0  0  0
  152.5370  138.3291  156.2015 H   0  0  0  0  0  0  0  0  0  0  0  0
  150.9934  139.1537  156.2725 H   0  0  0  0  0  0  0  0  0  0  0  0
  146.5532  142.2223  157.4114 H   0  0  0  0  0  0  0  0  0  0  0  0
  149.8009  138.9326  152.9259 H   0  0  0  0  0  0  0  0  0  0  0  0
  146.1705  140.0309  153.3405 H   0  0  0  0  0  0  0  0  0  0  0  0
  147.2694  139.4047  152.1314 H   0  0  0  0  0  0  0  0  0  0  0  0
  146.1381  137.9111  154.5492 H   0  0  0  0  0  0  0  0  0  0  0  0
  148.0036  136.9219  152.7089 H   0  0  0  0  0  0  0  0  0  0  0  0
  144.7392  138.1244  152.4279 H   0  0  0  0  0  0  0  0  0  0  0  0
  145.4378  135.3642  153.4997 H   0  0  0  0  0  0  0  0  0  0  0  0
  143.9506  136.2860  153.7441 H   0  0  0  0  0  0  0  0  0  0  0  0
  144.0283  134.4739  151.7511 H   0  0  0  0  0  0  0  0  0  0  0  0
  143.3783  136.0791  151.3939 H   0  0  0  0  0  0  0  0  0  0  0  0
  146.1901  135.0624  150.8443 H   0  0  0  0  0  0  0  0  0  0  0  0
  145.1371  135.9664  149.7533 H   0  0  0  0  0  0  0  0  0  0  0  0
  150.3851  143.5611  158.0025 H   0  0  0  0  0  0  0  0  0  0  0  0
  151.4914  143.6503  156.6297 H   0  0  0  0  0  0  0  0  0  0  0  0
  1  2  1  0  0  0  0
  1 30  1  0  0  0  0
  1 31  1  0  0  0  0
  1 32  1  0  0  0  0
  2  3  1  0  0  0  0
  3 28  1  0  0  0  0
  3 27  1  0  0  0  0
  3  4  1  0  0  0  0
  4  5  1  0  0  0  0
  4 33  1  0  0  0  0
  4 34  1  0  0  0  0
  5 29  1  0  0  0  0
  5  6  1  0  0  0  0
  5  9  1  0  0  0  0
  6  7  1  0  0  0  0
  6  8  2  0  0  0  0
  7 35  1  0  0  0  0
  7 36  1  0  0  0  0
  9 10  1  0  0  0  0
  9 27  1  0  0  0  0
 10 15  1  0  0  0  0
 10 11  2  0  0  0  0
 11 12  1  0  0  0  0
 12 13  2  0  0  0  0
 12 37  1  0  0  0  0
 13 14  1  0  0  0  0
 14 18  1  0  0  0  0
 14 15  2  0  0  0  0
 15 16  1  0  0  0  0
 16 17  2  0  0  0  0
 17 18  1  0  0  0  0
 17 38  1  0  0  0  0
 18 19  1  0  0  0  0
 19 20  1  0  0  0  0
 19 39  1  0  0  0  0
 19 40  1  0  0  0  0
 20 21  1  0  0  0  0
 20 22  1  0  0  0  0
 20 41  1  0  0  0  0
 21 42  1  0  0  0  0
 22 26  1  0  0  0  0
 22 23  1  0  0  0  0
 22 43  1  0  0  0  0
 23 24  1  0  0  0  0
 23 44  1  0  0  0  0
 23 45  1  0  0  0  0
 24 25  1  0  0  0  0
 24 46  1  0  0  0  0
 24 47  1  0  0  0  0
 25 26  1  0  0  0  0
 25 48  1  0  0  0  0
 25 49  1  0  0  0  0
 27 50  1  0  0  0  0
 27 51  1  0  0  0  0
M  END
> <s_m_source_file>
AV-unprocessed.smi

> <i_m_source_file_index>
261

> <i_lp_mmshare_version>
43012

> <i_f3d_flags>
0

> <s_epik_input>
W0NIM11PW0NASF0xW0NIMl1bQ0BASF0oQyg9TylbTkgyXSlOKFtDSDJdMSljKG5bY0hdbjIpYyhjMjMpbltjSF1uM1tDSDJdW0NASF0oW09IXSlbQ0BASF00W0NIMl1bQ0gyXVtDSDJdTzQ=

> <s_epik_cmdline>
J2VwaWtfcHl0aG9uJywgJy1waCcsICc3LjAnLCAnLXRuJywgJzgnLCAnLW1hJywgJzIwMCcsICctbWV0YWxfYmluZGluZycsICctaW1hZScsICc8aW5maWxlLm1hZT4nLCAnLW9tYWUnLCAnPG91dGZpbGUubWFlPic=

> <r_lp_tautomer_probability>
1

> <r_epik_Ionization_Penalty>
0.000713824

> <r_epik_Ionization_Penalty_Charging>
0

> <r_epik_Ionization_Penalty_Neutral>
0.000713824

> <r_epik_State_Penalty>
0.000402132

> <r_epik_Charging_Adjusted_Penalty>
0.000402132

> <i_epik_Tot_Q>
0

> <i_epik_Tot_abs_Q>
0

> <r_epik_Metal_State_Penalty>
-0

> <b_epik_Metal_Only>
0

> <s_lp_Force_Field>
OPLS_2005

> <r_lp_Energy>
48.1487

> <b_lp_Chiralities_Consistent>
1

> <s_lp_Variant>
AV-unprocessed.smi:261-3

> <Gold.Version>
5.8.1

> <Gold.Id.Protein>
6NUR|6NUR_protein|mol2

> <Gold.PLP.Fitness>
45.5009

> <Gold.PLP.PLP>
-36.4713

> <Gold.PLP.part.hbond>
-2.9199

> <Gold.PLP.part.metal>
0.0000

> <Gold.PLP.part.buried>
-6.4756

> <Gold.PLP.part.nonpolar>
-30.1626

> <Gold.PLP.part.repulsive>
2.1658

> <Gold.PLP.ligand.clash>
0.0000

> <Gold.PLP.ligand.torsion>
1.0835

> <Gold.PLP.Chemscore.Hbond>
2.9913

> <Gold.PLP.Chemscore.CHOScore>
0.6542

> <Gold.PLP.Chemscore.Metal>
0.0000

> <Gold.Chemscore.Hbonds>
donor molecule, donor type, donor heavy atom, donor atom, acceptor molecule, acceptor atom, score
      L1  H    21    42       P1  7948  0.72
      P1  H  7989  7998       L1    16  1.00
      P1  H  7997  8010       L1     8  1.00
      L1  C    17    38       P1  7957  0.61

> <Gold.PLP.Chemscore.Internal.Correction>
0.2601

> <Gold.Rescore>
     Score         DG    S(hbond)    S(metal)    S(lipo)     H(rot)  DE(clash)    DE(int)     intcor
      9.94     -13.78       2.50        0.00      77.74       3.57       1.48       2.36       ----

> <Gold.Chemscore.Fitness>
9.9405

> <Gold.Chemscore.DG>
-13.7812

> <Gold.Chemscore.ZeroCoef>
-5.4800

> <Gold.Chemscore.Hbond>
2.5017

> <Gold.Chemscore.Metal>
0.0000

> <Gold.Chemscore.Lipo>
77.7365

> <Gold.Chemscore.Internal_Hbond>
0.0000

> <Gold.Chemscore.DEClash>
1.4838

> <Gold.Chemscore.DEInternal>
2.3569

> <Gold.Chemscore.Rot>
3.5740

> <Gold.Chemscore.Internal.Correction>
   9.000000E+99

> <Gold.Chemscore.Hbonds>
donor molecule, donor type, donor heavy atom, donor atom, acceptor molecule, acceptor atom, score
      L1  H    21    42       P1  7948  0.71
      P1  H  7989  7998       L1    16  0.34
      P1  H  7997  8010       L1     8  0.33

> <Gold.Chemscore.Hbond.Weighted>
-8.3555

> <Gold.Chemscore.Metal.Weighted>
-0.0000

> <Gold.Chemscore.Lipo.Weighted>
-9.0952

> <Gold.Chemscore.Internal_Hbond.Weighted>
0.0000

> <Gold.Chemscore.DEClash.Weighted>
1.4838

> <Gold.Chemscore.DEInternal.Weighted>
2.3569

> <Gold.Chemscore.Rot.Weighted>
9.1495

> <Gold.Chemscore.Internal.Correction.Weighted>
   9.000000E+99

> <Gold.Protein.RotatedTorsions>
[ 6907 6896 6895 6894 ] final  -91.34 input  -60.11 | X-H torsion
[ 7974 7965 7964 7962 ] final  106.93 input  175.53 | X-H torsion
[ 8008 7997 7996 7995 ] final   49.25 input   59.86 | X-H torsion
[ 10167 10162 10161 10158 ] final   18.71 input  -65.29 | X-H torsion
[ 10718 10713 10712 10709 ] final   75.47 input   66.30 | X-H torsion
[ 10763 10752 10751 10750 ] final  -52.05 input  -60.55 | X-H torsion
[ 11005 11000 10999 10996 ] final  165.27 input  -57.11 | X-H torsion

> <Gold.Protein.ActiveResidues>
 VAL166  LYS551  ARG553  GLY616  TRP617  ASP618  TYR619  PRO620  LYS621  CYS622 
 ASP623  PHE694  ASN695  SER759  ASP760  ASP761  ALA762  ILE779  LEU786  VAL792 
 PHE793  MET794  SER795  GLU796  ALA797  LYS798  CYS799  TRP800  GLU811  SER814 

> <Gold.Protein.RotatedAtoms>
  150.6891  134.2292  159.4427 H   0  0  0  0  0  0  0  0  0  0  0  0  # atno 6907 bound_to 6896
  152.0244  134.9802  160.0580 H   0  0  0  0  0  0  0  0  0  0  0  0  # atno 6908 bound_to 6896
  152.1366  133.4404  159.4783 H   0  0  0  0  0  0  0  0  0  0  0  0  # atno 6909 bound_to 6896
  145.3002  139.2572  143.3818 H   0  0  0  0  0  0  0  0  0  0  0  0  # atno 7974 bound_to 7965
  155.3990  140.3437  155.4256 H   0  0  0  0  0  0  0  0  0  0  0  0  # atno 8008 bound_to 7997
  156.1514  140.1572  156.8796 H   0  0  0  0  0  0  0  0  0  0  0  0  # atno 8009 bound_to 7997
  154.5056  140.0803  156.7868 H   0  0  0  0  0  0  0  0  0  0  0  0  # atno 8010 bound_to 7997
  140.5633  143.9297  150.6658 H   0  0  0  0  0  0  0  0  0  0  0  0  # atno 10167 bound_to 10162
  157.6635  130.9728  150.1359 H   0  0  0  0  0  0  0  0  0  0  0  0  # atno 10718 bound_to 10713
  154.1365  135.6512  153.4933 H   0  0  0  0  0  0  0  0  0  0  0  0  # atno 10763 bound_to 10752
  153.0179  135.5305  154.6948 H   0  0  0  0  0  0  0  0  0  0  0  0  # atno 10764 bound_to 10752
  154.6198  135.2963  155.0310 H   0  0  0  0  0  0  0  0  0  0  0  0  # atno 10765 bound_to 10752
  140.2544  134.7951  157.3532 H   0  0  0  0  0  0  0  0  0  0  0  0  # atno 11005 bound_to 11000
  146.3154  140.3514  142.8656 LP  0  0  0  0  0  0  0  0  0  0  0  0  # atno 17320 bound_to 7965
  144.9100  140.7745  143.5813 LP  0  0  0  0  0  0  0  0  0  0  0  0  # atno 17321 bound_to 7965
  140.2754  143.3427  152.1200 LP  0  0  0  0  0  0  0  0  0  0  0  0  # atno 17342 bound_to 10162
  139.5080  144.6843  151.5929 LP  0  0  0  0  0  0  0  0  0  0  0  0  # atno 17343 bound_to 10162
  156.2194  130.3673  149.8574 LP  0  0  0  0  0  0  0  0  0  0  0  0  # atno 17370 bound_to 10713
  156.6432  130.8713  151.3518 LP  0  0  0  0  0  0  0  0  0  0  0  0  # atno 17371 bound_to 10713
  140.1526  134.4830  155.7950 LP  0  0  0  0  0  0  0  0  0  0  0  0  # atno 17394 bound_to 11000
  141.2198  133.6868  156.7405 LP  0  0  0  0  0  0  0  0  0  0  0  0  # atno 17395 bound_to 11000

$$$$
