AV-unprocessed.smi:3061|AV-procd|sdf|11679|dock2
  -GOLD-   2272017 83D 1   1.00000     0.00000
 Structure written by MMmdl.
 35 36  0  0  0  0  0  0  0  0  1 V2000
  139.7478  134.6723  160.8416 C   0  0  0  0  0  0  0  0  0  0  0  0
  141.1804  134.4838  160.3196 C   0  0  2  0  0  0  0  0  0  0  0  0
  141.4424  133.0240  159.9016 C   0  0  0  0  0  0  0  0  0  0  0  0
  142.7599  132.8452  159.3182 N   0  0  0  0  0  0  0  0  0  0  0  0
  143.1340  132.7009  158.0459 C   0  0  0  0  0  0  0  0  0  0  0  0
  144.4409  132.5466  157.8866 N   0  0  0  0  0  0  0  0  0  0  0  0
  144.8392  132.6142  159.1920 C   0  0  0  0  0  0  0  0  0  0  0  0
  143.8702  132.7913  160.0902 N   0  0  0  0  0  0  0  0  0  0  0  0
  142.1400  134.8889  161.3448 N   0  0  0  0  0  0  0  0  0  0  0  0
  143.1088  135.8037  161.1884 C   0  0  0  0  0  0  0  0  0  0  0  0
  143.2826  136.4344  160.1452 O   0  0  0  0  0  0  0  0  0  0  0  0
  144.0268  136.0381  162.3980 C   0  0  2  0  0  0  0  0  0  0  0  0
  145.0133  137.1965  162.1448 C   0  0  0  0  0  0  0  0  0  0  0  0
  146.3747  136.5223  162.1115 C   0  0  0  0  0  0  0  0  0  0  0  0
  147.4136  137.1266  161.8494 O   0  0  0  0  0  0  0  0  0  0  0  0
  146.2710  135.2208  162.3938 N   0  0  0  0  0  0  0  0  0  0  0  0
  147.3741  134.2713  162.4495 C   0  0  0  0  0  0  0  0  0  0  0  0
  144.9130  134.8116  162.7091 C   0  0  0  0  0  0  0  0  0  0  0  0
  139.0155  134.3884  160.0854 H   0  0  0  0  0  0  0  0  0  0  0  0
  139.5575  135.7131  161.1065 H   0  0  0  0  0  0  0  0  0  0  0  0
  139.5640  134.0638  161.7276 H   0  0  0  0  0  0  0  0  0  0  0  0
  141.3039  135.1148  159.4371 H   0  0  0  0  0  0  0  0  0  0  0  0
  141.3451  132.3547  160.7575 H   0  0  0  0  0  0  0  0  0  0  0  0
  140.7005  132.7023  159.1690 H   0  0  0  0  0  0  0  0  0  0  0  0
  142.4362  132.7023  157.2214 H   0  0  0  0  0  0  0  0  0  0  0  0
  145.8741  132.5295  159.4891 H   0  0  0  0  0  0  0  0  0  0  0  0
  142.0703  134.4261  162.2393 H   0  0  0  0  0  0  0  0  0  0  0  0
  143.4124  136.2671  163.2706 H   0  0  0  0  0  0  0  0  0  0  0  0
  144.8325  137.7318  161.2111 H   0  0  0  0  0  0  0  0  0  0  0  0
  144.9856  137.9215  162.9587 H   0  0  0  0  0  0  0  0  0  0  0  0
  148.0494  134.5196  163.2688 H   0  0  0  0  0  0  0  0  0  0  0  0
  147.9422  134.2861  161.5185 H   0  0  0  0  0  0  0  0  0  0  0  0
  147.0100  133.2554  162.6060 H   0  0  0  0  0  0  0  0  0  0  0  0
  144.8509  134.5466  163.7654 H   0  0  0  0  0  0  0  0  0  0  0  0
  144.6374  133.9267  162.1321 H   0  0  0  0  0  0  0  0  0  0  0  0
  1  2  1  0  0  0  0
  1 19  1  0  0  0  0
  1 20  1  0  0  0  0
  1 21  1  0  0  0  0
  2  3  1  0  0  0  0
  2  9  1  0  0  0  0
  2 22  1  0  0  0  0
  3  4  1  0  0  0  0
  3 23  1  0  0  0  0
  3 24  1  0  0  0  0
  4  8  1  0  0  0  0
  4  5  1  0  0  0  0
  5  6  2  0  0  0  0
  5 25  1  0  0  0  0
  6  7  1  0  0  0  0
  7  8  2  0  0  0  0
  7 26  1  0  0  0  0
  9 10  1  0  0  0  0
  9 27  1  0  0  0  0
 10 11  2  0  0  0  0
 10 12  1  0  0  0  0
 12 18  1  0  0  0  0
 12 13  1  0  0  0  0
 12 28  1  0  0  0  0
 13 14  1  0  0  0  0
 13 29  1  0  0  0  0
 13 30  1  0  0  0  0
 14 15  2  0  0  0  0
 14 16  1  0  0  0  0
 16 17  1  0  0  0  0
 16 18  1  0  0  0  0
 17 31  1  0  0  0  0
 17 32  1  0  0  0  0
 17 33  1  0  0  0  0
 18 34  1  0  0  0  0
 18 35  1  0  0  0  0
M  END
> <s_m_source_file>
AV-unprocessed.smi

> <i_m_source_file_index>
3061

> <i_lp_mmshare_version>
43012

> <i_f3d_flags>
0

> <s_epik_input>
bjFbY0hdbltjSF1uMVtDSDJdW0NAQEhdKFtDSDNdKVtOSF1DKD1PKVtDQEBIXTJbQ0gyXUMoPU8pTihbQ0gzXSlbQ0gyXTI=

> <s_epik_cmdline>
J2VwaWtfcHl0aG9uJywgJy1waCcsICc3LjAnLCAnLXRuJywgJzgnLCAnLW1hJywgJzIwMCcsICctbWV0YWxfYmluZGluZycsICctaW1hZScsICc8aW5maWxlLm1hZT4nLCAnLW9tYWUnLCAnPG91dGZpbGUubWFlPic=

> <r_lp_tautomer_probability>
1

> <r_epik_Ionization_Penalty>
4.97611e-05

> <r_epik_Ionization_Penalty_Charging>
0

> <r_epik_Ionization_Penalty_Neutral>
4.97611e-05

> <r_epik_State_Penalty>
-0

> <r_epik_Charging_Adjusted_Penalty>
0

> <i_epik_Tot_Q>
0

> <i_epik_Tot_abs_Q>
0

> <r_epik_Metal_State_Penalty>
-0

> <b_epik_Metal_Only>
0

> <s_lp_Force_Field>
OPLS_2005

> <r_lp_Energy>
14.0738

> <b_lp_Chiralities_Consistent>
1

> <s_lp_Variant>
AV-unprocessed.smi:3061-1

> <Gold.Version>
5.8.1

> <Gold.Id.Protein>
6NUR|6NUR_protein|mol2

> <Gold.PLP.Fitness>
37.0789

> <Gold.PLP.PLP>
-26.7762

> <Gold.PLP.part.hbond>
-2.0000

> <Gold.PLP.part.metal>
0.0000

> <Gold.PLP.part.buried>
-4.3673

> <Gold.PLP.part.nonpolar>
-19.6291

> <Gold.PLP.part.repulsive>
0.1199

> <Gold.PLP.ligand.clash>
0.0000

> <Gold.PLP.ligand.torsion>
0.3467

> <Gold.PLP.Chemscore.Hbond>
1.6608

> <Gold.PLP.Chemscore.CHOScore>
1.9978

> <Gold.PLP.Chemscore.Metal>
0.0000

> <Gold.Chemscore.Hbonds>
donor molecule, donor type, donor heavy atom, donor atom, acceptor molecule, acceptor atom, score
      P1  H  6931  6943       L1    15  0.94
      P1  H  6934  6947       L1    15  0.62
      L1  C     5    25       P1 10957  0.94
      L1  C     5    25       P1 11000  0.95

> <Gold.PLP.Chemscore.Internal.Correction>
0.0204

> <Gold.Rescore>
     Score         DG    S(hbond)    S(metal)    S(lipo)     H(rot)  DE(clash)    DE(int)     intcor
      9.18      -9.41       1.72        0.00      37.38       2.42       0.01       0.22       ----

> <Gold.Chemscore.Fitness>
9.1825

> <Gold.Chemscore.DG>
-9.4118

> <Gold.Chemscore.ZeroCoef>
-5.4800

> <Gold.Chemscore.Hbond>
1.7224

> <Gold.Chemscore.Metal>
0.0000

> <Gold.Chemscore.Lipo>
37.3812

> <Gold.Chemscore.Internal_Hbond>
0.0000

> <Gold.Chemscore.DEClash>
0.0060

> <Gold.Chemscore.DEInternal>
0.2233

> <Gold.Chemscore.Rot>
2.4197

> <Gold.Chemscore.Internal.Correction>
   9.000000E+99

> <Gold.Chemscore.Hbonds>
donor molecule, donor type, donor heavy atom, donor atom, acceptor molecule, acceptor atom, score
      P1  H  6931  6943       L1    15  0.89
      P1  H  6934  6947       L1    15  0.57

> <Gold.Chemscore.Hbond.Weighted>
-5.7527

> <Gold.Chemscore.Metal.Weighted>
-0.0000

> <Gold.Chemscore.Lipo.Weighted>
-4.3736

> <Gold.Chemscore.Internal_Hbond.Weighted>
0.0000

> <Gold.Chemscore.DEClash.Weighted>
0.0060

> <Gold.Chemscore.DEInternal.Weighted>
0.2233

> <Gold.Chemscore.Rot.Weighted>
6.1945

> <Gold.Chemscore.Internal.Correction.Weighted>
   9.000000E+99

> <Gold.Protein.RotatedTorsions>
[ 6907 6896 6895 6894 ] final   85.02 input  -60.11 | X-H torsion
[ 7974 7965 7964 7962 ] final  125.00 input  175.53 | X-H torsion
[ 8008 7997 7996 7995 ] final  -70.63 input   59.86 | X-H torsion
[ 10167 10162 10161 10158 ] final -110.33 input  -65.29 | X-H torsion
[ 10718 10713 10712 10709 ] final  146.66 input   66.30 | X-H torsion
[ 10763 10752 10751 10750 ] final   89.16 input  -60.55 | X-H torsion
[ 11005 11000 10999 10996 ] final  156.99 input  -57.11 | X-H torsion

> <Gold.Protein.ActiveResidues>
 VAL166  LYS551  ARG553  GLY616  TRP617  ASP618  TYR619  PRO620  LYS621  CYS622 
 ASP623  PHE694  ASN695  SER759  ASP760  ASP761  ALA762  ILE779  LEU786  VAL792 
 PHE793  MET794  SER795  GLU796  ALA797  LYS798  CYS799  TRP800  GLU811  SER814 

> <Gold.Protein.RotatedAtoms>
  152.5365  134.2651  159.8949 H   0  0  0  0  0  0  0  0  0  0  0  0  # atno 6907 bound_to 6896
  151.2610  133.4295  159.2623 H   0  0  0  0  0  0  0  0  0  0  0  0  # atno 6908 bound_to 6896
  151.0453  134.9650  159.8239 H   0  0  0  0  0  0  0  0  0  0  0  0  # atno 6909 bound_to 6896
  145.0779  139.3679  143.4924 H   0  0  0  0  0  0  0  0  0  0  0  0  # atno 7974 bound_to 7965
  154.5027  140.0830  156.7830 H   0  0  0  0  0  0  0  0  0  0  0  0  # atno 8008 bound_to 7997
  155.3966  140.3435  155.4236 H   0  0  0  0  0  0  0  0  0  0  0  0  # atno 8009 bound_to 7997
  156.1476  140.1548  156.8809 H   0  0  0  0  0  0  0  0  0  0  0  0  # atno 8010 bound_to 7997
  140.1456  143.4242  152.1531 H   0  0  0  0  0  0  0  0  0  0  0  0  # atno 10167 bound_to 10162
  157.3304  131.0919  151.1167 H   0  0  0  0  0  0  0  0  0  0  0  0  # atno 10718 bound_to 10713
  153.1842  135.4480  155.0067 H   0  0  0  0  0  0  0  0  0  0  0  0  # atno 10763 bound_to 10752
  154.8050  135.3270  154.7458 H   0  0  0  0  0  0  0  0  0  0  0  0  # atno 10764 bound_to 10752
  153.7918  135.6969  153.4925 H   0  0  0  0  0  0  0  0  0  0  0  0  # atno 10765 bound_to 10752
  140.1727  134.8531  157.2710 H   0  0  0  0  0  0  0  0  0  0  0  0  # atno 11005 bound_to 11000
  146.3530  140.0556  142.8633 LP  0  0  0  0  0  0  0  0  0  0  0  0  # atno 17320 bound_to 7965
  145.1213  140.9464  143.4599 LP  0  0  0  0  0  0  0  0  0  0  0  0  # atno 17321 bound_to 7965
  139.5451  144.7291  151.4610 LP  0  0  0  0  0  0  0  0  0  0  0  0  # atno 17342 bound_to 10162
  140.6734  143.8244  150.7027 LP  0  0  0  0  0  0  0  0  0  0  0  0  # atno 17343 bound_to 10162
  157.2417  130.6572  149.5893 LP  0  0  0  0  0  0  0  0  0  0  0  0  # atno 17370 bound_to 10713
  155.9695  130.4566  150.5932 LP  0  0  0  0  0  0  0  0  0  0  0  0  # atno 17371 bound_to 10713
  140.2358  134.3854  155.7502 LP  0  0  0  0  0  0  0  0  0  0  0  0  # atno 17394 bound_to 11000
  141.2218  133.7239  156.8712 LP  0  0  0  0  0  0  0  0  0  0  0  0  # atno 17395 bound_to 11000

$$$$
