AV-unprocessed.smi:1867|AV-procd|sdf|7583|dock6
  -GOLD-   22720 9293D 1   1.00000     0.00000
 Structure written by MMmdl.
 52 55  0  0  0  0  0  0  0  0  4 V2000
  151.6548  139.5435  154.9905 O   0  0  0  0  0  0  0  0  0  0  0  0
  151.9152  139.3185  156.1711 C   0  0  0  0  0  0  0  0  0  0  0  0
  151.6311  138.0953  156.6835 N   0  0  0  0  0  0  0  0  0  0  0  0
  151.1330  136.9435  156.0178 C   0  0  0  0  0  0  0  0  0  0  0  0
  151.3128  135.6897  156.6377 C   0  0  0  0  0  0  0  0  0  0  0  0
  150.8515  134.5208  155.9983 C   0  0  0  0  0  0  0  0  0  0  0  0
  150.2268  134.6148  154.7321 C   0  0  0  0  0  0  0  0  0  0  0  0
  149.7359  133.4926  154.0383 N   0  0  0  0  0  0  0  0  0  0  0  0
  150.0434  132.1370  154.4655 C   0  0  0  0  0  0  0  0  0  0  0  0
  149.2038  131.2466  153.5510 C   0  0  0  0  0  0  0  0  0  0  0  0
  147.9588  132.0946  153.2891 C   0  0  0  0  0  0  0  0  0  0  0  0
  148.4749  133.5385  153.3120 C   0  0  0  0  0  0  0  0  0  0  0  0
  150.0886  135.8383  154.1681 N   0  3  0  0  0  0  0  0  0  0  0  0
  150.5134  136.9822  154.7466 C   0  0  0  0  0  0  0  0  0  0  0  0
  152.4574  140.2846  156.9727 N   0  5  0  0  0  0  0  0  0  0  0  0
  152.3571  140.4452  158.4301 C   0  0  1  0  0  0  0  0  0  0  0  0
  153.6182  139.9283  159.1499 C   0  0  0  0  0  0  0  0  0  0  0  0
  153.8558  140.9019  160.3204 C   0  0  0  0  0  0  0  0  0  0  0  0
  152.7715  141.8988  160.2328 N   0  3  1  0  0  0  0  0  0  0  0  0
  153.0453  143.2473  160.7773 C   0  0  0  0  0  0  0  0  0  0  0  0
  151.7641  144.1014  160.6902 C   0  0  0  0  0  0  0  0  0  0  0  0
  151.1808  144.1187  159.2620 C   0  0  0  0  0  0  0  0  0  0  0  0
  150.9962  142.6884  158.7173 C   0  0  0  0  0  0  0  0  0  0  0  0
  152.3330  141.9259  158.8282 C   0  0  2  0  0  0  0  0  0  0  0  0
  151.7470  138.0052  157.6821 H   0  0  0  0  0  0  0  0  0  0  0  0
  151.7933  135.6215  157.6029 H   0  0  0  0  0  0  0  0  0  0  0  0
  150.9784  133.5678  156.4899 H   0  0  0  0  0  0  0  0  0  0  0  0
  151.1079  131.9166  154.3768 H   0  0  0  0  0  0  0  0  0  0  0  0
  149.7473  132.0073  155.5074 H   0  0  0  0  0  0  0  0  0  0  0  0
  149.7350  131.0736  152.6139 H   0  0  0  0  0  0  0  0  0  0  0  0
  148.9761  130.2769  153.9944 H   0  0  0  0  0  0  0  0  0  0  0  0
  147.4590  131.8390  152.3542 H   0  0  0  0  0  0  0  0  0  0  0  0
  147.2438  131.9492  154.1000 H   0  0  0  0  0  0  0  0  0  0  0  0
  147.7502  134.2035  153.7832 H   0  0  0  0  0  0  0  0  0  0  0  0
  148.6642  133.8979  152.3000 H   0  0  0  0  0  0  0  0  0  0  0  0
  150.3510  137.8774  154.1644 H   0  0  0  0  0  0  0  0  0  0  0  0
  151.4793  139.9541  158.8542 H   0  0  0  0  0  0  0  0  0  0  0  0
  153.4837  138.9023  159.4936 H   0  0  0  0  0  0  0  0  0  0  0  0
  154.4884  139.9382  158.4911 H   0  0  0  0  0  0  0  0  0  0  0  0
  153.8356  140.4008  161.2888 H   0  0  0  0  0  0  0  0  0  0  0  0
  154.8277  141.3869  160.2132 H   0  0  0  0  0  0  0  0  0  0  0  0
  153.3728  143.1642  161.8140 H   0  0  0  0  0  0  0  0  0  0  0  0
  153.8565  143.7155  160.2177 H   0  0  0  0  0  0  0  0  0  0  0  0
  151.0171  143.7004  161.3767 H   0  0  0  0  0  0  0  0  0  0  0  0
  151.9706  145.1194  161.0220 H   0  0  0  0  0  0  0  0  0  0  0  0
  150.2290  144.6502  159.2514 H   0  0  0  0  0  0  0  0  0  0  0  0
  151.8515  144.6726  158.6039 H   0  0  0  0  0  0  0  0  0  0  0  0
  150.2097  142.1847  159.2831 H   0  0  0  0  0  0  0  0  0  0  0  0
  150.6583  142.7319  157.6801 H   0  0  0  0  0  0  0  0  0  0  0  0
  153.0928  142.4579  158.2498 H   0  0  0  0  0  0  0  0  0  0  0  0
  151.9962  141.5157  160.7543 H   0  0  0  0  0  0  0  0  0  0  0  0
  149.6418  135.9019  153.2534 H   0  0  0  0  0  0  0  0  0  0  0  0
  1  2  2  0  0  0  0
  2  3  1  0  0  0  0
  2 15  1  0  0  0  0
  3  4  1  0  0  0  0
  3 25  1  0  0  0  0
  4 14  1  0  0  0  0
  4  5  2  0  0  0  0
  5  6  1  0  0  0  0
  5 26  1  0  0  0  0
  6  7  2  0  0  0  0
  6 27  1  0  0  0  0
  7  8  1  0  0  0  0
  7 13  1  0  0  0  0
  8 12  1  0  0  0  0
  8  9  1  0  0  0  0
  9 10  1  0  0  0  0
  9 28  1  0  0  0  0
  9 29  1  0  0  0  0
 10 11  1  0  0  0  0
 10 30  1  0  0  0  0
 10 31  1  0  0  0  0
 11 12  1  0  0  0  0
 11 32  1  0  0  0  0
 11 33  1  0  0  0  0
 12 34  1  0  0  0  0
 12 35  1  0  0  0  0
 13 14  2  0  0  0  0
 13 52  1  0  0  0  0
 14 36  1  0  0  0  0
 15 16  1  0  0  0  0
 16 24  1  0  0  0  0
 16 17  1  0  0  0  0
 16 37  1  0  0  0  0
 17 18  1  0  0  0  0
 17 38  1  0  0  0  0
 17 39  1  0  0  0  0
 18 19  1  0  0  0  0
 18 40  1  0  0  0  0
 18 41  1  0  0  0  0
 19 24  1  0  0  0  0
 19 20  1  0  0  0  0
 19 51  1  0  0  0  0
 20 21  1  0  0  0  0
 20 42  1  0  0  0  0
 20 43  1  0  0  0  0
 21 22  1  0  0  0  0
 21 44  1  0  0  0  0
 21 45  1  0  0  0  0
 22 23  1  0  0  0  0
 22 46  1  0  0  0  0
 22 47  1  0  0  0  0
 23 24  1  0  0  0  0
 23 48  1  0  0  0  0
 23 49  1  0  0  0  0
 24 50  1  0  0  0  0
M  CHG  1  13   1
M  CHG  1  15  -1
M  CHG  1  19   1
M  END
> <s_m_source_file>
AV-unprocessed.smi

> <i_m_source_file_index>
1867

> <i_lp_mmshare_version>
43012

> <i_f3d_flags>
0

> <s_epik_input>
W0NIMl0xW0NIMl1bQ0gyXVtDSDJdW0NASF0oTjEyKVtDQEBIXShbQ0gyXVtDSDJdMilbTkhdQyg9TylbTkhdYzNbY0hdW2NIXWMobltjSF0zKU40W0NIMl1bQ0gyXVtDSDJdW0NIMl00

> <s_epik_cmdline>
J2VwaWtfcHl0aG9uJywgJy1waCcsICc3LjAnLCAnLXRuJywgJzgnLCAnLW1hJywgJzIwMCcsICctbWV0YWxfYmluZGluZycsICctaW1hZScsICc8aW5maWxlLm1hZT4nLCAnLW9tYWUnLCAnPG91dGZpbGUubWFlPic=

> <r_lp_tautomer_probability>
0.999994

> <r_epik_Ionization_Penalty>
8.56137

> <r_epik_Ionization_Penalty_Charging>
8.56136

> <r_epik_Ionization_Penalty_Neutral>
3.91889e-06

> <r_epik_State_Penalty>
8.16255

> <r_epik_Charging_Adjusted_Penalty>
16.7239

> <i_epik_Tot_Q>
1

> <i_epik_Tot_abs_Q>
3

> <r_epik_Metal_State_Penalty>
4.14279

> <b_epik_Metal_Only>
1

> <s_lp_Force_Field>
OPLS_2005

> <r_lp_Energy>
66.3104

> <b_lp_Chiralities_Consistent>
1

> <s_lp_Variant>
AV-unprocessed.smi:1867-24

> <Gold.Version>
5.8.1

> <Gold.Id.Protein>
6NUR|6NUR_protein|mol2

> <Gold.PLP.Fitness>
57.4842

> <Gold.PLP.PLP>
-44.0300

> <Gold.PLP.part.hbond>
-4.0000

> <Gold.PLP.part.metal>
0.0000

> <Gold.PLP.part.buried>
-2.7478

> <Gold.PLP.part.nonpolar>
-36.7032

> <Gold.PLP.part.repulsive>
0.2315

> <Gold.PLP.ligand.clash>
0.0000

> <Gold.PLP.ligand.torsion>
0.8809

> <Gold.PLP.Chemscore.Hbond>
5.0000

> <Gold.PLP.Chemscore.CHOScore>
0.0000

> <Gold.PLP.Chemscore.Metal>
0.0000

> <Gold.Chemscore.Hbonds>
donor molecule, donor type, donor heavy atom, donor atom, acceptor molecule, acceptor atom, score
      L1  H    13    52       P1  7948  1.50
      P1  H  7989  7998       L1     1  1.00
      P1  H  7997  8010       L1    15  1.98

> <Gold.PLP.Chemscore.Internal.Correction>
0.2161

> <Gold.Rescore>
     Score         DG    S(hbond)    S(metal)    S(lipo)     H(rot)  DE(clash)    DE(int)     intcor
     20.46     -22.70       2.04        0.00     110.84       1.00       0.09       2.15       ----

> <Gold.Chemscore.Fitness>
20.4601

> <Gold.Chemscore.DG>
-22.6997

> <Gold.Chemscore.ZeroCoef>
-5.4800

> <Gold.Chemscore.Hbond>
2.0392

> <Gold.Chemscore.Metal>
0.0000

> <Gold.Chemscore.Lipo>
110.8440

> <Gold.Chemscore.Internal_Hbond>
0.0000

> <Gold.Chemscore.DEClash>
0.0912

> <Gold.Chemscore.DEInternal>
2.1484

> <Gold.Chemscore.Rot>
1.0000

> <Gold.Chemscore.Internal.Correction>
   9.000000E+99

> <Gold.Chemscore.Hbonds>
donor molecule, donor type, donor heavy atom, donor atom, acceptor molecule, acceptor atom, score
      L1  H    13    52       P1  7948  0.09
      P1  H  7989  7998       L1     1  0.96
      P1  H  7997  8010       L1    15  0.17

> <Gold.Chemscore.Hbond.Weighted>
-6.8109

> <Gold.Chemscore.Metal.Weighted>
-0.0000

> <Gold.Chemscore.Lipo.Weighted>
-12.9687

> <Gold.Chemscore.Internal_Hbond.Weighted>
0.0000

> <Gold.Chemscore.DEClash.Weighted>
0.0912

> <Gold.Chemscore.DEInternal.Weighted>
2.1484

> <Gold.Chemscore.Rot.Weighted>
2.5600

> <Gold.Chemscore.Internal.Correction.Weighted>
   9.000000E+99

> <Gold.Protein.RotatedTorsions>
[ 6907 6896 6895 6894 ] final   18.14 input  -60.11 | X-H torsion
[ 7974 7965 7964 7962 ] final   51.29 input  175.53 | X-H torsion
[ 8008 7997 7996 7995 ] final   59.36 input   59.86 | X-H torsion
[ 10167 10162 10161 10158 ] final  -80.20 input  -65.29 | X-H torsion
[ 10718 10713 10712 10709 ] final   31.84 input   66.30 | X-H torsion
[ 10763 10752 10751 10750 ] final  148.78 input  -60.55 | X-H torsion
[ 11005 11000 10999 10996 ] final   45.51 input  -57.11 | X-H torsion

> <Gold.Protein.ActiveResidues>
 VAL166  LYS551  ARG553  GLY616  TRP617  ASP618  TYR619  PRO620  LYS621  CYS622 
 ASP623  PHE694  ASN695  SER759  ASP760  ASP761  ALA762  ILE779  LEU786  VAL792 
 PHE793  MET794  SER795  GLU796  ALA797  LYS798  CYS799  TRP800  GLU811  SER814 

> <Gold.Protein.RotatedAtoms>
  151.8607  135.0525  160.0468 H   0  0  0  0  0  0  0  0  0  0  0  0  # atno 6907 bound_to 6896
  152.2665  133.5339  159.5421 H   0  0  0  0  0  0  0  0  0  0  0  0  # atno 6908 bound_to 6896
  150.7135  134.0673  159.3894 H   0  0  0  0  0  0  0  0  0  0  0  0  # atno 6909 bound_to 6896
  145.9928  139.4357  143.0063 H   0  0  0  0  0  0  0  0  0  0  0  0  # atno 7974 bound_to 7965
  155.5650  140.3489  155.4501 H   0  0  0  0  0  0  0  0  0  0  0  0  # atno 8008 bound_to 7997
  156.0486  140.1312  157.0101 H   0  0  0  0  0  0  0  0  0  0  0  0  # atno 8009 bound_to 7997
  154.4424  140.1009  156.6328 H   0  0  0  0  0  0  0  0  0  0  0  0  # atno 8010 bound_to 7997
  140.4525  143.2478  151.8468 H   0  0  0  0  0  0  0  0  0  0  0  0  # atno 10167 bound_to 10162
  157.2776  130.7239  149.6539 H   0  0  0  0  0  0  0  0  0  0  0  0  # atno 10718 bound_to 10713
  154.0603  135.2874  155.3326 H   0  0  0  0  0  0  0  0  0  0  0  0  # atno 10763 bound_to 10752
  154.6813  135.5262  153.8269 H   0  0  0  0  0  0  0  0  0  0  0  0  # atno 10764 bound_to 10752
  153.0525  135.6582  154.0792 H   0  0  0  0  0  0  0  0  0  0  0  0  # atno 10765 bound_to 10752
  140.1453  134.4530  155.8420 H   0  0  0  0  0  0  0  0  0  0  0  0  # atno 11005 bound_to 11000
  145.7605  140.9937  143.1203 LP  0  0  0  0  0  0  0  0  0  0  0  0  # atno 17320 bound_to 7965
  144.6894  139.9324  143.7472 LP  0  0  0  0  0  0  0  0  0  0  0  0  # atno 17321 bound_to 7965
  139.4798  144.5103  151.8941 LP  0  0  0  0  0  0  0  0  0  0  0  0  # atno 17342 bound_to 10162
  140.4190  144.2268  150.5887 LP  0  0  0  0  0  0  0  0  0  0  0  0  # atno 17343 bound_to 10162
  155.9664  130.4348  150.5064 LP  0  0  0  0  0  0  0  0  0  0  0  0  # atno 17370 bound_to 10713
  157.3001  131.0643  151.2074 LP  0  0  0  0  0  0  0  0  0  0  0  0  # atno 17371 bound_to 10713
  141.2192  133.6850  156.7322 LP  0  0  0  0  0  0  0  0  0  0  0  0  # atno 17394 bound_to 11000
  140.2671  134.8421  157.3813 LP  0  0  0  0  0  0  0  0  0  0  0  0  # atno 17395 bound_to 11000

$$$$
