AV-unprocessed.smi:557|AV-procd|sdf|2915|dock9
  -GOLD-   2262023403D 1   1.00000     0.00000
 Structure written by MMmdl.
 47 49  0  0  0  0  0  0  0  0  2 V2000
  150.8267  141.9912  156.2787 C   0  0  0  0  0  0  0  0  0  0  0  0
  149.9922  141.2978  155.3213 N   0  0  0  0  0  0  0  0  0  0  0  0
  148.7203  141.6171  154.8970 C   0  0  0  0  0  0  0  0  0  0  0  0
  148.3427  140.6709  153.9862 C   0  0  0  0  0  0  0  0  0  0  0  0
  147.0503  140.5559  153.2276 C   0  0  0  0  0  0  0  0  0  0  0  0
  146.9287  139.1959  152.5276 C   0  0  0  0  0  0  0  0  0  0  0  0
  146.3135  138.2138  153.4163 N   0  0  0  0  0  0  0  0  0  0  0  0
  145.5629  137.1563  153.0645 C   0  0  0  0  0  0  0  0  0  0  0  0
  145.3042  136.9033  151.8896 O   0  0  0  0  0  0  0  0  0  0  0  0
  145.1233  136.4155  154.0959 N   0  0  0  0  0  0  0  0  0  0  0  0
  144.2928  135.2206  153.9807 C   0  0  1  0  0  0  0  0  0  0  0  0
  142.8062  135.5462  153.7521 C   0  0  0  0  0  0  0  0  0  0  0  0
  142.2993  134.4748  152.7669 C   0  0  0  0  0  0  0  0  0  0  0  0
  143.4390  133.5607  152.5628 N   0  3  1  0  0  0  0  0  0  0  0  0
  143.4616  132.7825  151.3051 C   0  0  0  0  0  0  0  0  0  0  0  0
  144.6735  131.8294  151.3192 C   0  0  0  0  0  0  0  0  0  0  0  0
  145.9894  132.5824  151.6027 C   0  0  0  0  0  0  0  0  0  0  0  0
  145.8734  133.4492  152.8713 C   0  0  0  0  0  0  0  0  0  0  0  0
  144.6494  134.3739  152.7558 C   0  0  2  0  0  0  0  0  0  0  0  0
  149.4719  139.8055  153.9215 C   0  0  0  0  0  0  0  0  0  0  0  0
  150.4556  140.1821  154.7219 N   0  0  0  0  0  0  0  0  0  0  0  0
  150.2992  142.8585  156.6764 H   0  0  0  0  0  0  0  0  0  0  0  0
  151.7439  142.3261  155.7933 H   0  0  0  0  0  0  0  0  0  0  0  0
  151.0802  141.3219  157.1014 H   0  0  0  0  0  0  0  0  0  0  0  0
  148.1938  142.4813  155.2743 H   0  0  0  0  0  0  0  0  0  0  0  0
  146.2010  140.6947  153.8978 H   0  0  0  0  0  0  0  0  0  0  0  0
  146.9752  141.3518  152.4856 H   0  0  0  0  0  0  0  0  0  0  0  0
  146.3242  139.2957  151.6243 H   0  0  0  0  0  0  0  0  0  0  0  0
  147.9167  138.8462  152.2235 H   0  0  0  0  0  0  0  0  0  0  0  0
  146.4664  138.3544  154.4048 H   0  0  0  0  0  0  0  0  0  0  0  0
  145.3887  136.7001  155.0277 H   0  0  0  0  0  0  0  0  0  0  0  0
  144.3750  134.6095  154.8823 H   0  0  0  0  0  0  0  0  0  0  0  0
  142.2518  135.5289  154.6911 H   0  0  0  0  0  0  0  0  0  0  0  0
  142.6771  136.5374  153.3148 H   0  0  0  0  0  0  0  0  0  0  0  0
  141.4337  133.9332  153.1492 H   0  0  0  0  0  0  0  0  0  0  0  0
  142.0178  134.9403  151.8210 H   0  0  0  0  0  0  0  0  0  0  0  0
  142.5359  132.2139  151.2090 H   0  0  0  0  0  0  0  0  0  0  0  0
  143.5162  133.4584  150.4503 H   0  0  0  0  0  0  0  0  0  0  0  0
  144.5241  131.0680  152.0861 H   0  0  0  0  0  0  0  0  0  0  0  0
  144.7436  131.2986  150.3693 H   0  0  0  0  0  0  0  0  0  0  0  0
  146.8126  131.8747  151.7053 H   0  0  0  0  0  0  0  0  0  0  0  0
  146.2329  133.2184  150.7505 H   0  0  0  0  0  0  0  0  0  0  0  0
  145.7813  132.8114  153.7514 H   0  0  0  0  0  0  0  0  0  0  0  0
  146.7832  134.0354  153.0023 H   0  0  0  0  0  0  0  0  0  0  0  0
  144.7697  135.0294  151.8901 H   0  0  0  0  0  0  0  0  0  0  0  0
  149.6033  138.9182  153.3201 H   0  0  0  0  0  0  0  0  0  0  0  0
  143.4170  132.8992  153.3260 H   0  0  0  0  0  0  0  0  0  0  0  0
  1  2  1  0  0  0  0
  1 22  1  0  0  0  0
  1 23  1  0  0  0  0
  1 24  1  0  0  0  0
  2 21  1  0  0  0  0
  2  3  1  0  0  0  0
  3  4  2  0  0  0  0
  3 25  1  0  0  0  0
  4  5  1  0  0  0  0
  4 20  1  0  0  0  0
  5  6  1  0  0  0  0
  5 26  1  0  0  0  0
  5 27  1  0  0  0  0
  6  7  1  0  0  0  0
  6 28  1  0  0  0  0
  6 29  1  0  0  0  0
  7  8  1  0  0  0  0
  7 30  1  0  0  0  0
  8  9  2  0  0  0  0
  8 10  1  0  0  0  0
 10 11  1  0  0  0  0
 10 31  1  0  0  0  0
 11 19  1  0  0  0  0
 11 12  1  0  0  0  0
 11 32  1  0  0  0  0
 12 13  1  0  0  0  0
 12 33  1  0  0  0  0
 12 34  1  0  0  0  0
 13 14  1  0  0  0  0
 13 35  1  0  0  0  0
 13 36  1  0  0  0  0
 14 19  1  0  0  0  0
 14 15  1  0  0  0  0
 14 47  1  0  0  0  0
 15 16  1  0  0  0  0
 15 37  1  0  0  0  0
 15 38  1  0  0  0  0
 16 17  1  0  0  0  0
 16 39  1  0  0  0  0
 16 40  1  0  0  0  0
 17 18  1  0  0  0  0
 17 41  1  0  0  0  0
 17 42  1  0  0  0  0
 18 19  1  0  0  0  0
 18 43  1  0  0  0  0
 18 44  1  0  0  0  0
 19 45  1  0  0  0  0
 20 21  2  0  0  0  0
 20 46  1  0  0  0  0
M  CHG  1  14   1
M  END
> <s_m_source_file>
AV-unprocessed.smi

> <i_m_source_file_index>
557

> <i_lp_mmshare_version>
43012

> <i_f3d_flags>
0

> <s_epik_input>
W0NIM11uMVtjSF1jKFtjSF1uMSlbQ0gyXVtDSDJdW05IXUMoPU8pW05IXVtDQEhdKFtDSDJdW0NIMl0yKVtDQEhdKE4yMylbQ0gyXVtDSDJdW0NIMl1bQ0gyXTM=

> <s_epik_cmdline>
J2VwaWtfcHl0aG9uJywgJy1waCcsICc3LjAnLCAnLXRuJywgJzgnLCAnLW1hJywgJzIwMCcsICctbWV0YWxfYmluZGluZycsICctaW1hZScsICc8aW5maWxlLm1hZT4nLCAnLW9tYWUnLCAnPG91dGZpbGUubWFlPic=

> <r_lp_tautomer_probability>
1

> <r_epik_Ionization_Penalty>
0.000956547

> <r_epik_Ionization_Penalty_Charging>
0.000435796

> <r_epik_Ionization_Penalty_Neutral>
0.000520752

> <r_epik_State_Penalty>
-0

> <r_epik_Charging_Adjusted_Penalty>
0.000435796

> <i_epik_Tot_Q>
1

> <i_epik_Tot_abs_Q>
1

> <r_epik_Metal_State_Penalty>
-0

> <b_epik_Metal_Only>
0

> <s_lp_Force_Field>
OPLS_2005

> <r_lp_Energy>
39.7592

> <b_lp_Chiralities_Consistent>
1

> <s_lp_Variant>
AV-unprocessed.smi:557-2

> <Gold.Version>
5.8.1

> <Gold.Id.Protein>
6NUR|6NUR_protein|mol2

> <Gold.PLP.Fitness>
45.9814

> <Gold.PLP.PLP>
-34.3223

> <Gold.PLP.part.hbond>
-2.0000

> <Gold.PLP.part.metal>
0.0000

> <Gold.PLP.part.buried>
-3.1082

> <Gold.PLP.part.nonpolar>
-31.0689

> <Gold.PLP.part.repulsive>
1.1936

> <Gold.PLP.ligand.clash>
0.0000

> <Gold.PLP.ligand.torsion>
0.7871

> <Gold.PLP.Chemscore.Hbond>
3.0000

> <Gold.PLP.Chemscore.CHOScore>
1.4071

> <Gold.PLP.Chemscore.Metal>
0.0000

> <Gold.Chemscore.Hbonds>
donor molecule, donor type, donor heavy atom, donor atom, acceptor molecule, acceptor atom, score
      L1  H    14    47       P1 10957  2.00
      P1  H  7989  7998       L1    21  1.00
      L1  C     3    25       P1  8028  1.00
      L1  C    20    46       P1  7957  0.35

> <Gold.PLP.Chemscore.Internal.Correction>
0.0121

> <Gold.Rescore>
     Score         DG    S(hbond)    S(metal)    S(lipo)     H(rot)  DE(clash)    DE(int)     intcor
     12.44     -16.36       1.51        0.00      84.96       1.60       1.71       2.21       ----

> <Gold.Chemscore.Fitness>
12.4394

> <Gold.Chemscore.DG>
-16.3615

> <Gold.Chemscore.ZeroCoef>
-5.4800

> <Gold.Chemscore.Hbond>
1.5096

> <Gold.Chemscore.Metal>
0.0000

> <Gold.Chemscore.Lipo>
84.9570

> <Gold.Chemscore.Internal_Hbond>
0.0000

> <Gold.Chemscore.DEClash>
1.7087

> <Gold.Chemscore.DEInternal>
2.2134

> <Gold.Chemscore.Rot>
1.6018

> <Gold.Chemscore.Internal.Correction>
   9.000000E+99

> <Gold.Chemscore.Hbonds>
donor molecule, donor type, donor heavy atom, donor atom, acceptor molecule, acceptor atom, score
      L1  H    14    47       P1 10957  0.68
      P1  H  7989  7998       L1    21  0.09

> <Gold.Chemscore.Hbond.Weighted>
-5.0421

> <Gold.Chemscore.Metal.Weighted>
-0.0000

> <Gold.Chemscore.Lipo.Weighted>
-9.9400

> <Gold.Chemscore.Internal_Hbond.Weighted>
0.0000

> <Gold.Chemscore.DEClash.Weighted>
1.7087

> <Gold.Chemscore.DEInternal.Weighted>
2.2134

> <Gold.Chemscore.Rot.Weighted>
4.1006

> <Gold.Chemscore.Internal.Correction.Weighted>
   9.000000E+99

> <Gold.Protein.RotatedTorsions>
[ 6907 6896 6895 6894 ] final  -92.66 input  -60.11 | X-H torsion
[ 7974 7965 7964 7962 ] final   47.25 input  175.53 | X-H torsion
[ 8008 7997 7996 7995 ] final  -47.36 input   59.86 | X-H torsion
[ 10167 10162 10161 10158 ] final   17.46 input  -65.29 | X-H torsion
[ 10718 10713 10712 10709 ] final  -97.86 input   66.30 | X-H torsion
[ 10763 10752 10751 10750 ] final   17.21 input  -60.55 | X-H torsion
[ 11005 11000 10999 10996 ] final -165.13 input  -57.11 | X-H torsion

> <Gold.Protein.ActiveResidues>
 VAL166  LYS551  ARG553  GLY616  TRP617  ASP618  TYR619  PRO620  LYS621  CYS622 
 ASP623  PHE694  ASN695  SER759  ASP760  ASP761  ALA762  ILE779  LEU786  VAL792 
 PHE793  MET794  SER795  GLU796  ALA797  LYS798  CYS799  TRP800  GLU811  SER814 

> <Gold.Protein.RotatedAtoms>
  150.6909  134.2088  159.4350 H   0  0  0  0  0  0  0  0  0  0  0  0  # atno 6907 bound_to 6896
  152.0051  134.9905  160.0575 H   0  0  0  0  0  0  0  0  0  0  0  0  # atno 6908 bound_to 6896
  152.1542  133.4506  159.4865 H   0  0  0  0  0  0  0  0  0  0  0  0  # atno 6909 bound_to 6896
  146.0315  139.4770  142.9834 H   0  0  0  0  0  0  0  0  0  0  0  0  # atno 7974 bound_to 7965
  154.4016  140.1348  156.4162 H   0  0  0  0  0  0  0  0  0  0  0  0  # atno 8008 bound_to 7997
  155.7686  140.3484  155.5215 H   0  0  0  0  0  0  0  0  0  0  0  0  # atno 8009 bound_to 7997
  155.8789  140.0984  157.1489 H   0  0  0  0  0  0  0  0  0  0  0  0  # atno 8010 bound_to 7997
  140.5725  143.9135  150.6724 H   0  0  0  0  0  0  0  0  0  0  0  0  # atno 10167 bound_to 10162
  156.0093  130.5213  150.6437 H   0  0  0  0  0  0  0  0  0  0  0  0  # atno 10718 bound_to 10713
  153.1360  135.6750  153.9102 H   0  0  0  0  0  0  0  0  0  0  0  0  # atno 10763 bound_to 10752
  153.8574  135.3085  155.3437 H   0  0  0  0  0  0  0  0  0  0  0  0  # atno 10764 bound_to 10752
  154.7748  135.4920  153.9804 H   0  0  0  0  0  0  0  0  0  0  0  0  # atno 10765 bound_to 10752
  140.5791  134.5159  157.5175 H   0  0  0  0  0  0  0  0  0  0  0  0  # atno 11005 bound_to 11000
  145.7032  141.0129  143.1493 LP  0  0  0  0  0  0  0  0  0  0  0  0  # atno 17320 bound_to 7965
  144.7033  139.8669  143.7438 LP  0  0  0  0  0  0  0  0  0  0  0  0  # atno 17321 bound_to 7965
  140.2614  143.3521  152.1319 LP  0  0  0  0  0  0  0  0  0  0  0  0  # atno 17342 bound_to 10162
  139.5125  144.6917  151.5741 LP  0  0  0  0  0  0  0  0  0  0  0  0  # atno 17343 bound_to 10162
  157.4212  131.0837  151.1129 LP  0  0  0  0  0  0  0  0  0  0  0  0  # atno 17370 bound_to 10713
  157.1730  130.6276  149.5647 LP  0  0  0  0  0  0  0  0  0  0  0  0  # atno 17371 bound_to 10713
  139.9325  134.7936  156.0891 LP  0  0  0  0  0  0  0  0  0  0  0  0  # atno 17394 bound_to 11000
  141.1007  133.6678  156.2749 LP  0  0  0  0  0  0  0  0  0  0  0  0  # atno 17395 bound_to 11000

$$$$
