AV-unprocessed.smi:707|AV-procd|sdf|3455|dock3
  -GOLD-   22720 0443D 1   1.00000     0.00000
 Structure written by MMmdl.
 44 45  0  0  0  0  0  0  0  0  1 V2000
  149.7579  134.1646  154.8460 C   0  0  0  0  0  0  0  0  0  0  0  0
  149.8733  135.0166  156.0682 C   0  0  0  0  0  0  0  0  0  0  0  0
  149.6803  134.5628  157.3122 N   0  0  0  0  0  0  0  0  0  0  0  0
  149.8808  135.6507  158.1392 N   0  0  0  0  0  0  0  0  0  0  0  0
  150.1744  136.6522  157.3108 C   0  0  0  0  0  0  0  0  0  0  0  0
  150.1853  136.3272  156.0090 N   0  0  0  0  0  0  0  0  0  0  0  0
  150.4653  137.1777  154.8671 C   0  0  0  0  0  0  0  0  0  0  0  0
  151.8124  137.8974  155.0159 C   0  0  0  0  0  0  0  0  0  0  0  0
  151.6853  139.0395  155.9097 N   0  0  0  0  0  0  0  0  0  0  0  0
  151.0851  140.1939  155.5853 C   0  0  0  0  0  0  0  0  0  0  0  0
  150.5706  140.4033  154.4871 O   0  0  0  0  0  0  0  0  0  0  0  0
  151.0427  141.2709  156.6677 C   0  0  0  0  0  0  0  0  0  0  0  0
  151.6054  140.7473  157.8637 O   0  0  0  0  0  0  0  0  0  0  0  0
  152.4539  141.6518  158.5590 C   0  0  2  0  0  0  0  0  0  0  0  0
  152.8856  141.0693  159.9204 C   0  0  0  0  0  0  0  0  0  0  0  0
  153.6935  142.0934  160.7324 C   0  0  0  0  0  0  0  0  0  0  0  0
  152.9124  143.4040  160.9165 C   0  0  0  0  0  0  0  0  0  0  0  0
  152.4774  143.9967  159.5626 C   0  0  2  0  0  0  0  0  0  0  0  0
  151.6918  145.3028  159.7478 C   0  0  0  0  0  0  0  0  0  0  0  0
  151.6682  142.9601  158.7585 C   0  0  0  0  0  0  0  0  0  0  0  0
  149.5578  133.1286  155.1209 H   0  0  0  0  0  0  0  0  0  0  0  0
  150.6849  134.1961  154.2736 H   0  0  0  0  0  0  0  0  0  0  0  0
  148.9417  134.5194  154.2166 H   0  0  0  0  0  0  0  0  0  0  0  0
  150.3883  137.6505  157.6633 H   0  0  0  0  0  0  0  0  0  0  0  0
  150.4513  136.5685  153.9625 H   0  0  0  0  0  0  0  0  0  0  0  0
  149.6558  137.9030  154.7709 H   0  0  0  0  0  0  0  0  0  0  0  0
  152.5636  137.2133  155.4138 H   0  0  0  0  0  0  0  0  0  0  0  0
  152.1674  138.2343  154.0407 H   0  0  0  0  0  0  0  0  0  0  0  0
  152.0839  138.9525  156.8335 H   0  0  0  0  0  0  0  0  0  0  0  0
  151.5914  142.1486  156.3253 H   0  0  0  0  0  0  0  0  0  0  0  0
  150.0058  141.5680  156.8311 H   0  0  0  0  0  0  0  0  0  0  0  0
  153.3358  141.8721  157.9544 H   0  0  0  0  0  0  0  0  0  0  0  0
  152.0032  140.7692  160.4870 H   0  0  0  0  0  0  0  0  0  0  0  0
  153.4853  140.1699  159.7839 H   0  0  0  0  0  0  0  0  0  0  0  0
  153.9510  141.6752  161.7059 H   0  0  0  0  0  0  0  0  0  0  0  0
  154.6367  142.2986  160.2247 H   0  0  0  0  0  0  0  0  0  0  0  0
  152.0351  143.2192  161.5380 H   0  0  0  0  0  0  0  0  0  0  0  0
  153.5283  144.1226  161.4584 H   0  0  0  0  0  0  0  0  0  0  0  0
  153.3780  144.2340  158.9942 H   0  0  0  0  0  0  0  0  0  0  0  0
  150.7715  145.1363  160.3085 H   0  0  0  0  0  0  0  0  0  0  0  0
  151.4215  145.7378  158.7852 H   0  0  0  0  0  0  0  0  0  0  0  0
  152.2821  146.0429  160.2890 H   0  0  0  0  0  0  0  0  0  0  0  0
  151.3980  143.3739  157.7863 H   0  0  0  0  0  0  0  0  0  0  0  0
  150.7302  142.7476  159.2740 H   0  0  0  0  0  0  0  0  0  0  0  0
  1  2  1  0  0  0  0
  1 21  1  0  0  0  0
  1 22  1  0  0  0  0
  1 23  1  0  0  0  0
  2  6  1  0  0  0  0
  2  3  2  0  0  0  0
  3  4  1  0  0  0  0
  4  5  2  0  0  0  0
  5  6  1  0  0  0  0
  5 24  1  0  0  0  0
  6  7  1  0  0  0  0
  7  8  1  0  0  0  0
  7 25  1  0  0  0  0
  7 26  1  0  0  0  0
  8  9  1  0  0  0  0
  8 27  1  0  0  0  0
  8 28  1  0  0  0  0
  9 10  1  0  0  0  0
  9 29  1  0  0  0  0
 10 11  2  0  0  0  0
 10 12  1  0  0  0  0
 12 13  1  0  0  0  0
 12 30  1  0  0  0  0
 12 31  1  0  0  0  0
 13 14  1  0  0  0  0
 14 20  1  0  0  0  0
 14 15  1  0  0  0  0
 14 32  1  0  0  0  0
 15 16  1  0  0  0  0
 15 33  1  0  0  0  0
 15 34  1  0  0  0  0
 16 17  1  0  0  0  0
 16 35  1  0  0  0  0
 16 36  1  0  0  0  0
 17 18  1  0  0  0  0
 17 37  1  0  0  0  0
 17 38  1  0  0  0  0
 18 19  1  0  0  0  0
 18 20  1  0  0  0  0
 18 39  1  0  0  0  0
 19 40  1  0  0  0  0
 19 41  1  0  0  0  0
 19 42  1  0  0  0  0
 20 43  1  0  0  0  0
 20 44  1  0  0  0  0
M  END
> <s_m_source_file>
AV-unprocessed.smi

> <i_m_source_file_index>
707

> <i_lp_mmshare_version>
43012

> <i_f3d_flags>
0

> <s_epik_input>
W0NIM11jMW5uW2NIXW4xW0NIMl1bQ0gyXVtOSF1DKD1PKVtDSDJdT1tDQEBIXTJbQ0gyXVtDSDJdW0NIMl1bQ0BASF0oW0NIM10pW0NIMl0y

> <s_epik_cmdline>
J2VwaWtfcHl0aG9uJywgJy1waCcsICc3LjAnLCAnLXRuJywgJzgnLCAnLW1hJywgJzIwMCcsICctbWV0YWxfYmluZGluZycsICctaW1hZScsICc8aW5maWxlLm1hZT4nLCAnLW9tYWUnLCAnPG91dGZpbGUubWFlPic=

> <r_lp_tautomer_probability>
1

> <r_epik_Ionization_Penalty>
0.000271783

> <r_epik_Ionization_Penalty_Charging>
0

> <r_epik_Ionization_Penalty_Neutral>
0.000271783

> <r_epik_State_Penalty>
-0

> <r_epik_Charging_Adjusted_Penalty>
0

> <i_epik_Tot_Q>
0

> <i_epik_Tot_abs_Q>
0

> <r_epik_Metal_State_Penalty>
-0

> <b_epik_Metal_Only>
0

> <s_lp_Force_Field>
OPLS_2005

> <r_lp_Energy>
13.3138

> <b_lp_Chiralities_Consistent>
1

> <s_lp_Variant>
AV-unprocessed.smi:707-3

> <Gold.Version>
5.8.1

> <Gold.Id.Protein>
6NUR|6NUR_protein|mol2

> <Gold.PLP.Fitness>
46.1962

> <Gold.PLP.PLP>
-41.5955

> <Gold.PLP.part.hbond>
-2.4874

> <Gold.PLP.part.metal>
0.0000

> <Gold.PLP.part.buried>
-5.9262

> <Gold.PLP.part.nonpolar>
-32.6883

> <Gold.PLP.part.repulsive>
0.2377

> <Gold.PLP.ligand.clash>
0.0000

> <Gold.PLP.ligand.torsion>
0.5425

> <Gold.PLP.Chemscore.Hbond>
1.8640

> <Gold.PLP.Chemscore.CHOScore>
0.0000

> <Gold.PLP.Chemscore.Metal>
0.0000

> <Gold.Chemscore.Hbonds>
donor molecule, donor type, donor heavy atom, donor atom, acceptor molecule, acceptor atom, score
      P1  H  6896  6909       L1     4  0.84
      P1  H  7989  7998       L1    11  0.98

> <Gold.PLP.Chemscore.Internal.Correction>
0.0937

> <Gold.Rescore>
     Score         DG    S(hbond)    S(metal)    S(lipo)     H(rot)  DE(clash)    DE(int)     intcor
     16.29     -16.99       1.86        0.00      98.20       2.42       0.01       0.69       ----

> <Gold.Chemscore.Fitness>
16.2859

> <Gold.Chemscore.DG>
-16.9919

> <Gold.Chemscore.ZeroCoef>
-5.4800

> <Gold.Chemscore.Hbond>
1.8609

> <Gold.Chemscore.Metal>
0.0000

> <Gold.Chemscore.Lipo>
98.2018

> <Gold.Chemscore.Internal_Hbond>
0.0000

> <Gold.Chemscore.DEClash>
0.0120

> <Gold.Chemscore.DEInternal>
0.6941

> <Gold.Chemscore.Rot>
2.4191

> <Gold.Chemscore.Internal.Correction>
   9.000000E+99

> <Gold.Chemscore.Hbonds>
donor molecule, donor type, donor heavy atom, donor atom, acceptor molecule, acceptor atom, score
      P1  H  6896  6909       L1     4  0.14
      P1  H  7989  7998       L1    11  0.66

> <Gold.Chemscore.Hbond.Weighted>
-6.2152

> <Gold.Chemscore.Metal.Weighted>
-0.0000

> <Gold.Chemscore.Lipo.Weighted>
-11.4896

> <Gold.Chemscore.Internal_Hbond.Weighted>
0.0000

> <Gold.Chemscore.DEClash.Weighted>
0.0120

> <Gold.Chemscore.DEInternal.Weighted>
0.6941

> <Gold.Chemscore.Rot.Weighted>
6.1929

> <Gold.Chemscore.Internal.Correction.Weighted>
   9.000000E+99

> <Gold.Protein.RotatedTorsions>
[ 6907 6896 6895 6894 ] final   56.69 input  -60.11 | X-H torsion
[ 7974 7965 7964 7962 ] final   -1.65 input  175.53 | X-H torsion
[ 8008 7997 7996 7995 ] final   56.76 input   59.86 | X-H torsion
[ 10167 10162 10161 10158 ] final   84.12 input  -65.29 | X-H torsion
[ 10718 10713 10712 10709 ] final  -72.84 input   66.30 | X-H torsion
[ 10763 10752 10751 10750 ] final   16.25 input  -60.55 | X-H torsion
[ 11005 11000 10999 10996 ] final  -44.23 input  -57.11 | X-H torsion

> <Gold.Protein.ActiveResidues>
 VAL166  LYS551  ARG553  GLY616  TRP617  ASP618  TYR619  PRO620  LYS621  CYS622 
 ASP623  PHE694  ASN695  SER759  ASP760  ASP761  ALA762  ILE779  LEU786  VAL792 
 PHE793  MET794  SER795  GLU796  ALA797  LYS798  CYS799  TRP800  GLU811  SER814 

> <Gold.Protein.RotatedAtoms>
  152.3660  134.6803  160.0191 H   0  0  0  0  0  0  0  0  0  0  0  0  # atno 6907 bound_to 6896
  151.7111  133.3307  159.3299 H   0  0  0  0  0  0  0  0  0  0  0  0  # atno 6908 bound_to 6896
  150.7639  134.6466  159.6310 H   0  0  0  0  0  0  0  0  0  0  0  0  # atno 6909 bound_to 6896
  146.2414  140.1452  142.8335 H   0  0  0  0  0  0  0  0  0  0  0  0  # atno 7974 bound_to 7965
  155.5227  140.3480  155.4410 H   0  0  0  0  0  0  0  0  0  0  0  0  # atno 8008 bound_to 7997
  156.0773  140.1378  156.9782 H   0  0  0  0  0  0  0  0  0  0  0  0  # atno 8009 bound_to 7997
  154.4560  140.0953  156.6735 H   0  0  0  0  0  0  0  0  0  0  0  0  # atno 8010 bound_to 7997
  139.9113  144.6270  150.8535 H   0  0  0  0  0  0  0  0  0  0  0  0  # atno 10167 bound_to 10162
  156.0304  130.4381  150.2653 H   0  0  0  0  0  0  0  0  0  0  0  0  # atno 10718 bound_to 10713
  153.1448  135.6767  153.8971 H   0  0  0  0  0  0  0  0  0  0  0  0  # atno 10763 bound_to 10752
  153.8416  135.3104  155.3427 H   0  0  0  0  0  0  0  0  0  0  0  0  # atno 10764 bound_to 10752
  154.7816  135.4885  153.9942 H   0  0  0  0  0  0  0  0  0  0  0  0  # atno 10765 bound_to 10752
  141.0436  133.6770  156.2843 H   0  0  0  0  0  0  0  0  0  0  0  0  # atno 11005 bound_to 11000
  145.0214  140.8796  143.5165 LP  0  0  0  0  0  0  0  0  0  0  0  0  # atno 17320 bound_to 7965
  145.1501  139.2520  143.5445 LP  0  0  0  0  0  0  0  0  0  0  0  0  # atno 17321 bound_to 7965
  140.7684  143.3364  151.2301 LP  0  0  0  0  0  0  0  0  0  0  0  0  # atno 17342 bound_to 10162
  139.6940  143.9644  152.2873 LP  0  0  0  0  0  0  0  0  0  0  0  0  # atno 17343 bound_to 10162
  157.0755  131.0129  151.3175 LP  0  0  0  0  0  0  0  0  0  0  0  0  # atno 17370 bound_to 10713
  157.4967  130.7855  149.7562 LP  0  0  0  0  0  0  0  0  0  0  0  0  # atno 17371 bound_to 10713
  140.6188  134.5383  157.5544 LP  0  0  0  0  0  0  0  0  0  0  0  0  # atno 17394 bound_to 11000
  139.9295  134.7991  156.0972 LP  0  0  0  0  0  0  0  0  0  0  0  0  # atno 17395 bound_to 11000

$$$$
