AV-unprocessed.smi:794|AV-procd|sdf|3760|dock2
  -GOLD-   22720 1193D 1   1.00000     0.00000
 Structure written by MMmdl.
 41 43  0  0  0  0  0  0  0  0  1 V2000
  152.7845  143.2536  162.2851 C   0  0  0  0  0  0  0  0  0  0  0  0
  152.0027  143.4714  161.0258 C   0  0  0  0  0  0  0  0  0  0  0  0
  150.7232  144.0306  161.0955 N   0  0  0  0  0  0  0  0  0  0  0  0
  150.1591  144.1571  159.8901 C   0  0  0  0  0  0  0  0  0  0  0  0
  148.8664  144.6980  159.6630 N   0  0  0  0  0  0  0  0  0  0  0  0
  147.7666  144.5678  160.4254 C   0  0  0  0  0  0  0  0  0  0  0  0
  147.6939  143.9118  161.4647 O   0  0  0  0  0  0  0  0  0  0  0  0
  146.7376  145.2598  159.9147 N   0  0  0  0  0  0  0  0  0  0  0  0
  145.3946  145.3289  160.4932 C   0  0  2  0  0  0  0  0  0  0  0  0
  144.9587  143.9360  160.9973 C   0  0  1  0  0  0  0  0  0  0  0  0
  143.7494  144.0965  161.9364 C   0  0  0  0  0  0  0  0  0  0  0  0
  142.6168  144.4703  160.9615 C   0  0  0  0  0  0  0  0  0  0  0  0
  143.3275  144.4715  159.5931 C   0  0  2  0  0  0  0  0  0  0  0  0
  144.3115  143.3212  159.7625 C   0  0  0  0  0  0  0  0  0  0  0  0
  144.2565  145.7069  159.4959 C   0  0  2  0  0  0  0  0  0  0  0  0
  144.6925  146.0310  158.0486 C   0  0  0  0  0  0  0  0  0  0  0  0
  145.5517  147.1516  158.0313 O   0  0  0  0  0  0  0  0  0  0  0  0
  151.1744  143.5912  158.5751 S   0  0  0  0  0  0  0  0  0  0  0  0
  152.4053  143.1781  159.7431 C   0  0  0  0  0  0  0  0  0  0  0  0
  153.7022  142.5805  159.3088 C   0  0  0  0  0  0  0  0  0  0  0  0
  153.1084  142.2162  162.3720 H   0  0  0  0  0  0  0  0  0  0  0  0
  152.1961  143.4883  163.1726 H   0  0  0  0  0  0  0  0  0  0  0  0
  153.6758  143.8811  162.3063 H   0  0  0  0  0  0  0  0  0  0  0  0
  148.7733  145.2633  158.8322 H   0  0  0  0  0  0  0  0  0  0  0  0
  146.8864  145.7705  159.0567 H   0  0  0  0  0  0  0  0  0  0  0  0
  145.4111  146.0290  161.3309 H   0  0  0  0  0  0  0  0  0  0  0  0
  145.7662  143.3483  161.4359 H   0  0  0  0  0  0  0  0  0  0  0  0
  143.5234  143.1574  162.4430 H   0  0  0  0  0  0  0  0  0  0  0  0
  143.9113  144.8576  162.7006 H   0  0  0  0  0  0  0  0  0  0  0  0
  141.8269  143.7183  160.9876 H   0  0  0  0  0  0  0  0  0  0  0  0
  142.1651  145.4346  161.1968 H   0  0  0  0  0  0  0  0  0  0  0  0
  142.6378  144.3631  158.7557 H   0  0  0  0  0  0  0  0  0  0  0  0
  144.9986  143.2049  158.9233 H   0  0  0  0  0  0  0  0  0  0  0  0
  143.8268  142.3634  159.9597 H   0  0  0  0  0  0  0  0  0  0  0  0
  143.7339  146.5855  159.8782 H   0  0  0  0  0  0  0  0  0  0  0  0
  145.2400  145.1929  157.6173 H   0  0  0  0  0  0  0  0  0  0  0  0
  143.8353  146.2274  157.4045 H   0  0  0  0  0  0  0  0  0  0  0  0
  146.4457  146.8452  158.0374 H   0  0  0  0  0  0  0  0  0  0  0  0
  154.5383  143.0442  159.8328 H   0  0  0  0  0  0  0  0  0  0  0  0
  153.8618  142.7178  158.2390 H   0  0  0  0  0  0  0  0  0  0  0  0
  153.7231  141.5110  159.5185 H   0  0  0  0  0  0  0  0  0  0  0  0
  1  2  1  0  0  0  0
  1 21  1  0  0  0  0
  1 22  1  0  0  0  0
  1 23  1  0  0  0  0
  2 19  2  0  0  0  0
  2  3  1  0  0  0  0
  3  4  2  0  0  0  0
  4  5  1  0  0  0  0
  4 18  1  0  0  0  0
  5  6  1  0  0  0  0
  5 24  1  0  0  0  0
  6  7  2  0  0  0  0
  6  8  1  0  0  0  0
  8  9  1  0  0  0  0
  8 25  1  0  0  0  0
  9 15  1  0  0  0  0
  9 10  1  0  0  0  0
  9 26  1  0  0  0  0
 10 14  1  0  0  0  0
 10 11  1  0  0  0  0
 10 27  1  0  0  0  0
 11 12  1  0  0  0  0
 11 28  1  0  0  0  0
 11 29  1  0  0  0  0
 12 13  1  0  0  0  0
 12 30  1  0  0  0  0
 12 31  1  0  0  0  0
 13 14  1  0  0  0  0
 13 15  1  0  0  0  0
 13 32  1  0  0  0  0
 14 33  1  0  0  0  0
 14 34  1  0  0  0  0
 15 16  1  0  0  0  0
 15 35  1  0  0  0  0
 16 17  1  0  0  0  0
 16 36  1  0  0  0  0
 16 37  1  0  0  0  0
 17 38  1  0  0  0  0
 18 19  1  0  0  0  0
 19 20  1  0  0  0  0
 20 39  1  0  0  0  0
 20 40  1  0  0  0  0
 20 41  1  0  0  0  0
M  END
> <s_m_source_file>
AV-unprocessed.smi

> <i_m_source_file_index>
794

> <i_lp_mmshare_version>
43012

> <i_f3d_flags>
0

> <s_epik_input>
W0NIM11jMW5jKHNjMVtDSDNdKVtOSF1DKD1PKVtOSF1bQ0BIXShbQ0BASF0yMylbQ0BIXShbQ0gyXVtPSF0pW0NAQEhdKFtDSDJdMylbQ0gyXVtDSDJdMg==

> <s_epik_cmdline>
J2VwaWtfcHl0aG9uJywgJy1waCcsICc3LjAnLCAnLXRuJywgJzgnLCAnLW1hJywgJzIwMCcsICctbWV0YWxfYmluZGluZycsICctaW1hZScsICc8aW5maWxlLm1hZT4nLCAnLW9tYWUnLCAnPG91dGZpbGUubWFlPic=

> <r_lp_tautomer_probability>
0.999

> <r_epik_Ionization_Penalty>
0.000713029

> <r_epik_Ionization_Penalty_Charging>
0

> <r_epik_Ionization_Penalty_Neutral>
0.000713029

> <r_epik_State_Penalty>
0.000177984

> <r_epik_Charging_Adjusted_Penalty>
0.000177984

> <i_epik_Tot_Q>
0

> <i_epik_Tot_abs_Q>
0

> <r_epik_Metal_State_Penalty>
-0

> <b_epik_Metal_Only>
0

> <s_lp_Force_Field>
OPLS_2005

> <r_lp_Energy>
48.2777

> <b_lp_Chiralities_Consistent>
1

> <s_lp_Variant>
AV-unprocessed.smi:794-5

> <Gold.Version>
5.8.1

> <Gold.Id.Protein>
6NUR|6NUR_protein|mol2

> <Gold.PLP.Fitness>
46.8514

> <Gold.PLP.PLP>
-35.9338

> <Gold.PLP.part.hbond>
-4.9908

> <Gold.PLP.part.metal>
0.0000

> <Gold.PLP.part.buried>
-4.9117

> <Gold.PLP.part.nonpolar>
-26.7844

> <Gold.PLP.part.repulsive>
0.5897

> <Gold.PLP.ligand.clash>
0.0000

> <Gold.PLP.ligand.torsion>
0.5484

> <Gold.PLP.Chemscore.Hbond>
4.0000

> <Gold.PLP.Chemscore.CHOScore>
0.0000

> <Gold.PLP.Chemscore.Metal>
0.0000

> <Gold.Chemscore.Hbonds>
donor molecule, donor type, donor heavy atom, donor atom, acceptor molecule, acceptor atom, score
      L1  H     5    24       P1  8029  1.00
      L1  H     8    25       P1  8029  1.00
      L1  H    17    38       P1  8029  1.00
      P1  H  6933  6944       L1     7  1.00

> <Gold.PLP.Chemscore.Internal.Correction>
0.0145

> <Gold.Rescore>
     Score         DG    S(hbond)    S(metal)    S(lipo)     H(rot)  DE(clash)    DE(int)     intcor
     21.42     -24.28       3.88        0.00      88.86       1.78       0.03       2.83       ----

> <Gold.Chemscore.Fitness>
21.4202

> <Gold.Chemscore.DG>
-24.2813

> <Gold.Chemscore.ZeroCoef>
-5.4800

> <Gold.Chemscore.Hbond>
3.8804

> <Gold.Chemscore.Metal>
0.0000

> <Gold.Chemscore.Lipo>
88.8619

> <Gold.Chemscore.Internal_Hbond>
0.0000

> <Gold.Chemscore.DEClash>
0.0276

> <Gold.Chemscore.DEInternal>
2.8335

> <Gold.Chemscore.Rot>
1.7798

> <Gold.Chemscore.Internal.Correction>
   9.000000E+99

> <Gold.Chemscore.Hbonds>
donor molecule, donor type, donor heavy atom, donor atom, acceptor molecule, acceptor atom, score
      L1  H     5    24       P1  8029  0.98
      L1  H     8    25       P1  8029  0.88
      L1  H    17    38       P1  8029  0.95
      P1  H  6933  6944       L1     7  0.94

> <Gold.Chemscore.Hbond.Weighted>
-12.9607

> <Gold.Chemscore.Metal.Weighted>
-0.0000

> <Gold.Chemscore.Lipo.Weighted>
-10.3968

> <Gold.Chemscore.Internal_Hbond.Weighted>
0.0000

> <Gold.Chemscore.DEClash.Weighted>
0.0276

> <Gold.Chemscore.DEInternal.Weighted>
2.8335

> <Gold.Chemscore.Rot.Weighted>
4.5562

> <Gold.Chemscore.Internal.Correction.Weighted>
   9.000000E+99

> <Gold.Protein.RotatedTorsions>
[ 6907 6896 6895 6894 ] final   50.68 input  -60.11 | X-H torsion
[ 7974 7965 7964 7962 ] final -109.02 input  175.53 | X-H torsion
[ 8008 7997 7996 7995 ] final  154.30 input   59.86 | X-H torsion
[ 10167 10162 10161 10158 ] final  126.86 input  -65.29 | X-H torsion
[ 10718 10713 10712 10709 ] final  116.10 input   66.30 | X-H torsion
[ 10763 10752 10751 10750 ] final -174.51 input  -60.55 | X-H torsion
[ 11005 11000 10999 10996 ] final  -49.30 input  -57.11 | X-H torsion

> <Gold.Protein.ActiveResidues>
 VAL166  LYS551  ARG553  GLY616  TRP617  ASP618  TYR619  PRO620  LYS621  CYS622 
 ASP623  PHE694  ASN695  SER759  ASP760  ASP761  ALA762  ILE779  LEU786  VAL792 
 PHE793  MET794  SER795  GLU796  ALA797  LYS798  CYS799  TRP800  GLU811  SER814 

> <Gold.Protein.RotatedAtoms>
  152.3045  134.7572  160.0350 H   0  0  0  0  0  0  0  0  0  0  0  0  # atno 6907 bound_to 6896
  151.8073  133.3372  159.3553 H   0  0  0  0  0  0  0  0  0  0  0  0  # atno 6908 bound_to 6896
  150.7289  134.5626  159.5894 H   0  0  0  0  0  0  0  0  0  0  0  0  # atno 6909 bound_to 6896
  145.1857  140.8992  143.3454 H   0  0  0  0  0  0  0  0  0  0  0  0  # atno 7974 bound_to 7965
  156.2538  140.1970  156.6625 H   0  0  0  0  0  0  0  0  0  0  0  0  # atno 8008 bound_to 7997
  154.6453  140.0578  156.9919 H   0  0  0  0  0  0  0  0  0  0  0  0  # atno 8009 bound_to 7997
  155.1500  140.3250  155.4436 H   0  0  0  0  0  0  0  0  0  0  0  0  # atno 8010 bound_to 7997
  139.5609  144.6881  151.4047 H   0  0  0  0  0  0  0  0  0  0  0  0  # atno 10167 bound_to 10162
  157.6181  131.1021  150.7424 H   0  0  0  0  0  0  0  0  0  0  0  0  # atno 10718 bound_to 10713
  154.5953  135.2849  155.0592 H   0  0  0  0  0  0  0  0  0  0  0  0  # atno 10763 bound_to 10752
  154.1877  135.6446  153.5055 H   0  0  0  0  0  0  0  0  0  0  0  0  # atno 10764 bound_to 10752
  153.0136  135.5439  154.6653 H   0  0  0  0  0  0  0  0  0  0  0  0  # atno 10765 bound_to 10752
  141.0751  133.6668  156.3566 H   0  0  0  0  0  0  0  0  0  0  0  0  # atno 11005 bound_to 11000
  145.0091  139.3526  143.6129 LP  0  0  0  0  0  0  0  0  0  0  0  0  # atno 17320 bound_to 7965
  146.3445  139.9347  142.8749 LP  0  0  0  0  0  0  0  0  0  0  0  0  # atno 17321 bound_to 7965
  140.6888  143.7910  150.7225 LP  0  0  0  0  0  0  0  0  0  0  0  0  # atno 17342 bound_to 10162
  140.1386  143.4461  152.2208 LP  0  0  0  0  0  0  0  0  0  0  0  0  # atno 17343 bound_to 10162
  156.7788  130.4852  149.5405 LP  0  0  0  0  0  0  0  0  0  0  0  0  # atno 17370 bound_to 10713
  156.1313  130.6180  151.0337 LP  0  0  0  0  0  0  0  0  0  0  0  0  # atno 17371 bound_to 10713
  140.5590  134.5952  157.5428 LP  0  0  0  0  0  0  0  0  0  0  0  0  # atno 17394 bound_to 11000
  139.9563  134.7529  156.0334 LP  0  0  0  0  0  0  0  0  0  0  0  0  # atno 17395 bound_to 11000

$$$$
