AV-unprocessed.smi:3117|AV-procd|sdf|11882|dock2
  -GOLD-   2272017273D 1   1.00000     0.00000
 Structure written by MMmdl.
 36 36  0  0  0  0  0  0  0  0  1 V2000
  152.8822  139.3232  159.2444 C   0  0  0  0  0  0  0  0  0  0  0  0
  152.1902  140.6564  158.9098 C   0  0  2  0  0  0  0  0  0  0  0  0
  151.8623  140.6384  157.4785 N   0  0  0  0  0  0  0  0  0  0  0  0
  151.0153  139.5278  157.0331 C   0  0  0  0  0  0  0  0  0  0  0  0
  151.0945  139.3042  155.5081 C   0  0  0  0  0  0  0  0  0  0  0  0
  152.5599  139.1033  155.0877 C   0  0  0  0  0  0  0  0  0  0  0  0
  150.2407  138.1113  155.0369 C   0  0  0  0  0  0  0  0  0  0  0  0
  150.6475  140.4781  154.8575 O   0  0  0  0  0  0  0  0  0  0  0  0
  153.0733  141.8854  159.2882 C   0  0  2  0  0  0  0  0  0  0  0  0
  153.6493  141.8113  160.7169 C   0  0  0  0  0  0  0  0  0  0  0  0
  152.3770  143.1539  159.1122 N   0  0  0  0  0  0  0  0  0  0  0  0
  152.1970  144.1611  160.0385 C   0  0  0  0  0  0  0  0  0  0  0  0
  151.4989  145.1615  159.4252 C   0  0  0  0  0  0  0  0  0  0  0  0
  151.2928  144.6699  158.1062 C   0  0  0  0  0  0  0  0  0  0  0  0
  151.8198  143.4707  157.9205 N   0  0  0  0  0  0  0  0  0  0  0  0
  153.0190  139.1966  160.3181 H   0  0  0  0  0  0  0  0  0  0  0  0
  153.8604  139.2499  158.7680 H   0  0  0  0  0  0  0  0  0  0  0  0
  152.2841  138.4768  158.9050 H   0  0  0  0  0  0  0  0  0  0  0  0
  151.2676  140.6870  159.4913 H   0  0  0  0  0  0  0  0  0  0  0  0
  152.7204  140.6279  156.9357 H   0  0  0  0  0  0  0  0  0  0  0  0
  151.3044  138.6138  157.5536 H   0  0  0  0  0  0  0  0  0  0  0  0
  149.9763  139.7065  157.2971 H   0  0  0  0  0  0  0  0  0  0  0  0
  152.9828  138.2116  155.5519 H   0  0  0  0  0  0  0  0  0  0  0  0
  153.1792  139.9518  155.3824 H   0  0  0  0  0  0  0  0  0  0  0  0
  152.6541  138.9867  154.0073 H   0  0  0  0  0  0  0  0  0  0  0  0
  150.5429  137.1917  155.5395 H   0  0  0  0  0  0  0  0  0  0  0  0
  150.3442  137.9493  153.9635 H   0  0  0  0  0  0  0  0  0  0  0  0
  149.1801  138.2638  155.2391 H   0  0  0  0  0  0  0  0  0  0  0  0
  149.7103  140.4230  154.7495 H   0  0  0  0  0  0  0  0  0  0  0  0
  153.9261  141.9016  158.6074 H   0  0  0  0  0  0  0  0  0  0  0  0
  154.3631  140.9947  160.8230 H   0  0  0  0  0  0  0  0  0  0  0  0
  152.8632  141.6680  161.4590 H   0  0  0  0  0  0  0  0  0  0  0  0
  154.1823  142.7283  160.9705 H   0  0  0  0  0  0  0  0  0  0  0  0
  152.5814  144.0846  161.0450 H   0  0  0  0  0  0  0  0  0  0  0  0
  151.1850  146.1017  159.8534 H   0  0  0  0  0  0  0  0  0  0  0  0
  150.7812  145.1467  157.2832 H   0  0  0  0  0  0  0  0  0  0  0  0
  1  2  1  0  0  0  0
  1 16  1  0  0  0  0
  1 17  1  0  0  0  0
  1 18  1  0  0  0  0
  2  3  1  0  0  0  0
  2  9  1  0  0  0  0
  2 19  1  0  0  0  0
  3  4  1  0  0  0  0
  3 20  1  0  0  0  0
  4  5  1  0  0  0  0
  4 21  1  0  0  0  0
  4 22  1  0  0  0  0
  5  6  1  0  0  0  0
  5  7  1  0  0  0  0
  5  8  1  0  0  0  0
  6 23  1  0  0  0  0
  6 24  1  0  0  0  0
  6 25  1  0  0  0  0
  7 26  1  0  0  0  0
  7 27  1  0  0  0  0
  7 28  1  0  0  0  0
  8 29  1  0  0  0  0
  9 10  1  0  0  0  0
  9 11  1  0  0  0  0
  9 30  1  0  0  0  0
 10 31  1  0  0  0  0
 10 32  1  0  0  0  0
 10 33  1  0  0  0  0
 11 15  1  0  0  0  0
 11 12  1  0  0  0  0
 12 13  2  0  0  0  0
 12 34  1  0  0  0  0
 13 14  1  0  0  0  0
 13 35  1  0  0  0  0
 14 15  2  0  0  0  0
 14 36  1  0  0  0  0
M  END
> <s_m_source_file>
AV-unprocessed.smi

> <i_m_source_file_index>
3117

> <i_lp_mmshare_version>
43012

> <i_f3d_flags>
0

> <s_epik_input>
W0NIM11DKFtDSDNdKShbT0hdKVtDSDJdW05IXVtDQEBIXShbQ0gzXSlbQ0BIXShbQ0gzXSluMVtjSF1bY0hdW2NIXW4x

> <s_epik_cmdline>
J2VwaWtfcHl0aG9uJywgJy1waCcsICc3LjAnLCAnLXRuJywgJzgnLCAnLW1hJywgJzIwMCcsICctbWV0YWxfYmluZGluZycsICctaW1hZScsICc8aW5maWxlLm1hZT4nLCAnLW9tYWUnLCAnPG91dGZpbGUubWFlPic=

> <r_lp_tautomer_probability>
1

> <r_epik_Ionization_Penalty>
2.13419

> <r_epik_Ionization_Penalty_Charging>
0

> <r_epik_Ionization_Penalty_Neutral>
2.13419

> <r_epik_State_Penalty>
2.27148

> <r_epik_Charging_Adjusted_Penalty>
2.27148

> <i_epik_Tot_Q>
0

> <i_epik_Tot_abs_Q>
0

> <r_epik_Metal_State_Penalty>
2.27029

> <b_epik_Metal_Only>
0

> <s_lp_Force_Field>
OPLS_2005

> <r_lp_Energy>
19.9089

> <b_lp_Chiralities_Consistent>
1

> <s_lp_Variant>
AV-unprocessed.smi:3117-5

> <Gold.Version>
5.8.1

> <Gold.Id.Protein>
6NUR|6NUR_protein|mol2

> <Gold.PLP.Fitness>
42.8475

> <Gold.PLP.PLP>
-37.1099

> <Gold.PLP.part.hbond>
-1.0000

> <Gold.PLP.part.metal>
0.0000

> <Gold.PLP.part.buried>
-4.2641

> <Gold.PLP.part.nonpolar>
-31.8461

> <Gold.PLP.part.repulsive>
0.0707

> <Gold.PLP.ligand.clash>
0.0000

> <Gold.PLP.ligand.torsion>
0.2004

> <Gold.PLP.Chemscore.Hbond>
1.0000

> <Gold.PLP.Chemscore.CHOScore>
1.0000

> <Gold.PLP.Chemscore.Metal>
0.0000

> <Gold.Chemscore.Hbonds>
donor molecule, donor type, donor heavy atom, donor atom, acceptor molecule, acceptor atom, score
      P1  H  7989  7998       L1     8  1.00
      L1  C    14    36       P1  8028  1.00

> <Gold.PLP.Chemscore.Internal.Correction>
0.1383

> <Gold.Rescore>
     Score         DG    S(hbond)    S(metal)    S(lipo)     H(rot)  DE(clash)    DE(int)     intcor
     12.70     -14.30       0.96        0.00      95.95       2.19       0.10       1.50       ----

> <Gold.Chemscore.Fitness>
12.6970

> <Gold.Chemscore.DG>
-14.3027

> <Gold.Chemscore.ZeroCoef>
-5.4800

> <Gold.Chemscore.Hbond>
0.9575

> <Gold.Chemscore.Metal>
0.0000

> <Gold.Chemscore.Lipo>
95.9509

> <Gold.Chemscore.Internal_Hbond>
0.0000

> <Gold.Chemscore.DEClash>
0.1031

> <Gold.Chemscore.DEInternal>
1.5025

> <Gold.Chemscore.Rot>
2.1882

> <Gold.Chemscore.Internal.Correction>
   9.000000E+99

> <Gold.Chemscore.Hbonds>
donor molecule, donor type, donor heavy atom, donor atom, acceptor molecule, acceptor atom, score
      P1  H  7989  7998       L1     8  0.77

> <Gold.Chemscore.Hbond.Weighted>
-3.1982

> <Gold.Chemscore.Metal.Weighted>
-0.0000

> <Gold.Chemscore.Lipo.Weighted>
-11.2263

> <Gold.Chemscore.Internal_Hbond.Weighted>
0.0000

> <Gold.Chemscore.DEClash.Weighted>
0.1031

> <Gold.Chemscore.DEInternal.Weighted>
1.5025

> <Gold.Chemscore.Rot.Weighted>
5.6018

> <Gold.Chemscore.Internal.Correction.Weighted>
   9.000000E+99

> <Gold.Protein.RotatedTorsions>
[ 6907 6896 6895 6894 ] final   43.82 input  -60.11 | X-H torsion
[ 7974 7965 7964 7962 ] final   81.51 input  175.53 | X-H torsion
[ 8008 7997 7996 7995 ] final  -98.25 input   59.86 | X-H torsion
[ 10167 10162 10161 10158 ] final -150.51 input  -65.29 | X-H torsion
[ 10718 10713 10712 10709 ] final  -85.63 input   66.30 | X-H torsion
[ 10763 10752 10751 10750 ] final   -5.71 input  -60.55 | X-H torsion
[ 11005 11000 10999 10996 ] final  153.36 input  -57.11 | X-H torsion

> <Gold.Protein.ActiveResidues>
 VAL166  LYS551  ARG553  GLY616  TRP617  ASP618  TYR619  PRO620  LYS621  CYS622 
 ASP623  PHE694  ASN695  SER759  ASP760  ASP761  ALA762  ILE779  LEU786  VAL792 
 PHE793  MET794  SER795  GLU796  ALA797  LYS798  CYS799  TRP800  GLU811  SER814 

> <Gold.Protein.RotatedAtoms>
  152.2249  134.8377  160.0480 H   0  0  0  0  0  0  0  0  0  0  0  0  # atno 6907 bound_to 6896
  151.9147  133.3565  159.3884 H   0  0  0  0  0  0  0  0  0  0  0  0  # atno 6908 bound_to 6896
  150.7010  134.4621  159.5430 H   0  0  0  0  0  0  0  0  0  0  0  0  # atno 6909 bound_to 6896
  145.6371  139.2417  143.2051 H   0  0  0  0  0  0  0  0  0  0  0  0  # atno 7974 bound_to 7965
  154.7986  140.0456  157.1256 H   0  0  0  0  0  0  0  0  0  0  0  0  # atno 8008 bound_to 7997
  154.9505  140.3064  155.5057 H   0  0  0  0  0  0  0  0  0  0  0  0  # atno 8009 bound_to 7997
  156.2959  140.2289  156.4583 H   0  0  0  0  0  0  0  0  0  0  0  0  # atno 8010 bound_to 7997
  139.7348  143.8752  152.2545 H   0  0  0  0  0  0  0  0  0  0  0  0  # atno 10167 bound_to 10162
  155.9995  130.4737  150.4591 H   0  0  0  0  0  0  0  0  0  0  0  0  # atno 10718 bound_to 10713
  153.4023  135.7005  153.6417 H   0  0  0  0  0  0  0  0  0  0  0  0  # atno 10763 bound_to 10752
  153.4945  135.3665  155.2509 H   0  0  0  0  0  0  0  0  0  0  0  0  # atno 10764 bound_to 10752
  154.8711  135.4097  154.3360 H   0  0  0  0  0  0  0  0  0  0  0  0  # atno 10765 bound_to 10752
  140.1391  134.8751  157.2307 H   0  0  0  0  0  0  0  0  0  0  0  0  # atno 11005 bound_to 11000
  146.1310  140.7185  142.9412 LP  0  0  0  0  0  0  0  0  0  0  0  0  # atno 17320 bound_to 7965
  144.7171  140.4248  143.7036 LP  0  0  0  0  0  0  0  0  0  0  0  0  # atno 17321 bound_to 7965
  139.8686  144.7080  150.9015 LP  0  0  0  0  0  0  0  0  0  0  0  0  # atno 17342 bound_to 10162
  140.7777  143.3757  151.1567 LP  0  0  0  0  0  0  0  0  0  0  0  0  # atno 17343 bound_to 10162
  157.2617  131.0568  151.2316 LP  0  0  0  0  0  0  0  0  0  0  0  0  # atno 17370 bound_to 10713
  157.3428  130.7042  149.6392 LP  0  0  0  0  0  0  0  0  0  0  0  0  # atno 17371 bound_to 10713
  140.2745  134.3422  155.7363 LP  0  0  0  0  0  0  0  0  0  0  0  0  # atno 17394 bound_to 11000
  141.2183  133.7442  156.9272 LP  0  0  0  0  0  0  0  0  0  0  0  0  # atno 17395 bound_to 11000

$$$$
