AV-unprocessed.smi:2423|AV-procd|sdf|9558|dock5
  -GOLD-   2272013193D 1   1.00000     0.00000
 Structure written by MMmdl.
 37 39  0  0  0  0  0  0  0  0  1 V2000
  149.6642  140.4804  157.4070 O   0  0  0  0  0  0  0  0  0  0  0  0
  149.4652  141.5942  156.9274 C   0  0  0  0  0  0  0  0  0  0  0  0
  149.8581  142.7072  157.5705 N   0  0  0  0  0  0  0  0  0  0  0  0
  150.5258  142.7954  158.8696 C   0  0  0  0  0  0  0  0  0  0  0  0
  151.0111  144.2247  159.1763 C   0  0  0  0  0  0  0  0  0  0  0  0
  149.8195  145.0019  159.7450 C   0  0  0  0  0  0  0  0  0  0  0  0
  149.2002  144.7516  161.1006 C   0  0  0  0  0  0  0  0  0  0  0  0
  148.4465  144.3852  159.8361 C   0  0  0  0  0  0  0  0  0  0  0  0
  152.3520  144.2719  159.9506 C   0  0  0  0  0  0  0  0  0  0  0  0
  153.0906  144.3979  158.6190 C   0  0  0  0  0  0  0  0  0  0  0  0
  151.7816  144.9306  158.0389 C   0  0  0  0  0  0  0  0  0  0  0  0
  148.8732  141.8293  155.7397 N   0  0  0  0  0  0  0  0  0  0  0  0
  148.3424  140.9034  154.8006 C   0  0  0  0  0  0  0  0  0  0  0  0
  148.8210  139.5826  154.6231 C   0  0  0  0  0  0  0  0  0  0  0  0
  148.1923  138.7602  153.6668 C   0  0  0  0  0  0  0  0  0  0  0  0
  147.1478  139.1610  152.9115 N   0  0  0  0  0  0  0  0  0  0  0  0
  146.6863  140.4165  153.0921 C   0  0  0  0  0  0  0  0  0  0  0  0
  147.2425  141.3190  154.0206 C   0  0  0  0  0  0  0  0  0  0  0  0
  146.7278  142.5656  154.1550 F   0  0  0  0  0  0  0  0  0  0  0  0
  149.6854  143.5860  157.1039 H   0  0  0  0  0  0  0  0  0  0  0  0
  149.8409  142.4582  159.6495 H   0  0  0  0  0  0  0  0  0  0  0  0
  151.3626  142.0950  158.8752 H   0  0  0  0  0  0  0  0  0  0  0  0
  149.8402  146.0565  159.4765 H   0  0  0  0  0  0  0  0  0  0  0  0
  149.5755  143.9395  161.7170 H   0  0  0  0  0  0  0  0  0  0  0  0
  148.8482  145.6194  161.6548 H   0  0  0  0  0  0  0  0  0  0  0  0
  147.5994  145.0069  159.5542 H   0  0  0  0  0  0  0  0  0  0  0  0
  148.3467  143.3273  159.6018 H   0  0  0  0  0  0  0  0  0  0  0  0
  152.4934  145.1551  160.5719 H   0  0  0  0  0  0  0  0  0  0  0  0
  152.5886  143.3659  160.5095 H   0  0  0  0  0  0  0  0  0  0  0  0
  153.9147  145.1118  158.6179 H   0  0  0  0  0  0  0  0  0  0  0  0
  153.3846  143.4351  158.1983 H   0  0  0  0  0  0  0  0  0  0  0  0
  151.5561  144.5751  157.0329 H   0  0  0  0  0  0  0  0  0  0  0  0
  151.7168  146.0188  158.0940 H   0  0  0  0  0  0  0  0  0  0  0  0
  148.8481  142.7951  155.4470 H   0  0  0  0  0  0  0  0  0  0  0  0
  149.6394  139.1816  155.2002 H   0  0  0  0  0  0  0  0  0  0  0  0
  148.5354  137.7483  153.5090 H   0  0  0  0  0  0  0  0  0  0  0  0
  145.8466  140.7105  152.4797 H   0  0  0  0  0  0  0  0  0  0  0  0
  1  2  2  0  0  0  0
  2  3  1  0  0  0  0
  2 12  1  0  0  0  0
  3  4  1  0  0  0  0
  3 20  1  0  0  0  0
  4  5  1  0  0  0  0
  4 21  1  0  0  0  0
  4 22  1  0  0  0  0
  5 11  1  0  0  0  0
  5  6  1  0  0  0  0
  5  9  1  0  0  0  0
  6  8  1  0  0  0  0
  6  7  1  0  0  0  0
  6 23  1  0  0  0  0
  7  8  1  0  0  0  0
  7 24  1  0  0  0  0
  7 25  1  0  0  0  0
  8 26  1  0  0  0  0
  8 27  1  0  0  0  0
  9 10  1  0  0  0  0
  9 28  1  0  0  0  0
  9 29  1  0  0  0  0
 10 11  1  0  0  0  0
 10 30  1  0  0  0  0
 10 31  1  0  0  0  0
 11 32  1  0  0  0  0
 11 33  1  0  0  0  0
 12 13  1  0  0  0  0
 12 34  1  0  0  0  0
 13 18  1  0  0  0  0
 13 14  2  0  0  0  0
 14 15  1  0  0  0  0
 14 35  1  0  0  0  0
 15 16  2  0  0  0  0
 15 36  1  0  0  0  0
 16 17  1  0  0  0  0
 17 18  2  0  0  0  0
 17 37  1  0  0  0  0
 18 19  1  0  0  0  0
M  END
> <s_m_source_file>
AV-unprocessed.smi

> <i_m_source_file_index>
2423

> <i_lp_mmshare_version>
43012

> <i_f3d_flags>
0

> <s_epik_input>
W0NIMl0xW0NIMl1bQ0hdMUMyKFtDSDJdW0NIMl1bQ0gyXTIpW0NIMl1bTkhdQyg9TylbTkhdYzNbY0hdW2NIXW5bY0hdYzNG

> <s_epik_cmdline>
J2VwaWtfcHl0aG9uJywgJy1waCcsICc3LjAnLCAnLXRuJywgJzgnLCAnLW1hJywgJzIwMCcsICctbWV0YWxfYmluZGluZycsICctaW1hZScsICc8aW5maWxlLm1hZT4nLCAnLW9tYWUnLCAnPG91dGZpbGUubWFlPic=

> <r_epik_Ionization_Penalty>
0.00332314

> <r_epik_Ionization_Penalty_Charging>
0

> <r_epik_Ionization_Penalty_Neutral>
0.00332314

> <r_epik_State_Penalty>
0.00231995

> <r_epik_Charging_Adjusted_Penalty>
0.00231995

> <i_epik_Tot_Q>
0

> <i_epik_Tot_abs_Q>
0

> <r_epik_Metal_State_Penalty>
-0

> <b_epik_Metal_Only>
0

> <s_lp_Force_Field>
OPLS_2005

> <r_lp_Energy>
40.5055

> <b_lp_Chiralities_Consistent>
1

> <s_lp_Variant>
AV-unprocessed.smi:2423-1

> <Gold.Version>
5.8.1

> <Gold.Id.Protein>
6NUR|6NUR_protein|mol2

> <Gold.PLP.Fitness>
43.0682

> <Gold.PLP.PLP>
-33.0940

> <Gold.PLP.part.hbond>
-2.0000

> <Gold.PLP.part.metal>
0.0000

> <Gold.PLP.part.buried>
-1.2154

> <Gold.PLP.part.nonpolar>
-31.4965

> <Gold.PLP.part.repulsive>
1.2168

> <Gold.PLP.ligand.clash>
0.0000

> <Gold.PLP.ligand.torsion>
1.8063

> <Gold.PLP.Chemscore.Hbond>
2.0000

> <Gold.PLP.Chemscore.CHOScore>
1.9636

> <Gold.PLP.Chemscore.Metal>
0.0000

> <Gold.Chemscore.Hbonds>
donor molecule, donor type, donor heavy atom, donor atom, acceptor molecule, acceptor atom, score
      L1  H     3    20       P1  8028  1.00
      L1  H    12    34       P1  8028  1.00
      L1  C    15    36       P1  7948  1.00
      L1  C    17    37       P1 10175  1.00

> <Gold.PLP.Chemscore.Internal.Correction>
1.6960

> <Gold.Rescore>
     Score         DG    S(hbond)    S(metal)    S(lipo)     H(rot)  DE(clash)    DE(int)     intcor
     17.40     -20.99       1.82        0.00     111.20       1.40       1.07       2.51       ----

> <Gold.Chemscore.Fitness>
17.4001

> <Gold.Chemscore.DG>
-20.9873

> <Gold.Chemscore.ZeroCoef>
-5.4800

> <Gold.Chemscore.Hbond>
1.8197

> <Gold.Chemscore.Metal>
0.0000

> <Gold.Chemscore.Lipo>
111.2048

> <Gold.Chemscore.Internal_Hbond>
0.0000

> <Gold.Chemscore.DEClash>
1.0723

> <Gold.Chemscore.DEInternal>
2.5150

> <Gold.Chemscore.Rot>
1.3990

> <Gold.Chemscore.Internal.Correction>
   9.000000E+99

> <Gold.Chemscore.Hbonds>
donor molecule, donor type, donor heavy atom, donor atom, acceptor molecule, acceptor atom, score
      L1  H     3    20       P1  8028  0.87
      L1  H    12    34       P1  8028  0.98

> <Gold.Chemscore.Hbond.Weighted>
-6.0778

> <Gold.Chemscore.Metal.Weighted>
-0.0000

> <Gold.Chemscore.Lipo.Weighted>
-13.0110

> <Gold.Chemscore.Internal_Hbond.Weighted>
0.0000

> <Gold.Chemscore.DEClash.Weighted>
1.0723

> <Gold.Chemscore.DEInternal.Weighted>
2.5150

> <Gold.Chemscore.Rot.Weighted>
3.5814

> <Gold.Chemscore.Internal.Correction.Weighted>
   9.000000E+99

> <Gold.Protein.RotatedTorsions>
[ 6907 6896 6895 6894 ] final -134.55 input  -60.11 | X-H torsion
[ 7974 7965 7964 7962 ] final -177.73 input  175.53 | X-H torsion
[ 8008 7997 7996 7995 ] final  -90.49 input   59.86 | X-H torsion
[ 10167 10162 10161 10158 ] final -106.38 input  -65.29 | X-H torsion
[ 10718 10713 10712 10709 ] final   73.63 input   66.30 | X-H torsion
[ 10763 10752 10751 10750 ] final  -61.39 input  -60.55 | X-H torsion
[ 11005 11000 10999 10996 ] final -169.28 input  -57.11 | X-H torsion

> <Gold.Protein.ActiveResidues>
 VAL166  LYS551  ARG553  GLY616  TRP617  ASP618  TYR619  PRO620  LYS621  CYS622 
 ASP623  PHE694  ASN695  SER759  ASP760  ASP761  ALA762  ILE779  LEU786  VAL792 
 PHE793  MET794  SER795  GLU796  ALA797  LYS798  CYS799  TRP800  GLU811  SER814 

> <Gold.Protein.RotatedAtoms>
  150.9872  133.6185  159.2713 H   0  0  0  0  0  0  0  0  0  0  0  0  # atno 6907 bound_to 6896
  151.3419  135.0864  159.9383 H   0  0  0  0  0  0  0  0  0  0  0  0  # atno 6908 bound_to 6896
  152.5234  133.9482  159.7713 H   0  0  0  0  0  0  0  0  0  0  0  0  # atno 6909 bound_to 6896
  144.7128  140.0975  143.6418 H   0  0  0  0  0  0  0  0  0  0  0  0  # atno 7974 bound_to 7965
  154.6992  140.0530  157.0441 H   0  0  0  0  0  0  0  0  0  0  0  0  # atno 8008 bound_to 7997
  155.0708  140.3199  155.4612 H   0  0  0  0  0  0  0  0  0  0  0  0  # atno 8009 bound_to 7997
  156.2754  140.2082  156.5835 H   0  0  0  0  0  0  0  0  0  0  0  0  # atno 8010 bound_to 7997
  140.1883  143.3912  152.1226 H   0  0  0  0  0  0  0  0  0  0  0  0  # atno 10167 bound_to 10162
  157.6556  130.9638  150.1096 H   0  0  0  0  0  0  0  0  0  0  0  0  # atno 10718 bound_to 10713
  154.2838  135.6267  153.5357 H   0  0  0  0  0  0  0  0  0  0  0  0  # atno 10763 bound_to 10752
  152.9862  135.5639  154.5466 H   0  0  0  0  0  0  0  0  0  0  0  0  # atno 10764 bound_to 10752
  154.5062  135.2874  155.1356 H   0  0  0  0  0  0  0  0  0  0  0  0  # atno 10765 bound_to 10752
  140.5325  134.5602  157.5078 H   0  0  0  0  0  0  0  0  0  0  0  0  # atno 11005 bound_to 11000
  145.9567  139.2771  143.1180 LP  0  0  0  0  0  0  0  0  0  0  0  0  # atno 17320 bound_to 7965
  145.9265  140.9079  143.0378 LP  0  0  0  0  0  0  0  0  0  0  0  0  # atno 17321 bound_to 7965
  139.5266  144.7110  151.5206 LP  0  0  0  0  0  0  0  0  0  0  0  0  # atno 17342 bound_to 10162
  140.6473  143.8769  150.6750 LP  0  0  0  0  0  0  0  0  0  0  0  0  # atno 17343 bound_to 10162
  156.1996  130.3659  149.8805 LP  0  0  0  0  0  0  0  0  0  0  0  0  # atno 17370 bound_to 10713
  156.6712  130.8821  151.3562 LP  0  0  0  0  0  0  0  0  0  0  0  0  # atno 17371 bound_to 10713
  139.9546  134.7557  156.0370 LP  0  0  0  0  0  0  0  0  0  0  0  0  # atno 17394 bound_to 11000
  141.1273  133.6596  156.3370 LP  0  0  0  0  0  0  0  0  0  0  0  0  # atno 17395 bound_to 11000

$$$$
