AV-unprocessed.smi:2330|AV-procd|sdf|9313|dock7
  -GOLD-   2272012533D 1   1.00000     0.00000
 Structure written by MMmdl.
 42 43  0  0  0  0  0  0  0  0  1 V2000
  153.3857  141.7568  160.7558 C   0  0  0  0  0  0  0  0  0  0  0  0
  152.9818  143.0809  160.0925 C   0  0  2  0  0  0  0  0  0  0  0  0
  152.1988  143.9833  161.0651 C   0  0  0  0  0  0  0  0  0  0  0  0
  151.7955  145.3139  160.4050 C   0  0  0  0  0  0  0  0  0  0  0  0
  151.0058  145.1042  159.0984 C   0  0  2  0  0  0  0  0  0  0  0  0
  149.6731  144.5771  159.3892 N   0  0  0  0  0  0  0  0  0  0  0  0
  148.7419  145.1653  160.1527 C   0  0  0  0  0  0  0  0  0  0  0  0
  148.8795  146.2586  160.7015 O   0  0  0  0  0  0  0  0  0  0  0  0
  147.6441  144.4056  160.2636 N   0  0  0  0  0  0  0  0  0  0  0  0
  146.4837  144.7250  161.0907 C   0  0  0  0  0  0  0  0  0  0  0  0
  145.6630  143.4754  161.4815 C   0  0  1  0  0  0  0  0  0  0  0  0
  144.5372  143.7864  162.4778 C   0  0  0  0  0  0  0  0  0  0  0  0
  145.1730  142.6972  160.2976 C   0  0  0  0  0  0  0  0  0  0  0  0
  145.5111  141.4274  160.0512 N   0  0  0  0  0  0  0  0  0  0  0  0
  144.9042  140.9263  158.8971 C   0  0  0  0  0  0  0  0  0  0  0  0
  144.0919  141.8342  158.2672 C   0  0  0  0  0  0  0  0  0  0  0  0
  144.0601  143.3613  159.1045 S   0  0  0  0  0  0  0  0  0  0  0  0
  151.7620  144.1672  158.1365 C   0  0  0  0  0  0  0  0  0  0  0  0
  152.1664  142.8421  158.8072 C   0  0  0  0  0  0  0  0  0  0  0  0
  152.5104  141.1806  161.0574 H   0  0  0  0  0  0  0  0  0  0  0  0
  153.9921  141.9322  161.6449 H   0  0  0  0  0  0  0  0  0  0  0  0
  153.9724  141.1397  160.0747 H   0  0  0  0  0  0  0  0  0  0  0  0
  153.8995  143.6023  159.8161 H   0  0  0  0  0  0  0  0  0  0  0  0
  151.3070  143.4624  161.4161 H   0  0  0  0  0  0  0  0  0  0  0  0
  152.8018  144.1870  161.9509 H   0  0  0  0  0  0  0  0  0  0  0  0
  151.2150  145.9177  161.1038 H   0  0  0  0  0  0  0  0  0  0  0  0
  152.6972  145.8879  160.1872 H   0  0  0  0  0  0  0  0  0  0  0  0
  150.9126  146.0762  158.6111 H   0  0  0  0  0  0  0  0  0  0  0  0
  149.4516  143.6768  158.9896 H   0  0  0  0  0  0  0  0  0  0  0  0
  147.6235  143.5229  159.7741 H   0  0  0  0  0  0  0  0  0  0  0  0
  146.7960  145.2740  161.9804 H   0  0  0  0  0  0  0  0  0  0  0  0
  145.8569  145.4057  160.5139 H   0  0  0  0  0  0  0  0  0  0  0  0
  146.3476  142.8108  162.0102 H   0  0  0  0  0  0  0  0  0  0  0  0
  144.0442  142.8726  162.8107 H   0  0  0  0  0  0  0  0  0  0  0  0
  143.7791  144.4305  162.0312 H   0  0  0  0  0  0  0  0  0  0  0  0
  144.9248  144.2934  163.3618 H   0  0  0  0  0  0  0  0  0  0  0  0
  145.1057  139.9086  158.5969 H   0  0  0  0  0  0  0  0  0  0  0  0
  143.5127  141.6981  157.3660 H   0  0  0  0  0  0  0  0  0  0  0  0
  151.1578  143.9690  157.2503 H   0  0  0  0  0  0  0  0  0  0  0  0
  152.6613  144.6722  157.7816 H   0  0  0  0  0  0  0  0  0  0  0  0
  152.7466  142.2430  158.1047 H   0  0  0  0  0  0  0  0  0  0  0  0
  151.2728  142.2608  159.0387 H   0  0  0  0  0  0  0  0  0  0  0  0
  1  2  1  0  0  0  0
  1 20  1  0  0  0  0
  1 21  1  0  0  0  0
  1 22  1  0  0  0  0
  2 19  1  0  0  0  0
  2  3  1  0  0  0  0
  2 23  1  0  0  0  0
  3  4  1  0  0  0  0
  3 24  1  0  0  0  0
  3 25  1  0  0  0  0
  4  5  1  0  0  0  0
  4 26  1  0  0  0  0
  4 27  1  0  0  0  0
  5  6  1  0  0  0  0
  5 18  1  0  0  0  0
  5 28  1  0  0  0  0
  6  7  1  0  0  0  0
  6 29  1  0  0  0  0
  7  8  2  0  0  0  0
  7  9  1  0  0  0  0
  9 10  1  0  0  0  0
  9 30  1  0  0  0  0
 10 11  1  0  0  0  0
 10 31  1  0  0  0  0
 10 32  1  0  0  0  0
 11 12  1  0  0  0  0
 11 13  1  0  0  0  0
 11 33  1  0  0  0  0
 12 34  1  0  0  0  0
 12 35  1  0  0  0  0
 12 36  1  0  0  0  0
 13 17  1  0  0  0  0
 13 14  2  0  0  0  0
 14 15  1  0  0  0  0
 15 16  2  0  0  0  0
 15 37  1  0  0  0  0
 16 17  1  0  0  0  0
 16 38  1  0  0  0  0
 18 19  1  0  0  0  0
 18 39  1  0  0  0  0
 18 40  1  0  0  0  0
 19 41  1  0  0  0  0
 19 42  1  0  0  0  0
M  END
> <s_m_source_file>
AV-unprocessed.smi

> <i_m_source_file_index>
2330

> <i_lp_mmshare_version>
43012

> <i_f3d_flags>
0

> <s_epik_input>
W0NIM11bQ0BASF0xW0NIMl1bQ0gyXVtDQEhdKFtDSDJdW0NIMl0xKVtOSF1DKD1PKVtOSF1bQ0gyXVtDQEhdKFtDSDNdKWMybltjSF1bY0hdczI=

> <s_epik_cmdline>
J2VwaWtfcHl0aG9uJywgJy1waCcsICc3LjAnLCAnLXRuJywgJzgnLCAnLW1hJywgJzIwMCcsICctbWV0YWxfYmluZGluZycsICctaW1hZScsICc8aW5maWxlLm1hZT4nLCAnLW9tYWUnLCAnPG91dGZpbGUubWFlPic=

> <r_lp_tautomer_probability>
1

> <r_epik_Ionization_Penalty>
0.000331107

> <r_epik_Ionization_Penalty_Charging>
0

> <r_epik_Ionization_Penalty_Neutral>
0.000331107

> <r_epik_State_Penalty>
-0

> <r_epik_Charging_Adjusted_Penalty>
0

> <i_epik_Tot_Q>
0

> <i_epik_Tot_abs_Q>
0

> <r_epik_Metal_State_Penalty>
-0

> <b_epik_Metal_Only>
0

> <s_lp_Force_Field>
OPLS_2005

> <r_lp_Energy>
-2.32189

> <b_lp_Chiralities_Consistent>
1

> <s_lp_Variant>
AV-unprocessed.smi:2330-4

> <Gold.Version>
5.8.1

> <Gold.Id.Protein>
6NUR|6NUR_protein|mol2

> <Gold.PLP.Fitness>
46.0864

> <Gold.PLP.PLP>
-43.4477

> <Gold.PLP.part.hbond>
-2.0788

> <Gold.PLP.part.metal>
0.0000

> <Gold.PLP.part.buried>
-4.9254

> <Gold.PLP.part.nonpolar>
-36.5439

> <Gold.PLP.part.repulsive>
0.8164

> <Gold.PLP.ligand.clash>
0.0000

> <Gold.PLP.ligand.torsion>
0.2389

> <Gold.PLP.Chemscore.Hbond>
1.0000

> <Gold.PLP.Chemscore.CHOScore>
0.0000

> <Gold.PLP.Chemscore.Metal>
0.0000

> <Gold.Chemscore.Hbonds>
donor molecule, donor type, donor heavy atom, donor atom, acceptor molecule, acceptor atom, score
      P1  H  6934  6946       L1    14  1.00

> <Gold.PLP.Chemscore.Internal.Correction>
0.1165

> <Gold.Rescore>
     Score         DG    S(hbond)    S(metal)    S(lipo)     H(rot)  DE(clash)    DE(int)     intcor
     15.34     -17.69       0.96        0.00     108.84       1.45       2.10       0.25       ----

> <Gold.Chemscore.Fitness>
15.3391

> <Gold.Chemscore.DG>
-17.6919

> <Gold.Chemscore.ZeroCoef>
-5.4800

> <Gold.Chemscore.Hbond>
0.9576

> <Gold.Chemscore.Metal>
0.0000

> <Gold.Chemscore.Lipo>
108.8443

> <Gold.Chemscore.Internal_Hbond>
0.0000

> <Gold.Chemscore.DEClash>
2.0983

> <Gold.Chemscore.DEInternal>
0.2545

> <Gold.Chemscore.Rot>
1.4536

> <Gold.Chemscore.Internal.Correction>
   9.000000E+99

> <Gold.Chemscore.Hbonds>
donor molecule, donor type, donor heavy atom, donor atom, acceptor molecule, acceptor atom, score
      P1  H  6934  6946       L1    14  0.92

> <Gold.Chemscore.Hbond.Weighted>
-3.1983

> <Gold.Chemscore.Metal.Weighted>
-0.0000

> <Gold.Chemscore.Lipo.Weighted>
-12.7348

> <Gold.Chemscore.Internal_Hbond.Weighted>
0.0000

> <Gold.Chemscore.DEClash.Weighted>
2.0983

> <Gold.Chemscore.DEInternal.Weighted>
0.2545

> <Gold.Chemscore.Rot.Weighted>
3.7212

> <Gold.Chemscore.Internal.Correction.Weighted>
   9.000000E+99

> <Gold.Protein.RotatedTorsions>
[ 6907 6896 6895 6894 ] final -164.05 input  -60.11 | X-H torsion
[ 7974 7965 7964 7962 ] final   52.33 input  175.53 | X-H torsion
[ 8008 7997 7996 7995 ] final   95.39 input   59.86 | X-H torsion
[ 10167 10162 10161 10158 ] final   25.54 input  -65.29 | X-H torsion
[ 10718 10713 10712 10709 ] final -116.46 input   66.30 | X-H torsion
[ 10763 10752 10751 10750 ] final -104.26 input  -60.55 | X-H torsion
[ 11005 11000 10999 10996 ] final  169.42 input  -57.11 | X-H torsion

> <Gold.Protein.ActiveResidues>
 VAL166  LYS551  ARG553  GLY616  TRP617  ASP618  TYR619  PRO620  LYS621  CYS622 
 ASP623  PHE694  ASN695  SER759  ASP760  ASP761  ALA762  ILE779  LEU786  VAL792 
 PHE793  MET794  SER795  GLU796  ALA797  LYS798  CYS799  TRP800  GLU811  SER814 

> <Gold.Protein.RotatedAtoms>
  151.4056  133.3743  159.2737 H   0  0  0  0  0  0  0  0  0  0  0  0  # atno 6907 bound_to 6896
  150.9401  134.8811  159.7617 H   0  0  0  0  0  0  0  0  0  0  0  0  # atno 6908 bound_to 6896
  152.5067  134.4006  159.9467 H   0  0  0  0  0  0  0  0  0  0  0  0  # atno 6909 bound_to 6896
  145.9824  139.4256  143.0124 H   0  0  0  0  0  0  0  0  0  0  0  0  # atno 7974 bound_to 7965
  156.0684  140.3287  155.7546 H   0  0  0  0  0  0  0  0  0  0  0  0  # atno 8008 bound_to 7997
  155.5344  140.0596  157.2900 H   0  0  0  0  0  0  0  0  0  0  0  0  # atno 8009 bound_to 7997
  154.4517  140.1921  156.0517 H   0  0  0  0  0  0  0  0  0  0  0  0  # atno 8010 bound_to 7997
  140.5097  144.0180  150.6367 H   0  0  0  0  0  0  0  0  0  0  0  0  # atno 10167 bound_to 10162
  156.0965  130.6136  150.9038 H   0  0  0  0  0  0  0  0  0  0  0  0  # atno 10718 bound_to 10713
  154.7866  135.4793  153.9958 H   0  0  0  0  0  0  0  0  0  0  0  0  # atno 10763 bound_to 10752
  153.1568  135.6801  153.8807 H   0  0  0  0  0  0  0  0  0  0  0  0  # atno 10764 bound_to 10752
  153.8434  135.3176  155.3406 H   0  0  0  0  0  0  0  0  0  0  0  0  # atno 10765 bound_to 10752
  140.2976  134.7622  157.3889 H   0  0  0  0  0  0  0  0  0  0  0  0  # atno 11005 bound_to 11000
  145.7750  140.9881  143.1129 LP  0  0  0  0  0  0  0  0  0  0  0  0  # atno 17320 bound_to 7965
  144.6865  139.9493  143.7477 LP  0  0  0  0  0  0  0  0  0  0  0  0  # atno 17321 bound_to 7965
  140.3499  143.2969  152.0498 LP  0  0  0  0  0  0  0  0  0  0  0  0  # atno 17342 bound_to 10162
  139.4893  144.6381  151.6934 LP  0  0  0  0  0  0  0  0  0  0  0  0  # atno 17343 bound_to 10162
  157.6127  131.0935  150.8766 LP  0  0  0  0  0  0  0  0  0  0  0  0  # atno 17370 bound_to 10713
  156.8903  130.5210  149.5286 LP  0  0  0  0  0  0  0  0  0  0  0  0  # atno 17371 bound_to 10713
  140.1139  134.5309  155.8242 LP  0  0  0  0  0  0  0  0  0  0  0  0  # atno 17394 bound_to 11000
  141.2134  133.6733  156.6740 LP  0  0  0  0  0  0  0  0  0  0  0  0  # atno 17395 bound_to 11000

$$$$
