AV-unprocessed.smi:3314|AV-procd|sdf|12742|dock2
  -GOLD-   2272019 83D 1   1.00000     0.00000
 Structure written by MMmdl.
 38 39  0  0  0  0  0  0  0  0  2 V2000
  153.1595  142.3173  162.7975 C   0  0  0  0  0  0  0  0  0  0  0  0
  152.8419  142.5187  161.3302 C   0  0  0  0  0  0  0  0  0  0  0  0
  152.5342  143.8010  160.8298 C   0  0  0  0  0  0  0  0  0  0  0  0
  152.2535  143.9507  159.4568 C   0  0  0  0  0  0  0  0  0  0  0  0
  151.9239  145.2936  158.8400 C   0  0  0  0  0  0  0  0  0  0  0  0
  152.2780  142.8687  158.6473 N   0  3  0  0  0  0  0  0  0  0  0  0
  152.5556  141.6149  159.0742 C   0  0  0  0  0  0  0  0  0  0  0  0
  152.5572  140.5882  158.0909 N   0  0  0  0  0  0  0  0  0  0  0  0
  152.5418  139.2522  158.2560 C   0  0  0  0  0  0  0  0  0  0  0  0
  152.5028  138.6826  159.3469 O   0  0  0  0  0  0  0  0  0  0  0  0
  152.5718  138.4379  156.9563 C   0  0  1  0  0  0  0  0  0  0  0  0
  151.3115  137.5678  156.7466 C   0  0  0  0  0  0  0  0  0  0  0  0
  151.3537  136.8603  155.4739 N   0  0  0  0  0  0  0  0  0  0  0  0
  150.1709  136.0360  155.2780 C   0  0  0  0  0  0  0  0  0  0  0  0
  151.5286  137.8161  154.3889 C   0  0  0  0  0  0  0  0  0  0  0  0
  152.7784  138.6881  154.5977 C   0  0  0  0  0  0  0  0  0  0  0  0
  152.7017  139.3436  155.8608 O   0  0  0  0  0  0  0  0  0  0  0  0
  152.8570  141.4187  160.4462 C   0  0  0  0  0  0  0  0  0  0  0  0
  153.0875  143.2527  163.3533 H   0  0  0  0  0  0  0  0  0  0  0  0
  154.1712  141.9284  162.9152 H   0  0  0  0  0  0  0  0  0  0  0  0
  152.4636  141.6042  163.2407 H   0  0  0  0  0  0  0  0  0  0  0  0
  152.5184  144.6581  161.4875 H   0  0  0  0  0  0  0  0  0  0  0  0
  151.9047  146.0791  159.5959 H   0  0  0  0  0  0  0  0  0  0  0  0
  150.9465  145.2618  158.3578 H   0  0  0  0  0  0  0  0  0  0  0  0
  152.6696  145.5605  158.0907 H   0  0  0  0  0  0  0  0  0  0  0  0
  152.5183  140.9060  157.1333 H   0  0  0  0  0  0  0  0  0  0  0  0
  153.4538  137.7954  156.9894 H   0  0  0  0  0  0  0  0  0  0  0  0
  151.2244  136.8468  157.5607 H   0  0  0  0  0  0  0  0  0  0  0  0
  150.4191  138.1951  156.7876 H   0  0  0  0  0  0  0  0  0  0  0  0
  150.2354  135.4856  154.3388 H   0  0  0  0  0  0  0  0  0  0  0  0
  149.2658  136.6442  155.2543 H   0  0  0  0  0  0  0  0  0  0  0  0
  150.0700  135.3073  156.0829 H   0  0  0  0  0  0  0  0  0  0  0  0
  151.6085  137.2873  153.4384 H   0  0  0  0  0  0  0  0  0  0  0  0
  150.6491  138.4581  154.3165 H   0  0  0  0  0  0  0  0  0  0  0  0
  153.6841  138.0818  154.5503 H   0  0  0  0  0  0  0  0  0  0  0  0
  152.8535  139.4379  153.8101 H   0  0  0  0  0  0  0  0  0  0  0  0
  153.1128  140.4471  160.8396 H   0  0  0  0  0  0  0  0  0  0  0  0
  152.0722  143.0088  157.6578 H   0  0  0  0  0  0  0  0  0  0  0  0
  1  2  1  0  0  0  0
  1 19  1  0  0  0  0
  1 20  1  0  0  0  0
  1 21  1  0  0  0  0
  2 18  1  0  0  0  0
  2  3  2  0  0  0  0
  3  4  1  0  0  0  0
  3 22  1  0  0  0  0
  4  5  1  0  0  0  0
  4  6  2  0  0  0  0
  5 23  1  0  0  0  0
  5 24  1  0  0  0  0
  5 25  1  0  0  0  0
  6  7  1  0  0  0  0
  6 38  1  0  0  0  0
  7  8  1  0  0  0  0
  7 18  2  0  0  0  0
  8  9  1  0  0  0  0
  8 26  1  0  0  0  0
  9 10  2  0  0  0  0
  9 11  1  0  0  0  0
 11 17  1  0  0  0  0
 11 12  1  0  0  0  0
 11 27  1  0  0  0  0
 12 13  1  0  0  0  0
 12 28  1  0  0  0  0
 12 29  1  0  0  0  0
 13 14  1  0  0  0  0
 13 15  1  0  0  0  0
 14 30  1  0  0  0  0
 14 31  1  0  0  0  0
 14 32  1  0  0  0  0
 15 16  1  0  0  0  0
 15 33  1  0  0  0  0
 15 34  1  0  0  0  0
 16 17  1  0  0  0  0
 16 35  1  0  0  0  0
 16 36  1  0  0  0  0
 18 37  1  0  0  0  0
M  CHG  1   6   1
M  END
> <s_m_source_file>
AV-unprocessed.smi

> <i_m_source_file_index>
3314

> <i_lp_mmshare_version>
43012

> <i_f3d_flags>
0

> <s_epik_input>
W0NIM11jMVtjSF1jKFtDSDNdKW5jKFtjSF0xKVtOSF1DKD1PKVtDQEBIXTJbQ0gyXU4oW0NIM10pW0NIMl1bQ0gyXU8y

> <s_epik_cmdline>
J2VwaWtfcHl0aG9uJywgJy1waCcsICc3LjAnLCAnLXRuJywgJzgnLCAnLW1hJywgJzIwMCcsICctbWV0YWxfYmluZGluZycsICctaW1hZScsICc8aW5maWxlLm1hZT4nLCAnLW9tYWUnLCAnPG91dGZpbGUubWFlPic=

> <r_epik_Ionization_Penalty>
2.57421

> <r_epik_Ionization_Penalty_Charging>
1.80498

> <r_epik_Ionization_Penalty_Neutral>
0.76923

> <r_epik_State_Penalty>
2.63884

> <r_epik_Charging_Adjusted_Penalty>
4.44382

> <i_epik_Tot_Q>
1

> <i_epik_Tot_abs_Q>
1

> <r_epik_Metal_State_Penalty>
6.15142

> <b_epik_Metal_Only>
0

> <s_lp_Force_Field>
OPLS_2005

> <r_lp_Energy>
30.3211

> <b_lp_Chiralities_Consistent>
1

> <s_lp_Variant>
AV-unprocessed.smi:3314-12

> <Gold.Version>
5.8.1

> <Gold.Id.Protein>
6NUR|6NUR_protein|mol2

> <Gold.PLP.Fitness>
44.2303

> <Gold.PLP.PLP>
-39.8696

> <Gold.PLP.part.hbond>
-2.0000

> <Gold.PLP.part.metal>
0.0000

> <Gold.PLP.part.buried>
-5.8492

> <Gold.PLP.part.nonpolar>
-33.1605

> <Gold.PLP.part.repulsive>
0.3594

> <Gold.PLP.ligand.clash>
0.0000

> <Gold.PLP.ligand.torsion>
0.0708

> <Gold.PLP.Chemscore.Hbond>
1.5000

> <Gold.PLP.Chemscore.CHOScore>
0.0000

> <Gold.PLP.Chemscore.Metal>
0.0000

> <Gold.Chemscore.Hbonds>
donor molecule, donor type, donor heavy atom, donor atom, acceptor molecule, acceptor atom, score
      P1  H  7997  8009       L1    17  0.80
      P1  H 10752 10764       L1    13  0.40

> <Gold.PLP.Chemscore.Internal.Correction>
0.0023

> <Gold.Rescore>
     Score         DG    S(hbond)    S(metal)    S(lipo)     H(rot)  DE(clash)    DE(int)     intcor
     16.36     -17.77       0.78        0.00     104.52       1.00       0.03       1.37       ----

> <Gold.Chemscore.Fitness>
16.3633

> <Gold.Chemscore.DG>
-17.7675

> <Gold.Chemscore.ZeroCoef>
-5.4800

> <Gold.Chemscore.Hbond>
0.7841

> <Gold.Chemscore.Metal>
0.0000

> <Gold.Chemscore.Lipo>
104.5172

> <Gold.Chemscore.Internal_Hbond>
0.0000

> <Gold.Chemscore.DEClash>
0.0345

> <Gold.Chemscore.DEInternal>
1.3697

> <Gold.Chemscore.Rot>
1.0000

> <Gold.Chemscore.Internal.Correction>
   9.000000E+99

> <Gold.Chemscore.Hbonds>
donor molecule, donor type, donor heavy atom, donor atom, acceptor molecule, acceptor atom, score
      P1  H  7997  8009       L1    17  0.10
      P1  H 10752 10764       L1    13  0.03

> <Gold.Chemscore.Hbond.Weighted>
-2.6190

> <Gold.Chemscore.Metal.Weighted>
-0.0000

> <Gold.Chemscore.Lipo.Weighted>
-12.2285

> <Gold.Chemscore.Internal_Hbond.Weighted>
0.0000

> <Gold.Chemscore.DEClash.Weighted>
0.0345

> <Gold.Chemscore.DEInternal.Weighted>
1.3697

> <Gold.Chemscore.Rot.Weighted>
2.5600

> <Gold.Chemscore.Internal.Correction.Weighted>
   9.000000E+99

> <Gold.Protein.RotatedTorsions>
[ 6907 6896 6895 6894 ] final   39.29 input  -60.11 | X-H torsion
[ 7974 7965 7964 7962 ] final  -95.31 input  175.53 | X-H torsion
[ 8008 7997 7996 7995 ] final -169.19 input   59.86 | X-H torsion
[ 10167 10162 10161 10158 ] final  -20.68 input  -65.29 | X-H torsion
[ 10718 10713 10712 10709 ] final  130.71 input   66.30 | X-H torsion
[ 10763 10752 10751 10750 ] final  -36.66 input  -60.55 | X-H torsion
[ 11005 11000 10999 10996 ] final  -72.16 input  -57.11 | X-H torsion

> <Gold.Protein.ActiveResidues>
 VAL166  LYS551  ARG553  GLY616  TRP617  ASP618  TYR619  PRO620  LYS621  CYS622 
 ASP623  PHE694  ASN695  SER759  ASP760  ASP761  ALA762  ILE779  LEU786  VAL792 
 PHE793  MET794  SER795  GLU796  ALA797  LYS798  CYS799  TRP800  GLU811  SER814 

> <Gold.Protein.RotatedAtoms>
  152.1676  134.8861  160.0536 H   0  0  0  0  0  0  0  0  0  0  0  0  # atno 6907 bound_to 6896
  151.9833  133.3760  159.4124 H   0  0  0  0  0  0  0  0  0  0  0  0  # atno 6908 bound_to 6896
  150.6897  134.3938  159.5132 H   0  0  0  0  0  0  0  0  0  0  0  0  # atno 6909 bound_to 6896
  145.3617  140.9492  143.2497 H   0  0  0  0  0  0  0  0  0  0  0  0  # atno 7974 bound_to 7965
  155.9017  140.1042  157.1345 H   0  0  0  0  0  0  0  0  0  0  0  0  # atno 8008 bound_to 7997
  154.4027  140.1291  156.4508 H   0  0  0  0  0  0  0  0  0  0  0  0  # atno 8009 bound_to 7997
  155.7415  140.3467  155.5109 H   0  0  0  0  0  0  0  0  0  0  0  0  # atno 8010 bound_to 7997
  140.7277  143.4699  151.0261 H   0  0  0  0  0  0  0  0  0  0  0  0  # atno 10167 bound_to 10162
  157.5036  131.1095  150.9392 H   0  0  0  0  0  0  0  0  0  0  0  0  # atno 10718 bound_to 10713
  153.8835  135.6819  153.4765 H   0  0  0  0  0  0  0  0  0  0  0  0  # atno 10763 bound_to 10752
  153.1220  135.4735  154.9209 H   0  0  0  0  0  0  0  0  0  0  0  0  # atno 10764 bound_to 10752
  154.7657  135.3223  154.8242 H   0  0  0  0  0  0  0  0  0  0  0  0  # atno 10765 bound_to 10752
  141.1604  133.6838  156.7016 H   0  0  0  0  0  0  0  0  0  0  0  0  # atno 11005 bound_to 11000
  144.8642  139.5133  143.6798 LP  0  0  0  0  0  0  0  0  0  0  0  0  # atno 17320 bound_to 7965
  146.2924  139.7179  142.9151 LP  0  0  0  0  0  0  0  0  0  0  0  0  # atno 17321 bound_to 7965
  139.8390  143.7588  152.3180 LP  0  0  0  0  0  0  0  0  0  0  0  0  # atno 17342 bound_to 10162
  139.7731  144.7470  151.0196 LP  0  0  0  0  0  0  0  0  0  0  0  0  # atno 17343 bound_to 10162
  157.0055  130.5616  149.5315 LP  0  0  0  0  0  0  0  0  0  0  0  0  # atno 17370 bound_to 10713
  156.0244  130.5339  150.8367 LP  0  0  0  0  0  0  0  0  0  0  0  0  # atno 17371 bound_to 10713
  140.2954  134.8207  157.4053 LP  0  0  0  0  0  0  0  0  0  0  0  0  # atno 17394 bound_to 11000
  140.1309  134.5096  155.8106 LP  0  0  0  0  0  0  0  0  0  0  0  0  # atno 17395 bound_to 11000

$$$$
