AV-unprocessed.smi:3253|AV-procd|sdf|12446|dock8
  -GOLD-   2272018343D 1   1.00000     0.00000
 Structure written by MMmdl.
 37 38  0  0  0  0  0  0  0  0  2 V2000
  145.7231  136.9030  153.6863 C   0  0  0  0  0  0  0  0  0  0  0  0
  145.8851  135.4399  153.2534 C   0  0  1  0  0  0  0  0  0  0  0  0
  145.4808  135.2448  151.7752 C   0  0  0  0  0  0  0  0  0  0  0  0
  145.5602  133.8473  151.3362 N   0  0  0  0  0  0  0  0  0  0  0  0
  144.5174  133.0045  151.0474 C   0  0  0  0  0  0  0  0  0  0  0  0
  145.0739  131.8124  150.6616 C   0  0  0  0  0  0  0  0  0  0  0  0
  146.4311  131.9750  150.7396 N   0  3  0  0  0  0  0  0  0  0  0  0
  146.7248  133.2114  151.1547 C   0  0  0  0  0  0  0  0  0  0  0  0
  147.2712  135.0304  153.4776 N   0  0  0  0  0  0  0  0  0  0  0  0
  147.6751  134.0562  154.3087 C   0  0  0  0  0  0  0  0  0  0  0  0
  146.9009  133.3957  155.0027 O   0  0  0  0  0  0  0  0  0  0  0  0
  149.1830  133.7664  154.3435 C   0  0  2  0  0  0  0  0  0  0  0  0
  149.5219  132.7226  155.4272 C   0  0  0  0  0  0  0  0  0  0  0  0
  150.3051  133.5104  156.4640 C   0  0  0  0  0  0  0  0  0  0  0  0
  150.6541  133.0317  157.5417 O   0  0  0  0  0  0  0  0  0  0  0  0
  150.5348  134.7572  156.0433 N   0  0  0  0  0  0  0  0  0  0  0  0
  151.2417  135.7913  156.7865 C   0  0  0  0  0  0  0  0  0  0  0  0
  150.0192  135.0127  154.7092 C   0  0  0  0  0  0  0  0  0  0  0  0
  144.6920  137.2363  153.5648 H   0  0  0  0  0  0  0  0  0  0  0  0
  146.3581  137.5658  153.0971 H   0  0  0  0  0  0  0  0  0  0  0  0
  145.9875  137.0340  154.7364 H   0  0  0  0  0  0  0  0  0  0  0  0
  145.2204  134.8453  153.8828 H   0  0  0  0  0  0  0  0  0  0  0  0
  144.4542  135.5775  151.6146 H   0  0  0  0  0  0  0  0  0  0  0  0
  146.1128  135.8436  151.1175 H   0  0  0  0  0  0  0  0  0  0  0  0
  143.4842  133.3104  151.1255 H   0  0  0  0  0  0  0  0  0  0  0  0
  144.6182  130.8854  150.3450 H   0  0  0  0  0  0  0  0  0  0  0  0
  147.7088  133.6197  151.3018 H   0  0  0  0  0  0  0  0  0  0  0  0
  147.9792  135.5221  152.9514 H   0  0  0  0  0  0  0  0  0  0  0  0
  149.4960  133.3960  153.3656 H   0  0  0  0  0  0  0  0  0  0  0  0
  148.6445  132.2604  155.8831 H   0  0  0  0  0  0  0  0  0  0  0  0
  150.1502  131.9275  155.0247 H   0  0  0  0  0  0  0  0  0  0  0  0
  152.1959  135.4173  157.1593 H   0  0  0  0  0  0  0  0  0  0  0  0
  150.6450  136.1217  157.6375 H   0  0  0  0  0  0  0  0  0  0  0  0
  151.4435  136.6580  156.1563 H   0  0  0  0  0  0  0  0  0  0  0  0
  150.8537  135.1359  154.0175 H   0  0  0  0  0  0  0  0  0  0  0  0
  149.4403  135.9381  154.6936 H   0  0  0  0  0  0  0  0  0  0  0  0
  147.1162  131.2653  150.5122 H   0  0  0  0  0  0  0  0  0  0  0  0
  1  2  1  0  0  0  0
  1 19  1  0  0  0  0
  1 20  1  0  0  0  0
  1 21  1  0  0  0  0
  2  3  1  0  0  0  0
  2  9  1  0  0  0  0
  2 22  1  0  0  0  0
  3  4  1  0  0  0  0
  3 23  1  0  0  0  0
  3 24  1  0  0  0  0
  4  8  1  0  0  0  0
  4  5  1  0  0  0  0
  5  6  2  0  0  0  0
  5 25  1  0  0  0  0
  6  7  1  0  0  0  0
  6 26  1  0  0  0  0
  7  8  2  0  0  0  0
  7 37  1  0  0  0  0
  8 27  1  0  0  0  0
  9 10  1  0  0  0  0
  9 28  1  0  0  0  0
 10 11  2  0  0  0  0
 10 12  1  0  0  0  0
 12 18  1  0  0  0  0
 12 13  1  0  0  0  0
 12 29  1  0  0  0  0
 13 14  1  0  0  0  0
 13 30  1  0  0  0  0
 13 31  1  0  0  0  0
 14 15  2  0  0  0  0
 14 16  1  0  0  0  0
 16 17  1  0  0  0  0
 16 18  1  0  0  0  0
 17 32  1  0  0  0  0
 17 33  1  0  0  0  0
 17 34  1  0  0  0  0
 18 35  1  0  0  0  0
 18 36  1  0  0  0  0
M  CHG  1   7   1
M  END
> <s_m_source_file>
AV-unprocessed.smi

> <i_m_source_file_index>
3253

> <i_lp_mmshare_version>
43012

> <i_f3d_flags>
0

> <s_epik_input>
W2NIXTFuW2NIXVtjSF1uMVtDSDJdW0NAQEhdKFtDSDNdKVtOSF1DKD1PKVtDQEBIXTJbQ0gyXUMoPU8pTihbQ0gzXSlbQ0gyXTI=

> <s_epik_cmdline>
J2VwaWtfcHl0aG9uJywgJy1waCcsICc3LjAnLCAnLXRuJywgJzgnLCAnLW1hJywgJzIwMCcsICctbWV0YWxfYmluZGluZycsICctaW1hZScsICc8aW5maWxlLm1hZT4nLCAnLW9tYWUnLCAnPG91dGZpbGUubWFlPic=

> <r_lp_tautomer_probability>
1

> <r_epik_Ionization_Penalty>
0.251561

> <r_epik_Ionization_Penalty_Charging>
0

> <r_epik_Ionization_Penalty_Neutral>
0.251561

> <r_epik_State_Penalty>
0.242926

> <r_epik_Charging_Adjusted_Penalty>
0.242926

> <i_epik_Tot_Q>
1

> <i_epik_Tot_abs_Q>
1

> <r_epik_Metal_State_Penalty>
0.533885

> <b_epik_Metal_Only>
0

> <s_lp_Force_Field>
OPLS_2005

> <r_lp_Energy>
13.6979

> <b_lp_Chiralities_Consistent>
1

> <s_lp_Variant>
AV-unprocessed.smi:3253-2

> <Gold.Version>
5.8.1

> <Gold.Id.Protein>
6NUR|6NUR_protein|mol2

> <Gold.PLP.Fitness>
38.2543

> <Gold.PLP.PLP>
-29.2320

> <Gold.PLP.part.hbond>
-3.0000

> <Gold.PLP.part.metal>
0.0000

> <Gold.PLP.part.buried>
-5.0246

> <Gold.PLP.part.nonpolar>
-21.7062

> <Gold.PLP.part.repulsive>
0.1221

> <Gold.PLP.ligand.clash>
0.0000

> <Gold.PLP.ligand.torsion>
0.1644

> <Gold.PLP.Chemscore.Hbond>
3.0000

> <Gold.PLP.Chemscore.CHOScore>
0.1104

> <Gold.PLP.Chemscore.Metal>
0.0000

> <Gold.Chemscore.Hbonds>
donor molecule, donor type, donor heavy atom, donor atom, acceptor molecule, acceptor atom, score
      L1  H     7    37       P1 10747  0.94
      L1  H     9    28       P1  7948  1.00
      P1  H  6896  6907       L1    15  0.98
      L1  C     8    27       P1  7948  0.04

> <Gold.PLP.Chemscore.Internal.Correction>
0.0199

> <Gold.Rescore>
     Score         DG    S(hbond)    S(metal)    S(lipo)     H(rot)  DE(clash)    DE(int)     intcor
     15.13     -15.41       2.89        0.00      46.78       2.03       0.00       0.28       ----

> <Gold.Chemscore.Fitness>
15.1312

> <Gold.Chemscore.DG>
-15.4144

> <Gold.Chemscore.ZeroCoef>
-5.4800

> <Gold.Chemscore.Hbond>
2.8946

> <Gold.Chemscore.Metal>
0.0000

> <Gold.Chemscore.Lipo>
46.7824

> <Gold.Chemscore.Internal_Hbond>
0.0000

> <Gold.Chemscore.DEClash>
0.0009

> <Gold.Chemscore.DEInternal>
0.2823

> <Gold.Chemscore.Rot>
2.0341

> <Gold.Chemscore.Internal.Correction>
   9.000000E+99

> <Gold.Chemscore.Hbonds>
donor molecule, donor type, donor heavy atom, donor atom, acceptor molecule, acceptor atom, score
      L1  H     7    37       P1 10747  0.91
      L1  H     9    28       P1  7948  0.99
      P1  H  6896  6907       L1    15  0.93

> <Gold.Chemscore.Hbond.Weighted>
-9.6681

> <Gold.Chemscore.Metal.Weighted>
-0.0000

> <Gold.Chemscore.Lipo.Weighted>
-5.4735

> <Gold.Chemscore.Internal_Hbond.Weighted>
0.0000

> <Gold.Chemscore.DEClash.Weighted>
0.0009

> <Gold.Chemscore.DEInternal.Weighted>
0.2823

> <Gold.Chemscore.Rot.Weighted>
5.2072

> <Gold.Chemscore.Internal.Correction.Weighted>
   9.000000E+99

> <Gold.Protein.RotatedTorsions>
[ 6907 6896 6895 6894 ] final -157.88 input  -60.11 | X-H torsion
[ 7974 7965 7964 7962 ] final  -81.41 input  175.53 | X-H torsion
[ 8008 7997 7996 7995 ] final  -99.95 input   59.86 | X-H torsion
[ 10167 10162 10161 10158 ] final  -58.31 input  -65.29 | X-H torsion
[ 10718 10713 10712 10709 ] final  115.71 input   66.30 | X-H torsion
[ 10763 10752 10751 10750 ] final   43.89 input  -60.55 | X-H torsion
[ 11005 11000 10999 10996 ] final -116.52 input  -57.11 | X-H torsion

> <Gold.Protein.ActiveResidues>
 VAL166  LYS551  ARG553  GLY616  TRP617  ASP618  TYR619  PRO620  LYS621  CYS622 
 ASP623  PHE694  ASN695  SER759  ASP760  ASP761  ALA762  ILE779  LEU786  VAL792 
 PHE793  MET794  SER795  GLU796  ALA797  LYS798  CYS799  TRP800  GLU811  SER814 

> <Gold.Protein.RotatedAtoms>
  151.3096  133.4086  159.2645 H   0  0  0  0  0  0  0  0  0  0  0  0  # atno 6907 bound_to 6896
  151.0125  134.9408  159.8025 H   0  0  0  0  0  0  0  0  0  0  0  0  # atno 6908 bound_to 6896
  152.5304  134.3061  159.9148 H   0  0  0  0  0  0  0  0  0  0  0  0  # atno 6909 bound_to 6896
  145.5470  140.9502  143.1520 H   0  0  0  0  0  0  0  0  0  0  0  0  # atno 7974 bound_to 7965
  154.8218  140.0444  157.1416 H   0  0  0  0  0  0  0  0  0  0  0  0  # atno 8008 bound_to 7997
  154.9251  140.3032  155.5176 H   0  0  0  0  0  0  0  0  0  0  0  0  # atno 8009 bound_to 7997
  156.2981  140.2333  156.4305 H   0  0  0  0  0  0  0  0  0  0  0  0  # atno 8010 bound_to 7997
  140.6205  143.2418  151.5492 H   0  0  0  0  0  0  0  0  0  0  0  0  # atno 10167 bound_to 10162
  157.6205  131.1016  150.7368 H   0  0  0  0  0  0  0  0  0  0  0  0  # atno 10718 bound_to 10713
  152.9851  135.6087  154.3185 H   0  0  0  0  0  0  0  0  0  0  0  0  # atno 10763 bound_to 10752
  154.2896  135.2775  155.2662 H   0  0  0  0  0  0  0  0  0  0  0  0  # atno 10764 bound_to 10752
  154.4964  135.5878  153.6554 H   0  0  0  0  0  0  0  0  0  0  0  0  # atno 10765 bound_to 10752
  141.0416  133.9826  157.2985 H   0  0  0  0  0  0  0  0  0  0  0  0  # atno 11005 bound_to 11000
  144.7548  139.7101  143.7258 LP  0  0  0  0  0  0  0  0  0  0  0  0  # atno 17320 bound_to 7965
  146.1943  139.5200  142.9785 LP  0  0  0  0  0  0  0  0  0  0  0  0  # atno 17321 bound_to 7965
  139.5435  144.2584  152.1396 LP  0  0  0  0  0  0  0  0  0  0  0  0  # atno 17342 bound_to 10162
  140.1803  144.4850  150.6532 LP  0  0  0  0  0  0  0  0  0  0  0  0  # atno 17343 bound_to 10162
  156.7727  130.4834  149.5415 LP  0  0  0  0  0  0  0  0  0  0  0  0  # atno 17370 bound_to 10713
  156.1349  130.6204  151.0385 LP  0  0  0  0  0  0  0  0  0  0  0  0  # atno 17371 bound_to 10713
  139.9280  135.0201  156.8303 LP  0  0  0  0  0  0  0  0  0  0  0  0  # atno 17394 bound_to 11000
  140.6223  133.9982  155.7624 LP  0  0  0  0  0  0  0  0  0  0  0  0  # atno 17395 bound_to 11000

$$$$
