AV-unprocessed.smi:69|AV-procd|sdf|647|dock1
  -GOLD-   2262016543D 1   1.00000     0.00000
 Structure written by MMmdl.
 32 34  0  0  0  0  0  0  0  0  1 V2000
  144.4987  141.4247  155.2103 N   0  0  0  0  0  0  0  0  0  0  0  0
  145.6823  141.5304  155.8300 C   0  0  0  0  0  0  0  0  0  0  0  0
  145.7155  142.0904  157.0621 N   0  0  0  0  0  0  0  0  0  0  0  0
  146.8849  142.2122  157.6990 C   0  0  0  0  0  0  0  0  0  0  0  0
  148.1021  141.8429  157.2899 N   0  0  0  0  0  0  0  0  0  0  0  0
  148.0639  141.2723  156.0496 C   0  0  0  0  0  0  0  0  0  0  0  0
  146.8999  141.0870  155.2546 C   0  0  0  0  0  0  0  0  0  0  0  0
  147.2427  140.4965  154.0462 N   0  0  0  0  0  0  0  0  0  0  0  0
  148.5387  140.3507  154.1243 C   0  0  0  0  0  0  0  0  0  0  0  0
  149.1114  140.7621  155.3110 N   0  0  0  0  0  0  0  0  0  0  0  0
  150.5552  140.7588  155.7138 C   0  0  2  0  0  0  0  0  0  0  0  0
  151.2973  140.1527  154.6943 O   0  0  0  0  0  0  0  0  0  0  0  0
  151.7212  138.8430  155.0685 C   0  0  2  0  0  0  0  0  0  0  0  0
  150.6661  137.7946  154.6459 C   0  0  0  0  0  0  0  0  0  0  0  0
  151.3094  136.6226  154.1936 O   0  0  0  0  0  0  0  0  0  0  0  0
  151.9153  139.0025  156.5822 C   0  0  2  0  0  0  0  0  0  0  0  0
  151.8708  137.7741  157.2815 O   0  0  0  0  0  0  0  0  0  0  0  0
  150.7758  139.9252  156.9917 C   0  0  1  0  0  0  0  0  0  0  0  0
  151.1827  140.7270  158.0823 O   0  0  0  0  0  0  0  0  0  0  0  0
  150.8160  141.8144  155.8032 H   0  0  0  0  0  0  0  0  0  0  0  0
  152.6753  138.6078  154.5945 H   0  0  0  0  0  0  0  0  0  0  0  0
  152.8778  139.4853  156.7617 H   0  0  0  0  0  0  0  0  0  0  0  0
  149.8764  139.3561  157.2341 H   0  0  0  0  0  0  0  0  0  0  0  0
  144.4496  141.0129  154.2895 H   0  0  0  0  0  0  0  0  0  0  0  0
  143.6601  141.7557  155.6647 H   0  0  0  0  0  0  0  0  0  0  0  0
  146.8387  142.6696  158.6764 H   0  0  0  0  0  0  0  0  0  0  0  0
  149.1115  139.9276  153.3118 H   0  0  0  0  0  0  0  0  0  0  0  0
  150.0562  137.4999  155.4996 H   0  0  0  0  0  0  0  0  0  0  0  0
  149.9809  138.1708  153.8879 H   0  0  0  0  0  0  0  0  0  0  0  0
  151.0801  136.4850  153.2872 H   0  0  0  0  0  0  0  0  0  0  0  0
  150.9797  137.4586  157.2705 H   0  0  0  0  0  0  0  0  0  0  0  0
  151.6598  141.4695  157.7427 H   0  0  0  0  0  0  0  0  0  0  0  0
  1  2  1  0  0  0  0
  1 24  1  0  0  0  0
  1 25  1  0  0  0  0
  2  7  1  0  0  0  0
  2  3  2  0  0  0  0
  3  4  1  0  0  0  0
  4  5  2  0  0  0  0
  4 26  1  0  0  0  0
  5  6  1  0  0  0  0
  6 10  1  0  0  0  0
  6  7  2  0  0  0  0
  7  8  1  0  0  0  0
  8  9  2  0  0  0  0
  9 10  1  0  0  0  0
  9 27  1  0  0  0  0
 10 11  1  0  0  0  0
 11 20  1  0  0  0  0
 11 18  1  0  0  0  0
 11 12  1  0  0  0  0
 12 13  1  0  0  0  0
 13 21  1  0  0  0  0
 13 14  1  0  0  0  0
 13 16  1  0  0  0  0
 14 15  1  0  0  0  0
 14 28  1  0  0  0  0
 14 29  1  0  0  0  0
 15 30  1  0  0  0  0
 16 22  1  0  0  0  0
 16 17  1  0  0  0  0
 16 18  1  0  0  0  0
 17 31  1  0  0  0  0
 18 23  1  0  0  0  0
 18 19  1  0  0  0  0
 19 32  1  0  0  0  0
M  END
> <s_m_source_file>
AV-unprocessed.smi

> <i_m_source_file_index>
69

> <i_lp_mmshare_version>
43012

> <i_f3d_flags>
0

> <s_epik_input>
bjFbY0hdbmMoW05IMl0pYyhjMTIpbltjSF1uMltDQEBIXTNPW0NASF0oW0NIMl1bT0hdKVtDQEBIXShbT0hdKVtDQEhdM1tPSF0=

> <s_epik_cmdline>
J2VwaWtfcHl0aG9uJywgJy1waCcsICc3LjAnLCAnLXRuJywgJzgnLCAnLW1hJywgJzIwMCcsICctbWV0YWxfYmluZGluZycsICctaW1hZScsICc8aW5maWxlLm1hZT4nLCAnLW9tYWUnLCAnPG91dGZpbGUubWFlPic=

> <r_lp_tautomer_probability>
1

> <r_epik_Ionization_Penalty>
0.000428445

> <r_epik_Ionization_Penalty_Charging>
0

> <r_epik_Ionization_Penalty_Neutral>
0.000428445

> <r_epik_State_Penalty>
-0

> <r_epik_Charging_Adjusted_Penalty>
0

> <i_epik_Tot_Q>
0

> <i_epik_Tot_abs_Q>
0

> <r_epik_Metal_State_Penalty>
-0

> <b_epik_Metal_Only>
0

> <s_epik_Chemistry_Notes>
This compound contains an acetal/aminal-like group ( X-CH(R)-Y where X, Y are N, S, or O) that may be acid/base labile, releasing an aldehyde.

> <s_lp_Force_Field>
OPLS_2005

> <r_lp_Energy>
34.8431

> <b_lp_Chiralities_Consistent>
1

> <s_lp_Variant>
AV-unprocessed.smi:69-5

> <Gold.Version>
5.8.1

> <Gold.Id.Protein>
6NUR|6NUR_protein|mol2

> <Gold.PLP.Fitness>
37.0352

> <Gold.PLP.PLP>
-23.7411

> <Gold.PLP.part.hbond>
-3.9190

> <Gold.PLP.part.metal>
0.0000

> <Gold.PLP.part.buried>
-4.8850

> <Gold.PLP.part.nonpolar>
-16.6517

> <Gold.PLP.part.repulsive>
0.3758

> <Gold.PLP.ligand.clash>
0.0000

> <Gold.PLP.ligand.torsion>
0.5891

> <Gold.PLP.Chemscore.Hbond>
3.8125

> <Gold.PLP.Chemscore.CHOScore>
1.0000

> <Gold.PLP.Chemscore.Metal>
0.0000

> <Gold.Chemscore.Hbonds>
donor molecule, donor type, donor heavy atom, donor atom, acceptor molecule, acceptor atom, score
      L1  H     1    24       P1 10175  1.00
      L1  H    15    30       P1  7949  1.00
      P1  H  7989  7998       L1    12  0.75
      P1  H 10752 10763       L1    15  0.90
      L1  C     9    27       P1  7957  1.00

> <Gold.PLP.Chemscore.Internal.Correction>
0.0348

> <Gold.Rescore>
     Score         DG    S(hbond)    S(metal)    S(lipo)     H(rot)  DE(clash)    DE(int)     intcor
      9.31     -10.06       3.47        0.00      28.32       4.03       0.03       0.73       ----

> <Gold.Chemscore.Fitness>
9.3082

> <Gold.Chemscore.DG>
-10.0628

> <Gold.Chemscore.ZeroCoef>
-5.4800

> <Gold.Chemscore.Hbond>
3.4672

> <Gold.Chemscore.Metal>
0.0000

> <Gold.Chemscore.Lipo>
28.3198

> <Gold.Chemscore.Internal_Hbond>
0.0000

> <Gold.Chemscore.DEClash>
0.0272

> <Gold.Chemscore.DEInternal>
0.7273

> <Gold.Chemscore.Rot>
4.0277

> <Gold.Chemscore.Internal.Correction>
   9.000000E+99

> <Gold.Chemscore.Hbonds>
donor molecule, donor type, donor heavy atom, donor atom, acceptor molecule, acceptor atom, score
      L1  H     1    24       P1 10175  0.85
      L1  H    15    30       P1  7949  0.35
      P1  H  7989  7998       L1    12  0.73
      P1  H 10752 10763       L1    15  0.18

> <Gold.Chemscore.Hbond.Weighted>
-11.5803

> <Gold.Chemscore.Metal.Weighted>
-0.0000

> <Gold.Chemscore.Lipo.Weighted>
-3.3134

> <Gold.Chemscore.Internal_Hbond.Weighted>
0.0000

> <Gold.Chemscore.DEClash.Weighted>
0.0272

> <Gold.Chemscore.DEInternal.Weighted>
0.7273

> <Gold.Chemscore.Rot.Weighted>
10.3110

> <Gold.Chemscore.Internal.Correction.Weighted>
   9.000000E+99

> <Gold.Protein.RotatedTorsions>
[ 6907 6896 6895 6894 ] final   52.84 input  -60.11 | X-H torsion
[ 7974 7965 7964 7962 ] final -150.81 input  175.53 | X-H torsion
[ 8008 7997 7996 7995 ] final -172.24 input   59.86 | X-H torsion
[ 10167 10162 10161 10158 ] final  -22.88 input  -65.29 | X-H torsion
[ 10718 10713 10712 10709 ] final   81.75 input   66.30 | X-H torsion
[ 10763 10752 10751 10750 ] final   37.20 input  -60.55 | X-H torsion
[ 11005 11000 10999 10996 ] final -124.69 input  -57.11 | X-H torsion

> <Gold.Protein.ActiveResidues>
 VAL166  LYS551  ARG553  GLY616  TRP617  ASP618  TYR619  PRO620  LYS621  CYS622 
 ASP623  PHE694  ASN695  SER759  ASP760  ASP761  ALA762  ILE779  LEU786  VAL792 
 PHE793  MET794  SER795  GLU796  ALA797  LYS798  CYS799  TRP800  GLU811  SER814 

> <Gold.Protein.RotatedAtoms>
  152.3275  134.7302  160.0297 H   0  0  0  0  0  0  0  0  0  0  0  0  # atno 6907 bound_to 6896
  151.7730  133.3337  159.3458 H   0  0  0  0  0  0  0  0  0  0  0  0  # atno 6908 bound_to 6896
  150.7404  134.5932  159.6043 H   0  0  0  0  0  0  0  0  0  0  0  0  # atno 6909 bound_to 6896
  144.7886  140.4882  143.5789 H   0  0  0  0  0  0  0  0  0  0  0  0  # atno 7974 bound_to 7965
  155.9421  140.1110  157.1047 H   0  0  0  0  0  0  0  0  0  0  0  0  # atno 8008 bound_to 7997
  154.4091  140.1217  156.5006 H   0  0  0  0  0  0  0  0  0  0  0  0  # atno 8009 bound_to 7997
  155.6949  140.3472  155.4911 H   0  0  0  0  0  0  0  0  0  0  0  0  # atno 8010 bound_to 7997
  140.7287  143.4494  151.0539 H   0  0  0  0  0  0  0  0  0  0  0  0  # atno 10167 bound_to 10162
  157.6841  131.0018  150.2273 H   0  0  0  0  0  0  0  0  0  0  0  0  # atno 10718 bound_to 10713
  153.0046  135.6284  154.2107 H   0  0  0  0  0  0  0  0  0  0  0  0  # atno 10763 bound_to 10752
  154.1851  135.2811  155.3041 H   0  0  0  0  0  0  0  0  0  0  0  0  # atno 10764 bound_to 10752
  154.5804  135.5649  153.7239 H   0  0  0  0  0  0  0  0  0  0  0  0  # atno 10765 bound_to 10752
  140.9821  134.0658  157.3753 H   0  0  0  0  0  0  0  0  0  0  0  0  # atno 11005 bound_to 11000
  145.5855  139.1492  143.3211 LP  0  0  0  0  0  0  0  0  0  0  0  0  # atno 17320 bound_to 7965
  146.2129  140.5983  142.9052 LP  0  0  0  0  0  0  0  0  0  0  0  0  # atno 17321 bound_to 7965
  139.8169  143.7874  152.3175 LP  0  0  0  0  0  0  0  0  0  0  0  0  # atno 17342 bound_to 10162
  139.7943  144.7398  150.9912 LP  0  0  0  0  0  0  0  0  0  0  0  0  # atno 17343 bound_to 10162
  156.2913  130.3746  149.7839 LP  0  0  0  0  0  0  0  0  0  0  0  0  # atno 17370 bound_to 10713
  156.5498  130.8336  151.3296 LP  0  0  0  0  0  0  0  0  0  0  0  0  # atno 17371 bound_to 10713
  139.8955  135.0141  156.7003 LP  0  0  0  0  0  0  0  0  0  0  0  0  # atno 17394 bound_to 11000
  140.7170  133.9174  155.8121 LP  0  0  0  0  0  0  0  0  0  0  0  0  # atno 17395 bound_to 11000

$$$$
