AV-unprocessed.smi:1301|AV-procd|sdf|5424|dock9
  -GOLD-   22720 4583D 1   1.00000     0.00000
 Structure written by MMmdl.
 44 45  0  0  0  0  0  0  0  0  3 V2000
  154.4942  141.3193  161.3683 C   0  0  0  0  0  0  0  0  0  0  0  0
  153.7872  140.8920  160.1280 C   0  0  0  0  0  0  0  0  0  0  0  0
  152.5817  141.2316  159.5826 C   0  0  0  0  0  0  0  0  0  0  0  0
  152.5343  140.4559  158.3923 C   0  0  0  0  0  0  0  0  0  0  0  0
  151.5285  140.4304  157.5044 N   0  5  0  0  0  0  0  0  0  0  0  0
  151.7251  139.9183  156.2683 C   0  0  0  0  0  0  0  0  0  0  0  0
  152.8017  139.5615  155.7845 O   0  0  0  0  0  0  0  0  0  0  0  0
  150.5982  139.8054  155.5512 N   0  0  0  0  0  0  0  0  0  0  0  0
  150.4812  139.2579  154.2000 C   0  0  2  0  0  0  0  0  0  0  0  0
  149.0011  139.0428  153.8420 C   0  0  0  0  0  0  0  0  0  0  0  0
  148.3774  137.8893  154.6498 C   0  0  0  0  0  0  0  0  0  0  0  0
  149.1458  136.6291  154.4793 N   0  3  2  0  0  0  0  0  0  0  0  0
  148.4877  135.4762  155.1468 C   0  0  0  0  0  0  0  0  0  0  0  0
  149.2041  134.1328  154.8860 C   0  0  0  0  0  0  0  0  0  0  0  0
  148.6892  133.4455  153.6101 C   0  0  0  0  0  0  0  0  0  0  0  0
  149.0542  133.1977  156.0954 C   0  0  0  0  0  0  0  0  0  0  0  0
  150.5709  136.7992  154.8695 C   0  0  0  0  0  0  0  0  0  0  0  0
  151.2377  137.9226  154.0572 C   0  0  0  0  0  0  0  0  0  0  0  0
  153.6083  139.6999  158.2377 N   0  0  0  0  0  0  0  0  0  0  0  0
  154.4196  139.9779  159.3441 O   0  0  0  0  0  0  0  0  0  0  0  0
  154.1049  140.7867  162.2357 H   0  0  0  0  0  0  0  0  0  0  0  0
  154.3632  142.3879  161.5392 H   0  0  0  0  0  0  0  0  0  0  0  0
  155.5635  141.1180  161.2989 H   0  0  0  0  0  0  0  0  0  0  0  0
  151.8522  141.9271  159.9698 H   0  0  0  0  0  0  0  0  0  0  0  0
  149.7463  140.1227  155.9901 H   0  0  0  0  0  0  0  0  0  0  0  0
  150.9018  139.9847  153.5028 H   0  0  0  0  0  0  0  0  0  0  0  0
  148.4357  139.9615  154.0029 H   0  0  0  0  0  0  0  0  0  0  0  0
  148.9182  138.8188  152.7776 H   0  0  0  0  0  0  0  0  0  0  0  0
  148.3301  138.1473  155.7091 H   0  0  0  0  0  0  0  0  0  0  0  0
  147.3495  137.7407  154.3164 H   0  0  0  0  0  0  0  0  0  0  0  0
  148.4186  135.6756  156.2175 H   0  0  0  0  0  0  0  0  0  0  0  0
  147.4602  135.3867  154.7906 H   0  0  0  0  0  0  0  0  0  0  0  0
  150.2714  134.3123  154.7620 H   0  0  0  0  0  0  0  0  0  0  0  0
  147.6204  133.2394  153.6736 H   0  0  0  0  0  0  0  0  0  0  0  0
  149.2001  132.4967  153.4433 H   0  0  0  0  0  0  0  0  0  0  0  0
  148.8582  134.0624  152.7272 H   0  0  0  0  0  0  0  0  0  0  0  0
  148.0080  132.9539  156.2831 H   0  0  0  0  0  0  0  0  0  0  0  0
  149.4568  133.6555  156.9994 H   0  0  0  0  0  0  0  0  0  0  0  0
  149.5898  132.2610  155.9374 H   0  0  0  0  0  0  0  0  0  0  0  0
  150.6359  137.0151  155.9372 H   0  0  0  0  0  0  0  0  0  0  0  0
  151.1238  135.8756  154.7045 H   0  0  0  0  0  0  0  0  0  0  0  0
  151.2625  137.6359  153.0050 H   0  0  0  0  0  0  0  0  0  0  0  0
  152.2791  138.0333  154.3609 H   0  0  0  0  0  0  0  0  0  0  0  0
  149.1346  136.4282  153.4897 H   0  0  0  0  0  0  0  0  0  0  0  0
  1  2  1  0  0  0  0
  1 21  1  0  0  0  0
  1 22  1  0  0  0  0
  1 23  1  0  0  0  0
  2 20  1  0  0  0  0
  2  3  2  0  0  0  0
  3  4  1  0  0  0  0
  3 24  1  0  0  0  0
  4  5  1  0  0  0  0
  4 19  2  0  0  0  0
  5  6  1  0  0  0  0
  6  7  2  0  0  0  0
  6  8  1  0  0  0  0
  8  9  1  0  0  0  0
  8 25  1  0  0  0  0
  9 18  1  0  0  0  0
  9 10  1  0  0  0  0
  9 26  1  0  0  0  0
 10 11  1  0  0  0  0
 10 27  1  0  0  0  0
 10 28  1  0  0  0  0
 11 12  1  0  0  0  0
 11 29  1  0  0  0  0
 11 30  1  0  0  0  0
 12 13  1  0  0  0  0
 12 17  1  0  0  0  0
 12 44  1  0  0  0  0
 13 14  1  0  0  0  0
 13 31  1  0  0  0  0
 13 32  1  0  0  0  0
 14 15  1  0  0  0  0
 14 16  1  0  0  0  0
 14 33  1  0  0  0  0
 15 34  1  0  0  0  0
 15 35  1  0  0  0  0
 15 36  1  0  0  0  0
 16 37  1  0  0  0  0
 16 38  1  0  0  0  0
 16 39  1  0  0  0  0
 17 18  1  0  0  0  0
 17 40  1  0  0  0  0
 17 41  1  0  0  0  0
 18 42  1  0  0  0  0
 18 43  1  0  0  0  0
 19 20  1  0  0  0  0
M  CHG  1   5  -1
M  CHG  1  12   1
M  END
> <s_m_source_file>
AV-unprocessed.smi

> <i_m_source_file_index>
1301

> <i_lp_mmshare_version>
43012

> <i_f3d_flags>
0

> <s_epik_input>
W0NIM11jMVtjSF1jKG5vMSlbTkhdQyg9TylbTkhdW0NIXTJbQ0gyXVtDSDJdTihbQ0gyXVtDSDJdMilbQ0gyXVtDSF0oW0NIM10pW0NIM10=

> <s_epik_cmdline>
J2VwaWtfcHl0aG9uJywgJy1waCcsICc3LjAnLCAnLXRuJywgJzgnLCAnLW1hJywgJzIwMCcsICctbWV0YWxfYmluZGluZycsICctaW1hZScsICc8aW5maWxlLm1hZT4nLCAnLW9tYWUnLCAnPG91dGZpbGUubWFlPic=

> <r_epik_Ionization_Penalty>
6.28597

> <r_epik_Ionization_Penalty_Charging>
6.28587

> <r_epik_Ionization_Penalty_Neutral>
9.69304e-05

> <r_epik_State_Penalty>
6.28524

> <r_epik_Charging_Adjusted_Penalty>
12.5711

> <i_epik_Tot_Q>
0

> <i_epik_Tot_abs_Q>
2

> <r_epik_Metal_State_Penalty>
2.21973

> <b_epik_Metal_Only>
1

> <s_lp_Force_Field>
OPLS_2005

> <r_lp_Energy>
6.70583

> <b_lp_Chiralities_Consistent>
1

> <s_lp_Variant>
AV-unprocessed.smi:1301-4

> <Gold.Version>
5.8.1

> <Gold.Id.Protein>
6NUR|6NUR_protein|mol2

> <Gold.PLP.Fitness>
41.8650

> <Gold.PLP.PLP>
-33.9814

> <Gold.PLP.part.hbond>
-3.7925

> <Gold.PLP.part.metal>
0.0000

> <Gold.PLP.part.buried>
-1.4639

> <Gold.PLP.part.nonpolar>
-27.9265

> <Gold.PLP.part.repulsive>
0.0759

> <Gold.PLP.ligand.clash>
0.0000

> <Gold.PLP.ligand.torsion>
0.5927

> <Gold.PLP.Chemscore.Hbond>
3.0000

> <Gold.PLP.Chemscore.CHOScore>
0.0000

> <Gold.PLP.Chemscore.Metal>
0.0000

> <Gold.Chemscore.Hbonds>
donor molecule, donor type, donor heavy atom, donor atom, acceptor molecule, acceptor atom, score
      L1  H    12    44       P1  7948  2.00
      P1  H  7997  8009       L1     7  1.00

> <Gold.PLP.Chemscore.Internal.Correction>
0.0690

> <Gold.Rescore>
     Score         DG    S(hbond)    S(metal)    S(lipo)     H(rot)  DE(clash)    DE(int)     intcor
     13.77     -17.55       1.92        0.00      78.96       1.41       0.15       3.62       ----

> <Gold.Chemscore.Fitness>
13.7722

> <Gold.Chemscore.DG>
-17.5467

> <Gold.Chemscore.ZeroCoef>
-5.4800

> <Gold.Chemscore.Hbond>
1.9246

> <Gold.Chemscore.Metal>
0.0000

> <Gold.Chemscore.Lipo>
78.9640

> <Gold.Chemscore.Internal_Hbond>
0.0000

> <Gold.Chemscore.DEClash>
0.1518

> <Gold.Chemscore.DEInternal>
3.6228

> <Gold.Chemscore.Rot>
1.4063

> <Gold.Chemscore.Internal.Correction>
   9.000000E+99

> <Gold.Chemscore.Hbonds>
donor molecule, donor type, donor heavy atom, donor atom, acceptor molecule, acceptor atom, score
      L1  H    12    44       P1  7948  0.97
      P1  H  7997  8009       L1     7  1.00

> <Gold.Chemscore.Hbond.Weighted>
-6.4282

> <Gold.Chemscore.Metal.Weighted>
-0.0000

> <Gold.Chemscore.Lipo.Weighted>
-9.2388

> <Gold.Chemscore.Internal_Hbond.Weighted>
0.0000

> <Gold.Chemscore.DEClash.Weighted>
0.1518

> <Gold.Chemscore.DEInternal.Weighted>
3.6228

> <Gold.Chemscore.Rot.Weighted>
3.6002

> <Gold.Chemscore.Internal.Correction.Weighted>
   9.000000E+99

> <Gold.Protein.RotatedTorsions>
[ 6907 6896 6895 6894 ] final -111.96 input  -60.11 | X-H torsion
[ 7974 7965 7964 7962 ] final   -0.31 input  175.53 | X-H torsion
[ 8008 7997 7996 7995 ] final -162.40 input   59.86 | X-H torsion
[ 10167 10162 10161 10158 ] final -157.04 input  -65.29 | X-H torsion
[ 10718 10713 10712 10709 ] final  135.61 input   66.30 | X-H torsion
[ 10763 10752 10751 10750 ] final   36.32 input  -60.55 | X-H torsion
[ 11005 11000 10999 10996 ] final  140.77 input  -57.11 | X-H torsion

> <Gold.Protein.ActiveResidues>
 VAL166  LYS551  ARG553  GLY616  TRP617  ASP618  TYR619  PRO620  LYS621  CYS622 
 ASP623  PHE694  ASN695  SER759  ASP760  ASP761  ALA762  ILE779  LEU786  VAL792 
 PHE793  MET794  SER795  GLU796  ALA797  LYS798  CYS799  TRP800  GLU811  SER814 

> <Gold.Protein.RotatedAtoms>
  150.7725  133.9159  159.3383 H   0  0  0  0  0  0  0  0  0  0  0  0  # atno 6907 bound_to 6896
  151.7042  135.0922  160.0266 H   0  0  0  0  0  0  0  0  0  0  0  0  # atno 6908 bound_to 6896
  152.3749  133.6430  159.6151 H   0  0  0  0  0  0  0  0  0  0  0  0  # atno 6909 bound_to 6896
  146.2428  140.1250  142.8339 H   0  0  0  0  0  0  0  0  0  0  0  0  # atno 7974 bound_to 7965
  155.8062  140.0899  157.1929 H   0  0  0  0  0  0  0  0  0  0  0  0  # atno 8008 bound_to 7997
  154.3981  140.1463  156.3392 H   0  0  0  0  0  0  0  0  0  0  0  0  # atno 8009 bound_to 7997
  155.8412  140.3438  155.5636 H   0  0  0  0  0  0  0  0  0  0  0  0  # atno 8010 bound_to 7997
  139.6802  143.9594  152.2332 H   0  0  0  0  0  0  0  0  0  0  0  0  # atno 10167 bound_to 10162
  157.4552  131.1069  150.9986 H   0  0  0  0  0  0  0  0  0  0  0  0  # atno 10718 bound_to 10713
  153.0082  135.6309  154.1967 H   0  0  0  0  0  0  0  0  0  0  0  0  # atno 10763 bound_to 10752
  154.1710  135.2818  155.3082 H   0  0  0  0  0  0  0  0  0  0  0  0  # atno 10764 bound_to 10752
  154.5908  135.5618  153.7337 H   0  0  0  0  0  0  0  0  0  0  0  0  # atno 10765 bound_to 10752
  140.0352  134.9332  157.0739 H   0  0  0  0  0  0  0  0  0  0  0  0  # atno 11005 bound_to 11000
  145.0374  140.8918  143.5073 LP  0  0  0  0  0  0  0  0  0  0  0  0  # atno 17320 bound_to 7965
  145.1325  139.2623  143.5532 LP  0  0  0  0  0  0  0  0  0  0  0  0  # atno 17321 bound_to 7965
  139.9382  144.6698  150.8293 LP  0  0  0  0  0  0  0  0  0  0  0  0  # atno 17342 bound_to 10162
  140.7649  143.3262  151.2510 LP  0  0  0  0  0  0  0  0  0  0  0  0  # atno 17343 bound_to 10162
  157.0802  130.5900  149.5419 LP  0  0  0  0  0  0  0  0  0  0  0  0  # atno 17370 bound_to 10713
  156.0004  130.5082  150.7642 LP  0  0  0  0  0  0  0  0  0  0  0  0  # atno 17371 bound_to 10713
  140.4160  134.1931  155.7163 LP  0  0  0  0  0  0  0  0  0  0  0  0  # atno 17394 bound_to 11000
  141.1853  133.8326  157.1109 LP  0  0  0  0  0  0  0  0  0  0  0  0  # atno 17395 bound_to 11000

$$$$
