AV-unprocessed.smi:158|AV-procd|sdf|1331|dock2
  -GOLD-   2262019 23D 1   1.00000     0.00000
 Structure written by MMmdl.
 31 33  0  0  0  0  0  0  0  0  1 V2000
  154.7482  141.1318  160.5818 N   0  0  0  0  0  0  0  0  0  0  0  0
  153.6645  141.5220  159.8962 C   0  0  0  0  0  0  0  0  0  0  0  0
  153.5220  142.8370  159.6104 N   0  0  0  0  0  0  0  0  0  0  0  0
  152.4552  143.2665  158.9260 C   0  0  0  0  0  0  0  0  0  0  0  0
  152.3711  144.9599  158.6132 Cl  0  0  0  0  0  0  0  0  0  0  0  0
  151.4443  142.5294  158.4560 N   0  0  0  0  0  0  0  0  0  0  0  0
  151.5803  141.2024  158.7414 C   0  0  0  0  0  0  0  0  0  0  0  0
  152.6629  140.6222  159.4563 C   0  0  0  0  0  0  0  0  0  0  0  0
  152.4812  139.2508  159.5621 N   0  0  0  0  0  0  0  0  0  0  0  0
  151.3521  139.0367  158.9420 C   0  0  0  0  0  0  0  0  0  0  0  0
  150.7390  140.1544  158.4185 N   0  0  0  0  0  0  0  0  0  0  0  0
  149.4407  140.1973  157.6715 C   0  0  2  0  0  0  0  0  0  0  0  0
  149.4936  139.2880  156.6093 O   0  0  0  0  0  0  0  0  0  0  0  0
  149.1989  139.9498  155.3790 C   0  0  2  0  0  0  0  0  0  0  0  0
  149.9181  139.2475  154.2156 C   0  0  0  0  0  0  0  0  0  0  0  0
  151.3142  139.2434  154.4269 O   0  0  0  0  0  0  0  0  0  0  0  0
  149.6349  141.3945  155.6353 C   0  0  1  0  0  0  0  0  0  0  0  0
  149.0256  142.3359  154.7750 O   0  0  0  0  0  0  0  0  0  0  0  0
  149.2090  141.5916  157.0794 C   0  0  1  0  0  0  0  0  0  0  0  0
  147.9024  141.8535  157.1666 F   0  0  0  0  0  0  0  0  0  0  0  0
  148.6930  139.9037  158.4096 H   0  0  0  0  0  0  0  0  0  0  0  0
  148.1171  139.9015  155.2394 H   0  0  0  0  0  0  0  0  0  0  0  0
  150.7175  141.4882  155.5532 H   0  0  0  0  0  0  0  0  0  0  0  0
  149.7538  142.3726  157.6115 H   0  0  0  0  0  0  0  0  0  0  0  0
  154.8762  140.1553  160.8058 H   0  0  0  0  0  0  0  0  0  0  0  0
  155.4352  141.8133  160.8704 H   0  0  0  0  0  0  0  0  0  0  0  0
  150.9292  138.0467  158.8512 H   0  0  0  0  0  0  0  0  0  0  0  0
  149.5664  138.2240  154.0889 H   0  0  0  0  0  0  0  0  0  0  0  0
  149.7182  139.7742  153.2823 H   0  0  0  0  0  0  0  0  0  0  0  0
  151.4793  139.0435  155.3358 H   0  0  0  0  0  0  0  0  0  0  0  0
  148.9219  143.1475  155.2486 H   0  0  0  0  0  0  0  0  0  0  0  0
  1  2  1  0  0  0  0
  1 25  1  0  0  0  0
  1 26  1  0  0  0  0
  2  8  1  0  0  0  0
  2  3  2  0  0  0  0
  3  4  1  0  0  0  0
  4  5  1  0  0  0  0
  4  6  2  0  0  0  0
  6  7  1  0  0  0  0
  7 11  1  0  0  0  0
  7  8  2  0  0  0  0
  8  9  1  0  0  0  0
  9 10  2  0  0  0  0
 10 11  1  0  0  0  0
 10 27  1  0  0  0  0
 11 12  1  0  0  0  0
 12 21  1  0  0  0  0
 12 19  1  0  0  0  0
 12 13  1  0  0  0  0
 13 14  1  0  0  0  0
 14 22  1  0  0  0  0
 14 15  1  0  0  0  0
 14 17  1  0  0  0  0
 15 16  1  0  0  0  0
 15 28  1  0  0  0  0
 15 29  1  0  0  0  0
 16 30  1  0  0  0  0
 17 23  1  0  0  0  0
 17 18  1  0  0  0  0
 17 19  1  0  0  0  0
 18 31  1  0  0  0  0
 19 24  1  0  0  0  0
 19 20  1  0  0  0  0
M  END
> <s_m_source_file>
AV-unprocessed.smi

> <i_m_source_file_index>
158

> <i_lp_mmshare_version>
43012

> <i_f3d_flags>
0

> <s_epik_input>
Q2xjKG4xKW5jKFtOSDJdKWMoYzEyKW5bY0hdbjJbQ0BASF0zT1tDQEhdKFtDSDJdW09IXSlbQ0BASF0oW09IXSlbQ0BASF0zRg==

> <s_epik_cmdline>
J2VwaWtfcHl0aG9uJywgJy1waCcsICc3LjAnLCAnLXRuJywgJzgnLCAnLW1hJywgJzIwMCcsICctbWV0YWxfYmluZGluZycsICctaW1hZScsICc8aW5maWxlLm1hZT4nLCAnLW9tYWUnLCAnPG91dGZpbGUubWFlPic=

> <r_lp_tautomer_probability>
1

> <r_epik_Ionization_Penalty>
6.51543e-05

> <r_epik_Ionization_Penalty_Charging>
0

> <r_epik_Ionization_Penalty_Neutral>
6.51543e-05

> <r_epik_State_Penalty>
-0

> <r_epik_Charging_Adjusted_Penalty>
0

> <i_epik_Tot_Q>
0

> <i_epik_Tot_abs_Q>
0

> <r_epik_Metal_State_Penalty>
-0

> <b_epik_Metal_Only>
0

> <s_epik_Chemistry_Notes>
This compound contains an acetal/aminal-like group ( X-CH(R)-Y where X, Y are N, S, or O) that may be acid/base labile, releasing an aldehyde.

> <s_lp_Force_Field>
OPLS_2005

> <r_lp_Energy>
33.8646

> <b_lp_Chiralities_Consistent>
1

> <s_lp_Variant>
AV-unprocessed.smi:158-9

> <Gold.Version>
5.8.1

> <Gold.Id.Protein>
6NUR|6NUR_protein|mol2

> <Gold.PLP.Fitness>
39.0625

> <Gold.PLP.PLP>
-33.7377

> <Gold.PLP.part.hbond>
-3.5713

> <Gold.PLP.part.metal>
0.0000

> <Gold.PLP.part.buried>
-5.7738

> <Gold.PLP.part.nonpolar>
-25.0037

> <Gold.PLP.part.repulsive>
0.0791

> <Gold.PLP.ligand.clash>
0.0000

> <Gold.PLP.ligand.torsion>
0.1160

> <Gold.PLP.Chemscore.Hbond>
1.8500

> <Gold.PLP.Chemscore.CHOScore>
0.0000

> <Gold.PLP.Chemscore.Metal>
0.0000

> <Gold.Chemscore.Hbonds>
donor molecule, donor type, donor heavy atom, donor atom, acceptor molecule, acceptor atom, score
      L1  H    18    31       P1  8028  1.00
      P1  H  7989  7998       L1    16  0.80

> <Gold.PLP.Chemscore.Internal.Correction>
0.0067

> <Gold.Rescore>
     Score         DG    S(hbond)    S(metal)    S(lipo)     H(rot)  DE(clash)    DE(int)     intcor
      6.07      -8.39       1.79        0.00      42.07       3.12       0.90       1.43       ----

> <Gold.Chemscore.Fitness>
6.0707

> <Gold.Chemscore.DG>
-8.3932

> <Gold.Chemscore.ZeroCoef>
-5.4800

> <Gold.Chemscore.Hbond>
1.7921

> <Gold.Chemscore.Metal>
0.0000

> <Gold.Chemscore.Lipo>
42.0738

> <Gold.Chemscore.Internal_Hbond>
0.0000

> <Gold.Chemscore.DEClash>
0.8958

> <Gold.Chemscore.DEInternal>
1.4267

> <Gold.Chemscore.Rot>
3.1230

> <Gold.Chemscore.Internal.Correction>
   9.000000E+99

> <Gold.Chemscore.Hbonds>
donor molecule, donor type, donor heavy atom, donor atom, acceptor molecule, acceptor atom, score
      L1  H    18    31       P1  8028  0.99
      P1  H  7989  7998       L1    16  0.12

> <Gold.Chemscore.Hbond.Weighted>
-5.9855

> <Gold.Chemscore.Metal.Weighted>
-0.0000

> <Gold.Chemscore.Lipo.Weighted>
-4.9226

> <Gold.Chemscore.Internal_Hbond.Weighted>
0.0000

> <Gold.Chemscore.DEClash.Weighted>
0.8958

> <Gold.Chemscore.DEInternal.Weighted>
1.4267

> <Gold.Chemscore.Rot.Weighted>
7.9950

> <Gold.Chemscore.Internal.Correction.Weighted>
   9.000000E+99

> <Gold.Protein.RotatedTorsions>
[ 6907 6896 6895 6894 ] final -105.08 input  -60.11 | X-H torsion
[ 7974 7965 7964 7962 ] final  140.59 input  175.53 | X-H torsion
[ 8008 7997 7996 7995 ] final  137.36 input   59.86 | X-H torsion
[ 10167 10162 10161 10158 ] final   57.11 input  -65.29 | X-H torsion
[ 10718 10713 10712 10709 ] final  144.44 input   66.30 | X-H torsion
[ 10763 10752 10751 10750 ] final  143.35 input  -60.55 | X-H torsion
[ 11005 11000 10999 10996 ] final  143.60 input  -57.11 | X-H torsion

> <Gold.Protein.ActiveResidues>
 VAL166  LYS551  ARG553  GLY616  TRP617  ASP618  TYR619  PRO620  LYS621  CYS622 
 ASP623  PHE694  ASN695  SER759  ASP760  ASP761  ALA762  ILE779  LEU786  VAL792 
 PHE793  MET794  SER795  GLU796  ALA797  LYS798  CYS799  TRP800  GLU811  SER814 

> <Gold.Protein.RotatedAtoms>
  150.7319  134.0180  159.3691 H   0  0  0  0  0  0  0  0  0  0  0  0  # atno 6907 bound_to 6896
  151.8143  135.0669  160.0426 H   0  0  0  0  0  0  0  0  0  0  0  0  # atno 6908 bound_to 6896
  152.3050  133.5657  159.5679 H   0  0  0  0  0  0  0  0  0  0  0  0  # atno 6909 bound_to 6896
  144.9173  139.5214  143.5680 H   0  0  0  0  0  0  0  0  0  0  0  0  # atno 7974 bound_to 7965
  156.3002  140.2421  156.3897 H   0  0  0  0  0  0  0  0  0  0  0  0  # atno 8008 bound_to 7997
  154.8625  140.0419  157.1694 H   0  0  0  0  0  0  0  0  0  0  0  0  # atno 8009 bound_to 7997
  154.8881  140.2959  155.5390 H   0  0  0  0  0  0  0  0  0  0  0  0  # atno 8010 bound_to 7997
  140.2015  144.3983  150.6527 H   0  0  0  0  0  0  0  0  0  0  0  0  # atno 10167 bound_to 10162
  157.3571  131.0959  151.0949 H   0  0  0  0  0  0  0  0  0  0  0  0  # atno 10718 bound_to 10713
  153.9708  135.2951  155.3427 H   0  0  0  0  0  0  0  0  0  0  0  0  # atno 10763 bound_to 10752
  154.7323  135.5062  153.8987 H   0  0  0  0  0  0  0  0  0  0  0  0  # atno 10764 bound_to 10752
  153.0901  135.6705  153.9984 H   0  0  0  0  0  0  0  0  0  0  0  0  # atno 10765 bound_to 10752
  140.0567  134.9227  157.1112 H   0  0  0  0  0  0  0  0  0  0  0  0  # atno 11005 bound_to 11000
  146.3188  139.8025  142.8962 LP  0  0  0  0  0  0  0  0  0  0  0  0  # atno 17320 bound_to 7965
  145.3354  141.0276  143.3422 LP  0  0  0  0  0  0  0  0  0  0  0  0  # atno 17321 bound_to 7965
  140.6387  143.2199  151.6338 LP  0  0  0  0  0  0  0  0  0  0  0  0  # atno 17342 bound_to 10162
  139.5215  144.3190  152.0927 LP  0  0  0  0  0  0  0  0  0  0  0  0  # atno 17343 bound_to 10162
  157.2102  130.6434  149.5771 LP  0  0  0  0  0  0  0  0  0  0  0  0  # atno 17370 bound_to 10713
  155.9731  130.4662  150.6281 LP  0  0  0  0  0  0  0  0  0  0  0  0  # atno 17371 bound_to 10713
  140.3834  134.2263  155.7169 LP  0  0  0  0  0  0  0  0  0  0  0  0  # atno 17394 bound_to 11000
  141.1955  133.8104  157.0713 LP  0  0  0  0  0  0  0  0  0  0  0  0  # atno 17395 bound_to 11000

$$$$
