AV-unprocessed.smi:203|AV-procd|sdf|1586|dock6
  -GOLD-   2262019483D 1   1.00000     0.00000
 Structure written by MMmdl.
 57 61  0  0  0  0  0  0  0  0  1 V2000
  146.7547  129.5790  161.2897 O   0  0  0  0  0  0  0  0  0  0  0  0
  147.6566  130.3583  160.9909 C   0  0  0  0  0  0  0  0  0  0  0  0
  147.5291  131.4126  159.9051 C   0  0  0  0  0  0  0  0  0  0  0  0
  148.8001  132.2696  160.0792 C   0  0  1  0  0  0  0  0  0  0  0  0
  148.5391  133.7133  160.6154 C   0  0  2  0  0  0  0  0  0  0  0  0
  147.9006  133.7228  162.0301 C   0  0  0  0  0  0  0  0  0  0  0  0
  147.6559  135.1507  162.5349 C   0  0  0  0  0  0  0  0  0  0  0  0
  146.7981  135.9208  161.5254 C   0  0  0  0  0  0  0  0  0  0  0  0
  147.4574  135.8999  160.1401 C   0  0  0  0  0  0  0  0  0  0  0  0
  147.7258  134.5316  159.6978 N   0  0  0  0  0  0  0  0  0  0  0  0
  148.0984  134.5212  158.3983 C   0  0  0  0  0  0  0  0  0  0  0  0
  149.2788  135.1111  158.0889 N   0  0  0  0  0  0  0  0  0  0  0  0
  149.6955  135.1429  156.8194 C   0  0  0  0  0  0  0  0  0  0  0  0
  149.0995  134.6489  155.7314 N   0  0  0  0  0  0  0  0  0  0  0  0
  147.9149  134.0490  156.0435 C   0  0  0  0  0  0  0  0  0  0  0  0
  147.3418  133.9406  157.3413 C   0  0  0  0  0  0  0  0  0  0  0  0
  146.1281  133.2671  157.2700 N   0  0  0  0  0  0  0  0  0  0  0  0
  145.9919  132.9922  156.0012 C   0  0  0  0  0  0  0  0  0  0  0  0
  147.0190  133.4248  155.1940 N   0  0  0  0  0  0  0  0  0  0  0  0
  147.1235  133.2519  153.7561 C   0  0  0  0  0  0  0  0  0  0  0  0
  145.8789  133.7781  153.0100 C   0  0  1  0  0  0  0  0  0  0  0  0
  145.8264  135.1897  153.0639 O   0  0  0  0  0  0  0  0  0  0  0  0
  145.7886  133.3366  151.5346 C   0  0  2  0  0  0  0  0  0  0  0  0
  144.3953  133.4909  150.9119 C   0  0  0  0  0  0  0  0  0  0  0  0
  144.2864  132.3291  149.9328 C   0  0  0  0  0  0  0  0  0  0  0  0
  145.6095  131.5821  150.0887 C   0  0  0  0  0  0  0  0  0  0  0  0
  146.0586  131.9502  151.3821 O   0  0  0  0  0  0  0  0  0  0  0  0
  149.7193  131.4334  160.9955 C   0  0  0  0  0  0  0  0  0  0  0  0
  148.8625  130.4053  161.5534 N   0  0  0  0  0  0  0  0  0  0  0  0
  147.5172  130.9239  158.9304 H   0  0  0  0  0  0  0  0  0  0  0  0
  146.6051  131.9819  160.0083 H   0  0  0  0  0  0  0  0  0  0  0  0
  149.3067  132.3366  159.1159 H   0  0  0  0  0  0  0  0  0  0  0  0
  149.5083  134.2059  160.7020 H   0  0  0  0  0  0  0  0  0  0  0  0
  146.9498  133.1897  162.0200 H   0  0  0  0  0  0  0  0  0  0  0  0
  148.5340  133.2008  162.7463 H   0  0  0  0  0  0  0  0  0  0  0  0
  147.1630  135.1273  163.5072 H   0  0  0  0  0  0  0  0  0  0  0  0
  148.6091  135.6610  162.6773 H   0  0  0  0  0  0  0  0  0  0  0  0
  145.8048  135.4737  161.4672 H   0  0  0  0  0  0  0  0  0  0  0  0
  146.6590  136.9497  161.8581 H   0  0  0  0  0  0  0  0  0  0  0  0
  146.8081  136.4031  159.4218 H   0  0  0  0  0  0  0  0  0  0  0  0
  148.3923  136.4614  160.1711 H   0  0  0  0  0  0  0  0  0  0  0  0
  150.6415  135.6359  156.6507 H   0  0  0  0  0  0  0  0  0  0  0  0
  145.1322  132.4638  155.6153 H   0  0  0  0  0  0  0  0  0  0  0  0
  148.0238  133.7612  153.4104 H   0  0  0  0  0  0  0  0  0  0  0  0
  147.2725  132.1912  153.5546 H   0  0  0  0  0  0  0  0  0  0  0  0
  144.9836  133.4262  153.5241 H   0  0  0  0  0  0  0  0  0  0  0  0
  146.5215  135.5338  152.5235 H   0  0  0  0  0  0  0  0  0  0  0  0
  146.4999  133.9005  150.9271 H   0  0  0  0  0  0  0  0  0  0  0  0
  143.6097  133.4092  151.6632 H   0  0  0  0  0  0  0  0  0  0  0  0
  144.2806  134.4584  150.4222 H   0  0  0  0  0  0  0  0  0  0  0  0
  143.4508  131.6858  150.2110 H   0  0  0  0  0  0  0  0  0  0  0  0
  144.1279  132.6595  148.9058 H   0  0  0  0  0  0  0  0  0  0  0  0
  145.4974  130.5018  149.9944 H   0  0  0  0  0  0  0  0  0  0  0  0
  146.3343  131.9179  149.3453 H   0  0  0  0  0  0  0  0  0  0  0  0
  150.5089  130.9525  160.4165 H   0  0  0  0  0  0  0  0  0  0  0  0
  150.1990  132.0204  161.7788 H   0  0  0  0  0  0  0  0  0  0  0  0
  149.1630  129.7923  162.2975 H   0  0  0  0  0  0  0  0  0  0  0  0
  1  2  2  0  0  0  0
  2 29  1  0  0  0  0
  2  3  1  0  0  0  0
  3  4  1  0  0  0  0
  3 30  1  0  0  0  0
  3 31  1  0  0  0  0
  4  5  1  0  0  0  0
  4 28  1  0  0  0  0
  4 32  1  0  0  0  0
  5 10  1  0  0  0  0
  5  6  1  0  0  0  0
  5 33  1  0  0  0  0
  6  7  1  0  0  0  0
  6 34  1  0  0  0  0
  6 35  1  0  0  0  0
  7  8  1  0  0  0  0
  7 36  1  0  0  0  0
  7 37  1  0  0  0  0
  8  9  1  0  0  0  0
  8 38  1  0  0  0  0
  8 39  1  0  0  0  0
  9 10  1  0  0  0  0
  9 40  1  0  0  0  0
  9 41  1  0  0  0  0
 10 11  1  0  0  0  0
 11 16  1  0  0  0  0
 11 12  2  0  0  0  0
 12 13  1  0  0  0  0
 13 14  2  0  0  0  0
 13 42  1  0  0  0  0
 14 15  1  0  0  0  0
 15 19  1  0  0  0  0
 15 16  2  0  0  0  0
 16 17  1  0  0  0  0
 17 18  2  0  0  0  0
 18 19  1  0  0  0  0
 18 43  1  0  0  0  0
 19 20  1  0  0  0  0
 20 21  1  0  0  0  0
 20 44  1  0  0  0  0
 20 45  1  0  0  0  0
 21 22  1  0  0  0  0
 21 23  1  0  0  0  0
 21 46  1  0  0  0  0
 22 47  1  0  0  0  0
 23 27  1  0  0  0  0
 23 24  1  0  0  0  0
 23 48  1  0  0  0  0
 24 25  1  0  0  0  0
 24 49  1  0  0  0  0
 24 50  1  0  0  0  0
 25 26  1  0  0  0  0
 25 51  1  0  0  0  0
 25 52  1  0  0  0  0
 26 27  1  0  0  0  0
 26 53  1  0  0  0  0
 26 54  1  0  0  0  0
 28 29  1  0  0  0  0
 28 55  1  0  0  0  0
 28 56  1  0  0  0  0
 29 57  1  0  0  0  0
M  END
> <s_m_source_file>
AV-unprocessed.smi

> <i_m_source_file_index>
203

> <i_lp_mmshare_version>
43012

> <i_f3d_flags>
0

> <s_epik_input>
Tz1DMVtDSDJdW0NASF0oW0NIMl1bTkhdMSlbQ0BASF0yW0NIMl1bQ0gyXVtDSDJdW0NIMl1OMmMobltjSF1uMyljKGMzNCluW2NIXW40W0NIMl1bQ0BIXShbT0hdKVtDQEBIXTVbQ0gyXVtDSDJdW0NIMl1PNQ==

> <s_epik_cmdline>
J2VwaWtfcHl0aG9uJywgJy1waCcsICc3LjAnLCAnLXRuJywgJzgnLCAnLW1hJywgJzIwMCcsICctbWV0YWxfYmluZGluZycsICctaW1hZScsICc8aW5maWxlLm1hZT4nLCAnLW9tYWUnLCAnPG91dGZpbGUubWFlPic=

> <r_lp_tautomer_probability>
1

> <r_epik_Ionization_Penalty>
0.00175146

> <r_epik_Ionization_Penalty_Charging>
0

> <r_epik_Ionization_Penalty_Neutral>
0.00175146

> <r_epik_State_Penalty>
0.00109045

> <r_epik_Charging_Adjusted_Penalty>
0.00109045

> <i_epik_Tot_Q>
0

> <i_epik_Tot_abs_Q>
0

> <r_epik_Metal_State_Penalty>
-0

> <b_epik_Metal_Only>
0

> <s_lp_Force_Field>
OPLS_2005

> <r_lp_Energy>
58.3664

> <b_lp_Chiralities_Consistent>
1

> <s_lp_Variant>
AV-unprocessed.smi:203-5

> <Gold.Version>
5.8.1

> <Gold.Id.Protein>
6NUR|6NUR_protein|mol2

> <Gold.PLP.Fitness>
43.9930

> <Gold.PLP.PLP>
-35.4559

> <Gold.PLP.part.hbond>
-2.0000

> <Gold.PLP.part.metal>
0.0000

> <Gold.PLP.part.buried>
-6.5102

> <Gold.PLP.part.nonpolar>
-27.8133

> <Gold.PLP.part.repulsive>
0.2576

> <Gold.PLP.ligand.clash>
0.0000

> <Gold.PLP.ligand.torsion>
0.4011

> <Gold.PLP.Chemscore.Hbond>
2.0000

> <Gold.PLP.Chemscore.CHOScore>
1.0000

> <Gold.PLP.Chemscore.Metal>
0.0000

> <Gold.Chemscore.Hbonds>
donor molecule, donor type, donor heavy atom, donor atom, acceptor molecule, acceptor atom, score
      P1  H  6896  6907       L1    12  0.37
      L1  C    18    43       P1 10957  0.66

> <Gold.PLP.Chemscore.Internal.Correction>
0.3394

> <Gold.Rescore>
     Score         DG    S(hbond)    S(metal)    S(lipo)     H(rot)  DE(clash)    DE(int)     intcor
     13.92     -14.59       1.88        0.00      83.82       2.72       0.04       0.63       ----

> <Gold.Chemscore.Fitness>
13.9227

> <Gold.Chemscore.DG>
-14.5946

> <Gold.Chemscore.ZeroCoef>
-5.4800

> <Gold.Chemscore.Hbond>
1.8754

> <Gold.Chemscore.Metal>
0.0000

> <Gold.Chemscore.Lipo>
83.8159

> <Gold.Chemscore.Internal_Hbond>
0.0000

> <Gold.Chemscore.DEClash>
0.0408

> <Gold.Chemscore.DEInternal>
0.6311

> <Gold.Chemscore.Rot>
2.7171

> <Gold.Chemscore.Internal.Correction>
   9.000000E+99

> <Gold.Chemscore.Hbonds>
donor molecule, donor type, donor heavy atom, donor atom, acceptor molecule, acceptor atom, score
      P1  H  6896  6907       L1    12  0.09

> <Gold.Chemscore.Hbond.Weighted>
-6.2639

> <Gold.Chemscore.Metal.Weighted>
-0.0000

> <Gold.Chemscore.Lipo.Weighted>
-9.8065

> <Gold.Chemscore.Internal_Hbond.Weighted>
0.0000

> <Gold.Chemscore.DEClash.Weighted>
0.0408

> <Gold.Chemscore.DEInternal.Weighted>
0.6311

> <Gold.Chemscore.Rot.Weighted>
6.9557

> <Gold.Chemscore.Internal.Correction.Weighted>
   9.000000E+99

> <Gold.Protein.RotatedTorsions>
[ 6907 6896 6895 6894 ] final -113.29 input  -60.11 | X-H torsion
[ 7974 7965 7964 7962 ] final  107.90 input  175.53 | X-H torsion
[ 8008 7997 7996 7995 ] final  -32.62 input   59.86 | X-H torsion
[ 10167 10162 10161 10158 ] final  117.45 input  -65.29 | X-H torsion
[ 10718 10713 10712 10709 ] final   97.26 input   66.30 | X-H torsion
[ 10763 10752 10751 10750 ] final  102.73 input  -60.55 | X-H torsion
[ 11005 11000 10999 10996 ] final -176.58 input  -57.11 | X-H torsion

> <Gold.Protein.ActiveResidues>
 VAL166  LYS551  ARG553  GLY616  TRP617  ASP618  TYR619  PRO620  LYS621  CYS622 
 ASP623  PHE694  ASN695  SER759  ASP760  ASP761  ALA762  ILE779  LEU786  VAL792 
 PHE793  MET794  SER795  GLU796  ALA797  LYS798  CYS799  TRP800  GLU811  SER814 

> <Gold.Protein.RotatedAtoms>
  150.7818  133.8966  159.3328 H   0  0  0  0  0  0  0  0  0  0  0  0  # atno 6907 bound_to 6896
  151.6827  135.0957  160.0228 H   0  0  0  0  0  0  0  0  0  0  0  0  # atno 6908 bound_to 6896
  152.3872  133.6589  159.6243 H   0  0  0  0  0  0  0  0  0  0  0  0  # atno 6909 bound_to 6896
  145.2877  139.2611  143.3882 H   0  0  0  0  0  0  0  0  0  0  0  0  # atno 7974 bound_to 7965
  154.4174  140.1732  156.1757 H   0  0  0  0  0  0  0  0  0  0  0  0  # atno 8008 bound_to 7997
  155.9724  140.3384  155.6563 H   0  0  0  0  0  0  0  0  0  0  0  0  # atno 8009 bound_to 7997
  155.6608  140.0700  157.2545 H   0  0  0  0  0  0  0  0  0  0  0  0  # atno 8010 bound_to 7997
  139.6178  144.7095  151.2701 H   0  0  0  0  0  0  0  0  0  0  0  0  # atno 10167 bound_to 10162
  157.6915  131.0604  150.4616 H   0  0  0  0  0  0  0  0  0  0  0  0  # atno 10718 bound_to 10713
  153.3434  135.4000  155.1590 H   0  0  0  0  0  0  0  0  0  0  0  0  # atno 10763 bound_to 10752
  154.8648  135.3639  154.5316 H   0  0  0  0  0  0  0  0  0  0  0  0  # atno 10764 bound_to 10752
  153.5762  135.7077  153.5542 H   0  0  0  0  0  0  0  0  0  0  0  0  # atno 10765 bound_to 10752
  140.4505  134.6348  157.4799 H   0  0  0  0  0  0  0  0  0  0  0  0  # atno 11005 bound_to 11000
  146.3195  140.3360  142.8644 LP  0  0  0  0  0  0  0  0  0  0  0  0  # atno 17320 bound_to 7965
  144.9199  140.7856  143.5754 LP  0  0  0  0  0  0  0  0  0  0  0  0  # atno 17321 bound_to 7965
  140.7362  143.6714  150.8079 LP  0  0  0  0  0  0  0  0  0  0  0  0  # atno 17342 bound_to 10162
  140.0319  143.5434  152.2756 LP  0  0  0  0  0  0  0  0  0  0  0  0  # atno 17343 bound_to 10162
  156.4960  130.4106  149.6379 LP  0  0  0  0  0  0  0  0  0  0  0  0  # atno 17370 bound_to 10713
  156.3372  130.7363  151.2302 LP  0  0  0  0  0  0  0  0  0  0  0  0  # atno 17371 bound_to 10713
  140.0010  134.6836  155.9530 LP  0  0  0  0  0  0  0  0  0  0  0  0  # atno 17394 bound_to 11000
  141.1666  133.6537  156.4502 LP  0  0  0  0  0  0  0  0  0  0  0  0  # atno 17395 bound_to 11000

$$$$
