AV-unprocessed.smi:2926|AV-procd|sdf|11226|dock6
  -GOLD-   2272016113D 1   1.00000     0.00000
 Structure written by MMmdl.
 32 32  0  0  0  0  0  0  0  0  1 V2000
  149.4145  141.3314  154.6289 C   0  0  0  0  0  0  0  0  0  0  0  0
  148.2661  140.7582  153.7744 C   0  0  0  0  0  0  0  0  0  0  0  0
  146.9526  141.4488  154.1884 C   0  0  0  0  0  0  0  0  0  0  0  0
  148.1909  139.2085  153.8692 C   0  0  1  0  0  0  0  0  0  0  0  0
  147.0889  138.5753  152.9917 C   0  0  0  0  0  0  0  0  0  0  0  0
  147.3076  138.8850  151.6315 O   0  0  0  0  0  0  0  0  0  0  0  0
  149.4788  138.6431  153.4459 N   0  0  0  0  0  0  0  0  0  0  0  0
  150.5625  138.0445  154.6487 S   0  0  0  0  0  0  0  0  0  0  0  0
  149.9109  138.1966  155.9590 O   0  0  0  0  0  0  0  0  0  0  0  0
  151.0281  136.7203  154.2088 O   0  0  0  0  0  0  0  0  0  0  0  0
  151.9611  139.2395  154.5509 C   0  0  0  0  0  0  0  0  0  0  0  0
  152.2760  139.7643  155.9232 C   0  0  0  0  0  0  0  0  0  0  0  0
  151.4720  140.5830  156.7643 C   0  0  0  0  0  0  0  0  0  0  0  0
  152.2427  140.7491  157.8787 C   0  0  0  0  0  0  0  0  0  0  0  0
  153.4200  140.0877  157.7452 O   0  0  0  0  0  0  0  0  0  0  0  0
  153.4310  139.4605  156.4942 N   0  0  0  0  0  0  0  0  0  0  0  0
  148.0034  138.9451  154.9115 H   0  0  0  0  0  0  0  0  0  0  0  0
  149.2957  141.0652  155.6797 H   0  0  0  0  0  0  0  0  0  0  0  0
  149.4484  142.4193  154.5651 H   0  0  0  0  0  0  0  0  0  0  0  0
  150.3885  140.9667  154.3021 H   0  0  0  0  0  0  0  0  0  0  0  0
  148.4643  141.0286  152.7361 H   0  0  0  0  0  0  0  0  0  0  0  0
  146.6363  141.1335  155.1832 H   0  0  0  0  0  0  0  0  0  0  0  0
  146.1404  141.2413  153.4932 H   0  0  0  0  0  0  0  0  0  0  0  0
  147.0694  142.5328  154.2085 H   0  0  0  0  0  0  0  0  0  0  0  0
  147.0975  137.4892  153.0565 H   0  0  0  0  0  0  0  0  0  0  0  0
  146.0950  138.9050  153.2969 H   0  0  0  0  0  0  0  0  0  0  0  0
  148.2249  139.0760  151.5093 H   0  0  0  0  0  0  0  0  0  0  0  0
  149.3466  137.9594  152.7009 H   0  0  0  0  0  0  0  0  0  0  0  0
  152.8221  138.7303  154.1190 H   0  0  0  0  0  0  0  0  0  0  0  0
  151.6739  140.0438  153.8725 H   0  0  0  0  0  0  0  0  0  0  0  0
  150.4886  140.9881  156.5767 H   0  0  0  0  0  0  0  0  0  0  0  0
  152.1005  141.2829  158.8066 H   0  0  0  0  0  0  0  0  0  0  0  0
  1  2  1  0  0  0  0
  1 18  1  0  0  0  0
  1 19  1  0  0  0  0
  1 20  1  0  0  0  0
  2  3  1  0  0  0  0
  2  4  1  0  0  0  0
  2 21  1  0  0  0  0
  3 22  1  0  0  0  0
  3 23  1  0  0  0  0
  3 24  1  0  0  0  0
  4 17  1  0  0  0  0
  4  5  1  0  0  0  0
  4  7  1  0  0  0  0
  5  6  1  0  0  0  0
  5 25  1  0  0  0  0
  5 26  1  0  0  0  0
  6 27  1  0  0  0  0
  7  8  1  0  0  0  0
  7 28  1  0  0  0  0
  8  9  2  0  0  0  0
  8 10  2  0  0  0  0
  8 11  1  0  0  0  0
 11 12  1  0  0  0  0
 11 29  1  0  0  0  0
 11 30  1  0  0  0  0
 12 16  2  0  0  0  0
 12 13  1  0  0  0  0
 13 14  2  0  0  0  0
 13 31  1  0  0  0  0
 14 15  1  0  0  0  0
 14 32  1  0  0  0  0
 15 16  1  0  0  0  0
M  END
> <s_m_source_file>
AV-unprocessed.smi

> <i_m_source_file_index>
2926

> <i_lp_mmshare_version>
43012

> <i_f3d_flags>
0

> <s_epik_input>
W0NIM11bQ0hdKFtDSDNdKVtDQEBIXShbQ0gyXVtPSF0pW05IXVMoPU8pKD1PKVtDSDJdYzFbY0hdW2NIXW9uMQ==

> <s_epik_cmdline>
J2VwaWtfcHl0aG9uJywgJy1waCcsICc3LjAnLCAnLXRuJywgJzgnLCAnLW1hJywgJzIwMCcsICctbWV0YWxfYmluZGluZycsICctaW1hZScsICc8aW5maWxlLm1hZT4nLCAnLW9tYWUnLCAnPG91dGZpbGUubWFlPic=

> <r_lp_tautomer_probability>
1

> <r_epik_Ionization_Penalty>
0.000193122

> <r_epik_Ionization_Penalty_Charging>
0

> <r_epik_Ionization_Penalty_Neutral>
0.000193122

> <r_epik_State_Penalty>
-0

> <r_epik_Charging_Adjusted_Penalty>
0

> <i_epik_Tot_Q>
0

> <i_epik_Tot_abs_Q>
0

> <r_epik_Metal_State_Penalty>
0.130256

> <b_epik_Metal_Only>
0

> <s_lp_Force_Field>
OPLS_2005

> <r_lp_Energy>
6.6882

> <b_lp_Chiralities_Consistent>
1

> <s_lp_Variant>
AV-unprocessed.smi:2926-1

> <Gold.Version>
5.8.1

> <Gold.Id.Protein>
6NUR|6NUR_protein|mol2

> <Gold.PLP.Fitness>
38.3952

> <Gold.PLP.PLP>
-30.2378

> <Gold.PLP.part.hbond>
-6.5483

> <Gold.PLP.part.metal>
0.0000

> <Gold.PLP.part.buried>
-0.9299

> <Gold.PLP.part.nonpolar>
-23.1579

> <Gold.PLP.part.repulsive>
1.0701

> <Gold.PLP.ligand.clash>
0.0000

> <Gold.PLP.ligand.torsion>
0.9259

> <Gold.PLP.Chemscore.Hbond>
3.2695

> <Gold.PLP.Chemscore.CHOScore>
0.0000

> <Gold.PLP.Chemscore.Metal>
0.0000

> <Gold.Chemscore.Hbonds>
donor molecule, donor type, donor heavy atom, donor atom, acceptor molecule, acceptor atom, score
      L1  H     6    27       P1  7957  1.00
      L1  H     7    28       P1  7948  1.00
      P1  H  7997  8010       L1    16  0.02
      P1  H 10752 10765       L1    10  0.60

> <Gold.PLP.Chemscore.Internal.Correction>
0.2007

> <Gold.Rescore>
     Score         DG    S(hbond)    S(metal)    S(lipo)     H(rot)  DE(clash)    DE(int)     intcor
     13.12     -16.13       3.49        0.00      56.11       2.96       0.62       2.39       ----

> <Gold.Chemscore.Fitness>
13.1204

> <Gold.Chemscore.DG>
-16.1269

> <Gold.Chemscore.ZeroCoef>
-5.4800

> <Gold.Chemscore.Hbond>
3.4881

> <Gold.Chemscore.Metal>
0.0000

> <Gold.Chemscore.Lipo>
56.1125

> <Gold.Chemscore.Internal_Hbond>
0.0000

> <Gold.Chemscore.DEClash>
0.6210

> <Gold.Chemscore.DEInternal>
2.3856

> <Gold.Chemscore.Rot>
2.9564

> <Gold.Chemscore.Internal.Correction>
   9.000000E+99

> <Gold.Chemscore.Hbonds>
donor molecule, donor type, donor heavy atom, donor atom, acceptor molecule, acceptor atom, score
      L1  H     6    27       P1  7957  0.77
      L1  H     7    28       P1  7948  0.90
      P1  H 10752 10765       L1    10  0.60

> <Gold.Chemscore.Hbond.Weighted>
-11.6503

> <Gold.Chemscore.Metal.Weighted>
-0.0000

> <Gold.Chemscore.Lipo.Weighted>
-6.5652

> <Gold.Chemscore.Internal_Hbond.Weighted>
0.0000

> <Gold.Chemscore.DEClash.Weighted>
0.6210

> <Gold.Chemscore.DEInternal.Weighted>
2.3856

> <Gold.Chemscore.Rot.Weighted>
7.5685

> <Gold.Chemscore.Internal.Correction.Weighted>
   9.000000E+99

> <Gold.Protein.RotatedTorsions>
[ 6907 6896 6895 6894 ] final   13.68 input  -60.11 | X-H torsion
[ 7974 7965 7964 7962 ] final   -9.03 input  175.53 | X-H torsion
[ 8008 7997 7996 7995 ] final   83.01 input   59.86 | X-H torsion
[ 10167 10162 10161 10158 ] final -136.97 input  -65.29 | X-H torsion
[ 10718 10713 10712 10709 ] final  -85.52 input   66.30 | X-H torsion
[ 10763 10752 10751 10750 ] final  167.40 input  -60.55 | X-H torsion
[ 11005 11000 10999 10996 ] final   -4.06 input  -57.11 | X-H torsion

> <Gold.Protein.ActiveResidues>
 VAL166  LYS551  ARG553  GLY616  TRP617  ASP618  TYR619  PRO620  LYS621  CYS622 
 ASP623  PHE694  ASN695  SER759  ASP760  ASP761  ALA762  ILE779  LEU786  VAL792 
 PHE793  MET794  SER795  GLU796  ALA797  LYS798  CYS799  TRP800  GLU811  SER814 

> <Gold.Protein.RotatedAtoms>
  151.7902  135.0738  160.0385 H   0  0  0  0  0  0  0  0  0  0  0  0  # atno 6907 bound_to 6896
  152.3162  133.5800  159.5722 H   0  0  0  0  0  0  0  0  0  0  0  0  # atno 6908 bound_to 6896
  150.7345  133.9995  159.3675 H   0  0  0  0  0  0  0  0  0  0  0  0  # atno 6909 bound_to 6896
  146.2263  140.2556  142.8349 H   0  0  0  0  0  0  0  0  0  0  0  0  # atno 7974 bound_to 7965
  155.9183  140.3423  155.6152 H   0  0  0  0  0  0  0  0  0  0  0  0  # atno 8008 bound_to 7997
  155.7305  140.0795  157.2310 H   0  0  0  0  0  0  0  0  0  0  0  0  # atno 8009 bound_to 7997
  154.4065  140.1589  156.2490 H   0  0  0  0  0  0  0  0  0  0  0  0  # atno 8010 bound_to 7997
  139.8624  143.7060  152.2648 H   0  0  0  0  0  0  0  0  0  0  0  0  # atno 10167 bound_to 10162
  155.9996  130.4734  150.4575 H   0  0  0  0  0  0  0  0  0  0  0  0  # atno 10718 bound_to 10713
  154.3533  135.2753  155.2360 H   0  0  0  0  0  0  0  0  0  0  0  0  # atno 10763 bound_to 10752
  154.4580  135.5914  153.6240 H   0  0  0  0  0  0  0  0  0  0  0  0  # atno 10764 bound_to 10752
  152.9848  135.6058  154.3746 H   0  0  0  0  0  0  0  0  0  0  0  0  # atno 10765 bound_to 10752
  140.6761  133.9194  155.8525 H   0  0  0  0  0  0  0  0  0  0  0  0  # atno 11005 bound_to 11000
  144.9378  140.8046  143.5649 LP  0  0  0  0  0  0  0  0  0  0  0  0  # atno 17320 bound_to 7965
  145.2505  139.2034  143.4945 LP  0  0  0  0  0  0  0  0  0  0  0  0  # atno 17321 bound_to 7965
  139.7361  144.7571  151.0725 LP  0  0  0  0  0  0  0  0  0  0  0  0  # atno 17342 bound_to 10162
  140.7773  143.5029  150.9749 LP  0  0  0  0  0  0  0  0  0  0  0  0  # atno 17343 bound_to 10162
  157.2602  131.0565  151.2325 LP  0  0  0  0  0  0  0  0  0  0  0  0  # atno 17370 bound_to 10713
  157.3442  130.7049  149.6400 LP  0  0  0  0  0  0  0  0  0  0  0  0  # atno 17371 bound_to 10713
  141.0354  134.0697  157.3965 LP  0  0  0  0  0  0  0  0  0  0  0  0  # atno 17394 bound_to 11000
  139.8966  135.0146  156.7060 LP  0  0  0  0  0  0  0  0  0  0  0  0  # atno 17395 bound_to 11000

$$$$
