AV-unprocessed.smi:1769|AV-procd|sdf|7151|dock10
  -GOLD-   22720 8393D 1   1.00000     0.00000
 Structure written by MMmdl.
 41 42  0  0  0  0  0  0  0  0  1 V2000
  152.5165  143.8655  162.1198 C   0  0  0  0  0  0  0  0  0  0  0  0
  152.9355  142.6672  161.2652 C   0  0  0  0  0  0  0  0  0  0  0  0
  153.4183  141.6897  161.8371 O   0  0  0  0  0  0  0  0  0  0  0  0
  152.7612  142.7178  159.9225 N   0  0  0  0  0  0  0  0  0  0  0  0
  152.1140  143.8148  159.1915 C   0  0  0  0  0  0  0  0  0  0  0  0
  150.7448  143.3271  158.6852 C   0  0  0  0  0  0  0  0  0  0  0  0
  150.8969  142.0614  157.8198 C   0  0  0  0  0  0  0  0  0  0  0  0
  151.7407  140.9758  158.5300 C   0  0  1  0  0  0  0  0  0  0  0  0
  152.0051  139.7841  157.6003 C   0  0  0  0  0  0  0  0  0  0  0  0
  153.0615  139.1562  157.6808 O   0  0  0  0  0  0  0  0  0  0  0  0
  151.0377  139.4839  156.7199 N   0  0  0  0  0  0  0  0  0  0  0  0
  151.1003  138.4005  155.7465 C   0  0  0  0  0  0  0  0  0  0  0  0
  150.7671  138.8962  154.3303 C   0  0  0  0  0  0  0  0  0  0  0  0
  149.4804  139.6966  154.2959 C   0  0  0  0  0  0  0  0  0  0  0  0
  149.4600  141.0484  154.6960 C   0  0  0  0  0  0  0  0  0  0  0  0
  148.2419  141.7529  154.6416 C   0  0  0  0  0  0  0  0  0  0  0  0
  147.0939  141.0740  154.1864 C   0  0  0  0  0  0  0  0  0  0  0  0
  147.1020  139.7799  153.8001 N   0  0  0  0  0  0  0  0  0  0  0  0
  148.2739  139.1110  153.8566 C   0  0  0  0  0  0  0  0  0  0  0  0
  153.0669  141.5853  159.0391 C   0  0  0  0  0  0  0  0  0  0  0  0
  151.4559  144.0828  161.9890 H   0  0  0  0  0  0  0  0  0  0  0  0
  153.0963  144.7502  161.8545 H   0  0  0  0  0  0  0  0  0  0  0  0
  152.6859  143.6614  163.1778 H   0  0  0  0  0  0  0  0  0  0  0  0
  151.9908  144.7218  159.7813 H   0  0  0  0  0  0  0  0  0  0  0  0
  152.7422  144.1016  158.3469 H   0  0  0  0  0  0  0  0  0  0  0  0
  150.0970  143.1136  159.5364 H   0  0  0  0  0  0  0  0  0  0  0  0
  150.2543  144.1139  158.1115 H   0  0  0  0  0  0  0  0  0  0  0  0
  149.9117  141.6686  157.5654 H   0  0  0  0  0  0  0  0  0  0  0  0
  151.3685  142.3402  156.8760 H   0  0  0  0  0  0  0  0  0  0  0  0
  151.1774  140.6201  159.3950 H   0  0  0  0  0  0  0  0  0  0  0  0
  150.2004  140.0482  156.7225 H   0  0  0  0  0  0  0  0  0  0  0  0
  152.0871  137.9346  155.7672 H   0  0  0  0  0  0  0  0  0  0  0  0
  150.3884  137.6319  156.0488 H   0  0  0  0  0  0  0  0  0  0  0  0
  151.5807  139.5142  153.9481 H   0  0  0  0  0  0  0  0  0  0  0  0
  150.6739  138.0523  153.6452 H   0  0  0  0  0  0  0  0  0  0  0  0
  150.3606  141.5383  155.0367 H   0  0  0  0  0  0  0  0  0  0  0  0
  148.1886  142.7891  154.9406 H   0  0  0  0  0  0  0  0  0  0  0  0
  146.1438  141.5843  154.1307 H   0  0  0  0  0  0  0  0  0  0  0  0
  148.2478  138.0789  153.5387 H   0  0  0  0  0  0  0  0  0  0  0  0
  153.6731  141.9403  158.2038 H   0  0  0  0  0  0  0  0  0  0  0  0
  153.6689  140.8214  159.5342 H   0  0  0  0  0  0  0  0  0  0  0  0
  1  2  1  0  0  0  0
  1 21  1  0  0  0  0
  1 22  1  0  0  0  0
  1 23  1  0  0  0  0
  2  3  2  0  0  0  0
  2  4  1  0  0  0  0
  4 20  1  0  0  0  0
  4  5  1  0  0  0  0
  5  6  1  0  0  0  0
  5 24  1  0  0  0  0
  5 25  1  0  0  0  0
  6  7  1  0  0  0  0
  6 26  1  0  0  0  0
  6 27  1  0  0  0  0
  7  8  1  0  0  0  0
  7 28  1  0  0  0  0
  7 29  1  0  0  0  0
  8  9  1  0  0  0  0
  8 20  1  0  0  0  0
  8 30  1  0  0  0  0
  9 10  2  0  0  0  0
  9 11  1  0  0  0  0
 11 12  1  0  0  0  0
 11 31  1  0  0  0  0
 12 13  1  0  0  0  0
 12 32  1  0  0  0  0
 12 33  1  0  0  0  0
 13 14  1  0  0  0  0
 13 34  1  0  0  0  0
 13 35  1  0  0  0  0
 14 19  1  0  0  0  0
 14 15  2  0  0  0  0
 15 16  1  0  0  0  0
 15 36  1  0  0  0  0
 16 17  2  0  0  0  0
 16 37  1  0  0  0  0
 17 18  1  0  0  0  0
 17 38  1  0  0  0  0
 18 19  2  0  0  0  0
 19 39  1  0  0  0  0
 20 40  1  0  0  0  0
 20 41  1  0  0  0  0
M  END
> <s_m_source_file>
AV-unprocessed.smi

> <i_m_source_file_index>
1769

> <i_lp_mmshare_version>
43012

> <i_f3d_flags>
0

> <s_epik_input>
W0NIM11DKD1PKU4xW0NIMl1bQ0gyXVtDSDJdW0NASF0oW0NIMl0xKUMoPU8pW05IXVtDSDJdW0NIMl1jMltjSF1bY0hdW2NIXW5bY0hdMg==

> <s_epik_cmdline>
J2VwaWtfcHl0aG9uJywgJy1waCcsICc3LjAnLCAnLXRuJywgJzgnLCAnLW1hJywgJzIwMCcsICctbWV0YWxfYmluZGluZycsICctaW1hZScsICc8aW5maWxlLm1hZT4nLCAnLW9tYWUnLCAnPG91dGZpbGUubWFlPic=

> <r_epik_Ionization_Penalty>
0.0134099

> <r_epik_Ionization_Penalty_Charging>
0

> <r_epik_Ionization_Penalty_Neutral>
0.0134099

> <r_epik_State_Penalty>
0.010434

> <r_epik_Charging_Adjusted_Penalty>
0.010434

> <i_epik_Tot_Q>
0

> <i_epik_Tot_abs_Q>
0

> <r_epik_Metal_State_Penalty>
0.0102025

> <b_epik_Metal_Only>
0

> <s_lp_Force_Field>
OPLS_2005

> <r_lp_Energy>
22.5889

> <b_lp_Chiralities_Consistent>
1

> <s_lp_Variant>
AV-unprocessed.smi:1769-1

> <Gold.Version>
5.8.1

> <Gold.Id.Protein>
6NUR|6NUR_protein|mol2

> <Gold.PLP.Fitness>
46.6826

> <Gold.PLP.PLP>
-42.7441

> <Gold.PLP.part.hbond>
-1.0000

> <Gold.PLP.part.metal>
0.0000

> <Gold.PLP.part.buried>
-3.6676

> <Gold.PLP.part.nonpolar>
-37.6707

> <Gold.PLP.part.repulsive>
0.2503

> <Gold.PLP.ligand.clash>
0.0000

> <Gold.PLP.ligand.torsion>
1.0431

> <Gold.PLP.Chemscore.Hbond>
1.0000

> <Gold.PLP.Chemscore.CHOScore>
1.0000

> <Gold.PLP.Chemscore.Metal>
0.0000

> <Gold.Chemscore.Hbonds>
donor molecule, donor type, donor heavy atom, donor atom, acceptor molecule, acceptor atom, score
      P1  H  7997  8010       L1    10  1.00
      L1  C    19    39       P1  7948  0.88

> <Gold.PLP.Chemscore.Internal.Correction>
0.0245

> <Gold.Rescore>
     Score         DG    S(hbond)    S(metal)    S(lipo)     H(rot)  DE(clash)    DE(int)     intcor
     16.06     -17.23       1.00        0.00     105.30       1.52       0.11       1.06       ----

> <Gold.Chemscore.Fitness>
16.0603

> <Gold.Chemscore.DG>
-17.2311

> <Gold.Chemscore.ZeroCoef>
-5.4800

> <Gold.Chemscore.Hbond>
0.9951

> <Gold.Chemscore.Metal>
0.0000

> <Gold.Chemscore.Lipo>
105.2992

> <Gold.Chemscore.Internal_Hbond>
0.0000

> <Gold.Chemscore.DEClash>
0.1123

> <Gold.Chemscore.DEInternal>
1.0586

> <Gold.Chemscore.Rot>
1.5205

> <Gold.Chemscore.Internal.Correction>
   9.000000E+99

> <Gold.Chemscore.Hbonds>
donor molecule, donor type, donor heavy atom, donor atom, acceptor molecule, acceptor atom, score
      P1  H  7997  8010       L1    10  0.91

> <Gold.Chemscore.Hbond.Weighted>
-3.3237

> <Gold.Chemscore.Metal.Weighted>
-0.0000

> <Gold.Chemscore.Lipo.Weighted>
-12.3200

> <Gold.Chemscore.Internal_Hbond.Weighted>
0.0000

> <Gold.Chemscore.DEClash.Weighted>
0.1123

> <Gold.Chemscore.DEInternal.Weighted>
1.0586

> <Gold.Chemscore.Rot.Weighted>
3.8926

> <Gold.Chemscore.Internal.Correction.Weighted>
   9.000000E+99

> <Gold.Protein.RotatedTorsions>
[ 6907 6896 6895 6894 ] final   65.14 input  -60.11 | X-H torsion
[ 7974 7965 7964 7962 ] final  119.08 input  175.53 | X-H torsion
[ 8008 7997 7996 7995 ] final   39.17 input   59.86 | X-H torsion
[ 10167 10162 10161 10158 ] final   28.26 input  -65.29 | X-H torsion
[ 10718 10713 10712 10709 ] final  -12.29 input   66.30 | X-H torsion
[ 10763 10752 10751 10750 ] final  -38.20 input  -60.55 | X-H torsion
[ 11005 11000 10999 10996 ] final  -34.77 input  -57.11 | X-H torsion

> <Gold.Protein.ActiveResidues>
 VAL166  LYS551  ARG553  GLY616  TRP617  ASP618  TYR619  PRO620  LYS621  CYS622 
 ASP623  PHE694  ASN695  SER759  ASP760  ASP761  ALA762  ILE779  LEU786  VAL792 
 PHE793  MET794  SER795  GLU796  ALA797  LYS798  CYS799  TRP800  GLU811  SER814 

> <Gold.Protein.RotatedAtoms>
  152.4385  134.5638  159.9901 H   0  0  0  0  0  0  0  0  0  0  0  0  # atno 6907 bound_to 6896
  151.5742  133.3380  159.3003 H   0  0  0  0  0  0  0  0  0  0  0  0  # atno 6908 bound_to 6896
  150.8287  134.7565  159.6899 H   0  0  0  0  0  0  0  0  0  0  0  0  # atno 6909 bound_to 6896
  145.1474  139.3231  143.4584 H   0  0  0  0  0  0  0  0  0  0  0  0  # atno 7974 bound_to 7965
  155.2322  140.3339  155.4302 H   0  0  0  0  0  0  0  0  0  0  0  0  # atno 8008 bound_to 7997
  156.2290  140.1842  156.7336 H   0  0  0  0  0  0  0  0  0  0  0  0  # atno 8009 bound_to 7997
  154.5947  140.0632  156.9272 H   0  0  0  0  0  0  0  0  0  0  0  0  # atno 8010 bound_to 7997
  140.4868  144.0530  150.6283 H   0  0  0  0  0  0  0  0  0  0  0  0  # atno 10167 bound_to 10162
  156.6468  130.4943  149.6076 H   0  0  0  0  0  0  0  0  0  0  0  0  # atno 10718 bound_to 10713
  153.9089  135.6794  153.4752 H   0  0  0  0  0  0  0  0  0  0  0  0  # atno 10763 bound_to 10752
  153.1089  135.4792  154.8998 H   0  0  0  0  0  0  0  0  0  0  0  0  # atno 10764 bound_to 10752
  154.7537  135.3191  154.8464 H   0  0  0  0  0  0  0  0  0  0  0  0  # atno 10765 bound_to 10752
  140.9743  133.7092  156.1576 H   0  0  0  0  0  0  0  0  0  0  0  0  # atno 11005 bound_to 11000
  146.3498  140.1535  142.8592 LP  0  0  0  0  0  0  0  0  0  0  0  0  # atno 17320 bound_to 7965
  145.0467  140.8986  143.5020 LP  0  0  0  0  0  0  0  0  0  0  0  0  # atno 17321 bound_to 7965
  140.3788  143.2814  152.0194 LP  0  0  0  0  0  0  0  0  0  0  0  0  # atno 17342 bound_to 10162
  139.4843  144.6171  151.7325 LP  0  0  0  0  0  0  0  0  0  0  0  0  # atno 17343 bound_to 10162
  156.2116  130.6682  151.1275 LP  0  0  0  0  0  0  0  0  0  0  0  0  # atno 17370 bound_to 10713
  157.7154  131.0712  150.6348 LP  0  0  0  0  0  0  0  0  0  0  0  0  # atno 17371 bound_to 10713
  140.7282  134.4283  157.5568 LP  0  0  0  0  0  0  0  0  0  0  0  0  # atno 17394 bound_to 11000
  139.8924  134.8755  156.2271 LP  0  0  0  0  0  0  0  0  0  0  0  0  # atno 17395 bound_to 11000

$$$$
