AV-unprocessed.smi:2591|AV-procd|sdf|10156|dock10
  -GOLD-   2272014173D 1   1.00000     0.00000
 Structure written by MMmdl.
 35 36  0  0  0  0  0  0  0  0  2 V2000
  146.5987  138.6527  153.1740 C   0  0  0  0  0  0  0  0  0  0  0  0
  147.8350  138.1823  153.8345 N   0  3  2  0  0  0  0  0  0  0  0  0
  147.5896  137.0752  154.7857 C   0  0  0  0  0  0  0  0  0  0  0  0
  148.9153  136.6014  155.4024 C   0  0  0  0  0  0  0  0  0  0  0  0
  149.5665  137.6966  156.0347 O   0  0  0  0  0  0  0  0  0  0  0  0
  149.8907  138.7427  155.1215 C   0  0  2  0  0  0  0  0  0  0  0  0
  150.6786  139.8173  155.8840 C   0  0  0  0  0  0  0  0  0  0  0  0
  150.9082  140.9077  155.3591 O   0  0  0  0  0  0  0  0  0  0  0  0
  151.0930  139.4634  157.1157 N   0  0  0  0  0  0  0  0  0  0  0  0
  151.8309  140.2345  158.0526 C   0  0  0  0  0  0  0  0  0  0  0  0
  151.4624  141.5962  158.1282 C   0  0  0  0  0  0  0  0  0  0  0  0
  152.1335  142.4537  159.0270 C   0  0  0  0  0  0  0  0  0  0  0  0
  151.7483  143.9206  159.1427 C   0  0  0  0  0  0  0  0  0  0  0  0
  150.4308  144.0539  159.2989 F   0  0  0  0  0  0  0  0  0  0  0  0
  152.3533  144.4903  160.1856 F   0  0  0  0  0  0  0  0  0  0  0  0
  152.1164  144.5584  158.0323 F   0  0  0  0  0  0  0  0  0  0  0  0
  153.1559  141.9103  159.8307 C   0  0  0  0  0  0  0  0  0  0  0  0
  153.4614  140.5445  159.6911 C   0  0  0  0  0  0  0  0  0  0  0  0
  152.8207  139.7287  158.8286 N   0  0  0  0  0  0  0  0  0  0  0  0
  148.5869  139.2796  154.4851 C   0  0  0  0  0  0  0  0  0  0  0  0
  145.9027  139.0752  153.8999 H   0  0  0  0  0  0  0  0  0  0  0  0
  146.1002  137.8303  152.6600 H   0  0  0  0  0  0  0  0  0  0  0  0
  146.8272  139.4193  152.4329 H   0  0  0  0  0  0  0  0  0  0  0  0
  146.9106  137.4100  155.5716 H   0  0  0  0  0  0  0  0  0  0  0  0
  147.1021  136.2464  154.2708 H   0  0  0  0  0  0  0  0  0  0  0  0
  148.7280  135.8263  156.1456 H   0  0  0  0  0  0  0  0  0  0  0  0
  149.5658  136.1643  154.6432 H   0  0  0  0  0  0  0  0  0  0  0  0
  150.5442  138.3481  154.3409 H   0  0  0  0  0  0  0  0  0  0  0  0
  150.8494  138.5316  157.4179 H   0  0  0  0  0  0  0  0  0  0  0  0
  150.6674  141.9805  157.5054 H   0  0  0  0  0  0  0  0  0  0  0  0
  153.6942  142.5208  160.5405 H   0  0  0  0  0  0  0  0  0  0  0  0
  154.2393  140.0935  160.2892 H   0  0  0  0  0  0  0  0  0  0  0  0
  148.8182  140.0449  153.7424 H   0  0  0  0  0  0  0  0  0  0  0  0
  147.9553  139.7466  155.2437 H   0  0  0  0  0  0  0  0  0  0  0  0
  148.4301  137.8132  153.1064 H   0  0  0  0  0  0  0  0  0  0  0  0
  1  2  1  0  0  0  0
  1 21  1  0  0  0  0
  1 22  1  0  0  0  0
  1 23  1  0  0  0  0
  2 20  1  0  0  0  0
  2  3  1  0  0  0  0
  2 35  1  0  0  0  0
  3  4  1  0  0  0  0
  3 24  1  0  0  0  0
  3 25  1  0  0  0  0
  4  5  1  0  0  0  0
  4 26  1  0  0  0  0
  4 27  1  0  0  0  0
  5  6  1  0  0  0  0
  6  7  1  0  0  0  0
  6 20  1  0  0  0  0
  6 28  1  0  0  0  0
  7  8  2  0  0  0  0
  7  9  1  0  0  0  0
  9 10  1  0  0  0  0
  9 29  1  0  0  0  0
 10 19  1  0  0  0  0
 10 11  2  0  0  0  0
 11 12  1  0  0  0  0
 11 30  1  0  0  0  0
 12 13  1  0  0  0  0
 12 17  2  0  0  0  0
 13 14  1  0  0  0  0
 13 15  1  0  0  0  0
 13 16  1  0  0  0  0
 17 18  1  0  0  0  0
 17 31  1  0  0  0  0
 18 19  2  0  0  0  0
 18 32  1  0  0  0  0
 20 33  1  0  0  0  0
 20 34  1  0  0  0  0
M  CHG  1   2   1
M  END
> <s_m_source_file>
AV-unprocessed.smi

> <i_m_source_file_index>
2591

> <i_lp_mmshare_version>
43012

> <i_f3d_flags>
0

> <s_epik_input>
W0NIM11OMVtDSDJdW0NIMl1PW0NASF0oW0NIMl0xKUMoPU8pW05IXWMyW2NIXWMoQyhGKShGKUYpW2NIXVtjSF1uMg==

> <s_epik_cmdline>
J2VwaWtfcHl0aG9uJywgJy1waCcsICc3LjAnLCAnLXRuJywgJzgnLCAnLW1hJywgJzIwMCcsICctbWV0YWxfYmluZGluZycsICctaW1hZScsICc8aW5maWxlLm1hZT4nLCAnLW9tYWUnLCAnPG91dGZpbGUubWFlPic=

> <r_epik_Ionization_Penalty>
0.314028

> <r_epik_Ionization_Penalty_Charging>
0.314023

> <r_epik_Ionization_Penalty_Neutral>
5.2303e-06

> <r_epik_State_Penalty>
0.308208

> <r_epik_Charging_Adjusted_Penalty>
0.62223

> <i_epik_Tot_Q>
1

> <i_epik_Tot_abs_Q>
1

> <r_epik_Metal_State_Penalty>
0.308209

> <b_epik_Metal_Only>
0

> <s_lp_Force_Field>
OPLS_2005

> <r_lp_Energy>
17.9232

> <b_lp_Chiralities_Consistent>
1

> <s_lp_Variant>
AV-unprocessed.smi:2591-4

> <Gold.Version>
5.8.1

> <Gold.Id.Protein>
6NUR|6NUR_protein|mol2

> <Gold.PLP.Fitness>
44.7222

> <Gold.PLP.PLP>
-37.8421

> <Gold.PLP.part.hbond>
-2.0000

> <Gold.PLP.part.metal>
0.0000

> <Gold.PLP.part.buried>
-5.1227

> <Gold.PLP.part.nonpolar>
-31.7449

> <Gold.PLP.part.repulsive>
0.1185

> <Gold.PLP.ligand.clash>
0.9000

> <Gold.PLP.ligand.torsion>
0.7903

> <Gold.PLP.Chemscore.Hbond>
2.7840

> <Gold.PLP.Chemscore.CHOScore>
0.0000

> <Gold.PLP.Chemscore.Metal>
0.0000

> <Gold.Chemscore.Hbonds>
donor molecule, donor type, donor heavy atom, donor atom, acceptor molecule, acceptor atom, score
      L1  H     2    35       P1  7948  1.82
      P1  H  7989  7998       L1     8  0.75

> <Gold.PLP.Chemscore.Internal.Correction>
1.0088

> <Gold.Rescore>
     Score         DG    S(hbond)    S(metal)    S(lipo)     H(rot)  DE(clash)    DE(int)     intcor
     15.15     -17.54       1.90        0.00      70.56       1.00       0.21       2.17       ----

> <Gold.Chemscore.Fitness>
15.1532

> <Gold.Chemscore.DG>
-17.5354

> <Gold.Chemscore.ZeroCoef>
-5.4800

> <Gold.Chemscore.Hbond>
1.9041

> <Gold.Chemscore.Metal>
0.0000

> <Gold.Chemscore.Lipo>
70.5628

> <Gold.Chemscore.Internal_Hbond>
0.0000

> <Gold.Chemscore.DEClash>
0.2072

> <Gold.Chemscore.DEInternal>
2.1749

> <Gold.Chemscore.Rot>
1.0000

> <Gold.Chemscore.Internal.Correction>
   9.000000E+99

> <Gold.Chemscore.Hbonds>
donor molecule, donor type, donor heavy atom, donor atom, acceptor molecule, acceptor atom, score
      L1  H     2    35       P1  7948  0.84
      P1  H  7989  7998       L1     8  0.69

> <Gold.Chemscore.Hbond.Weighted>
-6.3596

> <Gold.Chemscore.Metal.Weighted>
-0.0000

> <Gold.Chemscore.Lipo.Weighted>
-8.2559

> <Gold.Chemscore.Internal_Hbond.Weighted>
0.0000

> <Gold.Chemscore.DEClash.Weighted>
0.2072

> <Gold.Chemscore.DEInternal.Weighted>
2.1749

> <Gold.Chemscore.Rot.Weighted>
2.5600

> <Gold.Chemscore.Internal.Correction.Weighted>
   9.000000E+99

> <Gold.Protein.RotatedTorsions>
[ 6907 6896 6895 6894 ] final  -51.15 input  -60.11 | X-H torsion
[ 7974 7965 7964 7962 ] final -179.69 input  175.53 | X-H torsion
[ 8008 7997 7996 7995 ] final   20.93 input   59.86 | X-H torsion
[ 10167 10162 10161 10158 ] final  117.45 input  -65.29 | X-H torsion
[ 10718 10713 10712 10709 ] final -148.73 input   66.30 | X-H torsion
[ 10763 10752 10751 10750 ] final   75.15 input  -60.55 | X-H torsion
[ 11005 11000 10999 10996 ] final  -69.74 input  -57.11 | X-H torsion

> <Gold.Protein.ActiveResidues>
 VAL166  LYS551  ARG553  GLY616  TRP617  ASP618  TYR619  PRO620  LYS621  CYS622 
 ASP623  PHE694  ASN695  SER759  ASP760  ASP761  ALA762  ILE779  LEU786  VAL792 
 PHE793  MET794  SER795  GLU796  ALA797  LYS798  CYS799  TRP800  GLU811  SER814 

> <Gold.Protein.RotatedAtoms>
  150.8638  134.7997  159.7103 H   0  0  0  0  0  0  0  0  0  0  0  0  # atno 6907 bound_to 6896
  152.4667  134.5056  159.9748 H   0  0  0  0  0  0  0  0  0  0  0  0  # atno 6908 bound_to 6896
  151.5156  133.3438  159.2928 H   0  0  0  0  0  0  0  0  0  0  0  0  # atno 6909 bound_to 6896
  144.7138  140.0680  143.6430 H   0  0  0  0  0  0  0  0  0  0  0  0  # atno 7974 bound_to 7965
  154.9430  140.3055  155.5111 H   0  0  0  0  0  0  0  0  0  0  0  0  # atno 8008 bound_to 7997
  156.2994  140.2333  156.4438 H   0  0  0  0  0  0  0  0  0  0  0  0  # atno 8009 bound_to 7997
  154.8127  140.0427  157.1343 H   0  0  0  0  0  0  0  0  0  0  0  0  # atno 8010 bound_to 7997
  139.6178  144.7095  151.2701 H   0  0  0  0  0  0  0  0  0  0  0  0  # atno 10167 bound_to 10162
  156.4240  130.8043  151.2267 H   0  0  0  0  0  0  0  0  0  0  0  0  # atno 10718 bound_to 10713
  153.0635  135.4999  154.8148 H   0  0  0  0  0  0  0  0  0  0  0  0  # atno 10763 bound_to 10752
  154.6919  135.2986  154.9470 H   0  0  0  0  0  0  0  0  0  0  0  0  # atno 10764 bound_to 10752
  154.0222  135.6740  153.4826 H   0  0  0  0  0  0  0  0  0  0  0  0  # atno 10765 bound_to 10752
  141.1560  133.6772  156.6645 H   0  0  0  0  0  0  0  0  0  0  0  0  # atno 11005 bound_to 11000
  145.9807  139.2939  143.1043 LP  0  0  0  0  0  0  0  0  0  0  0  0  # atno 17320 bound_to 7965
  145.9013  140.9241  143.0501 LP  0  0  0  0  0  0  0  0  0  0  0  0  # atno 17321 bound_to 7965
  140.7362  143.6714  150.8079 LP  0  0  0  0  0  0  0  0  0  0  0  0  # atno 17342 bound_to 10162
  140.0319  143.5434  152.2756 LP  0  0  0  0  0  0  0  0  0  0  0  0  # atno 17343 bound_to 10162
  157.7508  131.0219  150.3769 LP  0  0  0  0  0  0  0  0  0  0  0  0  # atno 17370 bound_to 10713
  156.4093  130.3931  149.6903 LP  0  0  0  0  0  0  0  0  0  0  0  0  # atno 17371 bound_to 10713
  140.3222  134.7998  157.4261 LP  0  0  0  0  0  0  0  0  0  0  0  0  # atno 17394 bound_to 11000
  140.1087  134.5374  155.8285 LP  0  0  0  0  0  0  0  0  0  0  0  0  # atno 17395 bound_to 11000

$$$$
