AV-unprocessed.smi:2923|AV-procd|sdf|11202|dock2
  -GOLD-   2272016 93D 1   1.00000     0.00000
 Structure written by MMmdl.
 47 49  0  0  0  0  0  0  0  0  2 V2000
  147.1032  129.1235  153.9179 C   0  0  0  0  0  0  0  0  0  0  0  0
  148.4710  129.4871  154.2559 N   0  0  0  0  0  0  0  0  0  0  0  0
  149.5176  128.7370  153.5783 C   0  0  0  0  0  0  0  0  0  0  0  0
  148.6870  130.8717  154.2327 C   0  0  0  0  0  0  0  0  0  0  0  0
  149.0006  131.5838  155.4087 C   0  0  0  0  0  0  0  0  0  0  0  0
  149.2043  132.9772  155.3399 C   0  0  0  0  0  0  0  0  0  0  0  0
  149.1011  133.6407  154.0981 C   0  0  0  0  0  0  0  0  0  0  0  0
  149.2962  135.0481  154.0813 N   0  0  0  0  0  0  0  0  0  0  0  0
  149.5235  135.8736  155.1174 C   0  0  0  0  0  0  0  0  0  0  0  0
  149.5695  135.5369  156.3002 O   0  0  0  0  0  0  0  0  0  0  0  0
  149.6836  137.1370  154.7026 N   0  0  0  0  0  0  0  0  0  0  0  0
  149.9210  138.2820  155.5881 C   0  0  2  0  0  0  0  0  0  0  0  0
  148.9858  139.4567  155.2893 C   0  0  2  0  0  0  0  0  0  0  0  0
  147.7030  139.6377  154.5617 C   0  0  0  0  0  0  0  0  0  0  0  0
  148.0661  140.9743  153.8594 C   0  0  0  0  0  0  0  0  0  0  0  0
  149.4852  141.1731  154.0876 O   0  0  0  0  0  0  0  0  0  0  0  0
  149.9934  139.8619  154.2330 C   0  0  1  0  0  0  0  0  0  0  0  0
  151.0830  139.2599  155.1483 C   0  0  0  0  0  0  0  0  0  0  0  0
  151.6772  140.1804  156.2300 C   0  0  0  0  0  0  0  0  0  0  0  0
  152.2835  138.6419  154.4226 C   0  0  0  0  0  0  0  0  0  0  0  0
  148.7744  132.8757  152.9513 C   0  0  0  0  0  0  0  0  0  0  0  0
  148.5856  131.5427  153.0609 N   0  3  0  0  0  0  0  0  0  0  0  0
  146.3899  129.7160  154.4925 H   0  0  0  0  0  0  0  0  0  0  0  0
  146.9258  128.0720  154.1448 H   0  0  0  0  0  0  0  0  0  0  0  0
  146.9071  129.2812  152.8565 H   0  0  0  0  0  0  0  0  0  0  0  0
  150.5050  129.0679  153.9024 H   0  0  0  0  0  0  0  0  0  0  0  0
  149.4499  128.8589  152.4967 H   0  0  0  0  0  0  0  0  0  0  0  0
  149.4277  127.6749  153.8079 H   0  0  0  0  0  0  0  0  0  0  0  0
  149.0833  131.0700  156.3555 H   0  0  0  0  0  0  0  0  0  0  0  0
  149.4423  133.5294  156.2375 H   0  0  0  0  0  0  0  0  0  0  0  0
  149.2102  135.4876  153.1765 H   0  0  0  0  0  0  0  0  0  0  0  0
  149.6290  137.3290  153.7132 H   0  0  0  0  0  0  0  0  0  0  0  0
  149.9493  138.0236  156.6481 H   0  0  0  0  0  0  0  0  0  0  0  0
  148.9884  140.1240  156.1545 H   0  0  0  0  0  0  0  0  0  0  0  0
  147.5162  138.8363  153.8457 H   0  0  0  0  0  0  0  0  0  0  0  0
  146.8452  139.7323  155.2279 H   0  0  0  0  0  0  0  0  0  0  0  0
  147.8572  140.9194  152.7904 H   0  0  0  0  0  0  0  0  0  0  0  0
  147.5081  141.8160  154.2703 H   0  0  0  0  0  0  0  0  0  0  0  0
  149.8997  139.3118  153.2909 H   0  0  0  0  0  0  0  0  0  0  0  0
  152.2299  141.0073  155.7830 H   0  0  0  0  0  0  0  0  0  0  0  0
  152.3692  139.6376  156.8746 H   0  0  0  0  0  0  0  0  0  0  0  0
  150.9291  140.6224  156.8855 H   0  0  0  0  0  0  0  0  0  0  0  0
  152.9737  139.4066  154.0651 H   0  0  0  0  0  0  0  0  0  0  0  0
  151.9812  138.0616  153.5509 H   0  0  0  0  0  0  0  0  0  0  0  0
  152.8431  137.9736  155.0776 H   0  0  0  0  0  0  0  0  0  0  0  0
  148.6423  133.2708  151.9556 H   0  0  0  0  0  0  0  0  0  0  0  0
  148.3509  131.0174  152.2185 H   0  0  0  0  0  0  0  0  0  0  0  0
  1  2  1  0  0  0  0
  1 23  1  0  0  0  0
  1 24  1  0  0  0  0
  1 25  1  0  0  0  0
  2  3  1  0  0  0  0
  2  4  1  0  0  0  0
  3 26  1  0  0  0  0
  3 27  1  0  0  0  0
  3 28  1  0  0  0  0
  4 22  1  0  0  0  0
  4  5  2  0  0  0  0
  5  6  1  0  0  0  0
  5 29  1  0  0  0  0
  6  7  2  0  0  0  0
  6 30  1  0  0  0  0
  7  8  1  0  0  0  0
  7 21  1  0  0  0  0
  8  9  1  0  0  0  0
  8 31  1  0  0  0  0
  9 10  2  0  0  0  0
  9 11  1  0  0  0  0
 11 12  1  0  0  0  0
 11 32  1  0  0  0  0
 12 18  1  0  0  0  0
 12 13  1  0  0  0  0
 12 33  1  0  0  0  0
 13 17  1  0  0  0  0
 13 14  1  0  0  0  0
 13 34  1  0  0  0  0
 14 15  1  0  0  0  0
 14 35  1  0  0  0  0
 14 36  1  0  0  0  0
 15 16  1  0  0  0  0
 15 37  1  0  0  0  0
 15 38  1  0  0  0  0
 16 17  1  0  0  0  0
 17 18  1  0  0  0  0
 17 39  1  0  0  0  0
 18 19  1  0  0  0  0
 18 20  1  0  0  0  0
 19 40  1  0  0  0  0
 19 41  1  0  0  0  0
 19 42  1  0  0  0  0
 20 43  1  0  0  0  0
 20 44  1  0  0  0  0
 20 45  1  0  0  0  0
 21 22  2  0  0  0  0
 21 46  1  0  0  0  0
 22 47  1  0  0  0  0
M  CHG  1  22   1
M  END
> <s_m_source_file>
AV-unprocessed.smi

> <i_m_source_file_index>
2923

> <i_lp_mmshare_version>
43012

> <i_f3d_flags>
0

> <s_epik_input>
W0NIM11OKFtDSDNdKWMxW2NIXVtjSF1jKFtjSF1uMSlbTkhdQyg9TylbTkhdW0NASF0yQyhbQ0gzXSkoW0NIM10pW0NAQEhdKFtDQEhdMjMpT1tDSDJdW0NIMl0z

> <s_epik_cmdline>
J2VwaWtfcHl0aG9uJywgJy1waCcsICc3LjAnLCAnLXRuJywgJzgnLCAnLW1hJywgJzIwMCcsICctbWV0YWxfYmluZGluZycsICctaW1hZScsICc8aW5maWxlLm1hZT4nLCAnLW9tYWUnLCAnPG91dGZpbGUubWFlPic=

> <r_lp_tautomer_probability>
0.999994

> <r_epik_Ionization_Penalty>
0.252205

> <r_epik_Ionization_Penalty_Charging>
0.252185

> <r_epik_Ionization_Penalty_Neutral>
1.99479e-05

> <r_epik_State_Penalty>
0.243573

> <r_epik_Charging_Adjusted_Penalty>
0.495758

> <i_epik_Tot_Q>
1

> <i_epik_Tot_abs_Q>
1

> <r_epik_Metal_State_Penalty>
0.534372

> <b_epik_Metal_Only>
0

> <s_lp_Force_Field>
OPLS_2005

> <r_lp_Energy>
76.1272

> <b_lp_Chiralities_Consistent>
1

> <s_lp_Variant>
AV-unprocessed.smi:2923-1

> <Gold.Version>
5.8.1

> <Gold.Id.Protein>
6NUR|6NUR_protein|mol2

> <Gold.PLP.Fitness>
40.3959

> <Gold.PLP.PLP>
-32.9727

> <Gold.PLP.part.hbond>
-4.9358

> <Gold.PLP.part.metal>
0.0000

> <Gold.PLP.part.buried>
-0.2529

> <Gold.PLP.part.nonpolar>
-27.9990

> <Gold.PLP.part.repulsive>
0.2941

> <Gold.PLP.ligand.clash>
0.0000

> <Gold.PLP.ligand.torsion>
0.2377

> <Gold.PLP.Chemscore.Hbond>
2.4805

> <Gold.PLP.Chemscore.CHOScore>
0.0000

> <Gold.PLP.Chemscore.Metal>
0.0000

> <Gold.Chemscore.Hbonds>
donor molecule, donor type, donor heavy atom, donor atom, acceptor molecule, acceptor atom, score
      L1  H     8    31       P1  7948  0.91
      L1  H    11    32       P1  7948  0.39
      L1  H    22    47       P1 10747  0.76
      P1  H  8011  8017       L1    16  0.42

> <Gold.PLP.Chemscore.Internal.Correction>
0.4572

> <Gold.Rescore>
     Score         DG    S(hbond)    S(metal)    S(lipo)     H(rot)  DE(clash)    DE(int)     intcor
     15.63     -17.33       1.81        0.00      75.81       1.20       0.02       1.67       ----

> <Gold.Chemscore.Fitness>
15.6290

> <Gold.Chemscore.DG>
-17.3264

> <Gold.Chemscore.ZeroCoef>
-5.4800

> <Gold.Chemscore.Hbond>
1.8147

> <Gold.Chemscore.Metal>
0.0000

> <Gold.Chemscore.Lipo>
75.8114

> <Gold.Chemscore.Internal_Hbond>
0.0000

> <Gold.Chemscore.DEClash>
0.0234

> <Gold.Chemscore.DEInternal>
1.6739

> <Gold.Chemscore.Rot>
1.2049

> <Gold.Chemscore.Internal.Correction>
   9.000000E+99

> <Gold.Chemscore.Hbonds>
donor molecule, donor type, donor heavy atom, donor atom, acceptor molecule, acceptor atom, score
      L1  H     8    31       P1  7948  0.22
      L1  H    11    32       P1  7948  0.33
      L1  H    22    47       P1 10747  0.70
      P1  H  8011  8017       L1    16  0.06

> <Gold.Chemscore.Hbond.Weighted>
-6.0611

> <Gold.Chemscore.Metal.Weighted>
-0.0000

> <Gold.Chemscore.Lipo.Weighted>
-8.8699

> <Gold.Chemscore.Internal_Hbond.Weighted>
0.0000

> <Gold.Chemscore.DEClash.Weighted>
0.0234

> <Gold.Chemscore.DEInternal.Weighted>
1.6739

> <Gold.Chemscore.Rot.Weighted>
3.0846

> <Gold.Chemscore.Internal.Correction.Weighted>
   9.000000E+99

> <Gold.Protein.RotatedTorsions>
[ 6907 6896 6895 6894 ] final  148.85 input  -60.11 | X-H torsion
[ 7974 7965 7964 7962 ] final  109.38 input  175.53 | X-H torsion
[ 8008 7997 7996 7995 ] final  168.29 input   59.86 | X-H torsion
[ 10167 10162 10161 10158 ] final   83.57 input  -65.29 | X-H torsion
[ 10718 10713 10712 10709 ] final -102.65 input   66.30 | X-H torsion
[ 10763 10752 10751 10750 ] final  -44.72 input  -60.55 | X-H torsion
[ 11005 11000 10999 10996 ] final  152.39 input  -57.11 | X-H torsion

> <Gold.Protein.ActiveResidues>
 VAL166  LYS551  ARG553  GLY616  TRP617  ASP618  TYR619  PRO620  LYS621  CYS622 
 ASP623  PHE694  ASN695  SER759  ASP760  ASP761  ALA762  ILE779  LEU786  VAL792 
 PHE793  MET794  SER795  GLU796  ALA797  LYS798  CYS799  TRP800  GLU811  SER814 

> <Gold.Protein.RotatedAtoms>
  152.1359  133.4435  159.4742 H   0  0  0  0  0  0  0  0  0  0  0  0  # atno 6907 bound_to 6896
  150.6882  134.2364  159.4464 H   0  0  0  0  0  0  0  0  0  0  0  0  # atno 6908 bound_to 6896
  152.0252  134.9799  160.0622 H   0  0  0  0  0  0  0  0  0  0  0  0  # atno 6909 bound_to 6896
  145.2686  139.2675  143.3978 H   0  0  0  0  0  0  0  0  0  0  0  0  # atno 7974 bound_to 7965
  156.1560  140.1594  156.8692 H   0  0  0  0  0  0  0  0  0  0  0  0  # atno 8008 bound_to 7997
  154.5115  140.0800  156.8035 H   0  0  0  0  0  0  0  0  0  0  0  0  # atno 8009 bound_to 7997
  155.3802  140.3405  155.4249 H   0  0  0  0  0  0  0  0  0  0  0  0  # atno 8010 bound_to 7997
  139.9170  144.6236  150.8479 H   0  0  0  0  0  0  0  0  0  0  0  0  # atno 10167 bound_to 10162
  156.0236  130.5430  150.7139 H   0  0  0  0  0  0  0  0  0  0  0  0  # atno 10718 bound_to 10713
  154.0168  135.6674  153.4769 H   0  0  0  0  0  0  0  0  0  0  0  0  # atno 10763 bound_to 10752
  153.0597  135.5035  154.8061 H   0  0  0  0  0  0  0  0  0  0  0  0  # atno 10764 bound_to 10752
  154.6962  135.3070  154.9372 H   0  0  0  0  0  0  0  0  0  0  0  0  # atno 10765 bound_to 10752
  140.1304  134.8806  157.2195 H   0  0  0  0  0  0  0  0  0  0  0  0  # atno 11005 bound_to 11000
  146.3253  140.3122  142.8627 LP  0  0  0  0  0  0  0  0  0  0  0  0  # atno 17320 bound_to 7965
  144.9355  140.8022  143.5663 LP  0  0  0  0  0  0  0  0  0  0  0  0  # atno 17321 bound_to 7965
  140.7671  143.3324  151.2381 LP  0  0  0  0  0  0  0  0  0  0  0  0  # atno 17342 bound_to 10162
  139.6894  143.9718  152.2851 LP  0  0  0  0  0  0  0  0  0  0  0  0  # atno 17343 bound_to 10162
  157.4771  131.0899  151.0578 LP  0  0  0  0  0  0  0  0  0  0  0  0  # atno 17370 bound_to 10713
  157.1022  130.5986  149.5463 LP  0  0  0  0  0  0  0  0  0  0  0  0  # atno 17371 bound_to 10713
  140.2850  134.3306  155.7332 LP  0  0  0  0  0  0  0  0  0  0  0  0  # atno 17394 bound_to 11000
  141.2169  133.7501  156.9419 LP  0  0  0  0  0  0  0  0  0  0  0  0  # atno 17395 bound_to 11000

$$$$
