AV-unprocessed.smi:1508|AV-procd|sdf|6089|dock4
  -GOLD-   22720 6213D 1   1.00000     0.00000
 Structure written by MMmdl.
 37 38  0  0  0  0  0  0  0  0  3 V2000
  147.0730  139.3567  152.8823 C   0  0  0  0  0  0  0  0  0  0  0  0
  147.6072  140.0778  154.1303 C   0  0  0  0  0  0  0  0  0  0  0  0
  146.5111  140.6290  155.0827 C   0  0  1  0  0  0  0  0  0  0  0  0
  147.0800  141.0912  156.4502 C   0  0  0  0  0  0  0  0  0  0  0  0
  148.3476  141.8027  156.3066 N   0  0  0  0  0  0  0  0  0  0  0  0
  149.5506  141.3875  156.7282 C   0  0  0  0  0  0  0  0  0  0  0  0
  149.6713  140.2886  157.2736 O   0  0  0  0  0  0  0  0  0  0  0  0
  150.5399  142.2788  156.4971 N   0  5  0  0  0  0  0  0  0  0  0  0
  151.3348  142.6745  157.5052 C   0  0  0  0  0  0  0  0  0  0  0  0
  151.7006  141.8463  158.4967 N   0  0  0  0  0  0  0  0  0  0  0  0
  152.5221  142.4513  159.4382 N   0  0  0  0  0  0  0  0  0  0  0  0
  152.7499  143.7289  159.1347 C   0  0  0  0  0  0  0  0  0  0  0  0
  151.9781  144.3102  157.6743 S   0  0  0  0  0  0  0  0  0  0  0  0
  145.7173  141.7051  154.4189 N   0  3  0  0  0  0  0  0  0  0  0  0
  144.7468  142.4103  155.2946 C   0  0  0  0  0  0  0  0  0  0  0  0
  144.7184  143.8805  154.8533 C   0  0  0  0  0  0  0  0  0  0  0  0
  145.5282  143.9191  153.5624 C   0  0  0  0  0  0  0  0  0  0  0  0
  146.4967  142.7539  153.7265 C   0  0  0  0  0  0  0  0  0  0  0  0
  147.8978  139.0048  152.2623 H   0  0  0  0  0  0  0  0  0  0  0  0
  146.4615  140.0131  152.2651 H   0  0  0  0  0  0  0  0  0  0  0  0
  146.4693  138.4889  153.1470 H   0  0  0  0  0  0  0  0  0  0  0  0
  148.2634  139.3957  154.6704 H   0  0  0  0  0  0  0  0  0  0  0  0
  148.2625  140.8889  153.8120 H   0  0  0  0  0  0  0  0  0  0  0  0
  145.8210  139.8090  155.2887 H   0  0  0  0  0  0  0  0  0  0  0  0
  146.3411  141.6848  156.9903 H   0  0  0  0  0  0  0  0  0  0  0  0
  147.2943  140.2325  157.0857 H   0  0  0  0  0  0  0  0  0  0  0  0
  148.3103  142.7084  155.8617 H   0  0  0  0  0  0  0  0  0  0  0  0
  153.3723  144.3336  159.7769 H   0  0  0  0  0  0  0  0  0  0  0  0
  143.7656  141.9449  155.1957 H   0  0  0  0  0  0  0  0  0  0  0  0
  145.0382  142.3522  156.3445 H   0  0  0  0  0  0  0  0  0  0  0  0
  143.7042  144.2576  154.7177 H   0  0  0  0  0  0  0  0  0  0  0  0
  145.2024  144.4995  155.6101 H   0  0  0  0  0  0  0  0  0  0  0  0
  144.8739  143.7387  152.7081 H   0  0  0  0  0  0  0  0  0  0  0  0
  146.0331  144.8728  153.4051 H   0  0  0  0  0  0  0  0  0  0  0  0
  147.3394  143.0594  154.3494 H   0  0  0  0  0  0  0  0  0  0  0  0
  146.8846  142.4101  152.7672 H   0  0  0  0  0  0  0  0  0  0  0  0
  145.1672  141.2571  153.6999 H   0  0  0  0  0  0  0  0  0  0  0  0
  1  2  1  0  0  0  0
  1 19  1  0  0  0  0
  1 20  1  0  0  0  0
  1 21  1  0  0  0  0
  2  3  1  0  0  0  0
  2 22  1  0  0  0  0
  2 23  1  0  0  0  0
  3  4  1  0  0  0  0
  3 14  1  0  0  0  0
  3 24  1  0  0  0  0
  4  5  1  0  0  0  0
  4 25  1  0  0  0  0
  4 26  1  0  0  0  0
  5  6  1  0  0  0  0
  5 27  1  0  0  0  0
  6  7  2  0  0  0  0
  6  8  1  0  0  0  0
  8  9  1  0  0  0  0
  9 13  1  0  0  0  0
  9 10  2  0  0  0  0
 10 11  1  0  0  0  0
 11 12  2  0  0  0  0
 12 13  1  0  0  0  0
 12 28  1  0  0  0  0
 14 18  1  0  0  0  0
 14 15  1  0  0  0  0
 14 37  1  0  0  0  0
 15 16  1  0  0  0  0
 15 29  1  0  0  0  0
 15 30  1  0  0  0  0
 16 17  1  0  0  0  0
 16 31  1  0  0  0  0
 16 32  1  0  0  0  0
 17 18  1  0  0  0  0
 17 33  1  0  0  0  0
 17 34  1  0  0  0  0
 18 35  1  0  0  0  0
 18 36  1  0  0  0  0
M  CHG  1   8  -1
M  CHG  1  14   1
M  END
> <s_m_source_file>
AV-unprocessed.smi

> <i_m_source_file_index>
1508

> <i_lp_mmshare_version>
43012

> <i_f3d_flags>
0

> <s_epik_input>
W0NIMl0xW0NIMl1bQ0gyXVtDSDJdTjFbQ0BIXShbQ0gyXVtDSDNdKVtDSDJdW05IXUMoPU8pW05IXWMybm5bY0hdczI=

> <s_epik_cmdline>
J2VwaWtfcHl0aG9uJywgJy1waCcsICc3LjAnLCAnLXRuJywgJzgnLCAnLW1hJywgJzIwMCcsICctbWV0YWxfYmluZGluZycsICctaW1hZScsICc8aW5maWxlLm1hZT4nLCAnLW9tYWUnLCAnPG91dGZpbGUubWFlPic=

> <r_lp_tautomer_probability>
1

> <r_epik_Ionization_Penalty>
3.98086

> <r_epik_Ionization_Penalty_Charging>
3.94833

> <r_epik_Ionization_Penalty_Neutral>
0.032525

> <r_epik_State_Penalty>
3.94643

> <r_epik_Charging_Adjusted_Penalty>
7.89477

> <i_epik_Tot_Q>
0

> <i_epik_Tot_abs_Q>
2

> <r_epik_Metal_State_Penalty>
0.605555

> <b_epik_Metal_Only>
1

> <s_lp_Force_Field>
OPLS_2005

> <r_lp_Energy>
25.5937

> <b_lp_Chiralities_Consistent>
1

> <s_lp_Variant>
AV-unprocessed.smi:1508-4

> <Gold.Version>
5.8.1

> <Gold.Id.Protein>
6NUR|6NUR_protein|mol2

> <Gold.PLP.Fitness>
37.8627

> <Gold.PLP.PLP>
-31.1936

> <Gold.PLP.part.hbond>
-2.0000

> <Gold.PLP.part.metal>
0.0000

> <Gold.PLP.part.buried>
-6.2508

> <Gold.PLP.part.nonpolar>
-23.7314

> <Gold.PLP.part.repulsive>
1.0636

> <Gold.PLP.ligand.clash>
0.0000

> <Gold.PLP.ligand.torsion>
1.2034

> <Gold.PLP.Chemscore.Hbond>
2.9738

> <Gold.PLP.Chemscore.CHOScore>
0.0000

> <Gold.PLP.Chemscore.Metal>
0.0000

> <Gold.Chemscore.Hbonds>
donor molecule, donor type, donor heavy atom, donor atom, acceptor molecule, acceptor atom, score
      L1  H     5    27       P1  8028  0.84
      L1  H    14    37       P1 10175  1.85

> <Gold.PLP.Chemscore.Internal.Correction>
0.1546

> <Gold.Rescore>
     Score         DG    S(hbond)    S(metal)    S(lipo)     H(rot)  DE(clash)    DE(int)     intcor
     10.70     -13.70       1.55        0.00      66.47       1.86       0.32       2.68       ----

> <Gold.Chemscore.Fitness>
10.7047

> <Gold.Chemscore.DG>
-13.6950

> <Gold.Chemscore.ZeroCoef>
-5.4800

> <Gold.Chemscore.Hbond>
1.5548

> <Gold.Chemscore.Metal>
0.0000

> <Gold.Chemscore.Lipo>
66.4704

> <Gold.Chemscore.Internal_Hbond>
0.0000

> <Gold.Chemscore.DEClash>
0.3150

> <Gold.Chemscore.DEInternal>
2.6753

> <Gold.Chemscore.Rot>
1.8575

> <Gold.Chemscore.Internal.Correction>
   9.000000E+99

> <Gold.Chemscore.Hbonds>
donor molecule, donor type, donor heavy atom, donor atom, acceptor molecule, acceptor atom, score
      L1  H     5    27       P1  8028  0.79
      L1  H    14    37       P1 10175  0.40

> <Gold.Chemscore.Hbond.Weighted>
-5.1931

> <Gold.Chemscore.Metal.Weighted>
-0.0000

> <Gold.Chemscore.Lipo.Weighted>
-7.7770

> <Gold.Chemscore.Internal_Hbond.Weighted>
0.0000

> <Gold.Chemscore.DEClash.Weighted>
0.3150

> <Gold.Chemscore.DEInternal.Weighted>
2.6753

> <Gold.Chemscore.Rot.Weighted>
4.7551

> <Gold.Chemscore.Internal.Correction.Weighted>
   9.000000E+99

> <Gold.Protein.RotatedTorsions>
[ 6907 6896 6895 6894 ] final -138.11 input  -60.11 | X-H torsion
[ 7974 7965 7964 7962 ] final   22.25 input  175.53 | X-H torsion
[ 8008 7997 7996 7995 ] final   46.61 input   59.86 | X-H torsion
[ 10167 10162 10161 10158 ] final -131.16 input  -65.29 | X-H torsion
[ 10718 10713 10712 10709 ] final   81.87 input   66.30 | X-H torsion
[ 10763 10752 10751 10750 ] final -179.44 input  -60.55 | X-H torsion
[ 11005 11000 10999 10996 ] final   71.89 input  -57.11 | X-H torsion

> <Gold.Protein.ActiveResidues>
 VAL166  LYS551  ARG553  GLY616  TRP617  ASP618  TYR619  PRO620  LYS621  CYS622 
 ASP623  PHE694  ASN695  SER759  ASP760  ASP761  ALA762  ILE779  LEU786  VAL792 
 PHE793  MET794  SER795  GLU796  ALA797  LYS798  CYS799  TRP800  GLU811  SER814 

> <Gold.Protein.RotatedAtoms>
  151.0309  133.5791  159.2660 H   0  0  0  0  0  0  0  0  0  0  0  0  # atno 6907 bound_to 6896
  151.2873  135.0730  159.9201 H   0  0  0  0  0  0  0  0  0  0  0  0  # atno 6908 bound_to 6896
  152.5344  134.0014  159.7950 H   0  0  0  0  0  0  0  0  0  0  0  0  # atno 6909 bound_to 6896
  146.2037  139.7912  142.8742 H   0  0  0  0  0  0  0  0  0  0  0  0  # atno 7974 bound_to 7965
  155.3553  140.3415  155.4240 H   0  0  0  0  0  0  0  0  0  0  0  0  # atno 8008 bound_to 7997
  156.1742  140.1642  156.8427 H   0  0  0  0  0  0  0  0  0  0  0  0  # atno 8009 bound_to 7997
  154.5265  140.0755  156.8250 H   0  0  0  0  0  0  0  0  0  0  0  0  # atno 8010 bound_to 7997
  139.9218  143.6374  152.2552 H   0  0  0  0  0  0  0  0  0  0  0  0  # atno 10167 bound_to 10162
  157.6843  131.0023  150.2290 H   0  0  0  0  0  0  0  0  0  0  0  0  # atno 10718 bound_to 10713
  154.5350  135.2802  155.1146 H   0  0  0  0  0  0  0  0  0  0  0  0  # atno 10763 bound_to 10752
  154.2651  135.6314  153.5293 H   0  0  0  0  0  0  0  0  0  0  0  0  # atno 10764 bound_to 10752
  152.9965  135.5615  154.5874 H   0  0  0  0  0  0  0  0  0  0  0  0  # atno 10765 bound_to 10752
  139.9519  134.7211  156.0842 H   0  0  0  0  0  0  0  0  0  0  0  0  # atno 11005 bound_to 11000
  145.3395  141.0284  143.3400 LP  0  0  0  0  0  0  0  0  0  0  0  0  # atno 17320 bound_to 7965
  144.8742  139.4995  143.6753 LP  0  0  0  0  0  0  0  0  0  0  0  0  # atno 17321 bound_to 7965
  139.6855  144.7652  151.1531 LP  0  0  0  0  0  0  0  0  0  0  0  0  # atno 17342 bound_to 10162
  140.7660  143.5663  150.9044 LP  0  0  0  0  0  0  0  0  0  0  0  0  # atno 17343 bound_to 10162
  156.2927  130.3748  149.7826 LP  0  0  0  0  0  0  0  0  0  0  0  0  # atno 17370 bound_to 10713
  156.5481  130.8329  151.3291 LP  0  0  0  0  0  0  0  0  0  0  0  0  # atno 17371 bound_to 10713
  141.1184  133.6620  156.3152 LP  0  0  0  0  0  0  0  0  0  0  0  0  # atno 17394 bound_to 11000
  140.5698  134.5851  157.5455 LP  0  0  0  0  0  0  0  0  0  0  0  0  # atno 17395 bound_to 11000

$$$$
