AV-unprocessed.smi:3314|AV-procd|sdf|12745|dock3
  -GOLD-   2272019 83D 1   1.00000     0.00000
 Structure written by MMmdl.
 37 38  0  0  0  0  0  0  0  0  3 V2000
  151.9033  145.8384  160.1248 C   0  0  0  0  0  0  0  0  0  0  0  0
  152.0815  144.4220  159.6206 C   0  0  0  0  0  0  0  0  0  0  0  0
  152.9231  143.5152  160.2925 C   0  0  0  0  0  0  0  0  0  0  0  0
  153.0471  142.2136  159.7692 C   0  0  0  0  0  0  0  0  0  0  0  0
  153.9346  141.1906  160.4465 C   0  0  0  0  0  0  0  0  0  0  0  0
  152.3951  141.7977  158.6617 N   0  0  0  0  0  0  0  0  0  0  0  0
  151.5780  142.6589  158.0096 C   0  0  0  0  0  0  0  0  0  0  0  0
  150.9457  142.2356  156.9060 N   0  5  0  0  0  0  0  0  0  0  0  0
  150.8631  140.9095  156.6395 C   0  0  0  0  0  0  0  0  0  0  0  0
  151.2797  139.9645  157.3128 O   0  0  0  0  0  0  0  0  0  0  0  0
  150.1442  140.6445  155.2972 C   0  0  2  0  0  0  0  0  0  0  0  0
  148.8059  139.8793  155.4308 C   0  0  0  0  0  0  0  0  0  0  0  0
  149.0365  138.4706  155.8309 N   0  3  1  0  0  0  0  0  0  0  0  0
  147.7794  137.7228  156.0418 C   0  0  0  0  0  0  0  0  0  0  0  0
  149.9521  137.7968  154.8831 C   0  0  0  0  0  0  0  0  0  0  0  0
  151.2679  138.5825  154.7615 C   0  0  0  0  0  0  0  0  0  0  0  0
  150.9876  139.9302  154.3845 O   0  0  0  0  0  0  0  0  0  0  0  0
  151.4049  143.9871  158.4634 C   0  0  0  0  0  0  0  0  0  0  0  0
  152.3744  145.9747  161.0987 H   0  0  0  0  0  0  0  0  0  0  0  0
  150.8436  146.0743  160.2233 H   0  0  0  0  0  0  0  0  0  0  0  0
  152.3500  146.5456  159.4258 H   0  0  0  0  0  0  0  0  0  0  0  0
  153.4595  143.8080  161.1831 H   0  0  0  0  0  0  0  0  0  0  0  0
  154.7811  141.6757  160.9335 H   0  0  0  0  0  0  0  0  0  0  0  0
  154.3261  140.4721  159.7252 H   0  0  0  0  0  0  0  0  0  0  0  0
  153.3689  140.6455  161.2021 H   0  0  0  0  0  0  0  0  0  0  0  0
  149.9348  141.6179  154.8514 H   0  0  0  0  0  0  0  0  0  0  0  0
  148.1570  140.3706  156.1573 H   0  0  0  0  0  0  0  0  0  0  0  0
  148.2751  139.9010  154.4778 H   0  0  0  0  0  0  0  0  0  0  0  0
  147.2035  137.6565  155.1180 H   0  0  0  0  0  0  0  0  0  0  0  0
  147.1636  138.2127  156.7966 H   0  0  0  0  0  0  0  0  0  0  0  0
  147.9891  136.7105  156.3888 H   0  0  0  0  0  0  0  0  0  0  0  0
  150.1578  136.7820  155.2253 H   0  0  0  0  0  0  0  0  0  0  0  0
  149.4731  137.7164  153.9061 H   0  0  0  0  0  0  0  0  0  0  0  0
  151.8338  138.5414  155.6930 H   0  0  0  0  0  0  0  0  0  0  0  0
  151.9008  138.1320  153.9969 H   0  0  0  0  0  0  0  0  0  0  0  0
  150.7554  144.6656  157.9294 H   0  0  0  0  0  0  0  0  0  0  0  0
  149.5114  138.5018  156.7227 H   0  0  0  0  0  0  0  0  0  0  0  0
  1  2  1  0  0  0  0
  1 19  1  0  0  0  0
  1 20  1  0  0  0  0
  1 21  1  0  0  0  0
  2 18  2  0  0  0  0
  2  3  1  0  0  0  0
  3  4  2  0  0  0  0
  3 22  1  0  0  0  0
  4  5  1  0  0  0  0
  4  6  1  0  0  0  0
  5 23  1  0  0  0  0
  5 24  1  0  0  0  0
  5 25  1  0  0  0  0
  6  7  2  0  0  0  0
  7  8  1  0  0  0  0
  7 18  1  0  0  0  0
  8  9  1  0  0  0  0
  9 10  2  0  0  0  0
  9 11  1  0  0  0  0
 11 17  1  0  0  0  0
 11 12  1  0  0  0  0
 11 26  1  0  0  0  0
 12 13  1  0  0  0  0
 12 27  1  0  0  0  0
 12 28  1  0  0  0  0
 13 14  1  0  0  0  0
 13 15  1  0  0  0  0
 13 37  1  0  0  0  0
 14 29  1  0  0  0  0
 14 30  1  0  0  0  0
 14 31  1  0  0  0  0
 15 16  1  0  0  0  0
 15 32  1  0  0  0  0
 15 33  1  0  0  0  0
 16 17  1  0  0  0  0
 16 34  1  0  0  0  0
 16 35  1  0  0  0  0
 18 36  1  0  0  0  0
M  CHG  1   8  -1
M  CHG  1  13   1
M  END
> <s_m_source_file>
AV-unprocessed.smi

> <i_m_source_file_index>
3314

> <i_lp_mmshare_version>
43012

> <i_f3d_flags>
0

> <s_epik_input>
W0NIM11jMVtjSF1jKFtDSDNdKW5jKFtjSF0xKVtOSF1DKD1PKVtDQEBIXTJbQ0gyXU4oW0NIM10pW0NIMl1bQ0gyXU8y

> <s_epik_cmdline>
J2VwaWtfcHl0aG9uJywgJy1waCcsICc3LjAnLCAnLXRuJywgJzgnLCAnLW1hJywgJzIwMCcsICctbWV0YWxfYmluZGluZycsICctaW1hZScsICc8aW5maWxlLm1hZT4nLCAnLW9tYWUnLCAnPG91dGZpbGUubWFlPic=

> <r_epik_Ionization_Penalty>
13.8964

> <r_epik_Ionization_Penalty_Charging>
7.88995

> <r_epik_Ionization_Penalty_Neutral>
6.00641

> <r_epik_State_Penalty>
8.39989

> <r_epik_Charging_Adjusted_Penalty>
16.2898

> <i_epik_Tot_Q>
0

> <i_epik_Tot_abs_Q>
2

> <r_epik_Metal_State_Penalty>
4.31145

> <b_epik_Metal_Only>
1

> <s_lp_Force_Field>
OPLS_2005

> <r_lp_Energy>
7.08272

> <b_lp_Chiralities_Consistent>
1

> <s_lp_Variant>
AV-unprocessed.smi:3314-15

> <Gold.Version>
5.8.1

> <Gold.Id.Protein>
6NUR|6NUR_protein|mol2

> <Gold.PLP.Fitness>
39.9381

> <Gold.PLP.PLP>
-37.0453

> <Gold.PLP.part.hbond>
-1.0000

> <Gold.PLP.part.metal>
0.0000

> <Gold.PLP.part.buried>
-5.4173

> <Gold.PLP.part.nonpolar>
-30.8367

> <Gold.PLP.part.repulsive>
0.1940

> <Gold.PLP.ligand.clash>
0.0000

> <Gold.PLP.ligand.torsion>
0.0744

> <Gold.PLP.Chemscore.Hbond>
1.0000

> <Gold.PLP.Chemscore.CHOScore>
0.0000

> <Gold.PLP.Chemscore.Metal>
0.0000

> <Gold.Chemscore.Hbonds>
donor molecule, donor type, donor heavy atom, donor atom, acceptor molecule, acceptor atom, score
      P1  H  7989  7998       L1    17  0.78

> <Gold.PLP.Chemscore.Internal.Correction>
0.0415

> <Gold.Rescore>
     Score         DG    S(hbond)    S(metal)    S(lipo)     H(rot)  DE(clash)    DE(int)     intcor
     13.91     -16.95       0.95        0.00      92.97       1.00       0.06       2.98       ----

> <Gold.Chemscore.Fitness>
13.9125

> <Gold.Chemscore.DG>
-16.9538

> <Gold.Chemscore.ZeroCoef>
-5.4800

> <Gold.Chemscore.Hbond>
0.9451

> <Gold.Chemscore.Metal>
0.0000

> <Gold.Chemscore.Lipo>
92.9676

> <Gold.Chemscore.Internal_Hbond>
0.0000

> <Gold.Chemscore.DEClash>
0.0571

> <Gold.Chemscore.DEInternal>
2.9841

> <Gold.Chemscore.Rot>
1.0000

> <Gold.Chemscore.Internal.Correction>
   9.000000E+99

> <Gold.Chemscore.Hbonds>
donor molecule, donor type, donor heavy atom, donor atom, acceptor molecule, acceptor atom, score
      P1  H  7989  7998       L1    17  0.57

> <Gold.Chemscore.Hbond.Weighted>
-3.1565

> <Gold.Chemscore.Metal.Weighted>
-0.0000

> <Gold.Chemscore.Lipo.Weighted>
-10.8772

> <Gold.Chemscore.Internal_Hbond.Weighted>
0.0000

> <Gold.Chemscore.DEClash.Weighted>
0.0571

> <Gold.Chemscore.DEInternal.Weighted>
2.9841

> <Gold.Chemscore.Rot.Weighted>
2.5600

> <Gold.Chemscore.Internal.Correction.Weighted>
   9.000000E+99

> <Gold.Protein.RotatedTorsions>
[ 6907 6896 6895 6894 ] final  108.85 input  -60.11 | X-H torsion
[ 7974 7965 7964 7962 ] final -151.49 input  175.53 | X-H torsion
[ 8008 7997 7996 7995 ] final  -28.12 input   59.86 | X-H torsion
[ 10167 10162 10161 10158 ] final -150.32 input  -65.29 | X-H torsion
[ 10718 10713 10712 10709 ] final -107.14 input   66.30 | X-H torsion
[ 10763 10752 10751 10750 ] final   73.60 input  -60.55 | X-H torsion
[ 11005 11000 10999 10996 ] final  -79.62 input  -57.11 | X-H torsion

> <Gold.Protein.ActiveResidues>
 VAL166  LYS551  ARG553  GLY616  TRP617  ASP618  TYR619  PRO620  LYS621  CYS622 
 ASP623  PHE694  ASN695  SER759  ASP760  ASP761  ALA762  ILE779  LEU786  VAL792 
 PHE793  MET794  SER795  GLU796  ALA797  LYS798  CYS799  TRP800  GLU811  SER814 

> <Gold.Protein.RotatedAtoms>
  152.5094  133.9029  159.7449 H   0  0  0  0  0  0  0  0  0  0  0  0  # atno 6907 bound_to 6896
  150.9441  133.6615  159.2792 H   0  0  0  0  0  0  0  0  0  0  0  0  # atno 6908 bound_to 6896
  151.3916  135.0962  159.9581 H   0  0  0  0  0  0  0  0  0  0  0  0  # atno 6909 bound_to 6896
  144.7847  140.4791  143.5814 H   0  0  0  0  0  0  0  0  0  0  0  0  # atno 7974 bound_to 7965
  154.4346  140.1854  156.1039 H   0  0  0  0  0  0  0  0  0  0  0  0  # atno 8008 bound_to 7997
  156.0271  140.3334  155.7074 H   0  0  0  0  0  0  0  0  0  0  0  0  # atno 8009 bound_to 7997
  155.5893  140.0629  157.2753 H   0  0  0  0  0  0  0  0  0  0  0  0  # atno 8010 bound_to 7997
  139.7365  143.8728  152.2550 H   0  0  0  0  0  0  0  0  0  0  0  0  # atno 10167 bound_to 10162
  156.0423  130.5648  150.7780 H   0  0  0  0  0  0  0  0  0  0  0  0  # atno 10718 bound_to 10713
  153.0532  135.5057  154.7917 H   0  0  0  0  0  0  0  0  0  0  0  0  # atno 10763 bound_to 10752
  154.6764  135.2961  154.9675 H   0  0  0  0  0  0  0  0  0  0  0  0  # atno 10764 bound_to 10752
  154.0477  135.6708  153.4849 H   0  0  0  0  0  0  0  0  0  0  0  0  # atno 10765 bound_to 10752
  141.1667  133.7114  156.8150 H   0  0  0  0  0  0  0  0  0  0  0  0  # atno 11005 bound_to 11000
  145.5954  139.1499  143.3159 LP  0  0  0  0  0  0  0  0  0  0  0  0  # atno 17320 bound_to 7965
  146.2073  140.6078  142.9075 LP  0  0  0  0  0  0  0  0  0  0  0  0  # atno 17321 bound_to 7965
  139.8666  144.7090  150.9036 LP  0  0  0  0  0  0  0  0  0  0  0  0  # atno 17342 bound_to 10162
  140.7779  143.3773  151.1540 LP  0  0  0  0  0  0  0  0  0  0  0  0  # atno 17343 bound_to 10162
  157.5255  131.0934  151.0023 LP  0  0  0  0  0  0  0  0  0  0  0  0  # atno 17370 bound_to 10713
  157.0342  130.5723  149.5347 LP  0  0  0  0  0  0  0  0  0  0  0  0  # atno 17371 bound_to 10713
  140.2160  134.8792  157.3326 LP  0  0  0  0  0  0  0  0  0  0  0  0  # atno 17394 bound_to 11000
  140.2037  134.4223  155.7649 LP  0  0  0  0  0  0  0  0  0  0  0  0  # atno 17395 bound_to 11000

$$$$
