AV-unprocessed.smi:1952|AV-procd|sdf|7892|dock1
  -GOLD-   2272010 43D 1   1.00000     0.00000
 Structure written by MMmdl.
 39 40  0  0  0  0  0  0  0  0  3 V2000
  153.6224  139.3647  153.7205 C   0  0  0  0  0  0  0  0  0  0  0  0
  153.1824  138.0851  153.0964 C   0  0  0  0  0  0  0  0  0  0  0  0
  151.9924  137.4136  153.0932 C   0  0  0  0  0  0  0  0  0  0  0  0
  152.2758  136.2618  152.3119 C   0  0  0  0  0  0  0  0  0  0  0  0
  151.2714  135.2894  152.0652 N   0  0  0  0  0  0  0  0  0  0  0  0
  151.4141  133.9716  151.8373 C   0  0  0  0  0  0  0  0  0  0  0  0
  152.5368  133.4527  151.8445 O   0  0  0  0  0  0  0  0  0  0  0  0
  150.2223  133.3552  151.6032 N   0  5  0  0  0  0  0  0  0  0  0  0
  149.9015  132.5457  150.4206 C   0  0  1  0  0  0  0  0  0  0  0  0
  151.1423  131.7303  150.0315 C   0  0  0  0  0  0  0  0  0  0  0  0
  148.6923  131.6239  150.7139 C   0  0  0  0  0  0  0  0  0  0  0  0
  147.3938  132.3397  150.5936 N   0  3  0  0  0  0  0  0  0  0  0  0
  146.2014  131.4554  150.5799 C   0  0  0  0  0  0  0  0  0  0  0  0
  144.9349  132.2877  150.3231 C   0  0  0  0  0  0  0  0  0  0  0  0
  144.8183  133.2972  151.3194 O   0  0  0  0  0  0  0  0  0  0  0  0
  145.9211  134.1963  151.2992 C   0  0  0  0  0  0  0  0  0  0  0  0
  147.2218  133.4274  151.5844 C   0  0  0  0  0  0  0  0  0  0  0  0
  153.5250  136.2377  151.8709 N   0  0  0  0  0  0  0  0  0  0  0  0
  154.1128  137.4046  152.3735 O   0  0  0  0  0  0  0  0  0  0  0  0
  152.7658  139.9433  154.0665 H   0  0  0  0  0  0  0  0  0  0  0  0
  154.1758  139.9747  153.0064 H   0  0  0  0  0  0  0  0  0  0  0  0
  154.2694  139.1732  154.5766 H   0  0  0  0  0  0  0  0  0  0  0  0
  151.0697  137.6996  153.5762 H   0  0  0  0  0  0  0  0  0  0  0  0
  150.3227  135.6339  152.0629 H   0  0  0  0  0  0  0  0  0  0  0  0
  149.6491  133.1710  149.5630 H   0  0  0  0  0  0  0  0  0  0  0  0
  150.9487  131.1218  149.1477 H   0  0  0  0  0  0  0  0  0  0  0  0
  151.4493  131.0595  150.8349 H   0  0  0  0  0  0  0  0  0  0  0  0
  151.9856  132.3821  149.8002 H   0  0  0  0  0  0  0  0  0  0  0  0
  148.6961  130.7602  150.0473 H   0  0  0  0  0  0  0  0  0  0  0  0
  148.8032  131.2193  151.7216 H   0  0  0  0  0  0  0  0  0  0  0  0
  146.3016  130.6959  149.8039 H   0  0  0  0  0  0  0  0  0  0  0  0
  146.1203  130.9313  151.5334 H   0  0  0  0  0  0  0  0  0  0  0  0
  144.9608  132.7393  149.3299 H   0  0  0  0  0  0  0  0  0  0  0  0
  144.0517  131.6497  150.3606 H   0  0  0  0  0  0  0  0  0  0  0  0
  145.9738  134.7040  150.3345 H   0  0  0  0  0  0  0  0  0  0  0  0
  145.7650  134.9650  152.0562 H   0  0  0  0  0  0  0  0  0  0  0  0
  147.2048  133.0091  152.5920 H   0  0  0  0  0  0  0  0  0  0  0  0
  148.0684  134.1129  151.5309 H   0  0  0  0  0  0  0  0  0  0  0  0
  147.4307  132.7929  149.6902 H   0  0  0  0  0  0  0  0  0  0  0  0
  1  2  1  0  0  0  0
  1 20  1  0  0  0  0
  1 21  1  0  0  0  0
  1 22  1  0  0  0  0
  2 19  1  0  0  0  0
  2  3  2  0  0  0  0
  3  4  1  0  0  0  0
  3 23  1  0  0  0  0
  4  5  1  0  0  0  0
  4 18  2  0  0  0  0
  5  6  1  0  0  0  0
  5 24  1  0  0  0  0
  6  7  2  0  0  0  0
  6  8  1  0  0  0  0
  8  9  1  0  0  0  0
  9 10  1  0  0  0  0
  9 11  1  0  0  0  0
  9 25  1  0  0  0  0
 10 26  1  0  0  0  0
 10 27  1  0  0  0  0
 10 28  1  0  0  0  0
 11 12  1  0  0  0  0
 11 29  1  0  0  0  0
 11 30  1  0  0  0  0
 12 17  1  0  0  0  0
 12 13  1  0  0  0  0
 12 39  1  0  0  0  0
 13 14  1  0  0  0  0
 13 31  1  0  0  0  0
 13 32  1  0  0  0  0
 14 15  1  0  0  0  0
 14 33  1  0  0  0  0
 14 34  1  0  0  0  0
 15 16  1  0  0  0  0
 16 17  1  0  0  0  0
 16 35  1  0  0  0  0
 16 36  1  0  0  0  0
 17 37  1  0  0  0  0
 17 38  1  0  0  0  0
 18 19  1  0  0  0  0
M  CHG  1   8  -1
M  CHG  1  12   1
M  END
> <s_m_source_file>
AV-unprocessed.smi

> <i_m_source_file_index>
1952

> <i_lp_mmshare_version>
43012

> <i_f3d_flags>
0

> <s_epik_input>
W0NIM11jMVtjSF1jKG5vMSlbTkhdQyg9TylbTkhdW0NASF0oW0NIM10pW0NIMl1OMltDSDJdW0NIMl1PW0NIMl1bQ0gyXTI=

> <s_epik_cmdline>
J2VwaWtfcHl0aG9uJywgJy1waCcsICc3LjAnLCAnLXRuJywgJzgnLCAnLW1hJywgJzIwMCcsICctbWV0YWxfYmluZGluZycsICctaW1hZScsICc8aW5maWxlLm1hZT4nLCAnLW9tYWUnLCAnPG91dGZpbGUubWFlPic=

> <r_epik_Ionization_Penalty>
6.76648

> <r_epik_Ionization_Penalty_Charging>
6.76648

> <r_epik_Ionization_Penalty_Neutral>
5.6208e-06

> <r_epik_State_Penalty>
7.45901

> <r_epik_Charging_Adjusted_Penalty>
14.2255

> <i_epik_Tot_Q>
0

> <i_epik_Tot_abs_Q>
2

> <r_epik_Metal_State_Penalty>
3.38802

> <b_epik_Metal_Only>
1

> <s_lp_Force_Field>
OPLS_2005

> <r_lp_Energy>
9.12096

> <b_lp_Chiralities_Consistent>
1

> <s_lp_Variant>
AV-unprocessed.smi:1952-10

> <Gold.Version>
5.8.1

> <Gold.Id.Protein>
6NUR|6NUR_protein|mol2

> <Gold.PLP.Fitness>
39.8830

> <Gold.PLP.PLP>
-32.9337

> <Gold.PLP.part.hbond>
-4.0606

> <Gold.PLP.part.metal>
0.0000

> <Gold.PLP.part.buried>
-3.6260

> <Gold.PLP.part.nonpolar>
-25.6768

> <Gold.PLP.part.repulsive>
0.4121

> <Gold.PLP.ligand.clash>
0.0000

> <Gold.PLP.ligand.torsion>
1.2123

> <Gold.PLP.Chemscore.Hbond>
2.9920

> <Gold.PLP.Chemscore.CHOScore>
0.0000

> <Gold.PLP.Chemscore.Metal>
0.0000

> <Gold.PLP.Chemscore.Internal.Correction>
0.3980

> <Gold.Rescore>
     Score         DG    S(hbond)    S(metal)    S(lipo)     H(rot)  DE(clash)    DE(int)     intcor
     11.87     -15.74       1.86        0.00      69.17       1.58       0.19       3.68       ----

> <Gold.Chemscore.Fitness>
11.8685

> <Gold.Chemscore.DG>
-15.7382

> <Gold.Chemscore.ZeroCoef>
-5.4800

> <Gold.Chemscore.Hbond>
1.8590

> <Gold.Chemscore.Metal>
0.0000

> <Gold.Chemscore.Lipo>
69.1729

> <Gold.Chemscore.Internal_Hbond>
0.0000

> <Gold.Chemscore.DEClash>
0.1903

> <Gold.Chemscore.DEInternal>
3.6794

> <Gold.Chemscore.Rot>
1.5798

> <Gold.Chemscore.Internal.Correction>
   9.000000E+99

> <Gold.Chemscore.Hbond.Weighted>
-6.2092

> <Gold.Chemscore.Metal.Weighted>
-0.0000

> <Gold.Chemscore.Lipo.Weighted>
-8.0932

> <Gold.Chemscore.Internal_Hbond.Weighted>
0.0000

> <Gold.Chemscore.DEClash.Weighted>
0.1903

> <Gold.Chemscore.DEInternal.Weighted>
3.6794

> <Gold.Chemscore.Rot.Weighted>
4.0442

> <Gold.Chemscore.Internal.Correction.Weighted>
   9.000000E+99

> <Gold.Protein.RotatedTorsions>
[ 6907 6896 6895 6894 ] final -173.64 input  -60.11 | X-H torsion
[ 7974 7965 7964 7962 ] final  156.50 input  175.53 | X-H torsion
[ 8008 7997 7996 7995 ] final -100.54 input   59.86 | X-H torsion
[ 10167 10162 10161 10158 ] final   15.41 input  -65.29 | X-H torsion
[ 10718 10713 10712 10709 ] final -114.45 input   66.30 | X-H torsion
[ 10763 10752 10751 10750 ] final  -64.33 input  -60.55 | X-H torsion
[ 11005 11000 10999 10996 ] final  137.69 input  -57.11 | X-H torsion

> <Gold.Protein.ActiveResidues>
 VAL166  LYS551  ARG553  GLY616  TRP617  ASP618  TYR619  PRO620  LYS621  CYS622 
 ASP623  PHE694  ASN695  SER759  ASP760  ASP761  ALA762  ILE779  LEU786  VAL792 
 PHE793  MET794  SER795  GLU796  ALA797  LYS798  CYS799  TRP800  GLU811  SER814 

> <Gold.Protein.RotatedAtoms>
  151.5595  133.3405  159.2968 H   0  0  0  0  0  0  0  0  0  0  0  0  # atno 6907 bound_to 6896
  150.8431  134.7733  159.6959 H   0  0  0  0  0  0  0  0  0  0  0  0  # atno 6908 bound_to 6896
  152.4494  134.5432  159.9897 H   0  0  0  0  0  0  0  0  0  0  0  0  # atno 6909 bound_to 6896
  144.7959  139.7212  143.6202 H   0  0  0  0  0  0  0  0  0  0  0  0  # atno 7974 bound_to 7965
  154.8300  140.0440  157.1470 H   0  0  0  0  0  0  0  0  0  0  0  0  # atno 8008 bound_to 7997
  154.9163  140.3020  155.5219 H   0  0  0  0  0  0  0  0  0  0  0  0  # atno 8009 bound_to 7997
  156.2986  140.2349  156.4208 H   0  0  0  0  0  0  0  0  0  0  0  0  # atno 8010 bound_to 7997
  140.5869  143.8873  150.6838 H   0  0  0  0  0  0  0  0  0  0  0  0  # atno 10167 bound_to 10162
  156.0831  130.6027  150.8776 H   0  0  0  0  0  0  0  0  0  0  0  0  # atno 10718 bound_to 10713
  154.3284  135.6181  153.5540 H   0  0  0  0  0  0  0  0  0  0  0  0  # atno 10763 bound_to 10752
  152.9813  135.5741  154.4990 H   0  0  0  0  0  0  0  0  0  0  0  0  # atno 10764 bound_to 10752
  154.4671  135.2858  155.1647 H   0  0  0  0  0  0  0  0  0  0  0  0  # atno 10765 bound_to 10752
  140.0132  134.9430  157.0321 H   0  0  0  0  0  0  0  0  0  0  0  0  # atno 11005 bound_to 11000
  146.2227  139.5665  142.9608 LP  0  0  0  0  0  0  0  0  0  0  0  0  # atno 17320 bound_to 7965
  145.5674  141.0398  143.2193 LP  0  0  0  0  0  0  0  0  0  0  0  0  # atno 17321 bound_to 7965
  140.2386  143.3681  152.1506 LP  0  0  0  0  0  0  0  0  0  0  0  0  # atno 17342 bound_to 10162
  139.5203  144.7031  151.5435 LP  0  0  0  0  0  0  0  0  0  0  0  0  # atno 17343 bound_to 10162
  157.5955  131.0943  150.9048 LP  0  0  0  0  0  0  0  0  0  0  0  0  # atno 17370 bound_to 10713
  156.9216  130.5317  149.5279 LP  0  0  0  0  0  0  0  0  0  0  0  0  # atno 17371 bound_to 10713
  140.4518  134.1574  155.7182 LP  0  0  0  0  0  0  0  0  0  0  0  0  # atno 17394 bound_to 11000
  141.1725  133.8580  157.1526 LP  0  0  0  0  0  0  0  0  0  0  0  0  # atno 17395 bound_to 11000

$$$$
