AV-unprocessed.smi:3246|AV-procd|sdf|12410|dock7
  -GOLD-   2272018293D 1   1.00000     0.00000
 Structure written by MMmdl.
 35 36  0  0  0  0  0  0  0  0  1 V2000
  150.7384  140.5819  155.0008 O   0  0  0  0  0  0  0  0  0  0  0  0
  149.6005  140.6473  155.4645 C   0  0  0  0  0  0  0  0  0  0  0  0
  148.4039  140.3679  154.5400 C   0  0  0  0  0  0  0  0  0  0  0  0
  147.3563  141.3925  154.5551 N   0  0  0  0  0  0  0  0  0  0  0  0
  146.9887  142.0943  153.3362 C   0  0  0  0  0  0  0  0  0  0  0  0
  145.7299  142.8938  153.7015 C   0  0  0  0  0  0  0  0  0  0  0  0
  145.6568  142.8790  155.2321 C   0  0  0  0  0  0  0  0  0  0  0  0
  146.6574  141.8039  155.6206 C   0  0  0  0  0  0  0  0  0  0  0  0
  146.7754  141.3848  156.7707 O   0  0  0  0  0  0  0  0  0  0  0  0
  149.3581  140.9495  156.7515 N   0  0  0  0  0  0  0  0  0  0  0  0
  150.3760  141.2385  157.7537 C   0  0  0  0  0  0  0  0  0  0  0  0
  151.3653  142.3067  157.2618 C   0  0  0  0  0  0  0  0  0  0  0  0
  151.4386  143.4912  158.2047 C   0  0  0  0  0  0  0  0  0  0  0  0
  151.9568  143.3504  159.5086 C   0  0  0  0  0  0  0  0  0  0  0  0
  151.9978  144.4808  160.3474 C   0  0  0  0  0  0  0  0  0  0  0  0
  151.5172  145.7067  159.8451 C   0  0  0  0  0  0  0  0  0  0  0  0
  151.0182  145.8529  158.5986 N   0  0  0  0  0  0  0  0  0  0  0  0
  150.9826  144.7640  157.8005 C   0  0  0  0  0  0  0  0  0  0  0  0
  148.7735  140.2402  153.5213 H   0  0  0  0  0  0  0  0  0  0  0  0
  147.9682  139.4097  154.8257 H   0  0  0  0  0  0  0  0  0  0  0  0
  147.8031  142.7588  153.0442 H   0  0  0  0  0  0  0  0  0  0  0  0
  146.8033  141.3988  152.5167 H   0  0  0  0  0  0  0  0  0  0  0  0
  145.7665  143.9084  153.3035 H   0  0  0  0  0  0  0  0  0  0  0  0
  144.8455  142.4102  153.2846 H   0  0  0  0  0  0  0  0  0  0  0  0
  145.9686  143.8339  155.6560 H   0  0  0  0  0  0  0  0  0  0  0  0
  144.6561  142.6434  155.5951 H   0  0  0  0  0  0  0  0  0  0  0  0
  148.3957  140.9879  157.0549 H   0  0  0  0  0  0  0  0  0  0  0  0
  149.9039  141.5516  158.6865 H   0  0  0  0  0  0  0  0  0  0  0  0
  150.9075  140.3114  157.9705 H   0  0  0  0  0  0  0  0  0  0  0  0
  152.3607  141.8738  157.1524 H   0  0  0  0  0  0  0  0  0  0  0  0
  151.0758  142.6653  156.2730 H   0  0  0  0  0  0  0  0  0  0  0  0
  152.3153  142.3948  159.8618 H   0  0  0  0  0  0  0  0  0  0  0  0
  152.3879  144.4104  161.3520 H   0  0  0  0  0  0  0  0  0  0  0  0
  151.5341  146.5935  160.4613 H   0  0  0  0  0  0  0  0  0  0  0  0
  150.5755  144.9125  156.8109 H   0  0  0  0  0  0  0  0  0  0  0  0
  1  2  2  0  0  0  0
  2  3  1  0  0  0  0
  2 10  1  0  0  0  0
  3  4  1  0  0  0  0
  3 19  1  0  0  0  0
  3 20  1  0  0  0  0
  4  8  1  0  0  0  0
  4  5  1  0  0  0  0
  5  6  1  0  0  0  0
  5 21  1  0  0  0  0
  5 22  1  0  0  0  0
  6  7  1  0  0  0  0
  6 23  1  0  0  0  0
  6 24  1  0  0  0  0
  7  8  1  0  0  0  0
  7 25  1  0  0  0  0
  7 26  1  0  0  0  0
  8  9  2  0  0  0  0
 10 11  1  0  0  0  0
 10 27  1  0  0  0  0
 11 12  1  0  0  0  0
 11 28  1  0  0  0  0
 11 29  1  0  0  0  0
 12 13  1  0  0  0  0
 12 30  1  0  0  0  0
 12 31  1  0  0  0  0
 13 18  1  0  0  0  0
 13 14  2  0  0  0  0
 14 15  1  0  0  0  0
 14 32  1  0  0  0  0
 15 16  2  0  0  0  0
 15 33  1  0  0  0  0
 16 17  1  0  0  0  0
 16 34  1  0  0  0  0
 17 18  2  0  0  0  0
 18 35  1  0  0  0  0
M  END
> <s_m_source_file>
AV-unprocessed.smi

> <i_m_source_file_index>
3246

> <i_lp_mmshare_version>
43012

> <i_f3d_flags>
0

> <s_epik_input>
Tz1DMVtDSDJdW0NIMl1bQ0gyXU4xW0NIMl1DKD1PKVtOSF1bQ0gyXVtDSDJdYzJbY0hdW2NIXVtjSF1uW2NIXTI=

> <s_epik_cmdline>
J2VwaWtfcHl0aG9uJywgJy1waCcsICc3LjAnLCAnLXRuJywgJzgnLCAnLW1hJywgJzIwMCcsICctbWV0YWxfYmluZGluZycsICctaW1hZScsICc8aW5maWxlLm1hZT4nLCAnLW9tYWUnLCAnPG91dGZpbGUubWFlPic=

> <r_epik_Ionization_Penalty>
0.0129263

> <r_epik_Ionization_Penalty_Charging>
0

> <r_epik_Ionization_Penalty_Neutral>
0.0129263

> <r_epik_State_Penalty>
0.0100328

> <r_epik_Charging_Adjusted_Penalty>
0.0100328

> <i_epik_Tot_Q>
0

> <i_epik_Tot_abs_Q>
0

> <r_epik_Metal_State_Penalty>
0.00981748

> <b_epik_Metal_Only>
0

> <s_lp_Force_Field>
OPLS_2005

> <r_lp_Energy>
11.4517

> <b_lp_Chiralities_Consistent>
1

> <s_lp_Variant>
AV-unprocessed.smi:3246-1

> <Gold.Version>
5.8.1

> <Gold.Id.Protein>
6NUR|6NUR_protein|mol2

> <Gold.PLP.Fitness>
43.5549

> <Gold.PLP.PLP>
-38.6047

> <Gold.PLP.part.hbond>
-2.0000

> <Gold.PLP.part.metal>
0.0000

> <Gold.PLP.part.buried>
-6.3754

> <Gold.PLP.part.nonpolar>
-29.4774

> <Gold.PLP.part.repulsive>
0.3112

> <Gold.PLP.ligand.clash>
0.0000

> <Gold.PLP.ligand.torsion>
0.5254

> <Gold.PLP.Chemscore.Hbond>
0.9920

> <Gold.PLP.Chemscore.CHOScore>
1.0000

> <Gold.PLP.Chemscore.Metal>
0.0000

> <Gold.Chemscore.Hbonds>
donor molecule, donor type, donor heavy atom, donor atom, acceptor molecule, acceptor atom, score
      P1  H  7989  7998       L1     1  0.98
      L1  C    18    35       P1  8028  0.94

> <Gold.PLP.Chemscore.Internal.Correction>
0.0250

> <Gold.Rescore>
     Score         DG    S(hbond)    S(metal)    S(lipo)     H(rot)  DE(clash)    DE(int)     intcor
     12.68     -14.59       1.00        0.00      89.89       1.85       0.02       1.89       ----

> <Gold.Chemscore.Fitness>
12.6831

> <Gold.Chemscore.DG>
-14.5926

> <Gold.Chemscore.ZeroCoef>
-5.4800

> <Gold.Chemscore.Hbond>
0.9970

> <Gold.Chemscore.Metal>
0.0000

> <Gold.Chemscore.Lipo>
89.8894

> <Gold.Chemscore.Internal_Hbond>
0.0000

> <Gold.Chemscore.DEClash>
0.0174

> <Gold.Chemscore.DEInternal>
1.8921

> <Gold.Chemscore.Rot>
1.8494

> <Gold.Chemscore.Internal.Correction>
   9.000000E+99

> <Gold.Chemscore.Hbonds>
donor molecule, donor type, donor heavy atom, donor atom, acceptor molecule, acceptor atom, score
      P1  H  7989  7998       L1     1  0.93

> <Gold.Chemscore.Hbond.Weighted>
-3.3299

> <Gold.Chemscore.Metal.Weighted>
-0.0000

> <Gold.Chemscore.Lipo.Weighted>
-10.5171

> <Gold.Chemscore.Internal_Hbond.Weighted>
0.0000

> <Gold.Chemscore.DEClash.Weighted>
0.0174

> <Gold.Chemscore.DEInternal.Weighted>
1.8921

> <Gold.Chemscore.Rot.Weighted>
4.7344

> <Gold.Chemscore.Internal.Correction.Weighted>
   9.000000E+99

> <Gold.Protein.RotatedTorsions>
[ 6907 6896 6895 6894 ] final  161.96 input  -60.11 | X-H torsion
[ 7974 7965 7964 7962 ] final  121.25 input  175.53 | X-H torsion
[ 8008 7997 7996 7995 ] final   24.57 input   59.86 | X-H torsion
[ 10167 10162 10161 10158 ] final -127.11 input  -65.29 | X-H torsion
[ 10718 10713 10712 10709 ] final  173.82 input   66.30 | X-H torsion
[ 10763 10752 10751 10750 ] final -125.96 input  -60.55 | X-H torsion
[ 11005 11000 10999 10996 ] final  -87.91 input  -57.11 | X-H torsion

> <Gold.Protein.ActiveResidues>
 VAL166  LYS551  ARG553  GLY616  TRP617  ASP618  TYR619  PRO620  LYS621  CYS622 
 ASP623  PHE694  ASN695  SER759  ASP760  ASP761  ALA762  ILE779  LEU786  VAL792 
 PHE793  MET794  SER795  GLU796  ALA797  LYS798  CYS799  TRP800  GLU811  SER814 

> <Gold.Protein.RotatedAtoms>
  151.9478  133.3657  159.3988 H   0  0  0  0  0  0  0  0  0  0  0  0  # atno 6907 bound_to 6896
  150.6986  134.4372  159.5285 H   0  0  0  0  0  0  0  0  0  0  0  0  # atno 6908 bound_to 6896
  152.2040  134.8562  160.0555 H   0  0  0  0  0  0  0  0  0  0  0  0  # atno 6909 bound_to 6896
  145.1215  139.3386  143.4711 H   0  0  0  0  0  0  0  0  0  0  0  0  # atno 7974 bound_to 7965
  154.9983  140.3122  155.4877 H   0  0  0  0  0  0  0  0  0  0  0  0  # atno 8008 bound_to 7997
  156.2929  140.2236  156.5033 H   0  0  0  0  0  0  0  0  0  0  0  0  # atno 8009 bound_to 7997
  154.7641  140.0457  157.0986 H   0  0  0  0  0  0  0  0  0  0  0  0  # atno 8010 bound_to 7997
  139.9643  143.5915  152.2434 H   0  0  0  0  0  0  0  0  0  0  0  0  # atno 10167 bound_to 10162
  156.9587  131.0054  151.2932 H   0  0  0  0  0  0  0  0  0  0  0  0  # atno 10718 bound_to 10713
  154.8741  135.4012  154.3353 H   0  0  0  0  0  0  0  0  0  0  0  0  # atno 10763 bound_to 10752
  153.4161  135.7022  153.6331 H   0  0  0  0  0  0  0  0  0  0  0  0  # atno 10764 bound_to 10752
  153.5014  135.3727  155.2512 H   0  0  0  0  0  0  0  0  0  0  0  0  # atno 10765 bound_to 10752
  141.1610  133.7539  156.9375 H   0  0  0  0  0  0  0  0  0  0  0  0  # atno 11005 bound_to 11000
  146.3520  140.1177  142.8601 LP  0  0  0  0  0  0  0  0  0  0  0  0  # atno 17320 bound_to 7965
  145.0734  140.9171  143.4868 LP  0  0  0  0  0  0  0  0  0  0  0  0  # atno 17321 bound_to 7965
  139.6530  144.7661  151.2111 LP  0  0  0  0  0  0  0  0  0  0  0  0  # atno 17342 bound_to 10162
  140.7543  143.6131  150.8586 LP  0  0  0  0  0  0  0  0  0  0  0  0  # atno 17343 bound_to 10162
  157.5672  130.8286  149.8343 LP  0  0  0  0  0  0  0  0  0  0  0  0  # atno 17370 bound_to 10713
  156.0331  130.3759  150.1633 LP  0  0  0  0  0  0  0  0  0  0  0  0  # atno 17371 bound_to 10713
  140.1344  134.9334  157.2382 LP  0  0  0  0  0  0  0  0  0  0  0  0  # atno 17394 bound_to 11000
  140.2913  134.3237  155.7314 LP  0  0  0  0  0  0  0  0  0  0  0  0  # atno 17395 bound_to 11000

$$$$
