AV-unprocessed.smi:3230|AV-procd|sdf|12329|dock1
  -GOLD-   2272018183D 1   1.00000     0.00000
 Structure written by MMmdl.
 40 40  0  0  0  0  0  0  0  0  1 V2000
  150.1229  141.2319  155.5752 C   0  0  0  0  0  0  0  0  0  0  0  0
  151.2671  141.7404  156.4653 C   0  0  0  0  0  0  0  0  0  0  0  0
  151.0861  141.4427  157.9766 C   0  0  0  0  0  0  0  0  0  0  0  0
  151.5952  142.6149  158.8539 C   0  0  0  0  0  0  0  0  0  0  0  0
  150.8682  143.9487  158.6248 C   0  0  0  0  0  0  0  0  0  0  0  0
  151.7117  140.0812  158.3926 C   0  0  2  0  0  0  0  0  0  0  0  0
  153.1212  140.1624  158.2992 O   0  0  0  0  0  0  0  0  0  0  0  0
  151.2269  138.8930  157.5304 C   0  0  0  0  0  0  0  0  0  0  0  0
  149.8410  138.5348  157.8150 N   0  0  0  0  0  0  0  0  0  0  0  0
  149.4488  137.4701  158.5324 C   0  0  0  0  0  0  0  0  0  0  0  0
  150.2333  136.6573  159.0221 O   0  0  0  0  0  0  0  0  0  0  0  0
  147.9424  137.2932  158.7286 C   0  0  0  0  0  0  0  0  0  0  0  0
  147.6671  136.6441  160.0576 C   0  0  0  0  0  0  0  0  0  0  0  0
  147.2714  135.3028  160.3196 C   0  0  0  0  0  0  0  0  0  0  0  0
  147.1657  135.2567  161.6803 C   0  0  0  0  0  0  0  0  0  0  0  0
  146.8015  134.1719  162.6350 C   0  0  0  0  0  0  0  0  0  0  0  0
  147.4657  136.4681  162.2154 O   0  0  0  0  0  0  0  0  0  0  0  0
  147.7809  137.3474  161.1736 N   0  0  0  0  0  0  0  0  0  0  0  0
  150.3629  141.3819  154.5225 H   0  0  0  0  0  0  0  0  0  0  0  0
  149.1876  141.7559  155.7685 H   0  0  0  0  0  0  0  0  0  0  0  0
  149.9509  140.1656  155.7244 H   0  0  0  0  0  0  0  0  0  0  0  0
  152.1806  141.2710  156.1028 H   0  0  0  0  0  0  0  0  0  0  0  0
  151.4009  142.8113  156.3077 H   0  0  0  0  0  0  0  0  0  0  0  0
  150.0131  141.3597  158.1561 H   0  0  0  0  0  0  0  0  0  0  0  0
  151.5439  142.3471  159.9096 H   0  0  0  0  0  0  0  0  0  0  0  0
  152.6493  142.7934  158.6480 H   0  0  0  0  0  0  0  0  0  0  0  0
  151.3602  144.7508  159.1751 H   0  0  0  0  0  0  0  0  0  0  0  0
  149.8335  143.9157  158.9643 H   0  0  0  0  0  0  0  0  0  0  0  0
  150.8704  144.2235  157.5697 H   0  0  0  0  0  0  0  0  0  0  0  0
  151.4566  139.8814  159.4321 H   0  0  0  0  0  0  0  0  0  0  0  0
  153.4900  139.9210  159.1352 H   0  0  0  0  0  0  0  0  0  0  0  0
  151.3042  139.1409  156.4705 H   0  0  0  0  0  0  0  0  0  0  0  0
  151.8535  138.0136  157.6813 H   0  0  0  0  0  0  0  0  0  0  0  0
  149.1287  139.1486  157.4467 H   0  0  0  0  0  0  0  0  0  0  0  0
  147.4364  138.2570  158.6531 H   0  0  0  0  0  0  0  0  0  0  0  0
  147.5522  136.6764  157.9184 H   0  0  0  0  0  0  0  0  0  0  0  0
  147.0979  134.5004  159.6180 H   0  0  0  0  0  0  0  0  0  0  0  0
  146.3960  133.3088  162.1069 H   0  0  0  0  0  0  0  0  0  0  0  0
  146.0500  134.5165  163.3456 H   0  0  0  0  0  0  0  0  0  0  0  0
  147.6758  133.8444  163.1978 H   0  0  0  0  0  0  0  0  0  0  0  0
  1  2  1  0  0  0  0
  1 19  1  0  0  0  0
  1 20  1  0  0  0  0
  1 21  1  0  0  0  0
  2  3  1  0  0  0  0
  2 22  1  0  0  0  0
  2 23  1  0  0  0  0
  3  4  1  0  0  0  0
  3  6  1  0  0  0  0
  3 24  1  0  0  0  0
  4  5  1  0  0  0  0
  4 25  1  0  0  0  0
  4 26  1  0  0  0  0
  5 27  1  0  0  0  0
  5 28  1  0  0  0  0
  5 29  1  0  0  0  0
  6  7  1  0  0  0  0
  6  8  1  0  0  0  0
  6 30  1  0  0  0  0
  7 31  1  0  0  0  0
  8  9  1  0  0  0  0
  8 32  1  0  0  0  0
  8 33  1  0  0  0  0
  9 10  1  0  0  0  0
  9 34  1  0  0  0  0
 10 11  2  0  0  0  0
 10 12  1  0  0  0  0
 12 13  1  0  0  0  0
 12 35  1  0  0  0  0
 12 36  1  0  0  0  0
 13 18  2  0  0  0  0
 13 14  1  0  0  0  0
 14 15  2  0  0  0  0
 14 37  1  0  0  0  0
 15 16  1  0  0  0  0
 15 17  1  0  0  0  0
 16 38  1  0  0  0  0
 16 39  1  0  0  0  0
 16 40  1  0  0  0  0
 17 18  1  0  0  0  0
M  END
> <s_m_source_file>
AV-unprocessed.smi

> <i_m_source_file_index>
3230

> <i_lp_mmshare_version>
43012

> <i_f3d_flags>
0

> <s_epik_input>
W0NIM11bQ0gyXVtDSF0oW0NIMl1bQ0gzXSlbQ0BIXShbT0hdKVtDSDJdW05IXUMoPU8pW0NIMl1jMVtjSF1jKFtDSDNdKW9uMQ==

> <s_epik_cmdline>
J2VwaWtfcHl0aG9uJywgJy1waCcsICc3LjAnLCAnLXRuJywgJzgnLCAnLW1hJywgJzIwMCcsICctbWV0YWxfYmluZGluZycsICctaW1hZScsICc8aW5maWxlLm1hZT4nLCAnLW9tYWUnLCAnPG91dGZpbGUubWFlPic=

> <r_lp_tautomer_probability>
1

> <r_epik_Ionization_Penalty>
2.40054e-07

> <r_epik_Ionization_Penalty_Charging>
0

> <r_epik_Ionization_Penalty_Neutral>
2.40054e-07

> <r_epik_State_Penalty>
-0

> <r_epik_Charging_Adjusted_Penalty>
0

> <i_epik_Tot_Q>
0

> <i_epik_Tot_abs_Q>
0

> <r_epik_Metal_State_Penalty>
-0

> <b_epik_Metal_Only>
0

> <s_lp_Force_Field>
OPLS_2005

> <r_lp_Energy>
9.05643

> <b_lp_Chiralities_Consistent>
1

> <s_lp_Variant>
AV-unprocessed.smi:3230-1

> <Gold.Version>
5.8.1

> <Gold.Id.Protein>
6NUR|6NUR_protein|mol2

> <Gold.PLP.Fitness>
39.3306

> <Gold.PLP.PLP>
-30.2397

> <Gold.PLP.part.hbond>
-4.0000

> <Gold.PLP.part.metal>
0.0000

> <Gold.PLP.part.buried>
-4.5798

> <Gold.PLP.part.nonpolar>
-21.0174

> <Gold.PLP.part.repulsive>
0.0635

> <Gold.PLP.ligand.clash>
0.0000

> <Gold.PLP.ligand.torsion>
1.2416

> <Gold.PLP.Chemscore.Hbond>
3.7771

> <Gold.PLP.Chemscore.CHOScore>
0.0000

> <Gold.PLP.Chemscore.Metal>
0.0000

> <Gold.Chemscore.Hbonds>
donor molecule, donor type, donor heavy atom, donor atom, acceptor molecule, acceptor atom, score
      P1  H  6896  6907       L1    11  1.00
      P1  H  6931  6943       L1    18  0.88
      P1  H  6934  6947       L1    18  0.78
      P1  H  7997  8008       L1     7  0.80

> <Gold.PLP.Chemscore.Internal.Correction>
0.2426

> <Gold.Rescore>
     Score         DG    S(hbond)    S(metal)    S(lipo)     H(rot)  DE(clash)    DE(int)     intcor
     16.88     -18.20       3.14        0.00      75.43       2.57       0.00       1.32       ----

> <Gold.Chemscore.Fitness>
16.8849

> <Gold.Chemscore.DG>
-18.2030

> <Gold.Chemscore.ZeroCoef>
-5.4800

> <Gold.Chemscore.Hbond>
3.1380

> <Gold.Chemscore.Metal>
0.0000

> <Gold.Chemscore.Lipo>
75.4285

> <Gold.Chemscore.Internal_Hbond>
0.0000

> <Gold.Chemscore.DEClash>
0.0000

> <Gold.Chemscore.DEInternal>
1.3181

> <Gold.Chemscore.Rot>
2.5715

> <Gold.Chemscore.Internal.Correction>
   9.000000E+99

> <Gold.Chemscore.Hbonds>
donor molecule, donor type, donor heavy atom, donor atom, acceptor molecule, acceptor atom, score
      P1  H  6896  6907       L1    11  0.98
      P1  H  6931  6943       L1    18  0.26
      P1  H  6934  6947       L1    18  0.61
      P1  H  7997  8008       L1     7  0.67

> <Gold.Chemscore.Hbond.Weighted>
-10.4809

> <Gold.Chemscore.Metal.Weighted>
-0.0000

> <Gold.Chemscore.Lipo.Weighted>
-8.8251

> <Gold.Chemscore.Internal_Hbond.Weighted>
0.0000

> <Gold.Chemscore.DEClash.Weighted>
0.0000

> <Gold.Chemscore.DEInternal.Weighted>
1.3181

> <Gold.Chemscore.Rot.Weighted>
6.5831

> <Gold.Chemscore.Internal.Correction.Weighted>
   9.000000E+99

> <Gold.Protein.RotatedTorsions>
[ 6907 6896 6895 6894 ] final  -30.05 input  -60.11 | X-H torsion
[ 7974 7965 7964 7962 ] final  110.99 input  175.53 | X-H torsion
[ 8008 7997 7996 7995 ] final  -65.95 input   59.86 | X-H torsion
[ 10167 10162 10161 10158 ] final  136.71 input  -65.29 | X-H torsion
[ 10718 10713 10712 10709 ] final  -45.61 input   66.30 | X-H torsion
[ 10763 10752 10751 10750 ] final  -67.86 input  -60.55 | X-H torsion
[ 11005 11000 10999 10996 ] final -158.11 input  -57.11 | X-H torsion

> <Gold.Protein.ActiveResidues>
 VAL166  LYS551  ARG553  GLY616  TRP617  ASP618  TYR619  PRO620  LYS621  CYS622 
 ASP623  PHE694  ASN695  SER759  ASP760  ASP761  ALA762  ILE779  LEU786  VAL792 
 PHE793  MET794  SER795  GLU796  ALA797  LYS798  CYS799  TRP800  GLU811  SER814 

> <Gold.Protein.RotatedAtoms>
  151.1108  135.0025  159.8492 H   0  0  0  0  0  0  0  0  0  0  0  0  # atno 6907 bound_to 6896
  152.5443  134.1839  159.8656 H   0  0  0  0  0  0  0  0  0  0  0  0  # atno 6908 bound_to 6896
  151.1889  133.4635  159.2628 H   0  0  0  0  0  0  0  0  0  0  0  0  # atno 6909 bound_to 6896
  145.2479  139.2751  143.4083 H   0  0  0  0  0  0  0  0  0  0  0  0  # atno 7974 bound_to 7965
  154.4703  140.0922  156.7128 H   0  0  0  0  0  0  0  0  0  0  0  0  # atno 8008 bound_to 7997
  155.4742  140.3465  155.4312 H   0  0  0  0  0  0  0  0  0  0  0  0  # atno 8009 bound_to 7997
  156.1028  140.1427  156.9433 H   0  0  0  0  0  0  0  0  0  0  0  0  # atno 8010 bound_to 7997
  139.5170  144.6450  151.5465 H   0  0  0  0  0  0  0  0  0  0  0  0  # atno 10167 bound_to 10162
  156.2266  130.4169  149.8926 H   0  0  0  0  0  0  0  0  0  0  0  0  # atno 10718 bound_to 10713
  154.3806  135.6075  153.5789 H   0  0  0  0  0  0  0  0  0  0  0  0  # atno 10763 bound_to 10752
  152.9788  135.5860  154.4414 H   0  0  0  0  0  0  0  0  0  0  0  0  # atno 10764 bound_to 10752
  154.4183  135.2845  155.1970 H   0  0  0  0  0  0  0  0  0  0  0  0  # atno 10765 bound_to 10752
  140.6572  134.4387  157.5235 H   0  0  0  0  0  0  0  0  0  0  0  0  # atno 11005 bound_to 11000
  146.3310  140.2862  142.8613 LP  0  0  0  0  0  0  0  0  0  0  0  0  # atno 17320 bound_to 7965
  144.9529  140.8197  143.5561 LP  0  0  0  0  0  0  0  0  0  0  0  0  # atno 17321 bound_to 7965
  140.6231  143.9220  150.6542 LP  0  0  0  0  0  0  0  0  0  0  0  0  # atno 17342 bound_to 10162
  140.2500  143.3600  152.1413 LP  0  0  0  0  0  0  0  0  0  0  0  0  # atno 17343 bound_to 10162
  156.6554  130.8760  151.3538 LP  0  0  0  0  0  0  0  0  0  0  0  0  # atno 17370 bound_to 10713
  157.7113  130.9444  150.1100 LP  0  0  0  0  0  0  0  0  0  0  0  0  # atno 17371 bound_to 10713
  139.9025  134.8523  156.1837 LP  0  0  0  0  0  0  0  0  0  0  0  0  # atno 17394 bound_to 11000
  141.0492  133.6897  156.1740 LP  0  0  0  0  0  0  0  0  0  0  0  0  # atno 17395 bound_to 11000

$$$$
