AV-unprocessed.smi:2581|AV-procd|sdf|10131|dock1
  -GOLD-   2272014143D 1   1.00000     0.00000
 Structure written by MMmdl.
 40 42  0  0  0  0  0  0  0  0  2 V2000
  149.7076  139.3106  157.3153 O   0  0  0  0  0  0  0  0  0  0  0  0
  150.1989  140.4311  157.1825 C   0  0  0  0  0  0  0  0  0  0  0  0
  151.0212  141.0633  158.2170 C   0  0  0  0  0  0  0  0  0  0  0  0
  151.5950  142.2865  158.0766 C   0  0  0  0  0  0  0  0  0  0  0  0
  152.3792  142.8545  159.0835 N   0  0  0  0  0  0  0  0  0  0  0  0
  152.4585  144.2900  159.3439 C   0  0  0  0  0  0  0  0  0  0  0  0
  151.8718  144.6062  160.7323 C   0  0  0  0  0  0  0  0  0  0  0  0
  152.5568  143.8535  161.7291 O   0  0  0  0  0  0  0  0  0  0  0  0
  152.4539  142.4504  161.5081 C   0  0  0  0  0  0  0  0  0  0  0  0
  153.0639  142.1100  160.1381 C   0  0  0  0  0  0  0  0  0  0  0  0
  151.3453  142.9514  156.8060 C   0  0  0  0  0  0  0  0  0  0  0  0
  150.6212  142.4344  155.8732 N   0  0  0  0  0  0  0  0  0  0  0  0
  150.0366  141.1924  156.0579 N   0  0  0  0  0  0  0  0  0  0  0  0
  149.2615  140.6937  154.9040 C   0  0  2  0  0  0  0  0  0  0  0  0
  147.7598  140.6179  155.2469 C   0  0  0  0  0  0  0  0  0  0  0  0
  146.9607  140.1049  154.0388 C   0  0  0  0  0  0  0  0  0  0  0  0
  147.5214  138.7645  153.5339 C   0  0  0  0  0  0  0  0  0  0  0  0
  148.9634  138.8819  153.2233 N   0  3  0  0  0  0  0  0  0  0  0  0
  149.7676  139.3270  154.3823 C   0  0  0  0  0  0  0  0  0  0  0  0
  151.1529  140.5149  159.1377 H   0  0  0  0  0  0  0  0  0  0  0  0
  153.5012  144.6051  159.2929 H   0  0  0  0  0  0  0  0  0  0  0  0
  151.9188  144.8657  158.5932 H   0  0  0  0  0  0  0  0  0  0  0  0
  151.9793  145.6679  160.9541 H   0  0  0  0  0  0  0  0  0  0  0  0
  150.8048  144.3795  160.7621 H   0  0  0  0  0  0  0  0  0  0  0  0
  152.9891  141.9263  162.3000 H   0  0  0  0  0  0  0  0  0  0  0  0
  151.4109  142.1340  161.5610 H   0  0  0  0  0  0  0  0  0  0  0  0
  153.0347  141.0356  159.9611 H   0  0  0  0  0  0  0  0  0  0  0  0
  154.1193  142.3852  160.1278 H   0  0  0  0  0  0  0  0  0  0  0  0
  151.8162  143.9245  156.6731 H   0  0  0  0  0  0  0  0  0  0  0  0
  149.3667  141.3824  154.0638 H   0  0  0  0  0  0  0  0  0  0  0  0
  147.6005  139.9540  156.0977 H   0  0  0  0  0  0  0  0  0  0  0  0
  147.3905  141.6001  155.5446 H   0  0  0  0  0  0  0  0  0  0  0  0
  145.9098  139.9933  154.3073 H   0  0  0  0  0  0  0  0  0  0  0  0
  146.9976  140.8428  153.2363 H   0  0  0  0  0  0  0  0  0  0  0  0
  147.3775  137.9860  154.2844 H   0  0  0  0  0  0  0  0  0  0  0  0
  146.9890  138.4455  152.6378 H   0  0  0  0  0  0  0  0  0  0  0  0
  149.3065  137.9843  152.9121 H   0  0  0  0  0  0  0  0  0  0  0  0
  150.8127  139.3996  154.0801 H   0  0  0  0  0  0  0  0  0  0  0  0
  149.7084  138.5549  155.1507 H   0  0  0  0  0  0  0  0  0  0  0  0
  149.0784  139.5526  152.4767 H   0  0  0  0  0  0  0  0  0  0  0  0
  1  2  2  0  0  0  0
  2 13  1  0  0  0  0
  2  3  1  0  0  0  0
  3  4  2  0  0  0  0
  3 20  1  0  0  0  0
  4  5  1  0  0  0  0
  4 11  1  0  0  0  0
  5 10  1  0  0  0  0
  5  6  1  0  0  0  0
  6  7  1  0  0  0  0
  6 21  1  0  0  0  0
  6 22  1  0  0  0  0
  7  8  1  0  0  0  0
  7 23  1  0  0  0  0
  7 24  1  0  0  0  0
  8  9  1  0  0  0  0
  9 10  1  0  0  0  0
  9 25  1  0  0  0  0
  9 26  1  0  0  0  0
 10 27  1  0  0  0  0
 10 28  1  0  0  0  0
 11 12  2  0  0  0  0
 11 29  1  0  0  0  0
 12 13  1  0  0  0  0
 13 14  1  0  0  0  0
 14 19  1  0  0  0  0
 14 15  1  0  0  0  0
 14 30  1  0  0  0  0
 15 16  1  0  0  0  0
 15 31  1  0  0  0  0
 15 32  1  0  0  0  0
 16 17  1  0  0  0  0
 16 33  1  0  0  0  0
 16 34  1  0  0  0  0
 17 18  1  0  0  0  0
 17 35  1  0  0  0  0
 17 36  1  0  0  0  0
 18 19  1  0  0  0  0
 18 37  1  0  0  0  0
 18 40  1  0  0  0  0
 19 38  1  0  0  0  0
 19 39  1  0  0  0  0
M  CHG  1  18   1
M  END
> <s_m_source_file>
AV-unprocessed.smi

> <i_m_source_file_index>
2581

> <i_lp_mmshare_version>
43012

> <i_f3d_flags>
0

> <s_epik_input>
W0NIMl0xW0NIMl1PW0NIMl1bQ0gyXU4xYyhbY0hdYzI9TylbY0hdbm4yW0NAQEhdM1tDSDJdW0NIMl1bQ0gyXVtOSF1bQ0gyXTM=

> <s_epik_cmdline>
J2VwaWtfcHl0aG9uJywgJy1waCcsICc3LjAnLCAnLXRuJywgJzgnLCAnLW1hJywgJzIwMCcsICctbWV0YWxfYmluZGluZycsICctaW1hZScsICc8aW5maWxlLm1hZT4nLCAnLW9tYWUnLCAnPG91dGZpbGUubWFlPic=

> <r_lp_tautomer_probability>
1

> <r_epik_Ionization_Penalty>
0.00140529

> <r_epik_Ionization_Penalty_Charging>
0.00140528

> <r_epik_Ionization_Penalty_Neutral>
1.0684e-08

> <r_epik_State_Penalty>
0.000937322

> <r_epik_Charging_Adjusted_Penalty>
0.00234261

> <i_epik_Tot_Q>
1

> <i_epik_Tot_abs_Q>
1

> <r_epik_Metal_State_Penalty>
-0

> <b_epik_Metal_Only>
0

> <s_lp_Force_Field>
OPLS_2005

> <r_lp_Energy>
43.5577

> <b_lp_Chiralities_Consistent>
1

> <s_lp_Variant>
AV-unprocessed.smi:2581-1

> <Gold.Version>
5.8.1

> <Gold.Id.Protein>
6NUR|6NUR_protein|mol2

> <Gold.PLP.Fitness>
44.4607

> <Gold.PLP.PLP>
-36.3113

> <Gold.PLP.part.hbond>
-1.8585

> <Gold.PLP.part.metal>
0.0000

> <Gold.PLP.part.buried>
-3.8968

> <Gold.PLP.part.nonpolar>
-32.5649

> <Gold.PLP.part.repulsive>
1.7796

> <Gold.PLP.ligand.clash>
0.0000

> <Gold.PLP.ligand.torsion>
0.4141

> <Gold.PLP.Chemscore.Hbond>
2.9753

> <Gold.PLP.Chemscore.CHOScore>
0.0000

> <Gold.PLP.Chemscore.Metal>
0.0000

> <Gold.Chemscore.Hbonds>
donor molecule, donor type, donor heavy atom, donor atom, acceptor molecule, acceptor atom, score
      L1  H    18    37       P1  7948  1.90
      L1  H    18    40       P1  7957  0.91

> <Gold.PLP.Chemscore.Internal.Correction>
0.0520

> <Gold.Rescore>
     Score         DG    S(hbond)    S(metal)    S(lipo)     H(rot)  DE(clash)    DE(int)     intcor
     18.48     -20.63       1.93        0.00      96.36       1.00       0.49       1.66       ----

> <Gold.Chemscore.Fitness>
18.4782

> <Gold.Chemscore.DG>
-20.6307

> <Gold.Chemscore.ZeroCoef>
-5.4800

> <Gold.Chemscore.Hbond>
1.9273

> <Gold.Chemscore.Metal>
0.0000

> <Gold.Chemscore.Lipo>
96.3560

> <Gold.Chemscore.Internal_Hbond>
0.0000

> <Gold.Chemscore.DEClash>
0.4919

> <Gold.Chemscore.DEInternal>
1.6606

> <Gold.Chemscore.Rot>
1.0000

> <Gold.Chemscore.Internal.Correction>
   9.000000E+99

> <Gold.Chemscore.Hbonds>
donor molecule, donor type, donor heavy atom, donor atom, acceptor molecule, acceptor atom, score
      L1  H    18    37       P1  7948  0.83
      L1  H    18    40       P1  7957  0.86

> <Gold.Chemscore.Hbond.Weighted>
-6.4371

> <Gold.Chemscore.Metal.Weighted>
-0.0000

> <Gold.Chemscore.Lipo.Weighted>
-11.2737

> <Gold.Chemscore.Internal_Hbond.Weighted>
0.0000

> <Gold.Chemscore.DEClash.Weighted>
0.4919

> <Gold.Chemscore.DEInternal.Weighted>
1.6606

> <Gold.Chemscore.Rot.Weighted>
2.5600

> <Gold.Chemscore.Internal.Correction.Weighted>
   9.000000E+99

> <Gold.Protein.RotatedTorsions>
[ 6907 6896 6895 6894 ] final  149.87 input  -60.11 | X-H torsion
[ 7974 7965 7964 7962 ] final    3.61 input  175.53 | X-H torsion
[ 8008 7997 7996 7995 ] final -111.25 input   59.86 | X-H torsion
[ 10167 10162 10161 10158 ] final -175.66 input  -65.29 | X-H torsion
[ 10718 10713 10712 10709 ] final -127.12 input   66.30 | X-H torsion
[ 10763 10752 10751 10750 ] final    9.51 input  -60.55 | X-H torsion
[ 11005 11000 10999 10996 ] final  -92.46 input  -57.11 | X-H torsion

> <Gold.Protein.ActiveResidues>
 VAL166  LYS551  ARG553  GLY616  TRP617  ASP618  TYR619  PRO620  LYS621  CYS622 
 ASP623  PHE694  ASN695  SER759  ASP760  ASP761  ALA762  ILE779  LEU786  VAL792 
 PHE793  MET794  SER795  GLU796  ALA797  LYS798  CYS799  TRP800  GLU811  SER814 

> <Gold.Protein.RotatedAtoms>
  152.1221  133.4359  159.4680 H   0  0  0  0  0  0  0  0  0  0  0  0  # atno 6907 bound_to 6896
  150.6872  134.2522  159.4524 H   0  0  0  0  0  0  0  0  0  0  0  0  # atno 6908 bound_to 6896
  152.0399  134.9717  160.0624 H   0  0  0  0  0  0  0  0  0  0  0  0  # atno 6909 bound_to 6896
  146.2445  140.0659  142.8365 H   0  0  0  0  0  0  0  0  0  0  0  0  # atno 7974 bound_to 7965
  154.9870  140.0395  157.2303 H   0  0  0  0  0  0  0  0  0  0  0  0  # atno 8008 bound_to 7997
  154.7662  140.2793  155.6151 H   0  0  0  0  0  0  0  0  0  0  0  0  # atno 8009 bound_to 7997
  156.2913  140.2619  156.2454 H   0  0  0  0  0  0  0  0  0  0  0  0  # atno 8010 bound_to 7997
  139.5569  144.1966  152.1175 H   0  0  0  0  0  0  0  0  0  0  0  0  # atno 10167 bound_to 10162
  156.1827  130.6743  151.0325 H   0  0  0  0  0  0  0  0  0  0  0  0  # atno 10718 bound_to 10713
  153.2133  135.6872  153.8088 H   0  0  0  0  0  0  0  0  0  0  0  0  # atno 10763 bound_to 10752
  153.7313  135.3252  155.3287 H   0  0  0  0  0  0  0  0  0  0  0  0  # atno 10764 bound_to 10752
  154.8233  135.4636  154.0949 H   0  0  0  0  0  0  0  0  0  0  0  0  # atno 10765 bound_to 10752
  141.1521  133.7822  157.0023 H   0  0  0  0  0  0  0  0  0  0  0  0  # atno 11005 bound_to 11000
  145.0859  140.9252  143.4798 LP  0  0  0  0  0  0  0  0  0  0  0  0  # atno 17320 bound_to 7965
  145.0821  139.2952  143.5778 LP  0  0  0  0  0  0  0  0  0  0  0  0  # atno 17321 bound_to 7965
  140.1472  144.5148  150.6709 LP  0  0  0  0  0  0  0  0  0  0  0  0  # atno 17342 bound_to 10162
  140.6844  143.2342  151.5300 LP  0  0  0  0  0  0  0  0  0  0  0  0  # atno 17343 bound_to 10162
  157.6879  131.0819  150.7192 LP  0  0  0  0  0  0  0  0  0  0  0  0  # atno 17370 bound_to 10713
  156.7249  130.4692  149.5514 LP  0  0  0  0  0  0  0  0  0  0  0  0  # atno 17371 bound_to 10713
  140.0932  134.9580  157.1808 LP  0  0  0  0  0  0  0  0  0  0  0  0  # atno 17394 bound_to 11000
  140.3418  134.2696  155.7211 LP  0  0  0  0  0  0  0  0  0  0  0  0  # atno 17395 bound_to 11000

$$$$
