AV-unprocessed.smi:984|AV-procd|sdf|4317|dock5
  -GOLD-   22720 2223D 1   1.00000     0.00000
 Structure written by MMmdl.
 34 34  0  0  0  0  0  0  0  0  1 V2000
  144.6745  132.6536  150.6274 C   0  0  0  0  0  0  0  0  0  0  0  0
  145.2234  134.0727  150.8057 C   0  0  0  0  0  0  0  0  0  0  0  0
  146.0872  134.2186  152.0718 C   0  0  0  0  0  0  0  0  0  0  0  0
  147.3693  133.3636  152.0723 C   0  0  0  0  0  0  0  0  0  0  0  0
  148.3814  133.8921  152.9819 N   0  0  0  0  0  0  0  0  0  0  0  0
  148.7826  133.3038  154.1190 C   0  0  0  0  0  0  0  0  0  0  0  0
  148.3814  132.1992  154.4868 O   0  0  0  0  0  0  0  0  0  0  0  0
  149.7823  134.0840  154.9771 C   0  0  0  0  0  0  0  0  0  0  0  0
  150.1031  135.3558  154.3395 N   0  0  0  0  0  0  0  0  0  0  0  0
  150.9152  136.3030  154.8353 C   0  0  0  0  0  0  0  0  0  0  0  0
  151.6018  136.1533  155.8453 O   0  0  0  0  0  0  0  0  0  0  0  0
  150.9279  137.6369  154.0883 C   0  0  0  0  0  0  0  0  0  0  0  0
  151.3082  138.7181  154.9821 N   0  0  0  0  0  0  0  0  0  0  0  0
  152.3149  138.8099  155.8539 C   0  0  0  0  0  0  0  0  0  0  0  0
  152.3370  139.9513  156.5280 N   0  0  0  0  0  0  0  0  0  0  0  0
  151.2411  140.5593  155.9837 C   0  0  0  0  0  0  0  0  0  0  0  0
  150.5884  139.8633  155.0526 N   0  0  0  0  0  0  0  0  0  0  0  0
  144.0639  132.5841  149.7270 H   0  0  0  0  0  0  0  0  0  0  0  0
  144.0523  132.3619  151.4739 H   0  0  0  0  0  0  0  0  0  0  0  0
  145.4830  131.9276  150.5376 H   0  0  0  0  0  0  0  0  0  0  0  0
  145.8050  134.3333  149.9212 H   0  0  0  0  0  0  0  0  0  0  0  0
  144.3918  134.7771  150.8468 H   0  0  0  0  0  0  0  0  0  0  0  0
  146.3732  135.2650  152.1842 H   0  0  0  0  0  0  0  0  0  0  0  0
  145.4883  133.9749  152.9502 H   0  0  0  0  0  0  0  0  0  0  0  0
  147.1332  132.3239  152.3045 H   0  0  0  0  0  0  0  0  0  0  0  0
  147.7978  133.3578  151.0699 H   0  0  0  0  0  0  0  0  0  0  0  0
  148.7722  134.7945  152.7526 H   0  0  0  0  0  0  0  0  0  0  0  0
  149.3664  134.2377  155.9740 H   0  0  0  0  0  0  0  0  0  0  0  0
  150.7040  133.5148  155.1034 H   0  0  0  0  0  0  0  0  0  0  0  0
  149.5894  135.5780  153.4990 H   0  0  0  0  0  0  0  0  0  0  0  0
  151.6383  137.6003  153.2612 H   0  0  0  0  0  0  0  0  0  0  0  0
  149.9424  137.8372  153.6648 H   0  0  0  0  0  0  0  0  0  0  0  0
  153.0387  138.0223  156.0048 H   0  0  0  0  0  0  0  0  0  0  0  0
  150.9130  141.5432  156.2851 H   0  0  0  0  0  0  0  0  0  0  0  0
  1  2  1  0  0  0  0
  1 18  1  0  0  0  0
  1 19  1  0  0  0  0
  1 20  1  0  0  0  0
  2  3  1  0  0  0  0
  2 21  1  0  0  0  0
  2 22  1  0  0  0  0
  3  4  1  0  0  0  0
  3 23  1  0  0  0  0
  3 24  1  0  0  0  0
  4  5  1  0  0  0  0
  4 25  1  0  0  0  0
  4 26  1  0  0  0  0
  5  6  1  0  0  0  0
  5 27  1  0  0  0  0
  6  7  2  0  0  0  0
  6  8  1  0  0  0  0
  8  9  1  0  0  0  0
  8 28  1  0  0  0  0
  8 29  1  0  0  0  0
  9 10  1  0  0  0  0
  9 30  1  0  0  0  0
 10 11  2  0  0  0  0
 10 12  1  0  0  0  0
 12 13  1  0  0  0  0
 12 31  1  0  0  0  0
 12 32  1  0  0  0  0
 13 17  1  0  0  0  0
 13 14  1  0  0  0  0
 14 15  2  0  0  0  0
 14 33  1  0  0  0  0
 15 16  1  0  0  0  0
 16 17  2  0  0  0  0
 16 34  1  0  0  0  0
M  END
> <s_m_source_file>
AV-unprocessed.smi

> <i_m_source_file_index>
984

> <i_lp_mmshare_version>
43012

> <i_f3d_flags>
0

> <s_epik_input>
W0NIM11bQ0gyXVtDSDJdW0NIMl1bTkhdQyg9TylbQ0gyXVtOSF1DKD1PKVtDSDJdbjFbY0hdbltjSF1uMQ==

> <s_epik_cmdline>
J2VwaWtfcHl0aG9uJywgJy1waCcsICc3LjAnLCAnLXRuJywgJzgnLCAnLW1hJywgJzIwMCcsICctbWV0YWxfYmluZGluZycsICctaW1hZScsICc8aW5maWxlLm1hZT4nLCAnLW9tYWUnLCAnPG91dGZpbGUubWFlPic=

> <r_lp_tautomer_probability>
1

> <r_epik_Ionization_Penalty>
7.27004e-06

> <r_epik_Ionization_Penalty_Charging>
0

> <r_epik_Ionization_Penalty_Neutral>
7.27004e-06

> <r_epik_State_Penalty>
-0

> <r_epik_Charging_Adjusted_Penalty>
0

> <i_epik_Tot_Q>
0

> <i_epik_Tot_abs_Q>
0

> <r_epik_Metal_State_Penalty>
-0

> <b_epik_Metal_Only>
0

> <s_lp_Force_Field>
OPLS_2005

> <r_lp_Energy>
2.39519

> <b_lp_Chiralities_Consistent>
1

> <s_lp_Variant>
AV-unprocessed.smi:984-1

> <Gold.Version>
5.8.1

> <Gold.Id.Protein>
6NUR|6NUR_protein|mol2

> <Gold.PLP.Fitness>
42.7643

> <Gold.PLP.PLP>
-30.1208

> <Gold.PLP.part.hbond>
-5.5733

> <Gold.PLP.part.metal>
0.0000

> <Gold.PLP.part.buried>
0.2808

> <Gold.PLP.part.nonpolar>
-24.2981

> <Gold.PLP.part.repulsive>
0.1751

> <Gold.PLP.ligand.clash>
0.0000

> <Gold.PLP.ligand.torsion>
0.6344

> <Gold.PLP.Chemscore.Hbond>
4.6000

> <Gold.PLP.Chemscore.CHOScore>
0.0000

> <Gold.PLP.Chemscore.Metal>
0.0000

> <Gold.Chemscore.Hbonds>
donor molecule, donor type, donor heavy atom, donor atom, acceptor molecule, acceptor atom, score
      L1  H     5    27       P1  7948  0.75
      L1  H     9    30       P1  7948  0.80
      P1  H  7989  7998       L1    17  0.34
      P1  H  7997  8008       L1    15  0.70
      P1  H 10752 10765       L1    11  1.00

> <Gold.PLP.Chemscore.Internal.Correction>
0.1123

> <Gold.Rescore>
     Score         DG    S(hbond)    S(metal)    S(lipo)     H(rot)  DE(clash)    DE(int)     intcor
      9.62     -11.70       3.56        0.00      30.41       3.61       0.03       2.05       ----

> <Gold.Chemscore.Fitness>
9.6203

> <Gold.Chemscore.DG>
-11.6990

> <Gold.Chemscore.ZeroCoef>
-5.4800

> <Gold.Chemscore.Hbond>
3.5647

> <Gold.Chemscore.Metal>
0.0000

> <Gold.Chemscore.Lipo>
30.4057

> <Gold.Chemscore.Internal_Hbond>
0.0000

> <Gold.Chemscore.DEClash>
0.0256

> <Gold.Chemscore.DEInternal>
2.0531

> <Gold.Chemscore.Rot>
3.6111

> <Gold.Chemscore.Internal.Correction>
   9.000000E+99

> <Gold.Chemscore.Hbonds>
donor molecule, donor type, donor heavy atom, donor atom, acceptor molecule, acceptor atom, score
      L1  H     5    27       P1  7948  0.09
      L1  H     9    30       P1  7948  0.12
      P1  H  7997  8008       L1    15  0.07
      P1  H 10752 10765       L1    11  0.25

> <Gold.Chemscore.Hbond.Weighted>
-11.9059

> <Gold.Chemscore.Metal.Weighted>
-0.0000

> <Gold.Chemscore.Lipo.Weighted>
-3.5575

> <Gold.Chemscore.Internal_Hbond.Weighted>
0.0000

> <Gold.Chemscore.DEClash.Weighted>
0.0256

> <Gold.Chemscore.DEInternal.Weighted>
2.0531

> <Gold.Chemscore.Rot.Weighted>
9.2444

> <Gold.Chemscore.Internal.Correction.Weighted>
   9.000000E+99

> <Gold.Protein.RotatedTorsions>
[ 6907 6896 6895 6894 ] final  -43.96 input  -60.11 | X-H torsion
[ 7974 7965 7964 7962 ] final   24.14 input  175.53 | X-H torsion
[ 8008 7997 7996 7995 ] final  -49.23 input   59.86 | X-H torsion
[ 10167 10162 10161 10158 ] final   33.73 input  -65.29 | X-H torsion
[ 10718 10713 10712 10709 ] final  -14.78 input   66.30 | X-H torsion
[ 10763 10752 10751 10750 ] final -147.00 input  -60.55 | X-H torsion
[ 11005 11000 10999 10996 ] final   83.38 input  -57.11 | X-H torsion

> <Gold.Protein.ActiveResidues>
 VAL166  LYS551  ARG553  GLY616  TRP617  ASP618  TYR619  PRO620  LYS621  CYS622 
 ASP623  PHE694  ASN695  SER759  ASP760  ASP761  ALA762  ILE779  LEU786  VAL792 
 PHE793  MET794  SER795  GLU796  ALA797  LYS798  CYS799  TRP800  GLU811  SER814 

> <Gold.Protein.RotatedAtoms>
  150.9381  134.8792  159.7594 H   0  0  0  0  0  0  0  0  0  0  0  0  # atno 6907 bound_to 6896
  152.5068  134.3981  159.9417 H   0  0  0  0  0  0  0  0  0  0  0  0  # atno 6908 bound_to 6896
  151.4004  133.3719  159.2766 H   0  0  0  0  0  0  0  0  0  0  0  0  # atno 6909 bound_to 6896
  146.1951  139.7646  142.8803 H   0  0  0  0  0  0  0  0  0  0  0  0  # atno 7974 bound_to 7965
  154.4041  140.1302  156.4468 H   0  0  0  0  0  0  0  0  0  0  0  0  # atno 8008 bound_to 7997
  155.7405  140.3490  155.5082 H   0  0  0  0  0  0  0  0  0  0  0  0  # atno 8009 bound_to 7997
  155.9043  140.1025  157.1317 H   0  0  0  0  0  0  0  0  0  0  0  0  # atno 8010 bound_to 7997
  140.4380  144.1229  150.6169 H   0  0  0  0  0  0  0  0  0  0  0  0  # atno 10167 bound_to 10162
  156.6111  130.4850  149.6201 H   0  0  0  0  0  0  0  0  0  0  0  0  # atno 10718 bound_to 10713
  154.8308  135.3372  154.6749 H   0  0  0  0  0  0  0  0  0  0  0  0  # atno 10763 bound_to 10752
  153.7369  135.6948  153.4980 H   0  0  0  0  0  0  0  0  0  0  0  0  # atno 10764 bound_to 10752
  153.2271  135.4429  155.0506 H   0  0  0  0  0  0  0  0  0  0  0  0  # atno 10765 bound_to 10752
  139.9033  134.8140  156.2301 H   0  0  0  0  0  0  0  0  0  0  0  0  # atno 11005 bound_to 11000
  145.3668  141.0336  143.3254 LP  0  0  0  0  0  0  0  0  0  0  0  0  # atno 17320 bound_to 7965
  144.8565  139.5242  143.6832 LP  0  0  0  0  0  0  0  0  0  0  0  0  # atno 17321 bound_to 7965
  140.4351  143.2551  151.9545 LP  0  0  0  0  0  0  0  0  0  0  0  0  # atno 17342 bound_to 10162
  139.4788  144.5707  151.8093 LP  0  0  0  0  0  0  0  0  0  0  0  0  # atno 17343 bound_to 10162
  156.2389  130.6839  151.1536 LP  0  0  0  0  0  0  0  0  0  0  0  0  # atno 17370 bound_to 10713
  157.7254  131.0653  150.5955 LP  0  0  0  0  0  0  0  0  0  0  0  0  # atno 17371 bound_to 10713
  141.0351  133.6968  156.1498 LP  0  0  0  0  0  0  0  0  0  0  0  0  # atno 17394 bound_to 11000
  140.7039  134.4534  157.5585 LP  0  0  0  0  0  0  0  0  0  0  0  0  # atno 17395 bound_to 11000

$$$$
