AV-unprocessed.smi:1570|AV-procd|sdf|6318|dock4
  -GOLD-   22720 6523D 1   1.00000     0.00000
 Structure written by MMmdl.
 52 54  0  0  0  0  0  0  0  0  2 V2000
  154.8947  140.9160  160.5791 C   0  0  0  0  0  0  0  0  0  0  0  0
  153.4940  140.3448  160.3234 C   0  0  0  0  0  0  0  0  0  0  0  0
  152.7102  141.2323  159.4683 N   0  0  0  0  0  0  0  0  0  0  0  0
  152.3207  140.9881  158.1951 C   0  0  0  0  0  0  0  0  0  0  0  0
  152.5547  139.9663  157.5501 O   0  0  0  0  0  0  0  0  0  0  0  0
  151.6622  142.0802  157.7392 N   0  0  0  0  0  0  0  0  0  0  0  0
  151.1130  142.2741  156.3975 C   0  0  0  0  0  0  0  0  0  0  0  0
  150.3634  141.0236  155.8942 C   0  0  2  0  0  0  0  0  0  0  0  0
  151.3186  140.1276  155.3634 O   0  0  0  0  0  0  0  0  0  0  0  0
  149.3226  141.3391  154.7980 C   0  0  0  0  0  0  0  0  0  0  0  0
  148.1196  142.0239  155.3330 N   0  3  1  0  0  0  0  0  0  0  0  0
  147.1053  142.3300  154.2941 C   0  0  0  0  0  0  0  0  0  0  0  0
  145.9073  143.0757  154.9106 C   0  0  1  0  0  0  0  0  0  0  0  0
  144.8001  143.3343  153.8827 C   0  0  0  0  0  0  0  0  0  0  0  0
  145.3605  142.2884  155.9630 O   0  0  0  0  0  0  0  0  0  0  0  0
  146.2913  142.0568  157.0148 C   0  0  1  0  0  0  0  0  0  0  0  0
  145.5727  141.2845  158.1267 C   0  0  0  0  0  0  0  0  0  0  0  0
  147.4990  141.2815  156.4551 C   0  0  0  0  0  0  0  0  0  0  0  0
  151.6399  143.0549  158.7471 C   0  0  0  0  0  0  0  0  0  0  0  0
  151.0971  144.3515  158.7675 C   0  0  0  0  0  0  0  0  0  0  0  0
  151.2569  145.1006  159.9567 C   0  0  0  0  0  0  0  0  0  0  0  0
  151.9405  144.5543  161.0738 C   0  0  0  0  0  0  0  0  0  0  0  0
  152.4775  143.2463  161.0261 C   0  0  0  0  0  0  0  0  0  0  0  0
  152.3017  142.5227  159.8337 C   0  0  0  0  0  0  0  0  0  0  0  0
  155.4742  140.2489  161.2175 H   0  0  0  0  0  0  0  0  0  0  0  0
  154.8412  141.8860  161.0743 H   0  0  0  0  0  0  0  0  0  0  0  0
  155.4454  141.0448  159.6467 H   0  0  0  0  0  0  0  0  0  0  0  0
  153.5741  139.3594  159.8619 H   0  0  0  0  0  0  0  0  0  0  0  0
  152.9733  140.1935  161.2693 H   0  0  0  0  0  0  0  0  0  0  0  0
  150.4562  143.1456  156.3761 H   0  0  0  0  0  0  0  0  0  0  0  0
  151.9408  142.5088  155.7269 H   0  0  0  0  0  0  0  0  0  0  0  0
  149.8925  140.5328  156.7451 H   0  0  0  0  0  0  0  0  0  0  0  0
  150.8965  139.2979  155.1987 H   0  0  0  0  0  0  0  0  0  0  0  0
  149.7517  141.9641  154.0150 H   0  0  0  0  0  0  0  0  0  0  0  0
  149.0357  140.4043  154.3131 H   0  0  0  0  0  0  0  0  0  0  0  0
  147.5420  142.9386  153.5030 H   0  0  0  0  0  0  0  0  0  0  0  0
  146.7685  141.4010  153.8307 H   0  0  0  0  0  0  0  0  0  0  0  0
  146.2374  144.0349  155.3135 H   0  0  0  0  0  0  0  0  0  0  0  0
  145.1651  143.9474  153.0582 H   0  0  0  0  0  0  0  0  0  0  0  0
  143.9595  143.8580  154.3383 H   0  0  0  0  0  0  0  0  0  0  0  0
  144.4232  142.4005  153.4643 H   0  0  0  0  0  0  0  0  0  0  0  0
  146.6243  143.0152  157.4177 H   0  0  0  0  0  0  0  0  0  0  0  0
  146.2421  141.0870  158.9642 H   0  0  0  0  0  0  0  0  0  0  0  0
  145.1979  140.3269  157.7643 H   0  0  0  0  0  0  0  0  0  0  0  0
  144.7229  141.8513  158.5078 H   0  0  0  0  0  0  0  0  0  0  0  0
  147.1889  140.2938  156.1097 H   0  0  0  0  0  0  0  0  0  0  0  0
  148.2350  141.1290  157.2457 H   0  0  0  0  0  0  0  0  0  0  0  0
  150.5799  144.7631  157.9134 H   0  0  0  0  0  0  0  0  0  0  0  0
  150.8547  146.1014  160.0146 H   0  0  0  0  0  0  0  0  0  0  0  0
  152.0531  145.1443  161.9714 H   0  0  0  0  0  0  0  0  0  0  0  0
  153.0009  142.8267  161.8723 H   0  0  0  0  0  0  0  0  0  0  0  0
  148.4366  142.9038  155.7152 H   0  0  0  0  0  0  0  0  0  0  0  0
  1  2  1  0  0  0  0
  1 25  1  0  0  0  0
  1 26  1  0  0  0  0
  1 27  1  0  0  0  0
  2  3  1  0  0  0  0
  2 28  1  0  0  0  0
  2 29  1  0  0  0  0
  3 24  1  0  0  0  0
  3  4  1  0  0  0  0
  4  5  2  0  0  0  0
  4  6  1  0  0  0  0
  6  7  1  0  0  0  0
  6 19  1  0  0  0  0
  7  8  1  0  0  0  0
  7 30  1  0  0  0  0
  7 31  1  0  0  0  0
  8  9  1  0  0  0  0
  8 10  1  0  0  0  0
  8 32  1  0  0  0  0
  9 33  1  0  0  0  0
 10 11  1  0  0  0  0
 10 34  1  0  0  0  0
 10 35  1  0  0  0  0
 11 18  1  0  0  0  0
 11 12  1  0  0  0  0
 11 52  1  0  0  0  0
 12 13  1  0  0  0  0
 12 36  1  0  0  0  0
 12 37  1  0  0  0  0
 13 14  1  0  0  0  0
 13 15  1  0  0  0  0
 13 38  1  0  0  0  0
 14 39  1  0  0  0  0
 14 40  1  0  0  0  0
 14 41  1  0  0  0  0
 15 16  1  0  0  0  0
 16 17  1  0  0  0  0
 16 18  1  0  0  0  0
 16 42  1  0  0  0  0
 17 43  1  0  0  0  0
 17 44  1  0  0  0  0
 17 45  1  0  0  0  0
 18 46  1  0  0  0  0
 18 47  1  0  0  0  0
 19 24  2  0  0  0  0
 19 20  1  0  0  0  0
 20 21  2  0  0  0  0
 20 48  1  0  0  0  0
 21 22  1  0  0  0  0
 21 49  1  0  0  0  0
 22 23  2  0  0  0  0
 22 50  1  0  0  0  0
 23 24  1  0  0  0  0
 23 51  1  0  0  0  0
M  CHG  1  11   1
M  END
> <s_m_source_file>
AV-unprocessed.smi

> <i_m_source_file_index>
1570

> <i_lp_mmshare_version>
43012

> <i_f3d_flags>
0

> <s_epik_input>
W2NIXTFbY0hdW2NIXVtjSF1jKGMxMiluKFtDSDJdW0NIM10pYyg9TyluMltDSDJdW0NASF0oW09IXSlbQ0gyXU4zW0NIMl1bQ0BASF0oW0NIM10pT1tDQEBIXShbQ0gzXSlbQ0gyXTM=

> <s_epik_cmdline>
J2VwaWtfcHl0aG9uJywgJy1waCcsICc3LjAnLCAnLXRuJywgJzgnLCAnLW1hJywgJzIwMCcsICctbWV0YWxfYmluZGluZycsICctaW1hZScsICc8aW5maWxlLm1hZT4nLCAnLW9tYWUnLCAnPG91dGZpbGUubWFlPic=

> <r_epik_Ionization_Penalty>
0.706332

> <r_epik_Ionization_Penalty_Charging>
0.706318

> <r_epik_Ionization_Penalty_Neutral>
1.42224e-05

> <r_epik_State_Penalty>
0.729493

> <r_epik_Charging_Adjusted_Penalty>
1.43581

> <i_epik_Tot_Q>
1

> <i_epik_Tot_abs_Q>
1

> <r_epik_Metal_State_Penalty>
0.729493

> <b_epik_Metal_Only>
0

> <s_lp_Force_Field>
OPLS_2005

> <r_lp_Energy>
50.1879

> <b_lp_Chiralities_Consistent>
1

> <s_lp_Variant>
AV-unprocessed.smi:1570-7

> <Gold.Version>
5.8.1

> <Gold.Id.Protein>
6NUR|6NUR_protein|mol2

> <Gold.PLP.Fitness>
61.3390

> <Gold.PLP.PLP>
-50.4261

> <Gold.PLP.part.hbond>
-3.0000

> <Gold.PLP.part.metal>
0.0000

> <Gold.PLP.part.buried>
-6.3299

> <Gold.PLP.part.nonpolar>
-41.1246

> <Gold.PLP.part.repulsive>
0.2049

> <Gold.PLP.ligand.clash>
0.0000

> <Gold.PLP.ligand.torsion>
0.6141

> <Gold.PLP.Chemscore.Hbond>
4.0000

> <Gold.PLP.Chemscore.CHOScore>
0.0000

> <Gold.PLP.Chemscore.Metal>
0.0000

> <Gold.Chemscore.Hbonds>
donor molecule, donor type, donor heavy atom, donor atom, acceptor molecule, acceptor atom, score
      L1  H    11    52       P1  8028  2.00
      P1  H  7989  7998       L1     9  1.00
      P1  H  7997  8009       L1     5  0.93

> <Gold.PLP.Chemscore.Internal.Correction>
0.1412

> <Gold.Rescore>
     Score         DG    S(hbond)    S(metal)    S(lipo)     H(rot)  DE(clash)    DE(int)     intcor
     21.18     -22.18       2.40        0.00     120.73       2.13       0.14       0.86       ----

> <Gold.Chemscore.Fitness>
21.1764

> <Gold.Chemscore.DG>
-22.1845

> <Gold.Chemscore.ZeroCoef>
-5.4800

> <Gold.Chemscore.Hbond>
2.4048

> <Gold.Chemscore.Metal>
0.0000

> <Gold.Chemscore.Lipo>
120.7345

> <Gold.Chemscore.Internal_Hbond>
0.0000

> <Gold.Chemscore.DEClash>
0.1442

> <Gold.Chemscore.DEInternal>
0.8639

> <Gold.Chemscore.Rot>
2.1303

> <Gold.Chemscore.Internal.Correction>
   9.000000E+99

> <Gold.Chemscore.Hbonds>
donor molecule, donor type, donor heavy atom, donor atom, acceptor molecule, acceptor atom, score
      L1  H    11    52       P1  8028  0.97
      P1  H  7989  7998       L1     9  0.16
      P1  H  7997  8009       L1     5  0.66

> <Gold.Chemscore.Hbond.Weighted>
-8.0321

> <Gold.Chemscore.Metal.Weighted>
-0.0000

> <Gold.Chemscore.Lipo.Weighted>
-14.1259

> <Gold.Chemscore.Internal_Hbond.Weighted>
0.0000

> <Gold.Chemscore.DEClash.Weighted>
0.1442

> <Gold.Chemscore.DEInternal.Weighted>
0.8639

> <Gold.Chemscore.Rot.Weighted>
5.4535

> <Gold.Chemscore.Internal.Correction.Weighted>
   9.000000E+99

> <Gold.Protein.RotatedTorsions>
[ 6907 6896 6895 6894 ] final  -39.69 input  -60.11 | X-H torsion
[ 7974 7965 7964 7962 ] final   55.57 input  175.53 | X-H torsion
[ 8008 7997 7996 7995 ] final -173.46 input   59.86 | X-H torsion
[ 10167 10162 10161 10158 ] final   96.63 input  -65.29 | X-H torsion
[ 10718 10713 10712 10709 ] final  157.55 input   66.30 | X-H torsion
[ 10763 10752 10751 10750 ] final -169.23 input  -60.55 | X-H torsion
[ 11005 11000 10999 10996 ] final  116.62 input  -57.11 | X-H torsion

> <Gold.Protein.ActiveResidues>
 VAL166  LYS551  ARG553  GLY616  TRP617  ASP618  TYR619  PRO620  LYS621  CYS622 
 ASP623  PHE694  ASN695  SER759  ASP760  ASP761  ALA762  ILE779  LEU786  VAL792 
 PHE793  MET794  SER795  GLU796  ALA797  LYS798  CYS799  TRP800  GLU811  SER814 

> <Gold.Protein.RotatedAtoms>
  150.9873  134.9216  159.7878 H   0  0  0  0  0  0  0  0  0  0  0  0  # atno 6907 bound_to 6896
  152.5240  134.3329  159.9199 H   0  0  0  0  0  0  0  0  0  0  0  0  # atno 6908 bound_to 6896
  151.3335  133.3949  159.2699 H   0  0  0  0  0  0  0  0  0  0  0  0  # atno 6909 bound_to 6896
  145.9489  139.3955  143.0318 H   0  0  0  0  0  0  0  0  0  0  0  0  # atno 7974 bound_to 7965
  155.9577  140.1138  157.0922 H   0  0  0  0  0  0  0  0  0  0  0  0  # atno 8008 bound_to 7997
  154.4124  140.1188  156.5204 H   0  0  0  0  0  0  0  0  0  0  0  0  # atno 8009 bound_to 7997
  155.6760  140.3473  155.4839 H   0  0  0  0  0  0  0  0  0  0  0  0  # atno 8010 bound_to 7997
  139.7876  144.6864  150.9937 H   0  0  0  0  0  0  0  0  0  0  0  0  # atno 10167 bound_to 10162
  157.1899  131.0652  151.2085 H   0  0  0  0  0  0  0  0  0  0  0  0  # atno 10718 bound_to 10713
  154.6545  135.2916  154.9945 H   0  0  0  0  0  0  0  0  0  0  0  0  # atno 10763 bound_to 10752
  154.1027  135.6574  153.4875 H   0  0  0  0  0  0  0  0  0  0  0  0  # atno 10764 bound_to 10752
  153.0394  135.5246  154.7467 H   0  0  0  0  0  0  0  0  0  0  0  0  # atno 10765 bound_to 10752
  139.9047  134.9600  156.7226 H   0  0  0  0  0  0  0  0  0  0  0  0  # atno 11005 bound_to 11000
  145.8198  140.9685  143.0905 LP  0  0  0  0  0  0  0  0  0  0  0  0  # atno 17320 bound_to 7965
  144.6792  140.0026  143.7484 LP  0  0  0  0  0  0  0  0  0  0  0  0  # atno 17321 bound_to 7965
  140.7820  143.4415  151.0544 LP  0  0  0  0  0  0  0  0  0  0  0  0  # atno 17342 bound_to 10162
  139.8094  143.7973  152.3170 LP  0  0  0  0  0  0  0  0  0  0  0  0  # atno 17343 bound_to 10162
  157.3870  130.7262  149.6670 LP  0  0  0  0  0  0  0  0  0  0  0  0  # atno 17370 bound_to 10713
  155.9713  130.4157  150.4193 LP  0  0  0  0  0  0  0  0  0  0  0  0  # atno 17371 bound_to 10713
  140.6988  133.9324  155.8011 LP  0  0  0  0  0  0  0  0  0  0  0  0  # atno 17394 bound_to 11000
  141.0387  134.0653  157.3928 LP  0  0  0  0  0  0  0  0  0  0  0  0  # atno 17395 bound_to 11000

$$$$
