AV-unprocessed.smi:227|AV-procd|sdf|1736|dock3
  -GOLD-   2262020233D 1   1.00000     0.00000
 Structure written by MMmdl.
 54 58  0  0  0  0  0  0  0  0  1 V2000
  149.2180  130.0439  154.6459 O   0  0  0  0  0  0  0  0  0  0  0  0
  149.7271  131.3423  154.8734 C   0  0  0  0  0  0  0  0  0  0  0  0
  148.6744  132.4377  154.5609 C   0  0  1  0  0  0  0  0  0  0  0  0
  149.1842  133.8626  154.9040 C   0  0  0  0  0  0  0  0  0  0  0  0
  149.0537  134.2087  156.3081 N   0  0  0  0  0  0  0  0  0  0  0  0
  149.8780  135.0424  157.0255 C   0  0  0  0  0  0  0  0  0  0  0  0
  149.5484  135.2028  158.2773 N   0  0  0  0  0  0  0  0  0  0  0  0
  148.4054  134.4265  158.4404 C   0  0  0  0  0  0  0  0  0  0  0  0
  147.5220  134.1520  159.5278 C   0  0  0  0  0  0  0  0  0  0  0  0
  147.6407  134.6615  160.7861 N   0  0  0  0  0  0  0  0  0  0  0  0
  147.4142  136.0706  161.0738 C   0  0  2  0  0  0  0  0  0  0  0  0
  147.8435  136.1784  162.5473 C   0  0  0  0  0  0  0  0  0  0  0  0
  147.3984  134.8139  163.0918 C   0  0  0  0  0  0  0  0  0  0  0  0
  146.7558  134.1847  161.8413 C   0  0  1  0  0  0  0  0  0  0  0  0
  145.4023  134.8580  161.4949 C   0  0  1  0  0  0  0  0  0  0  0  0
  144.3521  134.8980  162.6202 C   0  0  0  0  0  0  0  0  0  0  0  0
  143.2064  135.5974  162.1831 O   0  0  0  0  0  0  0  0  0  0  0  0
  145.8823  136.2328  160.9907 C   0  0  0  0  0  0  0  0  0  0  0  0
  146.4915  133.2983  159.2875 N   0  0  0  0  0  0  0  0  0  0  0  0
  146.3171  132.7629  158.0769 C   0  0  0  0  0  0  0  0  0  0  0  0
  147.0479  132.9375  156.9759 N   0  0  0  0  0  0  0  0  0  0  0  0
  148.0917  133.7833  157.2072 C   0  0  0  0  0  0  0  0  0  0  0  0
  148.2209  132.3647  153.0797 C   0  0  1  0  0  0  0  0  0  0  0  0
  147.2064  131.2622  152.7729 C   0  0  0  0  0  0  0  0  0  0  0  0
  146.2605  131.8719  151.7337 C   0  0  0  0  0  0  0  0  0  0  0  0
  146.8214  133.1340  151.4091 O   0  0  0  0  0  0  0  0  0  0  0  0
  147.4900  133.6073  152.5640 C   0  0  0  0  0  0  0  0  0  0  0  0
  148.7066  129.7859  155.3977 H   0  0  0  0  0  0  0  0  0  0  0  0
  150.0780  131.4247  155.9026 H   0  0  0  0  0  0  0  0  0  0  0  0
  150.6065  131.4412  154.2385 H   0  0  0  0  0  0  0  0  0  0  0  0
  147.7932  132.2405  155.1737 H   0  0  0  0  0  0  0  0  0  0  0  0
  150.2312  133.9665  154.6159 H   0  0  0  0  0  0  0  0  0  0  0  0
  148.6356  134.6144  154.3368 H   0  0  0  0  0  0  0  0  0  0  0  0
  150.7338  135.5342  156.5864 H   0  0  0  0  0  0  0  0  0  0  0  0
  147.9630  136.7745  160.4511 H   0  0  0  0  0  0  0  0  0  0  0  0
  148.9251  136.2898  162.6329 H   0  0  0  0  0  0  0  0  0  0  0  0
  147.3741  137.0164  163.0638 H   0  0  0  0  0  0  0  0  0  0  0  0
  148.2675  134.2333  163.4038 H   0  0  0  0  0  0  0  0  0  0  0  0
  146.7300  134.8858  163.9486 H   0  0  0  0  0  0  0  0  0  0  0  0
  146.6841  133.0995  161.9213 H   0  0  0  0  0  0  0  0  0  0  0  0
  144.9683  134.3125  160.6547 H   0  0  0  0  0  0  0  0  0  0  0  0
  144.0557  133.8866  162.8989 H   0  0  0  0  0  0  0  0  0  0  0  0
  144.7362  135.3865  163.5153 H   0  0  0  0  0  0  0  0  0  0  0  0
  142.9140  136.1607  162.8833 H   0  0  0  0  0  0  0  0  0  0  0  0
  145.5213  137.0670  161.5935 H   0  0  0  0  0  0  0  0  0  0  0  0
  145.5577  136.3984  159.9626 H   0  0  0  0  0  0  0  0  0  0  0  0
  145.4699  132.1008  157.9762 H   0  0  0  0  0  0  0  0  0  0  0  0
  149.0950  132.2076  152.4456 H   0  0  0  0  0  0  0  0  0  0  0  0
  147.7016  130.3695  152.3893 H   0  0  0  0  0  0  0  0  0  0  0  0
  146.6419  130.9724  153.6603 H   0  0  0  0  0  0  0  0  0  0  0  0
  146.1609  131.2511  150.8431 H   0  0  0  0  0  0  0  0  0  0  0  0
  145.2667  132.0186  152.1592 H   0  0  0  0  0  0  0  0  0  0  0  0
  146.7588  133.9709  153.2884 H   0  0  0  0  0  0  0  0  0  0  0  0
  148.1664  134.4249  152.3143 H   0  0  0  0  0  0  0  0  0  0  0  0
  1  2  1  0  0  0  0
  1 28  1  0  0  0  0
  2  3  1  0  0  0  0
  2 29  1  0  0  0  0
  2 30  1  0  0  0  0
  3  4  1  0  0  0  0
  3 23  1  0  0  0  0
  3 31  1  0  0  0  0
  4  5  1  0  0  0  0
  4 32  1  0  0  0  0
  4 33  1  0  0  0  0
  5 22  1  0  0  0  0
  5  6  1  0  0  0  0
  6  7  2  0  0  0  0
  6 34  1  0  0  0  0
  7  8  1  0  0  0  0
  8 22  2  0  0  0  0
  8  9  1  0  0  0  0
  9 10  1  0  0  0  0
  9 19  2  0  0  0  0
 10 14  1  0  0  0  0
 10 11  1  0  0  0  0
 11 18  1  0  0  0  0
 11 12  1  0  0  0  0
 11 35  1  0  0  0  0
 12 13  1  0  0  0  0
 12 36  1  0  0  0  0
 12 37  1  0  0  0  0
 13 14  1  0  0  0  0
 13 38  1  0  0  0  0
 13 39  1  0  0  0  0
 14 15  1  0  0  0  0
 14 40  1  0  0  0  0
 15 16  1  0  0  0  0
 15 18  1  0  0  0  0
 15 41  1  0  0  0  0
 16 17  1  0  0  0  0
 16 42  1  0  0  0  0
 16 43  1  0  0  0  0
 17 44  1  0  0  0  0
 18 45  1  0  0  0  0
 18 46  1  0  0  0  0
 19 20  1  0  0  0  0
 20 21  2  0  0  0  0
 20 47  1  0  0  0  0
 21 22  1  0  0  0  0
 23 27  1  0  0  0  0
 23 24  1  0  0  0  0
 23 48  1  0  0  0  0
 24 25  1  0  0  0  0
 24 49  1  0  0  0  0
 24 50  1  0  0  0  0
 25 26  1  0  0  0  0
 25 51  1  0  0  0  0
 25 52  1  0  0  0  0
 26 27  1  0  0  0  0
 27 53  1  0  0  0  0
 27 54  1  0  0  0  0
M  END
> <s_m_source_file>
AV-unprocessed.smi

> <i_m_source_file_index>
227

> <i_lp_mmshare_version>
43012

> <i_f3d_flags>
0

> <s_epik_input>
W0NIMl0xT1tDSDJdW0NIMl1bQ0BIXTFbQ0BIXShbQ0gyXVtPSF0pW0NIMl1uKFtjSF1uMiljKGMyMyluW2NIXW5jM04oW0NASF00NSlbQ0BASF0oW0NIMl1bQ0gyXTQpW0NASF0oW0NIMl01KVtDSDJdW09IXQ==

> <s_epik_cmdline>
J2VwaWtfcHl0aG9uJywgJy1waCcsICc3LjAnLCAnLXRuJywgJzgnLCAnLW1hJywgJzIwMCcsICctbWV0YWxfYmluZGluZycsICctaW1hZScsICc8aW5maWxlLm1hZT4nLCAnLW9tYWUnLCAnPG91dGZpbGUubWFlPic=

> <r_lp_tautomer_probability>
1

> <r_epik_Ionization_Penalty>
0.0055791

> <r_epik_Ionization_Penalty_Charging>
0

> <r_epik_Ionization_Penalty_Neutral>
0.0055791

> <r_epik_State_Penalty>
0.00401299

> <r_epik_Charging_Adjusted_Penalty>
0.00401299

> <i_epik_Tot_Q>
0

> <i_epik_Tot_abs_Q>
0

> <r_epik_Metal_State_Penalty>
-0

> <b_epik_Metal_Only>
0

> <s_lp_Force_Field>
OPLS_2005

> <r_lp_Energy>
88.8293

> <b_lp_Chiralities_Consistent>
1

> <s_lp_Variant>
AV-unprocessed.smi:227-10

> <Gold.Version>
5.8.1

> <Gold.Id.Protein>
6NUR|6NUR_protein|mol2

> <Gold.PLP.Fitness>
37.6269

> <Gold.PLP.PLP>
-36.6152

> <Gold.PLP.part.hbond>
-1.0000

> <Gold.PLP.part.metal>
0.0000

> <Gold.PLP.part.buried>
-4.2182

> <Gold.PLP.part.nonpolar>
-32.0638

> <Gold.PLP.part.repulsive>
0.1728

> <Gold.PLP.ligand.clash>
0.0000

> <Gold.PLP.ligand.torsion>
1.1285

> <Gold.PLP.Chemscore.Hbond>
1.0000

> <Gold.PLP.Chemscore.CHOScore>
0.0000

> <Gold.PLP.Chemscore.Metal>
0.0000

> <Gold.Chemscore.Hbonds>
donor molecule, donor type, donor heavy atom, donor atom, acceptor molecule, acceptor atom, score
      P1  H  6896  6909       L1     7  1.00

> <Gold.PLP.Chemscore.Internal.Correction>
0.2687

> <Gold.Rescore>
     Score         DG    S(hbond)    S(metal)    S(lipo)     H(rot)  DE(clash)    DE(int)     intcor
      6.67     -10.18       0.93        0.00      92.53       3.61       0.05       3.46       ----

> <Gold.Chemscore.Fitness>
6.6739

> <Gold.Chemscore.DG>
-10.1811

> <Gold.Chemscore.ZeroCoef>
-5.4800

> <Gold.Chemscore.Hbond>
0.9308

> <Gold.Chemscore.Metal>
0.0000

> <Gold.Chemscore.Lipo>
92.5332

> <Gold.Chemscore.Internal_Hbond>
0.0000

> <Gold.Chemscore.DEClash>
0.0512

> <Gold.Chemscore.DEInternal>
3.4560

> <Gold.Chemscore.Rot>
3.6071

> <Gold.Chemscore.Internal.Correction>
   9.000000E+99

> <Gold.Chemscore.Hbonds>
donor molecule, donor type, donor heavy atom, donor atom, acceptor molecule, acceptor atom, score
      P1  H  6896  6909       L1     7  0.23

> <Gold.Chemscore.Hbond.Weighted>
-3.1089

> <Gold.Chemscore.Metal.Weighted>
-0.0000

> <Gold.Chemscore.Lipo.Weighted>
-10.8264

> <Gold.Chemscore.Internal_Hbond.Weighted>
0.0000

> <Gold.Chemscore.DEClash.Weighted>
0.0512

> <Gold.Chemscore.DEInternal.Weighted>
3.4560

> <Gold.Chemscore.Rot.Weighted>
9.2342

> <Gold.Chemscore.Internal.Correction.Weighted>
   9.000000E+99

> <Gold.Protein.RotatedTorsions>
[ 6907 6896 6895 6894 ] final   38.78 input  -60.11 | X-H torsion
[ 7974 7965 7964 7962 ] final  161.44 input  175.53 | X-H torsion
[ 8008 7997 7996 7995 ] final -163.24 input   59.86 | X-H torsion
[ 10167 10162 10161 10158 ] final -136.88 input  -65.29 | X-H torsion
[ 10718 10713 10712 10709 ] final  105.61 input   66.30 | X-H torsion
[ 10763 10752 10751 10750 ] final -132.79 input  -60.55 | X-H torsion
[ 11005 11000 10999 10996 ] final -133.15 input  -57.11 | X-H torsion

> <Gold.Protein.ActiveResidues>
 VAL166  LYS551  ARG553  GLY616  TRP617  ASP618  TYR619  PRO620  LYS621  CYS622 
 ASP623  PHE694  ASN695  SER759  ASP760  ASP761  ALA762  ILE779  LEU786  VAL792 
 PHE793  MET794  SER795  GLU796  ALA797  LYS798  CYS799  TRP800  GLU811  SER814 

> <Gold.Protein.RotatedAtoms>
  152.1610  134.8912  160.0541 H   0  0  0  0  0  0  0  0  0  0  0  0  # atno 6907 bound_to 6896
  151.9908  133.3785  159.4152 H   0  0  0  0  0  0  0  0  0  0  0  0  # atno 6908 bound_to 6896
  150.6888  134.3861  159.5099 H   0  0  0  0  0  0  0  0  0  0  0  0  # atno 6909 bound_to 6896
  144.7686  139.7898  143.6306 H   0  0  0  0  0  0  0  0  0  0  0  0  # atno 7974 bound_to 7965
  155.8184  140.0916  157.1863 H   0  0  0  0  0  0  0  0  0  0  0  0  # atno 8008 bound_to 7997
  154.3979  140.1441  156.3530 H   0  0  0  0  0  0  0  0  0  0  0  0  # atno 8009 bound_to 7997
  155.8292  140.3443  155.5564 H   0  0  0  0  0  0  0  0  0  0  0  0  # atno 8010 bound_to 7997
  139.8633  143.7049  152.2648 H   0  0  0  0  0  0  0  0  0  0  0  0  # atno 10167 bound_to 10162
  157.6699  131.0832  150.5883 H   0  0  0  0  0  0  0  0  0  0  0  0  # atno 10718 bound_to 10713
  154.8739  135.3786  154.4467 H   0  0  0  0  0  0  0  0  0  0  0  0  # atno 10763 bound_to 10752
  153.5147  135.7029  153.5767 H   0  0  0  0  0  0  0  0  0  0  0  0  # atno 10764 bound_to 10752
  153.4041  135.3941  155.1973 H   0  0  0  0  0  0  0  0  0  0  0  0  # atno 10765 bound_to 10752
  140.9107  134.1572  157.4392 H   0  0  0  0  0  0  0  0  0  0  0  0  # atno 11005 bound_to 11000
  146.1814  139.5008  142.9864 LP  0  0  0  0  0  0  0  0  0  0  0  0  # atno 17320 bound_to 7965
  145.6394  141.0287  143.1820 LP  0  0  0  0  0  0  0  0  0  0  0  0  # atno 17321 bound_to 7965
  139.7353  144.7573  151.0737 LP  0  0  0  0  0  0  0  0  0  0  0  0  # atno 17342 bound_to 10162
  140.7772  143.5038  150.9738 LP  0  0  0  0  0  0  0  0  0  0  0  0  # atno 17343 bound_to 10162
  156.6184  130.4399  149.5832 LP  0  0  0  0  0  0  0  0  0  0  0  0  # atno 17370 bound_to 10713
  156.2375  130.6831  151.1524 LP  0  0  0  0  0  0  0  0  0  0  0  0  # atno 17371 bound_to 10713
  139.8757  134.9934  156.5644 LP  0  0  0  0  0  0  0  0  0  0  0  0  # atno 17394 bound_to 11000
  140.8114  133.8426  155.8813 LP  0  0  0  0  0  0  0  0  0  0  0  0  # atno 17395 bound_to 11000

$$$$
