AV-unprocessed.smi:1302|AV-procd|sdf|5426|dock3
  -GOLD-   22720 4583D 1   1.00000     0.00000
 Structure written by MMmdl.
 43 44  0  0  0  0  0  0  0  0  1 V2000
  152.4310  144.3881  157.7398 C   0  0  0  0  0  0  0  0  0  0  0  0
  151.4053  144.0308  158.8245 C   0  0  0  0  0  0  0  0  0  0  0  0
  150.3836  145.1556  159.0379 C   0  0  0  0  0  0  0  0  0  0  0  0
  152.0958  143.7533  160.0809 N   0  0  0  0  0  0  0  0  0  0  0  0
  152.7924  142.6411  160.3695 C   0  0  0  0  0  0  0  0  0  0  0  0
  152.9049  141.6836  159.6040 O   0  0  0  0  0  0  0  0  0  0  0  0
  153.3945  142.5978  161.7434 C   0  0  0  0  0  0  0  0  0  0  0  0
  153.0432  143.5614  162.7132 C   0  0  0  0  0  0  0  0  0  0  0  0
  153.6117  143.4774  163.9987 C   0  0  0  0  0  0  0  0  0  0  0  0
  154.5036  142.4220  164.2791 C   0  0  0  0  0  0  0  0  0  0  0  0
  155.0754  142.3372  165.5560 N   0  0  0  0  0  0  0  0  0  0  0  0
  155.2905  143.6377  166.1735 C   0  0  0  0  0  0  0  0  0  0  0  0
  155.7473  143.4612  167.6332 C   0  0  2  0  0  0  0  0  0  0  0  0
  156.1069  144.8005  168.2846 C   0  0  0  0  0  0  0  0  0  0  0  0
  156.9046  142.6250  167.6749 O   0  0  0  0  0  0  0  0  0  0  0  0
  156.7391  141.3364  167.0768 C   0  0  1  0  0  0  0  0  0  0  0  0
  155.8438  140.4135  167.9233 C   0  0  0  0  0  0  0  0  0  0  0  0
  156.2606  141.4911  165.6198 C   0  0  0  0  0  0  0  0  0  0  0  0
  154.8377  141.4860  163.3591 N   0  0  0  0  0  0  0  0  0  0  0  0
  154.2922  141.5753  162.1273 C   0  0  0  0  0  0  0  0  0  0  0  0
  151.9393  144.5916  156.7882 H   0  0  0  0  0  0  0  0  0  0  0  0
  153.1337  143.5699  157.5786 H   0  0  0  0  0  0  0  0  0  0  0  0
  153.0067  145.2732  158.0130 H   0  0  0  0  0  0  0  0  0  0  0  0
  150.8574  143.1475  158.4928 H   0  0  0  0  0  0  0  0  0  0  0  0
  149.8469  145.3765  158.1149 H   0  0  0  0  0  0  0  0  0  0  0  0
  150.8668  146.0750  159.3704 H   0  0  0  0  0  0  0  0  0  0  0  0
  149.6438  144.8760  159.7889 H   0  0  0  0  0  0  0  0  0  0  0  0
  152.0427  144.4696  160.7905 H   0  0  0  0  0  0  0  0  0  0  0  0
  152.3538  144.3599  162.4801 H   0  0  0  0  0  0  0  0  0  0  0  0
  153.3644  144.2089  164.7544 H   0  0  0  0  0  0  0  0  0  0  0  0
  156.0439  144.1892  165.6087 H   0  0  0  0  0  0  0  0  0  0  0  0
  154.3689  144.2199  166.1367 H   0  0  0  0  0  0  0  0  0  0  0  0
  154.9455  143.0061  168.2154 H   0  0  0  0  0  0  0  0  0  0  0  0
  155.2533  145.4788  168.2859 H   0  0  0  0  0  0  0  0  0  0  0  0
  156.9233  145.2907  167.7534 H   0  0  0  0  0  0  0  0  0  0  0  0
  156.4202  144.6588  169.3191 H   0  0  0  0  0  0  0  0  0  0  0  0
  157.7294  140.8808  167.0547 H   0  0  0  0  0  0  0  0  0  0  0  0
  155.8333  139.4038  167.5125 H   0  0  0  0  0  0  0  0  0  0  0  0
  154.8103  140.7574  167.9594 H   0  0  0  0  0  0  0  0  0  0  0  0
  156.2112  140.3484  168.9474 H   0  0  0  0  0  0  0  0  0  0  0  0
  156.0488  140.5147  165.1820 H   0  0  0  0  0  0  0  0  0  0  0  0
  157.0566  141.9410  165.0245 H   0  0  0  0  0  0  0  0  0  0  0  0
  154.5829  140.7992  161.4344 H   0  0  0  0  0  0  0  0  0  0  0  0
  1  2  1  0  0  0  0
  1 21  1  0  0  0  0
  1 22  1  0  0  0  0
  1 23  1  0  0  0  0
  2  3  1  0  0  0  0
  2  4  1  0  0  0  0
  2 24  1  0  0  0  0
  3 25  1  0  0  0  0
  3 26  1  0  0  0  0
  3 27  1  0  0  0  0
  4  5  1  0  0  0  0
  4 28  1  0  0  0  0
  5  6  2  0  0  0  0
  5  7  1  0  0  0  0
  7 20  1  0  0  0  0
  7  8  2  0  0  0  0
  8  9  1  0  0  0  0
  8 29  1  0  0  0  0
  9 10  2  0  0  0  0
  9 30  1  0  0  0  0
 10 11  1  0  0  0  0
 10 19  1  0  0  0  0
 11 18  1  0  0  0  0
 11 12  1  0  0  0  0
 12 13  1  0  0  0  0
 12 31  1  0  0  0  0
 12 32  1  0  0  0  0
 13 14  1  0  0  0  0
 13 15  1  0  0  0  0
 13 33  1  0  0  0  0
 14 34  1  0  0  0  0
 14 35  1  0  0  0  0
 14 36  1  0  0  0  0
 15 16  1  0  0  0  0
 16 17  1  0  0  0  0
 16 18  1  0  0  0  0
 16 37  1  0  0  0  0
 17 38  1  0  0  0  0
 17 39  1  0  0  0  0
 17 40  1  0  0  0  0
 18 41  1  0  0  0  0
 18 42  1  0  0  0  0
 19 20  2  0  0  0  0
 20 43  1  0  0  0  0
M  END
> <s_m_source_file>
AV-unprocessed.smi

> <i_m_source_file_index>
1302

> <i_lp_mmshare_version>
43012

> <i_f3d_flags>
0

> <s_epik_input>
W0NIM11bQ0hdKFtDSDNdKVtOSF1DKD1PKWMxW2NIXVtjSF1jKG5bY0hdMSlOMltDSDJdW0NAQEhdKFtDSDNdKU9bQ0BASF0oW0NIM10pW0NIMl0y

> <s_epik_cmdline>
J2VwaWtfcHl0aG9uJywgJy1waCcsICc3LjAnLCAnLXRuJywgJzgnLCAnLW1hJywgJzIwMCcsICctbWV0YWxfYmluZGluZycsICctaW1hZScsICc8aW5maWxlLm1hZT4nLCAnLW9tYWUnLCAnPG91dGZpbGUubWFlPic=

> <r_lp_tautomer_probability>
1

> <r_epik_Ionization_Penalty>
2.23089e-05

> <r_epik_Ionization_Penalty_Charging>
0

> <r_epik_Ionization_Penalty_Neutral>
2.23089e-05

> <r_epik_State_Penalty>
-0

> <r_epik_Charging_Adjusted_Penalty>
0

> <i_epik_Tot_Q>
0

> <i_epik_Tot_abs_Q>
0

> <r_epik_Metal_State_Penalty>
-0

> <b_epik_Metal_Only>
0

> <s_lp_Force_Field>
OPLS_2005

> <r_lp_Energy>
23.1748

> <b_lp_Chiralities_Consistent>
1

> <s_lp_Variant>
AV-unprocessed.smi:1302-2

> <Gold.Version>
5.8.1

> <Gold.Id.Protein>
6NUR|6NUR_protein|mol2

> <Gold.PLP.Fitness>
41.0877

> <Gold.PLP.PLP>
-42.7298

> <Gold.PLP.part.hbond>
-1.0000

> <Gold.PLP.part.metal>
0.0000

> <Gold.PLP.part.buried>
-3.3651

> <Gold.PLP.part.nonpolar>
-36.9635

> <Gold.PLP.part.repulsive>
0.0492

> <Gold.PLP.ligand.clash>
0.0000

> <Gold.PLP.ligand.torsion>
0.8752

> <Gold.PLP.Chemscore.Hbond>
0.0000

> <Gold.PLP.Chemscore.CHOScore>
0.0000

> <Gold.PLP.Chemscore.Metal>
0.0000

> <Gold.PLP.Chemscore.Internal.Correction>
0.1083

> <Gold.Rescore>
     Score         DG    S(hbond)    S(metal)    S(lipo)     H(rot)  DE(clash)    DE(int)     intcor
     13.81     -15.83       0.00        0.00     113.62       1.15       1.18       0.83       ----

> <Gold.Chemscore.Fitness>
13.8145

> <Gold.Chemscore.DG>
-15.8269

> <Gold.Chemscore.ZeroCoef>
-5.4800

> <Gold.Chemscore.Hbond>
0.0000

> <Gold.Chemscore.Metal>
0.0000

> <Gold.Chemscore.Lipo>
113.6154

> <Gold.Chemscore.Internal_Hbond>
0.0000

> <Gold.Chemscore.DEClash>
1.1797

> <Gold.Chemscore.DEInternal>
0.8327

> <Gold.Chemscore.Rot>
1.1508

> <Gold.Chemscore.Internal.Correction>
   9.000000E+99

> <Gold.Chemscore.Hbond.Weighted>
-0.0000

> <Gold.Chemscore.Metal.Weighted>
-0.0000

> <Gold.Chemscore.Lipo.Weighted>
-13.2930

> <Gold.Chemscore.Internal_Hbond.Weighted>
0.0000

> <Gold.Chemscore.DEClash.Weighted>
1.1797

> <Gold.Chemscore.DEInternal.Weighted>
0.8327

> <Gold.Chemscore.Rot.Weighted>
2.9461

> <Gold.Chemscore.Internal.Correction.Weighted>
   9.000000E+99

> <Gold.Protein.RotatedTorsions>
[ 6907 6896 6895 6894 ] final -165.36 input  -60.11 | X-H torsion
[ 7974 7965 7964 7962 ] final  116.14 input  175.53 | X-H torsion
[ 8008 7997 7996 7995 ] final   32.08 input   59.86 | X-H torsion
[ 10167 10162 10161 10158 ] final  -30.76 input  -65.29 | X-H torsion
[ 10718 10713 10712 10709 ] final -105.67 input   66.30 | X-H torsion
[ 10763 10752 10751 10750 ] final   46.02 input  -60.55 | X-H torsion
[ 11005 11000 10999 10996 ] final   66.59 input  -57.11 | X-H torsion

> <Gold.Protein.ActiveResidues>
 VAL166  LYS551  ARG553  GLY616  TRP617  ASP618  TYR619  PRO620  LYS621  CYS622 
 ASP623  PHE694  ASN695  SER759  ASP760  ASP761  ALA762  ILE779  LEU786  VAL792 
 PHE793  MET794  SER795  GLU796  ALA797  LYS798  CYS799  TRP800  GLU811  SER814 

> <Gold.Protein.RotatedAtoms>
  151.4264  133.3683  159.2762 H   0  0  0  0  0  0  0  0  0  0  0  0  # atno 6907 bound_to 6896
  150.9256  134.8675  159.7529 H   0  0  0  0  0  0  0  0  0  0  0  0  # atno 6908 bound_to 6896
  152.5003  134.4205  159.9531 H   0  0  0  0  0  0  0  0  0  0  0  0  # atno 6909 bound_to 6896
  145.1833  139.3038  143.4407 H   0  0  0  0  0  0  0  0  0  0  0  0  # atno 7974 bound_to 7965
  155.1168  140.3244  155.4507 H   0  0  0  0  0  0  0  0  0  0  0  0  # atno 8008 bound_to 7997
  156.2674  140.2034  156.6239 H   0  0  0  0  0  0  0  0  0  0  0  0  # atno 8009 bound_to 7997
  154.6714  140.0536  157.0156 H   0  0  0  0  0  0  0  0  0  0  0  0  # atno 8010 bound_to 7997
  140.7245  143.3823  151.1578 H   0  0  0  0  0  0  0  0  0  0  0  0  # atno 10167 bound_to 10162
  156.0356  130.5575  150.7572 H   0  0  0  0  0  0  0  0  0  0  0  0  # atno 10718 bound_to 10713
  152.9816  135.6021  154.3531 H   0  0  0  0  0  0  0  0  0  0  0  0  # atno 10763 bound_to 10752
  154.3219  135.2769  155.2517 H   0  0  0  0  0  0  0  0  0  0  0  0  # atno 10764 bound_to 10752
  154.4680  135.5949  153.6357 H   0  0  0  0  0  0  0  0  0  0  0  0  # atno 10765 bound_to 10752
  139.9822  134.6725  156.0241 H   0  0  0  0  0  0  0  0  0  0  0  0  # atno 11005 bound_to 11000
  146.3449  140.2020  142.8589 LP  0  0  0  0  0  0  0  0  0  0  0  0  # atno 17320 bound_to 7965
  145.0115  140.8718  143.5221 LP  0  0  0  0  0  0  0  0  0  0  0  0  # atno 17321 bound_to 7965
  139.7414  143.8918  152.3051 LP  0  0  0  0  0  0  0  0  0  0  0  0  # atno 17342 bound_to 10162
  139.8741  144.7053  150.8953 LP  0  0  0  0  0  0  0  0  0  0  0  0  # atno 17343 bound_to 10162
  157.5101  131.0925  151.0209 LP  0  0  0  0  0  0  0  0  0  0  0  0  # atno 17370 bound_to 10713
  157.0566  130.5808  149.5379 LP  0  0  0  0  0  0  0  0  0  0  0  0  # atno 17371 bound_to 10713
  141.1493  133.6551  156.3962 LP  0  0  0  0  0  0  0  0  0  0  0  0  # atno 17394 bound_to 11000
  140.5073  134.6428  157.5271 LP  0  0  0  0  0  0  0  0  0  0  0  0  # atno 17395 bound_to 11000

$$$$
