AV-unprocessed.smi:2358|AV-procd|sdf|9403|dock9
  -GOLD-   2272013 33D 1   1.00000     0.00000
 Structure written by MMmdl.
 45 47  0  0  0  0  0  0  0  0  1 V2000
  152.9317  142.7341  163.0364 C   0  0  0  0  0  0  0  0  0  0  0  0
  152.9691  142.6509  161.5242 C   0  0  0  0  0  0  0  0  0  0  0  0
  152.6577  143.7803  160.7410 C   0  0  0  0  0  0  0  0  0  0  0  0
  152.6967  143.6974  159.3357 C   0  0  0  0  0  0  0  0  0  0  0  0
  152.3603  144.9152  158.5000 C   0  0  0  0  0  0  0  0  0  0  0  0
  153.0476  142.4803  158.7163 C   0  0  0  0  0  0  0  0  0  0  0  0
  153.3604  141.3405  159.4849 C   0  0  0  0  0  0  0  0  0  0  0  0
  153.6905  140.1932  158.7950 O   0  0  0  0  0  0  0  0  0  0  0  0
  153.3901  138.9381  159.3911 C   0  0  0  0  0  0  0  0  0  0  0  0
  152.7374  138.0275  158.3377 C   0  0  2  0  0  0  0  0  0  0  0  0
  153.1376  136.7007  158.6220 O   0  0  0  0  0  0  0  0  0  0  0  0
  153.2159  138.3707  156.9092 C   0  0  0  0  0  0  0  0  0  0  0  0
  152.2303  137.9912  155.8898 N   0  0  0  0  0  0  0  0  0  0  0  0
  151.8966  136.6492  155.9044 N   0  0  0  0  0  0  0  0  0  0  0  0
  151.0310  136.1682  155.0733 C   0  0  0  0  0  0  0  0  0  0  0  0
  150.6846  134.7588  155.1092 N   0  0  0  0  0  0  0  0  0  0  0  0
  149.8208  134.1720  154.1833 C   0  0  0  0  0  0  0  0  0  0  0  0
  149.7324  132.8442  154.5395 C   0  0  0  0  0  0  0  0  0  0  0  0
  150.5178  132.5967  155.6639 N   0  0  0  0  0  0  0  0  0  0  0  0
  151.0502  133.7782  155.9467 C   0  0  0  0  0  0  0  0  0  0  0  0
  150.4044  137.0486  154.0931 C   0  0  0  0  0  0  0  0  0  0  0  0
  150.7388  138.3572  154.0871 C   0  0  0  0  0  0  0  0  0  0  0  0
  151.7063  138.9138  155.0306 C   0  0  0  0  0  0  0  0  0  0  0  0
  152.0197  140.1038  155.0519 O   0  0  0  0  0  0  0  0  0  0  0  0
  153.3199  141.4370  160.8988 C   0  0  0  0  0  0  0  0  0  0  0  0
  152.4964  143.6757  163.3726 H   0  0  0  0  0  0  0  0  0  0  0  0
  153.9407  142.6594  163.4426 H   0  0  0  0  0  0  0  0  0  0  0  0
  152.3347  141.9190  163.4466 H   0  0  0  0  0  0  0  0  0  0  0  0
  152.3892  144.7128  161.2164 H   0  0  0  0  0  0  0  0  0  0  0  0
  152.4967  144.7197  157.4359 H   0  0  0  0  0  0  0  0  0  0  0  0
  153.0020  145.7522  158.7764 H   0  0  0  0  0  0  0  0  0  0  0  0
  151.3231  145.2092  158.6623 H   0  0  0  0  0  0  0  0  0  0  0  0
  153.0774  142.4145  157.6384 H   0  0  0  0  0  0  0  0  0  0  0  0
  154.3270  138.4896  159.7251 H   0  0  0  0  0  0  0  0  0  0  0  0
  152.7437  139.0501  160.2638 H   0  0  0  0  0  0  0  0  0  0  0  0
  151.6522  138.1121  158.4076 H   0  0  0  0  0  0  0  0  0  0  0  0
  153.2875  136.2498  157.8053 H   0  0  0  0  0  0  0  0  0  0  0  0
  153.4008  139.4432  156.8262 H   0  0  0  0  0  0  0  0  0  0  0  0
  154.1836  137.9064  156.7083 H   0  0  0  0  0  0  0  0  0  0  0  0
  149.3356  134.6869  153.3701 H   0  0  0  0  0  0  0  0  0  0  0  0
  149.1634  132.0517  154.0760 H   0  0  0  0  0  0  0  0  0  0  0  0
  151.7201  133.9309  156.7804 H   0  0  0  0  0  0  0  0  0  0  0  0
  149.6897  136.6954  153.3690 H   0  0  0  0  0  0  0  0  0  0  0  0
  150.2800  139.0138  153.3623 H   0  0  0  0  0  0  0  0  0  0  0  0
  153.5558  140.5911  161.5266 H   0  0  0  0  0  0  0  0  0  0  0  0
  1  2  1  0  0  0  0
  1 26  1  0  0  0  0
  1 27  1  0  0  0  0
  1 28  1  0  0  0  0
  2 25  1  0  0  0  0
  2  3  2  0  0  0  0
  3  4  1  0  0  0  0
  3 29  1  0  0  0  0
  4  5  1  0  0  0  0
  4  6  2  0  0  0  0
  5 30  1  0  0  0  0
  5 31  1  0  0  0  0
  5 32  1  0  0  0  0
  6  7  1  0  0  0  0
  6 33  1  0  0  0  0
  7  8  1  0  0  0  0
  7 25  2  0  0  0  0
  8  9  1  0  0  0  0
  9 10  1  0  0  0  0
  9 34  1  0  0  0  0
  9 35  1  0  0  0  0
 10 11  1  0  0  0  0
 10 12  1  0  0  0  0
 10 36  1  0  0  0  0
 11 37  1  0  0  0  0
 12 13  1  0  0  0  0
 12 38  1  0  0  0  0
 12 39  1  0  0  0  0
 13 23  1  0  0  0  0
 13 14  1  0  0  0  0
 14 15  2  0  0  0  0
 15 16  1  0  0  0  0
 15 21  1  0  0  0  0
 16 20  1  0  0  0  0
 16 17  1  0  0  0  0
 17 18  2  0  0  0  0
 17 40  1  0  0  0  0
 18 19  1  0  0  0  0
 18 41  1  0  0  0  0
 19 20  2  0  0  0  0
 20 42  1  0  0  0  0
 21 22  2  0  0  0  0
 21 43  1  0  0  0  0
 22 23  1  0  0  0  0
 22 44  1  0  0  0  0
 23 24  2  0  0  0  0
 25 45  1  0  0  0  0
M  END
> <s_m_source_file>
AV-unprocessed.smi

> <i_m_source_file_index>
2358

> <i_lp_mmshare_version>
43012

> <i_f3d_flags>
0

> <s_epik_input>
W0NIM11jMVtjSF1jKFtDSDNdKVtjSF1jKFtjSF0xKU9bQ0gyXVtDQEhdKFtPSF0pW0NIMl1uMm5jKFtjSF1bY0hdYzI9TyktbjNbY0hdW2NIXW5bY0hdMw==

> <s_epik_cmdline>
J2VwaWtfcHl0aG9uJywgJy1waCcsICc3LjAnLCAnLXRuJywgJzgnLCAnLW1hJywgJzIwMCcsICctbWV0YWxfYmluZGluZycsICctaW1hZScsICc8aW5maWxlLm1hZT4nLCAnLW9tYWUnLCAnPG91dGZpbGUubWFlPic=

> <r_lp_tautomer_probability>
1

> <r_epik_Ionization_Penalty>
0.03707

> <r_epik_Ionization_Penalty_Charging>
0.0370699

> <r_epik_Ionization_Penalty_Neutral>
1.17174e-07

> <r_epik_State_Penalty>
0.0310055

> <r_epik_Charging_Adjusted_Penalty>
0.0680754

> <i_epik_Tot_Q>
0

> <i_epik_Tot_abs_Q>
0

> <r_epik_Metal_State_Penalty>
0.0291724

> <b_epik_Metal_Only>
0

> <s_lp_Force_Field>
OPLS_2005

> <r_lp_Energy>
37.1438

> <b_lp_Chiralities_Consistent>
1

> <s_lp_Variant>
AV-unprocessed.smi:2358-1

> <Gold.Version>
5.8.1

> <Gold.Id.Protein>
6NUR|6NUR_protein|mol2

> <Gold.PLP.Fitness>
56.8495

> <Gold.PLP.PLP>
-50.9281

> <Gold.PLP.part.hbond>
-2.7242

> <Gold.PLP.part.metal>
0.0000

> <Gold.PLP.part.buried>
-3.0943

> <Gold.PLP.part.nonpolar>
-45.3893

> <Gold.PLP.part.repulsive>
0.0400

> <Gold.PLP.ligand.clash>
0.0000

> <Gold.PLP.ligand.torsion>
1.4451

> <Gold.PLP.Chemscore.Hbond>
1.9200

> <Gold.PLP.Chemscore.CHOScore>
1.0000

> <Gold.PLP.Chemscore.Metal>
0.0000

> <Gold.Chemscore.Hbonds>
donor molecule, donor type, donor heavy atom, donor atom, acceptor molecule, acceptor atom, score
      P1  H  7989  7998       L1    24  0.80
      P1  H  7997  8009       L1     8  0.94
      L1  C    17    40       P1  7948  0.49

> <Gold.PLP.Chemscore.Internal.Correction>
0.0515

> <Gold.Rescore>
     Score         DG    S(hbond)    S(metal)    S(lipo)     H(rot)  DE(clash)    DE(int)     intcor
     16.19     -19.89       1.61        0.00     133.93       2.60       0.91       2.78       ----

> <Gold.Chemscore.Fitness>
16.1949

> <Gold.Chemscore.DG>
-19.8878

> <Gold.Chemscore.ZeroCoef>
-5.4800

> <Gold.Chemscore.Hbond>
1.6139

> <Gold.Chemscore.Metal>
0.0000

> <Gold.Chemscore.Lipo>
133.9289

> <Gold.Chemscore.Internal_Hbond>
0.0000

> <Gold.Chemscore.DEClash>
0.9083

> <Gold.Chemscore.DEInternal>
2.7846

> <Gold.Chemscore.Rot>
2.5986

> <Gold.Chemscore.Internal.Correction>
   9.000000E+99

> <Gold.Chemscore.Hbonds>
donor molecule, donor type, donor heavy atom, donor atom, acceptor molecule, acceptor atom, score
      P1  H  7989  7998       L1    24  0.62
      P1  H  7997  8009       L1     8  0.77

> <Gold.Chemscore.Hbond.Weighted>
-5.3905

> <Gold.Chemscore.Metal.Weighted>
-0.0000

> <Gold.Chemscore.Lipo.Weighted>
-15.6697

> <Gold.Chemscore.Internal_Hbond.Weighted>
0.0000

> <Gold.Chemscore.DEClash.Weighted>
0.9083

> <Gold.Chemscore.DEInternal.Weighted>
2.7846

> <Gold.Chemscore.Rot.Weighted>
6.6524

> <Gold.Chemscore.Internal.Correction.Weighted>
   9.000000E+99

> <Gold.Protein.RotatedTorsions>
[ 6907 6896 6895 6894 ] final -147.20 input  -60.11 | X-H torsion
[ 7974 7965 7964 7962 ] final  -30.36 input  175.53 | X-H torsion
[ 8008 7997 7996 7995 ] final  138.16 input   59.86 | X-H torsion
[ 10167 10162 10161 10158 ] final  -57.03 input  -65.29 | X-H torsion
[ 10718 10713 10712 10709 ] final   32.47 input   66.30 | X-H torsion
[ 10763 10752 10751 10750 ] final  163.38 input  -60.55 | X-H torsion
[ 11005 11000 10999 10996 ] final  -76.15 input  -57.11 | X-H torsion

> <Gold.Protein.ActiveResidues>
 VAL166  LYS551  ARG553  GLY616  TRP617  ASP618  TYR619  PRO620  LYS621  CYS622 
 ASP623  PHE694  ASN695  SER759  ASP760  ASP761  ALA762  ILE779  LEU786  VAL792 
 PHE793  MET794  SER795  GLU796  ALA797  LYS798  CYS799  TRP800  GLU811  SER814 

> <Gold.Protein.RotatedAtoms>
  151.1523  133.4899  159.2594 H   0  0  0  0  0  0  0  0  0  0  0  0  # atno 6907 bound_to 6896
  151.1541  135.0241  159.8691 H   0  0  0  0  0  0  0  0  0  0  0  0  # atno 6908 bound_to 6896
  152.5463  134.1403  159.8529 H   0  0  0  0  0  0  0  0  0  0  0  0  # atno 6909 bound_to 6896
  146.1149  140.5530  142.8761 H   0  0  0  0  0  0  0  0  0  0  0  0  # atno 7974 bound_to 7965
  156.2999  140.2401  156.4028 H   0  0  0  0  0  0  0  0  0  0  0  0  # atno 8008 bound_to 7997
  154.8511  140.0424  157.1625 H   0  0  0  0  0  0  0  0  0  0  0  0  # atno 8009 bound_to 7997
  154.8997  140.2975  155.5328 H   0  0  0  0  0  0  0  0  0  0  0  0  # atno 8010 bound_to 7997
  140.6282  143.2447  151.5309 H   0  0  0  0  0  0  0  0  0  0  0  0  # atno 10167 bound_to 10162
  157.2857  130.7277  149.6581 H   0  0  0  0  0  0  0  0  0  0  0  0  # atno 10718 bound_to 10713
  154.2929  135.2760  155.2647 H   0  0  0  0  0  0  0  0  0  0  0  0  # atno 10763 bound_to 10752
  154.5118  135.5780  153.6614 H   0  0  0  0  0  0  0  0  0  0  0  0  # atno 10764 bound_to 10752
  152.9911  135.6183  154.3094 H   0  0  0  0  0  0  0  0  0  0  0  0  # atno 10765 bound_to 10752
  141.1651  133.6973  156.7625 H   0  0  0  0  0  0  0  0  0  0  0  0  # atno 11005 bound_to 11000
  144.7544  140.5270  143.6779 LP  0  0  0  0  0  0  0  0  0  0  0  0  # atno 17320 bound_to 7965
  145.5588  139.1479  143.3353 LP  0  0  0  0  0  0  0  0  0  0  0  0  # atno 17321 bound_to 7965
  139.5499  144.2422  152.1512 LP  0  0  0  0  0  0  0  0  0  0  0  0  # atno 17342 bound_to 10162
  140.1659  144.4982  150.6606 LP  0  0  0  0  0  0  0  0  0  0  0  0  # atno 17343 bound_to 10162
  155.9665  130.4324  150.4963 LP  0  0  0  0  0  0  0  0  0  0  0  0  # atno 17370 bound_to 10713
  157.2916  131.0627  151.2130 LP  0  0  0  0  0  0  0  0  0  0  0  0  # atno 17371 bound_to 10713
  140.2524  134.8530  157.3680 LP  0  0  0  0  0  0  0  0  0  0  0  0  # atno 17394 bound_to 11000
  140.1690  134.4632  155.7844 LP  0  0  0  0  0  0  0  0  0  0  0  0  # atno 17395 bound_to 11000

$$$$
