AV-unprocessed.smi:1015|AV-procd|sdf|4436|dock2
  -GOLD-   22720 2393D 1   1.00000     0.00000
 Structure written by MMmdl.
 42 43  0  0  0  0  0  0  0  0  1 V2000
  151.1368  145.1701  160.5653 C   0  0  0  0  0  0  0  0  0  0  0  0
  151.7523  145.5601  159.3504 O   0  0  0  0  0  0  0  0  0  0  0  0
  152.0057  144.4609  158.4903 C   0  0  0  0  0  0  0  0  0  0  0  0
  152.7660  143.3566  159.2443 C   0  0  0  0  0  0  0  0  0  0  0  0
  152.1734  142.0192  159.1765 N   0  0  0  0  0  0  0  0  0  0  0  0
  153.1906  140.9955  159.4168 C   0  0  0  0  0  0  0  0  0  0  0  0
  152.6069  139.5732  159.4421 C   0  0  0  0  0  0  0  0  0  0  0  0
  151.8769  139.2578  158.1245 C   0  0  0  0  0  0  0  0  0  0  0  0
  151.2425  137.8510  158.1549 C   0  0  0  0  0  0  0  0  0  0  0  0
  149.9501  137.8515  158.8295 N   0  0  0  0  0  0  0  0  0  0  0  0
  149.1132  136.8049  158.8949 C   0  0  0  0  0  0  0  0  0  0  0  0
  149.3946  135.6805  158.4816 O   0  0  0  0  0  0  0  0  0  0  0  0
  147.7318  137.0794  159.4872 C   0  0  0  0  0  0  0  0  0  0  0  0
  147.5837  136.3982  160.7601 N   0  0  0  0  0  0  0  0  0  0  0  0
  147.5837  135.0985  161.0642 C   0  0  0  0  0  0  0  0  0  0  0  0
  147.3877  134.8994  162.3586 N   0  0  0  0  0  0  0  0  0  0  0  0
  147.2626  136.1846  162.8595 N   0  0  0  0  0  0  0  0  0  0  0  0
  147.3778  137.0782  161.9157 N   0  0  0  0  0  0  0  0  0  0  0  0
  150.8495  140.3733  157.8389 C   0  0  0  0  0  0  0  0  0  0  0  0
  151.5090  141.7611  157.8967 C   0  0  0  0  0  0  0  0  0  0  0  0
  150.9720  146.0479  161.1901 H   0  0  0  0  0  0  0  0  0  0  0  0
  151.7656  144.4738  161.1217 H   0  0  0  0  0  0  0  0  0  0  0  0
  150.1695  144.7004  160.3830 H   0  0  0  0  0  0  0  0  0  0  0  0
  151.0508  144.0644  158.1422 H   0  0  0  0  0  0  0  0  0  0  0  0
  152.5659  144.7739  157.6075 H   0  0  0  0  0  0  0  0  0  0  0  0
  153.8054  143.3294  158.9141 H   0  0  0  0  0  0  0  0  0  0  0  0
  152.7974  143.6579  160.2922 H   0  0  0  0  0  0  0  0  0  0  0  0
  153.9656  141.0571  158.6509 H   0  0  0  0  0  0  0  0  0  0  0  0
  153.6853  141.1860  160.3699 H   0  0  0  0  0  0  0  0  0  0  0  0
  153.4058  138.8503  159.6109 H   0  0  0  0  0  0  0  0  0  0  0  0
  151.9181  139.4780  160.2828 H   0  0  0  0  0  0  0  0  0  0  0  0
  152.6200  139.2774  157.3255 H   0  0  0  0  0  0  0  0  0  0  0  0
  151.1324  137.4591  157.1423 H   0  0  0  0  0  0  0  0  0  0  0  0
  151.8972  137.1578  158.6838 H   0  0  0  0  0  0  0  0  0  0  0  0
  149.6330  138.7352  159.2017 H   0  0  0  0  0  0  0  0  0  0  0  0
  147.5941  138.1500  159.6434 H   0  0  0  0  0  0  0  0  0  0  0  0
  146.9525  136.7466  158.7995 H   0  0  0  0  0  0  0  0  0  0  0  0
  147.7168  134.3063  160.3423 H   0  0  0  0  0  0  0  0  0  0  0  0
  150.3940  140.2352  156.8576 H   0  0  0  0  0  0  0  0  0  0  0  0
  150.0386  140.3255  158.5670 H   0  0  0  0  0  0  0  0  0  0  0  0
  150.7314  142.5031  157.7215 H   0  0  0  0  0  0  0  0  0  0  0  0
  152.2250  141.8611  157.0794 H   0  0  0  0  0  0  0  0  0  0  0  0
  1  2  1  0  0  0  0
  1 21  1  0  0  0  0
  1 22  1  0  0  0  0
  1 23  1  0  0  0  0
  2  3  1  0  0  0  0
  3  4  1  0  0  0  0
  3 24  1  0  0  0  0
  3 25  1  0  0  0  0
  4  5  1  0  0  0  0
  4 26  1  0  0  0  0
  4 27  1  0  0  0  0
  5 20  1  0  0  0  0
  5  6  1  0  0  0  0
  6  7  1  0  0  0  0
  6 28  1  0  0  0  0
  6 29  1  0  0  0  0
  7  8  1  0  0  0  0
  7 30  1  0  0  0  0
  7 31  1  0  0  0  0
  8  9  1  0  0  0  0
  8 19  1  0  0  0  0
  8 32  1  0  0  0  0
  9 10  1  0  0  0  0
  9 33  1  0  0  0  0
  9 34  1  0  0  0  0
 10 11  1  0  0  0  0
 10 35  1  0  0  0  0
 11 12  2  0  0  0  0
 11 13  1  0  0  0  0
 13 14  1  0  0  0  0
 13 36  1  0  0  0  0
 13 37  1  0  0  0  0
 14 18  1  0  0  0  0
 14 15  1  0  0  0  0
 15 16  2  0  0  0  0
 15 38  1  0  0  0  0
 16 17  1  0  0  0  0
 17 18  2  0  0  0  0
 19 20  1  0  0  0  0
 19 39  1  0  0  0  0
 19 40  1  0  0  0  0
 20 41  1  0  0  0  0
 20 42  1  0  0  0  0
M  END
> <s_m_source_file>
AV-unprocessed.smi

> <i_m_source_file_index>
1015

> <i_lp_mmshare_version>
43012

> <i_f3d_flags>
0

> <s_epik_input>
W0NIM11PW0NIMl1bQ0gyXU4xW0NIMl1bQ0gyXVtDSF0oW0NIMl1bQ0gyXTEpW0NIMl1bTkhdQyg9TylbQ0gyXW4yW2NIXW5ubjI=

> <s_epik_cmdline>
J2VwaWtfcHl0aG9uJywgJy1waCcsICc3LjAnLCAnLXRuJywgJzgnLCAnLW1hJywgJzIwMCcsICctbWV0YWxfYmluZGluZycsICctaW1hZScsICc8aW5maWxlLm1hZT4nLCAnLW9tYWUnLCAnPG91dGZpbGUubWFlPic=

> <r_lp_tautomer_probability>
1

> <r_epik_Ionization_Penalty>
2.39972

> <r_epik_Ionization_Penalty_Charging>
0

> <r_epik_Ionization_Penalty_Neutral>
2.39972

> <r_epik_State_Penalty>
2.55755

> <r_epik_Charging_Adjusted_Penalty>
2.55755

> <i_epik_Tot_Q>
0

> <i_epik_Tot_abs_Q>
0

> <r_epik_Metal_State_Penalty>
2.55755

> <b_epik_Metal_Only>
0

> <s_lp_Force_Field>
OPLS_2005

> <r_lp_Energy>
27.1713

> <b_lp_Chiralities_Consistent>
1

> <s_lp_Variant>
AV-unprocessed.smi:1015-3

> <Gold.Version>
5.8.1

> <Gold.Id.Protein>
6NUR|6NUR_protein|mol2

> <Gold.PLP.Fitness>
43.8915

> <Gold.PLP.PLP>
-37.6598

> <Gold.PLP.part.hbond>
-4.0000

> <Gold.PLP.part.metal>
0.0000

> <Gold.PLP.part.buried>
-7.0470

> <Gold.PLP.part.nonpolar>
-26.4247

> <Gold.PLP.part.repulsive>
0.2977

> <Gold.PLP.ligand.clash>
0.0000

> <Gold.PLP.ligand.torsion>
0.9596

> <Gold.PLP.Chemscore.Hbond>
2.6893

> <Gold.PLP.Chemscore.CHOScore>
0.0000

> <Gold.PLP.Chemscore.Metal>
0.0000

> <Gold.Chemscore.Hbonds>
donor molecule, donor type, donor heavy atom, donor atom, acceptor molecule, acceptor atom, score
      P1  H  6896  6907       L1    12  0.98
      P1  H  6931  6943       L1    18  0.96
      P1  H  6934  6947       L1    18  0.37

> <Gold.PLP.Chemscore.Internal.Correction>
0.0831

> <Gold.Rescore>
     Score         DG    S(hbond)    S(metal)    S(lipo)     H(rot)  DE(clash)    DE(int)     intcor
     13.34     -14.40       2.44        0.00      74.99       3.12       0.03       1.03       ----

> <Gold.Chemscore.Fitness>
13.3437

> <Gold.Chemscore.DG>
-14.4005

> <Gold.Chemscore.ZeroCoef>
-5.4800

> <Gold.Chemscore.Hbond>
2.4353

> <Gold.Chemscore.Metal>
0.0000

> <Gold.Chemscore.Lipo>
74.9902

> <Gold.Chemscore.Internal_Hbond>
0.0000

> <Gold.Chemscore.DEClash>
0.0275

> <Gold.Chemscore.DEInternal>
1.0293

> <Gold.Chemscore.Rot>
3.1201

> <Gold.Chemscore.Internal.Correction>
   9.000000E+99

> <Gold.Chemscore.Hbonds>
donor molecule, donor type, donor heavy atom, donor atom, acceptor molecule, acceptor atom, score
      P1  H  6896  6907       L1    12  0.89
      P1  H  6931  6943       L1    18  0.21
      P1  H  6934  6947       L1    18  0.05

> <Gold.Chemscore.Hbond.Weighted>
-8.1340

> <Gold.Chemscore.Metal.Weighted>
-0.0000

> <Gold.Chemscore.Lipo.Weighted>
-8.7739

> <Gold.Chemscore.Internal_Hbond.Weighted>
0.0000

> <Gold.Chemscore.DEClash.Weighted>
0.0275

> <Gold.Chemscore.DEInternal.Weighted>
1.0293

> <Gold.Chemscore.Rot.Weighted>
7.9874

> <Gold.Chemscore.Internal.Correction.Weighted>
   9.000000E+99

> <Gold.Protein.RotatedTorsions>
[ 6907 6896 6895 6894 ] final  -83.43 input  -60.11 | X-H torsion
[ 7974 7965 7964 7962 ] final  -24.62 input  175.53 | X-H torsion
[ 8008 7997 7996 7995 ] final   28.97 input   59.86 | X-H torsion
[ 10167 10162 10161 10158 ] final  152.55 input  -65.29 | X-H torsion
[ 10718 10713 10712 10709 ] final -129.89 input   66.30 | X-H torsion
[ 10763 10752 10751 10750 ] final -107.85 input  -60.55 | X-H torsion
[ 11005 11000 10999 10996 ] final   17.70 input  -57.11 | X-H torsion

> <Gold.Protein.ActiveResidues>
 VAL166  LYS551  ARG553  GLY616  TRP617  ASP618  TYR619  PRO620  LYS621  CYS622 
 ASP623  PHE694  ASN695  SER759  ASP760  ASP761  ALA762  ILE779  LEU786  VAL792 
 PHE793  MET794  SER795  GLU796  ALA797  LYS798  CYS799  TRP800  GLU811  SER814 

> <Gold.Protein.RotatedAtoms>
  150.6886  134.3513  159.4910 H   0  0  0  0  0  0  0  0  0  0  0  0  # atno 6907 bound_to 6896
  152.1354  134.9100  160.0566 H   0  0  0  0  0  0  0  0  0  0  0  0  # atno 6908 bound_to 6896
  152.0254  133.3881  159.4312 H   0  0  0  0  0  0  0  0  0  0  0  0  # atno 6909 bound_to 6896
  146.1543  140.4776  142.8598 H   0  0  0  0  0  0  0  0  0  0  0  0  # atno 7974 bound_to 7965
  155.0671  140.3196  155.4642 H   0  0  0  0  0  0  0  0  0  0  0  0  # atno 8008 bound_to 7997
  156.2799  140.2118  156.5743 H   0  0  0  0  0  0  0  0  0  0  0  0  # atno 8009 bound_to 7997
  154.7085  140.0500  157.0515 H   0  0  0  0  0  0  0  0  0  0  0  0  # atno 8010 bound_to 7997
  139.4832  144.5348  151.7663 H   0  0  0  0  0  0  0  0  0  0  0  0  # atno 10167 bound_to 10162
  156.2091  130.6907  151.0629 H   0  0  0  0  0  0  0  0  0  0  0  0  # atno 10718 bound_to 10713
  154.8100  135.4659  154.0492 H   0  0  0  0  0  0  0  0  0  0  0  0  # atno 10763 bound_to 10752
  153.1930  135.6858  153.8335 H   0  0  0  0  0  0  0  0  0  0  0  0  # atno 10764 bound_to 10752
  153.7846  135.3252  155.3347 H   0  0  0  0  0  0  0  0  0  0  0  0  # atno 10765 bound_to 10752
  140.4330  134.1400  155.7682 H   0  0  0  0  0  0  0  0  0  0  0  0  # atno 11005 bound_to 11000
  144.7943  140.6093  143.6520 LP  0  0  0  0  0  0  0  0  0  0  0  0  # atno 17320 bound_to 7965
  145.4746  139.1500  143.3795 LP  0  0  0  0  0  0  0  0  0  0  0  0  # atno 17321 bound_to 7965
  140.4879  144.1353  150.5944 LP  0  0  0  0  0  0  0  0  0  0  0  0  # atno 17342 bound_to 10162
  140.4204  143.2614  151.9722 LP  0  0  0  0  0  0  0  0  0  0  0  0  # atno 17343 bound_to 10162
  157.7029  131.0769  150.6763 LP  0  0  0  0  0  0  0  0  0  0  0  0  # atno 17370 bound_to 10713
  156.6823  130.4570  149.5624 LP  0  0  0  0  0  0  0  0  0  0  0  0  # atno 17371 bound_to 10713
  141.1737  133.8556  157.1488 LP  0  0  0  0  0  0  0  0  0  0  0  0  # atno 17394 bound_to 11000
  140.0121  134.9983  157.0417 LP  0  0  0  0  0  0  0  0  0  0  0  0  # atno 17395 bound_to 11000

$$$$
