AV-unprocessed.smi:3266|AV-procd|sdf|12501|dock5
  -GOLD-   2272018403D 1   1.00000     0.00000
 Structure written by MMmdl.
 38 39  0  0  0  0  0  0  0  0  1 V2000
  150.2224  140.1801  154.7822 O   0  0  0  0  0  0  0  0  0  0  0  0
  149.5765  141.2258  154.8570 C   0  0  0  0  0  0  0  0  0  0  0  0
  148.3943  141.4711  153.9164 C   0  0  0  0  0  0  0  0  0  0  0  0
  147.0588  141.0061  154.5231 C   0  0  0  0  0  0  0  0  0  0  0  0
  146.3622  142.1066  155.3363 C   0  0  1  0  0  0  0  0  0  0  0  0
  145.9159  143.3022  154.5006 C   0  0  0  0  0  0  0  0  0  0  0  0
  144.8296  143.9262  155.3583 C   0  0  0  0  0  0  0  0  0  0  0  0
  144.3595  142.7751  156.2546 C   0  0  0  0  0  0  0  0  0  0  0  0
  145.1343  141.6433  155.8753 O   0  0  0  0  0  0  0  0  0  0  0  0
  149.8481  142.1961  155.7431 N   0  0  0  0  0  0  0  0  0  0  0  0
  150.9235  142.1508  156.7292 C   0  0  0  0  0  0  0  0  0  0  0  0
  151.2942  143.5428  157.2780 C   0  0  0  0  0  0  0  0  0  0  0  0
  151.6522  143.5433  158.7554 C   0  0  0  0  0  0  0  0  0  0  0  0
  152.2193  142.3974  159.3531 C   0  0  0  0  0  0  0  0  0  0  0  0
  152.5430  142.4440  160.7229 C   0  0  0  0  0  0  0  0  0  0  0  0
  152.2902  143.6294  161.4393 C   0  0  0  0  0  0  0  0  0  0  0  0
  151.7210  144.7195  160.7512 C   0  0  0  0  0  0  0  0  0  0  0  0
  151.4065  144.6848  159.4384 N   0  0  0  0  0  0  0  0  0  0  0  0
  148.3515  142.5375  153.6915 H   0  0  0  0  0  0  0  0  0  0  0  0
  148.5661  140.9594  152.9681 H   0  0  0  0  0  0  0  0  0  0  0  0
  146.3930  140.6858  153.7204 H   0  0  0  0  0  0  0  0  0  0  0  0
  147.2180  140.1329  155.1578 H   0  0  0  0  0  0  0  0  0  0  0  0
  147.0044  142.4459  156.1512 H   0  0  0  0  0  0  0  0  0  0  0  0
  146.7307  143.9914  154.2765 H   0  0  0  0  0  0  0  0  0  0  0  0
  145.4884  142.9636  153.5556 H   0  0  0  0  0  0  0  0  0  0  0  0
  145.2367  144.7344  155.9669 H   0  0  0  0  0  0  0  0  0  0  0  0
  144.0220  144.3366  154.7514 H   0  0  0  0  0  0  0  0  0  0  0  0
  144.5415  143.0065  157.3048 H   0  0  0  0  0  0  0  0  0  0  0  0
  143.2968  142.5643  156.1325 H   0  0  0  0  0  0  0  0  0  0  0  0
  149.2633  143.0191  155.7412 H   0  0  0  0  0  0  0  0  0  0  0  0
  150.6466  141.4872  157.5500 H   0  0  0  0  0  0  0  0  0  0  0  0
  151.7954  141.7002  156.2545 H   0  0  0  0  0  0  0  0  0  0  0  0
  152.1286  143.9562  156.7095 H   0  0  0  0  0  0  0  0  0  0  0  0
  150.4596  144.2267  157.1194 H   0  0  0  0  0  0  0  0  0  0  0  0
  152.4036  141.5030  158.7763 H   0  0  0  0  0  0  0  0  0  0  0  0
  152.9782  141.5863  161.2143 H   0  0  0  0  0  0  0  0  0  0  0  0
  152.5265  143.7018  162.4905 H   0  0  0  0  0  0  0  0  0  0  0  0
  151.5131  145.6441  161.2691 H   0  0  0  0  0  0  0  0  0  0  0  0
  1  2  2  0  0  0  0
  2  3  1  0  0  0  0
  2 10  1  0  0  0  0
  3  4  1  0  0  0  0
  3 19  1  0  0  0  0
  3 20  1  0  0  0  0
  4  5  1  0  0  0  0
  4 21  1  0  0  0  0
  4 22  1  0  0  0  0
  5  9  1  0  0  0  0
  5  6  1  0  0  0  0
  5 23  1  0  0  0  0
  6  7  1  0  0  0  0
  6 24  1  0  0  0  0
  6 25  1  0  0  0  0
  7  8  1  0  0  0  0
  7 26  1  0  0  0  0
  7 27  1  0  0  0  0
  8  9  1  0  0  0  0
  8 28  1  0  0  0  0
  8 29  1  0  0  0  0
 10 11  1  0  0  0  0
 10 30  1  0  0  0  0
 11 12  1  0  0  0  0
 11 31  1  0  0  0  0
 11 32  1  0  0  0  0
 12 13  1  0  0  0  0
 12 33  1  0  0  0  0
 12 34  1  0  0  0  0
 13 18  1  0  0  0  0
 13 14  2  0  0  0  0
 14 15  1  0  0  0  0
 14 35  1  0  0  0  0
 15 16  2  0  0  0  0
 15 36  1  0  0  0  0
 16 17  1  0  0  0  0
 16 37  1  0  0  0  0
 17 18  2  0  0  0  0
 17 38  1  0  0  0  0
M  END
> <s_m_source_file>
AV-unprocessed.smi

> <i_m_source_file_index>
3266

> <i_lp_mmshare_version>
43012

> <i_f3d_flags>
0

> <s_epik_input>
TzFbQ0gyXVtDSDJdW0NIMl1bQ0BIXTFbQ0gyXVtDSDJdQyg9TylbTkhdW0NIMl1bQ0gyXWMyW2NIXVtjSF1bY0hdW2NIXW4y

> <s_epik_cmdline>
J2VwaWtfcHl0aG9uJywgJy1waCcsICc3LjAnLCAnLXRuJywgJzgnLCAnLW1hJywgJzIwMCcsICctbWV0YWxfYmluZGluZycsICctaW1hZScsICc8aW5maWxlLm1hZT4nLCAnLW9tYWUnLCAnPG91dGZpbGUubWFlPic=

> <r_epik_Ionization_Penalty>
0.0267142

> <r_epik_Ionization_Penalty_Charging>
0

> <r_epik_Ionization_Penalty_Neutral>
0.0267142

> <r_epik_State_Penalty>
0.0218233

> <r_epik_Charging_Adjusted_Penalty>
0.0218233

> <i_epik_Tot_Q>
0

> <i_epik_Tot_abs_Q>
0

> <r_epik_Metal_State_Penalty>
0.0208786

> <b_epik_Metal_Only>
0

> <s_lp_Force_Field>
OPLS_2005

> <r_lp_Energy>
16.882

> <b_lp_Chiralities_Consistent>
1

> <s_lp_Variant>
AV-unprocessed.smi:3266-2

> <Gold.Version>
5.8.1

> <Gold.Id.Protein>
6NUR|6NUR_protein|mol2

> <Gold.PLP.Fitness>
44.3903

> <Gold.PLP.PLP>
-40.9794

> <Gold.PLP.part.hbond>
-2.0000

> <Gold.PLP.part.metal>
0.0000

> <Gold.PLP.part.buried>
-4.3802

> <Gold.PLP.part.nonpolar>
-34.5665

> <Gold.PLP.part.repulsive>
0.3912

> <Gold.PLP.ligand.clash>
0.0000

> <Gold.PLP.ligand.torsion>
1.3210

> <Gold.PLP.Chemscore.Hbond>
2.0000

> <Gold.PLP.Chemscore.CHOScore>
0.0000

> <Gold.PLP.Chemscore.Metal>
0.0000

> <Gold.Chemscore.Hbonds>
donor molecule, donor type, donor heavy atom, donor atom, acceptor molecule, acceptor atom, score
      L1  H    10    30       P1  8028  1.00
      P1  H  7989  7998       L1     1  0.80

> <Gold.PLP.Chemscore.Internal.Correction>
0.0529

> <Gold.Rescore>
     Score         DG    S(hbond)    S(metal)    S(lipo)     H(rot)  DE(clash)    DE(int)     intcor
     17.31     -18.69       1.63        0.00     103.97       1.71       0.16       1.22       ----

> <Gold.Chemscore.Fitness>
17.3126

> <Gold.Chemscore.DG>
-18.6916

> <Gold.Chemscore.ZeroCoef>
-5.4800

> <Gold.Chemscore.Hbond>
1.6262

> <Gold.Chemscore.Metal>
0.0000

> <Gold.Chemscore.Lipo>
103.9710

> <Gold.Chemscore.Internal_Hbond>
0.0000

> <Gold.Chemscore.DEClash>
0.1577

> <Gold.Chemscore.DEInternal>
1.2213

> <Gold.Chemscore.Rot>
1.7127

> <Gold.Chemscore.Internal.Correction>
   9.000000E+99

> <Gold.Chemscore.Hbonds>
donor molecule, donor type, donor heavy atom, donor atom, acceptor molecule, acceptor atom, score
      L1  H    10    30       P1  8028  0.99
      P1  H  7989  7998       L1     1  0.11

> <Gold.Chemscore.Hbond.Weighted>
-5.4315

> <Gold.Chemscore.Metal.Weighted>
-0.0000

> <Gold.Chemscore.Lipo.Weighted>
-12.1646

> <Gold.Chemscore.Internal_Hbond.Weighted>
0.0000

> <Gold.Chemscore.DEClash.Weighted>
0.1577

> <Gold.Chemscore.DEInternal.Weighted>
1.2213

> <Gold.Chemscore.Rot.Weighted>
4.3846

> <Gold.Chemscore.Internal.Correction.Weighted>
   9.000000E+99

> <Gold.Protein.RotatedTorsions>
[ 6907 6896 6895 6894 ] final  104.16 input  -60.11 | X-H torsion
[ 7974 7965 7964 7962 ] final  -37.31 input  175.53 | X-H torsion
[ 8008 7997 7996 7995 ] final  -40.04 input   59.86 | X-H torsion
[ 10167 10162 10161 10158 ] final   47.03 input  -65.29 | X-H torsion
[ 10718 10713 10712 10709 ] final -159.05 input   66.30 | X-H torsion
[ 10763 10752 10751 10750 ] final   45.69 input  -60.55 | X-H torsion
[ 11005 11000 10999 10996 ] final  -76.00 input  -57.11 | X-H torsion

> <Gold.Protein.ActiveResidues>
 VAL166  LYS551  ARG553  GLY616  TRP617  ASP618  TYR619  PRO620  LYS621  CYS622 
 ASP623  PHE694  ASN695  SER759  ASP760  ASP761  ALA762  ILE779  LEU786  VAL792 
 PHE793  MET794  SER795  GLU796  ALA797  LYS798  CYS799  TRP800  GLU811  SER814 

> <Gold.Protein.RotatedAtoms>
  152.5273  133.9717  159.7764 H   0  0  0  0  0  0  0  0  0  0  0  0  # atno 6907 bound_to 6896
  150.9988  133.6069  159.2705 H   0  0  0  0  0  0  0  0  0  0  0  0  # atno 6908 bound_to 6896
  151.3185  135.0819  159.9350 H   0  0  0  0  0  0  0  0  0  0  0  0  # atno 6909 bound_to 6896
  146.0586  140.6380  142.9008 H   0  0  0  0  0  0  0  0  0  0  0  0  # atno 7974 bound_to 7965
  154.4016  140.1536  156.2961 H   0  0  0  0  0  0  0  0  0  0  0  0  # atno 8008 bound_to 7997
  155.8742  140.3447  155.5820 H   0  0  0  0  0  0  0  0  0  0  0  0  # atno 8009 bound_to 7997
  155.7740  140.0834  157.2084 H   0  0  0  0  0  0  0  0  0  0  0  0  # atno 8010 bound_to 7997
  140.3078  144.2856  150.6206 H   0  0  0  0  0  0  0  0  0  0  0  0  # atno 10167 bound_to 10162
  156.5627  130.8654  151.2814 H   0  0  0  0  0  0  0  0  0  0  0  0  # atno 10718 bound_to 10713
  152.9821  135.6032  154.3477 H   0  0  0  0  0  0  0  0  0  0  0  0  # atno 10763 bound_to 10752
  154.3169  135.2770  155.2540 H   0  0  0  0  0  0  0  0  0  0  0  0  # atno 10764 bound_to 10752
  154.4725  135.5938  153.6387 H   0  0  0  0  0  0  0  0  0  0  0  0  # atno 10765 bound_to 10752
  141.1650  133.6967  156.7602 H   0  0  0  0  0  0  0  0  0  0  0  0  # atno 11005 bound_to 11000
  144.7162  140.4217  143.7043 LP  0  0  0  0  0  0  0  0  0  0  0  0  # atno 17320 bound_to 7965
  145.6600  139.1579  143.2814 LP  0  0  0  0  0  0  0  0  0  0  0  0  # atno 17321 bound_to 7965
  140.5594  143.2194  151.7791 LP  0  0  0  0  0  0  0  0  0  0  0  0  # atno 17342 bound_to 10162
  139.4900  144.4369  151.9809 LP  0  0  0  0  0  0  0  0  0  0  0  0  # atno 17343 bound_to 10162
  157.7365  130.9780  150.2141 LP  0  0  0  0  0  0  0  0  0  0  0  0  # atno 17370 bound_to 10713
  156.2785  130.3730  149.7959 LP  0  0  0  0  0  0  0  0  0  0  0  0  # atno 17371 bound_to 10713
  140.2539  134.8519  157.3694 LP  0  0  0  0  0  0  0  0  0  0  0  0  # atno 17394 bound_to 11000
  140.1675  134.4650  155.7853 LP  0  0  0  0  0  0  0  0  0  0  0  0  # atno 17395 bound_to 11000

$$$$
