AV-unprocessed.smi:212|AV-procd|sdf|1617|dock9
  -GOLD-   2262019543D 1   1.00000     0.00000
 Structure written by MMmdl.
 65 68  0  0  0  0  0  0  0  0  2 V2000
  148.3350  140.7969  153.1475 C   0  0  0  0  0  0  0  0  0  0  0  0
  148.3037  141.2997  154.6038 C   0  0  2  0  0  0  0  0  0  0  0  0
  149.7145  141.4184  155.2159 C   0  0  0  0  0  0  0  0  0  0  0  0
  149.6494  141.9700  156.5933 N   0  3  2  0  0  0  0  0  0  0  0  0
  150.9885  142.2242  157.1880 C   0  0  0  0  0  0  0  0  0  0  0  0
  150.9723  143.3809  158.2145 C   0  0  0  0  0  0  0  0  0  0  0  0
  151.2916  142.8453  159.6201 C   0  0  0  0  0  0  0  0  0  0  0  0
  151.9507  144.5095  157.8397 C   0  0  0  0  0  0  0  0  0  0  0  0
  149.6686  143.9245  158.2776 O   0  0  0  0  0  0  0  0  0  0  0  0
  148.7552  141.1779  157.4770 C   0  0  0  0  0  0  0  0  0  0  0  0
  147.3523  141.0127  156.8575 C   0  0  0  0  0  0  0  0  0  0  0  0
  147.4113  140.5326  155.4790 N   0  0  0  0  0  0  0  0  0  0  0  0
  147.3915  139.1859  155.3390 C   0  0  0  0  0  0  0  0  0  0  0  0
  148.1587  138.4012  156.1393 N   0  0  0  0  0  0  0  0  0  0  0  0
  148.1424  137.0734  155.9860 C   0  0  0  0  0  0  0  0  0  0  0  0
  147.4473  136.3423  155.1116 N   0  0  0  0  0  0  0  0  0  0  0  0
  146.6781  137.1305  154.3067 C   0  0  0  0  0  0  0  0  0  0  0  0
  146.5913  138.5495  154.3547 C   0  0  0  0  0  0  0  0  0  0  0  0
  145.7102  139.0086  153.3848 N   0  0  0  0  0  0  0  0  0  0  0  0
  145.2970  137.9202  152.7941 C   0  0  0  0  0  0  0  0  0  0  0  0
  145.8236  136.7476  153.2878 N   0  0  0  0  0  0  0  0  0  0  0  0
  145.5407  135.4045  152.8108 C   0  0  0  0  0  0  0  0  0  0  0  0
  146.2801  135.0506  151.4959 C   0  0  2  0  0  0  0  0  0  0  0  0
  145.8409  135.9891  150.3421 C   0  0  0  0  0  0  0  0  0  0  0  0
  146.6707  137.1273  150.2447 O   0  0  0  0  0  0  0  0  0  0  0  0
  146.0736  133.5511  151.1435 C   0  0  2  0  0  0  0  0  0  0  0  0
  144.6267  133.1354  150.9300 C   0  0  0  0  0  0  0  0  0  0  0  0
  144.6971  131.6182  151.0590 C   0  0  0  0  0  0  0  0  0  0  0  0
  145.7433  131.3597  151.9867 O   0  0  0  0  0  0  0  0  0  0  0  0
  146.4775  132.5540  152.2363 C   0  0  0  0  0  0  0  0  0  0  0  0
  148.9184  141.4691  152.5181 H   0  0  0  0  0  0  0  0  0  0  0  0
  147.3300  140.7468  152.7270 H   0  0  0  0  0  0  0  0  0  0  0  0
  148.7829  139.8057  153.0673 H   0  0  0  0  0  0  0  0  0  0  0  0
  147.8818  142.3053  154.5703 H   0  0  0  0  0  0  0  0  0  0  0  0
  150.2140  140.4487  155.2318 H   0  0  0  0  0  0  0  0  0  0  0  0
  150.3230  142.0775  154.5950 H   0  0  0  0  0  0  0  0  0  0  0  0
  151.3773  141.3123  157.6447 H   0  0  0  0  0  0  0  0  0  0  0  0
  151.6999  142.4758  156.3995 H   0  0  0  0  0  0  0  0  0  0  0  0
  152.2892  142.4068  159.6577 H   0  0  0  0  0  0  0  0  0  0  0  0
  150.5828  142.0740  159.9240 H   0  0  0  0  0  0  0  0  0  0  0  0
  151.2543  143.6380  160.3685 H   0  0  0  0  0  0  0  0  0  0  0  0
  152.9731  144.1360  157.7703 H   0  0  0  0  0  0  0  0  0  0  0  0
  151.9425  145.3053  158.5857 H   0  0  0  0  0  0  0  0  0  0  0  0
  151.7003  144.9637  156.8807 H   0  0  0  0  0  0  0  0  0  0  0  0
  149.3875  144.1372  157.4001 H   0  0  0  0  0  0  0  0  0  0  0  0
  149.2052  140.2022  157.6628 H   0  0  0  0  0  0  0  0  0  0  0  0
  148.6660  141.6650  158.4481 H   0  0  0  0  0  0  0  0  0  0  0  0
  146.7467  140.3415  157.4682 H   0  0  0  0  0  0  0  0  0  0  0  0
  146.8376  141.9743  156.8565 H   0  0  0  0  0  0  0  0  0  0  0  0
  148.7785  136.5171  156.6587 H   0  0  0  0  0  0  0  0  0  0  0  0
  144.5902  137.9417  151.9771 H   0  0  0  0  0  0  0  0  0  0  0  0
  145.8216  134.7209  153.6112 H   0  0  0  0  0  0  0  0  0  0  0  0
  144.4637  135.2963  152.6766 H   0  0  0  0  0  0  0  0  0  0  0  0
  147.3444  135.2138  151.6744 H   0  0  0  0  0  0  0  0  0  0  0  0
  145.8364  135.4566  149.3905 H   0  0  0  0  0  0  0  0  0  0  0  0
  144.8302  136.3657  150.4927 H   0  0  0  0  0  0  0  0  0  0  0  0
  146.1248  137.8874  150.1121 H   0  0  0  0  0  0  0  0  0  0  0  0
  146.6327  133.3143  150.2368 H   0  0  0  0  0  0  0  0  0  0  0  0
  143.9916  133.5488  151.7152 H   0  0  0  0  0  0  0  0  0  0  0  0
  144.2241  133.4450  149.9652 H   0  0  0  0  0  0  0  0  0  0  0  0
  143.7535  131.1834  151.3890 H   0  0  0  0  0  0  0  0  0  0  0  0
  144.9628  131.1669  150.1024 H   0  0  0  0  0  0  0  0  0  0  0  0
  147.5490  132.3529  152.2434 H   0  0  0  0  0  0  0  0  0  0  0  0
  146.1956  132.9256  153.2225 H   0  0  0  0  0  0  0  0  0  0  0  0
  149.2169  142.8779  156.5007 H   0  0  0  0  0  0  0  0  0  0  0  0
  1  2  1  0  0  0  0
  1 31  1  0  0  0  0
  1 32  1  0  0  0  0
  1 33  1  0  0  0  0
  2 12  1  0  0  0  0
  2  3  1  0  0  0  0
  2 34  1  0  0  0  0
  3  4  1  0  0  0  0
  3 35  1  0  0  0  0
  3 36  1  0  0  0  0
  4  5  1  0  0  0  0
  4 10  1  0  0  0  0
  4 65  1  0  0  0  0
  5  6  1  0  0  0  0
  5 37  1  0  0  0  0
  5 38  1  0  0  0  0
  6  7  1  0  0  0  0
  6  8  1  0  0  0  0
  6  9  1  0  0  0  0
  7 39  1  0  0  0  0
  7 40  1  0  0  0  0
  7 41  1  0  0  0  0
  8 42  1  0  0  0  0
  8 43  1  0  0  0  0
  8 44  1  0  0  0  0
  9 45  1  0  0  0  0
 10 11  1  0  0  0  0
 10 46  1  0  0  0  0
 10 47  1  0  0  0  0
 11 12  1  0  0  0  0
 11 48  1  0  0  0  0
 11 49  1  0  0  0  0
 12 13  1  0  0  0  0
 13 18  1  0  0  0  0
 13 14  2  0  0  0  0
 14 15  1  0  0  0  0
 15 16  2  0  0  0  0
 15 50  1  0  0  0  0
 16 17  1  0  0  0  0
 17 21  1  0  0  0  0
 17 18  2  0  0  0  0
 18 19  1  0  0  0  0
 19 20  2  0  0  0  0
 20 21  1  0  0  0  0
 20 51  1  0  0  0  0
 21 22  1  0  0  0  0
 22 23  1  0  0  0  0
 22 52  1  0  0  0  0
 22 53  1  0  0  0  0
 23 24  1  0  0  0  0
 23 26  1  0  0  0  0
 23 54  1  0  0  0  0
 24 25  1  0  0  0  0
 24 55  1  0  0  0  0
 24 56  1  0  0  0  0
 25 57  1  0  0  0  0
 26 30  1  0  0  0  0
 26 27  1  0  0  0  0
 26 58  1  0  0  0  0
 27 28  1  0  0  0  0
 27 59  1  0  0  0  0
 27 60  1  0  0  0  0
 28 29  1  0  0  0  0
 28 61  1  0  0  0  0
 28 62  1  0  0  0  0
 29 30  1  0  0  0  0
 30 63  1  0  0  0  0
 30 64  1  0  0  0  0
M  CHG  1   4   1
M  END
> <s_m_source_file>
AV-unprocessed.smi

> <i_m_source_file_index>
212

> <i_lp_mmshare_version>
43012

> <i_f3d_flags>
0

> <s_epik_input>
W0NIM11bQ0BASF0xW0NIMl1OKFtDSDJdQyhbQ0gzXSkoW0NIM10pW09IXSlbQ0gyXVtDSDJdTjFjKG5bY0hdbjIpYyhjMjMpbltjSF1uM1tDSDJdW0NASF0oW0NIMl1bT0hdKVtDQEBIXTRbQ0gyXVtDSDJdT1tDSDJdNA==

> <s_epik_cmdline>
J2VwaWtfcHl0aG9uJywgJy1waCcsICc3LjAnLCAnLXRuJywgJzgnLCAnLW1hJywgJzIwMCcsICctbWV0YWxfYmluZGluZycsICctaW1hZScsICc8aW5maWxlLm1hZT4nLCAnLW9tYWUnLCAnPG91dGZpbGUubWFlPic=

> <r_lp_tautomer_probability>
1

> <r_epik_Ionization_Penalty>
0.00182193

> <r_epik_Ionization_Penalty_Charging>
0.00173996

> <r_epik_Ionization_Penalty_Neutral>
8.19718e-05

> <r_epik_State_Penalty>
-0

> <r_epik_Charging_Adjusted_Penalty>
0.00173996

> <i_epik_Tot_Q>
1

> <i_epik_Tot_abs_Q>
1

> <r_epik_Metal_State_Penalty>
-0

> <b_epik_Metal_Only>
0

> <s_lp_Force_Field>
OPLS_2005

> <r_lp_Energy>
60.482

> <b_lp_Chiralities_Consistent>
1

> <s_lp_Variant>
AV-unprocessed.smi:212-1

> <Gold.Version>
5.8.1

> <Gold.Id.Protein>
6NUR|6NUR_protein|mol2

> <Gold.PLP.Fitness>
49.2325

> <Gold.PLP.PLP>
-36.6319

> <Gold.PLP.part.hbond>
-5.4092

> <Gold.PLP.part.metal>
0.0000

> <Gold.PLP.part.buried>
1.9543

> <Gold.PLP.part.nonpolar>
-34.4265

> <Gold.PLP.part.repulsive>
3.1387

> <Gold.PLP.ligand.clash>
0.0000

> <Gold.PLP.ligand.torsion>
2.6317

> <Gold.PLP.Chemscore.Hbond>
4.6573

> <Gold.PLP.Chemscore.CHOScore>
0.9450

> <Gold.PLP.Chemscore.Metal>
0.0000

> <Gold.Chemscore.Hbonds>
donor molecule, donor type, donor heavy atom, donor atom, acceptor molecule, acceptor atom, score
      L1  H     4    65       P1  8028  1.89
      L1  H     9    45       P1  8028  0.85
      L1  H    25    57       P1 10171  0.16
      P1  H  7954  7966       L1    25  0.68
      L1  C    20    51       P1 10171  1.00
      L1  C    20    51       P1 10175  0.19

> <Gold.PLP.Chemscore.Internal.Correction>
1.0570

> <Gold.Rescore>
     Score         DG    S(hbond)    S(metal)    S(lipo)     H(rot)  DE(clash)    DE(int)     intcor
     11.96     -19.27       2.80        0.00     118.60       3.68       4.61       2.71       ----

> <Gold.Chemscore.Fitness>
11.9551

> <Gold.Chemscore.DG>
-19.2714

> <Gold.Chemscore.ZeroCoef>
-5.4800

> <Gold.Chemscore.Hbond>
2.7961

> <Gold.Chemscore.Metal>
0.0000

> <Gold.Chemscore.Lipo>
118.6022

> <Gold.Chemscore.Internal_Hbond>
0.0000

> <Gold.Chemscore.DEClash>
4.6077

> <Gold.Chemscore.DEInternal>
2.7086

> <Gold.Chemscore.Rot>
3.6812

> <Gold.Chemscore.Internal.Correction>
   9.000000E+99

> <Gold.Chemscore.Hbonds>
donor molecule, donor type, donor heavy atom, donor atom, acceptor molecule, acceptor atom, score
      L1  H     4    65       P1  8028  0.89
      L1  H     9    45       P1  8028  0.15
      L1  H    25    57       P1 10171  0.17
      P1  H  7954  7966       L1    25  0.14

> <Gold.Chemscore.Hbond.Weighted>
-9.3389

> <Gold.Chemscore.Metal.Weighted>
-0.0000

> <Gold.Chemscore.Lipo.Weighted>
-13.8765

> <Gold.Chemscore.Internal_Hbond.Weighted>
0.0000

> <Gold.Chemscore.DEClash.Weighted>
4.6077

> <Gold.Chemscore.DEInternal.Weighted>
2.7086

> <Gold.Chemscore.Rot.Weighted>
9.4239

> <Gold.Chemscore.Internal.Correction.Weighted>
   9.000000E+99

> <Gold.Protein.RotatedTorsions>
[ 6907 6896 6895 6894 ] final  -89.23 input  -60.11 | X-H torsion
[ 7974 7965 7964 7962 ] final  -25.46 input  175.53 | X-H torsion
[ 8008 7997 7996 7995 ] final  117.67 input   59.86 | X-H torsion
[ 10167 10162 10161 10158 ] final  159.86 input  -65.29 | X-H torsion
[ 10718 10713 10712 10709 ] final   81.83 input   66.30 | X-H torsion
[ 10763 10752 10751 10750 ] final -116.42 input  -60.55 | X-H torsion
[ 11005 11000 10999 10996 ] final  -13.72 input  -57.11 | X-H torsion

> <Gold.Protein.ActiveResidues>
 VAL166  LYS551  ARG553  GLY616  TRP617  ASP618  TYR619  PRO620  LYS621  CYS622 
 ASP623  PHE694  ASN695  SER759  ASP760  ASP761  ALA762  ILE779  LEU786  VAL792 
 PHE793  MET794  SER795  GLU796  ALA797  LYS798  CYS799  TRP800  GLU811  SER814 

> <Gold.Protein.RotatedAtoms>
  150.6872  134.2619  159.4552 H   0  0  0  0  0  0  0  0  0  0  0  0  # atno 6907 bound_to 6896
  152.0549  134.9628  160.0584 H   0  0  0  0  0  0  0  0  0  0  0  0  # atno 6908 bound_to 6896
  152.1078  133.4249  159.4654 H   0  0  0  0  0  0  0  0  0  0  0  0  # atno 6909 bound_to 6896
  146.1490  140.4889  142.8619 H   0  0  0  0  0  0  0  0  0  0  0  0  # atno 7974 bound_to 7965
  156.2506  140.2891  156.0715 H   0  0  0  0  0  0  0  0  0  0  0  0  # atno 8008 bound_to 7997
  155.1666  140.0401  157.2871 H   0  0  0  0  0  0  0  0  0  0  0  0  # atno 8009 bound_to 7997
  154.6355  140.2510  155.7390 H   0  0  0  0  0  0  0  0  0  0  0  0  # atno 8010 bound_to 7997
  139.4835  144.4689  151.8603 H   0  0  0  0  0  0  0  0  0  0  0  0  # atno 10167 bound_to 10162
  157.6842  131.0021  150.2284 H   0  0  0  0  0  0  0  0  0  0  0  0  # atno 10718 bound_to 10713
  154.8518  135.4346  154.1818 H   0  0  0  0  0  0  0  0  0  0  0  0  # atno 10763 bound_to 10752
  153.2906  135.6961  153.7302 H   0  0  0  0  0  0  0  0  0  0  0  0  # atno 10764 bound_to 10752
  153.6471  135.3458  155.3063 H   0  0  0  0  0  0  0  0  0  0  0  0  # atno 10765 bound_to 10752
  140.7790  133.8378  155.9275 H   0  0  0  0  0  0  0  0  0  0  0  0  # atno 11005 bound_to 11000
  144.7880  140.5976  143.6560 LP  0  0  0  0  0  0  0  0  0  0  0  0  # atno 17320 bound_to 7965
  145.4870  139.1491  143.3731 LP  0  0  0  0  0  0  0  0  0  0  0  0  # atno 17321 bound_to 7965
  140.4157  144.2310  150.5888 LP  0  0  0  0  0  0  0  0  0  0  0  0  # atno 17342 bound_to 10162
  140.4923  143.2343  151.8800 LP  0  0  0  0  0  0  0  0  0  0  0  0  # atno 17343 bound_to 10162
  156.2922  130.3747  149.7831 LP  0  0  0  0  0  0  0  0  0  0  0  0  # atno 17370 bound_to 10713
  156.5487  130.8332  151.3292 LP  0  0  0  0  0  0  0  0  0  0  0  0  # atno 17371 bound_to 10713
  140.9500  134.1790  157.4734 LP  0  0  0  0  0  0  0  0  0  0  0  0  # atno 17394 bound_to 11000
  139.8745  134.9905  156.5508 LP  0  0  0  0  0  0  0  0  0  0  0  0  # atno 17395 bound_to 11000

$$$$
