AV-unprocessed.smi:1636|AV-procd|sdf|6542|dock6
  -GOLD-   22720 7223D 1   1.00000     0.00000
 Structure written by MMmdl.
 43 44  0  0  0  0  0  0  0  0  1 V2000
  152.4312  143.7407  161.3800 C   0  0  0  0  0  0  0  0  0  0  0  0
  153.1970  142.5728  160.7495 C   0  0  2  0  0  0  0  0  0  0  0  0
  152.2698  141.6345  159.9534 C   0  0  0  0  0  0  0  0  0  0  0  0
  153.0160  140.4808  159.4555 N   0  0  0  0  0  0  0  0  0  0  0  0
  152.3910  139.6519  158.4991 C   0  0  0  0  0  0  0  0  0  0  0  0
  151.2772  138.8605  158.8661 C   0  0  0  0  0  0  0  0  0  0  0  0
  150.6672  138.0425  157.8964 C   0  0  0  0  0  0  0  0  0  0  0  0
  151.1812  138.0291  156.5851 C   0  0  0  0  0  0  0  0  0  0  0  0
  150.5198  137.1568  155.5247 C   0  0  0  0  0  0  0  0  0  0  0  0
  149.9324  137.8801  154.4007 N   0  0  0  0  0  0  0  0  0  0  0  0
  148.6535  138.2744  154.3261 C   0  0  0  0  0  0  0  0  0  0  0  0
  147.8134  138.0590  155.2000 O   0  0  0  0  0  0  0  0  0  0  0  0
  148.3986  138.9238  153.1817 N   0  0  0  0  0  0  0  0  0  0  0  0
  147.0982  139.4578  152.7912 C   0  0  0  0  0  0  0  0  0  0  0  0
  146.1882  138.3671  152.2000 C   0  0  0  0  0  0  0  0  0  0  0  0
  146.5550  138.0994  150.8632 O   0  0  0  0  0  0  0  0  0  0  0  0
  152.2954  138.8525  156.3105 C   0  0  0  0  0  0  0  0  0  0  0  0
  152.8862  139.6366  157.2368 N   0  0  0  0  0  0  0  0  0  0  0  0
  153.7654  139.7832  160.4970 C   0  0  0  0  0  0  0  0  0  0  0  0
  154.6348  140.7760  161.2873 C   0  0  0  0  0  0  0  0  0  0  0  0
  153.8246  141.8323  161.7925 O   0  0  0  0  0  0  0  0  0  0  0  0
  151.9452  144.3485  160.6162 H   0  0  0  0  0  0  0  0  0  0  0  0
  153.1038  144.3889  161.9420 H   0  0  0  0  0  0  0  0  0  0  0  0
  151.6612  143.3844  162.0650 H   0  0  0  0  0  0  0  0  0  0  0  0
  153.9642  142.9790  160.0877 H   0  0  0  0  0  0  0  0  0  0  0  0
  151.4513  141.2878  160.5860 H   0  0  0  0  0  0  0  0  0  0  0  0
  151.8290  142.1826  159.1195 H   0  0  0  0  0  0  0  0  0  0  0  0
  150.8955  138.8614  159.8762 H   0  0  0  0  0  0  0  0  0  0  0  0
  149.8161  137.4317  158.1597 H   0  0  0  0  0  0  0  0  0  0  0  0
  151.2431  136.4290  155.1522 H   0  0  0  0  0  0  0  0  0  0  0  0
  149.7276  136.5824  156.0050 H   0  0  0  0  0  0  0  0  0  0  0  0
  150.5459  138.1027  153.6304 H   0  0  0  0  0  0  0  0  0  0  0  0
  149.1547  139.0470  152.5242 H   0  0  0  0  0  0  0  0  0  0  0  0
  146.6199  139.8894  153.6721 H   0  0  0  0  0  0  0  0  0  0  0  0
  147.2333  140.2833  152.0914 H   0  0  0  0  0  0  0  0  0  0  0  0
  146.2036  137.4498  152.7900 H   0  0  0  0  0  0  0  0  0  0  0  0
  145.1565  138.7190  152.1891 H   0  0  0  0  0  0  0  0  0  0  0  0
  145.8006  138.2393  150.3117 H   0  0  0  0  0  0  0  0  0  0  0  0
  152.7307  138.8943  155.3232 H   0  0  0  0  0  0  0  0  0  0  0  0
  153.0595  139.2908  161.1673 H   0  0  0  0  0  0  0  0  0  0  0  0
  154.4041  139.0046  160.0821 H   0  0  0  0  0  0  0  0  0  0  0  0
  155.1166  140.2689  162.1234 H   0  0  0  0  0  0  0  0  0  0  0  0
  155.4307  141.1815  160.6603 H   0  0  0  0  0  0  0  0  0  0  0  0
  1  2  1  0  0  0  0
  1 22  1  0  0  0  0
  1 23  1  0  0  0  0
  1 24  1  0  0  0  0
  2 21  1  0  0  0  0
  2  3  1  0  0  0  0
  2 25  1  0  0  0  0
  3  4  1  0  0  0  0
  3 26  1  0  0  0  0
  3 27  1  0  0  0  0
  4  5  1  0  0  0  0
  4 19  1  0  0  0  0
  5 18  1  0  0  0  0
  5  6  2  0  0  0  0
  6  7  1  0  0  0  0
  6 28  1  0  0  0  0
  7  8  2  0  0  0  0
  7 29  1  0  0  0  0
  8  9  1  0  0  0  0
  8 17  1  0  0  0  0
  9 10  1  0  0  0  0
  9 30  1  0  0  0  0
  9 31  1  0  0  0  0
 10 11  1  0  0  0  0
 10 32  1  0  0  0  0
 11 12  2  0  0  0  0
 11 13  1  0  0  0  0
 13 14  1  0  0  0  0
 13 33  1  0  0  0  0
 14 15  1  0  0  0  0
 14 34  1  0  0  0  0
 14 35  1  0  0  0  0
 15 16  1  0  0  0  0
 15 36  1  0  0  0  0
 15 37  1  0  0  0  0
 16 38  1  0  0  0  0
 17 18  2  0  0  0  0
 17 39  1  0  0  0  0
 19 20  1  0  0  0  0
 19 40  1  0  0  0  0
 19 41  1  0  0  0  0
 20 21  1  0  0  0  0
 20 42  1  0  0  0  0
 20 43  1  0  0  0  0
M  END
> <s_m_source_file>
AV-unprocessed.smi

> <i_m_source_file_index>
1636

> <i_lp_mmshare_version>
43012

> <i_f3d_flags>
0

> <s_epik_input>
W0NIM11bQ0BASF0xW0NIMl1OKFtDSDJdW0NIMl1PMSljMltjSF1bY0hdYyhbY0hdbjIpW0NIMl1bTkhdQyg9TylbTkhdW0NIMl1bQ0gyXVtPSF0=

> <s_epik_cmdline>
J2VwaWtfcHl0aG9uJywgJy1waCcsICc3LjAnLCAnLXRuJywgJzgnLCAnLW1hJywgJzIwMCcsICctbWV0YWxfYmluZGluZycsICctaW1hZScsICc8aW5maWxlLm1hZT4nLCAnLW9tYWUnLCAnPG91dGZpbGUubWFlPic=

> <r_lp_tautomer_probability>
1

> <r_epik_Ionization_Penalty>
0.00695222

> <r_epik_Ionization_Penalty_Charging>
0

> <r_epik_Ionization_Penalty_Neutral>
0.00695222

> <r_epik_State_Penalty>
0.00513345

> <r_epik_Charging_Adjusted_Penalty>
0.00513345

> <i_epik_Tot_Q>
0

> <i_epik_Tot_abs_Q>
0

> <r_epik_Metal_State_Penalty>
-0

> <b_epik_Metal_Only>
0

> <s_lp_Force_Field>
OPLS_2005

> <r_lp_Energy>
15.2616

> <b_lp_Chiralities_Consistent>
1

> <s_lp_Variant>
AV-unprocessed.smi:1636-1

> <Gold.Version>
5.8.1

> <Gold.Id.Protein>
6NUR|6NUR_protein|mol2

> <Gold.PLP.Fitness>
48.3565

> <Gold.PLP.PLP>
-37.4313

> <Gold.PLP.part.hbond>
-6.9328

> <Gold.PLP.part.metal>
0.0000

> <Gold.PLP.part.buried>
-4.1631

> <Gold.PLP.part.nonpolar>
-27.3414

> <Gold.PLP.part.repulsive>
0.1853

> <Gold.PLP.ligand.clash>
0.0000

> <Gold.PLP.ligand.torsion>
0.5870

> <Gold.PLP.Chemscore.Hbond>
3.9200

> <Gold.PLP.Chemscore.CHOScore>
0.0000

> <Gold.PLP.Chemscore.Metal>
0.0000

> <Gold.Chemscore.Hbonds>
donor molecule, donor type, donor heavy atom, donor atom, acceptor molecule, acceptor atom, score
      L1  H    13    33       P1  7957  0.82
      L1  H    16    38       P1 10171  1.00
      P1  H  7954  7966       L1    16  1.00
      P1  H  7997  8008       L1    18  1.00

> <Gold.PLP.Chemscore.Internal.Correction>
0.3391

> <Gold.Rescore>
     Score         DG    S(hbond)    S(metal)    S(lipo)     H(rot)  DE(clash)    DE(int)     intcor
     20.02     -20.72       3.72        0.00      84.93       2.78       0.00       0.70       ----

> <Gold.Chemscore.Fitness>
20.0162

> <Gold.Chemscore.DG>
-20.7221

> <Gold.Chemscore.ZeroCoef>
-5.4800

> <Gold.Chemscore.Hbond>
3.7212

> <Gold.Chemscore.Metal>
0.0000

> <Gold.Chemscore.Lipo>
84.9348

> <Gold.Chemscore.Internal_Hbond>
0.0000

> <Gold.Chemscore.DEClash>
0.0029

> <Gold.Chemscore.DEInternal>
0.7029

> <Gold.Chemscore.Rot>
2.7828

> <Gold.Chemscore.Internal.Correction>
   9.000000E+99

> <Gold.Chemscore.Hbonds>
donor molecule, donor type, donor heavy atom, donor atom, acceptor molecule, acceptor atom, score
      L1  H    13    33       P1  7957  0.80
      L1  H    16    38       P1 10171  0.96
      P1  H  7954  7966       L1    16  0.84
      P1  H  7997  8008       L1    18  0.89

> <Gold.Chemscore.Hbond.Weighted>
-12.4288

> <Gold.Chemscore.Metal.Weighted>
-0.0000

> <Gold.Chemscore.Lipo.Weighted>
-9.9374

> <Gold.Chemscore.Internal_Hbond.Weighted>
0.0000

> <Gold.Chemscore.DEClash.Weighted>
0.0029

> <Gold.Chemscore.DEInternal.Weighted>
0.7029

> <Gold.Chemscore.Rot.Weighted>
7.1241

> <Gold.Chemscore.Internal.Correction.Weighted>
   9.000000E+99

> <Gold.Protein.RotatedTorsions>
[ 6907 6896 6895 6894 ] final -111.43 input  -60.11 | X-H torsion
[ 7974 7965 7964 7962 ] final  143.14 input  175.53 | X-H torsion
[ 8008 7997 7996 7995 ] final  -80.88 input   59.86 | X-H torsion
[ 10167 10162 10161 10158 ] final -106.28 input  -65.29 | X-H torsion
[ 10718 10713 10712 10709 ] final -135.99 input   66.30 | X-H torsion
[ 10763 10752 10751 10750 ] final   59.38 input  -60.55 | X-H torsion
[ 11005 11000 10999 10996 ] final -137.58 input  -57.11 | X-H torsion

> <Gold.Protein.ActiveResidues>
 VAL166  LYS551  ARG553  GLY616  TRP617  ASP618  TYR619  PRO620  LYS621  CYS622 
 ASP623  PHE694  ASN695  SER759  ASP760  ASP761  ALA762  ILE779  LEU786  VAL792 
 PHE793  MET794  SER795  GLU796  ALA797  LYS798  CYS799  TRP800  GLU811  SER814 

> <Gold.Protein.RotatedAtoms>
  150.7690  133.9236  159.3405 H   0  0  0  0  0  0  0  0  0  0  0  0  # atno 6907 bound_to 6896
  151.7127  135.0907  160.0280 H   0  0  0  0  0  0  0  0  0  0  0  0  # atno 6908 bound_to 6896
  152.3699  133.6367  159.6115 H   0  0  0  0  0  0  0  0  0  0  0  0  # atno 6909 bound_to 6896
  144.8947  139.5508  143.5782 H   0  0  0  0  0  0  0  0  0  0  0  0  # atno 7974 bound_to 7965
  154.5927  140.0656  156.9261 H   0  0  0  0  0  0  0  0  0  0  0  0  # atno 8008 bound_to 7997
  155.2267  140.3334  155.4290 H   0  0  0  0  0  0  0  0  0  0  0  0  # atno 8009 bound_to 7997
  156.2267  140.1822  156.7330 H   0  0  0  0  0  0  0  0  0  0  0  0  # atno 8010 bound_to 7997
  140.1895  143.3903  152.1218 H   0  0  0  0  0  0  0  0  0  0  0  0  # atno 10167 bound_to 10162
  156.2721  130.7272  151.1242 H   0  0  0  0  0  0  0  0  0  0  0  0  # atno 10718 bound_to 10713
  152.9893  135.5573  154.5704 H   0  0  0  0  0  0  0  0  0  0  0  0  # atno 10763 bound_to 10752
  154.5106  135.2802  155.1348 H   0  0  0  0  0  0  0  0  0  0  0  0  # atno 10764 bound_to 10752
  154.2741  135.6357  153.5374 H   0  0  0  0  0  0  0  0  0  0  0  0  # atno 10765 bound_to 10752
  140.8697  134.2066  157.4658 H   0  0  0  0  0  0  0  0  0  0  0  0  # atno 11005 bound_to 11000
  146.3074  139.7627  142.9046 LP  0  0  0  0  0  0  0  0  0  0  0  0  # atno 17320 bound_to 7965
  145.3721  141.0344  143.3225 LP  0  0  0  0  0  0  0  0  0  0  0  0  # atno 17321 bound_to 7965
  139.5262  144.7105  151.5221 LP  0  0  0  0  0  0  0  0  0  0  0  0  # atno 17342 bound_to 10162
  140.6466  143.8783  150.6743 LP  0  0  0  0  0  0  0  0  0  0  0  0  # atno 17343 bound_to 10162
  157.7287  131.0629  150.5807 LP  0  0  0  0  0  0  0  0  0  0  0  0  # atno 17370 bound_to 10713
  156.5904  130.4328  149.5939 LP  0  0  0  0  0  0  0  0  0  0  0  0  # atno 17371 bound_to 10713
  139.8711  134.9768  156.4937 LP  0  0  0  0  0  0  0  0  0  0  0  0  # atno 17394 bound_to 11000
  140.8587  133.8076  155.9243 LP  0  0  0  0  0  0  0  0  0  0  0  0  # atno 17395 bound_to 11000

$$$$
