AV-unprocessed.smi:379|AV-procd|sdf|2459|dock3
  -GOLD-   2262022403D 1   1.00000     0.00000
 Structure written by MMmdl.
 39 40  0  0  0  0  0  0  0  0  1 V2000
  149.5893  139.2929  158.1467 C   0  0  0  0  0  0  0  0  0  0  0  0
  150.4149  138.0018  158.0444 C   0  0  0  0  0  0  0  0  0  0  0  0
  151.6919  138.1332  157.1896 C   0  0  1  0  0  0  0  0  0  0  0  0
  151.3912  138.7616  155.8217 C   0  0  0  0  0  0  0  0  0  0  0  0
  152.6977  138.9430  157.8754 N   0  0  0  0  0  0  0  0  0  0  0  0
  153.2636  138.6603  159.0594 C   0  0  0  0  0  0  0  0  0  0  0  0
  153.0029  137.6482  159.7114 O   0  0  0  0  0  0  0  0  0  0  0  0
  154.2835  139.6861  159.5755 C   0  0  0  0  0  0  0  0  0  0  0  0
  153.6594  140.8033  160.3175 N   0  0  0  0  0  0  0  0  0  0  0  0
  154.1332  141.0917  161.6232 C   0  0  0  0  0  0  0  0  0  0  0  0
  155.0238  140.4138  162.1391 O   0  0  0  0  0  0  0  0  0  0  0  0
  153.5072  142.2358  162.2813 C   0  0  0  0  0  0  0  0  0  0  0  0
  153.9794  142.5770  163.5821 C   0  0  0  0  0  0  0  0  0  0  0  0
  154.3673  142.8770  164.6305 N   0  0  0  0  0  0  0  0  0  0  0  0
  152.5287  142.9374  161.6732 C   0  0  0  0  0  0  0  0  0  0  0  0
  152.0558  142.6165  160.4195 N   0  0  0  0  0  0  0  0  0  0  0  0
  151.1285  143.4679  159.7292 C   0  0  0  0  0  0  0  0  0  0  0  0
  151.5803  144.1778  158.4715 C   0  0  0  0  0  0  0  0  0  0  0  0
  151.3243  144.9717  159.7293 C   0  0  0  0  0  0  0  0  0  0  0  0
  152.6497  141.5674  159.6838 C   0  0  0  0  0  0  0  0  0  0  0  0
  152.3089  141.3305  158.5222 O   0  0  0  0  0  0  0  0  0  0  0  0
  148.7456  139.1586  158.8237 H   0  0  0  0  0  0  0  0  0  0  0  0
  149.1863  139.5900  157.1782 H   0  0  0  0  0  0  0  0  0  0  0  0
  150.1929  140.1174  158.5268 H   0  0  0  0  0  0  0  0  0  0  0  0
  150.6949  137.6918  159.0520 H   0  0  0  0  0  0  0  0  0  0  0  0
  149.7849  137.2043  157.6481 H   0  0  0  0  0  0  0  0  0  0  0  0
  152.0832  137.1313  157.0046 H   0  0  0  0  0  0  0  0  0  0  0  0
  150.6681  138.1636  155.2664 H   0  0  0  0  0  0  0  0  0  0  0  0
  152.2941  138.8321  155.2142 H   0  0  0  0  0  0  0  0  0  0  0  0
  150.9807  139.7665  155.9267 H   0  0  0  0  0  0  0  0  0  0  0  0
  152.9777  139.7971  157.4152 H   0  0  0  0  0  0  0  0  0  0  0  0
  155.0173  139.1580  160.1855 H   0  0  0  0  0  0  0  0  0  0  0  0
  154.8654  140.0692  158.7350 H   0  0  0  0  0  0  0  0  0  0  0  0
  152.0933  143.7814  162.1885 H   0  0  0  0  0  0  0  0  0  0  0  0
  150.0949  143.1259  159.7330 H   0  0  0  0  0  0  0  0  0  0  0  0
  152.6165  144.0607  158.1597 H   0  0  0  0  0  0  0  0  0  0  0  0
  150.8589  144.2714  157.6622 H   0  0  0  0  0  0  0  0  0  0  0  0
  150.4317  145.5930  159.7601 H   0  0  0  0  0  0  0  0  0  0  0  0
  152.1925  145.3787  160.2446 H   0  0  0  0  0  0  0  0  0  0  0  0
  1  2  1  0  0  0  0
  1 22  1  0  0  0  0
  1 23  1  0  0  0  0
  1 24  1  0  0  0  0
  2  3  1  0  0  0  0
  2 25  1  0  0  0  0
  2 26  1  0  0  0  0
  3  4  1  0  0  0  0
  3  5  1  0  0  0  0
  3 27  1  0  0  0  0
  4 28  1  0  0  0  0
  4 29  1  0  0  0  0
  4 30  1  0  0  0  0
  5  6  1  0  0  0  0
  5 31  1  0  0  0  0
  6  7  2  0  0  0  0
  6  8  1  0  0  0  0
  8  9  1  0  0  0  0
  8 32  1  0  0  0  0
  8 33  1  0  0  0  0
  9 20  1  0  0  0  0
  9 10  1  0  0  0  0
 10 11  2  0  0  0  0
 10 12  1  0  0  0  0
 12 13  1  0  0  0  0
 12 15  2  0  0  0  0
 13 14  3  0  0  0  0
 15 16  1  0  0  0  0
 15 34  1  0  0  0  0
 16 17  1  0  0  0  0
 16 20  1  0  0  0  0
 17 19  1  0  0  0  0
 17 18  1  0  0  0  0
 17 35  1  0  0  0  0
 18 19  1  0  0  0  0
 18 36  1  0  0  0  0
 18 37  1  0  0  0  0
 19 38  1  0  0  0  0
 19 39  1  0  0  0  0
 20 21  2  0  0  0  0
M  END
> <s_m_source_file>
AV-unprocessed.smi

> <i_m_source_file_index>
379

> <i_lp_mmshare_version>
43012

> <i_f3d_flags>
0

> <s_epik_input>
W0NIM11bQ0gyXVtDQEhdKFtDSDNdKVtOSF1DKD1PKVtDSDJdbjFjKD1PKWMoQyNOKVtjSF1uKGMxPU8pW0NIXTJbQ0gyXVtDSDJdMg==

> <s_epik_cmdline>
J2VwaWtfcHl0aG9uJywgJy1waCcsICc3LjAnLCAnLXRuJywgJzgnLCAnLW1hJywgJzIwMCcsICctbWV0YWxfYmluZGluZycsICctaW1hZScsICc8aW5maWxlLm1hZT4nLCAnLW9tYWUnLCAnPG91dGZpbGUubWFlPic=

> <r_lp_tautomer_probability>
1

> <r_epik_Ionization_Penalty>
1.93863e-08

> <r_epik_Ionization_Penalty_Charging>
8.45512e-11

> <r_epik_Ionization_Penalty_Neutral>
1.93017e-08

> <r_epik_State_Penalty>
-0

> <r_epik_Charging_Adjusted_Penalty>
8.45512e-11

> <i_epik_Tot_Q>
0

> <i_epik_Tot_abs_Q>
0

> <r_epik_Metal_State_Penalty>
-0

> <b_epik_Metal_Only>
0

> <s_lp_Force_Field>
OPLS_2005

> <r_lp_Energy>
29.1248

> <b_lp_Chiralities_Consistent>
1

> <s_lp_Variant>
AV-unprocessed.smi:379-2

> <Gold.Version>
5.8.1

> <Gold.Id.Protein>
6NUR|6NUR_protein|mol2

> <Gold.PLP.Fitness>
49.2355

> <Gold.PLP.PLP>
-50.2295

> <Gold.PLP.part.hbond>
-1.2496

> <Gold.PLP.part.metal>
0.0000

> <Gold.PLP.part.buried>
-6.1724

> <Gold.PLP.part.nonpolar>
-41.9549

> <Gold.PLP.part.repulsive>
0.1455

> <Gold.PLP.ligand.clash>
0.0000

> <Gold.PLP.ligand.torsion>
0.6129

> <Gold.PLP.Chemscore.Hbond>
0.0000

> <Gold.PLP.Chemscore.CHOScore>
0.0000

> <Gold.PLP.Chemscore.Metal>
0.0000

> <Gold.PLP.Chemscore.Internal.Correction>
0.2318

> <Gold.Rescore>
     Score         DG    S(hbond)    S(metal)    S(lipo)     H(rot)  DE(clash)    DE(int)     intcor
      7.41      -9.84       0.00        0.00      80.53       1.98       0.04       2.39       ----

> <Gold.Chemscore.Fitness>
7.4104

> <Gold.Chemscore.DG>
-9.8396

> <Gold.Chemscore.ZeroCoef>
-5.4800

> <Gold.Chemscore.Hbond>
0.0000

> <Gold.Chemscore.Metal>
0.0000

> <Gold.Chemscore.Lipo>
80.5288

> <Gold.Chemscore.Internal_Hbond>
0.0000

> <Gold.Chemscore.DEClash>
0.0363

> <Gold.Chemscore.DEInternal>
2.3930

> <Gold.Chemscore.Rot>
1.9774

> <Gold.Chemscore.Internal.Correction>
   9.000000E+99

> <Gold.Chemscore.Hbond.Weighted>
-0.0000

> <Gold.Chemscore.Metal.Weighted>
-0.0000

> <Gold.Chemscore.Lipo.Weighted>
-9.4219

> <Gold.Chemscore.Internal_Hbond.Weighted>
0.0000

> <Gold.Chemscore.DEClash.Weighted>
0.0363

> <Gold.Chemscore.DEInternal.Weighted>
2.3930

> <Gold.Chemscore.Rot.Weighted>
5.0623

> <Gold.Chemscore.Internal.Correction.Weighted>
   9.000000E+99

> <Gold.Protein.RotatedTorsions>
[ 6907 6896 6895 6894 ] final  157.45 input  -60.11 | X-H torsion
[ 7974 7965 7964 7962 ] final  148.43 input  175.53 | X-H torsion
[ 8008 7997 7996 7995 ] final  118.71 input   59.86 | X-H torsion
[ 10167 10162 10161 10158 ] final  -74.45 input  -65.29 | X-H torsion
[ 10718 10713 10712 10709 ] final  -14.62 input   66.30 | X-H torsion
[ 10763 10752 10751 10750 ] final    8.69 input  -60.55 | X-H torsion
[ 11005 11000 10999 10996 ] final  146.88 input  -57.11 | X-H torsion

> <Gold.Protein.ActiveResidues>
 VAL166  LYS551  ARG553  GLY616  TRP617  ASP618  TYR619  PRO620  LYS621  CYS622 
 ASP623  PHE694  ASN695  SER759  ASP760  ASP761  ALA762  ILE779  LEU786  VAL792 
 PHE793  MET794  SER795  GLU796  ALA797  LYS798  CYS799  TRP800  GLU811  SER814 

> <Gold.Protein.RotatedAtoms>
  152.0149  133.3876  159.4234 H   0  0  0  0  0  0  0  0  0  0  0  0  # atno 6907 bound_to 6896
  150.6896  134.3689  159.4992 H   0  0  0  0  0  0  0  0  0  0  0  0  # atno 6908 bound_to 6896
  152.1455  134.9029  160.0602 H   0  0  0  0  0  0  0  0  0  0  0  0  # atno 6909 bound_to 6896
  144.8514  139.6153  143.5972 H   0  0  0  0  0  0  0  0  0  0  0  0  # atno 7974 bound_to 7965
  156.2560  140.2869  156.0877 H   0  0  0  0  0  0  0  0  0  0  0  0  # atno 8008 bound_to 7997
  155.1497  140.0397  157.2835 H   0  0  0  0  0  0  0  0  0  0  0  0  # atno 8009 bound_to 7997
  154.6470  140.2535  155.7263 H   0  0  0  0  0  0  0  0  0  0  0  0  # atno 8010 bound_to 7997
  140.5026  143.2358  151.7727 H   0  0  0  0  0  0  0  0  0  0  0  0  # atno 10167 bound_to 10162
  156.6134  130.4856  149.6192 H   0  0  0  0  0  0  0  0  0  0  0  0  # atno 10718 bound_to 10713
  153.2222  135.6882  153.7987 H   0  0  0  0  0  0  0  0  0  0  0  0  # atno 10763 bound_to 10752
  153.7181  135.3271  155.3262 H   0  0  0  0  0  0  0  0  0  0  0  0  # atno 10764 bound_to 10752
  154.8275  135.4606  154.1074 H   0  0  0  0  0  0  0  0  0  0  0  0  # atno 10765 bound_to 10752
  140.0830  134.9086  157.1531 H   0  0  0  0  0  0  0  0  0  0  0  0  # atno 11005 bound_to 11000
  146.2788  139.6823  142.9244 LP  0  0  0  0  0  0  0  0  0  0  0  0  # atno 17320 bound_to 7965
  145.4492  141.0427  143.2814 LP  0  0  0  0  0  0  0  0  0  0  0  0  # atno 17321 bound_to 7965
  139.4876  144.4501  151.9664 LP  0  0  0  0  0  0  0  0  0  0  0  0  # atno 17342 bound_to 10162
  140.3591  144.2995  150.5936 LP  0  0  0  0  0  0  0  0  0  0  0  0  # atno 17343 bound_to 10162
  156.2371  130.6829  151.1520 LP  0  0  0  0  0  0  0  0  0  0  0  0  # atno 17370 bound_to 10713
  157.7248  131.0657  150.5981 LP  0  0  0  0  0  0  0  0  0  0  0  0  # atno 17371 bound_to 10713
  140.3461  134.2650  155.7205 LP  0  0  0  0  0  0  0  0  0  0  0  0  # atno 17394 bound_to 11000
  141.2053  133.7864  157.0240 LP  0  0  0  0  0  0  0  0  0  0  0  0  # atno 17395 bound_to 11000

$$$$
