AV-unprocessed.smi:1662|AV-procd|sdf|6660|dock9
  -GOLD-   22720 7373D 1   1.00000     0.00000
 Structure written by MMmdl.
 47 48  0  0  0  0  0  0  0  0  1 V2000
  148.9798  141.4136  154.7306 C   0  0  0  0  0  0  0  0  0  0  0  0
  149.0378  140.1191  155.4956 C   0  0  0  0  0  0  0  0  0  0  0  0
  149.7799  140.1031  156.5535 N   0  0  0  0  0  0  0  0  0  0  0  0
  149.8942  138.9697  157.3356 N   0  0  0  0  0  0  0  0  0  0  0  0
  150.7101  139.1590  158.5479 C   0  0  0  0  0  0  0  0  0  0  0  0
  151.8955  140.1244  158.3678 C   0  0  0  0  0  0  0  0  0  0  0  0
  152.7363  139.8959  157.4995 O   0  0  0  0  0  0  0  0  0  0  0  0
  151.9543  141.1914  159.1808 N   0  0  0  0  0  0  0  0  0  0  0  0
  152.9809  142.2290  159.1969 C   0  0  1  0  0  0  0  0  0  0  0  0
  152.3671  143.6027  158.8630 C   0  0  0  0  0  0  0  0  0  0  0  0
  151.4266  144.0902  159.9752 C   0  0  0  0  0  0  0  0  0  0  0  0
  152.1488  144.1232  161.3288 C   0  0  0  0  0  0  0  0  0  0  0  0
  152.7585  142.7551  161.6992 C   0  0  2  0  0  0  0  0  0  0  0  0
  153.4563  142.8493  163.0676 C   0  0  0  0  0  0  0  0  0  0  0  0
  153.7018  142.2503  160.5700 C   0  0  1  0  0  0  0  0  0  0  0  0
  154.3369  140.8802  160.8859 C   0  0  0  0  0  0  0  0  0  0  0  0
  149.2708  137.7833  157.0787 C   0  0  0  0  0  0  0  0  0  0  0  0
  149.3897  136.8006  157.8116 O   0  0  0  0  0  0  0  0  0  0  0  0
  148.4374  137.8068  155.8751 C   0  0  0  0  0  0  0  0  0  0  0  0
  147.7601  136.5868  155.5750 C   0  0  0  0  0  0  0  0  0  0  0  0
  147.2243  135.5939  155.3163 N   0  0  0  0  0  0  0  0  0  0  0  0
  148.3089  138.9165  155.1056 C   0  0  0  0  0  0  0  0  0  0  0  0
  147.4492  138.9954  153.8517 C   0  0  0  0  0  0  0  0  0  0  0  0
  149.2964  141.2690  153.6977 H   0  0  0  0  0  0  0  0  0  0  0  0
  149.6271  142.1747  155.1689 H   0  0  0  0  0  0  0  0  0  0  0  0
  147.9652  141.8113  154.7215 H   0  0  0  0  0  0  0  0  0  0  0  0
  150.0917  139.5124  159.3748 H   0  0  0  0  0  0  0  0  0  0  0  0
  151.1078  138.1973  158.8772 H   0  0  0  0  0  0  0  0  0  0  0  0
  151.2138  141.2917  159.8597 H   0  0  0  0  0  0  0  0  0  0  0  0
  153.7208  141.9912  158.4304 H   0  0  0  0  0  0  0  0  0  0  0  0
  153.1682  144.3301  158.7263 H   0  0  0  0  0  0  0  0  0  0  0  0
  151.8321  143.5609  157.9134 H   0  0  0  0  0  0  0  0  0  0  0  0
  151.0497  145.0837  159.7313 H   0  0  0  0  0  0  0  0  0  0  0  0
  150.5541  143.4385  160.0386 H   0  0  0  0  0  0  0  0  0  0  0  0
  152.9352  144.8788  161.2989 H   0  0  0  0  0  0  0  0  0  0  0  0
  151.4484  144.4408  162.1020 H   0  0  0  0  0  0  0  0  0  0  0  0
  151.9372  142.0443  161.8052 H   0  0  0  0  0  0  0  0  0  0  0  0
  154.3363  143.4912  163.0214 H   0  0  0  0  0  0  0  0  0  0  0  0
  153.7720  141.8711  163.4290 H   0  0  0  0  0  0  0  0  0  0  0  0
  152.7850  143.2622  163.8210 H   0  0  0  0  0  0  0  0  0  0  0  0
  154.5224  142.9645  160.4851 H   0  0  0  0  0  0  0  0  0  0  0  0
  153.5824  140.1293  161.1228 H   0  0  0  0  0  0  0  0  0  0  0  0
  155.0216  140.9403  161.7312 H   0  0  0  0  0  0  0  0  0  0  0  0
  154.9144  140.5127  160.0374 H   0  0  0  0  0  0  0  0  0  0  0  0
  146.9271  138.0606  153.6493 H   0  0  0  0  0  0  0  0  0  0  0  0
  148.0645  139.2222  152.9803 H   0  0  0  0  0  0  0  0  0  0  0  0
  146.6943  139.7759  153.9533 H   0  0  0  0  0  0  0  0  0  0  0  0
  1  2  1  0  0  0  0
  1 24  1  0  0  0  0
  1 25  1  0  0  0  0
  1 26  1  0  0  0  0
  2 22  1  0  0  0  0
  2  3  2  0  0  0  0
  3  4  1  0  0  0  0
  4  5  1  0  0  0  0
  4 17  1  0  0  0  0
  5  6  1  0  0  0  0
  5 27  1  0  0  0  0
  5 28  1  0  0  0  0
  6  7  2  0  0  0  0
  6  8  1  0  0  0  0
  8  9  1  0  0  0  0
  8 29  1  0  0  0  0
  9 15  1  0  0  0  0
  9 10  1  0  0  0  0
  9 30  1  0  0  0  0
 10 11  1  0  0  0  0
 10 31  1  0  0  0  0
 10 32  1  0  0  0  0
 11 12  1  0  0  0  0
 11 33  1  0  0  0  0
 11 34  1  0  0  0  0
 12 13  1  0  0  0  0
 12 35  1  0  0  0  0
 12 36  1  0  0  0  0
 13 14  1  0  0  0  0
 13 15  1  0  0  0  0
 13 37  1  0  0  0  0
 14 38  1  0  0  0  0
 14 39  1  0  0  0  0
 14 40  1  0  0  0  0
 15 16  1  0  0  0  0
 15 41  1  0  0  0  0
 16 42  1  0  0  0  0
 16 43  1  0  0  0  0
 16 44  1  0  0  0  0
 17 18  2  0  0  0  0
 17 19  1  0  0  0  0
 19 20  1  0  0  0  0
 19 22  2  0  0  0  0
 20 21  3  0  0  0  0
 22 23  1  0  0  0  0
 23 45  1  0  0  0  0
 23 46  1  0  0  0  0
 23 47  1  0  0  0  0
M  END
> <s_m_source_file>
AV-unprocessed.smi

> <i_m_source_file_index>
1662

> <i_lp_mmshare_version>
43012

> <i_f3d_flags>
0

> <s_epik_input>
TiNDYyhjMVtDSDNdKWMoPU8pbihuYzFbQ0gzXSlbQ0gyXUMoPU8pW05IXVtDQEBIXTJbQ0gyXVtDSDJdW0NIMl1bQ0BASF0oW0NIM10pW0NASF0yW0NIM10=

> <s_epik_cmdline>
J2VwaWtfcHl0aG9uJywgJy1waCcsICc3LjAnLCAnLXRuJywgJzgnLCAnLW1hJywgJzIwMCcsICctbWV0YWxfYmluZGluZycsICctaW1hZScsICc8aW5maWxlLm1hZT4nLCAnLW9tYWUnLCAnPG91dGZpbGUubWFlPic=

> <r_lp_tautomer_probability>
1

> <r_epik_Ionization_Penalty>
1.90709e-08

> <r_epik_Ionization_Penalty_Charging>
2.37982e-11

> <r_epik_Ionization_Penalty_Neutral>
1.90471e-08

> <r_epik_State_Penalty>
-0

> <r_epik_Charging_Adjusted_Penalty>
2.37982e-11

> <i_epik_Tot_Q>
0

> <i_epik_Tot_abs_Q>
0

> <r_epik_Metal_State_Penalty>
-0

> <b_epik_Metal_Only>
0

> <s_lp_Force_Field>
OPLS_2005

> <r_lp_Energy>
25.169

> <b_lp_Chiralities_Consistent>
1

> <s_lp_Variant>
AV-unprocessed.smi:1662-4

> <Gold.Version>
5.8.1

> <Gold.Id.Protein>
6NUR|6NUR_protein|mol2

> <Gold.PLP.Fitness>
44.6718

> <Gold.PLP.PLP>
-42.4046

> <Gold.PLP.part.hbond>
-1.0000

> <Gold.PLP.part.metal>
0.0000

> <Gold.PLP.part.buried>
-4.9774

> <Gold.PLP.part.nonpolar>
-36.1332

> <Gold.PLP.part.repulsive>
0.2151

> <Gold.PLP.ligand.clash>
0.0000

> <Gold.PLP.ligand.torsion>
0.3726

> <Gold.PLP.Chemscore.Hbond>
1.0000

> <Gold.PLP.Chemscore.CHOScore>
0.0000

> <Gold.PLP.Chemscore.Metal>
0.0000

> <Gold.Chemscore.Hbonds>
donor molecule, donor type, donor heavy atom, donor atom, acceptor molecule, acceptor atom, score
      P1  H  7997  8010       L1     7  1.00

> <Gold.PLP.Chemscore.Internal.Correction>
0.0123

> <Gold.Rescore>
     Score         DG    S(hbond)    S(metal)    S(lipo)     H(rot)  DE(clash)    DE(int)     intcor
     18.84     -19.11       0.99        0.00     120.04       1.45       0.01       0.27       ----

> <Gold.Chemscore.Fitness>
18.8356

> <Gold.Chemscore.DG>
-19.1142

> <Gold.Chemscore.ZeroCoef>
-5.4800

> <Gold.Chemscore.Hbond>
0.9886

> <Gold.Chemscore.Metal>
0.0000

> <Gold.Chemscore.Lipo>
120.0447

> <Gold.Chemscore.Internal_Hbond>
0.0000

> <Gold.Chemscore.DEClash>
0.0085

> <Gold.Chemscore.DEInternal>
0.2700

> <Gold.Chemscore.Rot>
1.4504

> <Gold.Chemscore.Internal.Correction>
   9.000000E+99

> <Gold.Chemscore.Hbonds>
donor molecule, donor type, donor heavy atom, donor atom, acceptor molecule, acceptor atom, score
      P1  H  7997  8010       L1     7  0.99

> <Gold.Chemscore.Hbond.Weighted>
-3.3019

> <Gold.Chemscore.Metal.Weighted>
-0.0000

> <Gold.Chemscore.Lipo.Weighted>
-14.0452

> <Gold.Chemscore.Internal_Hbond.Weighted>
0.0000

> <Gold.Chemscore.DEClash.Weighted>
0.0085

> <Gold.Chemscore.DEInternal.Weighted>
0.2700

> <Gold.Chemscore.Rot.Weighted>
3.7129

> <Gold.Chemscore.Internal.Correction.Weighted>
   9.000000E+99

> <Gold.Protein.RotatedTorsions>
[ 6907 6896 6895 6894 ] final  -58.69 input  -60.11 | X-H torsion
[ 7974 7965 7964 7962 ] final  -93.22 input  175.53 | X-H torsion
[ 8008 7997 7996 7995 ] final   55.09 input   59.86 | X-H torsion
[ 10167 10162 10161 10158 ] final -114.88 input  -65.29 | X-H torsion
[ 10718 10713 10712 10709 ] final   24.33 input   66.30 | X-H torsion
[ 10763 10752 10751 10750 ] final -178.60 input  -60.55 | X-H torsion
[ 11005 11000 10999 10996 ] final   -3.40 input  -57.11 | X-H torsion

> <Gold.Protein.ActiveResidues>
 VAL166  LYS551  ARG553  GLY616  TRP617  ASP618  TYR619  PRO620  LYS621  CYS622 
 ASP623  PHE694  ASN695  SER759  ASP760  ASP761  ALA762  ILE779  LEU786  VAL792 
 PHE793  MET794  SER795  GLU796  ALA797  LYS798  CYS799  TRP800  GLU811  SER814 

> <Gold.Protein.RotatedAtoms>
  150.7988  134.7066  159.6579 H   0  0  0  0  0  0  0  0  0  0  0  0  # atno 6907 bound_to 6896
  152.4102  134.6133  160.0041 H   0  0  0  0  0  0  0  0  0  0  0  0  # atno 6908 bound_to 6896
  151.6379  133.3291  159.3159 H   0  0  0  0  0  0  0  0  0  0  0  0  # atno 6909 bound_to 6896
  145.3894  140.9526  143.2349 H   0  0  0  0  0  0  0  0  0  0  0  0  # atno 7974 bound_to 7965
  155.4954  140.3473  155.4362 H   0  0  0  0  0  0  0  0  0  0  0  0  # atno 8008 bound_to 7997
  156.0949  140.1420  156.9571 H   0  0  0  0  0  0  0  0  0  0  0  0  # atno 8009 bound_to 7997
  154.4657  140.0918  156.6992 H   0  0  0  0  0  0  0  0  0  0  0  0  # atno 8010 bound_to 7997
  140.0961  143.4655  152.1840 H   0  0  0  0  0  0  0  0  0  0  0  0  # atno 10167 bound_to 10162
  157.1783  130.6791  149.6103 H   0  0  0  0  0  0  0  0  0  0  0  0  # atno 10718 bound_to 10713
  154.5456  135.2809  155.1056 H   0  0  0  0  0  0  0  0  0  0  0  0  # atno 10763 bound_to 10752
  154.2521  135.6337  153.5248 H   0  0  0  0  0  0  0  0  0  0  0  0  # atno 10764 bound_to 10752
  152.9990  135.5585  154.6007 H   0  0  0  0  0  0  0  0  0  0  0  0  # atno 10765 bound_to 10752
  140.6689  133.9254  155.8482 H   0  0  0  0  0  0  0  0  0  0  0  0  # atno 11005 bound_to 11000
  144.8451  139.5410  143.6882 LP  0  0  0  0  0  0  0  0  0  0  0  0  # atno 17320 bound_to 7965
  146.2805  139.6864  142.9233 LP  0  0  0  0  0  0  0  0  0  0  0  0  # atno 17321 bound_to 7965
  139.5697  144.7456  151.3924 LP  0  0  0  0  0  0  0  0  0  0  0  0  # atno 17342 bound_to 10162
  140.7003  143.7649  150.7391 LP  0  0  0  0  0  0  0  0  0  0  0  0  # atno 17343 bound_to 10162
  155.9728  130.4655  150.6257 LP  0  0  0  0  0  0  0  0  0  0  0  0  # atno 17370 bound_to 10713
  157.3977  131.0805  151.1337 LP  0  0  0  0  0  0  0  0  0  0  0  0  # atno 17371 bound_to 10713
  141.0408  134.0624  157.3904 LP  0  0  0  0  0  0  0  0  0  0  0  0  # atno 17394 bound_to 11000
  139.8988  135.0156  156.7166 LP  0  0  0  0  0  0  0  0  0  0  0  0  # atno 17395 bound_to 11000

$$$$
