AV-unprocessed.smi:2095|AV-procd|sdf|8560|dock2
  -GOLD-   2272011283D 1   1.00000     0.00000
 Structure written by MMmdl.
 42 43  0  0  0  0  0  0  0  0  2 V2000
  153.0986  142.4671  160.8110 C   0  0  0  0  0  0  0  0  0  0  0  0
  152.8922  143.4334  159.6311 C   0  0  2  0  0  0  0  0  0  0  0  0
  152.0349  144.6571  160.0069 C   0  0  0  0  0  0  0  0  0  0  0  0
  150.5518  144.2813  160.1445 C   0  0  0  0  0  0  0  0  0  0  0  0
  150.0465  143.5671  158.8815 C   0  0  0  0  0  0  0  0  0  0  0  0
  150.8779  142.3686  158.5865 N   0  3  1  0  0  0  0  0  0  0  0  0
  150.3429  141.4622  157.5290 C   0  0  1  0  0  0  0  0  0  0  0  0
  148.8278  141.2507  157.7104 C   0  0  0  0  0  0  0  0  0  0  0  0
  150.7118  141.9153  156.0935 C   0  0  0  0  0  0  0  0  0  0  0  0
  150.7781  140.7960  155.1604 N   0  0  0  0  0  0  0  0  0  0  0  0
  151.7827  139.9077  155.0983 C   0  0  0  0  0  0  0  0  0  0  0  0
  152.7631  139.9444  155.8414 O   0  0  0  0  0  0  0  0  0  0  0  0
  151.6598  138.8029  154.0479 C   0  0  0  0  0  0  0  0  0  0  0  0
  151.5255  137.4976  154.6676 N   0  0  0  0  0  0  0  0  0  0  0  0
  150.5335  136.6055  154.6284 C   0  0  0  0  0  0  0  0  0  0  0  0
  150.8121  135.5337  155.3549 N   0  0  0  0  0  0  0  0  0  0  0  0
  152.0695  135.8149  155.8625 N   0  0  0  0  0  0  0  0  0  0  0  0
  152.4983  136.9787  155.4579 N   0  0  0  0  0  0  0  0  0  0  0  0
  152.3097  142.7242  158.3908 C   0  0  0  0  0  0  0  0  0  0  0  0
  152.1610  142.0211  161.1430 H   0  0  0  0  0  0  0  0  0  0  0  0
  153.5410  142.9812  161.6648 H   0  0  0  0  0  0  0  0  0  0  0  0
  153.7705  141.6533  160.5369 H   0  0  0  0  0  0  0  0  0  0  0  0
  153.8827  143.8021  159.3610 H   0  0  0  0  0  0  0  0  0  0  0  0
  152.3985  145.1119  160.9291 H   0  0  0  0  0  0  0  0  0  0  0  0
  152.1377  145.4176  159.2316 H   0  0  0  0  0  0  0  0  0  0  0  0
  150.4068  143.6399  161.0145 H   0  0  0  0  0  0  0  0  0  0  0  0
  149.9591  145.1784  160.3253 H   0  0  0  0  0  0  0  0  0  0  0  0
  149.0045  143.2832  159.0262 H   0  0  0  0  0  0  0  0  0  0  0  0
  150.0748  144.2586  158.0382 H   0  0  0  0  0  0  0  0  0  0  0  0
  150.7973  140.4854  157.6999 H   0  0  0  0  0  0  0  0  0  0  0  0
  148.4600  140.4530  157.0645 H   0  0  0  0  0  0  0  0  0  0  0  0
  148.2589  142.1491  157.4717 H   0  0  0  0  0  0  0  0  0  0  0  0
  148.5910  140.9673  158.7363 H   0  0  0  0  0  0  0  0  0  0  0  0
  149.9632  142.6072  155.7072 H   0  0  0  0  0  0  0  0  0  0  0  0
  151.6616  142.4513  156.0813 H   0  0  0  0  0  0  0  0  0  0  0  0
  150.0114  140.6933  154.5105 H   0  0  0  0  0  0  0  0  0  0  0  0
  150.7877  138.9812  153.4173 H   0  0  0  0  0  0  0  0  0  0  0  0
  152.5357  138.8088  153.3976 H   0  0  0  0  0  0  0  0  0  0  0  0
  149.6150  136.7418  154.0767 H   0  0  0  0  0  0  0  0  0  0  0  0
  152.4052  143.3741  157.5201 H   0  0  0  0  0  0  0  0  0  0  0  0
  152.8965  141.8302  158.1762 H   0  0  0  0  0  0  0  0  0  0  0  0
  150.8644  141.8133  159.4302 H   0  0  0  0  0  0  0  0  0  0  0  0
  1  2  1  0  0  0  0
  1 20  1  0  0  0  0
  1 21  1  0  0  0  0
  1 22  1  0  0  0  0
  2 19  1  0  0  0  0
  2  3  1  0  0  0  0
  2 23  1  0  0  0  0
  3  4  1  0  0  0  0
  3 24  1  0  0  0  0
  3 25  1  0  0  0  0
  4  5  1  0  0  0  0
  4 26  1  0  0  0  0
  4 27  1  0  0  0  0
  5  6  1  0  0  0  0
  5 28  1  0  0  0  0
  5 29  1  0  0  0  0
  6  7  1  0  0  0  0
  6 19  1  0  0  0  0
  6 42  1  0  0  0  0
  7  8  1  0  0  0  0
  7  9  1  0  0  0  0
  7 30  1  0  0  0  0
  8 31  1  0  0  0  0
  8 32  1  0  0  0  0
  8 33  1  0  0  0  0
  9 10  1  0  0  0  0
  9 34  1  0  0  0  0
  9 35  1  0  0  0  0
 10 11  1  0  0  0  0
 10 36  1  0  0  0  0
 11 12  2  0  0  0  0
 11 13  1  0  0  0  0
 13 14  1  0  0  0  0
 13 37  1  0  0  0  0
 13 38  1  0  0  0  0
 14 18  1  0  0  0  0
 14 15  1  0  0  0  0
 15 16  2  0  0  0  0
 15 39  1  0  0  0  0
 16 17  1  0  0  0  0
 17 18  2  0  0  0  0
 19 40  1  0  0  0  0
 19 41  1  0  0  0  0
M  CHG  1   6   1
M  END
> <s_m_source_file>
AV-unprocessed.smi

> <i_m_source_file_index>
2095

> <i_lp_mmshare_version>
43012

> <i_f3d_flags>
0

> <s_epik_input>
W0NIM11bQ0BASF0xW0NIMl1bQ0gyXVtDSDJdTihbQ0gyXTEpW0NASF0oW0NIM10pW0NIMl1bTkhdQyg9TylbQ0gyXW4yW2NIXW5ubjI=

> <s_epik_cmdline>
J2VwaWtfcHl0aG9uJywgJy1waCcsICc3LjAnLCAnLXRuJywgJzgnLCAnLW1hJywgJzIwMCcsICctbWV0YWxfYmluZGluZycsICctaW1hZScsICc8aW5maWxlLm1hZT4nLCAnLW9tYWUnLCAnPG91dGZpbGUubWFlPic=

> <r_lp_tautomer_probability>
1

> <r_epik_Ionization_Penalty>
0.00268321

> <r_epik_Ionization_Penalty_Charging>
0.00267875

> <r_epik_Ionization_Penalty_Neutral>
4.46125e-06

> <r_epik_State_Penalty>
0.00186642

> <r_epik_Charging_Adjusted_Penalty>
0.00454517

> <i_epik_Tot_Q>
1

> <i_epik_Tot_abs_Q>
1

> <r_epik_Metal_State_Penalty>
-0

> <b_epik_Metal_Only>
0

> <s_lp_Force_Field>
OPLS_2005

> <r_lp_Energy>
24.9707

> <b_lp_Chiralities_Consistent>
1

> <s_lp_Variant>
AV-unprocessed.smi:2095-7

> <Gold.Version>
5.8.1

> <Gold.Id.Protein>
6NUR|6NUR_protein|mol2

> <Gold.PLP.Fitness>
44.1103

> <Gold.PLP.PLP>
-36.2739

> <Gold.PLP.part.hbond>
-2.0000

> <Gold.PLP.part.metal>
0.0000

> <Gold.PLP.part.buried>
-7.4700

> <Gold.PLP.part.nonpolar>
-28.9678

> <Gold.PLP.part.repulsive>
1.8410

> <Gold.PLP.ligand.clash>
0.0000

> <Gold.PLP.ligand.torsion>
0.6512

> <Gold.PLP.Chemscore.Hbond>
2.0000

> <Gold.PLP.Chemscore.CHOScore>
1.0000

> <Gold.PLP.Chemscore.Metal>
0.0000

> <Gold.Chemscore.Hbonds>
donor molecule, donor type, donor heavy atom, donor atom, acceptor molecule, acceptor atom, score
      P1  H  7997  8009       L1    12  1.00
      L1  C    15    39       P1  7948  1.00

> <Gold.PLP.Chemscore.Internal.Correction>
0.1387

> <Gold.Rescore>
     Score         DG    S(hbond)    S(metal)    S(lipo)     H(rot)  DE(clash)    DE(int)     intcor
     13.60     -14.98       1.86        0.00      85.78       2.64       0.08       1.29       ----

> <Gold.Chemscore.Fitness>
13.6002

> <Gold.Chemscore.DG>
-14.9755

> <Gold.Chemscore.ZeroCoef>
-5.4800

> <Gold.Chemscore.Hbond>
1.8644

> <Gold.Chemscore.Metal>
0.0000

> <Gold.Chemscore.Lipo>
85.7841

> <Gold.Chemscore.Internal_Hbond>
0.0000

> <Gold.Chemscore.DEClash>
0.0832

> <Gold.Chemscore.DEInternal>
1.2921

> <Gold.Chemscore.Rot>
2.6439

> <Gold.Chemscore.Internal.Correction>
   9.000000E+99

> <Gold.Chemscore.Hbonds>
donor molecule, donor type, donor heavy atom, donor atom, acceptor molecule, acceptor atom, score
      P1  H  7997  8009       L1    12  1.00

> <Gold.Chemscore.Hbond.Weighted>
-6.2272

> <Gold.Chemscore.Metal.Weighted>
-0.0000

> <Gold.Chemscore.Lipo.Weighted>
-10.0367

> <Gold.Chemscore.Internal_Hbond.Weighted>
0.0000

> <Gold.Chemscore.DEClash.Weighted>
0.0832

> <Gold.Chemscore.DEInternal.Weighted>
1.2921

> <Gold.Chemscore.Rot.Weighted>
6.7685

> <Gold.Chemscore.Internal.Correction.Weighted>
   9.000000E+99

> <Gold.Protein.RotatedTorsions>
[ 6907 6896 6895 6894 ] final  -32.00 input  -60.11 | X-H torsion
[ 7974 7965 7964 7962 ] final -141.46 input  175.53 | X-H torsion
[ 8008 7997 7996 7995 ] final -159.34 input   59.86 | X-H torsion
[ 10167 10162 10161 10158 ] final   60.58 input  -65.29 | X-H torsion
[ 10718 10713 10712 10709 ] final   23.17 input   66.30 | X-H torsion
[ 10763 10752 10751 10750 ] final -144.48 input  -60.55 | X-H torsion
[ 11005 11000 10999 10996 ] final  152.53 input  -57.11 | X-H torsion

> <Gold.Protein.ActiveResidues>
 VAL166  LYS551  ARG553  GLY616  TRP617  ASP618  TYR619  PRO620  LYS621  CYS622 
 ASP623  PHE694  ASN695  SER759  ASP760  ASP761  ALA762  ILE779  LEU786  VAL792 
 PHE793  MET794  SER795  GLU796  ALA797  LYS798  CYS799  TRP800  GLU811  SER814 

> <Gold.Protein.RotatedAtoms>
  151.0845  134.9879  159.8372 H   0  0  0  0  0  0  0  0  0  0  0  0  # atno 6907 bound_to 6896
  152.5423  134.2140  159.8771 H   0  0  0  0  0  0  0  0  0  0  0  0  # atno 6908 bound_to 6896
  151.2173  133.4478  159.2633 H   0  0  0  0  0  0  0  0  0  0  0  0  # atno 6909 bound_to 6896
  144.8518  140.6077  143.5385 H   0  0  0  0  0  0  0  0  0  0  0  0  # atno 7974 bound_to 7965
  155.7610  140.0839  157.2155 H   0  0  0  0  0  0  0  0  0  0  0  0  # atno 8008 bound_to 7997
  154.4003  140.1543  156.2889 H   0  0  0  0  0  0  0  0  0  0  0  0  # atno 8009 bound_to 7997
  155.8839  140.3419  155.5910 H   0  0  0  0  0  0  0  0  0  0  0  0  # atno 8010 bound_to 7997
  140.1641  144.4341  150.6694 H   0  0  0  0  0  0  0  0  0  0  0  0  # atno 10167 bound_to 10162
  157.1624  130.6723  149.6049 H   0  0  0  0  0  0  0  0  0  0  0  0  # atno 10718 bound_to 10713
  154.8426  135.3439  154.6353 H   0  0  0  0  0  0  0  0  0  0  0  0  # atno 10763 bound_to 10752
  153.6964  135.6972  153.5080 H   0  0  0  0  0  0  0  0  0  0  0  0  # atno 10764 bound_to 10752
  153.2556  135.4339  155.0797 H   0  0  0  0  0  0  0  0  0  0  0  0  # atno 10765 bound_to 10752
  140.1316  134.8798  157.2211 H   0  0  0  0  0  0  0  0  0  0  0  0  # atno 11005 bound_to 11000
  145.4485  139.1526  143.3931 LP  0  0  0  0  0  0  0  0  0  0  0  0  # atno 17320 bound_to 7965
  146.2791  140.4610  142.8783 LP  0  0  0  0  0  0  0  0  0  0  0  0  # atno 17321 bound_to 7965
  140.6624  143.2256  151.5824 LP  0  0  0  0  0  0  0  0  0  0  0  0  # atno 17342 bound_to 10162
  139.5367  144.2760  152.1267 LP  0  0  0  0  0  0  0  0  0  0  0  0  # atno 17343 bound_to 10162
  155.9751  130.4707  150.6439 LP  0  0  0  0  0  0  0  0  0  0  0  0  # atno 17370 bound_to 10713
  157.4120  131.0825  151.1212 LP  0  0  0  0  0  0  0  0  0  0  0  0  # atno 17371 bound_to 10713
  140.2835  134.3323  155.7336 LP  0  0  0  0  0  0  0  0  0  0  0  0  # atno 17394 bound_to 11000
  141.2171  133.7492  156.9398 LP  0  0  0  0  0  0  0  0  0  0  0  0  # atno 17395 bound_to 11000

$$$$
