AV-unprocessed.smi:1433|AV-procd|sdf|5839|dock10
  -GOLD-   22720 5503D 1   1.00000     0.00000
 Structure written by MMmdl.
 44 45  0  0  0  0  0  0  0  0  1 V2000
  146.5740  138.1691  156.3085 C   0  0  0  0  0  0  0  0  0  0  0  0
  147.1998  139.5336  156.0009 C   0  0  1  0  0  0  0  0  0  0  0  0
  148.3357  139.8839  156.9803 C   0  0  0  0  0  0  0  0  0  0  0  0
  148.9946  141.1452  156.6388 N   0  0  0  0  0  0  0  0  0  0  0  0
  150.0509  141.5329  157.5985 C   0  0  2  0  0  0  0  0  0  0  0  0
  151.0423  142.5809  157.0426 C   0  0  0  0  0  0  0  0  0  0  0  0
  150.8752  140.3327  158.1346 C   0  0  0  0  0  0  0  0  0  0  0  0
  151.9033  140.7612  159.0814 N   0  0  0  0  0  0  0  0  0  0  0  0
  153.1646  140.3046  159.1340 C   0  0  0  0  0  0  0  0  0  0  0  0
  153.5996  139.4101  158.4095 O   0  0  0  0  0  0  0  0  0  0  0  0
  154.0866  140.9701  160.1561 C   0  0  0  0  0  0  0  0  0  0  0  0
  153.4912  142.1793  160.6962 N   0  0  0  0  0  0  0  0  0  0  0  0
  153.1320  143.3307  160.0264 C   0  0  0  0  0  0  0  0  0  0  0  0
  152.6125  144.1928  160.9491 C   0  0  0  0  0  0  0  0  0  0  0  0
  152.6949  143.4690  162.1717 C   0  0  0  0  0  0  0  0  0  0  0  0
  153.2218  142.2649  162.0176 N   0  0  0  0  0  0  0  0  0  0  0  0
  149.4959  141.0314  155.2665 C   0  0  0  0  0  0  0  0  0  0  0  0
  148.3941  140.6735  154.2518 C   0  0  2  0  0  0  0  0  0  0  0  0
  147.4286  141.8388  153.9725 C   0  0  0  0  0  0  0  0  0  0  0  0
  147.7058  139.4957  154.6693 O   0  0  0  0  0  0  0  0  0  0  0  0
  146.1637  138.1442  157.3183 H   0  0  0  0  0  0  0  0  0  0  0  0
  147.3107  137.3695  156.2264 H   0  0  0  0  0  0  0  0  0  0  0  0
  145.7630  137.9474  155.6146 H   0  0  0  0  0  0  0  0  0  0  0  0
  146.4179  140.2905  156.0682 H   0  0  0  0  0  0  0  0  0  0  0  0
  147.8980  139.9381  157.9758 H   0  0  0  0  0  0  0  0  0  0  0  0
  149.0700  139.0771  157.0011 H   0  0  0  0  0  0  0  0  0  0  0  0
  149.5677  141.9919  158.4624 H   0  0  0  0  0  0  0  0  0  0  0  0
  151.8668  142.7521  157.7353 H   0  0  0  0  0  0  0  0  0  0  0  0
  150.5702  143.5514  156.8924 H   0  0  0  0  0  0  0  0  0  0  0  0
  151.4718  142.2632  156.0918 H   0  0  0  0  0  0  0  0  0  0  0  0
  150.2163  139.6405  158.6592 H   0  0  0  0  0  0  0  0  0  0  0  0
  151.2949  139.7416  157.3208 H   0  0  0  0  0  0  0  0  0  0  0  0
  151.6452  141.4958  159.7247 H   0  0  0  0  0  0  0  0  0  0  0  0
  154.2888  140.2834  160.9791 H   0  0  0  0  0  0  0  0  0  0  0  0
  155.0461  141.2059  159.6925 H   0  0  0  0  0  0  0  0  0  0  0  0
  153.2768  143.4388  158.9613 H   0  0  0  0  0  0  0  0  0  0  0  0
  152.2310  145.1882  160.7771 H   0  0  0  0  0  0  0  0  0  0  0  0
  152.3898  143.7805  163.1597 H   0  0  0  0  0  0  0  0  0  0  0  0
  149.9608  141.9577  154.9382 H   0  0  0  0  0  0  0  0  0  0  0  0
  150.2756  140.2690  155.2286 H   0  0  0  0  0  0  0  0  0  0  0  0
  148.8766  140.4265  153.3058 H   0  0  0  0  0  0  0  0  0  0  0  0
  147.9623  142.6906  153.5505 H   0  0  0  0  0  0  0  0  0  0  0  0
  146.9316  142.1863  154.8782 H   0  0  0  0  0  0  0  0  0  0  0  0
  146.6587  141.5446  153.2591 H   0  0  0  0  0  0  0  0  0  0  0  0
  1  2  1  0  0  0  0
  1 21  1  0  0  0  0
  1 22  1  0  0  0  0
  1 23  1  0  0  0  0
  2 20  1  0  0  0  0
  2  3  1  0  0  0  0
  2 24  1  0  0  0  0
  3  4  1  0  0  0  0
  3 25  1  0  0  0  0
  3 26  1  0  0  0  0
  4  5  1  0  0  0  0
  4 17  1  0  0  0  0
  5  6  1  0  0  0  0
  5  7  1  0  0  0  0
  5 27  1  0  0  0  0
  6 28  1  0  0  0  0
  6 29  1  0  0  0  0
  6 30  1  0  0  0  0
  7  8  1  0  0  0  0
  7 31  1  0  0  0  0
  7 32  1  0  0  0  0
  8  9  1  0  0  0  0
  8 33  1  0  0  0  0
  9 10  2  0  0  0  0
  9 11  1  0  0  0  0
 11 12  1  0  0  0  0
 11 34  1  0  0  0  0
 11 35  1  0  0  0  0
 12 16  1  0  0  0  0
 12 13  1  0  0  0  0
 13 14  2  0  0  0  0
 13 36  1  0  0  0  0
 14 15  1  0  0  0  0
 14 37  1  0  0  0  0
 15 16  2  0  0  0  0
 15 38  1  0  0  0  0
 17 18  1  0  0  0  0
 17 39  1  0  0  0  0
 17 40  1  0  0  0  0
 18 19  1  0  0  0  0
 18 20  1  0  0  0  0
 18 41  1  0  0  0  0
 19 42  1  0  0  0  0
 19 43  1  0  0  0  0
 19 44  1  0  0  0  0
M  END
> <s_m_source_file>
AV-unprocessed.smi

> <i_m_source_file_index>
1433

> <i_lp_mmshare_version>
43012

> <i_f3d_flags>
0

> <s_epik_input>
W0NIM11bQ0BASF0xW0NIMl1OKFtDSDJdW0NASF0oTzEpW0NIM10pW0NASF0oW0NIM10pW0NIMl1bTkhdQyg9TylbQ0gyXW4yW2NIXVtjSF1bY0hdbjI=

> <s_epik_cmdline>
J2VwaWtfcHl0aG9uJywgJy1waCcsICc3LjAnLCAnLXRuJywgJzgnLCAnLW1hJywgJzIwMCcsICctbWV0YWxfYmluZGluZycsICctaW1hZScsICc8aW5maWxlLm1hZT4nLCAnLW9tYWUnLCAnPG91dGZpbGUubWFlPic=

> <r_lp_tautomer_probability>
1

> <r_epik_Ionization_Penalty>
0.196927

> <r_epik_Ionization_Penalty_Charging>
0

> <r_epik_Ionization_Penalty_Neutral>
0.196927

> <r_epik_State_Penalty>
0.186684

> <r_epik_Charging_Adjusted_Penalty>
0.186684

> <i_epik_Tot_Q>
0

> <i_epik_Tot_abs_Q>
0

> <r_epik_Metal_State_Penalty>
0.186682

> <b_epik_Metal_Only>
0

> <s_lp_Force_Field>
OPLS_2005

> <r_lp_Energy>
34.0923

> <b_lp_Chiralities_Consistent>
1

> <s_lp_Variant>
AV-unprocessed.smi:1433-5

> <Gold.Version>
5.8.1

> <Gold.Id.Protein>
6NUR|6NUR_protein|mol2

> <Gold.PLP.Fitness>
38.5648

> <Gold.PLP.PLP>
-36.9663

> <Gold.PLP.part.hbond>
-1.0000

> <Gold.PLP.part.metal>
0.0000

> <Gold.PLP.part.buried>
-4.5512

> <Gold.PLP.part.nonpolar>
-31.3665

> <Gold.PLP.part.repulsive>
0.3733

> <Gold.PLP.ligand.clash>
0.0000

> <Gold.PLP.ligand.torsion>
0.7159

> <Gold.PLP.Chemscore.Hbond>
1.0000

> <Gold.PLP.Chemscore.CHOScore>
0.0000

> <Gold.PLP.Chemscore.Metal>
0.0000

> <Gold.Chemscore.Hbonds>
donor molecule, donor type, donor heavy atom, donor atom, acceptor molecule, acceptor atom, score
      P1  H  7997  8009       L1    10  1.00

> <Gold.PLP.Chemscore.Internal.Correction>
0.0303

> <Gold.Rescore>
     Score         DG    S(hbond)    S(metal)    S(lipo)     H(rot)  DE(clash)    DE(int)     intcor
     13.47     -14.42       0.99        0.00      87.61       1.80       0.12       0.83       ----

> <Gold.Chemscore.Fitness>
13.4733

> <Gold.Chemscore.DG>
-14.4239

> <Gold.Chemscore.ZeroCoef>
-5.4800

> <Gold.Chemscore.Hbond>
0.9915

> <Gold.Chemscore.Metal>
0.0000

> <Gold.Chemscore.Lipo>
87.6057

> <Gold.Chemscore.Internal_Hbond>
0.0000

> <Gold.Chemscore.DEClash>
0.1227

> <Gold.Chemscore.DEInternal>
0.8279

> <Gold.Chemscore.Rot>
1.8038

> <Gold.Chemscore.Internal.Correction>
   9.000000E+99

> <Gold.Chemscore.Hbonds>
donor molecule, donor type, donor heavy atom, donor atom, acceptor molecule, acceptor atom, score
      P1  H  7997  8009       L1    10  0.85

> <Gold.Chemscore.Hbond.Weighted>
-3.3118

> <Gold.Chemscore.Metal.Weighted>
-0.0000

> <Gold.Chemscore.Lipo.Weighted>
-10.2499

> <Gold.Chemscore.Internal_Hbond.Weighted>
0.0000

> <Gold.Chemscore.DEClash.Weighted>
0.1227

> <Gold.Chemscore.DEInternal.Weighted>
0.8279

> <Gold.Chemscore.Rot.Weighted>
4.6178

> <Gold.Chemscore.Internal.Correction.Weighted>
   9.000000E+99

> <Gold.Protein.RotatedTorsions>
[ 6907 6896 6895 6894 ] final   49.93 input  -60.11 | X-H torsion
[ 7974 7965 7964 7962 ] final -111.53 input  175.53 | X-H torsion
[ 8008 7997 7996 7995 ] final  155.66 input   59.86 | X-H torsion
[ 10167 10162 10161 10158 ] final -144.05 input  -65.29 | X-H torsion
[ 10718 10713 10712 10709 ] final -179.32 input   66.30 | X-H torsion
[ 10763 10752 10751 10750 ] final -100.06 input  -60.55 | X-H torsion
[ 11005 11000 10999 10996 ] final   18.06 input  -57.11 | X-H torsion

> <Gold.Protein.ActiveResidues>
 VAL166  LYS551  ARG553  GLY616  TRP617  ASP618  TYR619  PRO620  LYS621  CYS622 
 ASP623  PHE694  ASN695  SER759  ASP760  ASP761  ALA762  ILE779  LEU786  VAL792 
 PHE793  MET794  SER795  GLU796  ALA797  LYS798  CYS799  TRP800  GLU811  SER814 

> <Gold.Protein.RotatedAtoms>
  152.2962  134.7664  160.0367 H   0  0  0  0  0  0  0  0  0  0  0  0  # atno 6907 bound_to 6896
  151.8194  133.3387  159.3587 H   0  0  0  0  0  0  0  0  0  0  0  0  # atno 6908 bound_to 6896
  150.7252  134.5518  159.5842 H   0  0  0  0  0  0  0  0  0  0  0  0  # atno 6909 bound_to 6896
  145.1550  140.8849  143.3624 H   0  0  0  0  0  0  0  0  0  0  0  0  # atno 7974 bound_to 7965
  156.2466  140.1933  156.6836 H   0  0  0  0  0  0  0  0  0  0  0  0  # atno 8008 bound_to 7997
  154.6304  140.0596  156.9751 H   0  0  0  0  0  0  0  0  0  0  0  0  # atno 8009 bound_to 7997
  155.1720  140.3269  155.4393 H   0  0  0  0  0  0  0  0  0  0  0  0  # atno 8010 bound_to 7997
  139.7935  143.7933  152.2652 H   0  0  0  0  0  0  0  0  0  0  0  0  # atno 10167 bound_to 10162
  156.8573  130.9739  151.3087 H   0  0  0  0  0  0  0  0  0  0  0  0  # atno 10718 bound_to 10713
  154.7549  135.4949  153.9356 H   0  0  0  0  0  0  0  0  0  0  0  0  # atno 10763 bound_to 10752
  153.1184  135.6726  153.9385 H   0  0  0  0  0  0  0  0  0  0  0  0  # atno 10764 bound_to 10752
  153.9124  135.3097  155.3427 H   0  0  0  0  0  0  0  0  0  0  0  0  # atno 10765 bound_to 10752
  140.4290  134.1439  155.7679 H   0  0  0  0  0  0  0  0  0  0  0  0  # atno 11005 bound_to 11000
  145.0391  139.3275  143.5986 LP  0  0  0  0  0  0  0  0  0  0  0  0  # atno 17320 bound_to 7965
  146.3490  139.9758  142.8701 LP  0  0  0  0  0  0  0  0  0  0  0  0  # atno 17321 bound_to 7965
  139.8031  144.7366  150.9797 LP  0  0  0  0  0  0  0  0  0  0  0  0  # atno 17342 bound_to 10162
  140.7820  143.4325  151.0673 LP  0  0  0  0  0  0  0  0  0  0  0  0  # atno 17343 bound_to 10162
  157.6270  130.8699  149.9206 LP  0  0  0  0  0  0  0  0  0  0  0  0  # atno 17370 bound_to 10713
  156.0796  130.3675  150.0608 LP  0  0  0  0  0  0  0  0  0  0  0  0  # atno 17371 bound_to 10713
  141.1753  133.8526  157.1440 LP  0  0  0  0  0  0  0  0  0  0  0  0  # atno 17394 bound_to 11000
  140.0147  134.9972  157.0469 LP  0  0  0  0  0  0  0  0  0  0  0  0  # atno 17395 bound_to 11000

$$$$
