AV-unprocessed.smi:686|AV-procd|sdf|3341|dock4
  -GOLD-   22720 0313D 1   1.00000     0.00000
 Structure written by MMmdl.
 41 42  0  0  0  0  0  0  0  0  2 V2000
  149.9295  132.5573  154.8471 C   0  0  0  0  0  0  0  0  0  0  0  0
  148.5667  133.1300  154.4255 C   0  0  2  0  0  0  0  0  0  0  0  0
  148.2445  133.0034  152.9343 C   0  0  0  0  0  0  0  0  0  0  0  0
  147.2359  134.0513  152.6360 N   0  3  1  0  0  0  0  0  0  0  0  0
  145.9322  133.5901  152.0811 C   0  0  0  0  0  0  0  0  0  0  0  0
  146.0537  132.3846  151.1245 C   0  0  0  0  0  0  0  0  0  0  0  0
  145.1769  134.7569  151.4252 C   0  0  0  0  0  0  0  0  0  0  0  0
  147.1384  134.9565  153.8092 C   0  0  0  0  0  0  0  0  0  0  0  0
  148.3207  134.6143  154.7223 C   0  0  2  0  0  0  0  0  0  0  0  0
  149.4817  135.4464  154.3818 N   0  0  0  0  0  0  0  0  0  0  0  0
  150.2292  136.4638  155.5590 S   0  0  0  0  0  0  0  0  0  0  0  0
  149.1933  136.8329  156.5355 O   0  0  0  0  0  0  0  0  0  0  0  0
  151.4553  135.7792  155.9969 O   0  0  0  0  0  0  0  0  0  0  0  0
  150.6760  137.9666  154.5750 C   0  0  0  0  0  0  0  0  0  0  0  0
  151.2583  139.0276  155.4646 C   0  0  0  0  0  0  0  0  0  0  0  0
  150.7562  140.3321  155.7293 C   0  0  0  0  0  0  0  0  0  0  0  0
  151.6699  140.8532  156.5996 C   0  0  0  0  0  0  0  0  0  0  0  0
  152.6512  139.9517  156.8551 O   0  0  0  0  0  0  0  0  0  0  0  0
  152.3784  138.7880  156.1275 N   0  0  0  0  0  0  0  0  0  0  0  0
  150.7550  133.0452  154.3280 H   0  0  0  0  0  0  0  0  0  0  0  0
  149.9871  131.4916  154.6254 H   0  0  0  0  0  0  0  0  0  0  0  0
  150.0892  132.6792  155.9184 H   0  0  0  0  0  0  0  0  0  0  0  0
  147.8009  132.5705  154.9655 H   0  0  0  0  0  0  0  0  0  0  0  0
  149.1318  133.2287  152.3414 H   0  0  0  0  0  0  0  0  0  0  0  0
  147.9352  131.9936  152.6661 H   0  0  0  0  0  0  0  0  0  0  0  0
  145.3305  133.2720  152.9342 H   0  0  0  0  0  0  0  0  0  0  0  0
  145.0647  132.0327  150.8290 H   0  0  0  0  0  0  0  0  0  0  0  0
  146.5654  131.5404  151.5851 H   0  0  0  0  0  0  0  0  0  0  0  0
  146.5871  132.6344  150.2079 H   0  0  0  0  0  0  0  0  0  0  0  0
  144.1841  134.4449  151.0995 H   0  0  0  0  0  0  0  0  0  0  0  0
  145.7028  135.1392  150.5499 H   0  0  0  0  0  0  0  0  0  0  0  0
  145.0465  135.5842  152.1237 H   0  0  0  0  0  0  0  0  0  0  0  0
  147.1283  136.0021  153.4986 H   0  0  0  0  0  0  0  0  0  0  0  0
  146.2109  134.7805  154.3537 H   0  0  0  0  0  0  0  0  0  0  0  0
  148.0645  134.7703  155.7711 H   0  0  0  0  0  0  0  0  0  0  0  0
  149.5159  135.8034  153.4272 H   0  0  0  0  0  0  0  0  0  0  0  0
  151.3851  137.6848  153.7978 H   0  0  0  0  0  0  0  0  0  0  0  0
  149.7755  138.3240  154.0741 H   0  0  0  0  0  0  0  0  0  0  0  0
  149.8695  140.8106  155.3416 H   0  0  0  0  0  0  0  0  0  0  0  0
  151.7569  141.8047  157.1031 H   0  0  0  0  0  0  0  0  0  0  0  0
  147.6523  134.6109  151.9055 H   0  0  0  0  0  0  0  0  0  0  0  0
  1  2  1  0  0  0  0
  1 20  1  0  0  0  0
  1 21  1  0  0  0  0
  1 22  1  0  0  0  0
  2  9  1  0  0  0  0
  2  3  1  0  0  0  0
  2 23  1  0  0  0  0
  3  4  1  0  0  0  0
  3 24  1  0  0  0  0
  3 25  1  0  0  0  0
  4  5  1  0  0  0  0
  4  8  1  0  0  0  0
  4 41  1  0  0  0  0
  5  6  1  0  0  0  0
  5  7  1  0  0  0  0
  5 26  1  0  0  0  0
  6 27  1  0  0  0  0
  6 28  1  0  0  0  0
  6 29  1  0  0  0  0
  7 30  1  0  0  0  0
  7 31  1  0  0  0  0
  7 32  1  0  0  0  0
  8  9  1  0  0  0  0
  8 33  1  0  0  0  0
  8 34  1  0  0  0  0
  9 10  1  0  0  0  0
  9 35  1  0  0  0  0
 10 11  1  0  0  0  0
 10 36  1  0  0  0  0
 11 12  2  0  0  0  0
 11 13  2  0  0  0  0
 11 14  1  0  0  0  0
 14 15  1  0  0  0  0
 14 37  1  0  0  0  0
 14 38  1  0  0  0  0
 15 19  2  0  0  0  0
 15 16  1  0  0  0  0
 16 17  2  0  0  0  0
 16 39  1  0  0  0  0
 17 18  1  0  0  0  0
 17 40  1  0  0  0  0
 18 19  1  0  0  0  0
M  CHG  1   4   1
M  END
> <s_m_source_file>
AV-unprocessed.smi

> <i_m_source_file_index>
686

> <i_lp_mmshare_version>
43012

> <i_f3d_flags>
0

> <s_epik_input>
W0NIM11bQ0BASF0xW0NIMl1OKFtDSF0oW0NIM10pW0NIM10pW0NIMl1bQ0BIXTFbTkhdUyg9TykoPU8pW0NIMl1jMltjSF1bY0hdb24y

> <s_epik_cmdline>
J2VwaWtfcHl0aG9uJywgJy1waCcsICc3LjAnLCAnLXRuJywgJzgnLCAnLW1hJywgJzIwMCcsICctbWV0YWxfYmluZGluZycsICctaW1hZScsICc8aW5maWxlLm1hZT4nLCAnLW9tYWUnLCAnPG91dGZpbGUubWFlPic=

> <r_epik_Ionization_Penalty>
0.00200818

> <r_epik_Ionization_Penalty_Charging>
0.000701289

> <r_epik_Ionization_Penalty_Neutral>
0.00130689

> <r_epik_State_Penalty>
0.00131314

> <r_epik_Charging_Adjusted_Penalty>
0.00201443

> <i_epik_Tot_Q>
1

> <i_epik_Tot_abs_Q>
1

> <r_epik_Metal_State_Penalty>
0.310831

> <b_epik_Metal_Only>
0

> <s_lp_Force_Field>
OPLS_2005

> <r_lp_Energy>
24.0056

> <b_lp_Chiralities_Consistent>
1

> <s_lp_Variant>
AV-unprocessed.smi:686-5

> <Gold.Version>
5.8.1

> <Gold.Id.Protein>
6NUR|6NUR_protein|mol2

> <Gold.PLP.Fitness>
42.3768

> <Gold.PLP.PLP>
-29.8014

> <Gold.PLP.part.hbond>
-4.0000

> <Gold.PLP.part.metal>
0.0000

> <Gold.PLP.part.buried>
-1.7647

> <Gold.PLP.part.nonpolar>
-23.5624

> <Gold.PLP.part.repulsive>
0.0829

> <Gold.PLP.ligand.clash>
0.0000

> <Gold.PLP.ligand.torsion>
0.9382

> <Gold.PLP.Chemscore.Hbond>
4.4220

> <Gold.PLP.Chemscore.CHOScore>
0.0000

> <Gold.PLP.Chemscore.Metal>
0.0000

> <Gold.Chemscore.Hbonds>
donor molecule, donor type, donor heavy atom, donor atom, acceptor molecule, acceptor atom, score
      L1  H     4    41       P1  7948  1.44
      L1  H    10    36       P1  7948  0.95
      P1  H  7997  8008       L1    18  0.90
      P1  H 10752 10765       L1    13  1.00

> <Gold.PLP.Chemscore.Internal.Correction>
1.1859

> <Gold.Rescore>
     Score         DG    S(hbond)    S(metal)    S(lipo)     H(rot)  DE(clash)    DE(int)     intcor
     17.68     -18.66       3.04        0.00      62.16       1.66       0.02       0.97       ----

> <Gold.Chemscore.Fitness>
17.6761

> <Gold.Chemscore.DG>
-18.6619

> <Gold.Chemscore.ZeroCoef>
-5.4800

> <Gold.Chemscore.Hbond>
3.0391

> <Gold.Chemscore.Metal>
0.0000

> <Gold.Chemscore.Lipo>
62.1584

> <Gold.Chemscore.Internal_Hbond>
0.0000

> <Gold.Chemscore.DEClash>
0.0183

> <Gold.Chemscore.DEInternal>
0.9675

> <Gold.Chemscore.Rot>
1.6567

> <Gold.Chemscore.Internal.Correction>
   9.000000E+99

> <Gold.Chemscore.Hbonds>
donor molecule, donor type, donor heavy atom, donor atom, acceptor molecule, acceptor atom, score
      L1  H     4    41       P1  7948  0.30
      L1  H    10    36       P1  7948  0.21
      P1  H  7997  8008       L1    18  0.18
      P1  H 10752 10765       L1    13  0.99

> <Gold.Chemscore.Hbond.Weighted>
-10.1507

> <Gold.Chemscore.Metal.Weighted>
-0.0000

> <Gold.Chemscore.Lipo.Weighted>
-7.2725

> <Gold.Chemscore.Internal_Hbond.Weighted>
0.0000

> <Gold.Chemscore.DEClash.Weighted>
0.0183

> <Gold.Chemscore.DEInternal.Weighted>
0.9675

> <Gold.Chemscore.Rot.Weighted>
4.2413

> <Gold.Chemscore.Internal.Correction.Weighted>
   9.000000E+99

> <Gold.Protein.RotatedTorsions>
[ 6907 6896 6895 6894 ] final  -55.54 input  -60.11 | X-H torsion
[ 7974 7965 7964 7962 ] final   19.09 input  175.53 | X-H torsion
[ 8008 7997 7996 7995 ] final  -44.54 input   59.86 | X-H torsion
[ 10167 10162 10161 10158 ] final   11.40 input  -65.29 | X-H torsion
[ 10718 10713 10712 10709 ] final  141.45 input   66.30 | X-H torsion
[ 10763 10752 10751 10750 ] final -155.23 input  -60.55 | X-H torsion
[ 11005 11000 10999 10996 ] final -136.97 input  -57.11 | X-H torsion

> <Gold.Protein.ActiveResidues>
 VAL166  LYS551  ARG553  GLY616  TRP617  ASP618  TYR619  PRO620  LYS621  CYS622 
 ASP623  PHE694  ASN695  SER759  ASP760  ASP761  ALA762  ILE779  LEU786  VAL792 
 PHE793  MET794  SER795  GLU796  ALA797  LYS798  CYS799  TRP800  GLU811  SER814 

> <Gold.Protein.RotatedAtoms>
  150.8243  134.7466  159.6799 H   0  0  0  0  0  0  0  0  0  0  0  0  # atno 6907 bound_to 6896
  152.4356  134.5690  159.9925 H   0  0  0  0  0  0  0  0  0  0  0  0  # atno 6908 bound_to 6896
  151.5867  133.3334  159.3055 H   0  0  0  0  0  0  0  0  0  0  0  0  # atno 6909 bound_to 6896
  146.2162  139.8363  142.8650 H   0  0  0  0  0  0  0  0  0  0  0  0  # atno 7974 bound_to 7965
  154.3998  140.1419  156.3699 H   0  0  0  0  0  0  0  0  0  0  0  0  # atno 8008 bound_to 7997
  155.8102  140.3473  155.5432 H   0  0  0  0  0  0  0  0  0  0  0  0  # atno 8009 bound_to 7997
  155.8394  140.0924  157.1734 H   0  0  0  0  0  0  0  0  0  0  0  0  # atno 8010 bound_to 7997
  140.6134  143.8359  150.7091 H   0  0  0  0  0  0  0  0  0  0  0  0  # atno 10167 bound_to 10162
  157.3918  131.1005  151.0639 H   0  0  0  0  0  0  0  0  0  0  0  0  # atno 10718 bound_to 10713
  154.7802  135.3172  154.8006 H   0  0  0  0  0  0  0  0  0  0  0  0  # atno 10763 bound_to 10752
  153.8719  135.6843  153.4778 H   0  0  0  0  0  0  0  0  0  0  0  0  # atno 10764 bound_to 10752
  153.1436  135.4728  154.9470 H   0  0  0  0  0  0  0  0  0  0  0  0  # atno 10765 bound_to 10752
  140.8755  134.1997  157.4624 H   0  0  0  0  0  0  0  0  0  0  0  0  # atno 11005 bound_to 11000
  145.2945  141.0176  143.3644 LP  0  0  0  0  0  0  0  0  0  0  0  0  # atno 17320 bound_to 7965
  144.9052  139.4598  143.6613 LP  0  0  0  0  0  0  0  0  0  0  0  0  # atno 17321 bound_to 7965
  140.1933  143.4019  152.1847 LP  0  0  0  0  0  0  0  0  0  0  0  0  # atno 17342 bound_to 10162
  139.5379  144.7228  151.4831 LP  0  0  0  0  0  0  0  0  0  0  0  0  # atno 17343 bound_to 10162
  157.1670  130.6250  149.5628 LP  0  0  0  0  0  0  0  0  0  0  0  0  # atno 17370 bound_to 10713
  155.9800  130.4798  150.6749 LP  0  0  0  0  0  0  0  0  0  0  0  0  # atno 17371 bound_to 10713
  139.8715  134.9794  156.5034 LP  0  0  0  0  0  0  0  0  0  0  0  0  # atno 17394 bound_to 11000
  140.8523  133.8123  155.9181 LP  0  0  0  0  0  0  0  0  0  0  0  0  # atno 17395 bound_to 11000

$$$$
