AV-unprocessed.smi:2706|AV-procd|sdf|10447|dock1
  -GOLD-   2272014493D 1   1.00000     0.00000
 Structure written by MMmdl.
 43 46  0  0  0  0  0  0  0  0  1 V2000
  153.1177  143.3149  162.8163 C   0  0  0  0  0  0  0  0  0  0  0  0
  152.5491  143.3569  161.4726 N   0  0  0  0  0  0  0  0  0  0  0  0
  151.9705  144.5948  160.9658 C   0  0  0  0  0  0  0  0  0  0  0  0
  152.6147  142.2112  160.6474 C   0  0  0  0  0  0  0  0  0  0  0  0
  153.7195  141.3270  160.6917 C   0  0  0  0  0  0  0  0  0  0  0  0
  153.7253  140.2030  159.8464 C   0  0  0  0  0  0  0  0  0  0  0  0
  152.6347  139.9918  158.9837 C   0  0  0  0  0  0  0  0  0  0  0  0
  151.5660  140.9125  158.9879 C   0  0  0  0  0  0  0  0  0  0  0  0
  150.5092  140.6188  158.0857 N   0  0  0  0  0  0  0  0  0  0  0  0
  149.3048  141.2108  157.9972 C   0  0  0  0  0  0  0  0  0  0  0  0
  148.9159  142.1432  158.7017 O   0  0  0  0  0  0  0  0  0  0  0  0
  148.5646  140.6531  157.0297 N   0  0  0  0  0  0  0  0  0  0  0  0
  147.2410  141.0405  156.6611 C   0  0  2  0  0  0  0  0  0  0  0  0
  146.5350  140.4133  155.4726 C   0  0  2  0  0  0  0  0  0  0  0  0
  147.0857  139.8382  154.1627 C   0  0  2  0  0  0  0  0  0  0  0  0
  148.6224  139.7103  154.1506 C   0  0  0  0  0  0  0  0  0  0  0  0
  149.0762  141.1853  154.0923 C   0  0  0  0  0  0  0  0  0  0  0  0
  147.7335  141.9435  154.0809 C   0  0  1  0  0  0  0  0  0  0  0  0
  146.8980  141.0128  153.2090 C   0  0  0  0  0  0  0  0  0  0  0  0
  146.9842  141.8716  155.4167 C   0  0  2  0  0  0  0  0  0  0  0  0
  151.5741  141.9910  159.8080 N   0  0  0  0  0  0  0  0  0  0  0  0
  152.6509  142.5257  163.4068 H   0  0  0  0  0  0  0  0  0  0  0  0
  152.9665  144.2571  163.3429 H   0  0  0  0  0  0  0  0  0  0  0  0
  154.1904  143.1243  162.7710 H   0  0  0  0  0  0  0  0  0  0  0  0
  150.9159  144.4542  160.7277 H   0  0  0  0  0  0  0  0  0  0  0  0
  152.4926  144.9244  160.0670 H   0  0  0  0  0  0  0  0  0  0  0  0
  152.0416  145.3954  161.7020 H   0  0  0  0  0  0  0  0  0  0  0  0
  154.5578  141.4879  161.3524 H   0  0  0  0  0  0  0  0  0  0  0  0
  154.5554  139.5124  159.8597 H   0  0  0  0  0  0  0  0  0  0  0  0
  152.6241  139.1326  158.3286 H   0  0  0  0  0  0  0  0  0  0  0  0
  150.6908  139.8699  157.4341 H   0  0  0  0  0  0  0  0  0  0  0  0
  148.9701  139.8925  156.5042 H   0  0  0  0  0  0  0  0  0  0  0  0
  146.5846  141.2806  157.4964 H   0  0  0  0  0  0  0  0  0  0  0  0
  145.4649  140.2546  155.5936 H   0  0  0  0  0  0  0  0  0  0  0  0
  146.5646  138.9272  153.8670 H   0  0  0  0  0  0  0  0  0  0  0  0
  149.0130  139.1567  155.0034 H   0  0  0  0  0  0  0  0  0  0  0  0
  148.9511  139.1822  153.2546 H   0  0  0  0  0  0  0  0  0  0  0  0
  149.7302  141.4835  154.9108 H   0  0  0  0  0  0  0  0  0  0  0  0
  149.6233  141.3721  153.1674 H   0  0  0  0  0  0  0  0  0  0  0  0
  147.8071  142.9661  153.7098 H   0  0  0  0  0  0  0  0  0  0  0  0
  147.3152  140.8460  152.2139 H   0  0  0  0  0  0  0  0  0  0  0  0
  145.8577  141.3294  153.1122 H   0  0  0  0  0  0  0  0  0  0  0  0
  146.1914  142.6126  155.5036 H   0  0  0  0  0  0  0  0  0  0  0  0
  1  2  1  0  0  0  0
  1 22  1  0  0  0  0
  1 23  1  0  0  0  0
  1 24  1  0  0  0  0
  2  3  1  0  0  0  0
  2  4  1  0  0  0  0
  3 25  1  0  0  0  0
  3 26  1  0  0  0  0
  3 27  1  0  0  0  0
  4 21  1  0  0  0  0
  4  5  2  0  0  0  0
  5  6  1  0  0  0  0
  5 28  1  0  0  0  0
  6  7  2  0  0  0  0
  6 29  1  0  0  0  0
  7  8  1  0  0  0  0
  7 30  1  0  0  0  0
  8  9  1  0  0  0  0
  8 21  2  0  0  0  0
  9 10  1  0  0  0  0
  9 31  1  0  0  0  0
 10 11  2  0  0  0  0
 10 12  1  0  0  0  0
 12 13  1  0  0  0  0
 12 32  1  0  0  0  0
 13 20  1  0  0  0  0
 13 14  1  0  0  0  0
 13 33  1  0  0  0  0
 14 20  1  0  0  0  0
 14 15  1  0  0  0  0
 14 34  1  0  0  0  0
 15 19  1  0  0  0  0
 15 16  1  0  0  0  0
 15 35  1  0  0  0  0
 16 17  1  0  0  0  0
 16 36  1  0  0  0  0
 16 37  1  0  0  0  0
 17 18  1  0  0  0  0
 17 38  1  0  0  0  0
 17 39  1  0  0  0  0
 18 19  1  0  0  0  0
 18 20  1  0  0  0  0
 18 40  1  0  0  0  0
 19 41  1  0  0  0  0
 19 42  1  0  0  0  0
 20 43  1  0  0  0  0
M  END
> <s_m_source_file>
AV-unprocessed.smi

> <i_m_source_file_index>
2706

> <i_lp_mmshare_version>
43012

> <i_f3d_flags>
0

> <s_epik_input>
W0NIM11OKFtDSDNdKWMxW2NIXVtjSF1bY0hdYyhuMSlbTkhdQyg9TylbTkhdW0NASF0yW0NAQEhdM1tDQEBIXShbQ0gyXTQpW0NIMl1bQ0gyXVtDQEBIXTRbQ0BIXTIz

> <s_epik_cmdline>
J2VwaWtfcHl0aG9uJywgJy1waCcsICc3LjAnLCAnLXRuJywgJzgnLCAnLW1hJywgJzIwMCcsICctbWV0YWxfYmluZGluZycsICctaW1hZScsICc8aW5maWxlLm1hZT4nLCAnLW9tYWUnLCAnPG91dGZpbGUubWFlPic=

> <r_lp_tautomer_probability>
1

> <r_epik_Ionization_Penalty>
0.0296788

> <r_epik_Ionization_Penalty_Charging>
0

> <r_epik_Ionization_Penalty_Neutral>
0.0296788

> <r_epik_State_Penalty>
0.0248512

> <r_epik_Charging_Adjusted_Penalty>
0.0248512

> <i_epik_Tot_Q>
0

> <i_epik_Tot_abs_Q>
0

> <r_epik_Metal_State_Penalty>
0.0237882

> <b_epik_Metal_Only>
0

> <s_lp_Force_Field>
OPLS_2005

> <r_lp_Energy>
85.7316

> <b_lp_Chiralities_Consistent>
1

> <s_lp_Variant>
AV-unprocessed.smi:2706-4

> <Gold.Version>
5.8.1

> <Gold.Id.Protein>
6NUR|6NUR_protein|mol2

> <Gold.PLP.Fitness>
40.4139

> <Gold.PLP.PLP>
-41.6379

> <Gold.PLP.part.hbond>
-1.6741

> <Gold.PLP.part.metal>
0.0000

> <Gold.PLP.part.buried>
-2.3586

> <Gold.PLP.part.nonpolar>
-36.7310

> <Gold.PLP.part.repulsive>
0.2668

> <Gold.PLP.ligand.clash>
0.0000

> <Gold.PLP.ligand.torsion>
0.6555

> <Gold.PLP.Chemscore.Hbond>
0.0000

> <Gold.PLP.Chemscore.CHOScore>
0.0000

> <Gold.PLP.Chemscore.Metal>
0.0000

> <Gold.PLP.Chemscore.Internal.Correction>
0.0870

> <Gold.Rescore>
     Score         DG    S(hbond)    S(metal)    S(lipo)     H(rot)  DE(clash)    DE(int)     intcor
     11.50     -13.47       0.00        0.00      90.21       1.00       0.04       1.93       ----

> <Gold.Chemscore.Fitness>
11.4979

> <Gold.Chemscore.DG>
-13.4746

> <Gold.Chemscore.ZeroCoef>
-5.4800

> <Gold.Chemscore.Hbond>
0.0001

> <Gold.Chemscore.Metal>
0.0000

> <Gold.Chemscore.Lipo>
90.2073

> <Gold.Chemscore.Internal_Hbond>
0.0000

> <Gold.Chemscore.DEClash>
0.0420

> <Gold.Chemscore.DEInternal>
1.9346

> <Gold.Chemscore.Rot>
1.0000

> <Gold.Chemscore.Internal.Correction>
   9.000000E+99

> <Gold.Chemscore.Hbond.Weighted>
-0.0003

> <Gold.Chemscore.Metal.Weighted>
-0.0000

> <Gold.Chemscore.Lipo.Weighted>
-10.5542

> <Gold.Chemscore.Internal_Hbond.Weighted>
0.0000

> <Gold.Chemscore.DEClash.Weighted>
0.0420

> <Gold.Chemscore.DEInternal.Weighted>
1.9346

> <Gold.Chemscore.Rot.Weighted>
2.5600

> <Gold.Chemscore.Internal.Correction.Weighted>
   9.000000E+99

> <Gold.Protein.RotatedTorsions>
[ 6907 6896 6895 6894 ] final  108.12 input  -60.11 | X-H torsion
[ 7974 7965 7964 7962 ] final  -65.28 input  175.53 | X-H torsion
[ 8008 7997 7996 7995 ] final -138.04 input   59.86 | X-H torsion
[ 10167 10162 10161 10158 ] final  167.73 input  -65.29 | X-H torsion
[ 10718 10713 10712 10709 ] final -122.89 input   66.30 | X-H torsion
[ 10763 10752 10751 10750 ] final   16.93 input  -60.55 | X-H torsion
[ 11005 11000 10999 10996 ] final   46.85 input  -57.11 | X-H torsion

> <Gold.Protein.ActiveResidues>
 VAL166  LYS551  ARG553  GLY616  TRP617  ASP618  TYR619  PRO620  LYS621  CYS622 
 ASP623  PHE694  ASN695  SER759  ASP760  ASP761  ALA762  ILE779  LEU786  VAL792 
 PHE793  MET794  SER795  GLU796  ALA797  LYS798  CYS799  TRP800  GLU811  SER814 

> <Gold.Protein.RotatedAtoms>
  152.5126  133.9135  159.7499 H   0  0  0  0  0  0  0  0  0  0  0  0  # atno 6907 bound_to 6896
  150.9523  133.6527  159.2776 H   0  0  0  0  0  0  0  0  0  0  0  0  # atno 6908 bound_to 6896
  151.3801  135.0943  159.9546 H   0  0  0  0  0  0  0  0  0  0  0  0  # atno 6909 bound_to 6896
  145.7562  140.8884  143.0454 H   0  0  0  0  0  0  0  0  0  0  0  0  # atno 7974 bound_to 7965
  155.4218  140.0519  157.3025 H   0  0  0  0  0  0  0  0  0  0  0  0  # atno 8008 bound_to 7997
  154.4899  140.2116  155.9530 H   0  0  0  0  0  0  0  0  0  0  0  0  # atno 8009 bound_to 7997
  156.1328  140.3168  155.8379 H   0  0  0  0  0  0  0  0  0  0  0  0  # atno 8010 bound_to 7997
  139.4952  144.3891  151.9537 H   0  0  0  0  0  0  0  0  0  0  0  0  # atno 10167 bound_to 10162
  156.1456  130.6497  150.9837 H   0  0  0  0  0  0  0  0  0  0  0  0  # atno 10718 bound_to 10713
  153.1385  135.6755  153.9064 H   0  0  0  0  0  0  0  0  0  0  0  0  # atno 10763 bound_to 10752
  153.8528  135.3091  155.3434 H   0  0  0  0  0  0  0  0  0  0  0  0  # atno 10764 bound_to 10752
  154.7768  135.4910  153.9844 H   0  0  0  0  0  0  0  0  0  0  0  0  # atno 10765 bound_to 10752
  140.1331  134.4679  155.8506 H   0  0  0  0  0  0  0  0  0  0  0  0  # atno 11005 bound_to 11000
  144.6839  139.9659  143.7481 LP  0  0  0  0  0  0  0  0  0  0  0  0  # atno 17320 bound_to 7965
  146.0309  139.3334  143.0756 LP  0  0  0  0  0  0  0  0  0  0  0  0  # atno 17321 bound_to 7965
  140.3328  144.3296  150.5983 LP  0  0  0  0  0  0  0  0  0  0  0  0  # atno 17342 bound_to 10162
  140.5631  143.2189  151.7731 LP  0  0  0  0  0  0  0  0  0  0  0  0  # atno 17343 bound_to 10162
  157.6614  131.0880  150.7830 LP  0  0  0  0  0  0  0  0  0  0  0  0  # atno 17370 bound_to 10713
  156.7902  130.4887  149.5386 LP  0  0  0  0  0  0  0  0  0  0  0  0  # atno 17371 bound_to 10713
  141.2174  133.6804  156.7107 LP  0  0  0  0  0  0  0  0  0  0  0  0  # atno 17394 bound_to 11000
  140.2816  134.8312  157.3938 LP  0  0  0  0  0  0  0  0  0  0  0  0  # atno 17395 bound_to 11000

$$$$
