AV-unprocessed.smi:527|AV-procd|sdf|2823|dock3
  -GOLD-   2262023303D 1   1.00000     0.00000
 Structure written by MMmdl.
 43 44  0  0  0  0  0  0  0  0  2 V2000
  151.5690  138.9752  154.7351 C   0  0  0  0  0  0  0  0  0  0  0  0
  150.0729  138.9904  154.3737 C   0  0  2  0  0  0  0  0  0  0  0  0
  149.5378  140.4364  154.4337 C   0  0  0  0  0  0  0  0  0  0  0  0
  148.0487  140.5189  154.0727 C   0  0  0  0  0  0  0  0  0  0  0  0
  147.2144  139.6031  154.9789 C   0  0  0  0  0  0  0  0  0  0  0  0
  147.7125  138.1441  154.9321 C   0  0  1  0  0  0  0  0  0  0  0  0
  147.4281  137.5347  153.6315 N   0  0  0  0  0  0  0  0  0  0  0  0
  146.2083  137.2480  153.1542 C   0  0  0  0  0  0  0  0  0  0  0  0
  145.1678  137.7015  153.6354 O   0  0  0  0  0  0  0  0  0  0  0  0
  146.2882  136.4204  152.0946 N   0  0  0  0  0  0  0  0  0  0  0  0
  145.2883  135.7137  151.5290 C   0  0  0  0  0  0  0  0  0  0  0  0
  144.1166  135.7057  151.9109 O   0  0  0  0  0  0  0  0  0  0  0  0
  145.6745  134.8802  150.3064 C   0  0  0  0  0  0  0  0  0  0  0  0
  145.3216  133.4702  150.4978 N   0  0  0  0  0  0  0  0  0  0  0  0
  144.0638  132.9348  150.6142 C   0  0  0  0  0  0  0  0  0  0  0  0
  144.2284  131.5845  150.7876 C   0  0  0  0  0  0  0  0  0  0  0  0
  145.5780  131.3526  150.7712 N   0  3  0  0  0  0  0  0  0  0  0  0
  146.2411  132.5000  150.5942 C   0  0  0  0  0  0  0  0  0  0  0  0
  149.2224  138.0512  155.2749 C   0  0  1  0  0  0  0  0  0  0  0  0
  149.7104  136.5882  155.2554 C   0  0  0  0  0  0  0  0  0  0  0  0
  151.7278  139.2440  155.7800 H   0  0  0  0  0  0  0  0  0  0  0  0
  152.1259  139.6852  154.1231 H   0  0  0  0  0  0  0  0  0  0  0  0
  152.0162  137.9958  154.5679 H   0  0  0  0  0  0  0  0  0  0  0  0
  149.9859  138.6475  153.3417 H   0  0  0  0  0  0  0  0  0  0  0  0
  149.6881  140.8422  155.4350 H   0  0  0  0  0  0  0  0  0  0  0  0
  150.1078  141.0737  153.7568 H   0  0  0  0  0  0  0  0  0  0  0  0
  147.7013  141.5481  154.1674 H   0  0  0  0  0  0  0  0  0  0  0  0
  147.9059  140.2410  153.0279 H   0  0  0  0  0  0  0  0  0  0  0  0
  147.2728  139.9679  156.0052 H   0  0  0  0  0  0  0  0  0  0  0  0
  146.1616  139.6599  154.7001 H   0  0  0  0  0  0  0  0  0  0  0  0
  147.1676  137.5807  155.6920 H   0  0  0  0  0  0  0  0  0  0  0  0
  148.2275  137.3179  153.0548 H   0  0  0  0  0  0  0  0  0  0  0  0
  147.1999  136.3233  151.6730 H   0  0  0  0  0  0  0  0  0  0  0  0
  145.1708  135.2448  149.4095 H   0  0  0  0  0  0  0  0  0  0  0  0
  146.7489  134.9484  150.1274 H   0  0  0  0  0  0  0  0  0  0  0  0
  143.1684  133.5379  150.5675 H   0  0  0  0  0  0  0  0  0  0  0  0
  143.5057  130.7921  150.9190 H   0  0  0  0  0  0  0  0  0  0  0  0
  147.3091  132.6202  150.5441 H   0  0  0  0  0  0  0  0  0  0  0  0
  149.3321  138.4024  156.3021 H   0  0  0  0  0  0  0  0  0  0  0  0
  149.7637  136.1932  154.2406 H   0  0  0  0  0  0  0  0  0  0  0  0
  149.0398  135.9457  155.8270 H   0  0  0  0  0  0  0  0  0  0  0  0
  150.6988  136.4887  155.7033 H   0  0  0  0  0  0  0  0  0  0  0  0
  146.0139  130.4453  150.8798 H   0  0  0  0  0  0  0  0  0  0  0  0
  1  2  1  0  0  0  0
  1 21  1  0  0  0  0
  1 22  1  0  0  0  0
  1 23  1  0  0  0  0
  2 19  1  0  0  0  0
  2  3  1  0  0  0  0
  2 24  1  0  0  0  0
  3  4  1  0  0  0  0
  3 25  1  0  0  0  0
  3 26  1  0  0  0  0
  4  5  1  0  0  0  0
  4 27  1  0  0  0  0
  4 28  1  0  0  0  0
  5  6  1  0  0  0  0
  5 29  1  0  0  0  0
  5 30  1  0  0  0  0
  6  7  1  0  0  0  0
  6 19  1  0  0  0  0
  6 31  1  0  0  0  0
  7  8  1  0  0  0  0
  7 32  1  0  0  0  0
  8  9  2  0  0  0  0
  8 10  1  0  0  0  0
 10 11  1  0  0  0  0
 10 33  1  0  0  0  0
 11 12  2  0  0  0  0
 11 13  1  0  0  0  0
 13 14  1  0  0  0  0
 13 34  1  0  0  0  0
 13 35  1  0  0  0  0
 14 18  1  0  0  0  0
 14 15  1  0  0  0  0
 15 16  2  0  0  0  0
 15 36  1  0  0  0  0
 16 17  1  0  0  0  0
 16 37  1  0  0  0  0
 17 18  2  0  0  0  0
 17 43  1  0  0  0  0
 18 38  1  0  0  0  0
 19 20  1  0  0  0  0
 19 39  1  0  0  0  0
 20 40  1  0  0  0  0
 20 41  1  0  0  0  0
 20 42  1  0  0  0  0
M  CHG  1  17   1
M  END
> <s_m_source_file>
AV-unprocessed.smi

> <i_m_source_file_index>
527

> <i_lp_mmshare_version>
43012

> <i_f3d_flags>
0

> <s_epik_input>
W0NIM11bQ0BASF0xW0NIMl1bQ0gyXVtDSDJdW0NASF0oW0NASF0xW0NIM10pW05IXUMoPU8pW05IXUMoPU8pW0NIMl1uMltjSF1bY0hdbltjSF0y

> <s_epik_cmdline>
J2VwaWtfcHl0aG9uJywgJy1waCcsICc3LjAnLCAnLXRuJywgJzgnLCAnLW1hJywgJzIwMCcsICctbWV0YWxfYmluZGluZycsICctaW1hZScsICc8aW5maWxlLm1hZT4nLCAnLW9tYWUnLCAnPG91dGZpbGUubWFlPic=

> <r_lp_tautomer_probability>
1

> <r_epik_Ionization_Penalty>
0.816441

> <r_epik_Ionization_Penalty_Charging>
0

> <r_epik_Ionization_Penalty_Neutral>
0.816441

> <r_epik_State_Penalty>
0.849034

> <r_epik_Charging_Adjusted_Penalty>
0.849034

> <i_epik_Tot_Q>
1

> <i_epik_Tot_abs_Q>
1

> <r_epik_Metal_State_Penalty>
0.984327

> <b_epik_Metal_Only>
0

> <s_lp_Force_Field>
OPLS_2005

> <r_lp_Energy>
15.5075

> <b_lp_Chiralities_Consistent>
1

> <s_lp_Variant>
AV-unprocessed.smi:527-9

> <Gold.Version>
5.8.1

> <Gold.Id.Protein>
6NUR|6NUR_protein|mol2

> <Gold.PLP.Fitness>
42.5150

> <Gold.PLP.PLP>
-31.0144

> <Gold.PLP.part.hbond>
-2.0000

> <Gold.PLP.part.metal>
0.0000

> <Gold.PLP.part.buried>
-2.2046

> <Gold.PLP.part.nonpolar>
-26.8085

> <Gold.PLP.part.repulsive>
0.3909

> <Gold.PLP.ligand.clash>
0.0000

> <Gold.PLP.ligand.torsion>
0.2396

> <Gold.PLP.Chemscore.Hbond>
1.9920

> <Gold.PLP.Chemscore.CHOScore>
1.9921

> <Gold.PLP.Chemscore.Metal>
0.0000

> <Gold.Chemscore.Hbonds>
donor molecule, donor type, donor heavy atom, donor atom, acceptor molecule, acceptor atom, score
      L1  H     7    32       P1  7948  0.96
      L1  H    10    33       P1  7948  1.00
      L1  C    15    36       P1 10186  0.96
      L1  C    18    38       P1 10747  0.95

> <Gold.PLP.Chemscore.Internal.Correction>
0.0274

> <Gold.Rescore>
     Score         DG    S(hbond)    S(metal)    S(lipo)     H(rot)  DE(clash)    DE(int)     intcor
     13.28     -15.37       1.94        0.00      66.39       1.71       0.41       1.68       ----

> <Gold.Chemscore.Fitness>
13.2808

> <Gold.Chemscore.DG>
-15.3670

> <Gold.Chemscore.ZeroCoef>
-5.4800

> <Gold.Chemscore.Hbond>
1.9416

> <Gold.Chemscore.Metal>
0.0000

> <Gold.Chemscore.Lipo>
66.3872

> <Gold.Chemscore.Internal_Hbond>
0.0000

> <Gold.Chemscore.DEClash>
0.4057

> <Gold.Chemscore.DEInternal>
1.6805

> <Gold.Chemscore.Rot>
1.7052

> <Gold.Chemscore.Internal.Correction>
   9.000000E+99

> <Gold.Chemscore.Hbonds>
donor molecule, donor type, donor heavy atom, donor atom, acceptor molecule, acceptor atom, score
      L1  H     7    32       P1  7948  0.92
      L1  H    10    33       P1  7948  0.95

> <Gold.Chemscore.Hbond.Weighted>
-6.4850

> <Gold.Chemscore.Metal.Weighted>
-0.0000

> <Gold.Chemscore.Lipo.Weighted>
-7.7673

> <Gold.Chemscore.Internal_Hbond.Weighted>
0.0000

> <Gold.Chemscore.DEClash.Weighted>
0.4057

> <Gold.Chemscore.DEInternal.Weighted>
1.6805

> <Gold.Chemscore.Rot.Weighted>
4.3653

> <Gold.Chemscore.Internal.Correction.Weighted>
   9.000000E+99

> <Gold.Protein.RotatedTorsions>
[ 6907 6896 6895 6894 ] final -172.03 input  -60.11 | X-H torsion
[ 7974 7965 7964 7962 ] final -140.65 input  175.53 | X-H torsion
[ 8008 7997 7996 7995 ] final   35.67 input   59.86 | X-H torsion
[ 10167 10162 10161 10158 ] final  -42.97 input  -65.29 | X-H torsion
[ 10718 10713 10712 10709 ] final  124.84 input   66.30 | X-H torsion
[ 10763 10752 10751 10750 ] final -174.30 input  -60.55 | X-H torsion
[ 11005 11000 10999 10996 ] final -149.87 input  -57.11 | X-H torsion

> <Gold.Protein.ActiveResidues>
 VAL166  LYS551  ARG553  GLY616  TRP617  ASP618  TYR619  PRO620  LYS621  CYS622 
 ASP623  PHE694  ASN695  SER759  ASP760  ASP761  ALA762  ILE779  LEU786  VAL792 
 PHE793  MET794  SER795  GLU796  ALA797  LYS798  CYS799  TRP800  GLU811  SER814 

> <Gold.Protein.RotatedAtoms>
  151.5335  133.3445  159.2922 H   0  0  0  0  0  0  0  0  0  0  0  0  # atno 6907 bound_to 6896
  150.8579  134.7926  159.7071 H   0  0  0  0  0  0  0  0  0  0  0  0  # atno 6908 bound_to 6896
  152.4607  134.5198  159.9831 H   0  0  0  0  0  0  0  0  0  0  0  0  # atno 6909 bound_to 6896
  144.8581  140.6175  143.5346 H   0  0  0  0  0  0  0  0  0  0  0  0  # atno 7974 bound_to 7965
  155.1748  140.3295  155.4386 H   0  0  0  0  0  0  0  0  0  0  0  0  # atno 8008 bound_to 7997
  156.2497  140.1937  156.6800 H   0  0  0  0  0  0  0  0  0  0  0  0  # atno 8009 bound_to 7997
  154.6312  140.0582  156.9721 H   0  0  0  0  0  0  0  0  0  0  0  0  # atno 8010 bound_to 7997
  140.6951  143.3008  151.3284 H   0  0  0  0  0  0  0  0  0  0  0  0  # atno 10167 bound_to 10162
  157.5552  131.1092  150.8634 H   0  0  0  0  0  0  0  0  0  0  0  0  # atno 10718 bound_to 10713
  154.5978  135.2851  155.0567 H   0  0  0  0  0  0  0  0  0  0  0  0  # atno 10763 bound_to 10752
  154.1843  135.6451  153.5046 H   0  0  0  0  0  0  0  0  0  0  0  0  # atno 10764 bound_to 10752
  153.0145  135.5431  154.6686 H   0  0  0  0  0  0  0  0  0  0  0  0  # atno 10765 bound_to 10752
  140.7462  134.3458  157.5136 H   0  0  0  0  0  0  0  0  0  0  0  0  # atno 11005 bound_to 11000
  145.4367  139.1541  143.3993 LP  0  0  0  0  0  0  0  0  0  0  0  0  # atno 17320 bound_to 7965
  146.2839  140.4486  142.8766 LP  0  0  0  0  0  0  0  0  0  0  0  0  # atno 17321 bound_to 7965
  139.6396  144.0565  152.2543 LP  0  0  0  0  0  0  0  0  0  0  0  0  # atno 17342 bound_to 10162
  140.0066  144.6255  150.7683 LP  0  0  0  0  0  0  0  0  0  0  0  0  # atno 17343 bound_to 10162
  156.9147  130.5293  149.5280 LP  0  0  0  0  0  0  0  0  0  0  0  0  # atno 17370 bound_to 10713
  156.0612  130.5664  150.9196 LP  0  0  0  0  0  0  0  0  0  0  0  0  # atno 17371 bound_to 10713
  139.8796  134.9112  156.3033 LP  0  0  0  0  0  0  0  0  0  0  0  0  # atno 17394 bound_to 11000
  140.9792  133.7278  156.0647 LP  0  0  0  0  0  0  0  0  0  0  0  0  # atno 17395 bound_to 11000

$$$$
