AV-unprocessed.smi:2919|AV-procd|sdf|11193|dock1
  -GOLD-   2272016 83D 1   1.00000     0.00000
 Structure written by MMmdl.
 34 36  0  0  0  0  0  0  0  0  1 V2000
  152.4737  143.7804  161.4802 C   0  0  0  0  0  0  0  0  0  0  0  0
  152.2338  142.6533  160.4916 C   0  0  0  0  0  0  0  0  0  0  0  0
  151.1645  142.8219  159.6833 N   0  0  0  0  0  0  0  0  0  0  0  0
  150.8529  141.8988  158.7724 N   0  0  0  0  0  0  0  0  0  0  0  0
  151.5959  140.7737  158.6383 C   0  0  0  0  0  0  0  0  0  0  0  0
  151.2046  139.8472  157.6544 N   0  0  0  0  0  0  0  0  0  0  0  0
  151.3132  140.1713  156.2351 C   0  0  1  0  0  0  0  0  0  0  0  0
  152.2972  139.2660  155.4905 C   0  0  0  0  0  0  0  0  0  0  0  0
  151.4320  138.7400  154.3365 C   0  0  1  0  0  0  0  0  0  0  0  0
  150.4301  137.6835  154.8200 C   0  0  0  0  0  0  0  0  0  0  0  0
  149.4223  138.5391  155.5846 C   0  0  0  0  0  0  0  0  0  0  0  0
  150.0177  139.9490  155.4282 C   0  0  2  0  0  0  0  0  0  0  0  0
  150.5646  139.8413  154.1247 O   0  0  0  0  0  0  0  0  0  0  0  0
  152.7332  140.5324  159.4521 C   0  0  0  0  0  0  0  0  0  0  0  0
  153.5298  139.3160  159.3032 C   0  0  0  0  0  0  0  0  0  0  0  0
  154.1609  138.3533  159.1853 N   0  0  0  0  0  0  0  0  0  0  0  0
  153.0679  141.5109  160.4216 C   0  0  0  0  0  0  0  0  0  0  0  0
  154.2722  141.3345  161.3430 C   0  0  0  0  0  0  0  0  0  0  0  0
  153.4572  144.2236  161.3216 H   0  0  0  0  0  0  0  0  0  0  0  0
  152.4180  143.4084  162.5034 H   0  0  0  0  0  0  0  0  0  0  0  0
  151.7305  144.5721  161.3730 H   0  0  0  0  0  0  0  0  0  0  0  0
  150.5487  139.1255  157.9163 H   0  0  0  0  0  0  0  0  0  0  0  0
  151.6425  141.2053  156.1219 H   0  0  0  0  0  0  0  0  0  0  0  0
  153.1358  139.8519  155.1124 H   0  0  0  0  0  0  0  0  0  0  0  0
  152.6999  138.4559  156.1003 H   0  0  0  0  0  0  0  0  0  0  0  0
  152.0020  138.4390  153.4572 H   0  0  0  0  0  0  0  0  0  0  0  0
  149.9486  137.1880  153.9762 H   0  0  0  0  0  0  0  0  0  0  0  0
  150.8983  136.9210  155.4432 H   0  0  0  0  0  0  0  0  0  0  0  0
  148.4426  138.4838  155.1089 H   0  0  0  0  0  0  0  0  0  0  0  0
  149.3062  138.2345  156.6249 H   0  0  0  0  0  0  0  0  0  0  0  0
  149.2856  140.7497  155.5363 H   0  0  0  0  0  0  0  0  0  0  0  0
  154.1740  140.4143  161.9200 H   0  0  0  0  0  0  0  0  0  0  0  0
  154.3960  142.1495  162.0539 H   0  0  0  0  0  0  0  0  0  0  0  0
  155.1889  141.2729  160.7553 H   0  0  0  0  0  0  0  0  0  0  0  0
  1  2  1  0  0  0  0
  1 19  1  0  0  0  0
  1 20  1  0  0  0  0
  1 21  1  0  0  0  0
  2 17  1  0  0  0  0
  2  3  2  0  0  0  0
  3  4  1  0  0  0  0
  4  5  2  0  0  0  0
  5  6  1  0  0  0  0
  5 14  1  0  0  0  0
  6  7  1  0  0  0  0
  6 22  1  0  0  0  0
  7 12  1  0  0  0  0
  7  8  1  0  0  0  0
  7 23  1  0  0  0  0
  8  9  1  0  0  0  0
  8 24  1  0  0  0  0
  8 25  1  0  0  0  0
  9 13  1  0  0  0  0
  9 10  1  0  0  0  0
  9 26  1  0  0  0  0
 10 11  1  0  0  0  0
 10 27  1  0  0  0  0
 10 28  1  0  0  0  0
 11 12  1  0  0  0  0
 11 29  1  0  0  0  0
 11 30  1  0  0  0  0
 12 13  1  0  0  0  0
 12 31  1  0  0  0  0
 14 15  1  0  0  0  0
 14 17  2  0  0  0  0
 15 16  3  0  0  0  0
 17 18  1  0  0  0  0
 18 32  1  0  0  0  0
 18 33  1  0  0  0  0
 18 34  1  0  0  0  0
M  END
> <s_m_source_file>
AV-unprocessed.smi

> <i_m_source_file_index>
2919

> <i_lp_mmshare_version>
43012

> <i_f3d_flags>
0

> <s_epik_input>
W0NIM11jMW5uYyhjKEMjTiljMVtDSDNdKVtOSF1bQ0BIXShbQ0gyXVtDQEBIXTIzKVtDQEBIXShPMylbQ0gyXVtDSDJdMg==

> <s_epik_cmdline>
J2VwaWtfcHl0aG9uJywgJy1waCcsICc3LjAnLCAnLXRuJywgJzgnLCAnLW1hJywgJzIwMCcsICctbWV0YWxfYmluZGluZycsICctaW1hZScsICc8aW5maWxlLm1hZT4nLCAnLW9tYWUnLCAnPG91dGZpbGUubWFlPic=

> <r_lp_tautomer_probability>
1

> <r_epik_Ionization_Penalty>
0.00143865

> <r_epik_Ionization_Penalty_Charging>
0

> <r_epik_Ionization_Penalty_Neutral>
0.00143865

> <r_epik_State_Penalty>
-0

> <r_epik_Charging_Adjusted_Penalty>
0

> <i_epik_Tot_Q>
0

> <i_epik_Tot_abs_Q>
0

> <r_epik_Metal_State_Penalty>
-0

> <b_epik_Metal_Only>
0

> <s_lp_Force_Field>
OPLS_2005

> <r_lp_Energy>
49.159

> <b_lp_Chiralities_Consistent>
1

> <s_lp_Variant>
AV-unprocessed.smi:2919-2

> <Gold.Version>
5.8.1

> <Gold.Id.Protein>
6NUR|6NUR_protein|mol2

> <Gold.PLP.Fitness>
36.1912

> <Gold.PLP.PLP>
-34.5509

> <Gold.PLP.part.hbond>
-1.5252

> <Gold.PLP.part.metal>
0.0000

> <Gold.PLP.part.buried>
-4.2866

> <Gold.PLP.part.nonpolar>
-27.7562

> <Gold.PLP.part.repulsive>
0.2942

> <Gold.PLP.ligand.clash>
0.0000

> <Gold.PLP.ligand.torsion>
0.6849

> <Gold.PLP.Chemscore.Hbond>
1.0000

> <Gold.PLP.Chemscore.CHOScore>
0.0000

> <Gold.PLP.Chemscore.Metal>
0.0000

> <Gold.Chemscore.Hbonds>
donor molecule, donor type, donor heavy atom, donor atom, acceptor molecule, acceptor atom, score
      P1  H  7989  7998       L1    13  0.95

> <Gold.PLP.Chemscore.Internal.Correction>
0.0102

> <Gold.Rescore>
     Score         DG    S(hbond)    S(metal)    S(lipo)     H(rot)  DE(clash)    DE(int)     intcor
     15.52     -16.20       0.94        0.00      86.74       1.00       0.09       0.60       ----

> <Gold.Chemscore.Fitness>
15.5194

> <Gold.Chemscore.DG>
-16.2047

> <Gold.Chemscore.ZeroCoef>
-5.4800

> <Gold.Chemscore.Hbond>
0.9390

> <Gold.Chemscore.Metal>
0.0000

> <Gold.Chemscore.Lipo>
86.7392

> <Gold.Chemscore.Internal_Hbond>
0.0000

> <Gold.Chemscore.DEClash>
0.0901

> <Gold.Chemscore.DEInternal>
0.5953

> <Gold.Chemscore.Rot>
1.0000

> <Gold.Chemscore.Internal.Correction>
   9.000000E+99

> <Gold.Chemscore.Hbonds>
donor molecule, donor type, donor heavy atom, donor atom, acceptor molecule, acceptor atom, score
      P1  H  7989  7998       L1    13  0.21

> <Gold.Chemscore.Hbond.Weighted>
-3.1363

> <Gold.Chemscore.Metal.Weighted>
-0.0000

> <Gold.Chemscore.Lipo.Weighted>
-10.1485

> <Gold.Chemscore.Internal_Hbond.Weighted>
0.0000

> <Gold.Chemscore.DEClash.Weighted>
0.0901

> <Gold.Chemscore.DEInternal.Weighted>
0.5953

> <Gold.Chemscore.Rot.Weighted>
2.5600

> <Gold.Chemscore.Internal.Correction.Weighted>
   9.000000E+99

> <Gold.Protein.RotatedTorsions>
[ 6907 6896 6895 6894 ] final  122.56 input  -60.11 | X-H torsion
[ 7974 7965 7964 7962 ] final  -75.53 input  175.53 | X-H torsion
[ 8008 7997 7996 7995 ] final   26.16 input   59.86 | X-H torsion
[ 10167 10162 10161 10158 ] final -172.10 input  -65.29 | X-H torsion
[ 10718 10713 10712 10709 ] final  -14.10 input   66.30 | X-H torsion
[ 10763 10752 10751 10750 ] final  152.71 input  -60.55 | X-H torsion
[ 11005 11000 10999 10996 ] final  -79.82 input  -57.11 | X-H torsion

> <Gold.Protein.ActiveResidues>
 VAL166  LYS551  ARG553  GLY616  TRP617  ASP618  TYR619  PRO620  LYS621  CYS622 
 ASP623  PHE694  ASN695  SER759  ASP760  ASP761  ALA762  ILE779  LEU786  VAL792 
 PHE793  MET794  SER795  GLU796  ALA797  LYS798  CYS799  TRP800  GLU811  SER814 

> <Gold.Protein.RotatedAtoms>
  152.4233  133.7152  159.6501 H   0  0  0  0  0  0  0  0  0  0  0  0  # atno 6907 bound_to 6896
  150.8109  133.8413  159.3189 H   0  0  0  0  0  0  0  0  0  0  0  0  # atno 6908 bound_to 6896
  151.6124  135.1041  160.0135 H   0  0  0  0  0  0  0  0  0  0  0  0  # atno 6909 bound_to 6896
  145.6248  140.9353  143.1118 H   0  0  0  0  0  0  0  0  0  0  0  0  # atno 7974 bound_to 7965
  155.0229  140.3150  155.4786 H   0  0  0  0  0  0  0  0  0  0  0  0  # atno 8008 bound_to 7997
  156.2888  140.2194  156.5290 H   0  0  0  0  0  0  0  0  0  0  0  0  # atno 8009 bound_to 7997
  154.7436  140.0471  157.0820 H   0  0  0  0  0  0  0  0  0  0  0  0  # atno 8010 bound_to 7997
  139.5764  144.1523  152.1456 H   0  0  0  0  0  0  0  0  0  0  0  0  # atno 10167 bound_to 10162
  156.6208  130.4875  149.6165 H   0  0  0  0  0  0  0  0  0  0  0  0  # atno 10718 bound_to 10713
  154.1245  135.2830  155.3200 H   0  0  0  0  0  0  0  0  0  0  0  0  # atno 10763 bound_to 10752
  154.6399  135.5406  153.7781 H   0  0  0  0  0  0  0  0  0  0  0  0  # atno 10764 bound_to 10752
  153.0302  135.6484  154.1398 H   0  0  0  0  0  0  0  0  0  0  0  0  # atno 10765 bound_to 10752
  141.1667  133.7122  156.8179 H   0  0  0  0  0  0  0  0  0  0  0  0  # atno 11005 bound_to 11000
  144.7217  139.8010  143.7379 LP  0  0  0  0  0  0  0  0  0  0  0  0  # atno 17320 bound_to 7965
  146.1403  139.4458  143.0113 LP  0  0  0  0  0  0  0  0  0  0  0  0  # atno 17321 bound_to 7965
  140.1067  144.5492  150.6952 LP  0  0  0  0  0  0  0  0  0  0  0  0  # atno 17342 bound_to 10162
  140.7046  143.2459  151.4765 LP  0  0  0  0  0  0  0  0  0  0  0  0  # atno 17343 bound_to 10162
  156.2313  130.6796  151.1466 LP  0  0  0  0  0  0  0  0  0  0  0  0  # atno 17370 bound_to 10713
  157.7228  131.0670  150.6063 LP  0  0  0  0  0  0  0  0  0  0  0  0  # atno 17371 bound_to 10713
  140.2140  134.8806  157.3305 LP  0  0  0  0  0  0  0  0  0  0  0  0  # atno 17394 bound_to 11000
  140.2057  134.4200  155.7639 LP  0  0  0  0  0  0  0  0  0  0  0  0  # atno 17395 bound_to 11000

$$$$
