AV-unprocessed.smi:158|AV-procd|sdf|1338|dock5
  -GOLD-   2262019 33D 1   1.00000     0.00000
 Structure written by MMmdl.
 31 33  0  0  0  0  0  0  0  0  1 V2000
  150.6931  134.1892  156.4891 N   0  0  0  0  0  0  0  0  0  0  0  0
  150.3493  135.4806  156.3819 C   0  0  0  0  0  0  0  0  0  0  0  0
  149.0336  135.7965  156.3497 N   0  0  0  0  0  0  0  0  0  0  0  0
  148.6481  137.0740  156.2423 C   0  0  0  0  0  0  0  0  0  0  0  0
  146.9490  137.3653  156.2073 Cl  0  0  0  0  0  0  0  0  0  0  0  0
  149.4329  138.1527  156.1575 N   0  0  0  0  0  0  0  0  0  0  0  0
  150.7604  137.8403  156.1907 C   0  0  0  0  0  0  0  0  0  0  0  0
  151.2978  136.5296  156.3001 C   0  0  0  0  0  0  0  0  0  0  0  0
  152.6848  136.5847  156.3007 N   0  0  0  0  0  0  0  0  0  0  0  0
  152.9476  137.8601  156.1972 C   0  0  0  0  0  0  0  0  0  0  0  0
  151.8484  138.6884  156.1273 N   0  0  0  0  0  0  0  0  0  0  0  0
  151.8403  140.1818  156.0062 C   0  0  1  0  0  0  0  0  0  0  0  0
  150.9944  140.5218  154.9497 O   0  0  0  0  0  0  0  0  0  0  0  0
  150.0945  141.5490  155.3519 C   0  0  1  0  0  0  0  0  0  0  0  0
  148.8021  141.4507  154.5253 C   0  0  0  0  0  0  0  0  0  0  0  0
  149.0875  141.0290  153.2083 O   0  0  0  0  0  0  0  0  0  0  0  0
  149.9167  141.3257  156.8572 C   0  0  2  0  0  0  0  0  0  0  0  0
  149.5626  142.5179  157.5296 O   0  0  0  0  0  0  0  0  0  0  0  0
  151.3015  140.8644  157.2759 C   0  0  1  0  0  0  0  0  0  0  0  0
  151.2684  140.0310  158.3185 F   0  0  0  0  0  0  0  0  0  0  0  0
  152.8742  140.4468  155.7823 H   0  0  0  0  0  0  0  0  0  0  0  0
  150.5968  142.5004  155.1656 H   0  0  0  0  0  0  0  0  0  0  0  0
  149.1778  140.5487  157.0536 H   0  0  0  0  0  0  0  0  0  0  0  0
  151.9543  141.7031  157.5217 H   0  0  0  0  0  0  0  0  0  0  0  0
  151.6689  133.9298  156.5145 H   0  0  0  0  0  0  0  0  0  0  0  0
  149.9777  133.4788  156.5455 H   0  0  0  0  0  0  0  0  0  0  0  0
  153.9605  138.2350  156.1717 H   0  0  0  0  0  0  0  0  0  0  0  0
  148.1279  140.7203  154.9731 H   0  0  0  0  0  0  0  0  0  0  0  0
  148.2734  142.4040  154.5026 H   0  0  0  0  0  0  0  0  0  0  0  0
  148.4804  140.3436  152.9742 H   0  0  0  0  0  0  0  0  0  0  0  0
  149.4845  143.2121  156.8934 H   0  0  0  0  0  0  0  0  0  0  0  0
  1  2  1  0  0  0  0
  1 25  1  0  0  0  0
  1 26  1  0  0  0  0
  2  8  1  0  0  0  0
  2  3  2  0  0  0  0
  3  4  1  0  0  0  0
  4  5  1  0  0  0  0
  4  6  2  0  0  0  0
  6  7  1  0  0  0  0
  7 11  1  0  0  0  0
  7  8  2  0  0  0  0
  8  9  1  0  0  0  0
  9 10  2  0  0  0  0
 10 11  1  0  0  0  0
 10 27  1  0  0  0  0
 11 12  1  0  0  0  0
 12 21  1  0  0  0  0
 12 19  1  0  0  0  0
 12 13  1  0  0  0  0
 13 14  1  0  0  0  0
 14 22  1  0  0  0  0
 14 15  1  0  0  0  0
 14 17  1  0  0  0  0
 15 16  1  0  0  0  0
 15 28  1  0  0  0  0
 15 29  1  0  0  0  0
 16 30  1  0  0  0  0
 17 23  1  0  0  0  0
 17 18  1  0  0  0  0
 17 19  1  0  0  0  0
 18 31  1  0  0  0  0
 19 24  1  0  0  0  0
 19 20  1  0  0  0  0
M  END
> <s_m_source_file>
AV-unprocessed.smi

> <i_m_source_file_index>
158

> <i_lp_mmshare_version>
43012

> <i_f3d_flags>
0

> <s_epik_input>
Q2xjKG4xKW5jKFtOSDJdKWMoYzEyKW5bY0hdbjJbQ0BASF0zT1tDQEhdKFtDSDJdW09IXSlbQ0BASF0oW09IXSlbQ0BASF0zRg==

> <s_epik_cmdline>
J2VwaWtfcHl0aG9uJywgJy1waCcsICc3LjAnLCAnLXRuJywgJzgnLCAnLW1hJywgJzIwMCcsICctbWV0YWxfYmluZGluZycsICctaW1hZScsICc8aW5maWxlLm1hZT4nLCAnLW9tYWUnLCAnPG91dGZpbGUubWFlPic=

> <r_lp_tautomer_probability>
1

> <r_epik_Ionization_Penalty>
6.51543e-05

> <r_epik_Ionization_Penalty_Charging>
0

> <r_epik_Ionization_Penalty_Neutral>
6.51543e-05

> <r_epik_State_Penalty>
-0

> <r_epik_Charging_Adjusted_Penalty>
0

> <i_epik_Tot_Q>
0

> <i_epik_Tot_abs_Q>
0

> <r_epik_Metal_State_Penalty>
-0

> <b_epik_Metal_Only>
0

> <s_epik_Chemistry_Notes>
This compound contains an acetal/aminal-like group ( X-CH(R)-Y where X, Y are N, S, or O) that may be acid/base labile, releasing an aldehyde.

> <s_lp_Force_Field>
OPLS_2005

> <r_lp_Energy>
35.9184

> <b_lp_Chiralities_Consistent>
1

> <s_lp_Variant>
AV-unprocessed.smi:158-16

> <Gold.Version>
5.8.1

> <Gold.Id.Protein>
6NUR|6NUR_protein|mol2

> <Gold.PLP.Fitness>
36.0982

> <Gold.PLP.PLP>
-24.9896

> <Gold.PLP.part.hbond>
-5.3066

> <Gold.PLP.part.metal>
0.0000

> <Gold.PLP.part.buried>
-3.4136

> <Gold.PLP.part.nonpolar>
-16.4622

> <Gold.PLP.part.repulsive>
0.2459

> <Gold.PLP.ligand.clash>
0.0000

> <Gold.PLP.ligand.torsion>
0.4623

> <Gold.PLP.Chemscore.Hbond>
4.0000

> <Gold.PLP.Chemscore.CHOScore>
0.0000

> <Gold.PLP.Chemscore.Metal>
0.0000

> <Gold.Chemscore.Hbonds>
donor molecule, donor type, donor heavy atom, donor atom, acceptor molecule, acceptor atom, score
      L1  H    18    31       P1  8028  0.99
      P1  H  7989  7998       L1    13  1.00
      P1  H  8011  8017       L1    16  1.00
      P1  H 10752 10765       L1     9  1.00

> <Gold.PLP.Chemscore.Internal.Correction>
0.0331

> <Gold.Rescore>
     Score         DG    S(hbond)    S(metal)    S(lipo)     H(rot)  DE(clash)    DE(int)     intcor
     10.98     -12.60       3.48        0.00      29.78       3.12       0.05       1.57       ----

> <Gold.Chemscore.Fitness>
10.9836

> <Gold.Chemscore.DG>
-12.6039

> <Gold.Chemscore.ZeroCoef>
-5.4800

> <Gold.Chemscore.Hbond>
3.4833

> <Gold.Chemscore.Metal>
0.0000

> <Gold.Chemscore.Lipo>
29.7840

> <Gold.Chemscore.Internal_Hbond>
0.0000

> <Gold.Chemscore.DEClash>
0.0456

> <Gold.Chemscore.DEInternal>
1.5748

> <Gold.Chemscore.Rot>
3.1230

> <Gold.Chemscore.Internal.Correction>
   9.000000E+99

> <Gold.Chemscore.Hbonds>
donor molecule, donor type, donor heavy atom, donor atom, acceptor molecule, acceptor atom, score
      L1  H    18    31       P1  8028  0.91
      P1  H  7989  7998       L1    13  0.68
      P1  H  8011  8017       L1    16  0.65
      P1  H 10752 10765       L1     9  0.77

> <Gold.Chemscore.Hbond.Weighted>
-11.6342

> <Gold.Chemscore.Metal.Weighted>
-0.0000

> <Gold.Chemscore.Lipo.Weighted>
-3.4847

> <Gold.Chemscore.Internal_Hbond.Weighted>
0.0000

> <Gold.Chemscore.DEClash.Weighted>
0.0456

> <Gold.Chemscore.DEInternal.Weighted>
1.5748

> <Gold.Chemscore.Rot.Weighted>
7.9950

> <Gold.Chemscore.Internal.Correction.Weighted>
   9.000000E+99

> <Gold.Protein.RotatedTorsions>
[ 6907 6896 6895 6894 ] final -118.02 input  -60.11 | X-H torsion
[ 7974 7965 7964 7962 ] final   47.44 input  175.53 | X-H torsion
[ 8008 7997 7996 7995 ] final  149.61 input   59.86 | X-H torsion
[ 10167 10162 10161 10158 ] final -173.89 input  -65.29 | X-H torsion
[ 10718 10713 10712 10709 ] final -112.69 input   66.30 | X-H torsion
[ 10763 10752 10751 10750 ] final -134.36 input  -60.55 | X-H torsion
[ 11005 11000 10999 10996 ] final  -70.15 input  -57.11 | X-H torsion

> <Gold.Protein.ActiveResidues>
 VAL166  LYS551  ARG553  GLY616  TRP617  ASP618  TYR619  PRO620  LYS621  CYS622 
 ASP623  PHE694  ASN695  SER759  ASP760  ASP761  ALA762  ILE779  LEU786  VAL792 
 PHE793  MET794  SER795  GLU796  ALA797  LYS798  CYS799  TRP800  GLU811  SER814 

> <Gold.Protein.RotatedAtoms>
  150.8185  133.8295  159.3149 H   0  0  0  0  0  0  0  0  0  0  0  0  # atno 6907 bound_to 6896
  151.6060  135.1042  160.0080 H   0  0  0  0  0  0  0  0  0  0  0  0  # atno 6908 bound_to 6896
  152.4275  133.7179  159.6573 H   0  0  0  0  0  0  0  0  0  0  0  0  # atno 6909 bound_to 6896
  146.0297  139.4749  142.9845 H   0  0  0  0  0  0  0  0  0  0  0  0  # atno 7974 bound_to 7965
  156.2748  140.2097  156.5885 H   0  0  0  0  0  0  0  0  0  0  0  0  # atno 8008 bound_to 7997
  154.7001  140.0522  157.0473 H   0  0  0  0  0  0  0  0  0  0  0  0  # atno 8009 bound_to 7997
  155.0746  140.3180  155.4623 H   0  0  0  0  0  0  0  0  0  0  0  0  # atno 8010 bound_to 7997
  139.5663  144.1747  152.1318 H   0  0  0  0  0  0  0  0  0  0  0  0  # atno 10167 bound_to 10162
  156.0721  130.5933  150.8542 H   0  0  0  0  0  0  0  0  0  0  0  0  # atno 10718 bound_to 10713
  154.8720  135.3737  154.4723 H   0  0  0  0  0  0  0  0  0  0  0  0  # atno 10763 bound_to 10752
  153.5382  135.7027  153.5654 H   0  0  0  0  0  0  0  0  0  0  0  0  # atno 10764 bound_to 10752
  153.3828  135.3992  155.1833 H   0  0  0  0  0  0  0  0  0  0  0  0  # atno 10765 bound_to 10752
  141.1568  133.6782  156.6709 H   0  0  0  0  0  0  0  0  0  0  0  0  # atno 11005 bound_to 11000
  145.7060  141.0121  143.1479 LP  0  0  0  0  0  0  0  0  0  0  0  0  # atno 17320 bound_to 7965
  144.7025  139.8701  143.7440 LP  0  0  0  0  0  0  0  0  0  0  0  0  # atno 17321 bound_to 7965
  140.1270  144.5322  150.6826 LP  0  0  0  0  0  0  0  0  0  0  0  0  # atno 17342 bound_to 10162
  140.6947  143.2396  151.5034 LP  0  0  0  0  0  0  0  0  0  0  0  0  # atno 17343 bound_to 10162
  157.5797  131.0946  150.9290 LP  0  0  0  0  0  0  0  0  0  0  0  0  # atno 17370 bound_to 10713
  156.9489  130.5412  149.5282 LP  0  0  0  0  0  0  0  0  0  0  0  0  # atno 17371 bound_to 10713
  140.3176  134.8035  157.4226 LP  0  0  0  0  0  0  0  0  0  0  0  0  # atno 17394 bound_to 11000
  140.1125  134.5327  155.8254 LP  0  0  0  0  0  0  0  0  0  0  0  0  # atno 17395 bound_to 11000

$$$$
