AV-unprocessed.smi:3057|AV-procd|sdf|11667|dock6
  -GOLD-   2272017 73D 1   1.00000     0.00000
 Structure written by MMmdl.
 41 43  0  0  0  0  0  0  0  0  2 V2000
  152.9932  144.2762  158.5306 C   0  0  0  0  0  0  0  0  0  0  0  0
  152.2072  143.1459  159.2269 C   0  0  1  0  0  0  0  0  0  0  0  0
  150.7003  143.2583  158.9445 C   0  0  0  0  0  0  0  0  0  0  0  0
  150.4919  142.3956  157.6902 C   0  0  0  0  0  0  0  0  0  0  0  0
  151.6708  141.4352  157.7516 C   0  0  0  0  0  0  0  0  0  0  0  0
  151.7348  140.4035  157.0846 O   0  0  0  0  0  0  0  0  0  0  0  0
  152.5576  141.8528  158.6694 N   0  0  0  0  0  0  0  0  0  0  0  0
  153.6447  141.1158  159.3320 C   0  0  2  0  0  0  0  0  0  0  0  0
  153.2443  139.6905  159.7559 C   0  0  0  0  0  0  0  0  0  0  0  0
  152.1282  139.2492  159.4778 O   0  0  0  0  0  0  0  0  0  0  0  0
  154.1624  138.9857  160.4348 N   0  0  0  0  0  0  0  0  0  0  0  0
  153.9845  137.6126  160.8906 C   0  0  0  0  0  0  0  0  0  0  0  0
  155.3215  136.9868  161.3240 C   0  0  0  0  0  0  0  0  0  0  0  0
  155.1279  135.7897  162.2335 C   0  0  0  0  0  0  0  0  0  0  0  0
  154.6829  135.9206  163.5670 C   0  0  0  0  0  0  0  0  0  0  0  0
  154.5210  134.7621  164.3555 C   0  0  0  0  0  0  0  0  0  0  0  0
  154.8067  133.4998  163.7952 C   0  0  0  0  0  0  0  0  0  0  0  0
  155.2470  133.4273  162.4578 C   0  0  0  0  0  0  0  0  0  0  0  0
  155.3890  134.5597  161.7345 N   0  3  0  0  0  0  0  0  0  0  0  0
  154.0917  141.9756  160.5350 C   0  0  0  0  0  0  0  0  0  0  0  0
  152.6616  143.0041  160.9674 S   0  0  0  0  0  0  0  0  0  0  0  0
  152.7622  144.3283  157.4661 H   0  0  0  0  0  0  0  0  0  0  0  0
  154.0707  144.1397  158.6219 H   0  0  0  0  0  0  0  0  0  0  0  0
  152.7481  145.2452  158.9662 H   0  0  0  0  0  0  0  0  0  0  0  0
  150.1227  142.8436  159.7722 H   0  0  0  0  0  0  0  0  0  0  0  0
  150.3731  144.2886  158.8011 H   0  0  0  0  0  0  0  0  0  0  0  0
  149.5361  141.8710  157.7017 H   0  0  0  0  0  0  0  0  0  0  0  0
  150.5584  142.9907  156.7791 H   0  0  0  0  0  0  0  0  0  0  0  0
  154.4731  141.0439  158.6254 H   0  0  0  0  0  0  0  0  0  0  0  0
  155.0514  139.4236  160.6302 H   0  0  0  0  0  0  0  0  0  0  0  0
  153.2875  137.6182  161.7290 H   0  0  0  0  0  0  0  0  0  0  0  0
  153.5183  137.0189  160.1024 H   0  0  0  0  0  0  0  0  0  0  0  0
  155.8939  136.6687  160.4513 H   0  0  0  0  0  0  0  0  0  0  0  0
  155.9330  137.7314  161.8354 H   0  0  0  0  0  0  0  0  0  0  0  0
  154.4678  136.8946  163.9822 H   0  0  0  0  0  0  0  0  0  0  0  0
  154.1812  134.8415  165.3777 H   0  0  0  0  0  0  0  0  0  0  0  0
  154.6895  132.6007  164.3827 H   0  0  0  0  0  0  0  0  0  0  0  0
  155.4883  132.5057  161.9485 H   0  0  0  0  0  0  0  0  0  0  0  0
  154.4241  141.3882  161.3920 H   0  0  0  0  0  0  0  0  0  0  0  0
  154.9162  142.6281  160.2478 H   0  0  0  0  0  0  0  0  0  0  0  0
  155.7085  134.4843  160.7682 H   0  0  0  0  0  0  0  0  0  0  0  0
  1  2  1  0  0  0  0
  1 22  1  0  0  0  0
  1 23  1  0  0  0  0
  1 24  1  0  0  0  0
  2  7  1  0  0  0  0
  2 21  1  0  0  0  0
  2  3  1  0  0  0  0
  3  4  1  0  0  0  0
  3 25  1  0  0  0  0
  3 26  1  0  0  0  0
  4  5  1  0  0  0  0
  4 27  1  0  0  0  0
  4 28  1  0  0  0  0
  5  6  2  0  0  0  0
  5  7  1  0  0  0  0
  7  8  1  0  0  0  0
  8  9  1  0  0  0  0
  8 20  1  0  0  0  0
  8 29  1  0  0  0  0
  9 10  2  0  0  0  0
  9 11  1  0  0  0  0
 11 12  1  0  0  0  0
 11 30  1  0  0  0  0
 12 13  1  0  0  0  0
 12 31  1  0  0  0  0
 12 32  1  0  0  0  0
 13 14  1  0  0  0  0
 13 33  1  0  0  0  0
 13 34  1  0  0  0  0
 14 19  1  0  0  0  0
 14 15  2  0  0  0  0
 15 16  1  0  0  0  0
 15 35  1  0  0  0  0
 16 17  2  0  0  0  0
 16 36  1  0  0  0  0
 17 18  1  0  0  0  0
 17 37  1  0  0  0  0
 18 19  2  0  0  0  0
 18 38  1  0  0  0  0
 19 41  1  0  0  0  0
 20 21  1  0  0  0  0
 20 39  1  0  0  0  0
 20 40  1  0  0  0  0
M  CHG  1  19   1
M  END
> <s_m_source_file>
AV-unprocessed.smi

> <i_m_source_file_index>
3057

> <i_lp_mmshare_version>
43012

> <i_f3d_flags>
0

> <s_epik_input>
W0NIMl0xW0NIMl1DKD1PKU4oW0NAQF0xMltDSDNdKVtDQEhdKFtDSDJdUzIpQyg9TylbTkhdW0NIMl1bQ0gyXWMzW2NIXVtjSF1bY0hdW2NIXW4z

> <s_epik_cmdline>
J2VwaWtfcHl0aG9uJywgJy1waCcsICc3LjAnLCAnLXRuJywgJzgnLCAnLW1hJywgJzIwMCcsICctbWV0YWxfYmluZGluZycsICctaW1hZScsICc8aW5maWxlLm1hZT4nLCAnLW9tYWUnLCAnPG91dGZpbGUubWFlPic=

> <r_epik_Ionization_Penalty>
1.8888

> <r_epik_Ionization_Penalty_Charging>
1.8888

> <r_epik_Ionization_Penalty_Neutral>
1.66252e-07

> <r_epik_State_Penalty>
2.00916

> <r_epik_Charging_Adjusted_Penalty>
3.89796

> <i_epik_Tot_Q>
1

> <i_epik_Tot_abs_Q>
1

> <r_epik_Metal_State_Penalty>
2.03343

> <b_epik_Metal_Only>
0

> <s_lp_Force_Field>
OPLS_2005

> <r_lp_Energy>
30.9082

> <b_lp_Chiralities_Consistent>
1

> <s_lp_Variant>
AV-unprocessed.smi:3057-7

> <Gold.Version>
5.8.1

> <Gold.Id.Protein>
6NUR|6NUR_protein|mol2

> <Gold.PLP.Fitness>
40.3896

> <Gold.PLP.PLP>
-41.0419

> <Gold.PLP.part.hbond>
0.0000

> <Gold.PLP.part.metal>
0.0000

> <Gold.PLP.part.buried>
-4.0859

> <Gold.PLP.part.nonpolar>
-37.1091

> <Gold.PLP.part.repulsive>
0.0860

> <Gold.PLP.ligand.clash>
0.0000

> <Gold.PLP.ligand.torsion>
0.3339

> <Gold.PLP.Chemscore.Hbond>
0.0000

> <Gold.PLP.Chemscore.CHOScore>
0.0000

> <Gold.PLP.Chemscore.Metal>
0.0000

> <Gold.PLP.Chemscore.Internal.Correction>
0.0154

> <Gold.Rescore>
     Score         DG    S(hbond)    S(metal)    S(lipo)     H(rot)  DE(clash)    DE(int)     intcor
     13.17     -16.23       0.23        0.00     120.90       1.62       0.03       3.03       ----

> <Gold.Chemscore.Fitness>
13.1739

> <Gold.Chemscore.DG>
-16.2337

> <Gold.Chemscore.ZeroCoef>
-5.4800

> <Gold.Chemscore.Hbond>
0.2290

> <Gold.Chemscore.Metal>
0.0000

> <Gold.Chemscore.Lipo>
120.8951

> <Gold.Chemscore.Internal_Hbond>
0.0000

> <Gold.Chemscore.DEClash>
0.0285

> <Gold.Chemscore.DEInternal>
3.0313

> <Gold.Chemscore.Rot>
1.6234

> <Gold.Chemscore.Internal.Correction>
   9.000000E+99

> <Gold.Chemscore.Hbond.Weighted>
-0.7648

> <Gold.Chemscore.Metal.Weighted>
-0.0000

> <Gold.Chemscore.Lipo.Weighted>
-14.1447

> <Gold.Chemscore.Internal_Hbond.Weighted>
0.0000

> <Gold.Chemscore.DEClash.Weighted>
0.0285

> <Gold.Chemscore.DEInternal.Weighted>
3.0313

> <Gold.Chemscore.Rot.Weighted>
4.1558

> <Gold.Chemscore.Internal.Correction.Weighted>
   9.000000E+99

> <Gold.Protein.RotatedTorsions>
[ 6907 6896 6895 6894 ] final   33.59 input  -60.11 | X-H torsion
[ 7974 7965 7964 7962 ] final   36.18 input  175.53 | X-H torsion
[ 8008 7997 7996 7995 ] final   96.41 input   59.86 | X-H torsion
[ 10167 10162 10161 10158 ] final  -13.19 input  -65.29 | X-H torsion
[ 10718 10713 10712 10709 ] final  121.21 input   66.30 | X-H torsion
[ 10763 10752 10751 10750 ] final  134.96 input  -60.55 | X-H torsion
[ 11005 11000 10999 10996 ] final  -17.80 input  -57.11 | X-H torsion

> <Gold.Protein.ActiveResidues>
 VAL166  LYS551  ARG553  GLY616  TRP617  ASP618  TYR619  PRO620  LYS621  CYS622 
 ASP623  PHE694  ASN695  SER759  ASP760  ASP761  ALA762  ILE779  LEU786  VAL792 
 PHE793  MET794  SER795  GLU796  ALA797  LYS798  CYS799  TRP800  GLU811  SER814 

> <Gold.Protein.RotatedAtoms>
  152.0907  134.9409  160.0571 H   0  0  0  0  0  0  0  0  0  0  0  0  # atno 6907 bound_to 6896
  152.0662  133.4080  159.4447 H   0  0  0  0  0  0  0  0  0  0  0  0  # atno 6908 bound_to 6896
  150.6837  134.3064  159.4771 H   0  0  0  0  0  0  0  0  0  0  0  0  # atno 6909 bound_to 6896
  146.1229  139.6049  142.9277 H   0  0  0  0  0  0  0  0  0  0  0  0  # atno 7974 bound_to 7965
  156.0793  140.3273  155.7674 H   0  0  0  0  0  0  0  0  0  0  0  0  # atno 8008 bound_to 7997
  155.5178  140.0582  157.2929 H   0  0  0  0  0  0  0  0  0  0  0  0  # atno 8009 bound_to 7997
  154.4573  140.1949  156.0360 H   0  0  0  0  0  0  0  0  0  0  0  0  # atno 8010 bound_to 7997
  140.7177  143.5452  150.9363 H   0  0  0  0  0  0  0  0  0  0  0  0  # atno 10167 bound_to 10162
  157.5834  131.1072  150.8142 H   0  0  0  0  0  0  0  0  0  0  0  0  # atno 10718 bound_to 10713
  153.8321  135.3102  155.3419 H   0  0  0  0  0  0  0  0  0  0  0  0  # atno 10763 bound_to 10752
  154.7969  135.4750  154.0184 H   0  0  0  0  0  0  0  0  0  0  0  0  # atno 10764 bound_to 10752
  153.1628  135.6864  153.8809 H   0  0  0  0  0  0  0  0  0  0  0  0  # atno 10765 bound_to 10752
  140.8205  133.8072  155.9654 H   0  0  0  0  0  0  0  0  0  0  0  0  # atno 11005 bound_to 11000
  145.5426  141.0419  143.2322 LP  0  0  0  0  0  0  0  0  0  0  0  0  # atno 17320 bound_to 7965
  144.7615  139.6946  143.7232 LP  0  0  0  0  0  0  0  0  0  0  0  0  # atno 17321 bound_to 7965
  139.9176  143.6645  152.3103 LP  0  0  0  0  0  0  0  0  0  0  0  0  # atno 17342 bound_to 10162
  139.7050  144.7629  151.1208 LP  0  0  0  0  0  0  0  0  0  0  0  0  # atno 17343 bound_to 10162
  156.8583  130.5104  149.5306 LP  0  0  0  0  0  0  0  0  0  0  0  0  # atno 17370 bound_to 10713
  156.0881  130.5874  150.9685 LP  0  0  0  0  0  0  0  0  0  0  0  0  # atno 17371 bound_to 10713
  140.9104  134.2267  157.4989 LP  0  0  0  0  0  0  0  0  0  0  0  0  # atno 17394 bound_to 11000
  139.8709  134.9747  156.4858 LP  0  0  0  0  0  0  0  0  0  0  0  0  # atno 17395 bound_to 11000

$$$$
