AV-unprocessed.smi:1978|AV-procd|sdf|7995|dock3
  -GOLD-   2272010173D 1   1.00000     0.00000
 Structure written by MMmdl.
 45 46  0  0  0  0  0  0  0  0  2 V2000
  149.9187  142.1303  157.8262 C   0  0  0  0  0  0  0  0  0  0  0  0
  149.9515  141.2897  156.5958 C   0  0  0  0  0  0  0  0  0  0  0  0
  148.9711  140.7244  155.8297 C   0  0  0  0  0  0  0  0  0  0  0  0
  149.7045  140.0584  154.8121 C   0  0  0  0  0  0  0  0  0  0  0  0
  149.0396  139.3345  153.7894 N   0  0  0  0  0  0  0  0  0  0  0  0
  147.7141  139.2070  153.6080 C   0  0  0  0  0  0  0  0  0  0  0  0
  146.8484  139.7232  154.3154 O   0  0  0  0  0  0  0  0  0  0  0  0
  147.4370  138.4326  152.5480 N   0  0  0  0  0  0  0  0  0  0  0  0
  146.0964  138.1128  152.0623 C   0  0  0  0  0  0  0  0  0  0  0  0
  145.4305  136.9616  152.8571 C   0  0  1  0  0  0  0  0  0  0  0  0
  143.8875  137.0343  152.8763 C   0  0  0  0  0  0  0  0  0  0  0  0
  145.9362  135.6253  152.4003 N   0  3  2  0  0  0  0  0  0  0  0  0
  145.3158  135.1522  151.1267 C   0  0  0  0  0  0  0  0  0  0  0  0
  146.0589  133.9357  150.5573 C   0  0  0  0  0  0  0  0  0  0  0  0
  146.0753  132.7947  151.5761 C   0  0  0  0  0  0  0  0  0  0  0  0
  146.6788  133.2904  152.8940 C   0  0  0  0  0  0  0  0  0  0  0  0
  145.9451  134.5375  153.4362 C   0  0  1  0  0  0  0  0  0  0  0  0
  146.5951  134.9527  154.7722 C   0  0  0  0  0  0  0  0  0  0  0  0
  151.0139  140.2035  154.9449 N   0  0  0  0  0  0  0  0  0  0  0  0
  151.1789  140.9926  156.0893 O   0  0  0  0  0  0  0  0  0  0  0  0
  149.0050  142.7235  157.8664 H   0  0  0  0  0  0  0  0  0  0  0  0
  150.7665  142.8154  157.8534 H   0  0  0  0  0  0  0  0  0  0  0  0
  149.9581  141.5076  158.7200 H   0  0  0  0  0  0  0  0  0  0  0  0
  147.9028  140.7809  155.9766 H   0  0  0  0  0  0  0  0  0  0  0  0
  149.6381  138.8617  153.1285 H   0  0  0  0  0  0  0  0  0  0  0  0
  148.2124  138.0496  152.0267 H   0  0  0  0  0  0  0  0  0  0  0  0
  145.4861  139.0153  152.0678 H   0  0  0  0  0  0  0  0  0  0  0  0
  146.1911  137.8226  151.0154 H   0  0  0  0  0  0  0  0  0  0  0  0
  145.7667  137.1264  153.8776 H   0  0  0  0  0  0  0  0  0  0  0  0
  143.5412  137.9394  153.3747 H   0  0  0  0  0  0  0  0  0  0  0  0
  143.4495  136.1963  153.4176 H   0  0  0  0  0  0  0  0  0  0  0  0
  143.4695  137.0399  151.8695 H   0  0  0  0  0  0  0  0  0  0  0  0
  144.2709  134.8899  151.2976 H   0  0  0  0  0  0  0  0  0  0  0  0
  145.3197  135.9334  150.3696 H   0  0  0  0  0  0  0  0  0  0  0  0
  145.5803  133.6038  149.6354 H   0  0  0  0  0  0  0  0  0  0  0  0
  147.0801  134.2155  150.2942 H   0  0  0  0  0  0  0  0  0  0  0  0
  145.0603  132.4330  151.7454 H   0  0  0  0  0  0  0  0  0  0  0  0
  146.6489  131.9512  151.1908 H   0  0  0  0  0  0  0  0  0  0  0  0
  146.6422  132.4846  153.6285 H   0  0  0  0  0  0  0  0  0  0  0  0
  147.7349  133.5207  152.7444 H   0  0  0  0  0  0  0  0  0  0  0  0
  144.9123  134.2534  153.6428 H   0  0  0  0  0  0  0  0  0  0  0  0
  146.7276  134.0894  155.4249 H   0  0  0  0  0  0  0  0  0  0  0  0
  145.9784  135.6570  155.3300 H   0  0  0  0  0  0  0  0  0  0  0  0
  147.5776  135.3997  154.6178 H   0  0  0  0  0  0  0  0  0  0  0  0
  146.9103  135.7829  152.1852 H   0  0  0  0  0  0  0  0  0  0  0  0
  1  2  1  0  0  0  0
  1 21  1  0  0  0  0
  1 22  1  0  0  0  0
  1 23  1  0  0  0  0
  2 20  1  0  0  0  0
  2  3  2  0  0  0  0
  3  4  1  0  0  0  0
  3 24  1  0  0  0  0
  4  5  1  0  0  0  0
  4 19  2  0  0  0  0
  5  6  1  0  0  0  0
  5 25  1  0  0  0  0
  6  7  2  0  0  0  0
  6  8  1  0  0  0  0
  8  9  1  0  0  0  0
  8 26  1  0  0  0  0
  9 10  1  0  0  0  0
  9 27  1  0  0  0  0
  9 28  1  0  0  0  0
 10 11  1  0  0  0  0
 10 12  1  0  0  0  0
 10 29  1  0  0  0  0
 11 30  1  0  0  0  0
 11 31  1  0  0  0  0
 11 32  1  0  0  0  0
 12 17  1  0  0  0  0
 12 13  1  0  0  0  0
 12 45  1  0  0  0  0
 13 14  1  0  0  0  0
 13 33  1  0  0  0  0
 13 34  1  0  0  0  0
 14 15  1  0  0  0  0
 14 35  1  0  0  0  0
 14 36  1  0  0  0  0
 15 16  1  0  0  0  0
 15 37  1  0  0  0  0
 15 38  1  0  0  0  0
 16 17  1  0  0  0  0
 16 39  1  0  0  0  0
 16 40  1  0  0  0  0
 17 18  1  0  0  0  0
 17 41  1  0  0  0  0
 18 42  1  0  0  0  0
 18 43  1  0  0  0  0
 18 44  1  0  0  0  0
 19 20  1  0  0  0  0
M  CHG  1  12   1
M  END
> <s_m_source_file>
AV-unprocessed.smi

> <i_m_source_file_index>
1978

> <i_lp_mmshare_version>
43012

> <i_f3d_flags>
0

> <s_epik_input>
W0NIM11jMVtjSF1jKG5vMSlbTkhdQyg9TylbTkhdW0NIMl1bQ0BIXShbQ0gzXSlOMltDSDJdW0NIMl1bQ0gyXVtDSDJdW0NASF0yW0NIM10=

> <s_epik_cmdline>
J2VwaWtfcHl0aG9uJywgJy1waCcsICc3LjAnLCAnLXRuJywgJzgnLCAnLW1hJywgJzIwMCcsICctbWV0YWxfYmluZGluZycsICctaW1hZScsICc8aW5maWxlLm1hZT4nLCAnLW9tYWUnLCAnPG91dGZpbGUubWFlPic=

> <r_epik_Ionization_Penalty>
0.00265971

> <r_epik_Ionization_Penalty_Charging>
0.00262393

> <r_epik_Ionization_Penalty_Neutral>
3.57846e-05

> <r_epik_State_Penalty>
0.00182566

> <r_epik_Charging_Adjusted_Penalty>
0.00444959

> <i_epik_Tot_Q>
1

> <i_epik_Tot_abs_Q>
1

> <r_epik_Metal_State_Penalty>
0.0216344

> <b_epik_Metal_Only>
0

> <s_lp_Force_Field>
OPLS_2005

> <r_lp_Energy>
21.4618

> <b_lp_Chiralities_Consistent>
1

> <s_lp_Variant>
AV-unprocessed.smi:1978-4

> <Gold.Version>
5.8.1

> <Gold.Id.Protein>
6NUR|6NUR_protein|mol2

> <Gold.PLP.Fitness>
39.9841

> <Gold.PLP.PLP>
-30.4761

> <Gold.PLP.part.hbond>
-5.6587

> <Gold.PLP.part.metal>
0.0000

> <Gold.PLP.part.buried>
-1.4561

> <Gold.PLP.part.nonpolar>
-24.3101

> <Gold.PLP.part.repulsive>
0.3984

> <Gold.PLP.ligand.clash>
0.0000

> <Gold.PLP.ligand.torsion>
0.7993

> <Gold.PLP.Chemscore.Hbond>
3.6630

> <Gold.PLP.Chemscore.CHOScore>
0.0000

> <Gold.PLP.Chemscore.Metal>
0.0000

> <Gold.Chemscore.Hbonds>
donor molecule, donor type, donor heavy atom, donor atom, acceptor molecule, acceptor atom, score
      L1  H     5    25       P1  7957  0.07
      L1  H     8    26       P1  7948  0.69
      L1  H    12    45       P1  7948  1.69
      P1  H  7989  7998       L1    19  1.00

> <Gold.PLP.Chemscore.Internal.Correction>
0.1175

> <Gold.Rescore>
     Score         DG    S(hbond)    S(metal)    S(lipo)     H(rot)  DE(clash)    DE(int)     intcor
     14.45     -16.77       2.58        0.00      56.82       1.55       0.11       2.21       ----

> <Gold.Chemscore.Fitness>
14.4525

> <Gold.Chemscore.DG>
-16.7710

> <Gold.Chemscore.ZeroCoef>
-5.4800

> <Gold.Chemscore.Hbond>
2.5763

> <Gold.Chemscore.Metal>
0.0000

> <Gold.Chemscore.Lipo>
56.8159

> <Gold.Chemscore.Internal_Hbond>
0.0000

> <Gold.Chemscore.DEClash>
0.1075

> <Gold.Chemscore.DEInternal>
2.2110

> <Gold.Chemscore.Rot>
1.5474

> <Gold.Chemscore.Internal.Correction>
   9.000000E+99

> <Gold.Chemscore.Hbonds>
donor molecule, donor type, donor heavy atom, donor atom, acceptor molecule, acceptor atom, score
      L1  H     5    25       P1  7957  0.07
      L1  H     8    26       P1  7948  0.70
      L1  H    12    45       P1  7948  0.82
      P1  H  7989  7998       L1    19  0.63

> <Gold.Chemscore.Hbond.Weighted>
-8.6048

> <Gold.Chemscore.Metal.Weighted>
-0.0000

> <Gold.Chemscore.Lipo.Weighted>
-6.6475

> <Gold.Chemscore.Internal_Hbond.Weighted>
0.0000

> <Gold.Chemscore.DEClash.Weighted>
0.1075

> <Gold.Chemscore.DEInternal.Weighted>
2.2110

> <Gold.Chemscore.Rot.Weighted>
3.9612

> <Gold.Chemscore.Internal.Correction.Weighted>
   9.000000E+99

> <Gold.Protein.RotatedTorsions>
[ 6907 6896 6895 6894 ] final   50.23 input  -60.11 | X-H torsion
[ 7974 7965 7964 7962 ] final  130.80 input  175.53 | X-H torsion
[ 8008 7997 7996 7995 ] final  121.47 input   59.86 | X-H torsion
[ 10167 10162 10161 10158 ] final   26.23 input  -65.29 | X-H torsion
[ 10718 10713 10712 10709 ] final -110.84 input   66.30 | X-H torsion
[ 10763 10752 10751 10750 ] final -156.05 input  -60.55 | X-H torsion
[ 11005 11000 10999 10996 ] final   99.56 input  -57.11 | X-H torsion

> <Gold.Protein.ActiveResidues>
 VAL166  LYS551  ARG553  GLY616  TRP617  ASP618  TYR619  PRO620  LYS621  CYS622 
 ASP623  PHE694  ASN695  SER759  ASP760  ASP761  ALA762  ILE779  LEU786  VAL792 
 PHE793  MET794  SER795  GLU796  ALA797  LYS798  CYS799  TRP800  GLU811  SER814 

> <Gold.Protein.RotatedAtoms>
  152.2995  134.7627  160.0360 H   0  0  0  0  0  0  0  0  0  0  0  0  # atno 6907 bound_to 6896
  151.8145  133.3381  159.3573 H   0  0  0  0  0  0  0  0  0  0  0  0  # atno 6908 bound_to 6896
  150.7267  134.5562  159.5863 H   0  0  0  0  0  0  0  0  0  0  0  0  # atno 6909 bound_to 6896
  145.0140  139.4193  143.5230 H   0  0  0  0  0  0  0  0  0  0  0  0  # atno 7974 bound_to 7965
  156.2688  140.2807  156.1313 H   0  0  0  0  0  0  0  0  0  0  0  0  # atno 8008 bound_to 7997
  155.1051  140.0390  157.2725 H   0  0  0  0  0  0  0  0  0  0  0  0  # atno 8009 bound_to 7997
  154.6786  140.2603  155.6938 H   0  0  0  0  0  0  0  0  0  0  0  0  # atno 8010 bound_to 7997
  140.5040  144.0268  150.6344 H   0  0  0  0  0  0  0  0  0  0  0  0  # atno 10167 bound_to 10162
  156.0613  130.5836  150.8292 H   0  0  0  0  0  0  0  0  0  0  0  0  # atno 10718 bound_to 10713
  154.7742  135.3154  154.8127 H   0  0  0  0  0  0  0  0  0  0  0  0  # atno 10763 bound_to 10752
  153.8855  135.6830  153.4768 H   0  0  0  0  0  0  0  0  0  0  0  0  # atno 10764 bound_to 10752
  153.1362  135.4759  154.9361 H   0  0  0  0  0  0  0  0  0  0  0  0  # atno 10765 bound_to 10752
  139.8771  134.9101  156.4625 H   0  0  0  0  0  0  0  0  0  0  0  0  # atno 11005 bound_to 11000
  146.3475  139.9601  142.8718 LP  0  0  0  0  0  0  0  0  0  0  0  0  # atno 17320 bound_to 7965
  145.1984  140.9843  143.4170 LP  0  0  0  0  0  0  0  0  0  0  0  0  # atno 17321 bound_to 7965
  140.3572  143.2928  152.0423 LP  0  0  0  0  0  0  0  0  0  0  0  0  # atno 17342 bound_to 10162
  139.4879  144.6330  151.7032 LP  0  0  0  0  0  0  0  0  0  0  0  0  # atno 17343 bound_to 10162
  157.5624  131.0946  150.9540 LP  0  0  0  0  0  0  0  0  0  0  0  0  # atno 17370 bound_to 10713
  156.9775  130.5514  149.5294 LP  0  0  0  0  0  0  0  0  0  0  0  0  # atno 17371 bound_to 10713
  140.8854  133.7887  155.9512 LP  0  0  0  0  0  0  0  0  0  0  0  0  # atno 17394 bound_to 11000
  140.8810  134.2611  157.5144 LP  0  0  0  0  0  0  0  0  0  0  0  0  # atno 17395 bound_to 11000

$$$$
