AV-unprocessed.smi:2623|AV-procd|sdf|10229|dock2
  -GOLD-   2272014233D 1   1.00000     0.00000
 Structure written by MMmdl.
 40 42  0  0  0  0  0  0  0  0  1 V2000
  154.9357  138.5193  159.2035 O   0  0  0  0  0  0  0  0  0  0  0  0
  153.5945  138.6432  159.6228 C   0  0  0  0  0  0  0  0  0  0  0  0
  153.0597  140.0345  159.4656 C   0  0  0  0  0  0  0  0  0  0  0  0
  153.6158  141.0705  160.0949 N   0  0  0  0  0  0  0  0  0  0  0  0
  152.8486  142.1356  159.6668 C   0  0  0  0  0  0  0  0  0  0  0  0
  152.9366  143.5123  159.9734 C   0  0  0  0  0  0  0  0  0  0  0  0
  152.0320  144.4304  159.4011 C   0  0  0  0  0  0  0  0  0  0  0  0
  151.0298  143.9864  158.5145 C   0  0  0  0  0  0  0  0  0  0  0  0
  150.9246  142.6187  158.1960 C   0  0  0  0  0  0  0  0  0  0  0  0
  151.8274  141.7055  158.7733 C   0  0  0  0  0  0  0  0  0  0  0  0
  151.9912  140.3265  158.6789 N   0  0  0  0  0  0  0  0  0  0  0  0
  151.1745  139.4261  157.8735 C   0  0  0  0  0  0  0  0  0  0  0  0
  151.8933  138.9528  156.5933 C   0  0  2  0  0  0  0  0  0  0  0  0
  152.8775  139.8937  156.2155 O   0  0  0  0  0  0  0  0  0  0  0  0
  150.9262  138.7625  155.4162 C   0  0  0  0  0  0  0  0  0  0  0  0
  150.4016  140.0303  155.0439 O   0  0  0  0  0  0  0  0  0  0  0  0
  149.0492  140.1315  154.7978 C   0  0  0  0  0  0  0  0  0  0  0  0
  148.4559  141.3952  154.9982 C   0  0  0  0  0  0  0  0  0  0  0  0
  147.0796  141.5895  154.7727 C   0  0  0  0  0  0  0  0  0  0  0  0
  146.2793  140.5161  154.3406 C   0  0  0  0  0  0  0  0  0  0  0  0
  146.8579  139.2498  154.1360 C   0  0  0  0  0  0  0  0  0  0  0  0
  148.2345  139.0551  154.3630 C   0  0  0  0  0  0  0  0  0  0  0  0
  154.9435  138.2427  158.3000 H   0  0  0  0  0  0  0  0  0  0  0  0
  152.9859  137.9556  159.0342 H   0  0  0  0  0  0  0  0  0  0  0  0
  153.5007  138.3246  160.6609 H   0  0  0  0  0  0  0  0  0  0  0  0
  153.7029  143.8627  160.6491 H   0  0  0  0  0  0  0  0  0  0  0  0
  152.1086  145.4805  159.6423 H   0  0  0  0  0  0  0  0  0  0  0  0
  150.3420  144.6962  158.0786 H   0  0  0  0  0  0  0  0  0  0  0  0
  150.1586  142.2766  157.5161 H   0  0  0  0  0  0  0  0  0  0  0  0
  150.9191  138.5673  158.4954 H   0  0  0  0  0  0  0  0  0  0  0  0
  150.2295  139.9038  157.6185 H   0  0  0  0  0  0  0  0  0  0  0  0
  152.4044  138.0086  156.7830 H   0  0  0  0  0  0  0  0  0  0  0  0
  152.6273  140.2737  155.3869 H   0  0  0  0  0  0  0  0  0  0  0  0
  151.4448  138.2946  154.5775 H   0  0  0  0  0  0  0  0  0  0  0  0
  150.1068  138.1070  155.7166 H   0  0  0  0  0  0  0  0  0  0  0  0
  149.0630  142.2249  155.3294 H   0  0  0  0  0  0  0  0  0  0  0  0
  146.6382  142.5625  154.9315 H   0  0  0  0  0  0  0  0  0  0  0  0
  145.2234  140.6636  154.1674 H   0  0  0  0  0  0  0  0  0  0  0  0
  146.2450  138.4245  153.8046 H   0  0  0  0  0  0  0  0  0  0  0  0
  148.6411  138.0692  154.1970 H   0  0  0  0  0  0  0  0  0  0  0  0
  1  2  1  0  0  0  0
  1 23  1  0  0  0  0
  2  3  1  0  0  0  0
  2 24  1  0  0  0  0
  2 25  1  0  0  0  0
  3 11  1  0  0  0  0
  3  4  2  0  0  0  0
  4  5  1  0  0  0  0
  5 10  2  0  0  0  0
  5  6  1  0  0  0  0
  6  7  2  0  0  0  0
  6 26  1  0  0  0  0
  7  8  1  0  0  0  0
  7 27  1  0  0  0  0
  8  9  2  0  0  0  0
  8 28  1  0  0  0  0
  9 10  1  0  0  0  0
  9 29  1  0  0  0  0
 10 11  1  0  0  0  0
 11 12  1  0  0  0  0
 12 13  1  0  0  0  0
 12 30  1  0  0  0  0
 12 31  1  0  0  0  0
 13 14  1  0  0  0  0
 13 15  1  0  0  0  0
 13 32  1  0  0  0  0
 14 33  1  0  0  0  0
 15 16  1  0  0  0  0
 15 34  1  0  0  0  0
 15 35  1  0  0  0  0
 16 17  1  0  0  0  0
 17 22  1  0  0  0  0
 17 18  2  0  0  0  0
 18 19  1  0  0  0  0
 18 36  1  0  0  0  0
 19 20  2  0  0  0  0
 19 37  1  0  0  0  0
 20 21  1  0  0  0  0
 20 38  1  0  0  0  0
 21 22  2  0  0  0  0
 21 39  1  0  0  0  0
 22 40  1  0  0  0  0
M  END
> <s_m_source_file>
AV-unprocessed.smi

> <i_m_source_file_index>
2623

> <i_lp_mmshare_version>
43012

> <i_f3d_flags>
0

> <s_epik_input>
W2NIXTFbY0hdW2NIXVtjSF1jKGMxMiluKGMobjIpW0NIMl1bT0hdKVtDSDJdW0NASF0oW09IXSlbQ0gyXU9jM1tjSF1bY0hdW2NIXVtjSF1bY0hdMw==

> <s_epik_cmdline>
J2VwaWtfcHl0aG9uJywgJy1waCcsICc3LjAnLCAnLXRuJywgJzgnLCAnLW1hJywgJzIwMCcsICctbWV0YWxfYmluZGluZycsICctaW1hZScsICc8aW5maWxlLm1hZT4nLCAnLW9tYWUnLCAnPG91dGZpbGUubWFlPic=

> <r_lp_tautomer_probability>
1

> <r_epik_Ionization_Penalty>
0.0583159

> <r_epik_Ionization_Penalty_Charging>
0

> <r_epik_Ionization_Penalty_Neutral>
0.0583159

> <r_epik_State_Penalty>
0.0503525

> <r_epik_Charging_Adjusted_Penalty>
0.0503525

> <i_epik_Tot_Q>
0

> <i_epik_Tot_abs_Q>
0

> <r_epik_Metal_State_Penalty>
5.25517e-05

> <b_epik_Metal_Only>
0

> <s_lp_Force_Field>
OPLS_2005

> <r_lp_Energy>
14.6276

> <b_lp_Chiralities_Consistent>
1

> <s_lp_Variant>
AV-unprocessed.smi:2623-1

> <Gold.Version>
5.8.1

> <Gold.Id.Protein>
6NUR|6NUR_protein|mol2

> <Gold.PLP.Fitness>
50.8765

> <Gold.PLP.PLP>
-47.4325

> <Gold.PLP.part.hbond>
-1.8582

> <Gold.PLP.part.metal>
0.0000

> <Gold.PLP.part.buried>
-4.1758

> <Gold.PLP.part.nonpolar>
-41.7190

> <Gold.PLP.part.repulsive>
0.0632

> <Gold.PLP.ligand.clash>
0.0000

> <Gold.PLP.ligand.torsion>
1.3431

> <Gold.PLP.Chemscore.Hbond>
1.9913

> <Gold.PLP.Chemscore.CHOScore>
0.0000

> <Gold.PLP.Chemscore.Metal>
0.0000

> <Gold.Chemscore.Hbonds>
donor molecule, donor type, donor heavy atom, donor atom, acceptor molecule, acceptor atom, score
      P1  H  7989  7998       L1    16  0.71
      P1  H  7997  8010       L1    14  1.00

> <Gold.PLP.Chemscore.Internal.Correction>
0.1564

> <Gold.Rescore>
     Score         DG    S(hbond)    S(metal)    S(lipo)     H(rot)  DE(clash)    DE(int)     intcor
     15.68     -17.34       1.20        0.00     133.43       3.04       0.46       1.20       ----

> <Gold.Chemscore.Fitness>
15.6812

> <Gold.Chemscore.DG>
-17.3363

> <Gold.Chemscore.ZeroCoef>
-5.4800

> <Gold.Chemscore.Hbond>
1.2026

> <Gold.Chemscore.Metal>
0.0000

> <Gold.Chemscore.Lipo>
133.4302

> <Gold.Chemscore.Internal_Hbond>
0.0000

> <Gold.Chemscore.DEClash>
0.4581

> <Gold.Chemscore.DEInternal>
1.1970

> <Gold.Chemscore.Rot>
3.0358

> <Gold.Chemscore.Internal.Correction>
   9.000000E+99

> <Gold.Chemscore.Hbonds>
donor molecule, donor type, donor heavy atom, donor atom, acceptor molecule, acceptor atom, score
      P1  H  7989  7998       L1    16  0.44
      P1  H  7997  8010       L1    14  0.79

> <Gold.Chemscore.Hbond.Weighted>
-4.0166

> <Gold.Chemscore.Metal.Weighted>
-0.0000

> <Gold.Chemscore.Lipo.Weighted>
-15.6113

> <Gold.Chemscore.Internal_Hbond.Weighted>
0.0000

> <Gold.Chemscore.DEClash.Weighted>
0.4581

> <Gold.Chemscore.DEInternal.Weighted>
1.1970

> <Gold.Chemscore.Rot.Weighted>
7.7716

> <Gold.Chemscore.Internal.Correction.Weighted>
   9.000000E+99

> <Gold.Protein.RotatedTorsions>
[ 6907 6896 6895 6894 ] final  179.27 input  -60.11 | X-H torsion
[ 7974 7965 7964 7962 ] final  -38.02 input  175.53 | X-H torsion
[ 8008 7997 7996 7995 ] final   61.85 input   59.86 | X-H torsion
[ 10167 10162 10161 10158 ] final -148.61 input  -65.29 | X-H torsion
[ 10718 10713 10712 10709 ] final  -90.21 input   66.30 | X-H torsion
[ 10763 10752 10751 10750 ] final  -23.81 input  -60.55 | X-H torsion
[ 11005 11000 10999 10996 ] final -166.32 input  -57.11 | X-H torsion

> <Gold.Protein.ActiveResidues>
 VAL166  LYS551  ARG553  GLY616  TRP617  ASP618  TYR619  PRO620  LYS621  CYS622 
 ASP623  PHE694  ASN695  SER759  ASP760  ASP761  ALA762  ILE779  LEU786  VAL792 
 PHE793  MET794  SER795  GLU796  ALA797  LYS798  CYS799  TRP800  GLU811  SER814 

> <Gold.Protein.RotatedAtoms>
  151.6744  133.3313  159.3203 H   0  0  0  0  0  0  0  0  0  0  0  0  # atno 6907 bound_to 6896
  150.7852  134.6835  159.6466 H   0  0  0  0  0  0  0  0  0  0  0  0  # atno 6908 bound_to 6896
  152.3920  134.6429  160.0156 H   0  0  0  0  0  0  0  0  0  0  0  0  # atno 6909 bound_to 6896
  146.0524  140.6463  142.9036 H   0  0  0  0  0  0  0  0  0  0  0  0  # atno 7974 bound_to 7965
  155.6050  140.3494  155.4605 H   0  0  0  0  0  0  0  0  0  0  0  0  # atno 8008 bound_to 7997
  156.0199  140.1251  157.0393 H   0  0  0  0  0  0  0  0  0  0  0  0  # atno 8009 bound_to 7997
  154.4311  140.1064  156.5934 H   0  0  0  0  0  0  0  0  0  0  0  0  # atno 8010 bound_to 7997
  139.7516  143.8509  152.2588 H   0  0  0  0  0  0  0  0  0  0  0  0  # atno 10167 bound_to 10162
  155.9987  130.4901  150.5288 H   0  0  0  0  0  0  0  0  0  0  0  0  # atno 10718 bound_to 10713
  153.6738  135.6970  153.5139 H   0  0  0  0  0  0  0  0  0  0  0  0  # atno 10763 bound_to 10752
  153.2538  135.4266  155.0823 H   0  0  0  0  0  0  0  0  0  0  0  0  # atno 10764 bound_to 10752
  154.8419  135.3538  154.6282 H   0  0  0  0  0  0  0  0  0  0  0  0  # atno 10765 bound_to 10752
  140.5658  134.5287  157.5152 H   0  0  0  0  0  0  0  0  0  0  0  0  # atno 11005 bound_to 11000
  144.7129  140.4106  143.7066 LP  0  0  0  0  0  0  0  0  0  0  0  0  # atno 17320 bound_to 7965
  145.6702  139.1598  143.2759 LP  0  0  0  0  0  0  0  0  0  0  0  0  # atno 17321 bound_to 7965
  139.8489  144.7174  150.9238 LP  0  0  0  0  0  0  0  0  0  0  0  0  # atno 17342 bound_to 10162
  140.7798  143.3916  151.1300 LP  0  0  0  0  0  0  0  0  0  0  0  0  # atno 17343 bound_to 10162
  157.3240  131.0687  151.1911 LP  0  0  0  0  0  0  0  0  0  0  0  0  # atno 17370 bound_to 10713
  157.2814  130.6752  149.6068 LP  0  0  0  0  0  0  0  0  0  0  0  0  # atno 17371 bound_to 10713
  139.9385  134.7830  156.0739 LP  0  0  0  0  0  0  0  0  0  0  0  0  # atno 17394 bound_to 11000
  141.1086  133.6651  156.2925 LP  0  0  0  0  0  0  0  0  0  0  0  0  # atno 17395 bound_to 11000

$$$$
