AV-unprocessed.smi:155|AV-procd|sdf|1271|dock10
  -GOLD-   2262018533D 1   1.00000     0.00000
 Structure written by MMmdl.
 63 66  0  0  0  0  0  0  0  0  2 V2000
  144.4901  134.0669  150.9177 C   0  0  0  0  0  0  0  0  0  0  0  0
  144.3944  132.6134  150.9994 N   0  0  0  0  0  0  0  0  0  0  0  0
  144.0453  132.1033  149.6801 C   0  0  0  0  0  0  0  0  0  0  0  0
  145.6613  132.0203  151.4234 C   0  0  0  0  0  0  0  0  0  0  0  0
  145.6108  130.4729  151.4463 C   0  0  0  0  0  0  0  0  0  0  0  0
  146.8904  129.8330  151.8504 N   0  3  2  0  0  0  0  0  0  0  0  0
  146.8728  128.3546  151.7187 C   0  0  0  0  0  0  0  0  0  0  0  0
  148.2725  127.7241  151.8089 C   0  0  0  0  0  0  0  0  0  0  0  0
  148.8338  127.6773  153.2395 C   0  0  0  0  0  0  0  0  0  0  0  0
  149.4339  128.9381  153.6822 N   0  0  0  0  0  0  0  0  0  0  0  0
  150.6834  128.8858  154.2164 C   0  0  0  0  0  0  0  0  0  0  0  0
  151.3120  127.6830  154.3098 N   0  0  0  0  0  0  0  0  0  0  0  0
  152.5356  127.5959  154.8393 C   0  0  0  0  0  0  0  0  0  0  0  0
  153.3046  128.5707  155.3264 N   0  0  0  0  0  0  0  0  0  0  0  0
  152.6864  129.7817  155.2279 C   0  0  0  0  0  0  0  0  0  0  0  0
  151.3909  130.0291  154.6913 C   0  0  0  0  0  0  0  0  0  0  0  0
  151.1129  131.3911  154.7476 N   0  0  0  0  0  0  0  0  0  0  0  0
  152.1745  131.9139  155.2987 C   0  0  0  0  0  0  0  0  0  0  0  0
  153.1670  131.0171  155.6203 N   0  0  0  0  0  0  0  0  0  0  0  0
  154.4461  131.3126  156.2388 C   0  0  0  0  0  0  0  0  0  0  0  0
  154.2890  132.1421  157.5306 C   0  0  2  0  0  0  0  0  0  0  0  0
  153.9303  133.4746  157.2231 O   0  0  0  0  0  0  0  0  0  0  0  0
  155.5412  132.1573  158.4304 C   0  0  1  0  0  0  0  0  0  0  0  0
  155.4059  133.0423  159.6718 C   0  0  0  0  0  0  0  0  0  0  0  0
  156.3977  132.4031  160.6157 C   0  0  0  0  0  0  0  0  0  0  0  0
  156.1955  130.9228  160.3119 C   0  0  0  0  0  0  0  0  0  0  0  0
  155.8449  130.8556  158.9324 O   0  0  0  0  0  0  0  0  0  0  0  0
  148.9310  130.2368  153.2292 C   0  0  0  0  0  0  0  0  0  0  0  0
  147.3991  130.3172  153.1584 C   0  0  0  0  0  0  0  0  0  0  0  0
  144.7018  134.5069  151.8911 H   0  0  0  0  0  0  0  0  0  0  0  0
  143.5468  134.4908  150.5713 H   0  0  0  0  0  0  0  0  0  0  0  0
  145.2745  134.3760  150.2253 H   0  0  0  0  0  0  0  0  0  0  0  0
  143.9318  131.0187  149.7051 H   0  0  0  0  0  0  0  0  0  0  0  0
  144.8101  132.3501  148.9423 H   0  0  0  0  0  0  0  0  0  0  0  0
  143.0971  132.5242  149.3438 H   0  0  0  0  0  0  0  0  0  0  0  0
  146.4503  132.3182  150.7313 H   0  0  0  0  0  0  0  0  0  0  0  0
  145.9430  132.4340  152.3924 H   0  0  0  0  0  0  0  0  0  0  0  0
  144.8203  130.1057  152.1018 H   0  0  0  0  0  0  0  0  0  0  0  0
  145.3367  130.1109  150.4547 H   0  0  0  0  0  0  0  0  0  0  0  0
  146.2076  127.9095  152.4596 H   0  0  0  0  0  0  0  0  0  0  0  0
  146.4583  128.1036  150.7420 H   0  0  0  0  0  0  0  0  0  0  0  0
  148.1867  126.6948  151.4590 H   0  0  0  0  0  0  0  0  0  0  0  0
  148.9717  128.2090  151.1261 H   0  0  0  0  0  0  0  0  0  0  0  0
  148.0615  127.3750  153.9475 H   0  0  0  0  0  0  0  0  0  0  0  0
  149.5879  126.8897  153.2580 H   0  0  0  0  0  0  0  0  0  0  0  0
  152.9583  126.6027  154.8810 H   0  0  0  0  0  0  0  0  0  0  0  0
  152.2626  132.9738  155.4887 H   0  0  0  0  0  0  0  0  0  0  0  0
  154.9440  130.3658  156.4478 H   0  0  0  0  0  0  0  0  0  0  0  0
  155.0698  131.8381  155.5145 H   0  0  0  0  0  0  0  0  0  0  0  0
  153.4606  131.7366  158.1136 H   0  0  0  0  0  0  0  0  0  0  0  0
  154.6100  133.8488  156.6836 H   0  0  0  0  0  0  0  0  0  0  0  0
  156.4075  132.5079  157.8659 H   0  0  0  0  0  0  0  0  0  0  0  0
  155.6238  134.0914  159.4701 H   0  0  0  0  0  0  0  0  0  0  0  0
  154.4025  132.9806  160.0938 H   0  0  0  0  0  0  0  0  0  0  0  0
  157.4129  132.7071  160.3564 H   0  0  0  0  0  0  0  0  0  0  0  0
  156.2202  132.6535  161.6618 H   0  0  0  0  0  0  0  0  0  0  0  0
  157.0815  130.3261  160.5297 H   0  0  0  0  0  0  0  0  0  0  0  0
  155.3663  130.5247  160.8983 H   0  0  0  0  0  0  0  0  0  0  0  0
  149.2645  130.9923  153.9424 H   0  0  0  0  0  0  0  0  0  0  0  0
  149.3784  130.5006  152.2699 H   0  0  0  0  0  0  0  0  0  0  0  0
  147.1299  131.3696  153.2582 H   0  0  0  0  0  0  0  0  0  0  0  0
  146.9247  129.8019  153.9952 H   0  0  0  0  0  0  0  0  0  0  0  0
  147.5597  130.1564  151.1665 H   0  0  0  0  0  0  0  0  0  0  0  0
  1  2  1  0  0  0  0
  1 30  1  0  0  0  0
  1 31  1  0  0  0  0
  1 32  1  0  0  0  0
  2  3  1  0  0  0  0
  2  4  1  0  0  0  0
  3 33  1  0  0  0  0
  3 34  1  0  0  0  0
  3 35  1  0  0  0  0
  4  5  1  0  0  0  0
  4 36  1  0  0  0  0
  4 37  1  0  0  0  0
  5  6  1  0  0  0  0
  5 38  1  0  0  0  0
  5 39  1  0  0  0  0
  6 29  1  0  0  0  0
  6  7  1  0  0  0  0
  6 63  1  0  0  0  0
  7  8  1  0  0  0  0
  7 40  1  0  0  0  0
  7 41  1  0  0  0  0
  8  9  1  0  0  0  0
  8 42  1  0  0  0  0
  8 43  1  0  0  0  0
  9 10  1  0  0  0  0
  9 44  1  0  0  0  0
  9 45  1  0  0  0  0
 10 11  1  0  0  0  0
 10 28  1  0  0  0  0
 11 16  1  0  0  0  0
 11 12  2  0  0  0  0
 12 13  1  0  0  0  0
 13 14  2  0  0  0  0
 13 46  1  0  0  0  0
 14 15  1  0  0  0  0
 15 19  1  0  0  0  0
 15 16  2  0  0  0  0
 16 17  1  0  0  0  0
 17 18  2  0  0  0  0
 18 19  1  0  0  0  0
 18 47  1  0  0  0  0
 19 20  1  0  0  0  0
 20 21  1  0  0  0  0
 20 48  1  0  0  0  0
 20 49  1  0  0  0  0
 21 22  1  0  0  0  0
 21 23  1  0  0  0  0
 21 50  1  0  0  0  0
 22 51  1  0  0  0  0
 23 27  1  0  0  0  0
 23 24  1  0  0  0  0
 23 52  1  0  0  0  0
 24 25  1  0  0  0  0
 24 53  1  0  0  0  0
 24 54  1  0  0  0  0
 25 26  1  0  0  0  0
 25 55  1  0  0  0  0
 25 56  1  0  0  0  0
 26 27  1  0  0  0  0
 26 57  1  0  0  0  0
 26 58  1  0  0  0  0
 28 29  1  0  0  0  0
 28 59  1  0  0  0  0
 28 60  1  0  0  0  0
 29 61  1  0  0  0  0
 29 62  1  0  0  0  0
M  CHG  1   6   1
M  END
> <s_m_source_file>
AV-unprocessed.smi

> <i_m_source_file_index>
155

> <i_lp_mmshare_version>
43012

> <i_f3d_flags>
0

> <s_epik_input>
W0NIM11OKFtDSDNdKVtDSDJdW0NIMl1OMVtDSDJdW0NIMl1bQ0gyXU4oW0NIMl1bQ0gyXTEpYyhuW2NIXW4yKWMoYzIzKW5bY0hdbjNbQ0gyXVtDQEhdKFtPSF0pW0NAQEhdNFtDSDJdW0NIMl1bQ0gyXU80

> <s_epik_cmdline>
J2VwaWtfcHl0aG9uJywgJy1waCcsICc3LjAnLCAnLXRuJywgJzgnLCAnLW1hJywgJzIwMCcsICctbWV0YWxfYmluZGluZycsICctaW1hZScsICc8aW5maWxlLm1hZT4nLCAnLW9tYWUnLCAnPG91dGZpbGUubWFlPic=

> <r_epik_Ionization_Penalty>
0.0619615

> <r_epik_Ionization_Penalty_Charging>
0.0161638

> <r_epik_Ionization_Penalty_Neutral>
0.0457976

> <r_epik_State_Penalty>
0.403408

> <r_epik_Charging_Adjusted_Penalty>
0.419572

> <i_epik_Tot_Q>
1

> <i_epik_Tot_abs_Q>
1

> <r_epik_Metal_State_Penalty>
0.404222

> <b_epik_Metal_Only>
0

> <s_lp_Force_Field>
OPLS_2005

> <r_lp_Energy>
57.0558

> <b_lp_Chiralities_Consistent>
1

> <s_lp_Variant>
AV-unprocessed.smi:155-5

> <Gold.Version>
5.8.1

> <Gold.Id.Protein>
6NUR|6NUR_protein|mol2

> <Gold.PLP.Fitness>
47.3369

> <Gold.PLP.PLP>
-41.6145

> <Gold.PLP.part.hbond>
-2.0000

> <Gold.PLP.part.metal>
0.0000

> <Gold.PLP.part.buried>
-6.0315

> <Gold.PLP.part.nonpolar>
-35.1580

> <Gold.PLP.part.repulsive>
2.2959

> <Gold.PLP.ligand.clash>
0.0000

> <Gold.PLP.ligand.torsion>
0.2954

> <Gold.PLP.Chemscore.Hbond>
2.0000

> <Gold.PLP.Chemscore.CHOScore>
0.0000

> <Gold.PLP.Chemscore.Metal>
0.0000

> <Gold.Chemscore.Hbonds>
donor molecule, donor type, donor heavy atom, donor atom, acceptor molecule, acceptor atom, score
      L1  H     6    63       P1 10747  1.00

> <Gold.PLP.Chemscore.Internal.Correction>
0.3131

> <Gold.Rescore>
     Score         DG    S(hbond)    S(metal)    S(lipo)     H(rot)  DE(clash)    DE(int)     intcor
     13.34     -14.88       1.99        0.00      81.15       2.63       0.01       1.53       ----

> <Gold.Chemscore.Fitness>
13.3398

> <Gold.Chemscore.DG>
-14.8804

> <Gold.Chemscore.ZeroCoef>
-5.4800

> <Gold.Chemscore.Hbond>
1.9895

> <Gold.Chemscore.Metal>
0.0000

> <Gold.Chemscore.Lipo>
81.1482

> <Gold.Chemscore.Internal_Hbond>
0.0000

> <Gold.Chemscore.DEClash>
0.0106

> <Gold.Chemscore.DEInternal>
1.5300

> <Gold.Chemscore.Rot>
2.6324

> <Gold.Chemscore.Internal.Correction>
   9.000000E+99

> <Gold.Chemscore.Hbonds>
donor molecule, donor type, donor heavy atom, donor atom, acceptor molecule, acceptor atom, score
      L1  H     6    63       P1 10747  1.00

> <Gold.Chemscore.Hbond.Weighted>
-6.6450

> <Gold.Chemscore.Metal.Weighted>
-0.0000

> <Gold.Chemscore.Lipo.Weighted>
-9.4943

> <Gold.Chemscore.Internal_Hbond.Weighted>
0.0000

> <Gold.Chemscore.DEClash.Weighted>
0.0106

> <Gold.Chemscore.DEInternal.Weighted>
1.5300

> <Gold.Chemscore.Rot.Weighted>
6.7389

> <Gold.Chemscore.Internal.Correction.Weighted>
   9.000000E+99

> <Gold.Protein.RotatedTorsions>
[ 6907 6896 6895 6894 ] final  145.17 input  -60.11 | X-H torsion
[ 7974 7965 7964 7962 ] final  -25.86 input  175.53 | X-H torsion
[ 8008 7997 7996 7995 ] final  123.96 input   59.86 | X-H torsion
[ 10167 10162 10161 10158 ] final   37.47 input  -65.29 | X-H torsion
[ 10718 10713 10712 10709 ] final  -22.69 input   66.30 | X-H torsion
[ 10763 10752 10751 10750 ] final  148.80 input  -60.55 | X-H torsion
[ 11005 11000 10999 10996 ] final -128.85 input  -57.11 | X-H torsion

> <Gold.Protein.ActiveResidues>
 VAL166  LYS551  ARG553  GLY616  TRP617  ASP618  TYR619  PRO620  LYS621  CYS622 
 ASP623  PHE694  ASN695  SER759  ASP760  ASP761  ALA762  ILE779  LEU786  VAL792 
 PHE793  MET794  SER795  GLU796  ALA797  LYS798  CYS799  TRP800  GLU811  SER814 

> <Gold.Protein.RotatedAtoms>
  152.1843  133.4729  159.4974 H   0  0  0  0  0  0  0  0  0  0  0  0  # atno 6907 bound_to 6896
  150.6940  134.1793  159.4251 H   0  0  0  0  0  0  0  0  0  0  0  0  # atno 6908 bound_to 6896
  151.9705  135.0078  160.0603 H   0  0  0  0  0  0  0  0  0  0  0  0  # atno 6909 bound_to 6896
  146.1463  140.4942  142.8630 H   0  0  0  0  0  0  0  0  0  0  0  0  # atno 7974 bound_to 7965
  156.2785  140.2750  156.1712 H   0  0  0  0  0  0  0  0  0  0  0  0  # atno 8008 bound_to 7997
  155.0653  140.0387  157.2608 H   0  0  0  0  0  0  0  0  0  0  0  0  # atno 8009 bound_to 7997
  154.7084  140.2663  155.6658 H   0  0  0  0  0  0  0  0  0  0  0  0  # atno 8010 bound_to 7997
  140.4029  144.1699  150.6134 H   0  0  0  0  0  0  0  0  0  0  0  0  # atno 10167 bound_to 10162
  156.5012  130.4588  149.6700 H   0  0  0  0  0  0  0  0  0  0  0  0  # atno 10718 bound_to 10713
  154.0606  135.2874  155.3325 H   0  0  0  0  0  0  0  0  0  0  0  0  # atno 10763 bound_to 10752
  154.6810  135.5263  153.8267 H   0  0  0  0  0  0  0  0  0  0  0  0  # atno 10764 bound_to 10752
  153.0524  135.6581  154.0795 H   0  0  0  0  0  0  0  0  0  0  0  0  # atno 10765 bound_to 10752
  140.9481  134.1102  157.4088 H   0  0  0  0  0  0  0  0  0  0  0  0  # atno 11005 bound_to 11000
  144.7851  140.5919  143.6579 LP  0  0  0  0  0  0  0  0  0  0  0  0  # atno 17320 bound_to 7965
  145.4928  139.1487  143.3700 LP  0  0  0  0  0  0  0  0  0  0  0  0  # atno 17321 bound_to 7965
  140.4720  143.2409  151.9075 LP  0  0  0  0  0  0  0  0  0  0  0  0  # atno 17342 bound_to 10162
  139.4784  144.5359  151.8599 LP  0  0  0  0  0  0  0  0  0  0  0  0  # atno 17343 bound_to 10162
  156.3331  130.7342  151.2275 LP  0  0  0  0  0  0  0  0  0  0  0  0  # atno 17370 bound_to 10713
  157.7462  131.0424  150.4694 LP  0  0  0  0  0  0  0  0  0  0  0  0  # atno 17371 bound_to 10713
  139.8839  135.0057  156.6335 LP  0  0  0  0  0  0  0  0  0  0  0  0  # atno 17394 bound_to 11000
  140.7640  133.8793  155.8440 LP  0  0  0  0  0  0  0  0  0  0  0  0  # atno 17395 bound_to 11000

$$$$
