AV-unprocessed.smi:2571|AV-procd|sdf|10108|dock7
  -GOLD-   2272014123D 1   1.00000     0.00000
 Structure written by MMmdl.
 38 40  0  0  0  0  0  0  0  0  1 V2000
  143.8709  132.1887  151.1680 C   0  0  0  0  0  0  0  0  0  0  0  0
  144.8787  133.0508  151.6763 O   0  0  0  0  0  0  0  0  0  0  0  0
  144.5214  134.3391  152.0120 C   0  0  0  0  0  0  0  0  0  0  0  0
  143.1968  134.5436  152.4487 C   0  0  0  0  0  0  0  0  0  0  0  0
  142.7490  135.8271  152.8137 C   0  0  0  0  0  0  0  0  0  0  0  0
  143.6252  136.9254  152.7435 C   0  0  0  0  0  0  0  0  0  0  0  0
  144.9527  136.7430  152.3050 C   0  0  0  0  0  0  0  0  0  0  0  0
  145.8996  137.9303  152.2312 C   0  0  2  0  0  0  0  0  0  0  0  0
  146.5050  138.0438  150.9573 O   0  0  0  0  0  0  0  0  0  0  0  0
  146.9771  137.8578  153.3325 C   0  0  0  0  0  0  0  0  0  0  0  0
  147.4762  139.1692  153.7169 N   0  0  0  0  0  0  0  0  0  0  0  0
  146.6761  140.2575  153.5772 N   0  0  0  0  0  0  0  0  0  0  0  0
  147.3991  141.2947  153.9954 C   0  0  0  0  0  0  0  0  0  0  0  0
  148.6988  140.9026  154.4184 C   0  0  0  0  0  0  0  0  0  0  0  0
  149.8684  141.5974  154.9477 C   0  0  0  0  0  0  0  0  0  0  0  0
  150.9212  140.8969  155.2329 N   0  0  0  0  0  0  0  0  0  0  0  0
  150.9464  139.5107  155.0411 N   0  0  0  0  0  0  0  0  0  0  0  0
  152.2044  138.8651  155.4085 C   0  0  0  0  0  0  0  0  0  0  0  0
  149.9094  138.7671  154.5503 C   0  0  0  0  0  0  0  0  0  0  0  0
  149.9540  137.5482  154.3843 O   0  0  0  0  0  0  0  0  0  0  0  0
  148.6992  139.5605  154.2252 C   0  0  0  0  0  0  0  0  0  0  0  0
  145.3975  135.4519  151.9438 C   0  0  0  0  0  0  0  0  0  0  0  0
  144.3078  131.2145  150.9491 H   0  0  0  0  0  0  0  0  0  0  0  0
  143.4460  132.5750  150.2406 H   0  0  0  0  0  0  0  0  0  0  0  0
  143.0726  132.0357  151.8954 H   0  0  0  0  0  0  0  0  0  0  0  0
  142.5165  133.7064  152.5060 H   0  0  0  0  0  0  0  0  0  0  0  0
  141.7319  135.9686  153.1480 H   0  0  0  0  0  0  0  0  0  0  0  0
  143.2736  137.9066  153.0272 H   0  0  0  0  0  0  0  0  0  0  0  0
  145.3185  138.8419  152.3771 H   0  0  0  0  0  0  0  0  0  0  0  0
  145.8242  138.1608  150.3126 H   0  0  0  0  0  0  0  0  0  0  0  0
  146.5649  137.3762  154.2206 H   0  0  0  0  0  0  0  0  0  0  0  0
  147.8146  137.2359  153.0179 H   0  0  0  0  0  0  0  0  0  0  0  0
  146.9617  142.2819  153.9758 H   0  0  0  0  0  0  0  0  0  0  0  0
  149.8515  142.6770  155.0969 H   0  0  0  0  0  0  0  0  0  0  0  0
  152.0390  138.1112  156.1794 H   0  0  0  0  0  0  0  0  0  0  0  0
  152.9325  139.5794  155.7966 H   0  0  0  0  0  0  0  0  0  0  0  0
  152.6521  138.3762  154.5422 H   0  0  0  0  0  0  0  0  0  0  0  0
  146.4202  135.3379  151.6170 H   0  0  0  0  0  0  0  0  0  0  0  0
  1  2  1  0  0  0  0
  1 23  1  0  0  0  0
  1 24  1  0  0  0  0
  1 25  1  0  0  0  0
  2  3  1  0  0  0  0
  3 22  1  0  0  0  0
  3  4  2  0  0  0  0
  4  5  1  0  0  0  0
  4 26  1  0  0  0  0
  5  6  2  0  0  0  0
  5 27  1  0  0  0  0
  6  7  1  0  0  0  0
  6 28  1  0  0  0  0
  7  8  1  0  0  0  0
  7 22  2  0  0  0  0
  8  9  1  0  0  0  0
  8 10  1  0  0  0  0
  8 29  1  0  0  0  0
  9 30  1  0  0  0  0
 10 11  1  0  0  0  0
 10 31  1  0  0  0  0
 10 32  1  0  0  0  0
 11 21  1  0  0  0  0
 11 12  1  0  0  0  0
 12 13  2  0  0  0  0
 13 14  1  0  0  0  0
 13 33  1  0  0  0  0
 14 21  2  0  0  0  0
 14 15  1  0  0  0  0
 15 16  2  0  0  0  0
 15 34  1  0  0  0  0
 16 17  1  0  0  0  0
 17 18  1  0  0  0  0
 17 19  1  0  0  0  0
 18 35  1  0  0  0  0
 18 36  1  0  0  0  0
 18 37  1  0  0  0  0
 19 20  2  0  0  0  0
 19 21  1  0  0  0  0
 22 38  1  0  0  0  0
M  END
> <s_m_source_file>
AV-unprocessed.smi

> <i_m_source_file_index>
2571

> <i_lp_mmshare_version>
43012

> <i_f3d_flags>
0

> <s_epik_input>
W0NIM11PYzFbY0hdW2NIXVtjSF1jKFtjSF0xKVtDQEhdKFtPSF0pW0NIMl1uKG5bY0hdMiljKGMyMyljKD1PKW4oW0NIM10pbltjSF0z

> <s_epik_cmdline>
J2VwaWtfcHl0aG9uJywgJy1waCcsICc3LjAnLCAnLXRuJywgJzgnLCAnLW1hJywgJzIwMCcsICctbWV0YWxfYmluZGluZycsICctaW1hZScsICc8aW5maWxlLm1hZT4nLCAnLW9tYWUnLCAnPG91dGZpbGUubWFlPic=

> <r_lp_tautomer_probability>
1

> <r_epik_Ionization_Penalty>
1.38887e-06

> <r_epik_Ionization_Penalty_Charging>
1.65421e-10

> <r_epik_Ionization_Penalty_Neutral>
1.38871e-06

> <r_epik_State_Penalty>
-0

> <r_epik_Charging_Adjusted_Penalty>
1.65421e-10

> <i_epik_Tot_Q>
0

> <i_epik_Tot_abs_Q>
0

> <r_epik_Metal_State_Penalty>
-0

> <b_epik_Metal_Only>
0

> <s_lp_Force_Field>
OPLS_2005

> <r_lp_Energy>
30.8007

> <b_lp_Chiralities_Consistent>
1

> <s_lp_Variant>
AV-unprocessed.smi:2571-1

> <Gold.Version>
5.8.1

> <Gold.Id.Protein>
6NUR|6NUR_protein|mol2

> <Gold.PLP.Fitness>
44.7997

> <Gold.PLP.PLP>
-37.7197

> <Gold.PLP.part.hbond>
-3.5845

> <Gold.PLP.part.metal>
0.0000

> <Gold.PLP.part.buried>
-3.3093

> <Gold.PLP.part.nonpolar>
-33.8145

> <Gold.PLP.part.repulsive>
1.6875

> <Gold.PLP.ligand.clash>
0.0000

> <Gold.PLP.ligand.torsion>
1.1766

> <Gold.PLP.Chemscore.Hbond>
2.1341

> <Gold.PLP.Chemscore.CHOScore>
1.0000

> <Gold.PLP.Chemscore.Metal>
0.0000

> <Gold.Chemscore.Hbonds>
donor molecule, donor type, donor heavy atom, donor atom, acceptor molecule, acceptor atom, score
      L1  H     9    30       P1 10171  0.98
      P1  H  7954  7966       L1     9  1.00
      P1  H  7989  7998       L1    16  0.09
      L1  C    15    34       P1  8028  1.00

> <Gold.PLP.Chemscore.Internal.Correction>
0.0310

> <Gold.Rescore>
     Score         DG    S(hbond)    S(metal)    S(lipo)     H(rot)  DE(clash)    DE(int)     intcor
     12.08     -13.56       1.33        0.00      79.61       2.21       0.40       1.07       ----

> <Gold.Chemscore.Fitness>
12.0813

> <Gold.Chemscore.DG>
-13.5600

> <Gold.Chemscore.ZeroCoef>
-5.4800

> <Gold.Chemscore.Hbond>
1.3279

> <Gold.Chemscore.Metal>
0.0000

> <Gold.Chemscore.Lipo>
79.6089

> <Gold.Chemscore.Internal_Hbond>
0.0000

> <Gold.Chemscore.DEClash>
0.4039

> <Gold.Chemscore.DEInternal>
1.0748

> <Gold.Chemscore.Rot>
2.2146

> <Gold.Chemscore.Internal.Correction>
   9.000000E+99

> <Gold.Chemscore.Hbonds>
donor molecule, donor type, donor heavy atom, donor atom, acceptor molecule, acceptor atom, score
      L1  H     9    30       P1 10171  0.88
      P1  H  7954  7966       L1     9  0.43

> <Gold.Chemscore.Hbond.Weighted>
-4.4350

> <Gold.Chemscore.Metal.Weighted>
-0.0000

> <Gold.Chemscore.Lipo.Weighted>
-9.3142

> <Gold.Chemscore.Internal_Hbond.Weighted>
0.0000

> <Gold.Chemscore.DEClash.Weighted>
0.4039

> <Gold.Chemscore.DEInternal.Weighted>
1.0748

> <Gold.Chemscore.Rot.Weighted>
5.6693

> <Gold.Chemscore.Internal.Correction.Weighted>
   9.000000E+99

> <Gold.Protein.RotatedTorsions>
[ 6907 6896 6895 6894 ] final   96.01 input  -60.11 | X-H torsion
[ 7974 7965 7964 7962 ] final -162.69 input  175.53 | X-H torsion
[ 8008 7997 7996 7995 ] final  -30.57 input   59.86 | X-H torsion
[ 10167 10162 10161 10158 ] final  165.29 input  -65.29 | X-H torsion
[ 10718 10713 10712 10709 ] final  114.83 input   66.30 | X-H torsion
[ 10763 10752 10751 10750 ] final  -94.87 input  -60.55 | X-H torsion
[ 11005 11000 10999 10996 ] final  -48.00 input  -57.11 | X-H torsion

> <Gold.Protein.ActiveResidues>
 VAL166  LYS551  ARG553  GLY616  TRP617  ASP618  TYR619  PRO620  LYS621  CYS622 
 ASP623  PHE694  ASN695  SER759  ASP760  ASP761  ALA762  ILE779  LEU786  VAL792 
 PHE793  MET794  SER795  GLU796  ALA797  LYS798  CYS799  TRP800  GLU811  SER814 

> <Gold.Protein.RotatedAtoms>
  152.5439  134.0951  159.8293 H   0  0  0  0  0  0  0  0  0  0  0  0  # atno 6907 bound_to 6896
  151.1036  133.5218  159.2616 H   0  0  0  0  0  0  0  0  0  0  0  0  # atno 6908 bound_to 6896
  151.1963  135.0433  159.8908 H   0  0  0  0  0  0  0  0  0  0  0  0  # atno 6909 bound_to 6896
  144.7349  140.3215  143.6170 H   0  0  0  0  0  0  0  0  0  0  0  0  # atno 7974 bound_to 7965
  154.4245  140.1787  156.1428 H   0  0  0  0  0  0  0  0  0  0  0  0  # atno 8008 bound_to 7997
  155.9977  140.3363  155.6790 H   0  0  0  0  0  0  0  0  0  0  0  0  # atno 8009 bound_to 7997
  155.6285  140.0667  157.2647 H   0  0  0  0  0  0  0  0  0  0  0  0  # atno 8010 bound_to 7997
  139.4903  144.4147  151.9258 H   0  0  0  0  0  0  0  0  0  0  0  0  # atno 10167 bound_to 10162
  157.6258  131.1004  150.7242 H   0  0  0  0  0  0  0  0  0  0  0  0  # atno 10718 bound_to 10713
  154.7096  135.5141  153.8646 H   0  0  0  0  0  0  0  0  0  0  0  0  # atno 10763 bound_to 10752
  153.0769  135.6619  154.0135 H   0  0  0  0  0  0  0  0  0  0  0  0  # atno 10764 bound_to 10752
  153.9980  135.3013  155.3385 H   0  0  0  0  0  0  0  0  0  0  0  0  # atno 10765 bound_to 10752
  141.0674  133.6689  156.3378 H   0  0  0  0  0  0  0  0  0  0  0  0  # atno 11005 bound_to 11000
  145.7564  139.1810  143.2292 LP  0  0  0  0  0  0  0  0  0  0  0  0  # atno 17320 bound_to 7965
  146.1021  140.7531  142.9544 LP  0  0  0  0  0  0  0  0  0  0  0  0  # atno 17321 bound_to 7965
  140.3589  144.2997  150.5936 LP  0  0  0  0  0  0  0  0  0  0  0  0  # atno 17342 bound_to 10162
  140.5420  143.2222  151.8069 LP  0  0  0  0  0  0  0  0  0  0  0  0  # atno 17343 bound_to 10162
  156.7591  130.4793  149.5440 LP  0  0  0  0  0  0  0  0  0  0  0  0  # atno 17370 bound_to 10713
  156.1429  130.6257  151.0492 LP  0  0  0  0  0  0  0  0  0  0  0  0  # atno 17371 bound_to 10713
  140.5744  134.5808  157.5465 LP  0  0  0  0  0  0  0  0  0  0  0  0  # atno 17394 bound_to 11000
  139.9490  134.7651  156.0493 LP  0  0  0  0  0  0  0  0  0  0  0  0  # atno 17395 bound_to 11000

$$$$
