AV-unprocessed.smi:2636|AV-procd|sdf|10259|dock8
  -GOLD-   2272014273D 1   1.00000     0.00000
 Structure written by MMmdl.
 35 36  0  0  0  0  0  0  0  0  2 V2000
  149.2915  132.9920  154.5559 C   0  0  0  0  0  0  0  0  0  0  0  0
  150.0304  134.1579  155.1874 C   0  0  0  0  0  0  0  0  0  0  0  0
  150.0616  135.3874  154.6329 C   0  0  0  0  0  0  0  0  0  0  0  0
  150.7460  136.4597  155.2278 N   0  0  0  0  0  0  0  0  0  0  0  0
  150.6828  137.7660  154.5948 C   0  0  0  0  0  0  0  0  0  0  0  0
  150.2620  138.7003  155.5336 O   0  0  0  0  0  0  0  0  0  0  0  0
  150.3943  140.0393  155.0840 C   0  0  0  0  0  0  0  0  0  0  0  0
  150.5777  141.0115  156.2340 C   0  0  0  0  0  0  0  0  0  0  0  0
  151.6352  141.0402  157.0676 C   0  0  0  0  0  0  0  0  0  0  0  0
  151.8406  141.9708  158.1926 C   0  0  0  0  0  0  0  0  0  0  0  0
  152.4578  141.5797  159.4050 C   0  0  0  0  0  0  0  0  0  0  0  0
  152.6326  142.5066  160.4513 C   0  0  0  0  0  0  0  0  0  0  0  0
  152.1951  143.8351  160.2984 C   0  0  0  0  0  0  0  0  0  0  0  0
  151.5816  144.2353  159.0969 C   0  0  0  0  0  0  0  0  0  0  0  0
  151.4059  143.3071  158.0521 C   0  0  0  0  0  0  0  0  0  0  0  0
  151.3783  136.2934  156.4274 C   0  0  0  0  0  0  0  0  0  0  0  0
  151.9408  137.2564  156.9507 O   0  0  0  0  0  0  0  0  0  0  0  0
  151.3678  135.0525  157.0037 N   0  5  0  0  0  0  0  0  0  0  0  0
  150.7385  133.9713  156.4566 C   0  0  0  0  0  0  0  0  0  0  0  0
  150.7479  132.8631  156.9916 O   0  0  0  0  0  0  0  0  0  0  0  0
  148.8269  133.2839  153.6137 H   0  0  0  0  0  0  0  0  0  0  0  0
  148.5078  132.6322  155.2232 H   0  0  0  0  0  0  0  0  0  0  0  0
  149.9781  132.1692  154.3546 H   0  0  0  0  0  0  0  0  0  0  0  0
  149.5604  135.6237  153.7057 H   0  0  0  0  0  0  0  0  0  0  0  0
  151.6715  138.0179  154.2048 H   0  0  0  0  0  0  0  0  0  0  0  0
  149.9846  137.7327  153.7568 H   0  0  0  0  0  0  0  0  0  0  0  0
  151.2538  140.1254  154.4178 H   0  0  0  0  0  0  0  0  0  0  0  0
  149.5083  140.3357  154.5209 H   0  0  0  0  0  0  0  0  0  0  0  0
  149.7700  141.7165  156.3549 H   0  0  0  0  0  0  0  0  0  0  0  0
  152.4252  140.3185  156.9161 H   0  0  0  0  0  0  0  0  0  0  0  0
  152.8052  140.5693  159.5540 H   0  0  0  0  0  0  0  0  0  0  0  0
  153.1035  142.1969  161.3728 H   0  0  0  0  0  0  0  0  0  0  0  0
  152.3298  144.5452  161.1009 H   0  0  0  0  0  0  0  0  0  0  0  0
  151.2441  145.2540  158.9761 H   0  0  0  0  0  0  0  0  0  0  0  0
  150.9322  143.6290  157.1359 H   0  0  0  0  0  0  0  0  0  0  0  0
  1  2  1  0  0  0  0
  1 21  1  0  0  0  0
  1 22  1  0  0  0  0
  1 23  1  0  0  0  0
  2 19  1  0  0  0  0
  2  3  2  0  0  0  0
  3  4  1  0  0  0  0
  3 24  1  0  0  0  0
  4  5  1  0  0  0  0
  4 16  1  0  0  0  0
  5  6  1  0  0  0  0
  5 25  1  0  0  0  0
  5 26  1  0  0  0  0
  6  7  1  0  0  0  0
  7  8  1  0  0  0  0
  7 27  1  0  0  0  0
  7 28  1  0  0  0  0
  8  9  2  0  0  0  0
  8 29  1  0  0  0  0
  9 10  1  0  0  0  0
  9 30  1  0  0  0  0
 10 15  1  0  0  0  0
 10 11  2  0  0  0  0
 11 12  1  0  0  0  0
 11 31  1  0  0  0  0
 12 13  2  0  0  0  0
 12 32  1  0  0  0  0
 13 14  1  0  0  0  0
 13 33  1  0  0  0  0
 14 15  2  0  0  0  0
 14 34  1  0  0  0  0
 15 35  1  0  0  0  0
 16 17  2  0  0  0  0
 16 18  1  0  0  0  0
 18 19  1  0  0  0  0
 19 20  2  0  0  0  0
M  CHG  1  18  -1
M  END
> <s_m_source_file>
AV-unprocessed.smi

> <i_m_source_file_index>
2636

> <i_lp_mmshare_version>
43012

> <i_f3d_flags>
0

> <s_epik_input>
Tz1jMVtuSF1jKD1PKW4oW2NIXWMxW0NIM10pW0NIMl1PW0NIMl0vW0NIXT1bQ0hdL2MyW2NIXVtjSF1bY0hdW2NIXVtjSF0y

> <s_epik_cmdline>
J2VwaWtfcHl0aG9uJywgJy1waCcsICc3LjAnLCAnLXRuJywgJzgnLCAnLW1hJywgJzIwMCcsICctbWV0YWxfYmluZGluZycsICctaW1hZScsICc8aW5maWxlLm1hZT4nLCAnLW9tYWUnLCAnPG91dGZpbGUubWFlPic=

> <r_lp_tautomer_probability>
0.999537

> <r_epik_Ionization_Penalty>
3.43625

> <r_epik_Ionization_Penalty_Charging>
7.29021e-08

> <r_epik_Ionization_Penalty_Neutral>
3.43625

> <r_epik_State_Penalty>
3.43567

> <r_epik_Charging_Adjusted_Penalty>
3.43567

> <i_epik_Tot_Q>
-1

> <i_epik_Tot_abs_Q>
1

> <r_epik_Metal_State_Penalty>
0.168611

> <b_epik_Metal_Only>
1

> <s_epik_Chemistry_Notes>
This compound contains an acetal/aminal-like group ( X-CH(R)-Y where X, Y are N, S, or O) that may be acid/base labile, releasing an aldehyde.

> <s_lp_Force_Field>
OPLS_2005

> <r_lp_Energy>
15.3134

> <b_lp_Chiralities_Consistent>
1

> <s_lp_Variant>
AV-unprocessed.smi:2636-3

> <Gold.Version>
5.8.1

> <Gold.Id.Protein>
6NUR|6NUR_protein|mol2

> <Gold.PLP.Fitness>
44.6792

> <Gold.PLP.PLP>
-39.7333

> <Gold.PLP.part.hbond>
-2.0000

> <Gold.PLP.part.metal>
0.0000

> <Gold.PLP.part.buried>
-3.9379

> <Gold.PLP.part.nonpolar>
-34.4849

> <Gold.PLP.part.repulsive>
0.0386

> <Gold.PLP.ligand.clash>
0.0000

> <Gold.PLP.ligand.torsion>
0.5442

> <Gold.PLP.Chemscore.Hbond>
1.0000

> <Gold.PLP.Chemscore.CHOScore>
0.9975

> <Gold.PLP.Chemscore.Metal>
0.0000

> <Gold.Chemscore.Hbonds>
donor molecule, donor type, donor heavy atom, donor atom, acceptor molecule, acceptor atom, score
      P1  H  6896  6907       L1    20  0.26
      L1  C     3    24       P1  7948  0.88

> <Gold.PLP.Chemscore.Internal.Correction>
0.0417

> <Gold.Rescore>
     Score         DG    S(hbond)    S(metal)    S(lipo)     H(rot)  DE(clash)    DE(int)     intcor
     12.67     -14.70       0.67        0.00     100.96       1.88       0.10       1.93       ----

> <Gold.Chemscore.Fitness>
12.6710

> <Gold.Chemscore.DG>
-14.7048

> <Gold.Chemscore.ZeroCoef>
-5.4800

> <Gold.Chemscore.Hbond>
0.6663

> <Gold.Chemscore.Metal>
0.0000

> <Gold.Chemscore.Lipo>
100.9582

> <Gold.Chemscore.Internal_Hbond>
0.0000

> <Gold.Chemscore.DEClash>
0.1008

> <Gold.Chemscore.DEInternal>
1.9331

> <Gold.Chemscore.Rot>
1.8800

> <Gold.Chemscore.Internal.Correction>
   9.000000E+99

> <Gold.Chemscore.Hbonds>
donor molecule, donor type, donor heavy atom, donor atom, acceptor molecule, acceptor atom, score
      P1  H  6896  6907       L1    20  0.08

> <Gold.Chemscore.Hbond.Weighted>
-2.2256

> <Gold.Chemscore.Metal.Weighted>
-0.0000

> <Gold.Chemscore.Lipo.Weighted>
-11.8121

> <Gold.Chemscore.Internal_Hbond.Weighted>
0.0000

> <Gold.Chemscore.DEClash.Weighted>
0.1008

> <Gold.Chemscore.DEInternal.Weighted>
1.9331

> <Gold.Chemscore.Rot.Weighted>
4.8129

> <Gold.Chemscore.Internal.Correction.Weighted>
   9.000000E+99

> <Gold.Protein.RotatedTorsions>
[ 6907 6896 6895 6894 ] final -153.57 input  -60.11 | X-H torsion
[ 7974 7965 7964 7962 ] final -107.20 input  175.53 | X-H torsion
[ 8008 7997 7996 7995 ] final   19.27 input   59.86 | X-H torsion
[ 10167 10162 10161 10158 ] final  -44.96 input  -65.29 | X-H torsion
[ 10718 10713 10712 10709 ] final   59.32 input   66.30 | X-H torsion
[ 10763 10752 10751 10750 ] final -135.79 input  -60.55 | X-H torsion
[ 11005 11000 10999 10996 ] final  177.75 input  -57.11 | X-H torsion

> <Gold.Protein.ActiveResidues>
 VAL166  LYS551  ARG553  GLY616  TRP617  ASP618  TYR619  PRO620  LYS621  CYS622 
 ASP623  PHE694  ASN695  SER759  ASP760  ASP761  ALA762  ILE779  LEU786  VAL792 
 PHE793  MET794  SER795  GLU796  ALA797  LYS798  CYS799  TRP800  GLU811  SER814 

> <Gold.Protein.RotatedAtoms>
  151.2446  133.4382  159.2608 H   0  0  0  0  0  0  0  0  0  0  0  0  # atno 6907 bound_to 6896
  151.0674  134.9776  159.8301 H   0  0  0  0  0  0  0  0  0  0  0  0  # atno 6908 bound_to 6896
  152.5407  134.2393  159.8908 H   0  0  0  0  0  0  0  0  0  0  0  0  # atno 6909 bound_to 6896
  145.2083  140.9085  143.3329 H   0  0  0  0  0  0  0  0  0  0  0  0  # atno 7974 bound_to 7965
  154.9183  140.3024  155.5229 H   0  0  0  0  0  0  0  0  0  0  0  0  # atno 8008 bound_to 7997
  156.3011  140.2376  156.4166 H   0  0  0  0  0  0  0  0  0  0  0  0  # atno 8009 bound_to 7997
  154.8356  140.0416  157.1495 H   0  0  0  0  0  0  0  0  0  0  0  0  # atno 8010 bound_to 7997
  140.6877  143.2903  151.3570 H   0  0  0  0  0  0  0  0  0  0  0  0  # atno 10167 bound_to 10162
  157.5666  130.8876  149.9198 H   0  0  0  0  0  0  0  0  0  0  0  0  # atno 10718 bound_to 10713
  154.8696  135.3692  154.4956 H   0  0  0  0  0  0  0  0  0  0  0  0  # atno 10763 bound_to 10752
  153.5600  135.7023  153.5557 H   0  0  0  0  0  0  0  0  0  0  0  0  # atno 10764 bound_to 10752
  153.3637  135.4040  155.1701 H   0  0  0  0  0  0  0  0  0  0  0  0  # atno 10765 bound_to 10752
  140.3875  134.6891  157.4488 H   0  0  0  0  0  0  0  0  0  0  0  0  # atno 11005 bound_to 11000
  144.9880  139.3717  143.6229 LP  0  0  0  0  0  0  0  0  0  0  0  0  # atno 17320 bound_to 7965
  146.3403  139.9050  142.8788 LP  0  0  0  0  0  0  0  0  0  0  0  0  # atno 17321 bound_to 7965
  139.6249  144.0833  152.2425 LP  0  0  0  0  0  0  0  0  0  0  0  0  # atno 17342 bound_to 10162
  140.0289  144.6096  150.7504 LP  0  0  0  0  0  0  0  0  0  0  0  0  # atno 17343 bound_to 10162
  156.0714  130.3684  150.0768 LP  0  0  0  0  0  0  0  0  0  0  0  0  # atno 17370 bound_to 10713
  156.8926  130.9593  151.3586 LP  0  0  0  0  0  0  0  0  0  0  0  0  # atno 17371 bound_to 10713
  140.0431  134.6238  155.8955 LP  0  0  0  0  0  0  0  0  0  0  0  0  # atno 17394 bound_to 11000
  141.1902  133.6568  156.5402 LP  0  0  0  0  0  0  0  0  0  0  0  0  # atno 17395 bound_to 11000

$$$$
