AV-unprocessed.smi:1231|AV-procd|sdf|5165|dock6
  -GOLD-   22720 4233D 1   1.00000     0.00000
 Structure written by MMmdl.
 43 44  0  0  0  0  0  0  0  0  2 V2000
  150.1417  141.8563  156.6513 C   0  0  0  0  0  0  0  0  0  0  0  0
  150.0671  141.0482  155.3513 C   0  0  2  0  0  0  0  0  0  0  0  0
  148.6160  140.7235  154.9501 C   0  0  0  0  0  0  0  0  0  0  0  0
  148.5887  139.8839  153.7292 N   0  3  2  0  0  0  0  0  0  0  0  0
  147.2059  139.5976  153.2727 C   0  0  0  0  0  0  0  0  0  0  0  0
  146.6068  138.3520  153.9546 C   0  0  0  0  0  0  0  0  0  0  0  0
  146.8116  137.1513  153.1531 N   0  0  0  0  0  0  0  0  0  0  0  0
  145.8307  136.3546  152.7044 C   0  0  0  0  0  0  0  0  0  0  0  0
  144.6373  136.5646  152.9243 O   0  0  0  0  0  0  0  0  0  0  0  0
  146.3239  135.3219  151.9986 N   0  0  0  0  0  0  0  0  0  0  0  0
  145.6070  134.2801  151.3518 C   0  0  0  0  0  0  0  0  0  0  0  0
  146.4070  133.3459  150.6557 C   0  0  0  0  0  0  0  0  0  0  0  0
  145.7915  132.2739  149.9811 C   0  0  0  0  0  0  0  0  0  0  0  0
  144.3900  132.1650  150.0181 C   0  0  0  0  0  0  0  0  0  0  0  0
  143.6676  133.1388  150.7320 C   0  0  0  0  0  0  0  0  0  0  0  0
  144.2556  134.1663  151.3803 N   0  0  0  0  0  0  0  0  0  0  0  0
  149.4129  138.6654  153.9243 C   0  0  0  0  0  0  0  0  0  0  0  0
  150.8422  139.0429  154.3584 C   0  0  2  0  0  0  0  0  0  0  0  0
  151.7026  137.8089  154.6512 C   0  0  0  0  0  0  0  0  0  0  0  0
  150.7776  139.8301  155.5426 O   0  0  0  0  0  0  0  0  0  0  0  0
  149.6213  142.8091  156.5514 H   0  0  0  0  0  0  0  0  0  0  0  0
  151.1769  142.0708  156.9178 H   0  0  0  0  0  0  0  0  0  0  0  0
  149.6898  141.3132  157.4819 H   0  0  0  0  0  0  0  0  0  0  0  0
  150.5482  141.6240  154.5585 H   0  0  0  0  0  0  0  0  0  0  0  0
  148.1067  140.2009  155.7620 H   0  0  0  0  0  0  0  0  0  0  0  0
  148.0690  141.6502  154.7716 H   0  0  0  0  0  0  0  0  0  0  0  0
  146.5806  140.4768  153.4349 H   0  0  0  0  0  0  0  0  0  0  0  0
  147.2144  139.4217  152.1959 H   0  0  0  0  0  0  0  0  0  0  0  0
  147.0788  138.1965  154.9250 H   0  0  0  0  0  0  0  0  0  0  0  0
  145.5398  138.4728  154.1438 H   0  0  0  0  0  0  0  0  0  0  0  0
  147.7657  136.9058  152.9317 H   0  0  0  0  0  0  0  0  0  0  0  0
  147.3282  135.2744  151.9124 H   0  0  0  0  0  0  0  0  0  0  0  0
  147.4828  133.4443  150.6373 H   0  0  0  0  0  0  0  0  0  0  0  0
  146.3852  131.5482  149.4449 H   0  0  0  0  0  0  0  0  0  0  0  0
  143.8819  131.3568  149.5130 H   0  0  0  0  0  0  0  0  0  0  0  0
  142.5900  133.0920  150.7846 H   0  0  0  0  0  0  0  0  0  0  0  0
  148.9471  138.0279  154.6779 H   0  0  0  0  0  0  0  0  0  0  0  0
  149.4594  138.0864  153.0028 H   0  0  0  0  0  0  0  0  0  0  0  0
  151.3251  139.6215  153.5688 H   0  0  0  0  0  0  0  0  0  0  0  0
  151.7956  137.1762  153.7682 H   0  0  0  0  0  0  0  0  0  0  0  0
  151.2705  137.2061  155.4504 H   0  0  0  0  0  0  0  0  0  0  0  0
  152.7077  138.0989  154.9591 H   0  0  0  0  0  0  0  0  0  0  0  0
  149.0288  140.4280  153.0008 H   0  0  0  0  0  0  0  0  0  0  0  0
  1  2  1  0  0  0  0
  1 21  1  0  0  0  0
  1 22  1  0  0  0  0
  1 23  1  0  0  0  0
  2 20  1  0  0  0  0
  2  3  1  0  0  0  0
  2 24  1  0  0  0  0
  3  4  1  0  0  0  0
  3 25  1  0  0  0  0
  3 26  1  0  0  0  0
  4  5  1  0  0  0  0
  4 17  1  0  0  0  0
  4 43  1  0  0  0  0
  5  6  1  0  0  0  0
  5 27  1  0  0  0  0
  5 28  1  0  0  0  0
  6  7  1  0  0  0  0
  6 29  1  0  0  0  0
  6 30  1  0  0  0  0
  7  8  1  0  0  0  0
  7 31  1  0  0  0  0
  8  9  2  0  0  0  0
  8 10  1  0  0  0  0
 10 11  1  0  0  0  0
 10 32  1  0  0  0  0
 11 16  1  0  0  0  0
 11 12  2  0  0  0  0
 12 13  1  0  0  0  0
 12 33  1  0  0  0  0
 13 14  2  0  0  0  0
 13 34  1  0  0  0  0
 14 15  1  0  0  0  0
 14 35  1  0  0  0  0
 15 16  2  0  0  0  0
 15 36  1  0  0  0  0
 17 18  1  0  0  0  0
 17 37  1  0  0  0  0
 17 38  1  0  0  0  0
 18 19  1  0  0  0  0
 18 20  1  0  0  0  0
 18 39  1  0  0  0  0
 19 40  1  0  0  0  0
 19 41  1  0  0  0  0
 19 42  1  0  0  0  0
M  CHG  1   4   1
M  END
> <s_m_source_file>
AV-unprocessed.smi

> <i_m_source_file_index>
1231

> <i_lp_mmshare_version>
43012

> <i_f3d_flags>
0

> <s_epik_input>
W0NIM11bQ0BASF0xW0NIMl1OKFtDSDJdW0NASF0oTzEpW0NIM10pW0NIMl1bQ0gyXVtOSF1DKD1PKVtOSF1jMltjSF1bY0hdW2NIXVtjSF1uMg==

> <s_epik_cmdline>
J2VwaWtfcHl0aG9uJywgJy1waCcsICc3LjAnLCAnLXRuJywgJzgnLCAnLW1hJywgJzIwMCcsICctbWV0YWxfYmluZGluZycsICctaW1hZScsICc8aW5maWxlLm1hZT4nLCAnLW9tYWUnLCAnPG91dGZpbGUubWFlPic=

> <r_epik_Ionization_Penalty>
0.602565

> <r_epik_Ionization_Penalty_Charging>
0.602531

> <r_epik_Ionization_Penalty_Neutral>
3.43186e-05

> <r_epik_State_Penalty>
0.617039

> <r_epik_Charging_Adjusted_Penalty>
1.21957

> <i_epik_Tot_Q>
1

> <i_epik_Tot_abs_Q>
1

> <r_epik_Metal_State_Penalty>
0.617041

> <b_epik_Metal_Only>
0

> <s_lp_Force_Field>
OPLS_2005

> <r_lp_Energy>
15.064

> <b_lp_Chiralities_Consistent>
1

> <s_lp_Variant>
AV-unprocessed.smi:1231-6

> <Gold.Version>
5.8.1

> <Gold.Id.Protein>
6NUR|6NUR_protein|mol2

> <Gold.PLP.Fitness>
45.9141

> <Gold.PLP.PLP>
-36.0440

> <Gold.PLP.part.hbond>
-3.0000

> <Gold.PLP.part.metal>
0.0000

> <Gold.PLP.part.buried>
-2.0025

> <Gold.PLP.part.nonpolar>
-30.6402

> <Gold.PLP.part.repulsive>
0.4658

> <Gold.PLP.ligand.clash>
0.0000

> <Gold.PLP.ligand.torsion>
0.4865

> <Gold.PLP.Chemscore.Hbond>
2.6080

> <Gold.PLP.Chemscore.CHOScore>
0.9978

> <Gold.PLP.Chemscore.Metal>
0.0000

> <Gold.Chemscore.Hbonds>
donor molecule, donor type, donor heavy atom, donor atom, acceptor molecule, acceptor atom, score
      L1  H     4    43       P1  7957  0.69
      L1  H     7    31       P1  7948  1.00
      L1  H    10    32       P1  7948  0.96
      L1  C    15    36       P1 10186  0.96

> <Gold.PLP.Chemscore.Internal.Correction>
0.0257

> <Gold.Rescore>
     Score         DG    S(hbond)    S(metal)    S(lipo)     H(rot)  DE(clash)    DE(int)     intcor
     19.20     -21.25       2.67        0.00      92.66       1.55       0.21       1.83       ----

> <Gold.Chemscore.Fitness>
19.2018

> <Gold.Chemscore.DG>
-21.2491

> <Gold.Chemscore.ZeroCoef>
-5.4800

> <Gold.Chemscore.Hbond>
2.6669

> <Gold.Chemscore.Metal>
0.0000

> <Gold.Chemscore.Lipo>
92.6596

> <Gold.Chemscore.Internal_Hbond>
0.0000

> <Gold.Chemscore.DEClash>
0.2140

> <Gold.Chemscore.DEInternal>
1.8334

> <Gold.Chemscore.Rot>
1.5546

> <Gold.Chemscore.Internal.Correction>
   9.000000E+99

> <Gold.Chemscore.Hbonds>
donor molecule, donor type, donor heavy atom, donor atom, acceptor molecule, acceptor atom, score
      L1  H     4    43       P1  7957  0.67
      L1  H     7    31       P1  7948  0.95
      L1  H    10    32       P1  7948  0.91

> <Gold.Chemscore.Hbond.Weighted>
-8.9076

> <Gold.Chemscore.Metal.Weighted>
-0.0000

> <Gold.Chemscore.Lipo.Weighted>
-10.8412

> <Gold.Chemscore.Internal_Hbond.Weighted>
0.0000

> <Gold.Chemscore.DEClash.Weighted>
0.2140

> <Gold.Chemscore.DEInternal.Weighted>
1.8334

> <Gold.Chemscore.Rot.Weighted>
3.9797

> <Gold.Chemscore.Internal.Correction.Weighted>
   9.000000E+99

> <Gold.Protein.RotatedTorsions>
[ 6907 6896 6895 6894 ] final -135.05 input  -60.11 | X-H torsion
[ 7974 7965 7964 7962 ] final  143.75 input  175.53 | X-H torsion
[ 8008 7997 7996 7995 ] final  -64.71 input   59.86 | X-H torsion
[ 10167 10162 10161 10158 ] final   47.62 input  -65.29 | X-H torsion
[ 10718 10713 10712 10709 ] final  -65.62 input   66.30 | X-H torsion
[ 10763 10752 10751 10750 ] final   69.54 input  -60.55 | X-H torsion
[ 11005 11000 10999 10996 ] final  -36.38 input  -57.11 | X-H torsion

> <Gold.Protein.ActiveResidues>
 VAL166  LYS551  ARG553  GLY616  TRP617  ASP618  TYR619  PRO620  LYS621  CYS622 
 ASP623  PHE694  ASN695  SER759  ASP760  ASP761  ALA762  ILE779  LEU786  VAL792 
 PHE793  MET794  SER795  GLU796  ALA797  LYS798  CYS799  TRP800  GLU811  SER814 

> <Gold.Protein.RotatedAtoms>
  150.9932  133.6129  159.2705 H   0  0  0  0  0  0  0  0  0  0  0  0  # atno 6907 bound_to 6896
  151.3342  135.0848  159.9358 H   0  0  0  0  0  0  0  0  0  0  0  0  # atno 6908 bound_to 6896
  152.5252  133.9556  159.7747 H   0  0  0  0  0  0  0  0  0  0  0  0  # atno 6909 bound_to 6896
  144.8894  139.5580  143.5805 H   0  0  0  0  0  0  0  0  0  0  0  0  # atno 7974 bound_to 7965
  154.4628  140.0948  156.6938 H   0  0  0  0  0  0  0  0  0  0  0  0  # atno 8008 bound_to 7997
  155.4946  140.3472  155.4342 H   0  0  0  0  0  0  0  0  0  0  0  0  # atno 8009 bound_to 7997
  156.0901  140.1395  156.9592 H   0  0  0  0  0  0  0  0  0  0  0  0  # atno 8010 bound_to 7997
  140.3018  144.2925  150.6217 H   0  0  0  0  0  0  0  0  0  0  0  0  # atno 10167 bound_to 10162
  156.0659  130.4250  150.1590 H   0  0  0  0  0  0  0  0  0  0  0  0  # atno 10718 bound_to 10713
  153.0293  135.5207  154.7304 H   0  0  0  0  0  0  0  0  0  0  0  0  # atno 10763 bound_to 10752
  154.6333  135.2903  155.0192 H   0  0  0  0  0  0  0  0  0  0  0  0  # atno 10764 bound_to 10752
  154.1136  135.6618  153.4942 H   0  0  0  0  0  0  0  0  0  0  0  0  # atno 10765 bound_to 10752
  140.9870  133.7025  156.1783 H   0  0  0  0  0  0  0  0  0  0  0  0  # atno 11005 bound_to 11000
  146.3044  139.7533  142.9067 LP  0  0  0  0  0  0  0  0  0  0  0  0  # atno 17320 bound_to 7965
  145.3810  141.0358  143.3177 LP  0  0  0  0  0  0  0  0  0  0  0  0  # atno 17321 bound_to 7965
  140.5644  143.2188  151.7708 LP  0  0  0  0  0  0  0  0  0  0  0  0  # atno 17342 bound_to 10162
  139.4913  144.4303  151.9879 LP  0  0  0  0  0  0  0  0  0  0  0  0  # atno 17343 bound_to 10162
  156.9650  130.9817  151.3471 LP  0  0  0  0  0  0  0  0  0  0  0  0  # atno 17370 bound_to 10713
  157.5700  130.8304  149.8379 LP  0  0  0  0  0  0  0  0  0  0  0  0  # atno 17371 bound_to 10713
  140.7099  134.4473  157.5582 LP  0  0  0  0  0  0  0  0  0  0  0  0  # atno 17394 bound_to 11000
  139.8975  134.8635  156.2041 LP  0  0  0  0  0  0  0  0  0  0  0  0  # atno 17395 bound_to 11000

$$$$
