AV-unprocessed.smi:3115|AV-procd|sdf|11859|dock2
  -GOLD-   2272017243D 1   1.00000     0.00000
 Structure written by MMmdl.
 33 34  0  0  0  0  0  0  0  0  2 V2000
  152.6855  142.4076  161.3670 C   0  0  0  0  0  0  0  0  0  0  0  0
  152.7339  142.6897  159.8619 C   0  0  1  0  0  0  0  0  0  0  0  0
  151.5768  142.0073  159.1066 C   0  0  0  0  0  0  0  0  0  0  0  0
  151.6111  142.3758  157.6965 N   0  0  0  0  0  0  0  0  0  0  0  0
  150.6590  141.7012  156.9192 C   0  0  0  0  0  0  0  0  0  0  0  0
  151.0965  140.7355  155.9880 C   0  0  0  0  0  0  0  0  0  0  0  0
  150.1345  140.0548  155.2140 C   0  0  0  0  0  0  0  0  0  0  0  0
  150.5545  139.0131  154.1982 C   0  0  0  0  0  0  0  0  0  0  0  0
  149.4169  138.6296  153.3472 N   0  3  0  0  0  0  0  0  0  0  0  0
  148.7729  140.3691  155.3977 C   0  0  0  0  0  0  0  0  0  0  0  0
  148.4346  141.3503  156.3499 C   0  0  0  0  0  0  0  0  0  0  0  0
  149.3505  142.0043  157.0951 N   0  0  0  0  0  0  0  0  0  0  0  0
  151.6029  143.8200  157.5003 C   0  0  0  0  0  0  0  0  0  0  0  0
  152.7526  144.4645  158.2930 C   0  0  0  0  0  0  0  0  0  0  0  0
  152.6488  144.0997  159.6666 O   0  0  0  0  0  0  0  0  0  0  0  0
  152.7580  141.3386  161.5685 H   0  0  0  0  0  0  0  0  0  0  0  0
  151.7555  142.7691  161.8062 H   0  0  0  0  0  0  0  0  0  0  0  0
  153.5109  142.8994  161.8823 H   0  0  0  0  0  0  0  0  0  0  0  0
  153.6888  142.3324  159.4719 H   0  0  0  0  0  0  0  0  0  0  0  0
  151.6518  140.9234  159.2040 H   0  0  0  0  0  0  0  0  0  0  0  0
  150.6219  142.3055  159.5424 H   0  0  0  0  0  0  0  0  0  0  0  0
  152.1495  140.5212  155.8746 H   0  0  0  0  0  0  0  0  0  0  0  0
  151.3593  139.4015  153.5731 H   0  0  0  0  0  0  0  0  0  0  0  0
  150.9390  138.1293  154.7087 H   0  0  0  0  0  0  0  0  0  0  0  0
  149.5751  137.7085  152.9646 H   0  0  0  0  0  0  0  0  0  0  0  0
  149.3214  139.2968  152.5950 H   0  0  0  0  0  0  0  0  0  0  0  0
  148.0026  139.8734  154.8252 H   0  0  0  0  0  0  0  0  0  0  0  0
  147.4014  141.6172  156.5167 H   0  0  0  0  0  0  0  0  0  0  0  0
  151.7043  144.0498  156.4389 H   0  0  0  0  0  0  0  0  0  0  0  0
  150.6490  144.2329  157.8318 H   0  0  0  0  0  0  0  0  0  0  0  0
  153.7212  144.1562  157.8964 H   0  0  0  0  0  0  0  0  0  0  0  0
  152.7045  145.5502  158.2090 H   0  0  0  0  0  0  0  0  0  0  0  0
  148.5721  138.6252  153.9007 H   0  0  0  0  0  0  0  0  0  0  0  0
  1  2  1  0  0  0  0
  1 16  1  0  0  0  0
  1 17  1  0  0  0  0
  1 18  1  0  0  0  0
  2 15  1  0  0  0  0
  2  3  1  0  0  0  0
  2 19  1  0  0  0  0
  3  4  1  0  0  0  0
  3 20  1  0  0  0  0
  3 21  1  0  0  0  0
  4  5  1  0  0  0  0
  4 13  1  0  0  0  0
  5 12  1  0  0  0  0
  5  6  2  0  0  0  0
  6  7  1  0  0  0  0
  6 22  1  0  0  0  0
  7  8  1  0  0  0  0
  7 10  2  0  0  0  0
  8  9  1  0  0  0  0
  8 23  1  0  0  0  0
  8 24  1  0  0  0  0
  9 25  1  0  0  0  0
  9 26  1  0  0  0  0
  9 33  1  0  0  0  0
 10 11  1  0  0  0  0
 10 27  1  0  0  0  0
 11 12  2  0  0  0  0
 11 28  1  0  0  0  0
 13 14  1  0  0  0  0
 13 29  1  0  0  0  0
 13 30  1  0  0  0  0
 14 15  1  0  0  0  0
 14 31  1  0  0  0  0
 14 32  1  0  0  0  0
M  CHG  1   9   1
M  END
> <s_m_source_file>
AV-unprocessed.smi

> <i_m_source_file_index>
3115

> <i_lp_mmshare_version>
43012

> <i_f3d_flags>
0

> <s_epik_input>
W0NIM11bQ0BASF0xW0NIMl1OKFtDSDJdW0NIMl1PMSljMltjSF1jKFtDSDJdW05IMl0pW2NIXVtjSF1uMg==

> <s_epik_cmdline>
J2VwaWtfcHl0aG9uJywgJy1waCcsICc3LjAnLCAnLXRuJywgJzgnLCAnLW1hJywgJzIwMCcsICctbWV0YWxfYmluZGluZycsICctaW1hZScsICc8aW5maWxlLm1hZT4nLCAnLW9tYWUnLCAnPG91dGZpbGUubWFlPic=

> <r_lp_tautomer_probability>
1

> <r_epik_Ionization_Penalty>
0.0768907

> <r_epik_Ionization_Penalty_Charging>
0.0768864

> <r_epik_Ionization_Penalty_Neutral>
4.339e-06

> <r_epik_State_Penalty>
0.0093217

> <r_epik_Charging_Adjusted_Penalty>
0.0862081

> <i_epik_Tot_Q>
1

> <i_epik_Tot_abs_Q>
1

> <r_epik_Metal_State_Penalty>
0.0096683

> <b_epik_Metal_Only>
0

> <s_lp_Force_Field>
OPLS_2005

> <r_lp_Energy>
14.3897

> <b_lp_Chiralities_Consistent>
1

> <s_lp_Variant>
AV-unprocessed.smi:3115-2

> <Gold.Version>
5.8.1

> <Gold.Id.Protein>
6NUR|6NUR_protein|mol2

> <Gold.PLP.Fitness>
42.8895

> <Gold.PLP.PLP>
-34.1617

> <Gold.PLP.part.hbond>
-2.0000

> <Gold.PLP.part.metal>
0.0000

> <Gold.PLP.part.buried>
-4.2092

> <Gold.PLP.part.nonpolar>
-28.5067

> <Gold.PLP.part.repulsive>
0.4491

> <Gold.PLP.ligand.clash>
0.0000

> <Gold.PLP.ligand.torsion>
0.1853

> <Gold.PLP.Chemscore.Hbond>
3.0000

> <Gold.PLP.Chemscore.CHOScore>
0.0000

> <Gold.PLP.Chemscore.Metal>
0.0000

> <Gold.Chemscore.Hbonds>
donor molecule, donor type, donor heavy atom, donor atom, acceptor molecule, acceptor atom, score
      L1  H     9    25       P1  7948  1.98
      L1  H     9    26       P1  7957  1.00

> <Gold.PLP.Chemscore.Internal.Correction>
0.0983

> <Gold.Rescore>
     Score         DG    S(hbond)    S(metal)    S(lipo)     H(rot)  DE(clash)    DE(int)     intcor
     18.54     -18.84       1.95        0.00      87.10       1.30       0.11       0.20       ----

> <Gold.Chemscore.Fitness>
18.5366

> <Gold.Chemscore.DG>
-18.8438

> <Gold.Chemscore.ZeroCoef>
-5.4800

> <Gold.Chemscore.Hbond>
1.9500

> <Gold.Chemscore.Metal>
0.0000

> <Gold.Chemscore.Lipo>
87.0970

> <Gold.Chemscore.Internal_Hbond>
0.0000

> <Gold.Chemscore.DEClash>
0.1057

> <Gold.Chemscore.DEInternal>
0.2015

> <Gold.Chemscore.Rot>
1.3045

> <Gold.Chemscore.Internal.Correction>
   9.000000E+99

> <Gold.Chemscore.Hbonds>
donor molecule, donor type, donor heavy atom, donor atom, acceptor molecule, acceptor atom, score
      L1  H     9    25       P1  7948  0.74
      L1  H     9    26       P1  7957  0.99

> <Gold.Chemscore.Hbond.Weighted>
-6.5130

> <Gold.Chemscore.Metal.Weighted>
-0.0000

> <Gold.Chemscore.Lipo.Weighted>
-10.1903

> <Gold.Chemscore.Internal_Hbond.Weighted>
0.0000

> <Gold.Chemscore.DEClash.Weighted>
0.1057

> <Gold.Chemscore.DEInternal.Weighted>
0.2015

> <Gold.Chemscore.Rot.Weighted>
3.3395

> <Gold.Chemscore.Internal.Correction.Weighted>
   9.000000E+99

> <Gold.Protein.RotatedTorsions>
[ 6907 6896 6895 6894 ] final  163.60 input  -60.11 | X-H torsion
[ 7974 7965 7964 7962 ] final -146.35 input  175.53 | X-H torsion
[ 8008 7997 7996 7995 ] final  164.45 input   59.86 | X-H torsion
[ 10167 10162 10161 10158 ] final  -30.65 input  -65.29 | X-H torsion
[ 10718 10713 10712 10709 ] final   73.77 input   66.30 | X-H torsion
[ 10763 10752 10751 10750 ] final  -45.22 input  -60.55 | X-H torsion
[ 11005 11000 10999 10996 ] final   14.39 input  -57.11 | X-H torsion

> <Gold.Protein.ActiveResidues>
 VAL166  LYS551  ARG553  GLY616  TRP617  ASP618  TYR619  PRO620  LYS621  CYS622 
 ASP623  PHE694  ASN695  SER759  ASP760  ASP761  ALA762  ILE779  LEU786  VAL792 
 PHE793  MET794  SER795  GLU796  ALA797  LYS798  CYS799  TRP800  GLU811  SER814 

> <Gold.Protein.RotatedAtoms>
  151.9227  133.3590  159.3902 H   0  0  0  0  0  0  0  0  0  0  0  0  # atno 6907 bound_to 6896
  150.7033  134.4619  159.5394 H   0  0  0  0  0  0  0  0  0  0  0  0  # atno 6908 bound_to 6896
  152.2245  134.8381  160.0532 H   0  0  0  0  0  0  0  0  0  0  0  0  # atno 6909 bound_to 6896
  144.8165  140.5467  143.5607 H   0  0  0  0  0  0  0  0  0  0  0  0  # atno 7974 bound_to 7965
  156.1879  140.1696  156.8149 H   0  0  0  0  0  0  0  0  0  0  0  0  # atno 8008 bound_to 7997
  154.5436  140.0731  156.8584 H   0  0  0  0  0  0  0  0  0  0  0  0  # atno 8009 bound_to 7997
  155.3166  140.3371  155.4244 H   0  0  0  0  0  0  0  0  0  0  0  0  # atno 8010 bound_to 7997
  140.7246  143.3832  151.1563 H   0  0  0  0  0  0  0  0  0  0  0  0  # atno 10167 bound_to 10162
  157.6562  130.9645  150.1116 H   0  0  0  0  0  0  0  0  0  0  0  0  # atno 10718 bound_to 10713
  154.0250  135.6664  153.4775 H   0  0  0  0  0  0  0  0  0  0  0  0  # atno 10763 bound_to 10752
  153.0564  135.5053  154.7987 H   0  0  0  0  0  0  0  0  0  0  0  0  # atno 10764 bound_to 10752
  154.6914  135.3062  154.9439 H   0  0  0  0  0  0  0  0  0  0  0  0  # atno 10765 bound_to 10752
  140.4700  134.1040  155.7731 H   0  0  0  0  0  0  0  0  0  0  0  0  # atno 11005 bound_to 11000
  145.5202  139.1477  143.3557 LP  0  0  0  0  0  0  0  0  0  0  0  0  # atno 17320 bound_to 7965
  146.2469  140.5342  142.8910 LP  0  0  0  0  0  0  0  0  0  0  0  0  # atno 17321 bound_to 7965
  139.7424  143.8903  152.3054 LP  0  0  0  0  0  0  0  0  0  0  0  0  # atno 17342 bound_to 10162
  139.8729  144.7058  150.8966 LP  0  0  0  0  0  0  0  0  0  0  0  0  # atno 17343 bound_to 10162
  156.2011  130.3660  149.8787 LP  0  0  0  0  0  0  0  0  0  0  0  0  # atno 17370 bound_to 10713
  156.6691  130.8813  151.3559 LP  0  0  0  0  0  0  0  0  0  0  0  0  # atno 17371 bound_to 10713
  141.1581  133.8844  157.1922 LP  0  0  0  0  0  0  0  0  0  0  0  0  # atno 17394 bound_to 11000
  139.9891  135.0071  156.9932 LP  0  0  0  0  0  0  0  0  0  0  0  0  # atno 17395 bound_to 11000

$$$$
