AV-unprocessed.smi:36|AV-procd|sdf|283|dock7
  -GOLD-   2262016 63D 1   1.00000     0.00000
 Structure written by MMmdl.
 64 67  0  0  0  0  0  0  0  0  1 V2000
  144.7169  131.9970  151.6152 C   0  0  0  0  0  0  0  0  0  0  0  0
  145.0773  133.3074  150.8957 C   0  0  0  0  0  0  0  0  0  0  0  0
  146.5635  133.2954  150.5009 C   0  0  0  0  0  0  0  0  0  0  0  0
  144.2083  133.4698  149.6374 C   0  0  0  0  0  0  0  0  0  0  0  0
  144.7547  134.7831  152.0650 Si  0  0  0  0  0  0  0  0  0  0  0  0
  145.3953  136.4034  151.3060 C   0  0  0  0  0  0  0  0  0  0  0  0
  142.9072  134.9513  152.4737 C   0  0  0  0  0  0  0  0  0  0  0  0
  145.5930  134.4958  153.5068 O   0  0  0  0  0  0  0  0  0  0  0  0
  146.8921  133.9435  153.5651 C   0  0  0  0  0  0  0  0  0  0  0  0
  147.5886  134.4268  154.8463 C   0  0  2  0  0  0  0  0  0  0  0  0
  148.9041  134.8987  154.5811 O   0  0  0  0  0  0  0  0  0  0  0  0
  149.6814  134.8196  155.7404 C   0  0  1  0  0  0  0  0  0  0  0  0
  149.9378  136.2054  156.2347 N   0  0  0  0  0  0  0  0  0  0  0  0
  149.4926  136.8164  157.3878 C   0  0  0  0  0  0  0  0  0  0  0  0
  149.8864  138.0511  157.5521 N   0  0  0  0  0  0  0  0  0  0  0  0
  150.6635  138.3093  156.4299 C   0  0  0  0  0  0  0  0  0  0  0  0
  151.3864  139.4414  155.9720 C   0  0  0  0  0  0  0  0  0  0  0  0
  151.3912  140.5836  156.6985 N   0  0  0  0  0  0  0  0  0  0  0  0
  152.2357  140.9244  157.8299 C   0  0  0  0  0  0  0  0  0  0  0  0
  153.0228  140.1181  158.3267 O   0  0  0  0  0  0  0  0  0  0  0  0
  152.0342  142.2927  158.4142 C   0  0  0  0  0  0  0  0  0  0  0  0
  151.3362  143.2788  157.6812 C   0  0  0  0  0  0  0  0  0  0  0  0
  151.1246  144.5590  158.2298 C   0  0  0  0  0  0  0  0  0  0  0  0
  151.6028  144.8617  159.5184 C   0  0  0  0  0  0  0  0  0  0  0  0
  152.2897  143.8823  160.2601 C   0  0  0  0  0  0  0  0  0  0  0  0
  152.5016  142.6017  159.7130 C   0  0  0  0  0  0  0  0  0  0  0  0
  152.0528  139.3226  154.7931 N   0  0  0  0  0  0  0  0  0  0  0  0
  152.0129  138.1749  154.1095 C   0  0  0  0  0  0  0  0  0  0  0  0
  151.3764  137.0423  154.4168 N   0  0  0  0  0  0  0  0  0  0  0  0
  150.7050  137.1561  155.5988 C   0  0  0  0  0  0  0  0  0  0  0  0
  148.8820  134.0308  156.7872 C   0  0  0  0  0  0  0  0  0  0  0  0
  147.7865  133.3898  155.9575 C   0  0  2  0  0  0  0  0  0  0  0  0
  148.2099  132.1375  155.4532 O   0  0  0  0  0  0  0  0  0  0  0  0
  144.8924  131.1322  150.9745 H   0  0  0  0  0  0  0  0  0  0  0  0
  143.6669  131.9800  151.9078 H   0  0  0  0  0  0  0  0  0  0  0  0
  145.3126  131.8629  152.5184 H   0  0  0  0  0  0  0  0  0  0  0  0
  147.2059  133.1707  151.3729 H   0  0  0  0  0  0  0  0  0  0  0  0
  146.8506  134.2265  150.0113 H   0  0  0  0  0  0  0  0  0  0  0  0
  146.7844  132.4792  149.8122 H   0  0  0  0  0  0  0  0  0  0  0  0
  144.3765  132.6559  148.9315 H   0  0  0  0  0  0  0  0  0  0  0  0
  144.4302  134.4045  149.1210 H   0  0  0  0  0  0  0  0  0  0  0  0
  143.1464  133.4756  149.8846 H   0  0  0  0  0  0  0  0  0  0  0  0
  144.9040  136.6222  150.3583 H   0  0  0  0  0  0  0  0  0  0  0  0
  146.4669  136.3603  151.1133 H   0  0  0  0  0  0  0  0  0  0  0  0
  145.2167  137.2533  151.9638 H   0  0  0  0  0  0  0  0  0  0  0  0
  142.3125  135.1247  151.5772 H   0  0  0  0  0  0  0  0  0  0  0  0
  142.7234  135.7849  153.1509 H   0  0  0  0  0  0  0  0  0  0  0  0
  142.5186  134.0535  152.9535 H   0  0  0  0  0  0  0  0  0  0  0  0
  146.8611  132.8548  153.5124 H   0  0  0  0  0  0  0  0  0  0  0  0
  147.4462  134.2847  152.6905 H   0  0  0  0  0  0  0  0  0  0  0  0
  147.0245  135.2667  155.2553 H   0  0  0  0  0  0  0  0  0  0  0  0
  150.6639  134.4019  155.5177 H   0  0  0  0  0  0  0  0  0  0  0  0
  148.8602  136.3197  158.1089 H   0  0  0  0  0  0  0  0  0  0  0  0
  150.7478  141.3008  156.3970 H   0  0  0  0  0  0  0  0  0  0  0  0
  150.9609  143.0618  156.6913 H   0  0  0  0  0  0  0  0  0  0  0  0
  150.5933  145.3081  157.6612 H   0  0  0  0  0  0  0  0  0  0  0  0
  151.4392  145.8429  159.9393 H   0  0  0  0  0  0  0  0  0  0  0  0
  152.6515  144.1116  161.2516 H   0  0  0  0  0  0  0  0  0  0  0  0
  153.0218  141.8624  160.3048 H   0  0  0  0  0  0  0  0  0  0  0  0
  152.5693  138.1629  153.1839 H   0  0  0  0  0  0  0  0  0  0  0  0
  149.5168  133.3201  157.3174 H   0  0  0  0  0  0  0  0  0  0  0  0
  148.4450  134.7171  157.5147 H   0  0  0  0  0  0  0  0  0  0  0  0
  146.8741  133.2380  156.5352 H   0  0  0  0  0  0  0  0  0  0  0  0
  148.4236  131.5771  156.1837 H   0  0  0  0  0  0  0  0  0  0  0  0
  1  2  1  0  0  0  0
  1 34  1  0  0  0  0
  1 35  1  0  0  0  0
  1 36  1  0  0  0  0
  2  3  1  0  0  0  0
  2  4  1  0  0  0  0
  2  5  1  0  0  0  0
  3 37  1  0  0  0  0
  3 38  1  0  0  0  0
  3 39  1  0  0  0  0
  4 40  1  0  0  0  0
  4 41  1  0  0  0  0
  4 42  1  0  0  0  0
  5  6  1  0  0  0  0
  5  7  1  0  0  0  0
  5  8  1  0  0  0  0
  6 43  1  0  0  0  0
  6 44  1  0  0  0  0
  6 45  1  0  0  0  0
  7 46  1  0  0  0  0
  7 47  1  0  0  0  0
  7 48  1  0  0  0  0
  8  9  1  0  0  0  0
  9 10  1  0  0  0  0
  9 49  1  0  0  0  0
  9 50  1  0  0  0  0
 10 32  1  0  0  0  0
 10 11  1  0  0  0  0
 10 51  1  0  0  0  0
 11 12  1  0  0  0  0
 12 13  1  0  0  0  0
 12 31  1  0  0  0  0
 12 52  1  0  0  0  0
 13 30  1  0  0  0  0
 13 14  1  0  0  0  0
 14 15  2  0  0  0  0
 14 53  1  0  0  0  0
 15 16  1  0  0  0  0
 16 30  2  0  0  0  0
 16 17  1  0  0  0  0
 17 18  1  0  0  0  0
 17 27  2  0  0  0  0
 18 19  1  0  0  0  0
 18 54  1  0  0  0  0
 19 20  2  0  0  0  0
 19 21  1  0  0  0  0
 21 26  1  0  0  0  0
 21 22  2  0  0  0  0
 22 23  1  0  0  0  0
 22 55  1  0  0  0  0
 23 24  2  0  0  0  0
 23 56  1  0  0  0  0
 24 25  1  0  0  0  0
 24 57  1  0  0  0  0
 25 26  2  0  0  0  0
 25 58  1  0  0  0  0
 26 59  1  0  0  0  0
 27 28  1  0  0  0  0
 28 29  2  0  0  0  0
 28 60  1  0  0  0  0
 29 30  1  0  0  0  0
 31 32  1  0  0  0  0
 31 61  1  0  0  0  0
 31 62  1  0  0  0  0
 32 33  1  0  0  0  0
 32 63  1  0  0  0  0
 33 64  1  0  0  0  0
M  END
> <s_m_source_file>
AV-unprocessed.smi

> <i_m_source_file_index>
36

> <i_lp_mmshare_version>
43012

> <i_f3d_flags>
0

> <s_epik_input>
W0NIM11DKFtDSDNdKShbQ0gzXSlbU2ldKFtDSDNdKShbQ0gzXSlPW0NIMl1bQ0BASF0xT1tDQEhdKFtDSDJdW0NASF0xW09IXSluKFtjSF1uMiljKGMyMyluW2NIXW5jM1tOSF1DKD1PKWM0W2NIXVtjSF1bY0hdW2NIXVtjSF00

> <s_epik_cmdline>
J2VwaWtfcHl0aG9uJywgJy1waCcsICc3LjAnLCAnLXRuJywgJzgnLCAnLW1hJywgJzIwMCcsICctbWV0YWxfYmluZGluZycsICctaW1hZScsICc8aW5maWxlLm1hZT4nLCAnLW9tYWUnLCAnPG91dGZpbGUubWFlPic=

> <r_lp_tautomer_probability>
1

> <r_epik_Ionization_Penalty>
0.00150433

> <r_epik_Ionization_Penalty_Charging>
0

> <r_epik_Ionization_Penalty_Neutral>
0.00150433

> <r_epik_State_Penalty>
0.00724046

> <r_epik_Charging_Adjusted_Penalty>
0.00724046

> <i_epik_Tot_Q>
0

> <i_epik_Tot_abs_Q>
0

> <r_epik_Metal_State_Penalty>
0.323355

> <b_epik_Metal_Only>
0

> <s_epik_Chemistry_Notes>
This compound contains an acetal/aminal-like group ( X-CH(R)-Y where X, Y are N, S, or O) that may be acid/base labile, releasing an aldehyde.

> <s_lp_Force_Field>
OPLS_2005

> <r_lp_Energy>
37.4738

> <b_lp_Chiralities_Consistent>
1

> <s_lp_Variant>
AV-unprocessed.smi:36-5

> <Gold.Version>
5.8.1

> <Gold.Id.Protein>
6NUR|6NUR_protein|mol2

> <Gold.PLP.Fitness>
55.6758

> <Gold.PLP.PLP>
-51.1891

> <Gold.PLP.part.hbond>
-3.0000

> <Gold.PLP.part.metal>
0.0000

> <Gold.PLP.part.buried>
-9.8095

> <Gold.PLP.part.nonpolar>
-39.9725

> <Gold.PLP.part.repulsive>
0.9691

> <Gold.PLP.ligand.clash>
0.0000

> <Gold.PLP.ligand.torsion>
2.1105

> <Gold.PLP.Chemscore.Hbond>
2.8744

> <Gold.PLP.Chemscore.CHOScore>
0.0000

> <Gold.PLP.Chemscore.Metal>
0.0000

> <Gold.Chemscore.Hbonds>
donor molecule, donor type, donor heavy atom, donor atom, acceptor molecule, acceptor atom, score
      P1  H  7989  7998       L1    27  0.87
      P1  H  7997  8010       L1    20  0.98
      P1  H 10752 10763       L1    29  0.84

> <Gold.PLP.Chemscore.Internal.Correction>
0.0847

> <Gold.Rescore>
     Score         DG    S(hbond)    S(metal)    S(lipo)     H(rot)  DE(clash)    DE(int)     intcor
     15.59     -18.40       1.68        0.00     121.52       2.70       0.74       2.08       ----

> <Gold.Chemscore.Fitness>
15.5908

> <Gold.Chemscore.DG>
-18.4017

> <Gold.Chemscore.ZeroCoef>
-5.4800

> <Gold.Chemscore.Hbond>
1.6847

> <Gold.Chemscore.Metal>
0.0000

> <Gold.Chemscore.Lipo>
121.5161

> <Gold.Chemscore.Internal_Hbond>
0.0000

> <Gold.Chemscore.DEClash>
0.7350

> <Gold.Chemscore.DEInternal>
2.0759

> <Gold.Chemscore.Rot>
2.7041

> <Gold.Chemscore.Internal.Correction>
   9.000000E+99

> <Gold.Chemscore.Hbonds>
donor molecule, donor type, donor heavy atom, donor atom, acceptor molecule, acceptor atom, score
      P1  H  7989  7998       L1    27  0.45
      P1  H  7997  8010       L1    20  0.48
      P1  H 10752 10763       L1    29  0.26

> <Gold.Chemscore.Hbond.Weighted>
-5.6268

> <Gold.Chemscore.Metal.Weighted>
-0.0000

> <Gold.Chemscore.Lipo.Weighted>
-14.2174

> <Gold.Chemscore.Internal_Hbond.Weighted>
0.0000

> <Gold.Chemscore.DEClash.Weighted>
0.7350

> <Gold.Chemscore.DEInternal.Weighted>
2.0759

> <Gold.Chemscore.Rot.Weighted>
6.9225

> <Gold.Chemscore.Internal.Correction.Weighted>
   9.000000E+99

> <Gold.Protein.RotatedTorsions>
[ 6907 6896 6895 6894 ] final   36.93 input  -60.11 | X-H torsion
[ 7974 7965 7964 7962 ] final -153.04 input  175.53 | X-H torsion
[ 8008 7997 7996 7995 ] final   31.68 input   59.86 | X-H torsion
[ 10167 10162 10161 10158 ] final   26.52 input  -65.29 | X-H torsion
[ 10718 10713 10712 10709 ] final  178.88 input   66.30 | X-H torsion
[ 10763 10752 10751 10750 ] final   49.65 input  -60.55 | X-H torsion
[ 11005 11000 10999 10996 ] final  132.16 input  -57.11 | X-H torsion

> <Gold.Protein.ActiveResidues>
 VAL166  LYS551  ARG553  GLY616  TRP617  ASP618  TYR619  PRO620  LYS621  CYS622 
 ASP623  PHE694  ASN695  SER759  ASP760  ASP761  ALA762  ILE779  LEU786  VAL792 
 PHE793  MET794  SER795  GLU796  ALA797  LYS798  CYS799  TRP800  GLU811  SER814 

> <Gold.Protein.RotatedAtoms>
  152.1363  134.9097  160.0555 H   0  0  0  0  0  0  0  0  0  0  0  0  # atno 6907 bound_to 6896
  152.0182  133.3883  159.4255 H   0  0  0  0  0  0  0  0  0  0  0  0  # atno 6908 bound_to 6896
  150.6861  134.3577  159.4980 H   0  0  0  0  0  0  0  0  0  0  0  0  # atno 6909 bound_to 6896
  144.7761  140.4579  143.5872 H   0  0  0  0  0  0  0  0  0  0  0  0  # atno 7974 bound_to 7965
  155.1103  140.3238  155.4523 H   0  0  0  0  0  0  0  0  0  0  0  0  # atno 8008 bound_to 7997
  156.2692  140.2045  156.6175 H   0  0  0  0  0  0  0  0  0  0  0  0  # atno 8009 bound_to 7997
  154.6761  140.0531  157.0204 H   0  0  0  0  0  0  0  0  0  0  0  0  # atno 8010 bound_to 7997
  140.5016  144.0306  150.6335 H   0  0  0  0  0  0  0  0  0  0  0  0  # atno 10167 bound_to 10162
  156.8840  130.9825  151.3058 H   0  0  0  0  0  0  0  0  0  0  0  0  # atno 10718 bound_to 10713
  152.9786  135.5905  154.4123 H   0  0  0  0  0  0  0  0  0  0  0  0  # atno 10763 bound_to 10752
  154.3757  135.2767  155.2242 H   0  0  0  0  0  0  0  0  0  0  0  0  # atno 10764 bound_to 10752
  154.4178  135.6066  153.6046 H   0  0  0  0  0  0  0  0  0  0  0  0  # atno 10765 bound_to 10752
  139.9773  134.9559  156.9542 H   0  0  0  0  0  0  0  0  0  0  0  0  # atno 11005 bound_to 11000
  145.6181  139.1521  143.3038 LP  0  0  0  0  0  0  0  0  0  0  0  0  # atno 17320 bound_to 7965
  146.1942  140.6293  142.9132 LP  0  0  0  0  0  0  0  0  0  0  0  0  # atno 17321 bound_to 7965
  140.3603  143.2912  152.0390 LP  0  0  0  0  0  0  0  0  0  0  0  0  # atno 17342 bound_to 10162
  139.4873  144.6308  151.7074 LP  0  0  0  0  0  0  0  0  0  0  0  0  # atno 17343 bound_to 10162
  157.6123  130.8592  149.8972 LP  0  0  0  0  0  0  0  0  0  0  0  0  # atno 17370 bound_to 10713
  156.0662  130.3692  150.0873 LP  0  0  0  0  0  0  0  0  0  0  0  0  # atno 17371 bound_to 10713
  140.5168  134.0947  155.7282 LP  0  0  0  0  0  0  0  0  0  0  0  0  # atno 17394 bound_to 11000
  141.1449  133.9072  157.2239 LP  0  0  0  0  0  0  0  0  0  0  0  0  # atno 17395 bound_to 11000

$$$$
