AV-unprocessed.smi:2955|AV-procd|sdf|11302|dock7
  -GOLD-   2272016203D 1   1.00000     0.00000
 Structure written by MMmdl.
 45 47  0  0  0  0  0  0  0  0  1 V2000
  144.4368  143.6506  157.2629 C   0  0  0  0  0  0  0  0  0  0  0  0
  145.2617  143.1713  156.0860 C   0  0  0  0  0  0  0  0  0  0  0  0
  144.9758  143.6312  154.7851 C   0  0  0  0  0  0  0  0  0  0  0  0
  145.7484  143.1856  153.6972 C   0  0  0  0  0  0  0  0  0  0  0  0
  146.8069  142.2821  153.9082 C   0  0  0  0  0  0  0  0  0  0  0  0
  147.1085  141.8128  155.2031 C   0  0  0  0  0  0  0  0  0  0  0  0
  148.1630  140.9325  155.3201 O   0  0  0  0  0  0  0  0  0  0  0  0
  148.8556  140.8739  156.5599 C   0  0  0  0  0  0  0  0  0  0  0  0
  150.0697  141.8124  156.5279 C   0  0  0  0  0  0  0  0  0  0  0  0
  151.2215  141.2548  157.2251 N   0  0  0  0  0  0  0  0  0  0  0  0
  151.9591  140.1515  156.9263 C   0  0  0  0  0  0  0  0  0  0  0  0
  151.6809  139.2717  155.7330 C   0  0  1  0  0  0  0  0  0  0  0  0
  152.8795  139.1927  154.7764 C   0  0  0  0  0  0  0  0  0  0  0  0
  151.3269  137.9413  156.2161 N   0  0  0  0  0  0  0  0  0  0  0  0
  151.1853  136.8683  155.4279 C   0  0  0  0  0  0  0  0  0  0  0  0
  151.3407  136.9032  154.2100 O   0  0  0  0  0  0  0  0  0  0  0  0
  152.9409  139.8682  157.7869 N   0  0  0  0  0  0  0  0  0  0  0  0
  152.8550  140.8949  158.7042 C   0  0  0  0  0  0  0  0  0  0  0  0
  153.6312  141.1669  159.8536 C   0  0  0  0  0  0  0  0  0  0  0  0
  153.3530  142.2958  160.6517 C   0  0  0  0  0  0  0  0  0  0  0  0
  152.2975  143.1666  160.3123 C   0  0  0  0  0  0  0  0  0  0  0  0
  151.5111  142.9119  159.1724 C   0  0  0  0  0  0  0  0  0  0  0  0
  151.7922  141.7829  158.3793 C   0  0  0  0  0  0  0  0  0  0  0  0
  146.3236  142.2667  156.2939 C   0  0  0  0  0  0  0  0  0  0  0  0
  143.4913  144.0824  156.9331 H   0  0  0  0  0  0  0  0  0  0  0  0
  144.9849  144.4103  157.8206 H   0  0  0  0  0  0  0  0  0  0  0  0
  144.2134  142.8237  157.9374 H   0  0  0  0  0  0  0  0  0  0  0  0
  144.1655  144.3259  154.6177 H   0  0  0  0  0  0  0  0  0  0  0  0
  145.5296  143.5375  152.6998 H   0  0  0  0  0  0  0  0  0  0  0  0
  147.3919  141.9452  153.0653 H   0  0  0  0  0  0  0  0  0  0  0  0
  148.1932  141.1647  157.3769 H   0  0  0  0  0  0  0  0  0  0  0  0
  149.1961  139.8548  156.7488 H   0  0  0  0  0  0  0  0  0  0  0  0
  150.3557  141.9969  155.4922 H   0  0  0  0  0  0  0  0  0  0  0  0
  149.8223  142.7907  156.9379 H   0  0  0  0  0  0  0  0  0  0  0  0
  150.8468  139.6650  155.1546 H   0  0  0  0  0  0  0  0  0  0  0  0
  153.1676  140.1855  154.4316 H   0  0  0  0  0  0  0  0  0  0  0  0
  152.6415  138.5923  153.8979 H   0  0  0  0  0  0  0  0  0  0  0  0
  153.7500  138.7463  155.2585 H   0  0  0  0  0  0  0  0  0  0  0  0
  151.1589  137.8373  157.2063 H   0  0  0  0  0  0  0  0  0  0  0  0
  150.9155  135.9682  156.0025 H   0  0  0  0  0  0  0  0  0  0  0  0
  154.4427  140.5062  160.1213 H   0  0  0  0  0  0  0  0  0  0  0  0
  153.9526  142.4944  161.5279 H   0  0  0  0  0  0  0  0  0  0  0  0
  152.0913  144.0298  160.9281 H   0  0  0  0  0  0  0  0  0  0  0  0
  150.7023  143.5776  158.9104 H   0  0  0  0  0  0  0  0  0  0  0  0
  146.5189  141.9352  157.3025 H   0  0  0  0  0  0  0  0  0  0  0  0
  1  2  1  0  0  0  0
  1 25  1  0  0  0  0
  1 26  1  0  0  0  0
  1 27  1  0  0  0  0
  2 24  1  0  0  0  0
  2  3  2  0  0  0  0
  3  4  1  0  0  0  0
  3 28  1  0  0  0  0
  4  5  2  0  0  0  0
  4 29  1  0  0  0  0
  5  6  1  0  0  0  0
  5 30  1  0  0  0  0
  6  7  1  0  0  0  0
  6 24  2  0  0  0  0
  7  8  1  0  0  0  0
  8  9  1  0  0  0  0
  8 31  1  0  0  0  0
  8 32  1  0  0  0  0
  9 10  1  0  0  0  0
  9 33  1  0  0  0  0
  9 34  1  0  0  0  0
 10 23  1  0  0  0  0
 10 11  1  0  0  0  0
 11 12  1  0  0  0  0
 11 17  2  0  0  0  0
 12 13  1  0  0  0  0
 12 14  1  0  0  0  0
 12 35  1  0  0  0  0
 13 36  1  0  0  0  0
 13 37  1  0  0  0  0
 13 38  1  0  0  0  0
 14 15  1  0  0  0  0
 14 39  1  0  0  0  0
 15 16  2  0  0  0  0
 15 40  1  0  0  0  0
 17 18  1  0  0  0  0
 18 23  2  0  0  0  0
 18 19  1  0  0  0  0
 19 20  2  0  0  0  0
 19 41  1  0  0  0  0
 20 21  1  0  0  0  0
 20 42  1  0  0  0  0
 21 22  2  0  0  0  0
 21 43  1  0  0  0  0
 22 23  1  0  0  0  0
 22 44  1  0  0  0  0
 24 45  1  0  0  0  0
M  END
> <s_m_source_file>
AV-unprocessed.smi

> <i_m_source_file_index>
2955

> <i_lp_mmshare_version>
43012

> <i_f3d_flags>
0

> <s_epik_input>
W0NIM11jMVtjSF1bY0hdW2NIXWMoW2NIXTEpT1tDSDJdW0NIMl1uKGMobjIpW0NASF0oW0NIM10pW05IXVtDSF09TyljKGMyMylbY0hdW2NIXVtjSF1bY0hdMw==

> <s_epik_cmdline>
J2VwaWtfcHl0aG9uJywgJy1waCcsICc3LjAnLCAnLXRuJywgJzgnLCAnLW1hJywgJzIwMCcsICctbWV0YWxfYmluZGluZycsICctaW1hZScsICc8aW5maWxlLm1hZT4nLCAnLW9tYWUnLCAnPG91dGZpbGUubWFlPic=

> <r_lp_tautomer_probability>
1

> <r_epik_Ionization_Penalty>
0.0917757

> <r_epik_Ionization_Penalty_Charging>
0

> <r_epik_Ionization_Penalty_Neutral>
0.0917757

> <r_epik_State_Penalty>
0.0820948

> <r_epik_Charging_Adjusted_Penalty>
0.0820948

> <i_epik_Tot_Q>
0

> <i_epik_Tot_abs_Q>
0

> <r_epik_Metal_State_Penalty>
0.0709956

> <b_epik_Metal_Only>
0

> <s_lp_Force_Field>
OPLS_2005

> <r_lp_Energy>
12.9149

> <b_lp_Chiralities_Consistent>
1

> <s_lp_Variant>
AV-unprocessed.smi:2955-2

> <Gold.Version>
5.8.1

> <Gold.Id.Protein>
6NUR|6NUR_protein|mol2

> <Gold.PLP.Fitness>
51.1072

> <Gold.PLP.PLP>
-46.9661

> <Gold.PLP.part.hbond>
-2.0000

> <Gold.PLP.part.metal>
0.0000

> <Gold.PLP.part.buried>
-6.8637

> <Gold.PLP.part.nonpolar>
-39.6398

> <Gold.PLP.part.repulsive>
1.0524

> <Gold.PLP.ligand.clash>
0.0000

> <Gold.PLP.ligand.torsion>
0.9762

> <Gold.PLP.Chemscore.Hbond>
2.0000

> <Gold.PLP.Chemscore.CHOScore>
0.0000

> <Gold.PLP.Chemscore.Metal>
0.0000

> <Gold.Chemscore.Hbonds>
donor molecule, donor type, donor heavy atom, donor atom, acceptor molecule, acceptor atom, score
      P1  H  7997  8008       L1    17  1.00
      P1  H 10752 10764       L1    16  0.70

> <Gold.PLP.Chemscore.Internal.Correction>
0.0935

> <Gold.Rescore>
     Score         DG    S(hbond)    S(metal)    S(lipo)     H(rot)  DE(clash)    DE(int)     intcor
     16.03     -18.71       1.44        0.00     121.56       2.26       0.09       2.58       ----

> <Gold.Chemscore.Fitness>
16.0306

> <Gold.Chemscore.DG>
-18.7070

> <Gold.Chemscore.ZeroCoef>
-5.4800

> <Gold.Chemscore.Hbond>
1.4357

> <Gold.Chemscore.Metal>
0.0000

> <Gold.Chemscore.Lipo>
121.5594

> <Gold.Chemscore.Internal_Hbond>
0.0000

> <Gold.Chemscore.DEClash>
0.0938

> <Gold.Chemscore.DEInternal>
2.5826

> <Gold.Chemscore.Rot>
2.2619

> <Gold.Chemscore.Internal.Correction>
   9.000000E+99

> <Gold.Chemscore.Hbonds>
donor molecule, donor type, donor heavy atom, donor atom, acceptor molecule, acceptor atom, score
      P1  H  7997  8008       L1    17  0.41
      P1  H 10752 10764       L1    16  0.07

> <Gold.Chemscore.Hbond.Weighted>
-4.7952

> <Gold.Chemscore.Metal.Weighted>
-0.0000

> <Gold.Chemscore.Lipo.Weighted>
-14.2224

> <Gold.Chemscore.Internal_Hbond.Weighted>
0.0000

> <Gold.Chemscore.DEClash.Weighted>
0.0938

> <Gold.Chemscore.DEInternal.Weighted>
2.5826

> <Gold.Chemscore.Rot.Weighted>
5.7906

> <Gold.Chemscore.Internal.Correction.Weighted>
   9.000000E+99

> <Gold.Protein.RotatedTorsions>
[ 6907 6896 6895 6894 ] final   97.29 input  -60.11 | X-H torsion
[ 7974 7965 7964 7962 ] final -179.92 input  175.53 | X-H torsion
[ 8008 7997 7996 7995 ] final  -87.63 input   59.86 | X-H torsion
[ 10167 10162 10161 10158 ] final   77.61 input  -65.29 | X-H torsion
[ 10718 10713 10712 10709 ] final   12.03 input   66.30 | X-H torsion
[ 10763 10752 10751 10750 ] final  -80.91 input  -60.55 | X-H torsion
[ 11005 11000 10999 10996 ] final   38.29 input  -57.11 | X-H torsion

> <Gold.Protein.ActiveResidues>
 VAL166  LYS551  ARG553  GLY616  TRP617  ASP618  TYR619  PRO620  LYS621  CYS622 
 ASP623  PHE694  ASN695  SER759  ASP760  ASP761  ALA762  ILE779  LEU786  VAL792 
 PHE793  MET794  SER795  GLU796  ALA797  LYS798  CYS799  TRP800  GLU811  SER814 

> <Gold.Protein.RotatedAtoms>
  152.5425  134.0755  159.8212 H   0  0  0  0  0  0  0  0  0  0  0  0  # atno 6907 bound_to 6896
  151.0864  133.5342  159.2625 H   0  0  0  0  0  0  0  0  0  0  0  0  # atno 6908 bound_to 6896
  151.2150  135.0505  159.8981 H   0  0  0  0  0  0  0  0  0  0  0  0  # atno 6909 bound_to 6896
  144.7140  140.0645  143.6431 H   0  0  0  0  0  0  0  0  0  0  0  0  # atno 7974 bound_to 7965
  154.6654  140.0563  157.0108 H   0  0  0  0  0  0  0  0  0  0  0  0  # atno 8008 bound_to 7997
  155.1166  140.3243  155.4489 H   0  0  0  0  0  0  0  0  0  0  0  0  # atno 8009 bound_to 7997
  156.2636  140.2005  156.6289 H   0  0  0  0  0  0  0  0  0  0  0  0  # atno 8010 bound_to 7997
  139.9797  144.5835  150.7911 H   0  0  0  0  0  0  0  0  0  0  0  0  # atno 10167 bound_to 10162
  157.0042  130.6091  149.5700 H   0  0  0  0  0  0  0  0  0  0  0  0  # atno 10718 bound_to 10713
  154.5570  135.5645  153.6973 H   0  0  0  0  0  0  0  0  0  0  0  0  # atno 10763 bound_to 10752
  153.0006  135.6264  154.2296 H   0  0  0  0  0  0  0  0  0  0  0  0  # atno 10764 bound_to 10752
  154.2233  135.2869  155.2896 H   0  0  0  0  0  0  0  0  0  0  0  0  # atno 10765 bound_to 10752
  140.2141  134.3720  155.8035 H   0  0  0  0  0  0  0  0  0  0  0  0  # atno 11005 bound_to 11000
  145.9835  139.2960  143.1027 LP  0  0  0  0  0  0  0  0  0  0  0  0  # atno 17320 bound_to 7965
  145.8983  140.9259  143.0516 LP  0  0  0  0  0  0  0  0  0  0  0  0  # atno 17321 bound_to 7965
  140.7493  143.2937  151.3262 LP  0  0  0  0  0  0  0  0  0  0  0  0  # atno 17342 bound_to 10162
  139.6419  144.0524  152.2561 LP  0  0  0  0  0  0  0  0  0  0  0  0  # atno 17343 bound_to 10162
  156.0160  130.5254  150.8135 LP  0  0  0  0  0  0  0  0  0  0  0  0  # atno 17370 bound_to 10713
  157.5368  131.0939  150.9881 LP  0  0  0  0  0  0  0  0  0  0  0  0  # atno 17371 bound_to 10713
  141.2225  133.7158  156.8466 LP  0  0  0  0  0  0  0  0  0  0  0  0  # atno 17394 bound_to 11000
  140.1920  134.8959  157.3071 LP  0  0  0  0  0  0  0  0  0  0  0  0  # atno 17395 bound_to 11000

$$$$
