AV-unprocessed.smi:2604|AV-procd|sdf|10191|dock3
  -GOLD-   2272014203D 1   1.00000     0.00000
 Structure written by MMmdl.
 26 27  0  0  0  0  0  0  0  0  2 V2000
  140.9498  136.0924  154.0642 C   0  0  0  0  0  0  0  0  0  0  0  0
  141.3284  137.4380  153.8898 C   0  0  0  0  0  0  0  0  0  0  0  0
  142.3803  137.8180  153.1337 N   0  0  0  0  0  0  0  0  0  0  0  0
  143.0976  136.8551  152.5163 C   0  0  0  0  0  0  0  0  0  0  0  0
  142.8058  135.4773  152.6218 C   0  0  0  0  0  0  0  0  0  0  0  0
  143.6673  134.4488  151.9056 C   0  0  2  0  0  0  0  0  0  0  0  0
  144.4010  135.0294  150.6744 C   0  0  0  0  0  0  0  0  0  0  0  0
  145.2353  134.0008  150.0608 N   0  0  0  0  0  0  0  0  0  0  0  0
  144.3802  132.9111  149.5999 C   0  0  0  0  0  0  0  0  0  0  0  0
  143.6561  132.2730  150.8003 C   0  0  0  0  0  0  0  0  0  0  0  0
  142.8446  133.2879  151.5026 N   0  3  0  0  0  0  0  0  0  0  0  0
  141.7034  135.0943  153.4174 C   0  0  0  0  0  0  0  0  0  0  0  0
  140.1023  135.8331  154.6814 H   0  0  0  0  0  0  0  0  0  0  0  0
  140.7744  138.2294  154.3731 H   0  0  0  0  0  0  0  0  0  0  0  0
  143.9327  137.1979  151.9233 H   0  0  0  0  0  0  0  0  0  0  0  0
  144.4166  134.0903  152.6141 H   0  0  0  0  0  0  0  0  0  0  0  0
  143.6998  135.4168  149.9343 H   0  0  0  0  0  0  0  0  0  0  0  0
  145.0390  135.8604  150.9770 H   0  0  0  0  0  0  0  0  0  0  0  0
  145.7353  134.3948  149.2756 H   0  0  0  0  0  0  0  0  0  0  0  0
  143.6646  133.2824  148.8647 H   0  0  0  0  0  0  0  0  0  0  0  0
  144.9979  132.1664  149.0974 H   0  0  0  0  0  0  0  0  0  0  0  0
  143.0046  131.4657  150.4656 H   0  0  0  0  0  0  0  0  0  0  0  0
  144.3753  131.8368  151.4953 H   0  0  0  0  0  0  0  0  0  0  0  0
  142.4228  132.8738  152.3214 H   0  0  0  0  0  0  0  0  0  0  0  0
  141.4392  134.0543  153.5406 H   0  0  0  0  0  0  0  0  0  0  0  0
  142.1165  133.6075  150.8802 H   0  0  0  0  0  0  0  0  0  0  0  0
  1 12  1  0  0  0  0
  1  2  2  0  0  0  0
  1 13  1  0  0  0  0
  2  3  1  0  0  0  0
  2 14  1  0  0  0  0
  3  4  2  0  0  0  0
  4  5  1  0  0  0  0
  4 15  1  0  0  0  0
  5  6  1  0  0  0  0
  5 12  2  0  0  0  0
  6 11  1  0  0  0  0
  6  7  1  0  0  0  0
  6 16  1  0  0  0  0
  7  8  1  0  0  0  0
  7 17  1  0  0  0  0
  7 18  1  0  0  0  0
  8  9  1  0  0  0  0
  8 19  1  0  0  0  0
  9 10  1  0  0  0  0
  9 20  1  0  0  0  0
  9 21  1  0  0  0  0
 10 11  1  0  0  0  0
 10 22  1  0  0  0  0
 10 23  1  0  0  0  0
 11 24  1  0  0  0  0
 11 26  1  0  0  0  0
 12 25  1  0  0  0  0
M  CHG  1  11   1
M  END
> <s_m_source_file>
AV-unprocessed.smi

> <i_m_source_file_index>
2604

> <i_lp_mmshare_version>
43012

> <i_f3d_flags>
0

> <s_epik_input>
W2NIXTFbY0hdW2NIXW5bY0hdYzFbQ0BASF0yW0NIMl1bTkhdW0NIMl1bQ0gyXVtOSF0y

> <s_epik_cmdline>
J2VwaWtfcHl0aG9uJywgJy1waCcsICc3LjAnLCAnLXRuJywgJzgnLCAnLW1hJywgJzIwMCcsICctbWV0YWxfYmluZGluZycsICctaW1hZScsICc8aW5maWxlLm1hZT4nLCAnLW9tYWUnLCAnPG91dGZpbGUubWFlPic=

> <r_epik_Ionization_Penalty>
0.0278512

> <r_epik_Ionization_Penalty_Charging>
0.015072

> <r_epik_Ionization_Penalty_Neutral>
0.0127792

> <r_epik_State_Penalty>
0.548815

> <r_epik_Charging_Adjusted_Penalty>
0.563887

> <i_epik_Tot_Q>
1

> <i_epik_Tot_abs_Q>
1

> <r_epik_Metal_State_Penalty>
0.542887

> <b_epik_Metal_Only>
0

> <s_lp_Force_Field>
OPLS_2005

> <r_lp_Energy>
7.72855

> <b_lp_Chiralities_Consistent>
1

> <s_lp_Variant>
AV-unprocessed.smi:2604-3

> <Gold.Version>
5.8.1

> <Gold.Id.Protein>
6NUR|6NUR_protein|mol2

> <Gold.PLP.Fitness>
35.6131

> <Gold.PLP.PLP>
-25.1919

> <Gold.PLP.part.hbond>
-2.0000

> <Gold.PLP.part.metal>
0.0000

> <Gold.PLP.part.buried>
-5.6220

> <Gold.PLP.part.nonpolar>
-18.8065

> <Gold.PLP.part.repulsive>
1.2599

> <Gold.PLP.ligand.clash>
0.0000

> <Gold.PLP.ligand.torsion>
0.7110

> <Gold.PLP.Chemscore.Hbond>
3.0000

> <Gold.PLP.Chemscore.CHOScore>
0.9437

> <Gold.PLP.Chemscore.Metal>
0.0000

> <Gold.Chemscore.Hbonds>
donor molecule, donor type, donor heavy atom, donor atom, acceptor molecule, acceptor atom, score
      L1  H     8    19       P1  7921  1.00
      L1  H    11    26       P1 10186  2.00
      L1  C     4    15       P1 10171  0.94

> <Gold.PLP.Chemscore.Internal.Correction>
0.0121

> <Gold.Rescore>
     Score         DG    S(hbond)    S(metal)    S(lipo)     H(rot)  DE(clash)    DE(int)     intcor
     14.98     -15.78       1.78        0.00      59.21       1.00       0.07       0.74       ----

> <Gold.Chemscore.Fitness>
14.9753

> <Gold.Chemscore.DG>
-15.7829

> <Gold.Chemscore.ZeroCoef>
-5.4800

> <Gold.Chemscore.Hbond>
1.7770

> <Gold.Chemscore.Metal>
0.0000

> <Gold.Chemscore.Lipo>
59.2121

> <Gold.Chemscore.Internal_Hbond>
0.0000

> <Gold.Chemscore.DEClash>
0.0658

> <Gold.Chemscore.DEInternal>
0.7418

> <Gold.Chemscore.Rot>
1.0000

> <Gold.Chemscore.Internal.Correction>
   9.000000E+99

> <Gold.Chemscore.Hbonds>
donor molecule, donor type, donor heavy atom, donor atom, acceptor molecule, acceptor atom, score
      L1  H     8    19       P1  7921  0.78
      L1  H    11    26       P1 10186  0.70

> <Gold.Chemscore.Hbond.Weighted>
-5.9350

> <Gold.Chemscore.Metal.Weighted>
-0.0000

> <Gold.Chemscore.Lipo.Weighted>
-6.9278

> <Gold.Chemscore.Internal_Hbond.Weighted>
0.0000

> <Gold.Chemscore.DEClash.Weighted>
0.0658

> <Gold.Chemscore.DEInternal.Weighted>
0.7418

> <Gold.Chemscore.Rot.Weighted>
2.5600

> <Gold.Chemscore.Internal.Correction.Weighted>
   9.000000E+99

> <Gold.Protein.RotatedTorsions>
[ 6907 6896 6895 6894 ] final  171.51 input  -60.11 | X-H torsion
[ 7974 7965 7964 7962 ] final   -9.89 input  175.53 | X-H torsion
[ 8008 7997 7996 7995 ] final  113.06 input   59.86 | X-H torsion
[ 10167 10162 10161 10158 ] final  132.32 input  -65.29 | X-H torsion
[ 10718 10713 10712 10709 ] final   99.15 input   66.30 | X-H torsion
[ 10763 10752 10751 10750 ] final  141.16 input  -60.55 | X-H torsion
[ 11005 11000 10999 10996 ] final   -7.61 input  -57.11 | X-H torsion

> <Gold.Protein.ActiveResidues>
 VAL166  LYS551  ARG553  GLY616  TRP617  ASP618  TYR619  PRO620  LYS621  CYS622 
 ASP623  PHE694  ASN695  SER759  ASP760  ASP761  ALA762  ILE779  LEU786  VAL792 
 PHE793  MET794  SER795  GLU796  ALA797  LYS798  CYS799  TRP800  GLU811  SER814 

> <Gold.Protein.RotatedAtoms>
  151.7991  133.3368  159.3521 H   0  0  0  0  0  0  0  0  0  0  0  0  # atno 6907 bound_to 6896
  150.7365  134.5770  159.5929 H   0  0  0  0  0  0  0  0  0  0  0  0  # atno 6908 bound_to 6896
  152.3156  134.7446  160.0377 H   0  0  0  0  0  0  0  0  0  0  0  0  # atno 6909 bound_to 6896
  146.2238  140.2683  142.8355 H   0  0  0  0  0  0  0  0  0  0  0  0  # atno 7974 bound_to 7965
  156.2233  140.2987  156.0006 H   0  0  0  0  0  0  0  0  0  0  0  0  # atno 8008 bound_to 7997
  155.2423  140.0423  157.2993 H   0  0  0  0  0  0  0  0  0  0  0  0  # atno 8009 bound_to 7997
  154.5875  140.2392  155.7974 H   0  0  0  0  0  0  0  0  0  0  0  0  # atno 8010 bound_to 7997
  139.5345  144.6667  151.4835 H   0  0  0  0  0  0  0  0  0  0  0  0  # atno 10167 bound_to 10162
  157.6882  131.0661  150.4905 H   0  0  0  0  0  0  0  0  0  0  0  0  # atno 10718 bound_to 10713
  153.9346  135.2986  155.3444 H   0  0  0  0  0  0  0  0  0  0  0  0  # atno 10763 bound_to 10752
  154.7509  135.4981  153.9290 H   0  0  0  0  0  0  0  0  0  0  0  0  # atno 10764 bound_to 10752
  153.1074  135.6750  153.9668 H   0  0  0  0  0  0  0  0  0  0  0  0  # atno 10765 bound_to 10752
  140.7146  133.8880  155.8775 H   0  0  0  0  0  0  0  0  0  0  0  0  # atno 11005 bound_to 11000
  144.9287  140.7950  143.5703 LP  0  0  0  0  0  0  0  0  0  0  0  0  # atno 17320 bound_to 7965
  145.2625  139.1986  143.4884 LP  0  0  0  0  0  0  0  0  0  0  0  0  # atno 17321 bound_to 7965
  140.6543  143.8632  150.6818 LP  0  0  0  0  0  0  0  0  0  0  0  0  # atno 17342 bound_to 10162
  140.2006  143.3962  152.1794 LP  0  0  0  0  0  0  0  0  0  0  0  0  # atno 17343 bound_to 10162
  156.5232  130.4167  149.6240 LP  0  0  0  0  0  0  0  0  0  0  0  0  # atno 17370 bound_to 10713
  156.3136  130.7242  151.2140 LP  0  0  0  0  0  0  0  0  0  0  0  0  # atno 17371 bound_to 10713
  141.0055  134.1091  157.4274 LP  0  0  0  0  0  0  0  0  0  0  0  0  # atno 17394 bound_to 11000
  139.8863  135.0080  156.6490 LP  0  0  0  0  0  0  0  0  0  0  0  0  # atno 17395 bound_to 11000

$$$$
