AV-unprocessed.smi:104|AV-procd|sdf|1005|dock3
  -GOLD-   2262017593D 1   1.00000     0.00000
 Structure written by MMmdl.
 47 49  0  0  0  0  0  0  0  0  1 V2000
  147.6602  134.8358  161.7272 C   0  0  0  0  0  0  0  0  0  0  0  0
  147.9005  136.1293  160.9601 C   0  0  0  0  0  0  0  0  0  0  0  0
  147.3715  137.1858  161.3040 O   0  0  0  0  0  0  0  0  0  0  0  0
  148.7275  135.9577  159.9144 O   0  0  0  0  0  0  0  0  0  0  0  0
  149.0352  137.0397  159.0455 C   0  0  0  0  0  0  0  0  0  0  0  0
  147.8119  137.4198  158.1922 C   0  0  2  0  0  0  0  0  0  0  0  0
  147.4770  136.3808  157.2734 O   0  0  0  0  0  0  0  0  0  0  0  0
  146.8832  136.9360  156.1366 C   0  0  1  0  0  0  0  0  0  0  0  0
  145.5270  136.3430  155.9290 N   0  0  0  0  0  0  0  0  0  0  0  0
  144.8565  135.4408  156.7226 C   0  0  0  0  0  0  0  0  0  0  0  0
  145.6096  134.7419  158.3262 Br  0  0  0  0  0  0  0  0  0  0  0  0
  143.6759  135.0579  156.3245 N   0  0  0  0  0  0  0  0  0  0  0  0
  143.5166  135.7513  155.1314 C   0  0  0  0  0  0  0  0  0  0  0  0
  142.4851  135.8154  154.1609 C   0  0  0  0  0  0  0  0  0  0  0  0
  141.3411  135.1248  154.2624 N   0  0  0  0  0  0  0  0  0  0  0  0
  142.6630  136.6083  153.0785 N   0  0  0  0  0  0  0  0  0  0  0  0
  143.7962  137.3054  152.9515 C   0  0  0  0  0  0  0  0  0  0  0  0
  144.8470  137.3490  153.7748 N   0  0  0  0  0  0  0  0  0  0  0  0
  144.6670  136.5522  154.8686 C   0  0  0  0  0  0  0  0  0  0  0  0
  146.7718  138.4415  156.3661 C   0  0  2  0  0  0  0  0  0  0  0  0
  146.8696  139.1520  155.1388 O   0  0  0  0  0  0  0  0  0  0  0  0
  146.9949  140.4882  155.1413 C   0  0  0  0  0  0  0  0  0  0  0  0
  147.1659  141.0552  153.7388 C   0  0  0  0  0  0  0  0  0  0  0  0
  146.9868  141.2157  156.1342 O   0  0  0  0  0  0  0  0  0  0  0  0
  147.9252  138.6828  157.3304 C   0  0  2  0  0  0  0  0  0  0  0  0
  149.1846  138.6958  156.6596 O   0  0  0  0  0  0  0  0  0  0  0  0
  150.2916  139.1349  157.2860 C   0  0  0  0  0  0  0  0  0  0  0  0
  151.4702  139.2927  156.3356 C   0  0  0  0  0  0  0  0  0  0  0  0
  150.3926  139.3950  158.4848 O   0  0  0  0  0  0  0  0  0  0  0  0
  146.9380  134.2136  161.1988 H   0  0  0  0  0  0  0  0  0  0  0  0
  147.2708  135.0490  162.7230 H   0  0  0  0  0  0  0  0  0  0  0  0
  148.5893  134.2756  161.8335 H   0  0  0  0  0  0  0  0  0  0  0  0
  149.4514  137.8980  159.5743 H   0  0  0  0  0  0  0  0  0  0  0  0
  149.8237  136.6849  158.3818 H   0  0  0  0  0  0  0  0  0  0  0  0
  146.9524  137.5314  158.8544 H   0  0  0  0  0  0  0  0  0  0  0  0
  147.4695  136.6649  155.2586 H   0  0  0  0  0  0  0  0  0  0  0  0
  141.1849  134.5242  155.0592 H   0  0  0  0  0  0  0  0  0  0  0  0
  140.6377  135.2064  153.5426 H   0  0  0  0  0  0  0  0  0  0  0  0
  143.8723  137.9160  152.0637 H   0  0  0  0  0  0  0  0  0  0  0  0
  145.8247  138.6384  156.8726 H   0  0  0  0  0  0  0  0  0  0  0  0
  146.2998  140.8108  153.1236 H   0  0  0  0  0  0  0  0  0  0  0  0
  148.0556  140.6365  153.2683 H   0  0  0  0  0  0  0  0  0  0  0  0
  147.2712  142.1397  153.7736 H   0  0  0  0  0  0  0  0  0  0  0  0
  147.7813  139.5827  157.9302 H   0  0  0  0  0  0  0  0  0  0  0  0
  151.2263  140.0016  155.5443 H   0  0  0  0  0  0  0  0  0  0  0  0
  151.7186  138.3339  155.8801 H   0  0  0  0  0  0  0  0  0  0  0  0
  152.3469  139.6592  156.8703 H   0  0  0  0  0  0  0  0  0  0  0  0
  1  2  1  0  0  0  0
  1 30  1  0  0  0  0
  1 31  1  0  0  0  0
  1 32  1  0  0  0  0
  2  3  2  0  0  0  0
  2  4  1  0  0  0  0
  4  5  1  0  0  0  0
  5  6  1  0  0  0  0
  5 33  1  0  0  0  0
  5 34  1  0  0  0  0
  6 25  1  0  0  0  0
  6  7  1  0  0  0  0
  6 35  1  0  0  0  0
  7  8  1  0  0  0  0
  8  9  1  0  0  0  0
  8 20  1  0  0  0  0
  8 36  1  0  0  0  0
  9 19  1  0  0  0  0
  9 10  1  0  0  0  0
 10 11  1  0  0  0  0
 10 12  2  0  0  0  0
 12 13  1  0  0  0  0
 13 19  2  0  0  0  0
 13 14  1  0  0  0  0
 14 15  1  0  0  0  0
 14 16  2  0  0  0  0
 15 37  1  0  0  0  0
 15 38  1  0  0  0  0
 16 17  1  0  0  0  0
 17 18  2  0  0  0  0
 17 39  1  0  0  0  0
 18 19  1  0  0  0  0
 20 21  1  0  0  0  0
 20 25  1  0  0  0  0
 20 40  1  0  0  0  0
 21 22  1  0  0  0  0
 22 23  1  0  0  0  0
 22 24  2  0  0  0  0
 23 41  1  0  0  0  0
 23 42  1  0  0  0  0
 23 43  1  0  0  0  0
 25 26  1  0  0  0  0
 25 44  1  0  0  0  0
 26 27  1  0  0  0  0
 27 28  1  0  0  0  0
 27 29  2  0  0  0  0
 28 45  1  0  0  0  0
 28 46  1  0  0  0  0
 28 47  1  0  0  0  0
M  END
> <s_m_source_file>
AV-unprocessed.smi

> <i_m_source_file_index>
104

> <i_lp_mmshare_version>
43012

> <i_f3d_flags>
0

> <s_epik_input>
W0NIM11DKD1PKU9bQ0gyXVtDQEBIXTFPW0NASF0oW0NAQEhdKE9DKD1PKVtDSDNdKVtDQEhdMU9DKD1PKVtDSDNdKW4oYyhCciluMiljKGMyMyluW2NIXW5jM1tOSDJd

> <s_epik_cmdline>
J2VwaWtfcHl0aG9uJywgJy1waCcsICc3LjAnLCAnLXRuJywgJzgnLCAnLW1hJywgJzIwMCcsICctbWV0YWxfYmluZGluZycsICctaW1hZScsICc8aW5maWxlLm1hZT4nLCAnLW9tYWUnLCAnPG91dGZpbGUubWFlPic=

> <r_lp_tautomer_probability>
1

> <r_epik_Ionization_Penalty>
7.36622e-05

> <r_epik_Ionization_Penalty_Charging>
0

> <r_epik_Ionization_Penalty_Neutral>
7.36622e-05

> <r_epik_State_Penalty>
-0

> <r_epik_Charging_Adjusted_Penalty>
0

> <i_epik_Tot_Q>
0

> <i_epik_Tot_abs_Q>
0

> <r_epik_Metal_State_Penalty>
-0

> <b_epik_Metal_Only>
0

> <s_epik_Chemistry_Notes>
This compound has an ester and may undergo hydrolysis at high or low pH. This compound contains an acetal/aminal-like group ( X-CH(R)-Y where X, Y are N, S, or O) that may be acid/base labile, releasing an aldehyde.

> <s_lp_Force_Field>
OPLS_2005

> <r_lp_Energy>
18.0917

> <b_lp_Chiralities_Consistent>
1

> <s_lp_Variant>
AV-unprocessed.smi:104-13

> <Gold.Version>
5.8.1

> <Gold.Id.Protein>
6NUR|6NUR_protein|mol2

> <Gold.PLP.Fitness>
36.0422

> <Gold.PLP.PLP>
-22.7795

> <Gold.PLP.part.hbond>
-3.1291

> <Gold.PLP.part.metal>
0.0000

> <Gold.PLP.part.buried>
-5.0430

> <Gold.PLP.part.nonpolar>
-14.7041

> <Gold.PLP.part.repulsive>
0.5300

> <Gold.PLP.ligand.clash>
0.0000

> <Gold.PLP.ligand.torsion>
0.3974

> <Gold.PLP.Chemscore.Hbond>
2.8560

> <Gold.PLP.Chemscore.CHOScore>
1.7258

> <Gold.PLP.Chemscore.Metal>
0.0000

> <Gold.Chemscore.Hbonds>
donor molecule, donor type, donor heavy atom, donor atom, acceptor molecule, acceptor atom, score
      L1  H    15    37       P1 11000  1.00
      P1  H  6931  6943       L1     3  0.82
      P1  H  6934  6947       L1     3  0.98
      L1  C    17    39       P1 10171  1.00
      L1  C    17    39       P1 10175  0.67

> <Gold.PLP.Chemscore.Internal.Correction>
0.3122

> <Gold.Rescore>
     Score         DG    S(hbond)    S(metal)    S(lipo)     H(rot)  DE(clash)    DE(int)     intcor
      3.60      -7.10       2.77        0.00      29.10       4.31       0.01       3.49       ----

> <Gold.Chemscore.Fitness>
3.5957

> <Gold.Chemscore.DG>
-7.1008

> <Gold.Chemscore.ZeroCoef>
-5.4800

> <Gold.Chemscore.Hbond>
2.7671

> <Gold.Chemscore.Metal>
0.0000

> <Gold.Chemscore.Lipo>
29.0979

> <Gold.Chemscore.Internal_Hbond>
0.0000

> <Gold.Chemscore.DEClash>
0.0146

> <Gold.Chemscore.DEInternal>
3.4905

> <Gold.Chemscore.Rot>
4.3070

> <Gold.Chemscore.Internal.Correction>
   9.000000E+99

> <Gold.Chemscore.Hbonds>
donor molecule, donor type, donor heavy atom, donor atom, acceptor molecule, acceptor atom, score
      L1  H    15    37       P1 11000  0.33
      P1  H  6931  6943       L1     3  0.23
      P1  H  6934  6947       L1     3  0.93

> <Gold.Chemscore.Hbond.Weighted>
-9.2422

> <Gold.Chemscore.Metal.Weighted>
-0.0000

> <Gold.Chemscore.Lipo.Weighted>
-3.4045

> <Gold.Chemscore.Internal_Hbond.Weighted>
0.0000

> <Gold.Chemscore.DEClash.Weighted>
0.0146

> <Gold.Chemscore.DEInternal.Weighted>
3.4905

> <Gold.Chemscore.Rot.Weighted>
11.0259

> <Gold.Chemscore.Internal.Correction.Weighted>
   9.000000E+99

> <Gold.Protein.RotatedTorsions>
[ 6907 6896 6895 6894 ] final  -96.25 input  -60.11 | X-H torsion
[ 7974 7965 7964 7962 ] final  110.94 input  175.53 | X-H torsion
[ 8008 7997 7996 7995 ] final    9.49 input   59.86 | X-H torsion
[ 10167 10162 10161 10158 ] final   51.13 input  -65.29 | X-H torsion
[ 10718 10713 10712 10709 ] final   97.11 input   66.30 | X-H torsion
[ 10763 10752 10751 10750 ] final  172.79 input  -60.55 | X-H torsion
[ 11005 11000 10999 10996 ] final -115.65 input  -57.11 | X-H torsion

> <Gold.Protein.ActiveResidues>
 VAL166  LYS551  ARG553  GLY616  TRP617  ASP618  TYR619  PRO620  LYS621  CYS622 
 ASP623  PHE694  ASN695  SER759  ASP760  ASP761  ALA762  ILE779  LEU786  VAL792 
 PHE793  MET794  SER795  GLU796  ALA797  LYS798  CYS799  TRP800  GLU811  SER814 

> <Gold.Protein.RotatedAtoms>
  150.6984  134.1532  159.4147 H   0  0  0  0  0  0  0  0  0  0  0  0  # atno 6907 bound_to 6896
  151.9514  135.0165  160.0551 H   0  0  0  0  0  0  0  0  0  0  0  0  # atno 6908 bound_to 6896
  152.2007  133.4804  159.5094 H   0  0  0  0  0  0  0  0  0  0  0  0  # atno 6909 bound_to 6896
  145.2485  139.2749  143.4080 H   0  0  0  0  0  0  0  0  0  0  0  0  # atno 7974 bound_to 7965
  154.7808  140.2818  155.6065 H   0  0  0  0  0  0  0  0  0  0  0  0  # atno 8008 bound_to 7997
  156.2949  140.2623  156.2561 H   0  0  0  0  0  0  0  0  0  0  0  0  # atno 8009 bound_to 7997
  154.9787  140.0375  157.2257 H   0  0  0  0  0  0  0  0  0  0  0  0  # atno 8010 bound_to 7997
  140.2652  144.3328  150.6306 H   0  0  0  0  0  0  0  0  0  0  0  0  # atno 10167 bound_to 10162
  157.6917  131.0599  150.4593 H   0  0  0  0  0  0  0  0  0  0  0  0  # atno 10718 bound_to 10713
  154.4310  135.2760  155.1912 H   0  0  0  0  0  0  0  0  0  0  0  0  # atno 10763 bound_to 10752
  154.3818  135.6086  153.5799 H   0  0  0  0  0  0  0  0  0  0  0  0  # atno 10764 bound_to 10752
  152.9836  135.5882  154.4621 H   0  0  0  0  0  0  0  0  0  0  0  0  # atno 10765 bound_to 10752
  141.0474  133.9742  157.2895 H   0  0  0  0  0  0  0  0  0  0  0  0  # atno 11005 bound_to 11000
  146.3309  140.2869  142.8613 LP  0  0  0  0  0  0  0  0  0  0  0  0  # atno 17320 bound_to 7965
  144.9524  140.8192  143.5564 LP  0  0  0  0  0  0  0  0  0  0  0  0  # atno 17321 bound_to 7965
  140.5934  143.2167  151.7210 LP  0  0  0  0  0  0  0  0  0  0  0  0  # atno 17342 bound_to 10162
  139.5005  144.3904  152.0285 LP  0  0  0  0  0  0  0  0  0  0  0  0  # atno 17343 bound_to 10162
  156.4939  130.4101  149.6391 LP  0  0  0  0  0  0  0  0  0  0  0  0  # atno 17370 bound_to 10713
  156.3391  130.7372  151.2315 LP  0  0  0  0  0  0  0  0  0  0  0  0  # atno 17371 bound_to 10713
  139.9322  135.0199  156.8439 LP  0  0  0  0  0  0  0  0  0  0  0  0  # atno 17394 bound_to 11000
  140.6121  134.0072  155.7581 LP  0  0  0  0  0  0  0  0  0  0  0  0  # atno 17395 bound_to 11000

$$$$
