AV-unprocessed.smi:1667|AV-procd|sdf|6680|dock5
  -GOLD-   22720 7393D 1   1.00000     0.00000
 Structure written by MMmdl.
 46 48  0  0  0  0  0  0  0  0  2 V2000
  147.4212  133.1740  152.0734 C   0  0  0  0  0  0  0  0  0  0  0  0
  147.1645  133.5335  153.5324 C   0  0  0  0  0  0  0  0  0  0  0  0
  146.5424  132.7606  154.2582 O   0  0  0  0  0  0  0  0  0  0  0  0
  147.6550  134.7100  153.9514 N   0  0  0  0  0  0  0  0  0  0  0  0
  147.4880  135.2720  155.2907 C   0  0  2  0  0  0  0  0  0  0  0  0
  146.0037  135.5920  155.5181 C   0  0  0  0  0  0  0  0  0  0  0  0
  148.3293  136.4943  155.5347 C   0  0  0  0  0  0  0  0  0  0  0  0
  149.0478  137.1785  154.5974 N   0  3  0  0  0  0  0  0  0  0  0  0
  149.6781  138.2739  155.1857 C   0  0  0  0  0  0  0  0  0  0  0  0
  150.5092  139.2477  154.6409 C   0  0  0  0  0  0  0  0  0  0  0  0
  150.9791  140.2433  155.5224 C   0  0  0  0  0  0  0  0  0  0  0  0
  150.6178  140.2468  156.8853 C   0  0  0  0  0  0  0  0  0  0  0  0
  149.7747  139.2533  157.4255 C   0  0  0  0  0  0  0  0  0  0  0  0
  149.3197  138.2688  156.5484 C   0  0  0  0  0  0  0  0  0  0  0  0
  148.4947  137.1514  156.7213 N   0  0  0  0  0  0  0  0  0  0  0  0
  147.9387  136.8762  158.0565 C   0  0  0  0  0  0  0  0  0  0  0  0
  148.7897  135.8905  158.8840 C   0  0  1  0  0  0  0  0  0  0  0  0
  150.0737  136.4559  159.0432 O   0  0  0  0  0  0  0  0  0  0  0  0
  148.1555  135.5348  160.2206 C   0  0  0  0  0  0  0  0  0  0  0  0
  147.7661  134.2065  160.5016 C   0  0  0  0  0  0  0  0  0  0  0  0
  147.1684  133.8882  161.7365 C   0  0  0  0  0  0  0  0  0  0  0  0
  146.9512  134.8966  162.6948 C   0  0  0  0  0  0  0  0  0  0  0  0
  147.3398  136.2223  162.4211 C   0  0  0  0  0  0  0  0  0  0  0  0
  147.1378  137.1918  163.3444 F   0  0  0  0  0  0  0  0  0  0  0  0
  147.9440  136.5394  161.1891 C   0  0  0  0  0  0  0  0  0  0  0  0
  147.7853  134.5057  156.0072 H   0  0  0  0  0  0  0  0  0  0  0  0
  148.4665  133.3419  151.8125 H   0  0  0  0  0  0  0  0  0  0  0  0
  146.7983  133.7842  151.4191 H   0  0  0  0  0  0  0  0  0  0  0  0
  147.1883  132.1248  151.8869 H   0  0  0  0  0  0  0  0  0  0  0  0
  148.1540  135.2772  153.2813 H   0  0  0  0  0  0  0  0  0  0  0  0
  145.8258  135.9548  156.5305 H   0  0  0  0  0  0  0  0  0  0  0  0
  145.3842  134.7060  155.3756 H   0  0  0  0  0  0  0  0  0  0  0  0
  145.6527  136.3588  154.8265 H   0  0  0  0  0  0  0  0  0  0  0  0
  150.7834  139.2492  153.5961 H   0  0  0  0  0  0  0  0  0  0  0  0
  151.6268  141.0213  155.1449 H   0  0  0  0  0  0  0  0  0  0  0  0
  150.9940  141.0280  157.5298 H   0  0  0  0  0  0  0  0  0  0  0  0
  149.5024  139.2668  158.4706 H   0  0  0  0  0  0  0  0  0  0  0  0
  147.8427  137.8311  158.5758 H   0  0  0  0  0  0  0  0  0  0  0  0
  146.9251  136.4945  157.9344 H   0  0  0  0  0  0  0  0  0  0  0  0
  148.9342  134.9709  158.3168 H   0  0  0  0  0  0  0  0  0  0  0  0
  150.3706  136.7672  158.2015 H   0  0  0  0  0  0  0  0  0  0  0  0
  147.9259  133.4275  159.7703 H   0  0  0  0  0  0  0  0  0  0  0  0
  146.8740  132.8707  161.9480 H   0  0  0  0  0  0  0  0  0  0  0  0
  146.4920  134.6527  163.6414 H   0  0  0  0  0  0  0  0  0  0  0  0
  148.2413  137.5585  160.9898 H   0  0  0  0  0  0  0  0  0  0  0  0
  149.1032  136.9067  153.6244 H   0  0  0  0  0  0  0  0  0  0  0  0
  1  2  1  0  0  0  0
  1 27  1  0  0  0  0
  1 28  1  0  0  0  0
  1 29  1  0  0  0  0
  2  3  2  0  0  0  0
  2  4  1  0  0  0  0
  4  5  1  0  0  0  0
  4 30  1  0  0  0  0
  5 26  1  0  0  0  0
  5  6  1  0  0  0  0
  5  7  1  0  0  0  0
  6 31  1  0  0  0  0
  6 32  1  0  0  0  0
  6 33  1  0  0  0  0
  7 15  1  0  0  0  0
  7  8  2  0  0  0  0
  8  9  1  0  0  0  0
  8 46  1  0  0  0  0
  9 14  2  0  0  0  0
  9 10  1  0  0  0  0
 10 11  2  0  0  0  0
 10 34  1  0  0  0  0
 11 12  1  0  0  0  0
 11 35  1  0  0  0  0
 12 13  2  0  0  0  0
 12 36  1  0  0  0  0
 13 14  1  0  0  0  0
 13 37  1  0  0  0  0
 14 15  1  0  0  0  0
 15 16  1  0  0  0  0
 16 17  1  0  0  0  0
 16 38  1  0  0  0  0
 16 39  1  0  0  0  0
 17 18  1  0  0  0  0
 17 19  1  0  0  0  0
 17 40  1  0  0  0  0
 18 41  1  0  0  0  0
 19 25  1  0  0  0  0
 19 20  2  0  0  0  0
 20 21  1  0  0  0  0
 20 42  1  0  0  0  0
 21 22  2  0  0  0  0
 21 43  1  0  0  0  0
 22 23  1  0  0  0  0
 22 44  1  0  0  0  0
 23 24  1  0  0  0  0
 23 25  2  0  0  0  0
 25 45  1  0  0  0  0
M  CHG  1   8   1
M  END
> <s_m_source_file>
AV-unprocessed.smi

> <i_m_source_file_index>
1667

> <i_lp_mmshare_version>
43012

> <i_f3d_flags>
0

> <s_epik_input>
W0NIM11DKD1PKVtOSF1bQ0BASF0oW0NIM10pYyhuMSluKGMoYzEyKVtjSF1bY0hdW2NIXVtjSF0yKVtDSDJdW0NASF0oW09IXSljM1tjSF1bY0hdW2NIXWMoRilbY0hdMw==

> <s_epik_cmdline>
J2VwaWtfcHl0aG9uJywgJy1waCcsICc3LjAnLCAnLXRuJywgJzgnLCAnLW1hJywgJzIwMCcsICctbWV0YWxfYmluZGluZycsICctaW1hZScsICc8aW5maWxlLm1hZT4nLCAnLW9tYWUnLCAnPG91dGZpbGUubWFlPic=

> <r_epik_Ionization_Penalty>
0.950383

> <r_epik_Ionization_Penalty_Charging>
0.950379

> <r_epik_Ionization_Penalty_Neutral>
3.60962e-06

> <r_epik_State_Penalty>
0.994584

> <r_epik_Charging_Adjusted_Penalty>
1.94496

> <i_epik_Tot_Q>
1

> <i_epik_Tot_abs_Q>
1

> <r_epik_Metal_State_Penalty>
1.10485

> <b_epik_Metal_Only>
0

> <s_lp_Force_Field>
OPLS_2005

> <r_lp_Energy>
10.8153

> <b_lp_Chiralities_Consistent>
1

> <s_lp_Variant>
AV-unprocessed.smi:1667-8

> <Gold.Version>
5.8.1

> <Gold.Id.Protein>
6NUR|6NUR_protein|mol2

> <Gold.PLP.Fitness>
49.3835

> <Gold.PLP.PLP>
-38.4112

> <Gold.PLP.part.hbond>
-3.0000

> <Gold.PLP.part.metal>
0.0000

> <Gold.PLP.part.buried>
-1.3504

> <Gold.PLP.part.nonpolar>
-33.3250

> <Gold.PLP.part.repulsive>
0.0749

> <Gold.PLP.ligand.clash>
0.0000

> <Gold.PLP.ligand.torsion>
0.5359

> <Gold.PLP.Chemscore.Hbond>
4.0000

> <Gold.PLP.Chemscore.CHOScore>
0.0000

> <Gold.PLP.Chemscore.Metal>
0.0000

> <Gold.Chemscore.Hbonds>
donor molecule, donor type, donor heavy atom, donor atom, acceptor molecule, acceptor atom, score
      L1  H     4    30       P1  7948  1.00
      L1  H     8    46       P1  7948  2.00
      P1  H  6896  6907       L1    18  1.00

> <Gold.PLP.Chemscore.Internal.Correction>
0.0442

> <Gold.Rescore>
     Score         DG    S(hbond)    S(metal)    S(lipo)     H(rot)  DE(clash)    DE(int)     intcor
     18.10     -18.66       2.85        0.00      86.73       2.53       0.09       0.46       ----

> <Gold.Chemscore.Fitness>
18.1039

> <Gold.Chemscore.DG>
-18.6562

> <Gold.Chemscore.ZeroCoef>
-5.4800

> <Gold.Chemscore.Hbond>
2.8485

> <Gold.Chemscore.Metal>
0.0000

> <Gold.Chemscore.Lipo>
86.7350

> <Gold.Chemscore.Internal_Hbond>
0.0000

> <Gold.Chemscore.DEClash>
0.0927

> <Gold.Chemscore.DEInternal>
0.4596

> <Gold.Chemscore.Rot>
2.5335

> <Gold.Chemscore.Internal.Correction>
   9.000000E+99

> <Gold.Chemscore.Hbonds>
donor molecule, donor type, donor heavy atom, donor atom, acceptor molecule, acceptor atom, score
      L1  H     4    30       P1  7948  1.00
      L1  H     8    46       P1  7948  1.00
      P1  H  6896  6907       L1    18  0.33

> <Gold.Chemscore.Hbond.Weighted>
-9.5138

> <Gold.Chemscore.Metal.Weighted>
-0.0000

> <Gold.Chemscore.Lipo.Weighted>
-10.1480

> <Gold.Chemscore.Internal_Hbond.Weighted>
0.0000

> <Gold.Chemscore.DEClash.Weighted>
0.0927

> <Gold.Chemscore.DEInternal.Weighted>
0.4596

> <Gold.Chemscore.Rot.Weighted>
6.4856

> <Gold.Chemscore.Internal.Correction.Weighted>
   9.000000E+99

> <Gold.Protein.RotatedTorsions>
[ 6907 6896 6895 6894 ] final  -33.07 input  -60.11 | X-H torsion
[ 7974 7965 7964 7962 ] final  -53.39 input  175.53 | X-H torsion
[ 8008 7997 7996 7995 ] final -144.01 input   59.86 | X-H torsion
[ 10167 10162 10161 10158 ] final    1.76 input  -65.29 | X-H torsion
[ 10718 10713 10712 10709 ] final   -7.29 input   66.30 | X-H torsion
[ 10763 10752 10751 10750 ] final   89.55 input  -60.55 | X-H torsion
[ 11005 11000 10999 10996 ] final   -1.94 input  -57.11 | X-H torsion

> <Gold.Protein.ActiveResidues>
 VAL166  LYS551  ARG553  GLY616  TRP617  ASP618  TYR619  PRO620  LYS621  CYS622 
 ASP623  PHE694  ASN695  SER759  ASP760  ASP761  ALA762  ILE779  LEU786  VAL792 
 PHE793  MET794  SER795  GLU796  ALA797  LYS798  CYS799  TRP800  GLU811  SER814 

> <Gold.Protein.RotatedAtoms>
  151.0705  134.9795  159.8305 H   0  0  0  0  0  0  0  0  0  0  0  0  # atno 6907 bound_to 6896
  152.5407  134.2305  159.8833 H   0  0  0  0  0  0  0  0  0  0  0  0  # atno 6908 bound_to 6896
  151.2330  133.4397  159.2638 H   0  0  0  0  0  0  0  0  0  0  0  0  # atno 6909 bound_to 6896
  145.8974  140.8022  142.9760 H   0  0  0  0  0  0  0  0  0  0  0  0  # atno 7974 bound_to 7965
  155.5199  140.0590  157.2908 H   0  0  0  0  0  0  0  0  0  0  0  0  # atno 8008 bound_to 7997
  154.4521  140.1954  156.0433 H   0  0  0  0  0  0  0  0  0  0  0  0  # atno 8009 bound_to 7997
  156.0726  140.3258  155.7598 H   0  0  0  0  0  0  0  0  0  0  0  0  # atno 8010 bound_to 7997
  140.6667  143.7159  150.7842 H   0  0  0  0  0  0  0  0  0  0  0  0  # atno 10167 bound_to 10162
  156.7194  130.5146  149.5872 H   0  0  0  0  0  0  0  0  0  0  0  0  # atno 10718 bound_to 10713
  153.1883  135.4466  155.0116 H   0  0  0  0  0  0  0  0  0  0  0  0  # atno 10763 bound_to 10752
  154.8074  135.3280  154.7398 H   0  0  0  0  0  0  0  0  0  0  0  0  # atno 10764 bound_to 10752
  153.7854  135.6974  153.4936 H   0  0  0  0  0  0  0  0  0  0  0  0  # atno 10765 bound_to 10752
  140.6529  133.9389  155.8390 H   0  0  0  0  0  0  0  0  0  0  0  0  # atno 11005 bound_to 11000
  144.6733  140.1624  143.7421 LP  0  0  0  0  0  0  0  0  0  0  0  0  # atno 17320 bound_to 7965
  145.8833  139.2335  143.1592 LP  0  0  0  0  0  0  0  0  0  0  0  0  # atno 17321 bound_to 7965
  140.0837  143.4944  152.2516 LP  0  0  0  0  0  0  0  0  0  0  0  0  # atno 17342 bound_to 10162
  139.5919  144.7553  151.3379 LP  0  0  0  0  0  0  0  0  0  0  0  0  # atno 17343 bound_to 10162
  156.1605  130.6371  151.0713 LP  0  0  0  0  0  0  0  0  0  0  0  0  # atno 17370 bound_to 10713
  157.6904  131.0811  150.7123 LP  0  0  0  0  0  0  0  0  0  0  0  0  # atno 17371 bound_to 10713
  141.0523  134.0466  157.3767 LP  0  0  0  0  0  0  0  0  0  0  0  0  # atno 17394 bound_to 11000
  139.9039  135.0174  156.7399 LP  0  0  0  0  0  0  0  0  0  0  0  0  # atno 17395 bound_to 11000

$$$$
