AV-unprocessed.smi:1671|AV-procd|sdf|6697|dock4
  -GOLD-   22720 7433D 1   1.00000     0.00000
 Structure written by MMmdl.
 44 45  0  0  0  0  0  0  0  0  1 V2000
  151.0106  132.8235  156.5240 C   0  0  0  0  0  0  0  0  0  0  0  0
  149.5882  133.8372  157.0138 S   0  0  0  0  0  0  0  0  0  0  0  0
  149.3789  134.8841  155.5420 C   0  0  2  0  0  0  0  0  0  0  0  0
  149.1510  134.0120  154.2967 C   0  0  0  0  0  0  0  0  0  0  0  0
  150.5655  135.8363  155.3482 C   0  0  0  0  0  0  0  0  0  0  0  0
  151.5267  135.7989  156.1171 O   0  0  0  0  0  0  0  0  0  0  0  0
  150.4736  136.7011  154.3253 N   0  0  0  0  0  0  0  0  0  0  0  0
  151.4501  137.7333  153.9912 C   0  0  0  0  0  0  0  0  0  0  0  0
  151.5559  138.8255  155.0444 C   0  0  0  0  0  0  0  0  0  0  0  0
  150.6274  139.8845  155.0724 C   0  0  0  0  0  0  0  0  0  0  0  0
  150.7521  140.8789  156.0612 C   0  0  0  0  0  0  0  0  0  0  0  0
  151.8102  140.7940  156.9975 C   0  0  0  0  0  0  0  0  0  0  0  0
  151.9532  141.7775  158.0007 N   0  0  0  0  0  0  0  0  0  0  0  0
  150.9827  142.8700  158.0337 C   0  0  0  0  0  0  0  0  0  0  0  0
  151.4596  143.9811  158.9833 C   0  0  0  0  0  0  0  0  0  0  0  0
  151.7189  143.4320  160.2707 O   0  0  0  0  0  0  0  0  0  0  0  0
  152.7496  142.4486  160.2370 C   0  0  1  0  0  0  0  0  0  0  0  0
  153.0212  141.9872  161.6726 C   0  0  0  0  0  0  0  0  0  0  0  0
  152.3117  141.2836  159.3279 C   0  0  0  0  0  0  0  0  0  0  0  0
  152.7035  139.7742  156.9654 N   0  0  0  0  0  0  0  0  0  0  0  0
  152.5808  138.8250  156.0142 C   0  0  0  0  0  0  0  0  0  0  0  0
  151.2963  132.1615  157.3414 H   0  0  0  0  0  0  0  0  0  0  0  0
  151.8635  133.4559  156.2784 H   0  0  0  0  0  0  0  0  0  0  0  0
  150.7698  132.2089  155.6574 H   0  0  0  0  0  0  0  0  0  0  0  0
  148.4764  135.4783  155.6932 H   0  0  0  0  0  0  0  0  0  0  0  0
  149.0365  134.6216  153.3994 H   0  0  0  0  0  0  0  0  0  0  0  0
  148.2451  133.4147  154.4031 H   0  0  0  0  0  0  0  0  0  0  0  0
  149.9805  133.3236  154.1296 H   0  0  0  0  0  0  0  0  0  0  0  0
  149.6472  136.6574  153.7470 H   0  0  0  0  0  0  0  0  0  0  0  0
  152.4400  137.3040  153.8286 H   0  0  0  0  0  0  0  0  0  0  0  0
  151.1511  138.1743  153.0399 H   0  0  0  0  0  0  0  0  0  0  0  0
  149.8230  139.9342  154.3531 H   0  0  0  0  0  0  0  0  0  0  0  0
  150.0292  141.6799  156.0994 H   0  0  0  0  0  0  0  0  0  0  0  0
  150.8442  143.2844  157.0343 H   0  0  0  0  0  0  0  0  0  0  0  0
  150.0172  142.4852  158.3652 H   0  0  0  0  0  0  0  0  0  0  0  0
  152.3561  144.4674  158.5952 H   0  0  0  0  0  0  0  0  0  0  0  0
  150.6940  144.7517  159.0733 H   0  0  0  0  0  0  0  0  0  0  0  0
  153.6608  142.8999  159.8403 H   0  0  0  0  0  0  0  0  0  0  0  0
  153.8159  141.2415  161.7010 H   0  0  0  0  0  0  0  0  0  0  0  0
  152.1305  141.5456  162.1205 H   0  0  0  0  0  0  0  0  0  0  0  0
  153.3289  142.8245  162.2994 H   0  0  0  0  0  0  0  0  0  0  0  0
  151.4461  140.7766  159.7567 H   0  0  0  0  0  0  0  0  0  0  0  0
  153.1154  140.5502  159.2806 H   0  0  0  0  0  0  0  0  0  0  0  0
  153.3251  138.0433  156.0352 H   0  0  0  0  0  0  0  0  0  0  0  0
  1  2  1  0  0  0  0
  1 22  1  0  0  0  0
  1 23  1  0  0  0  0
  1 24  1  0  0  0  0
  2  3  1  0  0  0  0
  3  4  1  0  0  0  0
  3  5  1  0  0  0  0
  3 25  1  0  0  0  0
  4 26  1  0  0  0  0
  4 27  1  0  0  0  0
  4 28  1  0  0  0  0
  5  6  2  0  0  0  0
  5  7  1  0  0  0  0
  7  8  1  0  0  0  0
  7 29  1  0  0  0  0
  8  9  1  0  0  0  0
  8 30  1  0  0  0  0
  8 31  1  0  0  0  0
  9 21  1  0  0  0  0
  9 10  2  0  0  0  0
 10 11  1  0  0  0  0
 10 32  1  0  0  0  0
 11 12  2  0  0  0  0
 11 33  1  0  0  0  0
 12 13  1  0  0  0  0
 12 20  1  0  0  0  0
 13 19  1  0  0  0  0
 13 14  1  0  0  0  0
 14 15  1  0  0  0  0
 14 34  1  0  0  0  0
 14 35  1  0  0  0  0
 15 16  1  0  0  0  0
 15 36  1  0  0  0  0
 15 37  1  0  0  0  0
 16 17  1  0  0  0  0
 17 18  1  0  0  0  0
 17 19  1  0  0  0  0
 17 38  1  0  0  0  0
 18 39  1  0  0  0  0
 18 40  1  0  0  0  0
 18 41  1  0  0  0  0
 19 42  1  0  0  0  0
 19 43  1  0  0  0  0
 20 21  2  0  0  0  0
 21 44  1  0  0  0  0
M  END
> <s_m_source_file>
AV-unprocessed.smi

> <i_m_source_file_index>
1671

> <i_lp_mmshare_version>
43012

> <i_f3d_flags>
0

> <s_epik_input>
W0NIM11TW0NASF0oW0NIM10pQyg9TylbTkhdW0NIMl1jMVtjSF1bY0hdYyhuW2NIXTEpTjJbQ0gyXVtDSDJdT1tDQEBIXShbQ0gzXSlbQ0gyXTI=

> <s_epik_cmdline>
J2VwaWtfcHl0aG9uJywgJy1waCcsICc3LjAnLCAnLXRuJywgJzgnLCAnLW1hJywgJzIwMCcsICctbWV0YWxfYmluZGluZycsICctaW1hZScsICc8aW5maWxlLm1hZT4nLCAnLW9tYWUnLCAnPG91dGZpbGUubWFlPic=

> <r_lp_tautomer_probability>
1

> <r_epik_Ionization_Penalty>
0.00480033

> <r_epik_Ionization_Penalty_Charging>
0

> <r_epik_Ionization_Penalty_Neutral>
0.00480033

> <r_epik_State_Penalty>
0.00347981

> <r_epik_Charging_Adjusted_Penalty>
0.00347981

> <i_epik_Tot_Q>
0

> <i_epik_Tot_abs_Q>
0

> <r_epik_Metal_State_Penalty>
-0

> <b_epik_Metal_Only>
0

> <s_lp_Force_Field>
OPLS_2005

> <r_lp_Energy>
16.3373

> <b_lp_Chiralities_Consistent>
1

> <s_lp_Variant>
AV-unprocessed.smi:1671-1

> <Gold.Version>
5.8.1

> <Gold.Id.Protein>
6NUR|6NUR_protein|mol2

> <Gold.PLP.Fitness>
49.1094

> <Gold.PLP.PLP>
-41.4366

> <Gold.PLP.part.hbond>
-4.0000

> <Gold.PLP.part.metal>
0.0000

> <Gold.PLP.part.buried>
-1.8985

> <Gold.PLP.part.nonpolar>
-35.6124

> <Gold.PLP.part.repulsive>
0.1481

> <Gold.PLP.ligand.clash>
0.0000

> <Gold.PLP.ligand.torsion>
0.6058

> <Gold.PLP.Chemscore.Hbond>
2.8247

> <Gold.PLP.Chemscore.CHOScore>
0.0000

> <Gold.PLP.Chemscore.Metal>
0.0000

> <Gold.Chemscore.Hbonds>
donor molecule, donor type, donor heavy atom, donor atom, acceptor molecule, acceptor atom, score
      L1  H     7    29       P1  7948  0.85
      P1  H  7997  8008       L1    20  0.95
      P1  H 10752 10763       L1     6  1.00

> <Gold.PLP.Chemscore.Internal.Correction>
0.4104

> <Gold.Rescore>
     Score         DG    S(hbond)    S(metal)    S(lipo)     H(rot)  DE(clash)    DE(int)     intcor
     19.07     -20.28       1.94        0.00     106.74       1.63       0.62       0.58       ----

> <Gold.Chemscore.Fitness>
19.0749

> <Gold.Chemscore.DG>
-20.2754

> <Gold.Chemscore.ZeroCoef>
-5.4800

> <Gold.Chemscore.Hbond>
1.9378

> <Gold.Chemscore.Metal>
0.0000

> <Gold.Chemscore.Lipo>
106.7431

> <Gold.Chemscore.Internal_Hbond>
0.0000

> <Gold.Chemscore.DEClash>
0.6247

> <Gold.Chemscore.DEInternal>
0.5758

> <Gold.Chemscore.Rot>
1.6272

> <Gold.Chemscore.Internal.Correction>
   9.000000E+99

> <Gold.Chemscore.Hbonds>
donor molecule, donor type, donor heavy atom, donor atom, acceptor molecule, acceptor atom, score
      L1  H     7    29       P1  7948  0.52
      P1  H  7997  8008       L1    20  0.21
      P1  H 10752 10763       L1     6  0.25

> <Gold.Chemscore.Hbond.Weighted>
-6.4721

> <Gold.Chemscore.Metal.Weighted>
-0.0000

> <Gold.Chemscore.Lipo.Weighted>
-12.4889

> <Gold.Chemscore.Internal_Hbond.Weighted>
0.0000

> <Gold.Chemscore.DEClash.Weighted>
0.6247

> <Gold.Chemscore.DEInternal.Weighted>
0.5758

> <Gold.Chemscore.Rot.Weighted>
4.1657

> <Gold.Chemscore.Internal.Correction.Weighted>
   9.000000E+99

> <Gold.Protein.RotatedTorsions>
[ 6907 6896 6895 6894 ] final  -45.23 input  -60.11 | X-H torsion
[ 7974 7965 7964 7962 ] final  -50.07 input  175.53 | X-H torsion
[ 8008 7997 7996 7995 ] final  -74.54 input   59.86 | X-H torsion
[ 10167 10162 10161 10158 ] final  160.40 input  -65.29 | X-H torsion
[ 10718 10713 10712 10709 ] final  -92.54 input   66.30 | X-H torsion
[ 10763 10752 10751 10750 ] final   73.40 input  -60.55 | X-H torsion
[ 11005 11000 10999 10996 ] final   85.70 input  -57.11 | X-H torsion

> <Gold.Protein.ActiveResidues>
 VAL166  LYS551  ARG553  GLY616  TRP617  ASP618  TYR619  PRO620  LYS621  CYS622 
 ASP623  PHE694  ASN695  SER759  ASP760  ASP761  ALA762  ILE779  LEU786  VAL792 
 PHE793  MET794  SER795  GLU796  ALA797  LYS798  CYS799  TRP800  GLU811  SER814 

> <Gold.Protein.RotatedAtoms>
  150.9241  134.8658  159.7508 H   0  0  0  0  0  0  0  0  0  0  0  0  # atno 6907 bound_to 6896
  152.5007  134.4174  159.9479 H   0  0  0  0  0  0  0  0  0  0  0  0  # atno 6908 bound_to 6896
  151.4206  133.3660  159.2790 H   0  0  0  0  0  0  0  0  0  0  0  0  # atno 6909 bound_to 6896
  145.9338  140.7725  142.9586 H   0  0  0  0  0  0  0  0  0  0  0  0  # atno 7974 bound_to 7965
  154.5340  140.0759  156.8394 H   0  0  0  0  0  0  0  0  0  0  0  0  # atno 8008 bound_to 7997
  155.3317  140.3402  155.4221 H   0  0  0  0  0  0  0  0  0  0  0  0  # atno 8009 bound_to 7997
  156.1809  140.1652  156.8262 H   0  0  0  0  0  0  0  0  0  0  0  0  # atno 8010 bound_to 7997
  139.4839  144.4637  151.8670 H   0  0  0  0  0  0  0  0  0  0  0  0  # atno 10167 bound_to 10162
  156.0003  130.4991  150.5641 H   0  0  0  0  0  0  0  0  0  0  0  0  # atno 10718 bound_to 10713
  153.0519  135.5064  154.7887 H   0  0  0  0  0  0  0  0  0  0  0  0  # atno 10763 bound_to 10752
  154.6743  135.2958  154.9702 H   0  0  0  0  0  0  0  0  0  0  0  0  # atno 10764 bound_to 10752
  154.0509  135.6704  153.4853 H   0  0  0  0  0  0  0  0  0  0  0  0  # atno 10765 bound_to 10752
  139.8964  134.8304  156.2618 H   0  0  0  0  0  0  0  0  0  0  0  0  # atno 11005 bound_to 11000
  144.6768  140.2170  143.7370 LP  0  0  0  0  0  0  0  0  0  0  0  0  # atno 17320 bound_to 7965
  145.8391  139.2121  143.1838 LP  0  0  0  0  0  0  0  0  0  0  0  0  # atno 17321 bound_to 7965
  140.4101  144.2380  150.5889 LP  0  0  0  0  0  0  0  0  0  0  0  0  # atno 17342 bound_to 10162
  140.4974  143.2328  151.8729 LP  0  0  0  0  0  0  0  0  0  0  0  0  # atno 17343 bound_to 10162
  157.3546  131.0739  151.1685 LP  0  0  0  0  0  0  0  0  0  0  0  0  # atno 17370 bound_to 10713
  157.2490  130.6605  149.5923 LP  0  0  0  0  0  0  0  0  0  0  0  0  # atno 17371 bound_to 10713
  141.0157  133.7070  156.1185 LP  0  0  0  0  0  0  0  0  0  0  0  0  # atno 17394 bound_to 11000
  140.7304  134.4260  157.5566 LP  0  0  0  0  0  0  0  0  0  0  0  0  # atno 17395 bound_to 11000

$$$$
