AV-unprocessed.smi:1978|AV-procd|sdf|7992|dock10
  -GOLD-   2272010173D 1   1.00000     0.00000
 Structure written by MMmdl.
 45 46  0  0  0  0  0  0  0  0  2 V2000
  147.2410  134.9345  162.8374 C   0  0  0  0  0  0  0  0  0  0  0  0
  147.4007  135.5019  161.4687 C   0  0  0  0  0  0  0  0  0  0  0  0
  147.4326  134.9361  160.2250 C   0  0  0  0  0  0  0  0  0  0  0  0
  147.6137  136.0551  159.3695 C   0  0  0  0  0  0  0  0  0  0  0  0
  147.7033  135.8906  157.9633 N   0  0  0  0  0  0  0  0  0  0  0  0
  148.5486  135.0950  157.2859 C   0  0  0  0  0  0  0  0  0  0  0  0
  149.4036  134.3708  157.7962 O   0  0  0  0  0  0  0  0  0  0  0  0
  148.3406  135.1749  155.9627 N   0  0  0  0  0  0  0  0  0  0  0  0
  149.0921  134.4454  154.9428 C   0  0  0  0  0  0  0  0  0  0  0  0
  148.2632  133.3227  154.2528 C   0  0  2  0  0  0  0  0  0  0  0  0
  149.1918  132.1477  153.8547 C   0  0  0  0  0  0  0  0  0  0  0  0
  147.4815  133.8201  153.0655 N   0  3  1  0  0  0  0  0  0  0  0  0
  146.9551  132.7308  152.1864 C   0  0  0  0  0  0  0  0  0  0  0  0
  146.3829  133.2827  150.8704 C   0  0  0  0  0  0  0  0  0  0  0  0
  145.2928  134.3245  151.1268 C   0  0  0  0  0  0  0  0  0  0  0  0
  145.8405  135.4211  152.0461 C   0  0  0  0  0  0  0  0  0  0  0  0
  146.4260  134.8490  153.3547 C   0  0  1  0  0  0  0  0  0  0  0  0
  145.3204  134.3448  154.3098 C   0  0  0  0  0  0  0  0  0  0  0  0
  147.6842  137.2003  160.0305 N   0  0  0  0  0  0  0  0  0  0  0  0
  147.5471  136.8517  161.3791 O   0  0  0  0  0  0  0  0  0  0  0  0
  147.3944  133.8552  162.8315 H   0  0  0  0  0  0  0  0  0  0  0  0
  146.2406  135.1325  163.2221 H   0  0  0  0  0  0  0  0  0  0  0  0
  147.9626  135.3738  163.5264 H   0  0  0  0  0  0  0  0  0  0  0  0
  147.3421  133.8899  159.9728 H   0  0  0  0  0  0  0  0  0  0  0  0
  147.0483  136.4302  157.4174 H   0  0  0  0  0  0  0  0  0  0  0  0
  147.6139  135.7947  155.6345 H   0  0  0  0  0  0  0  0  0  0  0  0
  149.3924  135.2105  154.2291 H   0  0  0  0  0  0  0  0  0  0  0  0
  150.0149  134.0317  155.3530 H   0  0  0  0  0  0  0  0  0  0  0  0
  147.5476  132.9443  154.9844 H   0  0  0  0  0  0  0  0  0  0  0  0
  149.7998  131.8024  154.6895 H   0  0  0  0  0  0  0  0  0  0  0  0
  149.8728  132.4377  153.0537 H   0  0  0  0  0  0  0  0  0  0  0  0
  148.6464  131.2632  153.5323 H   0  0  0  0  0  0  0  0  0  0  0  0
  147.7363  132.0294  151.9067 H   0  0  0  0  0  0  0  0  0  0  0  0
  146.2009  132.1508  152.7185 H   0  0  0  0  0  0  0  0  0  0  0  0
  147.1865  133.7317  150.2853 H   0  0  0  0  0  0  0  0  0  0  0  0
  145.9816  132.4670  150.2679 H   0  0  0  0  0  0  0  0  0  0  0  0
  144.9580  134.7573  150.1835 H   0  0  0  0  0  0  0  0  0  0  0  0
  144.4200  133.8510  151.5771 H   0  0  0  0  0  0  0  0  0  0  0  0
  146.6193  135.9713  151.5160 H   0  0  0  0  0  0  0  0  0  0  0  0
  145.0572  136.1473  152.2666 H   0  0  0  0  0  0  0  0  0  0  0  0
  146.9015  135.7063  153.8285 H   0  0  0  0  0  0  0  0  0  0  0  0
  144.6042  135.1402  154.5186 H   0  0  0  0  0  0  0  0  0  0  0  0
  145.7215  134.0218  155.2695 H   0  0  0  0  0  0  0  0  0  0  0  0
  144.7588  133.5095  153.8933 H   0  0  0  0  0  0  0  0  0  0  0  0
  148.1619  134.3082  152.5007 H   0  0  0  0  0  0  0  0  0  0  0  0
  1  2  1  0  0  0  0
  1 21  1  0  0  0  0
  1 22  1  0  0  0  0
  1 23  1  0  0  0  0
  2 20  1  0  0  0  0
  2  3  2  0  0  0  0
  3  4  1  0  0  0  0
  3 24  1  0  0  0  0
  4  5  1  0  0  0  0
  4 19  2  0  0  0  0
  5  6  1  0  0  0  0
  5 25  1  0  0  0  0
  6  7  2  0  0  0  0
  6  8  1  0  0  0  0
  8  9  1  0  0  0  0
  8 26  1  0  0  0  0
  9 10  1  0  0  0  0
  9 27  1  0  0  0  0
  9 28  1  0  0  0  0
 10 11  1  0  0  0  0
 10 12  1  0  0  0  0
 10 29  1  0  0  0  0
 11 30  1  0  0  0  0
 11 31  1  0  0  0  0
 11 32  1  0  0  0  0
 12 17  1  0  0  0  0
 12 13  1  0  0  0  0
 12 45  1  0  0  0  0
 13 14  1  0  0  0  0
 13 33  1  0  0  0  0
 13 34  1  0  0  0  0
 14 15  1  0  0  0  0
 14 35  1  0  0  0  0
 14 36  1  0  0  0  0
 15 16  1  0  0  0  0
 15 37  1  0  0  0  0
 15 38  1  0  0  0  0
 16 17  1  0  0  0  0
 16 39  1  0  0  0  0
 16 40  1  0  0  0  0
 17 18  1  0  0  0  0
 17 41  1  0  0  0  0
 18 42  1  0  0  0  0
 18 43  1  0  0  0  0
 18 44  1  0  0  0  0
 19 20  1  0  0  0  0
M  CHG  1  12   1
M  END
> <s_m_source_file>
AV-unprocessed.smi

> <i_m_source_file_index>
1978

> <i_lp_mmshare_version>
43012

> <i_f3d_flags>
0

> <s_epik_input>
W0NIM11jMVtjSF1jKG5vMSlbTkhdQyg9TylbTkhdW0NIMl1bQ0BIXShbQ0gzXSlOMltDSDJdW0NIMl1bQ0gyXVtDSDJdW0NASF0yW0NIM10=

> <s_epik_cmdline>
J2VwaWtfcHl0aG9uJywgJy1waCcsICc3LjAnLCAnLXRuJywgJzgnLCAnLW1hJywgJzIwMCcsICctbWV0YWxfYmluZGluZycsICctaW1hZScsICc8aW5maWxlLm1hZT4nLCAnLW9tYWUnLCAnPG91dGZpbGUubWFlPic=

> <r_epik_Ionization_Penalty>
0.00265971

> <r_epik_Ionization_Penalty_Charging>
0.00262393

> <r_epik_Ionization_Penalty_Neutral>
3.57846e-05

> <r_epik_State_Penalty>
0.00182566

> <r_epik_Charging_Adjusted_Penalty>
0.00444959

> <i_epik_Tot_Q>
1

> <i_epik_Tot_abs_Q>
1

> <r_epik_Metal_State_Penalty>
0.0216344

> <b_epik_Metal_Only>
0

> <s_lp_Force_Field>
OPLS_2005

> <r_lp_Energy>
24.7796

> <b_lp_Chiralities_Consistent>
1

> <s_lp_Variant>
AV-unprocessed.smi:1978-1

> <Gold.Version>
5.8.1

> <Gold.Id.Protein>
6NUR|6NUR_protein|mol2

> <Gold.PLP.Fitness>
42.0714

> <Gold.PLP.PLP>
-32.5297

> <Gold.PLP.part.hbond>
-5.7521

> <Gold.PLP.part.metal>
0.0000

> <Gold.PLP.part.buried>
-2.5004

> <Gold.PLP.part.nonpolar>
-23.8285

> <Gold.PLP.part.repulsive>
0.0149

> <Gold.PLP.ligand.clash>
0.0000

> <Gold.PLP.ligand.torsion>
1.0716

> <Gold.PLP.Chemscore.Hbond>
3.8640

> <Gold.PLP.Chemscore.CHOScore>
0.0000

> <Gold.PLP.Chemscore.Metal>
0.0000

> <Gold.Chemscore.Hbonds>
donor molecule, donor type, donor heavy atom, donor atom, acceptor molecule, acceptor atom, score
      L1  H    12    45       P1  7948  1.34
      P1  H  6896  6907       L1     7  1.00
      P1  H  6931  6943       L1    20  0.41

> <Gold.PLP.Chemscore.Internal.Correction>
0.0929

> <Gold.Rescore>
     Score         DG    S(hbond)    S(metal)    S(lipo)     H(rot)  DE(clash)    DE(int)     intcor
     16.84     -18.08       2.91        0.00      58.45       1.55       0.19       1.04       ----

> <Gold.Chemscore.Fitness>
16.8438

> <Gold.Chemscore.DG>
-18.0790

> <Gold.Chemscore.ZeroCoef>
-5.4800

> <Gold.Chemscore.Hbond>
2.9106

> <Gold.Chemscore.Metal>
0.0000

> <Gold.Chemscore.Lipo>
58.4524

> <Gold.Chemscore.Internal_Hbond>
0.0000

> <Gold.Chemscore.DEClash>
0.1937

> <Gold.Chemscore.DEInternal>
1.0415

> <Gold.Chemscore.Rot>
1.5474

> <Gold.Chemscore.Internal.Correction>
   9.000000E+99

> <Gold.Chemscore.Hbonds>
donor molecule, donor type, donor heavy atom, donor atom, acceptor molecule, acceptor atom, score
      L1  H    12    45       P1  7948  0.13
      P1  H  6896  6907       L1     7  0.95
      P1  H  6931  6943       L1    20  0.02

> <Gold.Chemscore.Hbond.Weighted>
-9.7213

> <Gold.Chemscore.Metal.Weighted>
-0.0000

> <Gold.Chemscore.Lipo.Weighted>
-6.8389

> <Gold.Chemscore.Internal_Hbond.Weighted>
0.0000

> <Gold.Chemscore.DEClash.Weighted>
0.1937

> <Gold.Chemscore.DEInternal.Weighted>
1.0415

> <Gold.Chemscore.Rot.Weighted>
3.9612

> <Gold.Chemscore.Internal.Correction.Weighted>
   9.000000E+99

> <Gold.Protein.RotatedTorsions>
[ 6907 6896 6895 6894 ] final  -97.41 input  -60.11 | X-H torsion
[ 7974 7965 7964 7962 ] final  157.39 input  175.53 | X-H torsion
[ 8008 7997 7996 7995 ] final   66.29 input   59.86 | X-H torsion
[ 10167 10162 10161 10158 ] final   31.07 input  -65.29 | X-H torsion
[ 10718 10713 10712 10709 ] final -111.47 input   66.30 | X-H torsion
[ 10763 10752 10751 10750 ] final  -96.79 input  -60.55 | X-H torsion
[ 11005 11000 10999 10996 ] final -125.00 input  -57.11 | X-H torsion

> <Gold.Protein.ActiveResidues>
 VAL166  LYS551  ARG553  GLY616  TRP617  ASP618  TYR619  PRO620  LYS621  CYS622 
 ASP623  PHE694  ASN695  SER759  ASP760  ASP761  ALA762  ILE779  LEU786  VAL792 
 PHE793  MET794  SER795  GLU796  ALA797  LYS798  CYS799  TRP800  GLU811  SER814 

> <Gold.Protein.RotatedAtoms>
  150.7015  134.1353  159.4084 H   0  0  0  0  0  0  0  0  0  0  0  0  # atno 6907 bound_to 6896
  151.9338  135.0242  160.0540 H   0  0  0  0  0  0  0  0  0  0  0  0  # atno 6908 bound_to 6896
  152.2152  133.4906  159.5169 H   0  0  0  0  0  0  0  0  0  0  0  0  # atno 6909 bound_to 6896
  144.7906  139.7334  143.6223 H   0  0  0  0  0  0  0  0  0  0  0  0  # atno 7974 bound_to 7965
  155.6751  140.3497  155.4833 H   0  0  0  0  0  0  0  0  0  0  0  0  # atno 8008 bound_to 7997
  155.9655  140.1145  157.0881 H   0  0  0  0  0  0  0  0  0  0  0  0  # atno 8009 bound_to 7997
  154.4153  140.1167  156.5222 H   0  0  0  0  0  0  0  0  0  0  0  0  # atno 8010 bound_to 7997
  140.4622  144.0890  150.6215 H   0  0  0  0  0  0  0  0  0  0  0  0  # atno 10167 bound_to 10162
  156.0649  130.5869  150.8377 H   0  0  0  0  0  0  0  0  0  0  0  0  # atno 10718 bound_to 10713
  154.7271  135.5070  153.8904 H   0  0  0  0  0  0  0  0  0  0  0  0  # atno 10763 bound_to 10752
  153.0915  135.6660  153.9853 H   0  0  0  0  0  0  0  0  0  0  0  0  # atno 10764 bound_to 10752
  153.9663  135.3043  155.3409 H   0  0  0  0  0  0  0  0  0  0  0  0  # atno 10765 bound_to 10752
  140.9797  134.0691  157.3779 H   0  0  0  0  0  0  0  0  0  0  0  0  # atno 11005 bound_to 11000
  146.2156  139.5544  142.9652 LP  0  0  0  0  0  0  0  0  0  0  0  0  # atno 17320 bound_to 7965
  145.5804  141.0383  143.2125 LP  0  0  0  0  0  0  0  0  0  0  0  0  # atno 17321 bound_to 7965
  140.4080  143.2671  151.9867 LP  0  0  0  0  0  0  0  0  0  0  0  0  # atno 17342 bound_to 10162
  139.4807  144.5940  151.7722 LP  0  0  0  0  0  0  0  0  0  0  0  0  # atno 17343 bound_to 10162
  157.5683  131.0946  150.9456 LP  0  0  0  0  0  0  0  0  0  0  0  0  # atno 17370 bound_to 10713
  156.9678  130.5479  149.5289 LP  0  0  0  0  0  0  0  0  0  0  0  0  # atno 17371 bound_to 10713
  139.8945  135.0136  156.6954 LP  0  0  0  0  0  0  0  0  0  0  0  0  # atno 17394 bound_to 11000
  140.7205  133.9144  155.8144 LP  0  0  0  0  0  0  0  0  0  0  0  0  # atno 17395 bound_to 11000

$$$$
