AV-unprocessed.smi:1306|AV-procd|sdf|5434|dock8
  -GOLD-   22720 4593D 1   1.00000     0.00000
 Structure written by MMmdl.
 39 40  0  0  0  0  0  0  0  0  1 V2000
  147.1178  139.7221  154.3315 O   0  0  0  0  0  0  0  0  0  0  0  0
  147.7938  138.9067  153.7023 C   0  0  0  0  0  0  0  0  0  0  0  0
  149.3216  139.0409  153.6236 C   0  0  0  0  0  0  0  0  0  0  0  0
  149.8739  139.9709  154.6194 N   0  0  0  0  0  0  0  0  0  0  0  0
  150.8691  139.5524  155.4914 C   0  0  0  0  0  0  0  0  0  0  0  0
  151.4279  140.3566  156.4264 C   0  0  0  0  0  0  0  0  0  0  0  0
  150.9947  141.7430  156.5624 C   0  0  0  0  0  0  0  0  0  0  0  0
  151.4381  142.5477  157.3787 O   0  0  0  0  0  0  0  0  0  0  0  0
  149.9941  142.1273  155.6657 N   0  0  0  0  0  0  0  0  0  0  0  0
  149.4154  141.3043  154.6981 C   0  0  0  0  0  0  0  0  0  0  0  0
  148.5417  141.7459  153.9526 O   0  0  0  0  0  0  0  0  0  0  0  0
  147.2610  137.8691  153.0397 N   0  0  0  0  0  0  0  0  0  0  0  0
  145.8405  137.5387  152.9963 C   0  0  0  0  0  0  0  0  0  0  0  0
  145.5817  136.1985  152.2889 C   0  0  0  0  0  0  0  0  0  0  0  0
  143.8161  135.7751  152.2544 S   0  0  0  0  0  0  0  0  0  0  0  0
  143.9143  133.9914  151.9288 C   0  0  0  0  0  0  0  0  0  0  0  0
  145.0255  133.3116  152.7321 C   0  0  0  0  0  0  0  0  0  0  0  0
  145.4037  132.0554  151.9353 C   0  0  0  0  0  0  0  0  0  0  0  0
  144.7981  132.2281  150.5341 C   0  0  0  0  0  0  0  0  0  0  0  0
  144.2659  133.6618  150.4779 C   0  0  0  0  0  0  0  0  0  0  0  0
  149.6640  143.0798  155.7212 H   0  0  0  0  0  0  0  0  0  0  0  0
  149.7818  138.0567  153.7340 H   0  0  0  0  0  0  0  0  0  0  0  0
  149.5821  139.3683  152.6160 H   0  0  0  0  0  0  0  0  0  0  0  0
  151.2241  138.5338  155.4242 H   0  0  0  0  0  0  0  0  0  0  0  0
  152.2003  139.9721  157.0766 H   0  0  0  0  0  0  0  0  0  0  0  0
  147.8874  137.2494  152.5466 H   0  0  0  0  0  0  0  0  0  0  0  0
  145.4367  137.5115  154.0096 H   0  0  0  0  0  0  0  0  0  0  0  0
  145.3149  138.3409  152.4781 H   0  0  0  0  0  0  0  0  0  0  0  0
  145.9649  136.2234  151.2682 H   0  0  0  0  0  0  0  0  0  0  0  0
  146.1184  135.4044  152.8079 H   0  0  0  0  0  0  0  0  0  0  0  0
  142.9593  133.5300  152.1850 H   0  0  0  0  0  0  0  0  0  0  0  0
  145.8939  133.9693  152.7952 H   0  0  0  0  0  0  0  0  0  0  0  0
  144.7163  133.0806  153.7518 H   0  0  0  0  0  0  0  0  0  0  0  0
  146.4873  131.9422  151.8887 H   0  0  0  0  0  0  0  0  0  0  0  0
  145.0038  131.1589  152.4101 H   0  0  0  0  0  0  0  0  0  0  0  0
  145.5216  132.0308  149.7423 H   0  0  0  0  0  0  0  0  0  0  0  0
  143.9730  131.5263  150.4055 H   0  0  0  0  0  0  0  0  0  0  0  0
  143.4151  133.7611  149.8035 H   0  0  0  0  0  0  0  0  0  0  0  0
  145.0524  134.3294  150.1231 H   0  0  0  0  0  0  0  0  0  0  0  0
  1  2  2  0  0  0  0
  2  3  1  0  0  0  0
  2 12  1  0  0  0  0
  3  4  1  0  0  0  0
  3 22  1  0  0  0  0
  3 23  1  0  0  0  0
  4 10  1  0  0  0  0
  4  5  1  0  0  0  0
  5  6  2  0  0  0  0
  5 24  1  0  0  0  0
  6  7  1  0  0  0  0
  6 25  1  0  0  0  0
  7  8  2  0  0  0  0
  7  9  1  0  0  0  0
  9 21  1  0  0  0  0
  9 10  1  0  0  0  0
 10 11  2  0  0  0  0
 12 13  1  0  0  0  0
 12 26  1  0  0  0  0
 13 14  1  0  0  0  0
 13 27  1  0  0  0  0
 13 28  1  0  0  0  0
 14 15  1  0  0  0  0
 14 29  1  0  0  0  0
 14 30  1  0  0  0  0
 15 16  1  0  0  0  0
 16 20  1  0  0  0  0
 16 17  1  0  0  0  0
 16 31  1  0  0  0  0
 17 18  1  0  0  0  0
 17 32  1  0  0  0  0
 17 33  1  0  0  0  0
 18 19  1  0  0  0  0
 18 34  1  0  0  0  0
 18 35  1  0  0  0  0
 19 20  1  0  0  0  0
 19 36  1  0  0  0  0
 19 37  1  0  0  0  0
 20 38  1  0  0  0  0
 20 39  1  0  0  0  0
M  END
> <s_m_source_file>
AV-unprocessed.smi

> <i_m_source_file_index>
1306

> <i_lp_mmshare_version>
43012

> <i_f3d_flags>
0

> <s_epik_input>
Tz1jMVtuSF1jKD1PKVtjSF1bY0hdbjFbQ0gyXUMoPU8pW05IXVtDSDJdW0NIMl1TW0NIXTJbQ0gyXVtDSDJdW0NIMl1bQ0gyXTI=

> <s_epik_cmdline>
J2VwaWtfcHl0aG9uJywgJy1waCcsICc3LjAnLCAnLXRuJywgJzgnLCAnLW1hJywgJzIwMCcsICctbWV0YWxfYmluZGluZycsICctaW1hZScsICc8aW5maWxlLm1hZT4nLCAnLW9tYWUnLCAnPG91dGZpbGUubWFlPic=

> <r_lp_tautomer_probability>
0.999537

> <r_epik_Ionization_Penalty>
0.00337646

> <r_epik_Ionization_Penalty_Charging>
0.00337644

> <r_epik_Ionization_Penalty_Neutral>
2.37506e-08

> <r_epik_State_Penalty>
0.00238979

> <r_epik_Charging_Adjusted_Penalty>
0.00576623

> <i_epik_Tot_Q>
0

> <i_epik_Tot_abs_Q>
0

> <r_epik_Metal_State_Penalty>
0.366399

> <b_epik_Metal_Only>
0

> <s_lp_Force_Field>
OPLS_2005

> <r_lp_Energy>
19.0409

> <b_lp_Chiralities_Consistent>
1

> <s_lp_Variant>
AV-unprocessed.smi:1306-1

> <Gold.Version>
5.8.1

> <Gold.Id.Protein>
6NUR|6NUR_protein|mol2

> <Gold.PLP.Fitness>
40.8963

> <Gold.PLP.PLP>
-34.1670

> <Gold.PLP.part.hbond>
-3.0000

> <Gold.PLP.part.metal>
0.0000

> <Gold.PLP.part.buried>
-0.7986

> <Gold.PLP.part.nonpolar>
-30.6935

> <Gold.PLP.part.repulsive>
0.6371

> <Gold.PLP.ligand.clash>
0.0000

> <Gold.PLP.ligand.torsion>
0.4512

> <Gold.PLP.Chemscore.Hbond>
2.5280

> <Gold.PLP.Chemscore.CHOScore>
0.0000

> <Gold.PLP.Chemscore.Metal>
0.0000

> <Gold.Chemscore.Hbonds>
donor molecule, donor type, donor heavy atom, donor atom, acceptor molecule, acceptor atom, score
      L1  H     9    21       P1  8028  1.00
      L1  H    12    26       P1  7948  1.00
      P1  H  8011  8017       L1    11  0.36

> <Gold.PLP.Chemscore.Internal.Correction>
0.0478

> <Gold.Rescore>
     Score         DG    S(hbond)    S(metal)    S(lipo)     H(rot)  DE(clash)    DE(int)     intcor
     10.88     -15.55       2.51        0.00      67.96       2.45       1.51       3.15       ----

> <Gold.Chemscore.Fitness>
10.8794

> <Gold.Chemscore.DG>
-15.5473

> <Gold.Chemscore.ZeroCoef>
-5.4800

> <Gold.Chemscore.Hbond>
2.5089

> <Gold.Chemscore.Metal>
0.0000

> <Gold.Chemscore.Lipo>
67.9614

> <Gold.Chemscore.Internal_Hbond>
0.0000

> <Gold.Chemscore.DEClash>
1.5147

> <Gold.Chemscore.DEInternal>
3.1533

> <Gold.Chemscore.Rot>
2.4469

> <Gold.Chemscore.Internal.Correction>
   9.000000E+99

> <Gold.Chemscore.Hbonds>
donor molecule, donor type, donor heavy atom, donor atom, acceptor molecule, acceptor atom, score
      L1  H     9    21       P1  8028  1.00
      L1  H    12    26       P1  7948  0.99
      P1  H  8011  8017       L1    11  0.08

> <Gold.Chemscore.Hbond.Weighted>
-8.3798

> <Gold.Chemscore.Metal.Weighted>
-0.0000

> <Gold.Chemscore.Lipo.Weighted>
-7.9515

> <Gold.Chemscore.Internal_Hbond.Weighted>
0.0000

> <Gold.Chemscore.DEClash.Weighted>
1.5147

> <Gold.Chemscore.DEInternal.Weighted>
3.1533

> <Gold.Chemscore.Rot.Weighted>
6.2640

> <Gold.Chemscore.Internal.Correction.Weighted>
   9.000000E+99

> <Gold.Protein.RotatedTorsions>
[ 6907 6896 6895 6894 ] final  -28.64 input  -60.11 | X-H torsion
[ 7974 7965 7964 7962 ] final  -53.14 input  175.53 | X-H torsion
[ 8008 7997 7996 7995 ] final  157.04 input   59.86 | X-H torsion
[ 10167 10162 10161 10158 ] final  175.28 input  -65.29 | X-H torsion
[ 10718 10713 10712 10709 ] final   37.72 input   66.30 | X-H torsion
[ 10763 10752 10751 10750 ] final  -43.78 input  -60.55 | X-H torsion
[ 11005 11000 10999 10996 ] final -174.40 input  -57.11 | X-H torsion

> <Gold.Protein.ActiveResidues>
 VAL166  LYS551  ARG553  GLY616  TRP617  ASP618  TYR619  PRO620  LYS621  CYS622 
 ASP623  PHE694  ASN695  SER759  ASP760  ASP761  ALA762  ILE779  LEU786  VAL792 
 PHE793  MET794  SER795  GLU796  ALA797  LYS798  CYS799  TRP800  GLU811  SER814 

> <Gold.Protein.RotatedAtoms>
  151.1302  135.0126  159.8578 H   0  0  0  0  0  0  0  0  0  0  0  0  # atno 6907 bound_to 6896
  152.5450  134.1619  159.8571 H   0  0  0  0  0  0  0  0  0  0  0  0  # atno 6908 bound_to 6896
  151.1685  133.4754  159.2627 H   0  0  0  0  0  0  0  0  0  0  0  0  # atno 6909 bound_to 6896
  145.9001  140.8001  142.9747 H   0  0  0  0  0  0  0  0  0  0  0  0  # atno 7974 bound_to 7965
  156.2387  140.1896  156.7047 H   0  0  0  0  0  0  0  0  0  0  0  0  # atno 8008 bound_to 7997
  154.6156  140.0616  156.9576 H   0  0  0  0  0  0  0  0  0  0  0  0  # atno 8009 bound_to 7997
  155.1945  140.3287  155.4355 H   0  0  0  0  0  0  0  0  0  0  0  0  # atno 8010 bound_to 7997
  139.5171  144.3050  152.0344 H   0  0  0  0  0  0  0  0  0  0  0  0  # atno 10167 bound_to 10162
  157.3503  130.7595  149.6973 H   0  0  0  0  0  0  0  0  0  0  0  0  # atno 10718 bound_to 10713
  154.0011  135.6693  153.4759 H   0  0  0  0  0  0  0  0  0  0  0  0  # atno 10763 bound_to 10752
  153.0662  135.5000  154.8200 H   0  0  0  0  0  0  0  0  0  0  0  0  # atno 10764 bound_to 10752
  154.7052  135.3086  154.9244 H   0  0  0  0  0  0  0  0  0  0  0  0  # atno 10765 bound_to 10752
  140.4750  134.6130  157.4897 H   0  0  0  0  0  0  0  0  0  0  0  0  # atno 11005 bound_to 11000
  144.6735  140.1664  143.7418 LP  0  0  0  0  0  0  0  0  0  0  0  0  # atno 17320 bound_to 7965
  145.8801  139.2318  143.1610 LP  0  0  0  0  0  0  0  0  0  0  0  0  # atno 17321 bound_to 7965
  140.2496  144.4183  150.6227 LP  0  0  0  0  0  0  0  0  0  0  0  0  # atno 17342 bound_to 10162
  140.6234  143.2178  151.6647 LP  0  0  0  0  0  0  0  0  0  0  0  0  # atno 17343 bound_to 10162
  155.9720  130.4142  150.4123 LP  0  0  0  0  0  0  0  0  0  0  0  0  # atno 17370 bound_to 10713
  157.2184  131.0477  151.2560 LP  0  0  0  0  0  0  0  0  0  0  0  0  # atno 17371 bound_to 10713
  139.9862  134.7058  155.9770 LP  0  0  0  0  0  0  0  0  0  0  0  0  # atno 17394 bound_to 11000
  141.1559  133.6543  156.4160 LP  0  0  0  0  0  0  0  0  0  0  0  0  # atno 17395 bound_to 11000

$$$$
