AV-unprocessed.smi:1320|AV-procd|sdf|5461|dock4
  -GOLD-   22720 5 33D 1   1.00000     0.00000
 Structure written by MMmdl.
 37 38  0  0  0  0  0  0  0  0  2 V2000
  146.4288  141.5193  155.9935 O   0  0  0  0  0  0  0  0  0  0  0  0
  147.3103  142.3081  155.6580 C   0  0  0  0  0  0  0  0  0  0  0  0
  148.5208  142.3586  156.2413 N   0  0  0  0  0  0  0  0  0  0  0  0
  148.9762  141.4969  157.3294 C   0  0  0  0  0  0  0  0  0  0  0  0
  150.5048  141.5337  157.5265 C   0  0  0  0  0  0  0  0  0  0  0  0
  150.9794  142.6282  158.4665 C   0  0  0  0  0  0  0  0  0  0  0  0
  151.7159  142.3406  159.6357 C   0  0  0  0  0  0  0  0  0  0  0  0
  152.1023  143.3983  160.4849 C   0  0  0  0  0  0  0  0  0  0  0  0
  151.7435  144.7200  160.1486 C   0  0  0  0  0  0  0  0  0  0  0  0
  151.0066  144.9509  158.9693 C   0  0  0  0  0  0  0  0  0  0  0  0
  150.6564  143.9111  158.1810 N   0  3  0  0  0  0  0  0  0  0  0  0
  147.1245  143.2014  154.6703 N   0  0  0  0  0  0  0  0  0  0  0  0
  145.9305  143.4018  153.8456 C   0  0  0  0  0  0  0  0  0  0  0  0
  146.1469  144.5560  152.8479 C   0  0  0  0  0  0  0  0  0  0  0  0
  144.8963  145.4312  152.9360 C   0  0  0  0  0  0  0  0  0  0  0  0
  144.4254  145.2671  154.3770 C   0  0  0  0  0  0  0  0  0  0  0  0
  144.7079  143.7992  154.6987 C   0  0  0  0  0  0  0  0  0  0  0  0
  149.1836  143.0345  155.8896 H   0  0  0  0  0  0  0  0  0  0  0  0
  148.4720  141.7573  158.2616 H   0  0  0  0  0  0  0  0  0  0  0  0
  148.6679  140.4778  157.0957 H   0  0  0  0  0  0  0  0  0  0  0  0
  150.8429  140.5723  157.9151 H   0  0  0  0  0  0  0  0  0  0  0  0
  150.9969  141.6564  156.5604 H   0  0  0  0  0  0  0  0  0  0  0  0
  151.9743  141.3217  159.8848 H   0  0  0  0  0  0  0  0  0  0  0  0
  152.6634  143.1973  161.3855 H   0  0  0  0  0  0  0  0  0  0  0  0
  152.0272  145.5436  160.7877 H   0  0  0  0  0  0  0  0  0  0  0  0
  150.6861  145.9274  158.6368 H   0  0  0  0  0  0  0  0  0  0  0  0
  147.9076  143.8023  154.4566 H   0  0  0  0  0  0  0  0  0  0  0  0
  145.7058  142.4920  153.2861 H   0  0  0  0  0  0  0  0  0  0  0  0
  147.0147  145.1534  153.1326 H   0  0  0  0  0  0  0  0  0  0  0  0
  146.3230  144.1975  151.8333 H   0  0  0  0  0  0  0  0  0  0  0  0
  145.0926  146.4709  152.6727 H   0  0  0  0  0  0  0  0  0  0  0  0
  144.1330  145.0528  152.2546 H   0  0  0  0  0  0  0  0  0  0  0  0
  145.0178  145.9076  155.0315 H   0  0  0  0  0  0  0  0  0  0  0  0
  143.3764  145.5324  154.5102 H   0  0  0  0  0  0  0  0  0  0  0  0
  143.8507  143.1946  154.3997 H   0  0  0  0  0  0  0  0  0  0  0  0
  144.8518  143.6401  155.7684 H   0  0  0  0  0  0  0  0  0  0  0  0
  150.1169  144.1009  157.3362 H   0  0  0  0  0  0  0  0  0  0  0  0
  1  2  2  0  0  0  0
  2  3  1  0  0  0  0
  2 12  1  0  0  0  0
  3  4  1  0  0  0  0
  3 18  1  0  0  0  0
  4  5  1  0  0  0  0
  4 19  1  0  0  0  0
  4 20  1  0  0  0  0
  5  6  1  0  0  0  0
  5 21  1  0  0  0  0
  5 22  1  0  0  0  0
  6 11  1  0  0  0  0
  6  7  2  0  0  0  0
  7  8  1  0  0  0  0
  7 23  1  0  0  0  0
  8  9  2  0  0  0  0
  8 24  1  0  0  0  0
  9 10  1  0  0  0  0
  9 25  1  0  0  0  0
 10 11  2  0  0  0  0
 10 26  1  0  0  0  0
 11 37  1  0  0  0  0
 12 13  1  0  0  0  0
 12 27  1  0  0  0  0
 13 17  1  0  0  0  0
 13 14  1  0  0  0  0
 13 28  1  0  0  0  0
 14 15  1  0  0  0  0
 14 29  1  0  0  0  0
 14 30  1  0  0  0  0
 15 16  1  0  0  0  0
 15 31  1  0  0  0  0
 15 32  1  0  0  0  0
 16 17  1  0  0  0  0
 16 33  1  0  0  0  0
 16 34  1  0  0  0  0
 17 35  1  0  0  0  0
 17 36  1  0  0  0  0
M  CHG  1  11   1
M  END
> <s_m_source_file>
AV-unprocessed.smi

> <i_m_source_file_index>
1320

> <i_lp_mmshare_version>
43012

> <i_f3d_flags>
0

> <s_epik_input>
W0NIMl0xW0NIMl1bQ0gyXVtDSDJdW0NIXTFbTkhdQyg9TylbTkhdW0NIMl1bQ0gyXWMyW2NIXVtjSF1bY0hdW2NIXW4y

> <s_epik_cmdline>
J2VwaWtfcHl0aG9uJywgJy1waCcsICc3LjAnLCAnLXRuJywgJzgnLCAnLW1hJywgJzIwMCcsICctbWV0YWxfYmluZGluZycsICctaW1hZScsICc8aW5maWxlLm1hZT4nLCAnLW9tYWUnLCAnPG91dGZpbGUubWFlPic=

> <r_epik_Ionization_Penalty>
1.56194

> <r_epik_Ionization_Penalty_Charging>
1.56188

> <r_epik_Ionization_Penalty_Neutral>
5.76468e-05

> <r_epik_State_Penalty>
1.65696

> <r_epik_Charging_Adjusted_Penalty>
3.21884

> <i_epik_Tot_Q>
1

> <i_epik_Tot_abs_Q>
1

> <r_epik_Metal_State_Penalty>
1.69837

> <b_epik_Metal_Only>
0

> <s_lp_Force_Field>
OPLS_2005

> <r_lp_Energy>
32.6171

> <b_lp_Chiralities_Consistent>
1

> <s_lp_Variant>
AV-unprocessed.smi:1320-2

> <Gold.Version>
5.8.1

> <Gold.Id.Protein>
6NUR|6NUR_protein|mol2

> <Gold.PLP.Fitness>
45.1157

> <Gold.PLP.PLP>
-36.6997

> <Gold.PLP.part.hbond>
-3.0000

> <Gold.PLP.part.metal>
0.0000

> <Gold.PLP.part.buried>
-4.3720

> <Gold.PLP.part.nonpolar>
-29.8567

> <Gold.PLP.part.repulsive>
0.1629

> <Gold.PLP.ligand.clash>
0.0000

> <Gold.PLP.ligand.torsion>
0.2747

> <Gold.PLP.Chemscore.Hbond>
2.9843

> <Gold.PLP.Chemscore.CHOScore>
0.0000

> <Gold.PLP.Chemscore.Metal>
0.0000

> <Gold.Chemscore.Hbonds>
donor molecule, donor type, donor heavy atom, donor atom, acceptor molecule, acceptor atom, score
      L1  H     3    18       P1  8028  0.51
      L1  H    11    37       P1  8028  1.43
      L1  H    12    27       P1  8028  0.53

> <Gold.PLP.Chemscore.Internal.Correction>
0.0125

> <Gold.Rescore>
     Score         DG    S(hbond)    S(metal)    S(lipo)     H(rot)  DE(clash)    DE(int)     intcor
     17.66     -17.94       1.61        0.00      95.30       1.59       0.03       0.26       ----

> <Gold.Chemscore.Fitness>
17.6551

> <Gold.Chemscore.DG>
-17.9386

> <Gold.Chemscore.ZeroCoef>
-5.4800

> <Gold.Chemscore.Hbond>
1.6130

> <Gold.Chemscore.Metal>
0.0000

> <Gold.Chemscore.Lipo>
95.2955

> <Gold.Chemscore.Internal_Hbond>
0.0000

> <Gold.Chemscore.DEClash>
0.0272

> <Gold.Chemscore.DEInternal>
0.2564

> <Gold.Chemscore.Rot>
1.5932

> <Gold.Chemscore.Internal.Correction>
   9.000000E+99

> <Gold.Chemscore.Hbonds>
donor molecule, donor type, donor heavy atom, donor atom, acceptor molecule, acceptor atom, score
      L1  H     3    18       P1  8028  0.52
      L1  H    11    37       P1  8028  0.53
      L1  H    12    27       P1  8028  0.23

> <Gold.Chemscore.Hbond.Weighted>
-5.3876

> <Gold.Chemscore.Metal.Weighted>
-0.0000

> <Gold.Chemscore.Lipo.Weighted>
-11.1496

> <Gold.Chemscore.Internal_Hbond.Weighted>
0.0000

> <Gold.Chemscore.DEClash.Weighted>
0.0272

> <Gold.Chemscore.DEInternal.Weighted>
0.2564

> <Gold.Chemscore.Rot.Weighted>
4.0785

> <Gold.Chemscore.Internal.Correction.Weighted>
   9.000000E+99

> <Gold.Protein.RotatedTorsions>
[ 6907 6896 6895 6894 ] final  -39.35 input  -60.11 | X-H torsion
[ 7974 7965 7964 7962 ] final   90.80 input  175.53 | X-H torsion
[ 8008 7997 7996 7995 ] final  119.52 input   59.86 | X-H torsion
[ 10167 10162 10161 10158 ] final  146.83 input  -65.29 | X-H torsion
[ 10718 10713 10712 10709 ] final  -56.01 input   66.30 | X-H torsion
[ 10763 10752 10751 10750 ] final   38.58 input  -60.55 | X-H torsion
[ 11005 11000 10999 10996 ] final    9.12 input  -57.11 | X-H torsion

> <Gold.Protein.ActiveResidues>
 VAL166  LYS551  ARG553  GLY616  TRP617  ASP618  TYR619  PRO620  LYS621  CYS622 
 ASP623  PHE694  ASN695  SER759  ASP760  ASP761  ALA762  ILE779  LEU786  VAL792 
 PHE793  MET794  SER795  GLU796  ALA797  LYS798  CYS799  TRP800  GLU811  SER814 

> <Gold.Protein.RotatedAtoms>
  150.9914  134.9248  159.7901 H   0  0  0  0  0  0  0  0  0  0  0  0  # atno 6907 bound_to 6896
  152.5252  134.3277  159.9181 H   0  0  0  0  0  0  0  0  0  0  0  0  # atno 6908 bound_to 6896
  151.3283  133.3970  159.2695 H   0  0  0  0  0  0  0  0  0  0  0  0  # atno 6909 bound_to 6896
  145.5141  139.2277  143.2708 H   0  0  0  0  0  0  0  0  0  0  0  0  # atno 7974 bound_to 7965
  156.2599  140.2851  156.1004 H   0  0  0  0  0  0  0  0  0  0  0  0  # atno 8008 bound_to 7997
  155.1366  140.0395  157.2805 H   0  0  0  0  0  0  0  0  0  0  0  0  # atno 8009 bound_to 7997
  154.6560  140.2555  155.7167 H   0  0  0  0  0  0  0  0  0  0  0  0  # atno 8010 bound_to 7997
  139.4900  144.5800  151.6890 H   0  0  0  0  0  0  0  0  0  0  0  0  # atno 10167 bound_to 10162
  156.1323  130.4159  150.0247 H   0  0  0  0  0  0  0  0  0  0  0  0  # atno 10718 bound_to 10713
  152.9996  135.6245  154.2328 H   0  0  0  0  0  0  0  0  0  0  0  0  # atno 10763 bound_to 10752
  154.2070  135.2801  155.2973 H   0  0  0  0  0  0  0  0  0  0  0  0  # atno 10764 bound_to 10752
  154.5638  135.5697  153.7090 H   0  0  0  0  0  0  0  0  0  0  0  0  # atno 10765 bound_to 10752
  140.5293  134.0482  155.7868 H   0  0  0  0  0  0  0  0  0  0  0  0  # atno 11005 bound_to 11000
  146.2148  140.5950  142.9043 LP  0  0  0  0  0  0  0  0  0  0  0  0  # atno 17320 bound_to 7965
  144.7711  140.5640  143.6669 LP  0  0  0  0  0  0  0  0  0  0  0  0  # atno 17321 bound_to 7965
  140.5404  144.0588  150.6086 LP  0  0  0  0  0  0  0  0  0  0  0  0  # atno 17342 bound_to 10162
  140.3608  143.2909  152.0386 LP  0  0  0  0  0  0  0  0  0  0  0  0  # atno 17343 bound_to 10162
  156.8156  130.9340  151.3643 LP  0  0  0  0  0  0  0  0  0  0  0  0  # atno 17370 bound_to 10713
  157.6499  130.8876  149.9613 LP  0  0  0  0  0  0  0  0  0  0  0  0  # atno 17371 bound_to 10713
  141.1290  133.9334  157.2574 LP  0  0  0  0  0  0  0  0  0  0  0  0  # atno 17394 bound_to 11000
  139.9563  135.0165  156.9137 LP  0  0  0  0  0  0  0  0  0  0  0  0  # atno 17395 bound_to 11000

$$$$
