AV-unprocessed.smi:40|AV-procd|sdf|376|dock2
  -GOLD-   2262016223D 1   1.00000     0.00000
 Structure written by MMmdl.
 47 48  0  0  0  0  0  0  0  0  1 V2000
  151.9999  145.7955  159.9622 C   0  0  0  0  0  0  0  0  0  0  0  0
  152.1475  144.9672  158.6808 C   0  0  0  0  0  0  0  0  0  0  0  0
  153.0991  143.7762  158.8576 C   0  0  0  0  0  0  0  0  0  0  0  0
  152.5066  142.6666  159.7428 C   0  0  0  0  0  0  0  0  0  0  0  0
  153.3457  141.3807  159.7396 C   0  0  0  0  0  0  0  0  0  0  0  0
  152.4737  140.2662  159.6649 O   0  0  0  0  0  0  0  0  0  0  0  0
  152.2302  139.6537  158.4924 C   0  0  0  0  0  0  0  0  0  0  0  0
  152.7717  139.9567  157.4297 O   0  0  0  0  0  0  0  0  0  0  0  0
  151.2765  138.5686  158.6553 N   0  0  0  0  0  0  0  0  0  0  0  0
  150.7920  137.7321  157.7055 C   0  0  0  0  0  0  0  0  0  0  0  0
  151.3330  137.6513  156.5012 N   0  0  0  0  0  0  0  0  0  0  0  0
  150.8851  136.8243  155.5085 C   0  0  0  0  0  0  0  0  0  0  0  0
  151.4363  136.8401  154.4115 O   0  0  0  0  0  0  0  0  0  0  0  0
  149.7914  135.9710  155.8109 N   0  0  0  0  0  0  0  0  0  0  0  0
  149.1444  135.0671  154.7713 C   0  0  1  0  0  0  0  0  0  0  0  0
  149.8238  133.8498  154.7399 O   0  0  0  0  0  0  0  0  0  0  0  0
  149.0666  132.8226  155.3633 C   0  0  2  0  0  0  0  0  0  0  0  0
  149.3698  131.4805  154.6873 C   0  0  0  0  0  0  0  0  0  0  0  0
  147.5994  133.2611  155.2382 C   0  0  1  0  0  0  0  0  0  0  0  0
  146.9077  132.9609  156.4337 O   0  0  0  0  0  0  0  0  0  0  0  0
  147.6475  134.7756  155.0083 C   0  0  2  0  0  0  0  0  0  0  0  0
  146.8809  135.1084  153.8679 O   0  0  0  0  0  0  0  0  0  0  0  0
  149.2188  136.0385  157.0743 C   0  0  0  0  0  0  0  0  0  0  0  0
  149.6770  136.8726  158.0327 C   0  0  0  0  0  0  0  0  0  0  0  0
  149.1026  136.9073  159.2477 F   0  0  0  0  0  0  0  0  0  0  0  0
  149.3102  135.5736  153.8197 H   0  0  0  0  0  0  0  0  0  0  0  0
  149.3731  132.7632  156.4073 H   0  0  0  0  0  0  0  0  0  0  0  0
  147.1177  132.7514  154.4019 H   0  0  0  0  0  0  0  0  0  0  0  0
  147.2641  135.3537  155.8492 H   0  0  0  0  0  0  0  0  0  0  0  0
  151.3200  146.6333  159.8060 H   0  0  0  0  0  0  0  0  0  0  0  0
  152.9605  146.2020  160.2808 H   0  0  0  0  0  0  0  0  0  0  0  0
  151.6030  145.1918  160.7790 H   0  0  0  0  0  0  0  0  0  0  0  0
  151.1670  144.6101  158.3641 H   0  0  0  0  0  0  0  0  0  0  0  0
  152.5147  145.6125  157.8819 H   0  0  0  0  0  0  0  0  0  0  0  0
  153.3378  143.3715  157.8743 H   0  0  0  0  0  0  0  0  0  0  0  0
  154.0421  144.1198  159.2844 H   0  0  0  0  0  0  0  0  0  0  0  0
  152.4195  143.0315  160.7666 H   0  0  0  0  0  0  0  0  0  0  0  0
  151.4933  142.4346  159.4131 H   0  0  0  0  0  0  0  0  0  0  0  0
  154.0336  141.3736  158.8932 H   0  0  0  0  0  0  0  0  0  0  0  0
  153.9422  141.3233  160.6512 H   0  0  0  0  0  0  0  0  0  0  0  0
  150.9324  138.4520  159.5971 H   0  0  0  0  0  0  0  0  0  0  0  0
  148.7910  130.6758  155.1412 H   0  0  0  0  0  0  0  0  0  0  0  0
  150.4256  131.2263  154.7833 H   0  0  0  0  0  0  0  0  0  0  0  0
  149.1291  131.5092  153.6243 H   0  0  0  0  0  0  0  0  0  0  0  0
  147.0760  132.0572  156.6562 H   0  0  0  0  0  0  0  0  0  0  0  0
  147.4492  135.5189  153.2344 H   0  0  0  0  0  0  0  0  0  0  0  0
  148.3750  135.4095  157.3195 H   0  0  0  0  0  0  0  0  0  0  0  0
  1  2  1  0  0  0  0
  1 30  1  0  0  0  0
  1 31  1  0  0  0  0
  1 32  1  0  0  0  0
  2  3  1  0  0  0  0
  2 33  1  0  0  0  0
  2 34  1  0  0  0  0
  3  4  1  0  0  0  0
  3 35  1  0  0  0  0
  3 36  1  0  0  0  0
  4  5  1  0  0  0  0
  4 37  1  0  0  0  0
  4 38  1  0  0  0  0
  5  6  1  0  0  0  0
  5 39  1  0  0  0  0
  5 40  1  0  0  0  0
  6  7  1  0  0  0  0
  7  8  2  0  0  0  0
  7  9  1  0  0  0  0
  9 10  1  0  0  0  0
  9 41  1  0  0  0  0
 10 24  1  0  0  0  0
 10 11  2  0  0  0  0
 11 12  1  0  0  0  0
 12 13  2  0  0  0  0
 12 14  1  0  0  0  0
 14 15  1  0  0  0  0
 14 23  1  0  0  0  0
 15 26  1  0  0  0  0
 15 21  1  0  0  0  0
 15 16  1  0  0  0  0
 16 17  1  0  0  0  0
 17 27  1  0  0  0  0
 17 18  1  0  0  0  0
 17 19  1  0  0  0  0
 18 42  1  0  0  0  0
 18 43  1  0  0  0  0
 18 44  1  0  0  0  0
 19 28  1  0  0  0  0
 19 20  1  0  0  0  0
 19 21  1  0  0  0  0
 20 45  1  0  0  0  0
 21 29  1  0  0  0  0
 21 22  1  0  0  0  0
 22 46  1  0  0  0  0
 23 24  2  0  0  0  0
 23 47  1  0  0  0  0
 24 25  1  0  0  0  0
M  END
> <s_m_source_file>
AV-unprocessed.smi

> <i_m_source_file_index>
40

> <i_lp_mmshare_version>
43012

> <i_f3d_flags>
0

> <s_epik_input>
W0NIM11bQ0gyXVtDSDJdW0NIMl1bQ0gyXU9DKD1PKVtOSF1jMW5jKD1PKW4oW2NIXWMxRilbQ0BASF0yT1tDQEhdKFtDSDNdKVtDQEBIXShbT0hdKVtDQEhdMltPSF0=

> <s_epik_cmdline>
J2VwaWtfcHl0aG9uJywgJy1waCcsICc3LjAnLCAnLXRuJywgJzgnLCAnLW1hJywgJzIwMCcsICctbWV0YWxfYmluZGluZycsICctaW1hZScsICc8aW5maWxlLm1hZT4nLCAnLW9tYWUnLCAnPG91dGZpbGUubWFlPic=

> <r_lp_tautomer_probability>
1

> <r_epik_Ionization_Penalty>
2.29506e-06

> <r_epik_Ionization_Penalty_Charging>
8.26867e-09

> <r_epik_Ionization_Penalty_Neutral>
2.2868e-06

> <r_epik_State_Penalty>
-0

> <r_epik_Charging_Adjusted_Penalty>
8.26867e-09

> <i_epik_Tot_Q>
0

> <i_epik_Tot_abs_Q>
0

> <r_epik_Metal_State_Penalty>
-0

> <b_epik_Metal_Only>
0

> <s_epik_Chemistry_Notes>
This compound has an ester and may undergo hydrolysis at high or low pH. This compound contains an acetal/aminal-like group ( X-CH(R)-Y where X, Y are N, S, or O) that may be acid/base labile, releasing an aldehyde.

> <s_lp_Force_Field>
OPLS_2005

> <r_lp_Energy>
21.8092

> <b_lp_Chiralities_Consistent>
1

> <s_lp_Variant>
AV-unprocessed.smi:40-10

> <Gold.Version>
5.8.1

> <Gold.Id.Protein>
6NUR|6NUR_protein|mol2

> <Gold.PLP.Fitness>
45.2216

> <Gold.PLP.PLP>
-38.7691

> <Gold.PLP.part.hbond>
-3.0000

> <Gold.PLP.part.metal>
0.0000

> <Gold.PLP.part.buried>
-3.1615

> <Gold.PLP.part.nonpolar>
-32.1991

> <Gold.PLP.part.repulsive>
0.6299

> <Gold.PLP.ligand.clash>
0.0000

> <Gold.PLP.ligand.torsion>
1.3578

> <Gold.PLP.Chemscore.Hbond>
3.0000

> <Gold.PLP.Chemscore.CHOScore>
0.0000

> <Gold.PLP.Chemscore.Metal>
0.0000

> <Gold.Chemscore.Hbonds>
donor molecule, donor type, donor heavy atom, donor atom, acceptor molecule, acceptor atom, score
      L1  H    22    46       P1  7948  0.71
      P1  H  7997  8009       L1     8  1.00
      P1  H 10752 10764       L1    13  1.00

> <Gold.PLP.Chemscore.Internal.Correction>
0.1682

> <Gold.Rescore>
     Score         DG    S(hbond)    S(metal)    S(lipo)     H(rot)  DE(clash)    DE(int)     intcor
     12.80     -15.32       2.90        0.00      82.24       3.70       0.06       2.46       ----

> <Gold.Chemscore.Fitness>
12.8002

> <Gold.Chemscore.DG>
-15.3160

> <Gold.Chemscore.ZeroCoef>
-5.4800

> <Gold.Chemscore.Hbond>
2.8967

> <Gold.Chemscore.Metal>
0.0000

> <Gold.Chemscore.Lipo>
82.2391

> <Gold.Chemscore.Internal_Hbond>
0.0000

> <Gold.Chemscore.DEClash>
0.0582

> <Gold.Chemscore.DEInternal>
2.4576

> <Gold.Chemscore.Rot>
3.6957

> <Gold.Chemscore.Internal.Correction>
   9.000000E+99

> <Gold.Chemscore.Hbonds>
donor molecule, donor type, donor heavy atom, donor atom, acceptor molecule, acceptor atom, score
      L1  H    22    46       P1  7948  0.71
      P1  H  7997  8009       L1     8  0.99
      P1  H 10752 10764       L1    13  0.94

> <Gold.Chemscore.Hbond.Weighted>
-9.6750

> <Gold.Chemscore.Metal.Weighted>
-0.0000

> <Gold.Chemscore.Lipo.Weighted>
-9.6220

> <Gold.Chemscore.Internal_Hbond.Weighted>
0.0000

> <Gold.Chemscore.DEClash.Weighted>
0.0582

> <Gold.Chemscore.DEInternal.Weighted>
2.4576

> <Gold.Chemscore.Rot.Weighted>
9.4610

> <Gold.Chemscore.Internal.Correction.Weighted>
   9.000000E+99

> <Gold.Protein.RotatedTorsions>
[ 6907 6896 6895 6894 ] final   21.75 input  -60.11 | X-H torsion
[ 7974 7965 7964 7962 ] final -106.46 input  175.53 | X-H torsion
[ 8008 7997 7996 7995 ] final  168.74 input   59.86 | X-H torsion
[ 10167 10162 10161 10158 ] final -126.76 input  -65.29 | X-H torsion
[ 10718 10713 10712 10709 ] final  -54.49 input   66.30 | X-H torsion
[ 10763 10752 10751 10750 ] final  -89.40 input  -60.55 | X-H torsion
[ 11005 11000 10999 10996 ] final -106.50 input  -57.11 | X-H torsion

> <Gold.Protein.ActiveResidues>
 VAL166  LYS551  ARG553  GLY616  TRP617  ASP618  TYR619  PRO620  LYS621  CYS622 
 ASP623  PHE694  ASN695  SER759  ASP760  ASP761  ALA762  ILE779  LEU786  VAL792 
 PHE793  MET794  SER795  GLU796  ALA797  LYS798  CYS799  TRP800  GLU811  SER814 

> <Gold.Protein.RotatedAtoms>
  151.9166  135.0316  160.0518 H   0  0  0  0  0  0  0  0  0  0  0  0  # atno 6907 bound_to 6896
  152.2235  133.4997  159.5184 H   0  0  0  0  0  0  0  0  0  0  0  0  # atno 6908 bound_to 6896
  150.7006  134.1228  159.4083 H   0  0  0  0  0  0  0  0  0  0  0  0  # atno 6909 bound_to 6896
  145.2176  140.9121  143.3278 H   0  0  0  0  0  0  0  0  0  0  0  0  # atno 7974 bound_to 7965
  156.1520  140.1582  156.8754 H   0  0  0  0  0  0  0  0  0  0  0  0  # atno 8008 bound_to 7997
  154.5080  140.0808  156.7969 H   0  0  0  0  0  0  0  0  0  0  0  0  # atno 8009 bound_to 7997
  155.3878  140.3408  155.4252 H   0  0  0  0  0  0  0  0  0  0  0  0  # atno 8010 bound_to 7997
  139.9680  143.5876  152.2422 H   0  0  0  0  0  0  0  0  0  0  0  0  # atno 10167 bound_to 10162
  156.1447  130.4153  150.0044 H   0  0  0  0  0  0  0  0  0  0  0  0  # atno 10718 bound_to 10713
  154.6548  135.5342  153.7946 H   0  0  0  0  0  0  0  0  0  0  0  0  # atno 10763 bound_to 10752
  153.0407  135.6491  154.0961 H   0  0  0  0  0  0  0  0  0  0  0  0  # atno 10764 bound_to 10752
  154.0875  135.2942  155.3258 H   0  0  0  0  0  0  0  0  0  0  0  0  # atno 10765 bound_to 10752
  141.1001  133.8899  157.1863 H   0  0  0  0  0  0  0  0  0  0  0  0  # atno 11005 bound_to 11000
  144.9796  139.3797  143.6268 LP  0  0  0  0  0  0  0  0  0  0  0  0  # atno 17320 bound_to 7965
  146.3383  139.8931  142.8806 LP  0  0  0  0  0  0  0  0  0  0  0  0  # atno 17321 bound_to 7965
  139.6502  144.7660  151.2162 LP  0  0  0  0  0  0  0  0  0  0  0  0  # atno 17342 bound_to 10162
  140.7531  143.6173  150.8548 LP  0  0  0  0  0  0  0  0  0  0  0  0  # atno 17343 bound_to 10162
  156.7920  130.9259  151.3646 LP  0  0  0  0  0  0  0  0  0  0  0  0  # atno 17370 bound_to 10713
  157.6606  130.8963  149.9822 LP  0  0  0  0  0  0  0  0  0  0  0  0  # atno 17371 bound_to 10713
  139.9850  135.0085  156.9841 LP  0  0  0  0  0  0  0  0  0  0  0  0  # atno 17394 bound_to 11000
  140.5042  134.1066  155.7256 LP  0  0  0  0  0  0  0  0  0  0  0  0  # atno 17395 bound_to 11000

$$$$
