AV-unprocessed.smi:2867|AV-procd|sdf|11026|dock9
  -GOLD-   2272015493D 1   1.00000     0.00000
 Structure written by MMmdl.
 40 42  0  0  0  0  0  0  0  0  3 V2000
  153.1843  138.6726  154.4053 C   0  0  0  0  0  0  0  0  0  0  0  0
  152.9490  139.4377  155.5734 O   0  0  0  0  0  0  0  0  0  0  0  0
  152.5556  138.6410  156.6796 C   0  0  0  0  0  0  0  0  0  0  0  0
  151.6153  139.4510  157.5827 C   0  0  0  0  0  0  0  0  0  0  0  0
  150.7697  140.3752  156.8102 N   0  0  0  0  0  0  0  0  0  0  0  0
  150.5892  141.7235  156.9039 C   0  0  0  0  0  0  0  0  0  0  0  0
  151.2468  142.6357  157.8515 C   0  0  0  0  0  0  0  0  0  0  0  0
  151.3171  144.0183  157.5732 C   0  0  0  0  0  0  0  0  0  0  0  0
  151.9404  144.9032  158.4743 C   0  0  0  0  0  0  0  0  0  0  0  0
  152.5067  144.4113  159.6648 C   0  0  0  0  0  0  0  0  0  0  0  0
  152.4491  143.0346  159.9501 C   0  0  0  0  0  0  0  0  0  0  0  0
  152.9949  142.5561  161.0930 F   0  0  0  0  0  0  0  0  0  0  0  0
  151.8248  142.1537  159.0462 C   0  0  0  0  0  0  0  0  0  0  0  0
  149.6536  142.1015  155.9928 N   0  3  0  0  0  0  0  0  0  0  0  0
  149.2250  140.9738  155.2906 C   0  0  0  0  0  0  0  0  0  0  0  0
  148.2912  140.8446  154.2689 C   0  0  0  0  0  0  0  0  0  0  0  0
  148.0765  139.5402  153.7768 C   0  0  0  0  0  0  0  0  0  0  0  0
  146.8830  139.2983  152.4648 S   0  0  0  0  0  0  0  0  0  0  0  0
  145.6100  139.0007  153.4086 N   0  5  0  0  0  0  0  0  0  0  0  0
  146.7799  140.5795  151.7497 O   0  0  0  0  0  0  0  0  0  0  0  0
  147.3261  138.1140  151.7127 O   0  0  0  0  0  0  0  0  0  0  0  0
  148.7717  138.4261  154.2936 C   0  0  0  0  0  0  0  0  0  0  0  0
  149.7175  138.5721  155.3297 C   0  0  0  0  0  0  0  0  0  0  0  0
  149.9301  139.8640  155.8118 C   0  0  0  0  0  0  0  0  0  0  0  0
  153.4813  139.3329  153.5906 H   0  0  0  0  0  0  0  0  0  0  0  0
  152.2853  138.1383  154.0954 H   0  0  0  0  0  0  0  0  0  0  0  0
  153.9858  137.9498  154.5631 H   0  0  0  0  0  0  0  0  0  0  0  0
  152.0481  137.7405  156.3305 H   0  0  0  0  0  0  0  0  0  0  0  0
  153.4341  138.3241  157.2442 H   0  0  0  0  0  0  0  0  0  0  0  0
  150.9662  138.7780  158.1401 H   0  0  0  0  0  0  0  0  0  0  0  0
  152.1767  140.0147  158.3278 H   0  0  0  0  0  0  0  0  0  0  0  0
  150.8815  144.4073  156.6642 H   0  0  0  0  0  0  0  0  0  0  0  0
  151.9831  145.9593  158.2523 H   0  0  0  0  0  0  0  0  0  0  0  0
  152.9855  145.0883  160.3570 H   0  0  0  0  0  0  0  0  0  0  0  0
  151.7940  141.0980  159.2728 H   0  0  0  0  0  0  0  0  0  0  0  0
  147.7548  141.6916  153.8676 H   0  0  0  0  0  0  0  0  0  0  0  0
  144.9267  139.7524  153.2581 H   0  0  0  0  0  0  0  0  0  0  0  0
  148.5808  137.4429  153.8888 H   0  0  0  0  0  0  0  0  0  0  0  0
  150.2432  137.7138  155.7202 H   0  0  0  0  0  0  0  0  0  0  0  0
  149.3337  143.0527  155.8641 H   0  0  0  0  0  0  0  0  0  0  0  0
  1  2  1  0  0  0  0
  1 25  1  0  0  0  0
  1 26  1  0  0  0  0
  1 27  1  0  0  0  0
  2  3  1  0  0  0  0
  3  4  1  0  0  0  0
  3 28  1  0  0  0  0
  3 29  1  0  0  0  0
  4  5  1  0  0  0  0
  4 30  1  0  0  0  0
  4 31  1  0  0  0  0
  5 24  1  0  0  0  0
  5  6  1  0  0  0  0
  6  7  1  0  0  0  0
  6 14  2  0  0  0  0
  7 13  1  0  0  0  0
  7  8  2  0  0  0  0
  8  9  1  0  0  0  0
  8 32  1  0  0  0  0
  9 10  2  0  0  0  0
  9 33  1  0  0  0  0
 10 11  1  0  0  0  0
 10 34  1  0  0  0  0
 11 12  1  0  0  0  0
 11 13  2  0  0  0  0
 13 35  1  0  0  0  0
 14 15  1  0  0  0  0
 14 40  1  0  0  0  0
 15 24  2  0  0  0  0
 15 16  1  0  0  0  0
 16 17  2  0  0  0  0
 16 36  1  0  0  0  0
 17 18  1  0  0  0  0
 17 22  1  0  0  0  0
 18 19  1  0  0  0  0
 18 20  2  0  0  0  0
 18 21  2  0  0  0  0
 19 37  1  0  0  0  0
 22 23  2  0  0  0  0
 22 38  1  0  0  0  0
 23 24  1  0  0  0  0
 23 39  1  0  0  0  0
M  CHG  1  14   1
M  CHG  1  19  -1
M  END
> <s_m_source_file>
AV-unprocessed.smi

> <i_m_source_file_index>
2867

> <i_lp_mmshare_version>
43012

> <i_f3d_flags>
0

> <s_epik_input>
W05IMl1TKD1PKSg9TyljKFtjSF0xKVtjSF1bY0hdYyhjMTIpbihbQ0gyXVtDSDJdT1tDSDNdKWMobjIpLWMzW2NIXVtjSF1bY0hdYyhGKVtjSF0z

> <s_epik_cmdline>
J2VwaWtfcHl0aG9uJywgJy1waCcsICc3LjAnLCAnLXRuJywgJzgnLCAnLW1hJywgJzIwMCcsICctbWV0YWxfYmluZGluZycsICctaW1hZScsICc8aW5maWxlLm1hZT4nLCAnLW9tYWUnLCAnPG91dGZpbGUubWFlPic=

> <r_epik_Ionization_Penalty>
2.60795

> <r_epik_Ionization_Penalty_Charging>
2.60795

> <r_epik_Ionization_Penalty_Neutral>
2.51e-12

> <r_epik_State_Penalty>
3.58678

> <r_epik_Charging_Adjusted_Penalty>
6.19473

> <i_epik_Tot_Q>
0

> <i_epik_Tot_abs_Q>
2

> <r_epik_Metal_State_Penalty>
1.73828

> <b_epik_Metal_Only>
1

> <s_lp_Force_Field>
OPLS_2005

> <r_lp_Energy>
13.6429

> <b_lp_Chiralities_Consistent>
1

> <s_lp_Variant>
AV-unprocessed.smi:2867-4

> <Gold.Version>
5.8.1

> <Gold.Id.Protein>
6NUR|6NUR_protein|mol2

> <Gold.PLP.Fitness>
56.1257

> <Gold.PLP.PLP>
-42.2443

> <Gold.PLP.part.hbond>
-4.0000

> <Gold.PLP.part.metal>
0.0000

> <Gold.PLP.part.buried>
-3.0171

> <Gold.PLP.part.nonpolar>
-42.4935

> <Gold.PLP.part.repulsive>
7.2227

> <Gold.PLP.ligand.clash>
0.0000

> <Gold.PLP.ligand.torsion>
1.6173

> <Gold.PLP.Chemscore.Hbond>
5.0000

> <Gold.PLP.Chemscore.CHOScore>
0.0000

> <Gold.PLP.Chemscore.Metal>
0.0000

> <Gold.Chemscore.Hbonds>
donor molecule, donor type, donor heavy atom, donor atom, acceptor molecule, acceptor atom, score
      L1  H    14    40       P1  8028  2.00
      L1  H    19    37       P1 10175  1.00
      P1  H  7954  7966       L1    21  1.00
      P1  H  7997  8010       L1     2  0.90

> <Gold.PLP.Chemscore.Internal.Correction>
2.1160

> <Gold.Rescore>
     Score         DG    S(hbond)    S(metal)    S(lipo)     H(rot)  DE(clash)    DE(int)     intcor
     21.08     -27.39       3.45        0.00     120.46       1.45       3.91       2.39       ----

> <Gold.Chemscore.Fitness>
21.0828

> <Gold.Chemscore.DG>
-27.3860

> <Gold.Chemscore.ZeroCoef>
-5.4800

> <Gold.Chemscore.Hbond>
3.4527

> <Gold.Chemscore.Metal>
0.0000

> <Gold.Chemscore.Lipo>
120.4579

> <Gold.Chemscore.Internal_Hbond>
0.0000

> <Gold.Chemscore.DEClash>
3.9145

> <Gold.Chemscore.DEInternal>
2.3888

> <Gold.Chemscore.Rot>
1.4530

> <Gold.Chemscore.Internal.Correction>
   9.000000E+99

> <Gold.Chemscore.Hbonds>
donor molecule, donor type, donor heavy atom, donor atom, acceptor molecule, acceptor atom, score
      L1  H    14    40       P1  8028  1.00
      L1  H    19    37       P1 10175  0.97
      P1  H  7954  7966       L1    21  0.95
      P1  H  7997  8010       L1     2  0.16

> <Gold.Chemscore.Hbond.Weighted>
-11.5320

> <Gold.Chemscore.Metal.Weighted>
-0.0000

> <Gold.Chemscore.Lipo.Weighted>
-14.0936

> <Gold.Chemscore.Internal_Hbond.Weighted>
0.0000

> <Gold.Chemscore.DEClash.Weighted>
3.9145

> <Gold.Chemscore.DEInternal.Weighted>
2.3888

> <Gold.Chemscore.Rot.Weighted>
3.7196

> <Gold.Chemscore.Internal.Correction.Weighted>
   9.000000E+99

> <Gold.Protein.RotatedTorsions>
[ 6907 6896 6895 6894 ] final   81.56 input  -60.11 | X-H torsion
[ 7974 7965 7964 7962 ] final   63.77 input  175.53 | X-H torsion
[ 8008 7997 7996 7995 ] final   80.25 input   59.86 | X-H torsion
[ 10167 10162 10161 10158 ] final  146.84 input  -65.29 | X-H torsion
[ 10718 10713 10712 10709 ] final -179.96 input   66.30 | X-H torsion
[ 10763 10752 10751 10750 ] final   96.67 input  -60.55 | X-H torsion
[ 11005 11000 10999 10996 ] final   85.50 input  -57.11 | X-H torsion

> <Gold.Protein.ActiveResidues>
 VAL166  LYS551  ARG553  GLY616  TRP617  ASP618  TYR619  PRO620  LYS621  CYS622 
 ASP623  PHE694  ASN695  SER759  ASP760  ASP761  ALA762  ILE779  LEU786  VAL792 
 PHE793  MET794  SER795  GLU796  ALA797  LYS798  CYS799  TRP800  GLU811  SER814 

> <Gold.Protein.RotatedAtoms>
  152.5272  134.3185  159.9139 H   0  0  0  0  0  0  0  0  0  0  0  0  # atno 6907 bound_to 6896
  151.3134  133.4064  159.2656 H   0  0  0  0  0  0  0  0  0  0  0  0  # atno 6908 bound_to 6896
  151.0019  134.9346  159.8016 H   0  0  0  0  0  0  0  0  0  0  0  0  # atno 6909 bound_to 6896
  145.8579  139.3296  143.0836 H   0  0  0  0  0  0  0  0  0  0  0  0  # atno 7974 bound_to 7965
  155.8809  140.3444  155.5887 H   0  0  0  0  0  0  0  0  0  0  0  0  # atno 8008 bound_to 7997
  155.7720  140.0846  157.2122 H   0  0  0  0  0  0  0  0  0  0  0  0  # atno 8009 bound_to 7997
  154.4024  140.1516  156.2940 H   0  0  0  0  0  0  0  0  0  0  0  0  # atno 8010 bound_to 7997
  139.4900  144.5800  151.6891 H   0  0  0  0  0  0  0  0  0  0  0  0  # atno 10167 bound_to 10162
  156.8668  130.9770  151.3077 H   0  0  0  0  0  0  0  0  0  0  0  0  # atno 10718 bound_to 10713
  153.2677  135.4210  155.0957 H   0  0  0  0  0  0  0  0  0  0  0  0  # atno 10763 bound_to 10752
  154.8444  135.3464  154.6288 H   0  0  0  0  0  0  0  0  0  0  0  0  # atno 10764 bound_to 10752
  153.6708  135.7044  153.5205 H   0  0  0  0  0  0  0  0  0  0  0  0  # atno 10765 bound_to 10752
  139.8970  134.8291  156.2591 H   0  0  0  0  0  0  0  0  0  0  0  0  # atno 11005 bound_to 11000
  145.9282  140.9067  143.0370 LP  0  0  0  0  0  0  0  0  0  0  0  0  # atno 17320 bound_to 7965
  144.6727  140.1381  143.7439 LP  0  0  0  0  0  0  0  0  0  0  0  0  # atno 17321 bound_to 7965
  140.5404  144.0589  150.6086 LP  0  0  0  0  0  0  0  0  0  0  0  0  # atno 17342 bound_to 10162
  140.3609  143.2909  152.0385 LP  0  0  0  0  0  0  0  0  0  0  0  0  # atno 17343 bound_to 10162
  157.6218  130.8661  149.9122 LP  0  0  0  0  0  0  0  0  0  0  0  0  # atno 17370 bound_to 10713
  156.0747  130.3680  150.0702 LP  0  0  0  0  0  0  0  0  0  0  0  0  # atno 17371 bound_to 10713
  141.0174  133.7061  156.1211 LP  0  0  0  0  0  0  0  0  0  0  0  0  # atno 17394 bound_to 11000
  140.7282  134.4284  157.5568 LP  0  0  0  0  0  0  0  0  0  0  0  0  # atno 17395 bound_to 11000

$$$$
