AV-unprocessed.smi:38|AV-procd|sdf|338|dock7
  -GOLD-   2262016173D 1   1.00000     0.00000
 Structure written by MMmdl.
 28 29  0  0  0  0  0  0  0  0  1 V2000
  152.0309  136.9727  159.6499 O   0  0  0  0  0  0  0  0  0  0  0  0
  151.6048  137.5109  158.6300 C   0  0  0  0  0  0  0  0  0  0  0  0
  152.4921  137.9399  157.6383 N   0  0  0  0  0  0  0  0  0  0  0  0
  152.1322  138.5597  156.4400 C   0  0  0  0  0  0  0  0  0  0  0  0
  153.0042  138.9110  155.6466 O   0  0  0  0  0  0  0  0  0  0  0  0
  150.7530  138.7598  156.2072 N   0  0  0  0  0  0  0  0  0  0  0  0
  150.2992  139.4200  154.9257 C   0  0  2  0  0  0  0  0  0  0  0  0
  149.8055  140.8461  155.1908 C   0  0  0  0  0  0  0  0  0  0  0  0
  148.6022  140.9442  154.2744 C   0  0  1  0  0  0  0  0  0  0  0  0
  148.9934  141.3690  152.9823 O   0  0  0  0  0  0  0  0  0  0  0  0
  148.0742  139.5023  154.2810 C   0  0  1  0  0  0  0  0  0  0  0  0
  147.2079  139.0717  153.0847 C   0  0  0  0  0  0  0  0  0  0  0  0
  148.0260  138.6727  152.0055 O   0  0  0  0  0  0  0  0  0  0  0  0
  149.2377  138.6854  154.3887 O   0  0  0  0  0  0  0  0  0  0  0  0
  149.8365  138.3624  157.1715 C   0  0  0  0  0  0  0  0  0  0  0  0
  150.1987  137.7661  158.3318 C   0  0  0  0  0  0  0  0  0  0  0  0
  149.2536  137.4112  159.2187 F   0  0  0  0  0  0  0  0  0  0  0  0
  153.4770  137.7926  157.8052 H   0  0  0  0  0  0  0  0  0  0  0  0
  151.1208  139.3744  154.2093 H   0  0  0  0  0  0  0  0  0  0  0  0
  147.8602  141.6471  154.6551 H   0  0  0  0  0  0  0  0  0  0  0  0
  147.5024  139.3552  155.1983 H   0  0  0  0  0  0  0  0  0  0  0  0
  149.4877  140.9381  156.2306 H   0  0  0  0  0  0  0  0  0  0  0  0
  150.5866  141.5822  154.9963 H   0  0  0  0  0  0  0  0  0  0  0  0
  149.1681  140.6033  152.4561 H   0  0  0  0  0  0  0  0  0  0  0  0
  146.5270  138.2631  153.3512 H   0  0  0  0  0  0  0  0  0  0  0  0
  146.5915  139.9080  152.7543 H   0  0  0  0  0  0  0  0  0  0  0  0
  148.4743  137.8765  152.2472 H   0  0  0  0  0  0  0  0  0  0  0  0
  148.7842  138.5345  157.0040 H   0  0  0  0  0  0  0  0  0  0  0  0
  1  2  2  0  0  0  0
  2 16  1  0  0  0  0
  2  3  1  0  0  0  0
  3 18  1  0  0  0  0
  3  4  1  0  0  0  0
  4  5  2  0  0  0  0
  4  6  1  0  0  0  0
  6  7  1  0  0  0  0
  6 15  1  0  0  0  0
  7 19  1  0  0  0  0
  7 14  1  0  0  0  0
  7  8  1  0  0  0  0
  8  9  1  0  0  0  0
  8 22  1  0  0  0  0
  8 23  1  0  0  0  0
  9 20  1  0  0  0  0
  9 10  1  0  0  0  0
  9 11  1  0  0  0  0
 10 24  1  0  0  0  0
 11 21  1  0  0  0  0
 11 12  1  0  0  0  0
 11 14  1  0  0  0  0
 12 13  1  0  0  0  0
 12 25  1  0  0  0  0
 12 26  1  0  0  0  0
 13 27  1  0  0  0  0
 15 16  2  0  0  0  0
 15 28  1  0  0  0  0
 16 17  1  0  0  0  0
M  END
> <s_m_source_file>
AV-unprocessed.smi

> <i_m_source_file_index>
38

> <i_lp_mmshare_version>
43012

> <i_f3d_flags>
0

> <s_epik_input>
Tz1jMVtuSF1jKD1PKW4oW2NIXWMxRilbQ0BIXTJbQ0gyXVtDQEhdKFtPSF0pW0NASF0oTzIpW0NIMl1bT0hd

> <s_epik_cmdline>
J2VwaWtfcHl0aG9uJywgJy1waCcsICc3LjAnLCAnLXRuJywgJzgnLCAnLW1hJywgJzIwMCcsICctbWV0YWxfYmluZGluZycsICctaW1hZScsICc8aW5maWxlLm1hZT4nLCAnLW9tYWUnLCAnPG91dGZpbGUubWFlPic=

> <r_lp_tautomer_probability>
0.999537

> <r_epik_Ionization_Penalty>
0.0357432

> <r_epik_Ionization_Penalty_Charging>
0.0357431

> <r_epik_Ionization_Penalty_Neutral>
1.19946e-07

> <r_epik_State_Penalty>
0.0298169

> <r_epik_Charging_Adjusted_Penalty>
0.06556

> <i_epik_Tot_Q>
0

> <i_epik_Tot_abs_Q>
0

> <r_epik_Metal_State_Penalty>
2.348

> <b_epik_Metal_Only>
0

> <s_epik_Chemistry_Notes>
This compound contains an acetal/aminal-like group ( X-CH(R)-Y where X, Y are N, S, or O) that may be acid/base labile, releasing an aldehyde.

> <s_lp_Force_Field>
OPLS_2005

> <r_lp_Energy>
29.3981

> <b_lp_Chiralities_Consistent>
1

> <s_lp_Variant>
AV-unprocessed.smi:38-4

> <Gold.Version>
5.8.1

> <Gold.Id.Protein>
6NUR|6NUR_protein|mol2

> <Gold.PLP.Fitness>
37.6584

> <Gold.PLP.PLP>
-23.7263

> <Gold.PLP.part.hbond>
-5.9426

> <Gold.PLP.part.metal>
0.0000

> <Gold.PLP.part.buried>
-1.9184

> <Gold.PLP.part.nonpolar>
-16.2690

> <Gold.PLP.part.repulsive>
0.3127

> <Gold.PLP.ligand.clash>
0.0000

> <Gold.PLP.ligand.torsion>
0.5390

> <Gold.PLP.Chemscore.Hbond>
5.0026

> <Gold.PLP.Chemscore.CHOScore>
0.0000

> <Gold.PLP.Chemscore.Metal>
0.0000

> <Gold.Chemscore.Hbonds>
donor molecule, donor type, donor heavy atom, donor atom, acceptor molecule, acceptor atom, score
      L1  H    10    24       P1  7957  0.81
      L1  H    13    27       P1  7948  0.98
      P1  H  6896  6908       L1     1  1.00
      P1  H  7954  7966       L1    13  0.09
      P1  H  7997  8010       L1     5  0.98
      P1  H  8011  8017       L1    10  0.83

> <Gold.PLP.Chemscore.Internal.Correction>
0.0023

> <Gold.Rescore>
     Score         DG    S(hbond)    S(metal)    S(lipo)     H(rot)  DE(clash)    DE(int)     intcor
     13.85     -14.72       3.92        0.00      30.75       2.91       0.31       0.57       ----

> <Gold.Chemscore.Fitness>
13.8454

> <Gold.Chemscore.DG>
-14.7217

> <Gold.Chemscore.ZeroCoef>
-5.4800

> <Gold.Chemscore.Hbond>
3.9232

> <Gold.Chemscore.Metal>
0.0000

> <Gold.Chemscore.Lipo>
30.7533

> <Gold.Chemscore.Internal_Hbond>
0.0000

> <Gold.Chemscore.DEClash>
0.3072

> <Gold.Chemscore.DEInternal>
0.5691

> <Gold.Chemscore.Rot>
2.9141

> <Gold.Chemscore.Internal.Correction>
   9.000000E+99

> <Gold.Chemscore.Hbonds>
donor molecule, donor type, donor heavy atom, donor atom, acceptor molecule, acceptor atom, score
      L1  H    10    24       P1  7957  0.76
      L1  H    13    27       P1  7948  0.93
      P1  H  6896  6908       L1     1  0.99
      P1  H  7997  8010       L1     5  0.92
      P1  H  8011  8017       L1    10  0.32

> <Gold.Chemscore.Hbond.Weighted>
-13.1036

> <Gold.Chemscore.Metal.Weighted>
-0.0000

> <Gold.Chemscore.Lipo.Weighted>
-3.5981

> <Gold.Chemscore.Internal_Hbond.Weighted>
0.0000

> <Gold.Chemscore.DEClash.Weighted>
0.3072

> <Gold.Chemscore.DEInternal.Weighted>
0.5691

> <Gold.Chemscore.Rot.Weighted>
7.4601

> <Gold.Chemscore.Internal.Correction.Weighted>
   9.000000E+99

> <Gold.Protein.RotatedTorsions>
[ 6907 6896 6895 6894 ] final -108.62 input  -60.11 | X-H torsion
[ 7974 7965 7964 7962 ] final -172.60 input  175.53 | X-H torsion
[ 8008 7997 7996 7995 ] final  106.25 input   59.86 | X-H torsion
[ 10167 10162 10161 10158 ] final  -69.73 input  -65.29 | X-H torsion
[ 10718 10713 10712 10709 ] final   14.14 input   66.30 | X-H torsion
[ 10763 10752 10751 10750 ] final -139.33 input  -60.55 | X-H torsion
[ 11005 11000 10999 10996 ] final  -54.97 input  -57.11 | X-H torsion

> <Gold.Protein.ActiveResidues>
 VAL166  LYS551  ARG553  GLY616  TRP617  ASP618  TYR619  PRO620  LYS621  CYS622 
 ASP623  PHE694  ASN695  SER759  ASP760  ASP761  ALA762  ILE779  LEU786  VAL792 
 PHE793  MET794  SER795  GLU796  ALA797  LYS798  CYS799  TRP800  GLU811  SER814 

> <Gold.Protein.RotatedAtoms>
  150.7513  133.9650  159.3527 H   0  0  0  0  0  0  0  0  0  0  0  0  # atno 6907 bound_to 6896
  151.7579  135.0815  160.0350 H   0  0  0  0  0  0  0  0  0  0  0  0  # atno 6908 bound_to 6896
  152.3423  133.6044  159.5921 H   0  0  0  0  0  0  0  0  0  0  0  0  # atno 6909 bound_to 6896
  144.7145  140.1747  143.6364 H   0  0  0  0  0  0  0  0  0  0  0  0  # atno 7974 bound_to 7965
  156.1727  140.3116  155.9004 H   0  0  0  0  0  0  0  0  0  0  0  0  # atno 8008 bound_to 7997
  155.3552  140.0473  157.3063 H   0  0  0  0  0  0  0  0  0  0  0  0  # atno 8009 bound_to 7997
  154.5258  140.2214  155.8903 H   0  0  0  0  0  0  0  0  0  0  0  0  # atno 8010 bound_to 7997
  140.5408  143.2315  151.7092 H   0  0  0  0  0  0  0  0  0  0  0  0  # atno 10167 bound_to 10162
  157.0347  130.6207  149.5741 H   0  0  0  0  0  0  0  0  0  0  0  0  # atno 10718 bound_to 10713
  154.8612  135.3585  154.5529 H   0  0  0  0  0  0  0  0  0  0  0  0  # atno 10763 bound_to 10752
  153.6147  135.7008  153.5338 H   0  0  0  0  0  0  0  0  0  0  0  0  # atno 10764 bound_to 10752
  153.3179  135.4159  155.1352 H   0  0  0  0  0  0  0  0  0  0  0  0  # atno 10765 bound_to 10752
  141.1051  133.6614  156.4399 H   0  0  0  0  0  0  0  0  0  0  0  0  # atno 11005 bound_to 11000
  145.8911  139.2376  143.1549 LP  0  0  0  0  0  0  0  0  0  0  0  0  # atno 17320 bound_to 7965
  145.9902  140.8609  143.0070 LP  0  0  0  0  0  0  0  0  0  0  0  0  # atno 17321 bound_to 7965
  139.4988  144.3971  152.0220 LP  0  0  0  0  0  0  0  0  0  0  0  0  # atno 17342 bound_to 10162
  140.3080  144.3570  150.6041 LP  0  0  0  0  0  0  0  0  0  0  0  0  # atno 17343 bound_to 10162
  156.0058  130.5144  150.7823 LP  0  0  0  0  0  0  0  0  0  0  0  0  # atno 17370 bound_to 10713
  157.5150  131.0928  151.0150 LP  0  0  0  0  0  0  0  0  0  0  0  0  # atno 17371 bound_to 10713
  140.4922  134.6564  157.5215 LP  0  0  0  0  0  0  0  0  0  0  0  0  # atno 17394 bound_to 11000
  139.9918  134.6973  155.9676 LP  0  0  0  0  0  0  0  0  0  0  0  0  # atno 17395 bound_to 11000

$$$$
