AV-unprocessed.smi:524|AV-procd|sdf|2806|dock4
  -GOLD-   2262023283D 1   1.00000     0.00000
 Structure written by MMmdl.
 42 44  0  0  0  0  0  0  0  0  2 V2000
  149.5019  140.0580  154.5816 C   0  0  0  0  0  0  0  0  0  0  0  0
  150.7203  140.5304  155.1262 O   0  0  0  0  0  0  0  0  0  0  0  0
  150.6585  140.7071  156.5322 C   0  0  0  0  0  0  0  0  0  0  0  0
  151.9436  141.3895  157.0207 C   0  0  0  0  0  0  0  0  0  0  0  0
  152.4326  140.8059  158.2695 N   0  0  0  0  0  0  0  0  0  0  0  0
  152.7568  141.4307  159.4367 C   0  0  0  0  0  0  0  0  0  0  0  0
  152.6192  142.8087  159.6231 N   0  0  0  0  0  0  0  0  0  0  0  0
  152.8629  143.7900  158.5659 C   0  0  0  0  0  0  0  0  0  0  0  0
  151.7160  144.8120  158.4646 C   0  0  0  0  0  0  0  0  0  0  0  0
  151.5058  145.5307  159.8042 C   0  0  0  0  0  0  0  0  0  0  0  0
  151.3537  144.5004  160.9313 C   0  0  0  0  0  0  0  0  0  0  0  0
  152.5264  143.5033  160.9082 C   0  0  0  0  0  0  0  0  0  0  0  0
  153.2540  140.6237  160.3767 N   0  0  0  0  0  0  0  0  0  0  0  0
  153.2202  139.3776  159.7720 C   0  0  0  0  0  0  0  0  0  0  0  0
  152.7397  139.4604  158.5028 C   0  0  0  0  0  0  0  0  0  0  0  0
  152.6221  138.2986  157.5925 C   0  0  0  0  0  0  0  0  0  0  0  0
  152.2078  138.4302  156.4426 O   0  0  0  0  0  0  0  0  0  0  0  0
  153.0244  137.1314  158.1879 N   0  5  0  0  0  0  0  0  0  0  0  0
  153.5081  137.0017  159.4719 C   0  0  0  0  0  0  0  0  0  0  0  0
  153.8514  135.9111  159.9302 O   0  0  0  0  0  0  0  0  0  0  0  0
  153.6176  138.1078  160.2728 N   0  0  0  0  0  0  0  0  0  0  0  0
  154.1383  138.0015  161.6388 C   0  0  0  0  0  0  0  0  0  0  0  0
  149.6078  139.9328  153.5041 H   0  0  0  0  0  0  0  0  0  0  0  0
  148.6906  140.7648  154.7606 H   0  0  0  0  0  0  0  0  0  0  0  0
  149.2275  139.0923  155.0076 H   0  0  0  0  0  0  0  0  0  0  0  0
  149.7947  141.3203  156.7927 H   0  0  0  0  0  0  0  0  0  0  0  0
  150.5340  139.7418  157.0252 H   0  0  0  0  0  0  0  0  0  0  0  0
  152.7000  141.3270  156.2465 H   0  0  0  0  0  0  0  0  0  0  0  0
  151.7823  142.4570  157.1609 H   0  0  0  0  0  0  0  0  0  0  0  0
  153.8091  144.2981  158.7562 H   0  0  0  0  0  0  0  0  0  0  0  0
  152.9734  143.2766  157.6100 H   0  0  0  0  0  0  0  0  0  0  0  0
  151.9301  145.5383  157.6802 H   0  0  0  0  0  0  0  0  0  0  0  0
  150.7973  144.3023  158.1727 H   0  0  0  0  0  0  0  0  0  0  0  0
  152.3611  146.1750  160.0114 H   0  0  0  0  0  0  0  0  0  0  0  0
  150.6291  146.1771  159.7567 H   0  0  0  0  0  0  0  0  0  0  0  0
  151.3109  145.0057  161.8965 H   0  0  0  0  0  0  0  0  0  0  0  0
  150.4089  143.9687  160.8156 H   0  0  0  0  0  0  0  0  0  0  0  0
  152.4440  142.7872  161.7251 H   0  0  0  0  0  0  0  0  0  0  0  0
  153.4621  144.0358  161.0835 H   0  0  0  0  0  0  0  0  0  0  0  0
  153.5443  137.2975  162.2234 H   0  0  0  0  0  0  0  0  0  0  0  0
  154.1261  138.9532  162.1694 H   0  0  0  0  0  0  0  0  0  0  0  0
  155.1702  137.6482  161.6251 H   0  0  0  0  0  0  0  0  0  0  0  0
  1  2  1  0  0  0  0
  1 23  1  0  0  0  0
  1 24  1  0  0  0  0
  1 25  1  0  0  0  0
  2  3  1  0  0  0  0
  3  4  1  0  0  0  0
  3 26  1  0  0  0  0
  3 27  1  0  0  0  0
  4  5  1  0  0  0  0
  4 28  1  0  0  0  0
  4 29  1  0  0  0  0
  5 15  1  0  0  0  0
  5  6  1  0  0  0  0
  6  7  1  0  0  0  0
  6 13  2  0  0  0  0
  7 12  1  0  0  0  0
  7  8  1  0  0  0  0
  8  9  1  0  0  0  0
  8 30  1  0  0  0  0
  8 31  1  0  0  0  0
  9 10  1  0  0  0  0
  9 32  1  0  0  0  0
  9 33  1  0  0  0  0
 10 11  1  0  0  0  0
 10 34  1  0  0  0  0
 10 35  1  0  0  0  0
 11 12  1  0  0  0  0
 11 36  1  0  0  0  0
 11 37  1  0  0  0  0
 12 38  1  0  0  0  0
 12 39  1  0  0  0  0
 13 14  1  0  0  0  0
 14 21  1  0  0  0  0
 14 15  2  0  0  0  0
 15 16  1  0  0  0  0
 16 17  2  0  0  0  0
 16 18  1  0  0  0  0
 18 19  1  0  0  0  0
 19 20  2  0  0  0  0
 19 21  1  0  0  0  0
 21 22  1  0  0  0  0
 22 40  1  0  0  0  0
 22 41  1  0  0  0  0
 22 42  1  0  0  0  0
M  CHG  1  18  -1
M  END
> <s_m_source_file>
AV-unprocessed.smi

> <i_m_source_file_index>
524

> <i_lp_mmshare_version>
43012

> <i_f3d_flags>
0

> <s_epik_input>
W0NIM11uMWMoPU8pW25IXWMoPU8pYyhjMTIpbihbQ0gyXVtDSDJdT1tDSDNdKWMobjIpTjNbQ0gyXVtDSDJdW0NIMl1bQ0gyXVtDSDJdMw==

> <s_epik_cmdline>
J2VwaWtfcHl0aG9uJywgJy1waCcsICc3LjAnLCAnLXRuJywgJzgnLCAnLW1hJywgJzIwMCcsICctbWV0YWxfYmluZGluZycsICctaW1hZScsICc8aW5maWxlLm1hZT4nLCAnLW9tYWUnLCAnPG91dGZpbGUubWFlPic=

> <r_lp_tautomer_probability>
1

> <r_epik_Ionization_Penalty>
5.09461

> <r_epik_Ionization_Penalty_Charging>
0.078064

> <r_epik_Ionization_Penalty_Neutral>
5.01654

> <r_epik_State_Penalty>
5.01281

> <r_epik_Charging_Adjusted_Penalty>
5.09087

> <i_epik_Tot_Q>
-1

> <i_epik_Tot_abs_Q>
1

> <r_epik_Metal_State_Penalty>
1.12909

> <b_epik_Metal_Only>
1

> <s_lp_Force_Field>
OPLS_2005

> <r_lp_Energy>
41.0117

> <b_lp_Chiralities_Consistent>
1

> <s_lp_Variant>
AV-unprocessed.smi:524-2

> <Gold.Version>
5.8.1

> <Gold.Id.Protein>
6NUR|6NUR_protein|mol2

> <Gold.PLP.Fitness>
47.8777

> <Gold.PLP.PLP>
-42.9660

> <Gold.PLP.part.hbond>
-2.0000

> <Gold.PLP.part.metal>
0.0000

> <Gold.PLP.part.buried>
-6.0702

> <Gold.PLP.part.nonpolar>
-34.7186

> <Gold.PLP.part.repulsive>
0.0613

> <Gold.PLP.ligand.clash>
0.0261

> <Gold.PLP.ligand.torsion>
0.7152

> <Gold.PLP.Chemscore.Hbond>
1.9920

> <Gold.PLP.Chemscore.CHOScore>
0.0000

> <Gold.PLP.Chemscore.Metal>
0.0000

> <Gold.Chemscore.Hbonds>
donor molecule, donor type, donor heavy atom, donor atom, acceptor molecule, acceptor atom, score
      P1  H  6896  6908       L1    20  1.00
      P1  H  7989  7998       L1     2  0.94

> <Gold.PLP.Chemscore.Internal.Correction>
0.3923

> <Gold.Rescore>
     Score         DG    S(hbond)    S(metal)    S(lipo)     H(rot)  DE(clash)    DE(int)     intcor
     14.81     -17.72       1.55        0.00      92.44       1.46       0.78       2.12       ----

> <Gold.Chemscore.Fitness>
14.8094

> <Gold.Chemscore.DG>
-17.7166

> <Gold.Chemscore.ZeroCoef>
-5.4800

> <Gold.Chemscore.Hbond>
1.5477

> <Gold.Chemscore.Metal>
0.0000

> <Gold.Chemscore.Lipo>
92.4354

> <Gold.Chemscore.Internal_Hbond>
0.0000

> <Gold.Chemscore.DEClash>
0.7849

> <Gold.Chemscore.DEInternal>
2.1223

> <Gold.Chemscore.Rot>
1.4639

> <Gold.Chemscore.Internal.Correction>
   9.000000E+99

> <Gold.Chemscore.Hbonds>
donor molecule, donor type, donor heavy atom, donor atom, acceptor molecule, acceptor atom, score
      P1  H  6896  6908       L1    20  0.88
      P1  H  7989  7998       L1     2  0.20

> <Gold.Chemscore.Hbond.Weighted>
-5.1692

> <Gold.Chemscore.Metal.Weighted>
-0.0000

> <Gold.Chemscore.Lipo.Weighted>
-10.8149

> <Gold.Chemscore.Internal_Hbond.Weighted>
0.0000

> <Gold.Chemscore.DEClash.Weighted>
0.7849

> <Gold.Chemscore.DEInternal.Weighted>
2.1223

> <Gold.Chemscore.Rot.Weighted>
3.7475

> <Gold.Chemscore.Internal.Correction.Weighted>
   9.000000E+99

> <Gold.Protein.RotatedTorsions>
[ 6907 6896 6895 6894 ] final  -56.23 input  -60.11 | X-H torsion
[ 7974 7965 7964 7962 ] final  129.03 input  175.53 | X-H torsion
[ 8008 7997 7996 7995 ] final  173.01 input   59.86 | X-H torsion
[ 10167 10162 10161 10158 ] final -101.01 input  -65.29 | X-H torsion
[ 10718 10713 10712 10709 ] final   30.46 input   66.30 | X-H torsion
[ 10763 10752 10751 10750 ] final   72.54 input  -60.55 | X-H torsion
[ 11005 11000 10999 10996 ] final  -71.57 input  -57.11 | X-H torsion

> <Gold.Protein.ActiveResidues>
 VAL166  LYS551  ARG553  GLY616  TRP617  ASP618  TYR619  PRO620  LYS621  CYS622 
 ASP623  PHE694  ASN695  SER759  ASP760  ASP761  ALA762  ILE779  LEU786  VAL792 
 PHE793  MET794  SER795  GLU796  ALA797  LYS798  CYS799  TRP800  GLU811  SER814 

> <Gold.Protein.RotatedAtoms>
  150.8184  134.7379  159.6750 H   0  0  0  0  0  0  0  0  0  0  0  0  # atno 6907 bound_to 6896
  152.4302  134.5789  159.9952 H   0  0  0  0  0  0  0  0  0  0  0  0  # atno 6908 bound_to 6896
  151.5980  133.3322  159.3077 H   0  0  0  0  0  0  0  0  0  0  0  0  # atno 6909 bound_to 6896
  145.0331  139.4029  143.5140 H   0  0  0  0  0  0  0  0  0  0  0  0  # atno 7974 bound_to 7965
  156.1118  140.1471  156.9328 H   0  0  0  0  0  0  0  0  0  0  0  0  # atno 8008 bound_to 7997
  154.4772  140.0890  156.7334 H   0  0  0  0  0  0  0  0  0  0  0  0  # atno 8009 bound_to 7997
  155.4583  140.3437  155.4311 H   0  0  0  0  0  0  0  0  0  0  0  0  # atno 8010 bound_to 7997
  140.2458  143.3507  152.0760 H   0  0  0  0  0  0  0  0  0  0  0  0  # atno 10167 bound_to 10162
  157.2599  130.7156  149.6448 H   0  0  0  0  0  0  0  0  0  0  0  0  # atno 10718 bound_to 10713
  153.0465  135.5096  154.7759 H   0  0  0  0  0  0  0  0  0  0  0  0  # atno 10763 bound_to 10752
  154.6655  135.2945  154.9813 H   0  0  0  0  0  0  0  0  0  0  0  0  # atno 10764 bound_to 10752
  154.0649  135.6685  153.4869 H   0  0  0  0  0  0  0  0  0  0  0  0  # atno 10765 bound_to 10752
  141.1594  133.6821  156.6926 H   0  0  0  0  0  0  0  0  0  0  0  0  # atno 11005 bound_to 11000
  146.3501  139.9891  142.8687 LP  0  0  0  0  0  0  0  0  0  0  0  0  # atno 17320 bound_to 7965
  145.1745  140.9737  143.4302 LP  0  0  0  0  0  0  0  0  0  0  0  0  # atno 17321 bound_to 7965
  139.5062  144.6809  151.6010 LP  0  0  0  0  0  0  0  0  0  0  0  0  # atno 17342 bound_to 10162
  140.6079  143.9491  150.6431 LP  0  0  0  0  0  0  0  0  0  0  0  0  # atno 17343 bound_to 10162
  155.9664  130.4401  150.5284 LP  0  0  0  0  0  0  0  0  0  0  0  0  # atno 17370 bound_to 10713
  157.3186  131.0677  151.1948 LP  0  0  0  0  0  0  0  0  0  0  0  0  # atno 17371 bound_to 10713
  140.3019  134.8157  157.4104 LP  0  0  0  0  0  0  0  0  0  0  0  0  # atno 17394 bound_to 11000
  140.1254  134.5164  155.8148 LP  0  0  0  0  0  0  0  0  0  0  0  0  # atno 17395 bound_to 11000

$$$$
