AV-unprocessed.smi:2061|AV-procd|sdf|8369|dock6
  -GOLD-   2272011 43D 1   1.00000     0.00000
 Structure written by MMmdl.
 46 47  0  0  0  0  0  0  0  0  2 V2000
  144.0808  131.9342  150.3338 C   0  0  0  0  0  0  0  0  0  0  0  0
  144.5619  133.3268  150.5567 C   0  0  0  0  0  0  0  0  0  0  0  0
  145.4926  133.8661  151.3997 C   0  0  0  0  0  0  0  0  0  0  0  0
  145.4401  135.2510  151.0895 C   0  0  0  0  0  0  0  0  0  0  0  0
  146.2690  136.1815  151.7667 N   0  0  0  0  0  0  0  0  0  0  0  0
  145.8827  137.1801  152.5791 C   0  0  0  0  0  0  0  0  0  0  0  0
  144.7160  137.4629  152.8534 O   0  0  0  0  0  0  0  0  0  0  0  0
  146.9365  137.8460  153.0730 N   0  0  0  0  0  0  0  0  0  0  0  0
  146.8475  138.9749  153.9947 C   0  0  0  0  0  0  0  0  0  0  0  0
  147.7171  140.1848  153.5613 C   0  0  1  0  0  0  0  0  0  0  0  0
  146.9008  141.4955  153.6715 C   0  0  0  0  0  0  0  0  0  0  0  0
  148.9966  140.2014  154.3428 N   0  3  1  0  0  0  0  0  0  0  0  0
  148.7630  140.3799  155.8014 C   0  0  0  0  0  0  0  0  0  0  0  0
  150.0853  140.5213  156.5783 C   0  0  2  0  0  0  0  0  0  0  0  0
  150.7857  141.8747  156.3633 C   0  0  0  0  0  0  0  0  0  0  0  0
  150.9376  139.4143  156.2951 O   0  0  0  0  0  0  0  0  0  0  0  0
  151.2215  139.2247  154.9135 C   0  0  1  0  0  0  0  0  0  0  0  0
  152.1376  138.0022  154.7862 C   0  0  0  0  0  0  0  0  0  0  0  0
  149.9084  139.0452  154.1288 C   0  0  0  0  0  0  0  0  0  0  0  0
  144.5591  135.5315  150.1415 N   0  0  0  0  0  0  0  0  0  0  0  0
  143.9920  134.2995  149.7951 O   0  0  0  0  0  0  0  0  0  0  0  0
  144.6128  131.2306  150.9746 H   0  0  0  0  0  0  0  0  0  0  0  0
  144.2360  131.6324  149.2979 H   0  0  0  0  0  0  0  0  0  0  0  0
  143.0163  131.8536  150.5546 H   0  0  0  0  0  0  0  0  0  0  0  0
  146.1074  133.3499  152.1217 H   0  0  0  0  0  0  0  0  0  0  0  0
  147.2617  136.0659  151.6261 H   0  0  0  0  0  0  0  0  0  0  0  0
  147.8617  137.5512  152.7965 H   0  0  0  0  0  0  0  0  0  0  0  0
  145.8013  139.2771  154.0512 H   0  0  0  0  0  0  0  0  0  0  0  0
  147.1095  138.6204  154.9911 H   0  0  0  0  0  0  0  0  0  0  0  0
  147.9800  140.0722  152.5081 H   0  0  0  0  0  0  0  0  0  0  0  0
  145.9692  141.4384  153.1090 H   0  0  0  0  0  0  0  0  0  0  0  0
  147.4405  142.3486  153.2599 H   0  0  0  0  0  0  0  0  0  0  0  0
  146.6424  141.7194  154.7069 H   0  0  0  0  0  0  0  0  0  0  0  0
  148.1375  141.2480  156.0024 H   0  0  0  0  0  0  0  0  0  0  0  0
  148.2158  139.5143  156.1783 H   0  0  0  0  0  0  0  0  0  0  0  0
  149.8525  140.4544  157.6416 H   0  0  0  0  0  0  0  0  0  0  0  0
  150.1605  142.6936  156.7196 H   0  0  0  0  0  0  0  0  0  0  0  0
  151.0024  142.0687  155.3132 H   0  0  0  0  0  0  0  0  0  0  0  0
  151.7264  141.9168  156.9129 H   0  0  0  0  0  0  0  0  0  0  0  0
  151.7617  140.0894  154.5273 H   0  0  0  0  0  0  0  0  0  0  0  0
  152.3986  137.8124  153.7449 H   0  0  0  0  0  0  0  0  0  0  0  0
  151.6577  137.1055  155.1796 H   0  0  0  0  0  0  0  0  0  0  0  0
  153.0659  138.1515  155.3382 H   0  0  0  0  0  0  0  0  0  0  0  0
  149.4064  138.1238  154.4288 H   0  0  0  0  0  0  0  0  0  0  0  0
  150.1721  138.9483  153.0761 H   0  0  0  0  0  0  0  0  0  0  0  0
  149.5067  141.0129  154.0246 H   0  0  0  0  0  0  0  0  0  0  0  0
  1  2  1  0  0  0  0
  1 22  1  0  0  0  0
  1 23  1  0  0  0  0
  1 24  1  0  0  0  0
  2 21  1  0  0  0  0
  2  3  2  0  0  0  0
  3  4  1  0  0  0  0
  3 25  1  0  0  0  0
  4  5  1  0  0  0  0
  4 20  2  0  0  0  0
  5  6  1  0  0  0  0
  5 26  1  0  0  0  0
  6  7  2  0  0  0  0
  6  8  1  0  0  0  0
  8  9  1  0  0  0  0
  8 27  1  0  0  0  0
  9 10  1  0  0  0  0
  9 28  1  0  0  0  0
  9 29  1  0  0  0  0
 10 11  1  0  0  0  0
 10 12  1  0  0  0  0
 10 30  1  0  0  0  0
 11 31  1  0  0  0  0
 11 32  1  0  0  0  0
 11 33  1  0  0  0  0
 12 19  1  0  0  0  0
 12 13  1  0  0  0  0
 12 46  1  0  0  0  0
 13 14  1  0  0  0  0
 13 34  1  0  0  0  0
 13 35  1  0  0  0  0
 14 15  1  0  0  0  0
 14 16  1  0  0  0  0
 14 36  1  0  0  0  0
 15 37  1  0  0  0  0
 15 38  1  0  0  0  0
 15 39  1  0  0  0  0
 16 17  1  0  0  0  0
 17 18  1  0  0  0  0
 17 19  1  0  0  0  0
 17 40  1  0  0  0  0
 18 41  1  0  0  0  0
 18 42  1  0  0  0  0
 18 43  1  0  0  0  0
 19 44  1  0  0  0  0
 19 45  1  0  0  0  0
 20 21  1  0  0  0  0
M  CHG  1  12   1
M  END
> <s_m_source_file>
AV-unprocessed.smi

> <i_m_source_file_index>
2061

> <i_lp_mmshare_version>
43012

> <i_f3d_flags>
0

> <s_epik_input>
W0NIM11jMVtjSF1jKG5vMSlbTkhdQyg9TylbTkhdW0NIMl1bQ0BIXShbQ0gzXSlOMltDSDJdW0NAQEhdKFtDSDNdKU9bQ0BASF0oW0NIM10pW0NIMl0y

> <s_epik_cmdline>
J2VwaWtfcHl0aG9uJywgJy1waCcsICc3LjAnLCAnLXRuJywgJzgnLCAnLW1hJywgJzIwMCcsICctbWV0YWxfYmluZGluZycsICctaW1hZScsICc8aW5maWxlLm1hZT4nLCAnLW9tYWUnLCAnPG91dGZpbGUubWFlPic=

> <r_epik_Ionization_Penalty>
0.707076

> <r_epik_Ionization_Penalty_Charging>
0.707039

> <r_epik_Ionization_Penalty_Neutral>
3.6548e-05

> <r_epik_State_Penalty>
0.730276

> <r_epik_Charging_Adjusted_Penalty>
1.43732

> <i_epik_Tot_Q>
1

> <i_epik_Tot_abs_Q>
1

> <r_epik_Metal_State_Penalty>
0.743132

> <b_epik_Metal_Only>
0

> <s_lp_Force_Field>
OPLS_2005

> <r_lp_Energy>
19.7872

> <b_lp_Chiralities_Consistent>
1

> <s_lp_Variant>
AV-unprocessed.smi:2061-10

> <Gold.Version>
5.8.1

> <Gold.Id.Protein>
6NUR|6NUR_protein|mol2

> <Gold.PLP.Fitness>
36.7436

> <Gold.PLP.PLP>
-33.5671

> <Gold.PLP.part.hbond>
-2.3511

> <Gold.PLP.part.metal>
0.0000

> <Gold.PLP.part.buried>
-4.5348

> <Gold.PLP.part.nonpolar>
-28.8417

> <Gold.PLP.part.repulsive>
1.6145

> <Gold.PLP.ligand.clash>
0.0000

> <Gold.PLP.ligand.torsion>
1.3045

> <Gold.PLP.Chemscore.Hbond>
1.9120

> <Gold.PLP.Chemscore.CHOScore>
0.0000

> <Gold.PLP.Chemscore.Metal>
0.0000

> <Gold.Chemscore.Hbonds>
donor molecule, donor type, donor heavy atom, donor atom, acceptor molecule, acceptor atom, score
      L1  H     5    26       P1  7948  1.00
      L1  H     8    27       P1  7948  0.96

> <Gold.PLP.Chemscore.Internal.Correction>
0.0494

> <Gold.Rescore>
     Score         DG    S(hbond)    S(metal)    S(lipo)     H(rot)  DE(clash)    DE(int)     intcor
     15.83     -17.39       1.91        0.00      81.79       1.58       0.28       1.27       ----

> <Gold.Chemscore.Fitness>
15.8348

> <Gold.Chemscore.DG>
-17.3900

> <Gold.Chemscore.ZeroCoef>
-5.4800

> <Gold.Chemscore.Hbond>
1.9145

> <Gold.Chemscore.Metal>
0.0000

> <Gold.Chemscore.Lipo>
81.7867

> <Gold.Chemscore.Internal_Hbond>
0.0000

> <Gold.Chemscore.DEClash>
0.2822

> <Gold.Chemscore.DEInternal>
1.2731

> <Gold.Chemscore.Rot>
1.5834

> <Gold.Chemscore.Internal.Correction>
   9.000000E+99

> <Gold.Chemscore.Hbonds>
donor molecule, donor type, donor heavy atom, donor atom, acceptor molecule, acceptor atom, score
      L1  H     5    26       P1  7948  1.00
      L1  H     8    27       P1  7948  0.91

> <Gold.Chemscore.Hbond.Weighted>
-6.3945

> <Gold.Chemscore.Metal.Weighted>
-0.0000

> <Gold.Chemscore.Lipo.Weighted>
-9.5690

> <Gold.Chemscore.Internal_Hbond.Weighted>
0.0000

> <Gold.Chemscore.DEClash.Weighted>
0.2822

> <Gold.Chemscore.DEInternal.Weighted>
1.2731

> <Gold.Chemscore.Rot.Weighted>
4.0535

> <Gold.Chemscore.Internal.Correction.Weighted>
   9.000000E+99

> <Gold.Protein.RotatedTorsions>
[ 6907 6896 6895 6894 ] final  143.78 input  -60.11 | X-H torsion
[ 7974 7965 7964 7962 ] final -165.58 input  175.53 | X-H torsion
[ 8008 7997 7996 7995 ] final  -25.10 input   59.86 | X-H torsion
[ 10167 10162 10161 10158 ] final  145.62 input  -65.29 | X-H torsion
[ 10718 10713 10712 10709 ] final   69.82 input   66.30 | X-H torsion
[ 10763 10752 10751 10750 ] final   28.43 input  -60.55 | X-H torsion
[ 11005 11000 10999 10996 ] final   74.34 input  -57.11 | X-H torsion

> <Gold.Protein.ActiveResidues>
 VAL166  LYS551  ARG553  GLY616  TRP617  ASP618  TYR619  PRO620  LYS621  CYS622 
 ASP623  PHE694  ASN695  SER759  ASP760  ASP761  ALA762  ILE779  LEU786  VAL792 
 PHE793  MET794  SER795  GLU796  ALA797  LYS798  CYS799  TRP800  GLU811  SER814 

> <Gold.Protein.RotatedAtoms>
  152.2020  133.4848  159.5063 H   0  0  0  0  0  0  0  0  0  0  0  0  # atno 6907 bound_to 6896
  150.6972  134.1578  159.4173 H   0  0  0  0  0  0  0  0  0  0  0  0  # atno 6908 bound_to 6896
  151.9495  135.0175  160.0592 H   0  0  0  0  0  0  0  0  0  0  0  0  # atno 6909 bound_to 6896
  144.7266  140.2792  143.6238 H   0  0  0  0  0  0  0  0  0  0  0  0  # atno 7974 bound_to 7965
  154.4493  140.1935  156.0567 H   0  0  0  0  0  0  0  0  0  0  0  0  # atno 8008 bound_to 7997
  156.0613  140.3296  155.7438 H   0  0  0  0  0  0  0  0  0  0  0  0  # atno 8009 bound_to 7997
  155.5406  140.0586  157.2861 H   0  0  0  0  0  0  0  0  0  0  0  0  # atno 8010 bound_to 7997
  139.4922  144.5889  151.6722 H   0  0  0  0  0  0  0  0  0  0  0  0  # atno 10167 bound_to 10162
  157.6366  130.9445  150.0565 H   0  0  0  0  0  0  0  0  0  0  0  0  # atno 10718 bound_to 10713
  153.0492  135.6513  154.0737 H   0  0  0  0  0  0  0  0  0  0  0  0  # atno 10763 bound_to 10752
  154.0429  135.2902  155.3354 H   0  0  0  0  0  0  0  0  0  0  0  0  # atno 10764 bound_to 10752
  154.6770  135.5334  153.8278 H   0  0  0  0  0  0  0  0  0  0  0  0  # atno 10765 bound_to 10752
  139.9396  134.7424  156.1136 H   0  0  0  0  0  0  0  0  0  0  0  0  # atno 11005 bound_to 11000
  145.7966  139.1947  143.2072 LP  0  0  0  0  0  0  0  0  0  0  0  0  # atno 17320 bound_to 7965
  146.0712  140.7867  142.9687 LP  0  0  0  0  0  0  0  0  0  0  0  0  # atno 17321 bound_to 7965
  140.5511  144.0424  150.6127 LP  0  0  0  0  0  0  0  0  0  0  0  0  # atno 17342 bound_to 10162
  140.3478  143.2981  152.0519 LP  0  0  0  0  0  0  0  0  0  0  0  0  # atno 17343 bound_to 10162
  156.1611  130.3644  149.9298 LP  0  0  0  0  0  0  0  0  0  0  0  0  # atno 17370 bound_to 10713
  156.7296  130.9038  151.3624 LP  0  0  0  0  0  0  0  0  0  0  0  0  # atno 17371 bound_to 10713
  141.1025  133.6672  156.2786 LP  0  0  0  0  0  0  0  0  0  0  0  0  # atno 17394 bound_to 11000
  140.5986  134.5577  157.5513 LP  0  0  0  0  0  0  0  0  0  0  0  0  # atno 17395 bound_to 11000

$$$$
