AV-unprocessed.smi:1196|AV-procd|sdf|5004|dock9
  -GOLD-   22720 4 13D 1   1.00000     0.00000
 Structure written by MMmdl.
 36 37  0  0  0  0  0  0  0  0  2 V2000
  151.6517  139.5127  157.4021 C   0  0  0  0  0  0  0  0  0  0  0  0
  151.5989  141.0460  157.3705 C   0  0  2  0  0  0  0  0  0  0  0  0
  151.5073  141.6376  158.7933 C   0  0  0  0  0  0  0  0  0  0  0  0
  151.6785  143.0806  158.8103 N   0  0  0  0  0  0  0  0  0  0  0  0
  152.7316  143.8124  159.3168 C   0  0  0  0  0  0  0  0  0  0  0  0
  152.4611  145.1300  159.0814 C   0  0  0  0  0  0  0  0  0  0  0  0
  151.2016  145.1039  158.4199 C   0  0  0  0  0  0  0  0  0  0  0  0
  150.7326  143.8763  158.2650 N   0  0  0  0  0  0  0  0  0  0  0  0
  150.4573  141.4702  156.5605 N   0  0  0  0  0  0  0  0  0  0  0  0
  150.1877  141.0552  155.3122 C   0  0  0  0  0  0  0  0  0  0  0  0
  150.8479  140.1985  154.7237 O   0  0  0  0  0  0  0  0  0  0  0  0
  149.0038  141.7249  154.6131 C   0  0  0  0  0  0  0  0  0  0  0  0
  147.6968  140.9383  154.8228 C   0  0  0  0  0  0  0  0  0  0  0  0
  147.7414  139.5234  154.2142 C   0  0  2  0  0  0  0  0  0  0  0  0
  147.8830  139.5775  152.7752 N   0  0  0  0  0  0  0  0  0  0  0  0
  146.8764  138.9555  152.1646 C   0  0  0  0  0  0  0  0  0  0  0  0
  146.8164  138.8710  150.9400 O   0  0  0  0  0  0  0  0  0  0  0  0
  146.0045  138.4793  153.0745 N   0  5  0  0  0  0  0  0  0  0  0  0
  146.4172  138.7686  154.3276 C   0  0  0  0  0  0  0  0  0  0  0  0
  145.9027  138.5095  155.4142 O   0  0  0  0  0  0  0  0  0  0  0  0
  152.5112  139.1623  157.9741 H   0  0  0  0  0  0  0  0  0  0  0  0
  151.7380  139.1017  156.3957 H   0  0  0  0  0  0  0  0  0  0  0  0
  150.7549  139.0926  157.8589 H   0  0  0  0  0  0  0  0  0  0  0  0
  152.5286  141.3890  156.9130 H   0  0  0  0  0  0  0  0  0  0  0  0
  150.5504  141.3844  159.2533 H   0  0  0  0  0  0  0  0  0  0  0  0
  152.2805  141.2035  159.4283 H   0  0  0  0  0  0  0  0  0  0  0  0
  153.5795  143.3390  159.7895 H   0  0  0  0  0  0  0  0  0  0  0  0
  153.0717  145.9824  159.3389 H   0  0  0  0  0  0  0  0  0  0  0  0
  150.6179  145.9346  158.0512 H   0  0  0  0  0  0  0  0  0  0  0  0
  149.8582  142.1792  156.9578 H   0  0  0  0  0  0  0  0  0  0  0  0
  148.9020  142.7381  155.0025 H   0  0  0  0  0  0  0  0  0  0  0  0
  149.2096  141.8184  153.5457 H   0  0  0  0  0  0  0  0  0  0  0  0
  147.5066  140.8547  155.8945 H   0  0  0  0  0  0  0  0  0  0  0  0
  146.8532  141.4938  154.4089 H   0  0  0  0  0  0  0  0  0  0  0  0
  148.5428  138.9261  154.6510 H   0  0  0  0  0  0  0  0  0  0  0  0
  148.6613  140.0168  152.3065 H   0  0  0  0  0  0  0  0  0  0  0  0
  1  2  1  0  0  0  0
  1 21  1  0  0  0  0
  1 22  1  0  0  0  0
  1 23  1  0  0  0  0
  2  3  1  0  0  0  0
  2  9  1  0  0  0  0
  2 24  1  0  0  0  0
  3  4  1  0  0  0  0
  3 25  1  0  0  0  0
  3 26  1  0  0  0  0
  4  8  1  0  0  0  0
  4  5  1  0  0  0  0
  5  6  2  0  0  0  0
  5 27  1  0  0  0  0
  6  7  1  0  0  0  0
  6 28  1  0  0  0  0
  7  8  2  0  0  0  0
  7 29  1  0  0  0  0
  9 10  1  0  0  0  0
  9 30  1  0  0  0  0
 10 11  2  0  0  0  0
 10 12  1  0  0  0  0
 12 13  1  0  0  0  0
 12 31  1  0  0  0  0
 12 32  1  0  0  0  0
 13 14  1  0  0  0  0
 13 33  1  0  0  0  0
 13 34  1  0  0  0  0
 14 19  1  0  0  0  0
 14 15  1  0  0  0  0
 14 35  1  0  0  0  0
 15 16  1  0  0  0  0
 15 36  1  0  0  0  0
 16 17  2  0  0  0  0
 16 18  1  0  0  0  0
 18 19  1  0  0  0  0
 19 20  2  0  0  0  0
M  CHG  1  18  -1
M  END
> <s_m_source_file>
AV-unprocessed.smi

> <i_m_source_file_index>
1196

> <i_lp_mmshare_version>
43012

> <i_f3d_flags>
0

> <s_epik_input>
bjFbY0hdW2NIXVtjSF1uMVtDSDJdW0NAQEhdKFtDSDNdKVtOSF1DKD1PKVtDSDJdW0NIMl1bQ0BASF0yW05IXUMoPU8pW05IXUMyPU8=

> <s_epik_cmdline>
J2VwaWtfcHl0aG9uJywgJy1waCcsICc3LjAnLCAnLXRuJywgJzgnLCAnLW1hJywgJzIwMCcsICctbWV0YWxfYmluZGluZycsICctaW1hZScsICc8aW5maWxlLm1hZT4nLCAnLW9tYWUnLCAnPG91dGZpbGUubWFlPic=

> <r_lp_tautomer_probability>
1

> <r_epik_Ionization_Penalty>
2.57056

> <r_epik_Ionization_Penalty_Charging>
2.57023

> <r_epik_Ionization_Penalty_Neutral>
0.000331301

> <r_epik_State_Penalty>
2.56828

> <r_epik_Charging_Adjusted_Penalty>
5.13851

> <i_epik_Tot_Q>
-1

> <i_epik_Tot_abs_Q>
1

> <r_epik_Metal_State_Penalty>
0.444883

> <b_epik_Metal_Only>
1

> <s_lp_Force_Field>
OPLS_2005

> <r_lp_Energy>
6.89561

> <b_lp_Chiralities_Consistent>
1

> <s_lp_Variant>
AV-unprocessed.smi:1196-9

> <Gold.Version>
5.8.1

> <Gold.Id.Protein>
6NUR|6NUR_protein|mol2

> <Gold.PLP.Fitness>
46.3605

> <Gold.PLP.PLP>
-35.3984

> <Gold.PLP.part.hbond>
-2.9547

> <Gold.PLP.part.metal>
0.0000

> <Gold.PLP.part.buried>
-5.9561

> <Gold.PLP.part.nonpolar>
-27.8296

> <Gold.PLP.part.repulsive>
1.1635

> <Gold.PLP.ligand.clash>
0.0000

> <Gold.PLP.ligand.torsion>
0.5375

> <Gold.PLP.Chemscore.Hbond>
2.9920

> <Gold.PLP.Chemscore.CHOScore>
1.0000

> <Gold.PLP.Chemscore.Metal>
0.0000

> <Gold.Chemscore.Hbonds>
donor molecule, donor type, donor heavy atom, donor atom, acceptor molecule, acceptor atom, score
      L1  H    15    36       P1  7957  0.84
      P1  H  7954  7966       L1    17  0.85
      P1  H  7989  7998       L1    11  1.00
      L1  C     7    29       P1  8029  0.28

> <Gold.PLP.Chemscore.Internal.Correction>
0.0610

> <Gold.Rescore>
     Score         DG    S(hbond)    S(metal)    S(lipo)     H(rot)  DE(clash)    DE(int)     intcor
     14.20     -15.95       2.86        0.00      71.10       2.89       0.14       1.60       ----

> <Gold.Chemscore.Fitness>
14.2017

> <Gold.Chemscore.DG>
-15.9467

> <Gold.Chemscore.ZeroCoef>
-5.4800

> <Gold.Chemscore.Hbond>
2.8616

> <Gold.Chemscore.Metal>
0.0000

> <Gold.Chemscore.Lipo>
71.1037

> <Gold.Chemscore.Internal_Hbond>
0.0000

> <Gold.Chemscore.DEClash>
0.1437

> <Gold.Chemscore.DEInternal>
1.6013

> <Gold.Chemscore.Rot>
2.8946

> <Gold.Chemscore.Internal.Correction>
   9.000000E+99

> <Gold.Chemscore.Hbonds>
donor molecule, donor type, donor heavy atom, donor atom, acceptor molecule, acceptor atom, score
      L1  H    15    36       P1  7957  0.79
      P1  H  7954  7966       L1    17  0.81
      P1  H  7989  7998       L1    11  0.69

> <Gold.Chemscore.Hbond.Weighted>
-9.5576

> <Gold.Chemscore.Metal.Weighted>
-0.0000

> <Gold.Chemscore.Lipo.Weighted>
-8.3191

> <Gold.Chemscore.Internal_Hbond.Weighted>
0.0000

> <Gold.Chemscore.DEClash.Weighted>
0.1437

> <Gold.Chemscore.DEInternal.Weighted>
1.6013

> <Gold.Chemscore.Rot.Weighted>
7.4101

> <Gold.Chemscore.Internal.Correction.Weighted>
   9.000000E+99

> <Gold.Protein.RotatedTorsions>
[ 6907 6896 6895 6894 ] final  -21.64 input  -60.11 | X-H torsion
[ 7974 7965 7964 7962 ] final  105.83 input  175.53 | X-H torsion
[ 8008 7997 7996 7995 ] final  -77.60 input   59.86 | X-H torsion
[ 10167 10162 10161 10158 ] final  167.47 input  -65.29 | X-H torsion
[ 10718 10713 10712 10709 ] final  103.53 input   66.30 | X-H torsion
[ 10763 10752 10751 10750 ] final  144.21 input  -60.55 | X-H torsion
[ 11005 11000 10999 10996 ] final  -52.37 input  -57.11 | X-H torsion

> <Gold.Protein.ActiveResidues>
 VAL166  LYS551  ARG553  GLY616  TRP617  ASP618  TYR619  PRO620  LYS621  CYS622 
 ASP623  PHE694  ASN695  SER759  ASP760  ASP761  ALA762  ILE779  LEU786  VAL792 
 PHE793  MET794  SER795  GLU796  ALA797  LYS798  CYS799  TRP800  GLU811  SER814 

> <Gold.Protein.RotatedAtoms>
  151.2303  135.0552  159.8984 H   0  0  0  0  0  0  0  0  0  0  0  0  # atno 6907 bound_to 6896
  152.5405  134.0544  159.8134 H   0  0  0  0  0  0  0  0  0  0  0  0  # atno 6908 bound_to 6896
  151.0723  133.5407  159.2658 H   0  0  0  0  0  0  0  0  0  0  0  0  # atno 6909 bound_to 6896
  145.3146  139.2530  143.3745 H   0  0  0  0  0  0  0  0  0  0  0  0  # atno 7974 bound_to 7965
  154.5611  140.0708  156.8821 H   0  0  0  0  0  0  0  0  0  0  0  0  # atno 8008 bound_to 7997
  155.2809  140.3371  155.4240 H   0  0  0  0  0  0  0  0  0  0  0  0  # atno 8009 bound_to 7997
  156.2043  140.1734  156.7819 H   0  0  0  0  0  0  0  0  0  0  0  0  # atno 8010 bound_to 7997
  139.4946  144.3918  151.9508 H   0  0  0  0  0  0  0  0  0  0  0  0  # atno 10167 bound_to 10162
  157.6769  131.0781  150.5569 H   0  0  0  0  0  0  0  0  0  0  0  0  # atno 10718 bound_to 10713
  153.9851  135.2937  155.3417 H   0  0  0  0  0  0  0  0  0  0  0  0  # atno 10763 bound_to 10752
  154.7247  135.5094  153.8870 H   0  0  0  0  0  0  0  0  0  0  0  0  # atno 10764 bound_to 10752
  153.0836  135.6686  154.0110 H   0  0  0  0  0  0  0  0  0  0  0  0  # atno 10765 bound_to 10752
  141.0921  133.6631  156.4014 H   0  0  0  0  0  0  0  0  0  0  0  0  # atno 11005 bound_to 11000
  146.3105  140.3690  142.8672 LP  0  0  0  0  0  0  0  0  0  0  0  0  # atno 17320 bound_to 7965
  144.8988  140.7617  143.5880 LP  0  0  0  0  0  0  0  0  0  0  0  0  # atno 17321 bound_to 7965
  140.3356  144.3264  150.5978 LP  0  0  0  0  0  0  0  0  0  0  0  0  # atno 17342 bound_to 10162
  140.5609  143.2192  151.7767 LP  0  0  0  0  0  0  0  0  0  0  0  0  # atno 17343 bound_to 10162
  156.5872  130.4320  149.5952 LP  0  0  0  0  0  0  0  0  0  0  0  0  # atno 17370 bound_to 10713
  156.2613  130.6964  151.1733 LP  0  0  0  0  0  0  0  0  0  0  0  0  # atno 17371 bound_to 10713
  140.5228  134.6288  157.5324 LP  0  0  0  0  0  0  0  0  0  0  0  0  # atno 17394 bound_to 11000
  139.9749  134.7232  155.9970 LP  0  0  0  0  0  0  0  0  0  0  0  0  # atno 17395 bound_to 11000

$$$$
