AV-unprocessed.smi:1697|AV-procd|sdf|6806|dock2
  -GOLD-   22720 7583D 1   1.00000     0.00000
 Structure written by MMmdl.
 54 56  0  0  0  0  0  0  0  0  2 V2000
  141.6307  141.4000  155.0386 C   0  0  0  0  0  0  0  0  0  0  0  0
  142.5106  142.6224  155.3079 C   0  0  0  0  0  0  0  0  0  0  0  0
  143.7420  142.1816  155.8608 O   0  0  0  0  0  0  0  0  0  0  0  0
  144.6516  143.2244  156.1924 C   0  0  2  0  0  0  0  0  0  0  0  0
  145.1409  143.9681  154.9355 C   0  0  0  0  0  0  0  0  0  0  0  0
  145.9662  143.0456  154.0227 C   0  0  0  0  0  0  0  0  0  0  0  0
  147.1192  142.4572  154.7553 N   0  3  2  0  0  0  0  0  0  0  0  0
  148.0224  141.6601  153.8855 C   0  0  0  0  0  0  0  0  0  0  0  0
  149.1248  140.9395  154.6863 C   0  0  1  0  0  0  0  0  0  0  0  0
  149.7894  140.0309  153.8287 O   0  0  0  0  0  0  0  0  0  0  0  0
  150.1479  141.9292  155.2759 C   0  0  0  0  0  0  0  0  0  0  0  0
  150.9871  141.3176  156.2910 N   0  0  0  0  0  0  0  0  0  0  0  0
  151.6130  140.1276  156.2123 C   0  0  0  0  0  0  0  0  0  0  0  0
  152.3429  139.7525  157.2581 N   0  0  0  0  0  0  0  0  0  0  0  0
  152.1691  140.8235  158.1178 C   0  0  0  0  0  0  0  0  0  0  0  0
  152.6853  141.0527  159.4119 C   0  0  0  0  0  0  0  0  0  0  0  0
  152.3727  142.2360  160.1178 C   0  0  0  0  0  0  0  0  0  0  0  0
  152.9506  142.4411  161.5070 C   0  0  0  0  0  0  0  0  0  0  0  0
  151.5307  143.2133  159.5291 C   0  0  0  0  0  0  0  0  0  0  0  0
  151.1810  144.4918  160.2697 C   0  0  0  0  0  0  0  0  0  0  0  0
  151.0071  143.0011  158.2364 C   0  0  0  0  0  0  0  0  0  0  0  0
  151.3251  141.8191  157.5439 C   0  0  0  0  0  0  0  0  0  0  0  0
  146.6758  141.7005  155.9545 C   0  0  0  0  0  0  0  0  0  0  0  0
  145.8553  142.5902  156.9057 C   0  0  0  0  0  0  0  0  0  0  0  0
  140.6686  141.6966  154.6205 H   0  0  0  0  0  0  0  0  0  0  0  0
  141.4390  140.8461  155.9579 H   0  0  0  0  0  0  0  0  0  0  0  0
  142.1085  140.7216  154.3314 H   0  0  0  0  0  0  0  0  0  0  0  0
  142.6725  143.1682  154.3786 H   0  0  0  0  0  0  0  0  0  0  0  0
  142.0052  143.2948  156.0026 H   0  0  0  0  0  0  0  0  0  0  0  0
  144.1723  143.9244  156.8789 H   0  0  0  0  0  0  0  0  0  0  0  0
  144.3054  144.3937  154.3807 H   0  0  0  0  0  0  0  0  0  0  0  0
  145.7579  144.8151  155.2386 H   0  0  0  0  0  0  0  0  0  0  0  0
  145.3356  142.2465  153.6291 H   0  0  0  0  0  0  0  0  0  0  0  0
  146.3131  143.6201  153.1650 H   0  0  0  0  0  0  0  0  0  0  0  0
  147.4482  140.9104  153.3383 H   0  0  0  0  0  0  0  0  0  0  0  0
  148.4610  142.3138  153.1299 H   0  0  0  0  0  0  0  0  0  0  0  0
  148.6862  140.3699  155.5051 H   0  0  0  0  0  0  0  0  0  0  0  0
  149.5582  140.2322  152.9343 H   0  0  0  0  0  0  0  0  0  0  0  0
  150.7864  142.3378  154.4915 H   0  0  0  0  0  0  0  0  0  0  0  0
  149.6323  142.7772  155.7289 H   0  0  0  0  0  0  0  0  0  0  0  0
  151.5306  139.5022  155.3353 H   0  0  0  0  0  0  0  0  0  0  0  0
  153.3274  140.3085  159.8598 H   0  0  0  0  0  0  0  0  0  0  0  0
  152.1519  142.5463  162.2415 H   0  0  0  0  0  0  0  0  0  0  0  0
  153.5681  143.3390  161.5346 H   0  0  0  0  0  0  0  0  0  0  0  0
  153.5729  141.5980  161.8083 H   0  0  0  0  0  0  0  0  0  0  0  0
  150.5204  145.1265  159.6784 H   0  0  0  0  0  0  0  0  0  0  0  0
  152.0824  145.0628  160.4929 H   0  0  0  0  0  0  0  0  0  0  0  0
  150.6737  144.2636  161.2073 H   0  0  0  0  0  0  0  0  0  0  0  0
  150.3664  143.7388  157.7770 H   0  0  0  0  0  0  0  0  0  0  0  0
  146.0893  140.8343  155.6437 H   0  0  0  0  0  0  0  0  0  0  0  0
  147.5451  141.3176  156.4904 H   0  0  0  0  0  0  0  0  0  0  0  0
  146.4959  143.3781  157.3040 H   0  0  0  0  0  0  0  0  0  0  0  0
  145.5169  142.0081  157.7637 H   0  0  0  0  0  0  0  0  0  0  0  0
  147.6740  143.2279  155.1007 H   0  0  0  0  0  0  0  0  0  0  0  0
  1  2  1  0  0  0  0
  1 25  1  0  0  0  0
  1 26  1  0  0  0  0
  1 27  1  0  0  0  0
  2  3  1  0  0  0  0
  2 28  1  0  0  0  0
  2 29  1  0  0  0  0
  3  4  1  0  0  0  0
  4 24  1  0  0  0  0
  4  5  1  0  0  0  0
  4 30  1  0  0  0  0
  5  6  1  0  0  0  0
  5 31  1  0  0  0  0
  5 32  1  0  0  0  0
  6  7  1  0  0  0  0
  6 33  1  0  0  0  0
  6 34  1  0  0  0  0
  7  8  1  0  0  0  0
  7 23  1  0  0  0  0
  7 54  1  0  0  0  0
  8  9  1  0  0  0  0
  8 35  1  0  0  0  0
  8 36  1  0  0  0  0
  9 10  1  0  0  0  0
  9 11  1  0  0  0  0
  9 37  1  0  0  0  0
 10 38  1  0  0  0  0
 11 12  1  0  0  0  0
 11 39  1  0  0  0  0
 11 40  1  0  0  0  0
 12 22  1  0  0  0  0
 12 13  1  0  0  0  0
 13 14  2  0  0  0  0
 13 41  1  0  0  0  0
 14 15  1  0  0  0  0
 15 22  2  0  0  0  0
 15 16  1  0  0  0  0
 16 17  2  0  0  0  0
 16 42  1  0  0  0  0
 17 18  1  0  0  0  0
 17 19  1  0  0  0  0
 18 43  1  0  0  0  0
 18 44  1  0  0  0  0
 18 45  1  0  0  0  0
 19 20  1  0  0  0  0
 19 21  2  0  0  0  0
 20 46  1  0  0  0  0
 20 47  1  0  0  0  0
 20 48  1  0  0  0  0
 21 22  1  0  0  0  0
 21 49  1  0  0  0  0
 23 24  1  0  0  0  0
 23 50  1  0  0  0  0
 23 51  1  0  0  0  0
 24 52  1  0  0  0  0
 24 53  1  0  0  0  0
M  CHG  1   7   1
M  END
> <s_m_source_file>
AV-unprocessed.smi

> <i_m_source_file_index>
1697

> <i_lp_mmshare_version>
43012

> <i_f3d_flags>
0

> <s_epik_input>
W0NIM11bQ0gyXU9bQ0hdMVtDSDJdW0NIMl1OKFtDSDJdW0NIMl0xKVtDSDJdW0NASF0oW09IXSlbQ0gyXW4oW2NIXW4yKWMoYzIzKVtjSF1jKFtDSDNdKWMoW2NIXTMpW0NIM10=

> <s_epik_cmdline>
J2VwaWtfcHl0aG9uJywgJy1waCcsICc3LjAnLCAnLXRuJywgJzgnLCAnLW1hJywgJzIwMCcsICctbWV0YWxfYmluZGluZycsICctaW1hZScsICc8aW5maWxlLm1hZT4nLCAnLW9tYWUnLCAnPG91dGZpbGUubWFlPic=

> <r_epik_Ionization_Penalty>
0.112476

> <r_epik_Ionization_Penalty_Charging>
0.0244612

> <r_epik_Ionization_Penalty_Neutral>
0.0880147

> <r_epik_State_Penalty>
0.0961447

> <r_epik_Charging_Adjusted_Penalty>
0.120606

> <i_epik_Tot_Q>
1

> <i_epik_Tot_abs_Q>
1

> <r_epik_Metal_State_Penalty>
0.0206204

> <b_epik_Metal_Only>
0

> <s_lp_Force_Field>
OPLS_2005

> <r_lp_Energy>
22.8638

> <b_lp_Chiralities_Consistent>
1

> <s_lp_Variant>
AV-unprocessed.smi:1697-4

> <Gold.Version>
5.8.1

> <Gold.Id.Protein>
6NUR|6NUR_protein|mol2

> <Gold.PLP.Fitness>
60.7413

> <Gold.PLP.PLP>
-48.0155

> <Gold.PLP.part.hbond>
-3.9910

> <Gold.PLP.part.metal>
0.0000

> <Gold.PLP.part.buried>
-5.7015

> <Gold.PLP.part.nonpolar>
-38.2357

> <Gold.PLP.part.repulsive>
0.2092

> <Gold.PLP.ligand.clash>
0.0000

> <Gold.PLP.ligand.torsion>
0.3760

> <Gold.PLP.Chemscore.Hbond>
4.4100

> <Gold.PLP.Chemscore.CHOScore>
0.0000

> <Gold.PLP.Chemscore.Metal>
0.0000

> <Gold.Chemscore.Hbonds>
donor molecule, donor type, donor heavy atom, donor atom, acceptor molecule, acceptor atom, score
      L1  H     7    54       P1  8028  2.00
      L1  H    10    38       P1  7957  1.00
      P1  H  7989  7998       L1    10  0.30
      P1  H  7997  8008       L1    14  0.68

> <Gold.PLP.Chemscore.Internal.Correction>
0.2478

> <Gold.Rescore>
     Score         DG    S(hbond)    S(metal)    S(lipo)     H(rot)  DE(clash)    DE(int)     intcor
     18.84     -20.32       1.93        0.00     121.27       2.27       0.28       1.20       ----

> <Gold.Chemscore.Fitness>
18.8393

> <Gold.Chemscore.DG>
-20.3161

> <Gold.Chemscore.ZeroCoef>
-5.4800

> <Gold.Chemscore.Hbond>
1.9345

> <Gold.Chemscore.Metal>
0.0000

> <Gold.Chemscore.Lipo>
121.2697

> <Gold.Chemscore.Internal_Hbond>
0.0000

> <Gold.Chemscore.DEClash>
0.2815

> <Gold.Chemscore.DEInternal>
1.1953

> <Gold.Chemscore.Rot>
2.2710

> <Gold.Chemscore.Internal.Correction>
   9.000000E+99

> <Gold.Chemscore.Hbonds>
donor molecule, donor type, donor heavy atom, donor atom, acceptor molecule, acceptor atom, score
      L1  H     7    54       P1  8028  0.44
      L1  H    10    38       P1  7957  0.98
      P1  H  7997  8008       L1    14  0.07

> <Gold.Chemscore.Hbond.Weighted>
-6.4613

> <Gold.Chemscore.Metal.Weighted>
-0.0000

> <Gold.Chemscore.Lipo.Weighted>
-14.1886

> <Gold.Chemscore.Internal_Hbond.Weighted>
0.0000

> <Gold.Chemscore.DEClash.Weighted>
0.2815

> <Gold.Chemscore.DEInternal.Weighted>
1.1953

> <Gold.Chemscore.Rot.Weighted>
5.8137

> <Gold.Chemscore.Internal.Correction.Weighted>
   9.000000E+99

> <Gold.Protein.RotatedTorsions>
[ 6907 6896 6895 6894 ] final  155.00 input  -60.11 | X-H torsion
[ 7974 7965 7964 7962 ] final -158.80 input  175.53 | X-H torsion
[ 8008 7997 7996 7995 ] final  -54.03 input   59.86 | X-H torsion
[ 10167 10162 10161 10158 ] final -136.03 input  -65.29 | X-H torsion
[ 10718 10713 10712 10709 ] final   64.01 input   66.30 | X-H torsion
[ 10763 10752 10751 10750 ] final   47.95 input  -60.55 | X-H torsion
[ 11005 11000 10999 10996 ] final  140.51 input  -57.11 | X-H torsion

> <Gold.Protein.ActiveResidues>
 VAL166  LYS551  ARG553  GLY616  TRP617  ASP618  TYR619  PRO620  LYS621  CYS622 
 ASP623  PHE694  ASN695  SER759  ASP760  ASP761  ALA762  ILE779  LEU786  VAL792 
 PHE793  MET794  SER795  GLU796  ALA797  LYS798  CYS799  TRP800  GLU811  SER814 

> <Gold.Protein.RotatedAtoms>
  152.0504  133.4016  159.4374 H   0  0  0  0  0  0  0  0  0  0  0  0  # atno 6907 bound_to 6896
  150.6870  134.3314  159.4838 H   0  0  0  0  0  0  0  0  0  0  0  0  # atno 6908 bound_to 6896
  152.1123  134.9265  160.0617 H   0  0  0  0  0  0  0  0  0  0  0  0  # atno 6909 bound_to 6896
  144.7491  140.3776  143.6062 H   0  0  0  0  0  0  0  0  0  0  0  0  # atno 7974 bound_to 7965
  154.4150  140.1186  156.5249 H   0  0  0  0  0  0  0  0  0  0  0  0  # atno 8008 bound_to 7997
  155.6664  140.3496  155.4783 H   0  0  0  0  0  0  0  0  0  0  0  0  # atno 8009 bound_to 7997
  155.9669  140.1134  157.0836 H   0  0  0  0  0  0  0  0  0  0  0  0  # atno 8010 bound_to 7997
  139.8719  143.6946  152.2638 H   0  0  0  0  0  0  0  0  0  0  0  0  # atno 10167 bound_to 10162
  157.6010  130.9136  149.9790 H   0  0  0  0  0  0  0  0  0  0  0  0  # atno 10718 bound_to 10713
  152.9795  135.5960  154.3846 H   0  0  0  0  0  0  0  0  0  0  0  0  # atno 10763 bound_to 10752
  154.3507  135.2767  155.2375 H   0  0  0  0  0  0  0  0  0  0  0  0  # atno 10764 bound_to 10752
  154.4416  135.6012  153.6188 H   0  0  0  0  0  0  0  0  0  0  0  0  # atno 10765 bound_to 10752
  140.0333  134.9341  157.0704 H   0  0  0  0  0  0  0  0  0  0  0  0  # atno 11005 bound_to 11000
  145.7012  139.1661  143.2592 LP  0  0  0  0  0  0  0  0  0  0  0  0  # atno 17320 bound_to 7965
  146.1414  140.7052  142.9365 LP  0  0  0  0  0  0  0  0  0  0  0  0  # atno 17321 bound_to 7965
  139.7276  144.7589  151.0854 LP  0  0  0  0  0  0  0  0  0  0  0  0  # atno 17342 bound_to 10162
  140.7759  143.5129  150.9630 LP  0  0  0  0  0  0  0  0  0  0  0  0  # atno 17343 bound_to 10162
  156.1084  130.3651  150.0093 LP  0  0  0  0  0  0  0  0  0  0  0  0  # atno 17370 bound_to 10713
  156.8196  130.9354  151.3641 LP  0  0  0  0  0  0  0  0  0  0  0  0  # atno 17371 bound_to 10713
  140.4190  134.1901  155.7164 LP  0  0  0  0  0  0  0  0  0  0  0  0  # atno 17394 bound_to 11000
  141.1843  133.8347  157.1144 LP  0  0  0  0  0  0  0  0  0  0  0  0  # atno 17395 bound_to 11000

$$$$
