AV-unprocessed.smi:1665|AV-procd|sdf|6670|dock3
  -GOLD-   22720 7383D 1   1.00000     0.00000
 Structure written by MMmdl.
 37 38  0  0  0  0  0  0  0  0  1 V2000
  145.4355  136.0305  151.3536 C   0  0  0  0  0  0  0  0  0  0  0  0
  145.7267  135.3552  152.7038 C   0  0  1  0  0  0  0  0  0  0  0  0
  146.0796  133.8575  152.5759 C   0  0  0  0  0  0  0  0  0  0  0  0
  145.2960  133.1756  151.5617 N   0  0  0  0  0  0  0  0  0  0  0  0
  145.7369  132.3583  150.5419 C   0  0  0  0  0  0  0  0  0  0  0  0
  144.6357  131.9436  149.8489 C   0  0  0  0  0  0  0  0  0  0  0  0
  143.5527  132.5645  150.5321 C   0  0  0  0  0  0  0  0  0  0  0  0
  143.9509  133.2981  151.5587 N   0  0  0  0  0  0  0  0  0  0  0  0
  146.8112  136.0707  153.3681 N   0  0  0  0  0  0  0  0  0  0  0  0
  146.7440  136.6221  154.5897 C   0  0  0  0  0  0  0  0  0  0  0  0
  145.7649  136.5262  155.3289 O   0  0  0  0  0  0  0  0  0  0  0  0
  147.9662  137.4241  155.0414 C   0  0  0  0  0  0  0  0  0  0  0  0
  148.9400  137.7522  153.8889 C   0  0  0  0  0  0  0  0  0  0  0  0
  150.0759  138.5682  154.3258 N   0  0  0  0  0  0  0  0  0  0  0  0
  149.9102  140.0095  154.4456 C   0  0  0  0  0  0  0  0  0  0  0  0
  151.0893  140.5419  155.2621 C   0  0  0  0  0  0  0  0  0  0  0  0
  152.4519  139.3740  155.0723 S   0  0  0  0  0  0  0  0  0  0  0  0
  151.3543  138.0618  154.5251 C   0  0  0  0  0  0  0  0  0  0  0  0
  151.7400  136.9037  154.3771 O   0  0  0  0  0  0  0  0  0  0  0  0
  144.5720  135.5830  150.8607 H   0  0  0  0  0  0  0  0  0  0  0  0
  146.2864  135.9483  150.6768 H   0  0  0  0  0  0  0  0  0  0  0  0
  145.2170  137.0909  151.4872 H   0  0  0  0  0  0  0  0  0  0  0  0
  144.8239  135.4499  153.3105 H   0  0  0  0  0  0  0  0  0  0  0  0
  147.1359  133.7397  152.3298 H   0  0  0  0  0  0  0  0  0  0  0  0
  145.9231  133.3461  153.5270 H   0  0  0  0  0  0  0  0  0  0  0  0
  146.7853  132.1437  150.3952 H   0  0  0  0  0  0  0  0  0  0  0  0
  144.6077  131.2945  148.9863 H   0  0  0  0  0  0  0  0  0  0  0  0
  142.4963  132.5030  150.3155 H   0  0  0  0  0  0  0  0  0  0  0  0
  147.6606  136.1997  152.8379 H   0  0  0  0  0  0  0  0  0  0  0  0
  147.6086  138.3542  155.4843 H   0  0  0  0  0  0  0  0  0  0  0  0
  148.4900  136.8926  155.8376 H   0  0  0  0  0  0  0  0  0  0  0  0
  149.2932  136.8327  153.4186 H   0  0  0  0  0  0  0  0  0  0  0  0
  148.4026  138.2917  153.1080 H   0  0  0  0  0  0  0  0  0  0  0  0
  149.9168  140.4414  153.4438 H   0  0  0  0  0  0  0  0  0  0  0  0
  148.9576  140.2652  154.9112 H   0  0  0  0  0  0  0  0  0  0  0  0
  151.3831  141.5467  154.9573 H   0  0  0  0  0  0  0  0  0  0  0  0
  150.8233  140.5781  156.3191 H   0  0  0  0  0  0  0  0  0  0  0  0
  1  2  1  0  0  0  0
  1 20  1  0  0  0  0
  1 21  1  0  0  0  0
  1 22  1  0  0  0  0
  2  3  1  0  0  0  0
  2  9  1  0  0  0  0
  2 23  1  0  0  0  0
  3  4  1  0  0  0  0
  3 24  1  0  0  0  0
  3 25  1  0  0  0  0
  4  8  1  0  0  0  0
  4  5  1  0  0  0  0
  5  6  2  0  0  0  0
  5 26  1  0  0  0  0
  6  7  1  0  0  0  0
  6 27  1  0  0  0  0
  7  8  2  0  0  0  0
  7 28  1  0  0  0  0
  9 10  1  0  0  0  0
  9 29  1  0  0  0  0
 10 11  2  0  0  0  0
 10 12  1  0  0  0  0
 12 13  1  0  0  0  0
 12 30  1  0  0  0  0
 12 31  1  0  0  0  0
 13 14  1  0  0  0  0
 13 32  1  0  0  0  0
 13 33  1  0  0  0  0
 14 18  1  0  0  0  0
 14 15  1  0  0  0  0
 15 16  1  0  0  0  0
 15 34  1  0  0  0  0
 15 35  1  0  0  0  0
 16 17  1  0  0  0  0
 16 36  1  0  0  0  0
 16 37  1  0  0  0  0
 17 18  1  0  0  0  0
 18 19  2  0  0  0  0
M  END
> <s_m_source_file>
AV-unprocessed.smi

> <i_m_source_file_index>
1665

> <i_lp_mmshare_version>
43012

> <i_f3d_flags>
0

> <s_epik_input>
bjFbY0hdW2NIXVtjSF1uMVtDSDJdW0NAQEhdKFtDSDNdKVtOSF1DKD1PKVtDSDJdW0NIMl1OMltDSDJdW0NIMl1TQzI9Tw==

> <s_epik_cmdline>
J2VwaWtfcHl0aG9uJywgJy1waCcsICc3LjAnLCAnLXRuJywgJzgnLCAnLW1hJywgJzIwMCcsICctbWV0YWxfYmluZGluZycsICctaW1hZScsICc8aW5maWxlLm1hZT4nLCAnLW9tYWUnLCAnPG91dGZpbGUubWFlPic=

> <r_lp_tautomer_probability>
1

> <r_epik_Ionization_Penalty>
0.000300775

> <r_epik_Ionization_Penalty_Charging>
0

> <r_epik_Ionization_Penalty_Neutral>
0.000300775

> <r_epik_State_Penalty>
-0

> <r_epik_Charging_Adjusted_Penalty>
0

> <i_epik_Tot_Q>
0

> <i_epik_Tot_abs_Q>
0

> <r_epik_Metal_State_Penalty>
-0

> <b_epik_Metal_Only>
0

> <s_lp_Force_Field>
OPLS_2005

> <r_lp_Energy>
3.63181

> <b_lp_Chiralities_Consistent>
1

> <s_lp_Variant>
AV-unprocessed.smi:1665-2

> <Gold.Version>
5.8.1

> <Gold.Id.Protein>
6NUR|6NUR_protein|mol2

> <Gold.PLP.Fitness>
42.7703

> <Gold.PLP.PLP>
-31.9815

> <Gold.PLP.part.hbond>
-2.0000

> <Gold.PLP.part.metal>
0.0000

> <Gold.PLP.part.buried>
-0.6656

> <Gold.PLP.part.nonpolar>
-31.2491

> <Gold.PLP.part.repulsive>
0.4957

> <Gold.PLP.ligand.clash>
0.0000

> <Gold.PLP.ligand.torsion>
0.7654

> <Gold.PLP.Chemscore.Hbond>
2.0000

> <Gold.PLP.Chemscore.CHOScore>
2.0865

> <Gold.PLP.Chemscore.Metal>
0.0000

> <Gold.Chemscore.Hbonds>
donor molecule, donor type, donor heavy atom, donor atom, acceptor molecule, acceptor atom, score
      L1  H     9    29       P1  7948  1.00
      P1  H 10752 10765       L1    19  1.00
      L1  C     5    26       P1 10747  0.98
      L1  C     7    28       P1 10186  0.91
      L1  C     7    28       P1 10952  0.28

> <Gold.PLP.Chemscore.Internal.Correction>
0.0601

> <Gold.Rescore>
     Score         DG    S(hbond)    S(metal)    S(lipo)     H(rot)  DE(clash)    DE(int)     intcor
     13.04     -15.05       1.98        0.00      73.37       2.20       1.29       0.72       ----

> <Gold.Chemscore.Fitness>
13.0419

> <Gold.Chemscore.DG>
-15.0517

> <Gold.Chemscore.ZeroCoef>
-5.4800

> <Gold.Chemscore.Hbond>
1.9840

> <Gold.Chemscore.Metal>
0.0000

> <Gold.Chemscore.Lipo>
73.3678

> <Gold.Chemscore.Internal_Hbond>
0.0000

> <Gold.Chemscore.DEClash>
1.2910

> <Gold.Chemscore.DEInternal>
0.7188

> <Gold.Chemscore.Rot>
2.2026

> <Gold.Chemscore.Internal.Correction>
   9.000000E+99

> <Gold.Chemscore.Hbonds>
donor molecule, donor type, donor heavy atom, donor atom, acceptor molecule, acceptor atom, score
      L1  H     9    29       P1  7948  0.99
      P1  H 10752 10765       L1    19  0.99

> <Gold.Chemscore.Hbond.Weighted>
-6.6264

> <Gold.Chemscore.Metal.Weighted>
-0.0000

> <Gold.Chemscore.Lipo.Weighted>
-8.5840

> <Gold.Chemscore.Internal_Hbond.Weighted>
0.0000

> <Gold.Chemscore.DEClash.Weighted>
1.2910

> <Gold.Chemscore.DEInternal.Weighted>
0.7188

> <Gold.Chemscore.Rot.Weighted>
5.6387

> <Gold.Chemscore.Internal.Correction.Weighted>
   9.000000E+99

> <Gold.Protein.RotatedTorsions>
[ 6907 6896 6895 6894 ] final  -37.25 input  -60.11 | X-H torsion
[ 7974 7965 7964 7962 ] final   66.96 input  175.53 | X-H torsion
[ 8008 7997 7996 7995 ] final  168.40 input   59.86 | X-H torsion
[ 10167 10162 10161 10158 ] final   79.46 input  -65.29 | X-H torsion
[ 10718 10713 10712 10709 ] final  -48.96 input   66.30 | X-H torsion
[ 10763 10752 10751 10750 ] final  169.85 input  -60.55 | X-H torsion
[ 11005 11000 10999 10996 ] final  133.47 input  -57.11 | X-H torsion

> <Gold.Protein.ActiveResidues>
 VAL166  LYS551  ARG553  GLY616  TRP617  ASP618  TYR619  PRO620  LYS621  CYS622 
 ASP623  PHE694  ASN695  SER759  ASP760  ASP761  ALA762  ILE779  LEU786  VAL792 
 PHE793  MET794  SER795  GLU796  ALA797  LYS798  CYS799  TRP800  GLU811  SER814 

> <Gold.Protein.RotatedAtoms>
  151.0170  134.9440  159.8038 H   0  0  0  0  0  0  0  0  0  0  0  0  # atno 6907 bound_to 6896
  152.5316  134.2953  159.9068 H   0  0  0  0  0  0  0  0  0  0  0  0  # atno 6908 bound_to 6896
  151.2960  133.4102  159.2670 H   0  0  0  0  0  0  0  0  0  0  0  0  # atno 6909 bound_to 6896
  145.8203  139.3081  143.1047 H   0  0  0  0  0  0  0  0  0  0  0  0  # atno 7974 bound_to 7965
  156.1550  140.1591  156.8707 H   0  0  0  0  0  0  0  0  0  0  0  0  # atno 8008 bound_to 7997
  154.5106  140.0802  156.8019 H   0  0  0  0  0  0  0  0  0  0  0  0  # atno 8009 bound_to 7997
  155.3821  140.3405  155.4249 H   0  0  0  0  0  0  0  0  0  0  0  0  # atno 8010 bound_to 7997
  139.9601  144.5967  150.8080 H   0  0  0  0  0  0  0  0  0  0  0  0  # atno 10167 bound_to 10162
  156.1938  130.4153  149.9335 H   0  0  0  0  0  0  0  0  0  0  0  0  # atno 10718 bound_to 10713
  154.3891  135.2754  155.2166 H   0  0  0  0  0  0  0  0  0  0  0  0  # atno 10763 bound_to 10752
  154.4240  135.5993  153.6031 H   0  0  0  0  0  0  0  0  0  0  0  0  # atno 10764 bound_to 10752
  152.9832  135.5979  154.4143 H   0  0  0  0  0  0  0  0  0  0  0  0  # atno 10765 bound_to 10752
  139.9853  134.9534  156.9729 H   0  0  0  0  0  0  0  0  0  0  0  0  # atno 11005 bound_to 11000
  145.9682  140.8782  143.0176 LP  0  0  0  0  0  0  0  0  0  0  0  0  # atno 17320 bound_to 7965
  144.6748  140.1908  143.7397 LP  0  0  0  0  0  0  0  0  0  0  0  0  # atno 17321 bound_to 7965
  140.7556  143.3049  151.2988 LP  0  0  0  0  0  0  0  0  0  0  0  0  # atno 17342 bound_to 10162
  139.6560  144.0274  152.2660 LP  0  0  0  0  0  0  0  0  0  0  0  0  # atno 17343 bound_to 10162
  156.7067  130.8954  151.3605 LP  0  0  0  0  0  0  0  0  0  0  0  0  # atno 17370 bound_to 10713
  157.6945  130.9267  150.0606 LP  0  0  0  0  0  0  0  0  0  0  0  0  # atno 17371 bound_to 10713
  140.5014  134.1094  155.7251 LP  0  0  0  0  0  0  0  0  0  0  0  0  # atno 17394 bound_to 11000
  141.1519  133.8952  157.2075 LP  0  0  0  0  0  0  0  0  0  0  0  0  # atno 17395 bound_to 11000

$$$$
