AV-unprocessed.smi:1759|AV-procd|sdf|7088|dock7
  -GOLD-   22720 8303D 1   1.00000     0.00000
 Structure written by MMmdl.
 31 32  0  0  0  0  0  0  0  0  1 V2000
  148.2706  129.8072  153.5432 C   0  0  0  0  0  0  0  0  0  0  0  0
  148.8361  131.1202  153.9632 C   0  0  0  0  0  0  0  0  0  0  0  0
  148.6878  132.3923  153.4868 C   0  0  0  0  0  0  0  0  0  0  0  0
  149.5123  133.1565  154.3546 C   0  0  0  0  0  0  0  0  0  0  0  0
  149.6403  134.5589  154.1883 N   0  0  0  0  0  0  0  0  0  0  0  0
  150.4635  135.3900  154.8494 C   0  0  0  0  0  0  0  0  0  0  0  0
  151.2383  135.0563  155.7465 O   0  0  0  0  0  0  0  0  0  0  0  0
  150.3354  136.6510  154.4133 N   0  0  0  0  0  0  0  0  0  0  0  0
  151.0665  137.7960  154.9436 C   0  0  0  0  0  0  0  0  0  0  0  0
  150.5392  139.1169  154.3602 C   0  0  1  0  0  0  0  0  0  0  0  0
  149.0191  139.2542  154.4314 C   0  0  0  0  0  0  0  0  0  0  0  0
  148.8463  140.7553  154.4569 C   0  0  0  0  0  0  0  0  0  0  0  0
  150.0180  141.1823  155.3341 C   0  0  0  0  0  0  0  0  0  0  0  0
  151.0490  140.2276  155.0968 O   0  0  0  0  0  0  0  0  0  0  0  0
  150.1089  132.4181  155.2780 N   0  0  0  0  0  0  0  0  0  0  0  0
  149.6785  131.1089  155.0318 O   0  0  0  0  0  0  0  0  0  0  0  0
  147.6096  129.9244  152.6842 H   0  0  0  0  0  0  0  0  0  0  0  0
  147.6966  129.3573  154.3532 H   0  0  0  0  0  0  0  0  0  0  0  0
  149.0662  129.1156  153.2662 H   0  0  0  0  0  0  0  0  0  0  0  0
  148.0868  132.7201  152.6515 H   0  0  0  0  0  0  0  0  0  0  0  0
  149.0461  134.9729  153.4856 H   0  0  0  0  0  0  0  0  0  0  0  0
  149.6713  136.8380  153.6763 H   0  0  0  0  0  0  0  0  0  0  0  0
  150.9995  137.8100  156.0329 H   0  0  0  0  0  0  0  0  0  0  0  0
  152.1224  137.6738  154.7011 H   0  0  0  0  0  0  0  0  0  0  0  0
  150.8539  139.2311  153.3214 H   0  0  0  0  0  0  0  0  0  0  0  0
  148.5108  138.7785  153.5924 H   0  0  0  0  0  0  0  0  0  0  0  0
  148.6342  138.8201  155.3556 H   0  0  0  0  0  0  0  0  0  0  0  0
  148.9586  141.1637  153.4516 H   0  0  0  0  0  0  0  0  0  0  0  0
  147.8800  141.0711  154.8509 H   0  0  0  0  0  0  0  0  0  0  0  0
  150.3537  142.1967  155.1175 H   0  0  0  0  0  0  0  0  0  0  0  0
  149.7402  141.1349  156.3877 H   0  0  0  0  0  0  0  0  0  0  0  0
  1  2  1  0  0  0  0
  1 17  1  0  0  0  0
  1 18  1  0  0  0  0
  1 19  1  0  0  0  0
  2 16  1  0  0  0  0
  2  3  2  0  0  0  0
  3  4  1  0  0  0  0
  3 20  1  0  0  0  0
  4  5  1  0  0  0  0
  4 15  2  0  0  0  0
  5  6  1  0  0  0  0
  5 21  1  0  0  0  0
  6  7  2  0  0  0  0
  6  8  1  0  0  0  0
  8  9  1  0  0  0  0
  8 22  1  0  0  0  0
  9 10  1  0  0  0  0
  9 23  1  0  0  0  0
  9 24  1  0  0  0  0
 10 14  1  0  0  0  0
 10 11  1  0  0  0  0
 10 25  1  0  0  0  0
 11 12  1  0  0  0  0
 11 26  1  0  0  0  0
 11 27  1  0  0  0  0
 12 13  1  0  0  0  0
 12 28  1  0  0  0  0
 12 29  1  0  0  0  0
 13 14  1  0  0  0  0
 13 30  1  0  0  0  0
 13 31  1  0  0  0  0
 15 16  1  0  0  0  0
M  END
> <s_m_source_file>
AV-unprocessed.smi

> <i_m_source_file_index>
1759

> <i_lp_mmshare_version>
43012

> <i_f3d_flags>
0

> <s_epik_input>
W0NIM11jMVtjSF1jKG5vMSlbTkhdQyg9TylbTkhdW0NIMl1bQ0BASF0yW0NIMl1bQ0gyXVtDSDJdTzI=

> <s_epik_cmdline>
J2VwaWtfcHl0aG9uJywgJy1waCcsICc3LjAnLCAnLXRuJywgJzgnLCAnLW1hJywgJzIwMCcsICctbWV0YWxfYmluZGluZycsICctaW1hZScsICc8aW5maWxlLm1hZT4nLCAnLW9tYWUnLCAnPG91dGZpbGUubWFlPic=

> <r_lp_tautomer_probability>
1

> <r_epik_Ionization_Penalty>
2.1743e-05

> <r_epik_Ionization_Penalty_Charging>
0

> <r_epik_Ionization_Penalty_Neutral>
2.1743e-05

> <r_epik_State_Penalty>
-0

> <r_epik_Charging_Adjusted_Penalty>
0

> <i_epik_Tot_Q>
0

> <i_epik_Tot_abs_Q>
0

> <r_epik_Metal_State_Penalty>
-0

> <b_epik_Metal_Only>
0

> <s_lp_Force_Field>
OPLS_2005

> <r_lp_Energy>
14.348

> <b_lp_Chiralities_Consistent>
1

> <s_lp_Variant>
AV-unprocessed.smi:1759-2

> <Gold.Version>
5.8.1

> <Gold.Id.Protein>
6NUR|6NUR_protein|mol2

> <Gold.PLP.Fitness>
39.5046

> <Gold.PLP.PLP>
-30.5570

> <Gold.PLP.part.hbond>
-4.8400

> <Gold.PLP.part.metal>
0.0000

> <Gold.PLP.part.buried>
-2.5422

> <Gold.PLP.part.nonpolar>
-23.0418

> <Gold.PLP.part.repulsive>
0.2097

> <Gold.PLP.ligand.clash>
0.0000

> <Gold.PLP.ligand.torsion>
0.1106

> <Gold.PLP.Chemscore.Hbond>
3.0558

> <Gold.PLP.Chemscore.CHOScore>
0.0000

> <Gold.PLP.Chemscore.Metal>
0.0000

> <Gold.Chemscore.Hbonds>
donor molecule, donor type, donor heavy atom, donor atom, acceptor molecule, acceptor atom, score
      L1  H     5    21       P1  7948  0.90
      L1  H     8    22       P1  7948  0.90
      P1  H  7989  7998       L1    14  0.32
      P1  H 10752 10764       L1     7  0.96

> <Gold.PLP.Chemscore.Internal.Correction>
0.0015

> <Gold.Rescore>
     Score         DG    S(hbond)    S(metal)    S(lipo)     H(rot)  DE(clash)    DE(int)     intcor
     12.93     -14.38       1.89        0.00      50.62       1.30       0.06       1.39       ----

> <Gold.Chemscore.Fitness>
12.9333

> <Gold.Chemscore.DG>
-14.3815

> <Gold.Chemscore.ZeroCoef>
-5.4800

> <Gold.Chemscore.Hbond>
1.8855

> <Gold.Chemscore.Metal>
0.0000

> <Gold.Chemscore.Lipo>
50.6238

> <Gold.Chemscore.Internal_Hbond>
0.0000

> <Gold.Chemscore.DEClash>
0.0587

> <Gold.Chemscore.DEInternal>
1.3894

> <Gold.Chemscore.Rot>
1.2965

> <Gold.Chemscore.Internal.Correction>
   9.000000E+99

> <Gold.Chemscore.Hbonds>
donor molecule, donor type, donor heavy atom, donor atom, acceptor molecule, acceptor atom, score
      L1  H     5    21       P1  7948  0.21
      L1  H     8    22       P1  7948  0.58
      P1  H 10752 10764       L1     7  0.30

> <Gold.Chemscore.Hbond.Weighted>
-6.2976

> <Gold.Chemscore.Metal.Weighted>
-0.0000

> <Gold.Chemscore.Lipo.Weighted>
-5.9230

> <Gold.Chemscore.Internal_Hbond.Weighted>
0.0000

> <Gold.Chemscore.DEClash.Weighted>
0.0587

> <Gold.Chemscore.DEInternal.Weighted>
1.3894

> <Gold.Chemscore.Rot.Weighted>
3.3192

> <Gold.Chemscore.Internal.Correction.Weighted>
   9.000000E+99

> <Gold.Protein.RotatedTorsions>
[ 6907 6896 6895 6894 ] final   16.35 input  -60.11 | X-H torsion
[ 7974 7965 7964 7962 ] final   88.12 input  175.53 | X-H torsion
[ 8008 7997 7996 7995 ] final   76.91 input   59.86 | X-H torsion
[ 10167 10162 10161 10158 ] final  -81.93 input  -65.29 | X-H torsion
[ 10718 10713 10712 10709 ] final  -88.61 input   66.30 | X-H torsion
[ 10763 10752 10751 10750 ] final  -38.60 input  -60.55 | X-H torsion
[ 11005 11000 10999 10996 ] final   45.13 input  -57.11 | X-H torsion

> <Gold.Protein.ActiveResidues>
 VAL166  LYS551  ARG553  GLY616  TRP617  ASP618  TYR619  PRO620  LYS621  CYS622 
 ASP623  PHE694  ASN695  SER759  ASP760  ASP761  ALA762  ILE779  LEU786  VAL792 
 PHE793  MET794  SER795  GLU796  ALA797  LYS798  CYS799  TRP800  GLU811  SER814 

> <Gold.Protein.RotatedAtoms>
  151.8325  135.0617  160.0438 H   0  0  0  0  0  0  0  0  0  0  0  0  # atno 6907 bound_to 6896
  152.2870  133.5520  159.5541 H   0  0  0  0  0  0  0  0  0  0  0  0  # atno 6908 bound_to 6896
  150.7213  134.0399  159.3804 H   0  0  0  0  0  0  0  0  0  0  0  0  # atno 6909 bound_to 6896
  145.5499  139.2294  143.2519 H   0  0  0  0  0  0  0  0  0  0  0  0  # atno 7974 bound_to 7965
  155.8341  140.3465  155.5591 H   0  0  0  0  0  0  0  0  0  0  0  0  # atno 8008 bound_to 7997
  155.8210  140.0913  157.1868 H   0  0  0  0  0  0  0  0  0  0  0  0  # atno 8009 bound_to 7997
  154.4004  140.1430  156.3487 H   0  0  0  0  0  0  0  0  0  0  0  0  # atno 8010 bound_to 7997
  140.4367  143.2529  151.8684 H   0  0  0  0  0  0  0  0  0  0  0  0  # atno 10167 bound_to 10162
  155.9983  130.4842  150.5045 H   0  0  0  0  0  0  0  0  0  0  0  0  # atno 10718 bound_to 10713
  153.9154  135.6788  153.4749 H   0  0  0  0  0  0  0  0  0  0  0  0  # atno 10763 bound_to 10752
  153.1056  135.4807  154.8942 H   0  0  0  0  0  0  0  0  0  0  0  0  # atno 10764 bound_to 10752
  154.7505  135.3183  154.8522 H   0  0  0  0  0  0  0  0  0  0  0  0  # atno 10765 bound_to 10752
  140.1487  134.4489  155.8397 H   0  0  0  0  0  0  0  0  0  0  0  0  # atno 11005 bound_to 11000
  146.1924  140.6321  142.9139 LP  0  0  0  0  0  0  0  0  0  0  0  0  # atno 17320 bound_to 7965
  144.7535  140.5249  143.6785 LP  0  0  0  0  0  0  0  0  0  0  0  0  # atno 17321 bound_to 7965
  139.4787  144.5275  151.8714 LP  0  0  0  0  0  0  0  0  0  0  0  0  # atno 17342 bound_to 10162
  140.4366  144.2044  150.5889 LP  0  0  0  0  0  0  0  0  0  0  0  0  # atno 17343 bound_to 10162
  157.3025  131.0648  151.2058 LP  0  0  0  0  0  0  0  0  0  0  0  0  # atno 17370 bound_to 10713
  157.3032  130.6853  149.6175 LP  0  0  0  0  0  0  0  0  0  0  0  0  # atno 17371 bound_to 10713
  141.2196  133.6863  156.7382 LP  0  0  0  0  0  0  0  0  0  0  0  0  # atno 17394 bound_to 11000
  140.2631  134.8451  157.3777 LP  0  0  0  0  0  0  0  0  0  0  0  0  # atno 17395 bound_to 11000

$$$$
