AV-unprocessed.smi:1976|AV-procd|sdf|7988|dock5
  -GOLD-   2272010173D 1   1.00000     0.00000
 Structure written by MMmdl.
 45 47  0  0  0  0  0  0  0  0  2 V2000
  151.0694  140.9730  155.3551 O   0  0  0  0  0  0  0  0  0  0  0  0
  150.3009  140.4592  156.1693 C   0  0  0  0  0  0  0  0  0  0  0  0
  150.8371  139.6656  157.3695 C   0  0  0  0  0  0  0  0  0  0  0  0
  151.6129  140.4860  158.3152 N   0  0  0  0  0  0  0  0  0  0  0  0
  151.3377  141.8673  158.3416 C   0  0  0  0  0  0  0  0  0  0  0  0
  151.9833  142.7281  159.1517 C   0  0  0  0  0  0  0  0  0  0  0  0
  151.6242  144.2052  159.1980 C   0  0  0  0  0  0  0  0  0  0  0  0
  152.0027  144.8267  158.0809 F   0  0  0  0  0  0  0  0  0  0  0  0
  150.3054  144.3462  159.3249 F   0  0  0  0  0  0  0  0  0  0  0  0
  152.2079  144.8112  160.2327 F   0  0  0  0  0  0  0  0  0  0  0  0
  152.9740  142.1563  160.0423 C   0  0  0  0  0  0  0  0  0  0  0  0
  153.2412  140.8356  160.0382 C   0  0  0  0  0  0  0  0  0  0  0  0
  152.5453  139.9154  159.1361 C   0  0  0  0  0  0  0  0  0  0  0  0
  152.7813  138.7068  159.1206 O   0  0  0  0  0  0  0  0  0  0  0  0
  148.9657  140.5461  156.0743 N   0  0  0  0  0  0  0  0  0  0  0  0
  148.2407  141.2788  155.0403 C   0  0  1  0  0  0  0  0  0  0  0  0
  148.5962  140.8223  153.6186 C   0  0  0  0  0  0  0  0  0  0  0  0
  147.2736  140.8789  152.8282 C   0  0  0  0  0  0  0  0  0  0  0  0
  146.2434  141.4035  153.7547 N   0  3  2  0  0  0  0  0  0  0  0  0
  146.0024  142.8595  153.5558 C   0  0  0  0  0  0  0  0  0  0  0  0
  145.1182  143.4562  154.6582 C   0  0  0  0  0  0  0  0  0  0  0  0
  145.7568  143.2248  156.0298 C   0  0  0  0  0  0  0  0  0  0  0  0
  145.9494  141.7216  156.2524 C   0  0  0  0  0  0  0  0  0  0  0  0
  146.7275  141.0340  155.1070 C   0  0  2  0  0  0  0  0  0  0  0  0
  150.0022  139.1931  157.8908 H   0  0  0  0  0  0  0  0  0  0  0  0
  151.4399  138.8394  156.9898 H   0  0  0  0  0  0  0  0  0  0  0  0
  150.5585  142.1834  157.6634 H   0  0  0  0  0  0  0  0  0  0  0  0
  153.5130  142.7981  160.7234 H   0  0  0  0  0  0  0  0  0  0  0  0
  153.9863  140.4444  160.7153 H   0  0  0  0  0  0  0  0  0  0  0  0
  148.4115  140.0849  156.7816 H   0  0  0  0  0  0  0  0  0  0  0  0
  148.4455  142.3484  155.1137 H   0  0  0  0  0  0  0  0  0  0  0  0
  149.3588  141.4665  153.1793 H   0  0  0  0  0  0  0  0  0  0  0  0
  148.9855  139.8029  153.6120 H   0  0  0  0  0  0  0  0  0  0  0  0
  147.3590  141.4744  151.9179 H   0  0  0  0  0  0  0  0  0  0  0  0
  146.9842  139.8715  152.5267 H   0  0  0  0  0  0  0  0  0  0  0  0
  146.9534  143.3941  153.5289 H   0  0  0  0  0  0  0  0  0  0  0  0
  145.5329  143.0116  152.5833 H   0  0  0  0  0  0  0  0  0  0  0  0
  144.9807  144.5243  154.4874 H   0  0  0  0  0  0  0  0  0  0  0  0
  144.1254  143.0050  154.6262 H   0  0  0  0  0  0  0  0  0  0  0  0
  146.7149  143.7419  156.0928 H   0  0  0  0  0  0  0  0  0  0  0  0
  145.1248  143.6413  156.8145 H   0  0  0  0  0  0  0  0  0  0  0  0
  146.4373  141.5417  157.2105 H   0  0  0  0  0  0  0  0  0  0  0  0
  144.9653  141.2575  156.3312 H   0  0  0  0  0  0  0  0  0  0  0  0
  146.5703  139.9582  155.2096 H   0  0  0  0  0  0  0  0  0  0  0  0
  145.3679  140.9296  153.5841 H   0  0  0  0  0  0  0  0  0  0  0  0
  1  2  2  0  0  0  0
  2  3  1  0  0  0  0
  2 15  1  0  0  0  0
  3  4  1  0  0  0  0
  3 25  1  0  0  0  0
  3 26  1  0  0  0  0
  4 13  1  0  0  0  0
  4  5  1  0  0  0  0
  5  6  2  0  0  0  0
  5 27  1  0  0  0  0
  6  7  1  0  0  0  0
  6 11  1  0  0  0  0
  7  8  1  0  0  0  0
  7  9  1  0  0  0  0
  7 10  1  0  0  0  0
 11 12  2  0  0  0  0
 11 28  1  0  0  0  0
 12 13  1  0  0  0  0
 12 29  1  0  0  0  0
 13 14  2  0  0  0  0
 15 16  1  0  0  0  0
 15 30  1  0  0  0  0
 16 24  1  0  0  0  0
 16 17  1  0  0  0  0
 16 31  1  0  0  0  0
 17 18  1  0  0  0  0
 17 32  1  0  0  0  0
 17 33  1  0  0  0  0
 18 19  1  0  0  0  0
 18 34  1  0  0  0  0
 18 35  1  0  0  0  0
 19 24  1  0  0  0  0
 19 20  1  0  0  0  0
 19 45  1  0  0  0  0
 20 21  1  0  0  0  0
 20 36  1  0  0  0  0
 20 37  1  0  0  0  0
 21 22  1  0  0  0  0
 21 38  1  0  0  0  0
 21 39  1  0  0  0  0
 22 23  1  0  0  0  0
 22 40  1  0  0  0  0
 22 41  1  0  0  0  0
 23 24  1  0  0  0  0
 23 42  1  0  0  0  0
 23 43  1  0  0  0  0
 24 44  1  0  0  0  0
M  CHG  1  19   1
M  END
> <s_m_source_file>
AV-unprocessed.smi

> <i_m_source_file_index>
1976

> <i_lp_mmshare_version>
43012

> <i_f3d_flags>
0

> <s_epik_input>
W0NIMl0xW0NIMl1bQ0gyXVtDSDJdW0NASF0oTjEyKVtDQEBIXShbQ0gyXVtDSDJdMilbTkhdQyg9TylbQ0gyXW4zW2NIXWMoQyhGKShGKUYpW2NIXVtjSF1jMz1P

> <s_epik_cmdline>
J2VwaWtfcHl0aG9uJywgJy1waCcsICc3LjAnLCAnLXRuJywgJzgnLCAnLW1hJywgJzIwMCcsICctbWV0YWxfYmluZGluZycsICctaW1hZScsICc8aW5maWxlLm1hZT4nLCAnLW9tYWUnLCAnPG91dGZpbGUubWFlPic=

> <r_lp_tautomer_probability>
1

> <r_epik_Ionization_Penalty>
0.00171506

> <r_epik_Ionization_Penalty_Charging>
0.00171498

> <r_epik_Ionization_Penalty_Neutral>
7.81737e-08

> <r_epik_State_Penalty>
0.00115937

> <r_epik_Charging_Adjusted_Penalty>
0.00287436

> <i_epik_Tot_Q>
1

> <i_epik_Tot_abs_Q>
1

> <r_epik_Metal_State_Penalty>
-0

> <b_epik_Metal_Only>
0

> <s_lp_Force_Field>
OPLS_2005

> <r_lp_Energy>
48.7142

> <b_lp_Chiralities_Consistent>
1

> <s_lp_Variant>
AV-unprocessed.smi:1976-6

> <Gold.Version>
5.8.1

> <Gold.Id.Protein>
6NUR|6NUR_protein|mol2

> <Gold.PLP.Fitness>
55.2756

> <Gold.PLP.PLP>
-48.4934

> <Gold.PLP.part.hbond>
-2.0000

> <Gold.PLP.part.metal>
0.0000

> <Gold.PLP.part.buried>
-5.1237

> <Gold.PLP.part.nonpolar>
-40.5541

> <Gold.PLP.part.repulsive>
0.0924

> <Gold.PLP.ligand.clash>
0.0000

> <Gold.PLP.ligand.torsion>
0.6398

> <Gold.PLP.Chemscore.Hbond>
2.6728

> <Gold.PLP.Chemscore.CHOScore>
0.0000

> <Gold.PLP.Chemscore.Metal>
0.0000

> <Gold.Chemscore.Hbonds>
donor molecule, donor type, donor heavy atom, donor atom, acceptor molecule, acceptor atom, score
      L1  H    19    45       P1 10175  1.85
      P1  H  7989  7998       L1     1  0.69

> <Gold.PLP.Chemscore.Internal.Correction>
0.0433

> <Gold.Rescore>
     Score         DG    S(hbond)    S(metal)    S(lipo)     H(rot)  DE(clash)    DE(int)     intcor
     13.58     -15.34       0.99        0.00      90.55       1.58       0.10       1.66       ----

> <Gold.Chemscore.Fitness>
13.5794

> <Gold.Chemscore.DG>
-15.3376

> <Gold.Chemscore.ZeroCoef>
-5.4800

> <Gold.Chemscore.Hbond>
0.9927

> <Gold.Chemscore.Metal>
0.0000

> <Gold.Chemscore.Lipo>
90.5492

> <Gold.Chemscore.Internal_Hbond>
0.0000

> <Gold.Chemscore.DEClash>
0.1027

> <Gold.Chemscore.DEInternal>
1.6555

> <Gold.Chemscore.Rot>
1.5830

> <Gold.Chemscore.Internal.Correction>
   9.000000E+99

> <Gold.Chemscore.Hbonds>
donor molecule, donor type, donor heavy atom, donor atom, acceptor molecule, acceptor atom, score
      L1  H    19    45       P1 10175  0.68
      P1  H  7989  7998       L1     1  0.70

> <Gold.Chemscore.Hbond.Weighted>
-3.3157

> <Gold.Chemscore.Metal.Weighted>
-0.0000

> <Gold.Chemscore.Lipo.Weighted>
-10.5943

> <Gold.Chemscore.Internal_Hbond.Weighted>
0.0000

> <Gold.Chemscore.DEClash.Weighted>
0.1027

> <Gold.Chemscore.DEInternal.Weighted>
1.6555

> <Gold.Chemscore.Rot.Weighted>
4.0524

> <Gold.Chemscore.Internal.Correction.Weighted>
   9.000000E+99

> <Gold.Protein.RotatedTorsions>
[ 6907 6896 6895 6894 ] final  101.03 input  -60.11 | X-H torsion
[ 7974 7965 7964 7962 ] final  -99.60 input  175.53 | X-H torsion
[ 8008 7997 7996 7995 ] final  156.17 input   59.86 | X-H torsion
[ 10167 10162 10161 10158 ] final  -63.85 input  -65.29 | X-H torsion
[ 10718 10713 10712 10709 ] final  142.66 input   66.30 | X-H torsion
[ 10763 10752 10751 10750 ] final   21.82 input  -60.55 | X-H torsion
[ 11005 11000 10999 10996 ] final  159.53 input  -57.11 | X-H torsion

> <Gold.Protein.ActiveResidues>
 VAL166  LYS551  ARG553  GLY616  TRP617  ASP618  TYR619  PRO620  LYS621  CYS622 
 ASP623  PHE694  ASN695  SER759  ASP760  ASP761  ALA762  ILE779  LEU786  VAL792 
 PHE793  MET794  SER795  GLU796  ALA797  LYS798  CYS799  TRP800  GLU811  SER814 

> <Gold.Protein.RotatedAtoms>
  152.5359  134.0188  159.7971 H   0  0  0  0  0  0  0  0  0  0  0  0  # atno 6907 bound_to 6896
  151.0377  133.5726  159.2661 H   0  0  0  0  0  0  0  0  0  0  0  0  # atno 6908 bound_to 6896
  151.2707  135.0691  159.9186 H   0  0  0  0  0  0  0  0  0  0  0  0  # atno 6909 bound_to 6896
  145.3055  140.9388  143.2799 H   0  0  0  0  0  0  0  0  0  0  0  0  # atno 7974 bound_to 7965
  156.2438  140.1920  156.6914 H   0  0  0  0  0  0  0  0  0  0  0  0  # atno 8008 bound_to 7997
  154.6249  140.0603  156.9687 H   0  0  0  0  0  0  0  0  0  0  0  0  # atno 8009 bound_to 7997
  155.1803  140.3276  155.4379 H   0  0  0  0  0  0  0  0  0  0  0  0  # atno 8010 bound_to 7997
  140.5842  143.2331  151.6279 H   0  0  0  0  0  0  0  0  0  0  0  0  # atno 10167 bound_to 10162
  157.3780  131.0988  151.0766 H   0  0  0  0  0  0  0  0  0  0  0  0  # atno 10718 bound_to 10713
  153.0964  135.6661  153.9755 H   0  0  0  0  0  0  0  0  0  0  0  0  # atno 10763 bound_to 10752
  153.9337  135.3001  155.3446 H   0  0  0  0  0  0  0  0  0  0  0  0  # atno 10764 bound_to 10752
  154.7383  135.5091  153.9153 H   0  0  0  0  0  0  0  0  0  0  0  0  # atno 10765 bound_to 10752
  140.1971  134.8365  157.2977 H   0  0  0  0  0  0  0  0  0  0  0  0  # atno 11005 bound_to 11000
  144.9058  139.4590  143.6610 LP  0  0  0  0  0  0  0  0  0  0  0  0  # atno 17320 bound_to 7965
  146.3137  139.7839  142.9000 LP  0  0  0  0  0  0  0  0  0  0  0  0  # atno 17321 bound_to 7965
  139.5187  144.3275  152.0856 LP  0  0  0  0  0  0  0  0  0  0  0  0  # atno 17342 bound_to 10162
  140.2429  144.4250  150.6252 LP  0  0  0  0  0  0  0  0  0  0  0  0  # atno 17343 bound_to 10162
  157.1845  130.6324  149.5683 LP  0  0  0  0  0  0  0  0  0  0  0  0  # atno 17370 bound_to 10713
  155.9769  130.4742  150.6561 LP  0  0  0  0  0  0  0  0  0  0  0  0  # atno 17371 bound_to 10713
  140.2095  134.4156  155.7620 LP  0  0  0  0  0  0  0  0  0  0  0  0  # atno 17394 bound_to 11000
  141.2227  133.7111  156.8315 LP  0  0  0  0  0  0  0  0  0  0  0  0  # atno 17395 bound_to 11000

$$$$
