AV-unprocessed.smi:221|AV-procd|sdf|1695|dock10
  -GOLD-   2262020143D 1   1.00000     0.00000
 Structure written by MMmdl.
 50 53  0  0  0  0  0  0  0  0  1 V2000
  145.4531  137.7321  162.3726 N   0  0  0  0  0  0  0  0  0  0  0  0
  145.9492  136.9842  161.3842 C   0  0  0  0  0  0  0  0  0  0  0  0
  145.3173  136.7697  160.3508 O   0  0  0  0  0  0  0  0  0  0  0  0
  147.3571  136.3985  161.6015 C   0  0  1  0  0  0  0  0  0  0  0  0
  147.4261  135.5134  162.8595 C   0  0  0  0  0  0  0  0  0  0  0  0
  147.1342  134.0972  162.3622 C   0  0  1  0  0  0  0  0  0  0  0  0
  145.8168  133.8972  162.3010 F   0  0  0  0  0  0  0  0  0  0  0  0
  147.7258  134.0891  160.9516 C   0  0  0  0  0  0  0  0  0  0  0  0
  147.7553  135.4866  160.5286 N   0  0  0  0  0  0  0  0  0  0  0  0
  148.2032  135.8655  159.2988 C   0  0  0  0  0  0  0  0  0  0  0  0
  148.9687  134.9810  158.6051 N   0  0  0  0  0  0  0  0  0  0  0  0
  149.4403  135.2846  157.3935 C   0  0  0  0  0  0  0  0  0  0  0  0
  149.2743  136.4058  156.6929 N   0  0  0  0  0  0  0  0  0  0  0  0
  148.5119  137.3043  157.3772 C   0  0  0  0  0  0  0  0  0  0  0  0
  147.9393  137.1220  158.6706 C   0  0  0  0  0  0  0  0  0  0  0  0
  147.2313  138.2680  159.0217 N   0  0  0  0  0  0  0  0  0  0  0  0
  147.3724  139.0699  158.0032 C   0  0  0  0  0  0  0  0  0  0  0  0
  148.1371  138.5736  156.9743 N   0  0  0  0  0  0  0  0  0  0  0  0
  148.4648  139.2424  155.7272 C   0  0  0  0  0  0  0  0  0  0  0  0
  148.9903  140.6856  155.9394 C   0  0  2  0  0  0  0  0  0  0  0  0
  148.9473  141.4983  154.6241 C   0  0  0  0  0  0  0  0  0  0  0  0
  149.5893  140.8061  153.5736 O   0  0  0  0  0  0  0  0  0  0  0  0
  150.3943  140.7425  156.6031 C   0  0  1  0  0  0  0  0  0  0  0  0
  150.8545  142.1126  157.0783 C   0  0  0  0  0  0  0  0  0  0  0  0
  151.9161  141.7837  158.1335 C   0  0  0  0  0  0  0  0  0  0  0  0
  151.8313  140.3807  158.3712 O   0  0  0  0  0  0  0  0  0  0  0  0
  150.5998  139.8966  157.8585 C   0  0  0  0  0  0  0  0  0  0  0  0
  148.0790  137.2086  161.7064 H   0  0  0  0  0  0  0  0  0  0  0  0
  147.5499  133.3207  163.0048 H   0  0  0  0  0  0  0  0  0  0  0  0
  144.5349  138.1408  162.2769 H   0  0  0  0  0  0  0  0  0  0  0  0
  145.9963  137.8888  163.2090 H   0  0  0  0  0  0  0  0  0  0  0  0
  148.4376  135.5487  163.2663 H   0  0  0  0  0  0  0  0  0  0  0  0
  146.7496  135.8267  163.6560 H   0  0  0  0  0  0  0  0  0  0  0  0
  148.7460  133.7035  160.9718 H   0  0  0  0  0  0  0  0  0  0  0  0
  147.1385  133.4664  160.2751 H   0  0  0  0  0  0  0  0  0  0  0  0
  150.0370  134.5198  156.9185 H   0  0  0  0  0  0  0  0  0  0  0  0
  146.9272  140.0540  157.9789 H   0  0  0  0  0  0  0  0  0  0  0  0
  149.1977  138.6228  155.2131 H   0  0  0  0  0  0  0  0  0  0  0  0
  147.5724  139.2492  155.1007 H   0  0  0  0  0  0  0  0  0  0  0  0
  148.3041  141.1745  156.6325 H   0  0  0  0  0  0  0  0  0  0  0  0
  147.9195  141.7204  154.3369 H   0  0  0  0  0  0  0  0  0  0  0  0
  149.4590  142.4540  154.7329 H   0  0  0  0  0  0  0  0  0  0  0  0
  149.0519  140.0695  153.3247 H   0  0  0  0  0  0  0  0  0  0  0  0
  151.1351  140.4154  155.8722 H   0  0  0  0  0  0  0  0  0  0  0  0
  151.2509  142.7202  156.2642 H   0  0  0  0  0  0  0  0  0  0  0  0
  150.0459  142.6745  157.5433 H   0  0  0  0  0  0  0  0  0  0  0  0
  152.9195  142.0312  157.7862 H   0  0  0  0  0  0  0  0  0  0  0  0
  151.7332  142.3339  159.0571 H   0  0  0  0  0  0  0  0  0  0  0  0
  149.8215  140.0693  158.6022 H   0  0  0  0  0  0  0  0  0  0  0  0
  150.6492  138.8280  157.6490 H   0  0  0  0  0  0  0  0  0  0  0  0
  1  2  1  0  0  0  0
  1 30  1  0  0  0  0
  1 31  1  0  0  0  0
  2  3  2  0  0  0  0
  2  4  1  0  0  0  0
  4 28  1  0  0  0  0
  4  9  1  0  0  0  0
  4  5  1  0  0  0  0
  5  6  1  0  0  0  0
  5 32  1  0  0  0  0
  5 33  1  0  0  0  0
  6 29  1  0  0  0  0
  6  7  1  0  0  0  0
  6  8  1  0  0  0  0
  8  9  1  0  0  0  0
  8 34  1  0  0  0  0
  8 35  1  0  0  0  0
  9 10  1  0  0  0  0
 10 15  1  0  0  0  0
 10 11  2  0  0  0  0
 11 12  1  0  0  0  0
 12 13  2  0  0  0  0
 12 36  1  0  0  0  0
 13 14  1  0  0  0  0
 14 18  1  0  0  0  0
 14 15  2  0  0  0  0
 15 16  1  0  0  0  0
 16 17  2  0  0  0  0
 17 18  1  0  0  0  0
 17 37  1  0  0  0  0
 18 19  1  0  0  0  0
 19 20  1  0  0  0  0
 19 38  1  0  0  0  0
 19 39  1  0  0  0  0
 20 21  1  0  0  0  0
 20 23  1  0  0  0  0
 20 40  1  0  0  0  0
 21 22  1  0  0  0  0
 21 41  1  0  0  0  0
 21 42  1  0  0  0  0
 22 43  1  0  0  0  0
 23 27  1  0  0  0  0
 23 24  1  0  0  0  0
 23 44  1  0  0  0  0
 24 25  1  0  0  0  0
 24 45  1  0  0  0  0
 24 46  1  0  0  0  0
 25 26  1  0  0  0  0
 25 47  1  0  0  0  0
 25 48  1  0  0  0  0
 26 27  1  0  0  0  0
 27 49  1  0  0  0  0
 27 50  1  0  0  0  0
M  END
> <s_m_source_file>
AV-unprocessed.smi

> <i_m_source_file_index>
221

> <i_lp_mmshare_version>
43012

> <i_f3d_flags>
0

> <s_epik_input>
W05IMl1DKD1PKVtDQEBIXTFbQ0gyXVtDQEBIXShGKVtDSDJdTjFjKG5bY0hdbjIpYyhjMjMpbltjSF1uM1tDSDJdW0NASF0oW0NIMl1bT0hdKVtDQEBIXTRbQ0gyXVtDSDJdT1tDSDJdNA==

> <s_epik_cmdline>
J2VwaWtfcHl0aG9uJywgJy1waCcsICc3LjAnLCAnLXRuJywgJzgnLCAnLW1hJywgJzIwMCcsICctbWV0YWxfYmluZGluZycsICctaW1hZScsICc8aW5maWxlLm1hZT4nLCAnLW9tYWUnLCAnPG91dGZpbGUubWFlPic=

> <r_lp_tautomer_probability>
1

> <r_epik_Ionization_Penalty>
0.000818822

> <r_epik_Ionization_Penalty_Charging>
0

> <r_epik_Ionization_Penalty_Neutral>
0.000818822

> <r_epik_State_Penalty>
0.000440551

> <r_epik_Charging_Adjusted_Penalty>
0.000440551

> <i_epik_Tot_Q>
0

> <i_epik_Tot_abs_Q>
0

> <r_epik_Metal_State_Penalty>
-0

> <b_epik_Metal_Only>
0

> <s_lp_Force_Field>
OPLS_2005

> <r_lp_Energy>
49.0425

> <b_lp_Chiralities_Consistent>
1

> <s_lp_Variant>
AV-unprocessed.smi:221-10

> <Gold.Version>
5.8.1

> <Gold.Id.Protein>
6NUR|6NUR_protein|mol2

> <Gold.PLP.Fitness>
46.8669

> <Gold.PLP.PLP>
-39.7913

> <Gold.PLP.part.hbond>
-5.0000

> <Gold.PLP.part.metal>
0.0000

> <Gold.PLP.part.buried>
-6.0706

> <Gold.PLP.part.nonpolar>
-31.0855

> <Gold.PLP.part.repulsive>
0.3239

> <Gold.PLP.ligand.clash>
0.0000

> <Gold.PLP.ligand.torsion>
0.5757

> <Gold.PLP.Chemscore.Hbond>
2.6814

> <Gold.PLP.Chemscore.CHOScore>
0.0000

> <Gold.PLP.Chemscore.Metal>
0.0000

> <Gold.Chemscore.Hbonds>
donor molecule, donor type, donor heavy atom, donor atom, acceptor molecule, acceptor atom, score
      P1  H  6896  6909       L1    11  0.95
      P1  H  6934  6947       L1    16  0.38
      P1  H  7989  7998       L1    22  0.37
      P1  H  8011  8017       L1    22  0.83

> <Gold.PLP.Chemscore.Internal.Correction>
0.1826

> <Gold.Rescore>
     Score         DG    S(hbond)    S(metal)    S(lipo)     H(rot)  DE(clash)    DE(int)     intcor
      9.80     -11.67       1.81        0.00      73.46       3.31       0.29       1.58       ----

> <Gold.Chemscore.Fitness>
9.7965

> <Gold.Chemscore.DG>
-11.6650

> <Gold.Chemscore.ZeroCoef>
-5.4800

> <Gold.Chemscore.Hbond>
1.8147

> <Gold.Chemscore.Metal>
0.0000

> <Gold.Chemscore.Lipo>
73.4611

> <Gold.Chemscore.Internal_Hbond>
0.0000

> <Gold.Chemscore.DEClash>
0.2922

> <Gold.Chemscore.DEInternal>
1.5762

> <Gold.Chemscore.Rot>
3.3089

> <Gold.Chemscore.Internal.Correction>
   9.000000E+99

> <Gold.Chemscore.Hbonds>
donor molecule, donor type, donor heavy atom, donor atom, acceptor molecule, acceptor atom, score
      L1  H    22    43       P1  7957  0.02
      P1  H  6896  6909       L1    11  0.20
      P1  H  6934  6947       L1    16  0.35
      P1  H  7989  7998       L1    22  0.33
      P1  H  8011  8017       L1    22  0.13

> <Gold.Chemscore.Hbond.Weighted>
-6.0609

> <Gold.Chemscore.Metal.Weighted>
-0.0000

> <Gold.Chemscore.Lipo.Weighted>
-8.5950

> <Gold.Chemscore.Internal_Hbond.Weighted>
0.0000

> <Gold.Chemscore.DEClash.Weighted>
0.2922

> <Gold.Chemscore.DEInternal.Weighted>
1.5762

> <Gold.Chemscore.Rot.Weighted>
8.4709

> <Gold.Chemscore.Internal.Correction.Weighted>
   9.000000E+99

> <Gold.Protein.RotatedTorsions>
[ 6907 6896 6895 6894 ] final   28.08 input  -60.11 | X-H torsion
[ 7974 7965 7964 7962 ] final  -90.54 input  175.53 | X-H torsion
[ 8008 7997 7996 7995 ] final  102.02 input   59.86 | X-H torsion
[ 10167 10162 10161 10158 ] final  -54.32 input  -65.29 | X-H torsion
[ 10718 10713 10712 10709 ] final -141.88 input   66.30 | X-H torsion
[ 10763 10752 10751 10750 ] final  132.25 input  -60.55 | X-H torsion
[ 11005 11000 10999 10996 ] final    9.70 input  -57.11 | X-H torsion

> <Gold.Protein.ActiveResidues>
 VAL166  LYS551  ARG553  GLY616  TRP617  ASP618  TYR619  PRO620  LYS621  CYS622 
 ASP623  PHE694  ASN695  SER759  ASP760  ASP761  ALA762  ILE779  LEU786  VAL792 
 PHE793  MET794  SER795  GLU796  ALA797  LYS798  CYS799  TRP800  GLU811  SER814 

> <Gold.Protein.RotatedAtoms>
  152.0118  134.9872  160.0568 H   0  0  0  0  0  0  0  0  0  0  0  0  # atno 6907 bound_to 6896
  152.1422  133.4466  159.4780 H   0  0  0  0  0  0  0  0  0  0  0  0  # atno 6908 bound_to 6896
  150.6866  134.2210  159.4440 H   0  0  0  0  0  0  0  0  0  0  0  0  # atno 6909 bound_to 6896
  145.4250  140.9553  143.2159 H   0  0  0  0  0  0  0  0  0  0  0  0  # atno 7974 bound_to 7965
  156.1354  140.3188  155.8413 H   0  0  0  0  0  0  0  0  0  0  0  0  # atno 8008 bound_to 7997
  155.4254  140.0515  157.3040 H   0  0  0  0  0  0  0  0  0  0  0  0  # atno 8009 bound_to 7997
  154.4933  140.2101  155.9514 H   0  0  0  0  0  0  0  0  0  0  0  0  # atno 8010 bound_to 7997
  140.6437  143.2522  151.4919 H   0  0  0  0  0  0  0  0  0  0  0  0  # atno 10167 bound_to 10162
  156.3393  130.7628  151.1761 H   0  0  0  0  0  0  0  0  0  0  0  0  # atno 10718 bound_to 10713
  153.7876  135.3159  155.3374 H   0  0  0  0  0  0  0  0  0  0  0  0  # atno 10763 bound_to 10752
  154.8138  135.4650  154.0590 H   0  0  0  0  0  0  0  0  0  0  0  0  # atno 10764 bound_to 10752
  153.1898  135.6906  153.8454 H   0  0  0  0  0  0  0  0  0  0  0  0  # atno 10765 bound_to 10752
  140.5228  134.0543  155.7849 H   0  0  0  0  0  0  0  0  0  0  0  0  # atno 11005 bound_to 11000
  144.8220  139.5775  143.6982 LP  0  0  0  0  0  0  0  0  0  0  0  0  # atno 17320 bound_to 7965
  146.2637  139.6469  142.9344 LP  0  0  0  0  0  0  0  0  0  0  0  0  # atno 17321 bound_to 7965
  139.5647  144.2072  152.1746 LP  0  0  0  0  0  0  0  0  0  0  0  0  # atno 17342 bound_to 10162
  140.1350  144.5254  150.6779 LP  0  0  0  0  0  0  0  0  0  0  0  0  # atno 17343 bound_to 10162
  157.7444  131.0459  150.4867 LP  0  0  0  0  0  0  0  0  0  0  0  0  # atno 17370 bound_to 10713
  156.5045  130.4125  149.6335 LP  0  0  0  0  0  0  0  0  0  0  0  0  # atno 17371 bound_to 10713
  141.1325  133.9278  157.2505 LP  0  0  0  0  0  0  0  0  0  0  0  0  # atno 17394 bound_to 11000
  139.9597  135.0157  156.9226 LP  0  0  0  0  0  0  0  0  0  0  0  0  # atno 17395 bound_to 11000

$$$$
