AV-unprocessed.smi:2122|AV-procd|sdf|8646|dock5
  -GOLD-   2272011393D 1   1.00000     0.00000
 Structure written by MMmdl.
 41 41  0  0  0  0  0  0  0  0  1 V2000
  151.9338  145.2496  159.5940 C   0  0  0  0  0  0  0  0  0  0  0  0
  151.7290  144.3019  158.4072 C   0  0  0  0  0  0  0  0  0  0  0  0
  151.4309  142.8626  158.8476 C   0  0  0  0  0  0  0  0  0  0  0  0
  151.2285  141.9154  157.6527 C   0  0  0  0  0  0  0  0  0  0  0  0
  151.0263  140.5394  158.0599 N   0  0  0  0  0  0  0  0  0  0  0  0
  149.8023  139.8717  157.9606 C   0  0  0  0  0  0  0  0  0  0  0  0
  148.7187  140.5572  157.4333 N   0  0  0  0  0  0  0  0  0  0  0  0
  149.6566  138.5700  158.3421 C   0  0  0  0  0  0  0  0  0  0  0  0
  148.4426  137.8903  158.2556 N   0  0  0  0  0  0  0  0  0  0  0  0
  147.2615  138.5688  157.7412 C   0  0  0  0  0  0  0  0  0  0  0  0
  148.1760  136.6131  158.9174 C   0  0  0  0  0  0  0  0  0  0  0  0
  147.0148  136.6681  159.9243 C   0  0  0  0  0  0  0  0  0  0  0  0
  147.4849  137.2393  161.1333 O   0  0  0  0  0  0  0  0  0  0  0  0
  147.0458  136.5260  162.2760 C   0  0  0  0  0  0  0  0  0  0  0  0
  150.7984  137.8231  158.8857 C   0  0  0  0  0  0  0  0  0  0  0  0
  150.7729  136.6582  159.2815 O   0  0  0  0  0  0  0  0  0  0  0  0
  151.9948  138.5342  158.9367 N   0  0  0  0  0  0  0  0  0  0  0  0
  152.1690  139.8548  158.5382 C   0  0  0  0  0  0  0  0  0  0  0  0
  153.2866  140.3667  158.6137 O   0  0  0  0  0  0  0  0  0  0  0  0
  152.8058  138.0475  159.2900 H   0  0  0  0  0  0  0  0  0  0  0  0
  152.1465  146.2622  159.2509 H   0  0  0  0  0  0  0  0  0  0  0  0
  152.7685  144.9263  160.2160 H   0  0  0  0  0  0  0  0  0  0  0  0
  151.0437  145.2912  160.2225 H   0  0  0  0  0  0  0  0  0  0  0  0
  150.9104  144.6723  157.7889 H   0  0  0  0  0  0  0  0  0  0  0  0
  152.6203  144.3144  157.7791 H   0  0  0  0  0  0  0  0  0  0  0  0
  152.2503  142.4960  159.4674 H   0  0  0  0  0  0  0  0  0  0  0  0
  150.5410  142.8559  159.4781 H   0  0  0  0  0  0  0  0  0  0  0  0
  150.3813  142.2115  157.0314 H   0  0  0  0  0  0  0  0  0  0  0  0
  152.0876  141.9283  156.9828 H   0  0  0  0  0  0  0  0  0  0  0  0
  148.8001  141.5156  157.1252 H   0  0  0  0  0  0  0  0  0  0  0  0
  147.8098  140.1284  157.3356 H   0  0  0  0  0  0  0  0  0  0  0  0
  147.5112  139.5511  157.3377 H   0  0  0  0  0  0  0  0  0  0  0  0
  146.5254  138.7080  158.5337 H   0  0  0  0  0  0  0  0  0  0  0  0
  146.8033  137.9850  156.9425 H   0  0  0  0  0  0  0  0  0  0  0  0
  147.9701  135.8585  158.1573 H   0  0  0  0  0  0  0  0  0  0  0  0
  149.0781  136.2891  159.4386 H   0  0  0  0  0  0  0  0  0  0  0  0
  146.1994  137.2714  159.5214 H   0  0  0  0  0  0  0  0  0  0  0  0
  146.6235  135.6688  160.1207 H   0  0  0  0  0  0  0  0  0  0  0  0
  147.4338  137.0018  163.1766 H   0  0  0  0  0  0  0  0  0  0  0  0
  147.4031  135.4955  162.2598 H   0  0  0  0  0  0  0  0  0  0  0  0
  145.9570  136.5188  162.3417 H   0  0  0  0  0  0  0  0  0  0  0  0
  1  2  1  0  0  0  0
  1 21  1  0  0  0  0
  1 22  1  0  0  0  0
  1 23  1  0  0  0  0
  2  3  1  0  0  0  0
  2 24  1  0  0  0  0
  2 25  1  0  0  0  0
  3  4  1  0  0  0  0
  3 26  1  0  0  0  0
  3 27  1  0  0  0  0
  4  5  1  0  0  0  0
  4 28  1  0  0  0  0
  4 29  1  0  0  0  0
  5 18  1  0  0  0  0
  5  6  1  0  0  0  0
  6  7  1  0  0  0  0
  6  8  2  0  0  0  0
  7 30  1  0  0  0  0
  7 31  1  0  0  0  0
  8  9  1  0  0  0  0
  8 15  1  0  0  0  0
  9 10  1  0  0  0  0
  9 11  1  0  0  0  0
 10 32  1  0  0  0  0
 10 33  1  0  0  0  0
 10 34  1  0  0  0  0
 11 12  1  0  0  0  0
 11 35  1  0  0  0  0
 11 36  1  0  0  0  0
 12 13  1  0  0  0  0
 12 37  1  0  0  0  0
 12 38  1  0  0  0  0
 13 14  1  0  0  0  0
 14 39  1  0  0  0  0
 14 40  1  0  0  0  0
 14 41  1  0  0  0  0
 15 16  2  0  0  0  0
 15 17  1  0  0  0  0
 17 20  1  0  0  0  0
 17 18  1  0  0  0  0
 18 19  2  0  0  0  0
M  END
> <s_m_source_file>
AV-unprocessed.smi

> <i_m_source_file_index>
2122

> <i_lp_mmshare_version>
43012

> <i_f3d_flags>
0

> <s_epik_input>
W0NIM11bQ0gyXVtDSDJdW0NIMl1uMWMoW05IMl0pYyhjKD1PKVtuSF1jMT1PKU4oW0NIM10pW0NIMl1bQ0gyXU9bQ0gzXQ==

> <s_epik_cmdline>
J2VwaWtfcHl0aG9uJywgJy1waCcsICc3LjAnLCAnLXRuJywgJzgnLCAnLW1hJywgJzIwMCcsICctbWV0YWxfYmluZGluZycsICctaW1hZScsICc8aW5maWxlLm1hZT4nLCAnLW9tYWUnLCAnPG91dGZpbGUubWFlPic=

> <r_lp_tautomer_probability>
1

> <r_epik_Ionization_Penalty>
2.26322e-05

> <r_epik_Ionization_Penalty_Charging>
2.75876e-06

> <r_epik_Ionization_Penalty_Neutral>
1.98734e-05

> <r_epik_State_Penalty>
-0

> <r_epik_Charging_Adjusted_Penalty>
2.75876e-06

> <i_epik_Tot_Q>
0

> <i_epik_Tot_abs_Q>
0

> <r_epik_Metal_State_Penalty>
-0

> <b_epik_Metal_Only>
0

> <s_epik_Chemistry_Notes>
This compound has an imine and may undergo hydrolysis.

> <s_lp_Force_Field>
OPLS_2005

> <r_lp_Energy>
20.5532

> <b_lp_Chiralities_Consistent>
1

> <s_lp_Variant>
AV-unprocessed.smi:2122-1

> <Gold.Version>
5.8.1

> <Gold.Id.Protein>
6NUR|6NUR_protein|mol2

> <Gold.PLP.Fitness>
42.5580

> <Gold.PLP.PLP>
-32.8481

> <Gold.PLP.part.hbond>
-4.0000

> <Gold.PLP.part.metal>
0.0000

> <Gold.PLP.part.buried>
-3.6924

> <Gold.PLP.part.nonpolar>
-24.8825

> <Gold.PLP.part.repulsive>
0.2055

> <Gold.PLP.ligand.clash>
20.2349

> <Gold.PLP.ligand.torsion>
0.6572

> <Gold.PLP.Chemscore.Hbond>
3.6080

> <Gold.PLP.Chemscore.CHOScore>
0.0000

> <Gold.PLP.Chemscore.Metal>
0.0000

> <Gold.Chemscore.Hbonds>
donor molecule, donor type, donor heavy atom, donor atom, acceptor molecule, acceptor atom, score
      P1  H  6896  6908       L1    16  1.00
      P1  H  6931  6943       L1    13  0.86
      P1  H  6934  6947       L1    13  0.98
      P1  H  7997  8010       L1    19  0.79

> <Gold.PLP.Chemscore.Internal.Correction>
20.4353

> <Gold.Rescore>
     Score         DG    S(hbond)    S(metal)    S(lipo)     H(rot)  DE(clash)    DE(int)     intcor
     13.10     -17.31       3.00        0.00      62.78       2.16       0.05       4.16       ----

> <Gold.Chemscore.Fitness>
13.1050

> <Gold.Chemscore.DG>
-17.3117

> <Gold.Chemscore.ZeroCoef>
-5.4800

> <Gold.Chemscore.Hbond>
2.9973

> <Gold.Chemscore.Metal>
0.0000

> <Gold.Chemscore.Lipo>
62.7773

> <Gold.Chemscore.Internal_Hbond>
0.0000

> <Gold.Chemscore.DEClash>
0.0458

> <Gold.Chemscore.DEInternal>
4.1609

> <Gold.Chemscore.Rot>
2.1579

> <Gold.Chemscore.Internal.Correction>
   9.000000E+99

> <Gold.Chemscore.Hbonds>
donor molecule, donor type, donor heavy atom, donor atom, acceptor molecule, acceptor atom, score
      P1  H  6896  6908       L1    16  1.00
      P1  H  6931  6943       L1    13  0.24
      P1  H  6934  6947       L1    13  0.46
      P1  H  7997  8010       L1    19  0.73

> <Gold.Chemscore.Hbond.Weighted>
-10.0109

> <Gold.Chemscore.Metal.Weighted>
-0.0000

> <Gold.Chemscore.Lipo.Weighted>
-7.3449

> <Gold.Chemscore.Internal_Hbond.Weighted>
0.0000

> <Gold.Chemscore.DEClash.Weighted>
0.0458

> <Gold.Chemscore.DEInternal.Weighted>
4.1609

> <Gold.Chemscore.Rot.Weighted>
5.5241

> <Gold.Chemscore.Internal.Correction.Weighted>
   9.000000E+99

> <Gold.Protein.RotatedTorsions>
[ 6907 6896 6895 6894 ] final -145.16 input  -60.11 | X-H torsion
[ 7974 7965 7964 7962 ] final   20.38 input  175.53 | X-H torsion
[ 8008 7997 7996 7995 ] final   26.03 input   59.86 | X-H torsion
[ 10167 10162 10161 10158 ] final  173.26 input  -65.29 | X-H torsion
[ 10718 10713 10712 10709 ] final   14.68 input   66.30 | X-H torsion
[ 10763 10752 10751 10750 ] final -148.80 input  -60.55 | X-H torsion
[ 11005 11000 10999 10996 ] final  117.43 input  -57.11 | X-H torsion

> <Gold.Protein.ActiveResidues>
 VAL166  LYS551  ARG553  GLY616  TRP617  ASP618  TYR619  PRO620  LYS621  CYS622 
 ASP623  PHE694  ASN695  SER759  ASP760  ASP761  ALA762  ILE779  LEU786  VAL792 
 PHE793  MET794  SER795  GLU796  ALA797  LYS798  CYS799  TRP800  GLU811  SER814 

> <Gold.Protein.RotatedAtoms>
  151.1240  133.5084  159.2600 H   0  0  0  0  0  0  0  0  0  0  0  0  # atno 6907 bound_to 6896
  151.1831  135.0369  159.8810 H   0  0  0  0  0  0  0  0  0  0  0  0  # atno 6908 bound_to 6896
  152.5457  134.1089  159.8403 H   0  0  0  0  0  0  0  0  0  0  0  0  # atno 6909 bound_to 6896
  146.2113  139.8178  142.8686 H   0  0  0  0  0  0  0  0  0  0  0  0  # atno 7974 bound_to 7965
  155.0209  140.3147  155.4794 H   0  0  0  0  0  0  0  0  0  0  0  0  # atno 8008 bound_to 7997
  156.2892  140.2197  156.5269 H   0  0  0  0  0  0  0  0  0  0  0  0  # atno 8009 bound_to 7997
  154.7452  140.0470  157.0834 H   0  0  0  0  0  0  0  0  0  0  0  0  # atno 8010 bound_to 7997
  139.5102  144.3281  152.0138 H   0  0  0  0  0  0  0  0  0  0  0  0  # atno 10167 bound_to 10162
  157.0425  130.6237  149.5753 H   0  0  0  0  0  0  0  0  0  0  0  0  # atno 10718 bound_to 10713
  154.8213  135.3325  154.7030 H   0  0  0  0  0  0  0  0  0  0  0  0  # atno 10763 bound_to 10752
  153.7663  135.6929  153.4920 H   0  0  0  0  0  0  0  0  0  0  0  0  # atno 10764 bound_to 10752
  153.2076  135.4494  155.0290 H   0  0  0  0  0  0  0  0  0  0  0  0  # atno 10765 bound_to 10752
  139.9074  134.9610  156.7350 H   0  0  0  0  0  0  0  0  0  0  0  0  # atno 11005 bound_to 11000
  145.3128  141.0224  143.3544 LP  0  0  0  0  0  0  0  0  0  0  0  0  # atno 17320 bound_to 7965
  144.8923  139.4758  143.6672 LP  0  0  0  0  0  0  0  0  0  0  0  0  # atno 17321 bound_to 7965
  140.2721  144.3952  150.6147 LP  0  0  0  0  0  0  0  0  0  0  0  0  # atno 17342 bound_to 10162
  140.6080  143.2168  151.6942 LP  0  0  0  0  0  0  0  0  0  0  0  0  # atno 17343 bound_to 10162
  156.0033  130.5116  150.7742 LP  0  0  0  0  0  0  0  0  0  0  0  0  # atno 17370 bound_to 10713
  157.5093  131.0924  151.0218 LP  0  0  0  0  0  0  0  0  0  0  0  0  # atno 17371 bound_to 10713
  140.6895  133.9403  155.7957 LP  0  0  0  0  0  0  0  0  0  0  0  0  # atno 17394 bound_to 11000
  141.0452  134.0564  157.3853 LP  0  0  0  0  0  0  0  0  0  0  0  0  # atno 17395 bound_to 11000

$$$$
