AV-unprocessed.smi:3052|AV-procd|sdf|11636|dock1
  -GOLD-   2272017 23D 1   1.00000     0.00000
 Structure written by MMmdl.
 41 43  0  0  0  0  0  0  0  0  1 V2000
  152.8633  138.6015  154.7906 C   0  0  0  0  0  0  0  0  0  0  0  0
  151.4884  139.2095  154.7729 C   0  0  0  0  0  0  0  0  0  0  0  0
  151.3556  140.5089  154.9947 N   0  0  0  0  0  0  0  0  0  0  0  0
  149.9912  140.8045  154.8515 O   0  0  0  0  0  0  0  0  0  0  0  0
  149.3206  139.6617  154.5506 C   0  0  0  0  0  0  0  0  0  0  0  0
  147.8467  139.7840  154.3407 C   0  0  0  0  0  0  0  0  0  0  0  0
  147.2897  140.6504  153.2391 C   0  0  0  0  0  0  0  0  0  0  0  0
  147.0911  141.0453  154.6862 C   0  0  0  0  0  0  0  0  0  0  0  0
  150.2129  138.6303  154.5089 C   0  0  0  0  0  0  0  0  0  0  0  0
  149.8859  137.2909  154.1829 N   0  0  0  0  0  0  0  0  0  0  0  0
  149.9737  136.2244  154.9915 C   0  0  0  0  0  0  0  0  0  0  0  0
  150.3870  136.2578  156.1497 O   0  0  0  0  0  0  0  0  0  0  0  0
  149.5276  135.1167  154.3765 N   0  0  0  0  0  0  0  0  0  0  0  0
  149.4456  133.7482  154.9018 C   0  0  2  0  0  0  0  0  0  0  0  0
  148.2652  133.7877  155.9032 C   0  0  0  0  0  0  0  0  0  0  0  0
  150.7542  133.4352  155.6774 C   0  0  0  0  0  0  0  0  0  0  0  0
  150.7496  132.1345  156.2317 O   0  0  0  0  0  0  0  0  0  0  0  0
  149.2445  132.7099  153.7839 C   0  0  0  0  0  0  0  0  0  0  0  0
  147.9218  132.4623  153.0973 C   0  0  0  0  0  0  0  0  0  0  0  0
  148.5382  131.3857  153.9695 C   0  0  0  0  0  0  0  0  0  0  0  0
  152.9388  137.7741  154.0851 H   0  0  0  0  0  0  0  0  0  0  0  0
  153.1100  138.2217  155.7820 H   0  0  0  0  0  0  0  0  0  0  0  0
  153.6264  139.3309  154.5170 H   0  0  0  0  0  0  0  0  0  0  0  0
  147.3464  138.8366  154.5310 H   0  0  0  0  0  0  0  0  0  0  0  0
  147.9935  141.2373  152.6522 H   0  0  0  0  0  0  0  0  0  0  0  0
  146.4249  140.2768  152.6948 H   0  0  0  0  0  0  0  0  0  0  0  0
  146.0933  140.9337  155.1052 H   0  0  0  0  0  0  0  0  0  0  0  0
  147.6533  141.9053  155.0443 H   0  0  0  0  0  0  0  0  0  0  0  0
  149.4230  137.1509  153.2970 H   0  0  0  0  0  0  0  0  0  0  0  0
  149.2079  135.2293  153.4257 H   0  0  0  0  0  0  0  0  0  0  0  0
  148.0988  132.8309  156.3968 H   0  0  0  0  0  0  0  0  0  0  0  0
  147.3306  134.0781  155.4236 H   0  0  0  0  0  0  0  0  0  0  0  0
  148.4507  134.5156  156.6943 H   0  0  0  0  0  0  0  0  0  0  0  0
  151.6274  133.5173  155.0297 H   0  0  0  0  0  0  0  0  0  0  0  0
  150.8984  134.1480  156.4905 H   0  0  0  0  0  0  0  0  0  0  0  0
  150.8432  131.5084  155.5302 H   0  0  0  0  0  0  0  0  0  0  0  0
  150.1085  132.6453  153.1257 H   0  0  0  0  0  0  0  0  0  0  0  0
  147.0324  132.9621  153.4729 H   0  0  0  0  0  0  0  0  0  0  0  0
  147.9430  132.3087  152.0204 H   0  0  0  0  0  0  0  0  0  0  0  0
  148.9658  130.5201  153.4679 H   0  0  0  0  0  0  0  0  0  0  0  0
  148.0496  131.1711  154.9163 H   0  0  0  0  0  0  0  0  0  0  0  0
  1  2  1  0  0  0  0
  1 21  1  0  0  0  0
  1 22  1  0  0  0  0
  1 23  1  0  0  0  0
  2  9  1  0  0  0  0
  2  3  2  0  0  0  0
  3  4  1  0  0  0  0
  4  5  1  0  0  0  0
  5  6  1  0  0  0  0
  5  9  2  0  0  0  0
  6  8  1  0  0  0  0
  6  7  1  0  0  0  0
  6 24  1  0  0  0  0
  7  8  1  0  0  0  0
  7 25  1  0  0  0  0
  7 26  1  0  0  0  0
  8 27  1  0  0  0  0
  8 28  1  0  0  0  0
  9 10  1  0  0  0  0
 10 11  1  0  0  0  0
 10 29  1  0  0  0  0
 11 12  2  0  0  0  0
 11 13  1  0  0  0  0
 13 14  1  0  0  0  0
 13 30  1  0  0  0  0
 14 15  1  0  0  0  0
 14 16  1  0  0  0  0
 14 18  1  0  0  0  0
 15 31  1  0  0  0  0
 15 32  1  0  0  0  0
 15 33  1  0  0  0  0
 16 17  1  0  0  0  0
 16 34  1  0  0  0  0
 16 35  1  0  0  0  0
 17 36  1  0  0  0  0
 18 20  1  0  0  0  0
 18 19  1  0  0  0  0
 18 37  1  0  0  0  0
 19 20  1  0  0  0  0
 19 38  1  0  0  0  0
 19 39  1  0  0  0  0
 20 40  1  0  0  0  0
 20 41  1  0  0  0  0
M  END
> <s_m_source_file>
AV-unprocessed.smi

> <i_m_source_file_index>
3052

> <i_lp_mmshare_version>
43012

> <i_f3d_flags>
0

> <s_epik_input>
W0NIM11jMW5vYyhbQ0hdMltDSDJdW0NIMl0yKWMxW05IXUMoPU8pW05IXVtDQEBdKFtDSDNdKShbQ0gyXVtPSF0pW0NIXTNbQ0gyXVtDSDJdMw==

> <s_epik_cmdline>
J2VwaWtfcHl0aG9uJywgJy1waCcsICc3LjAnLCAnLXRuJywgJzgnLCAnLW1hJywgJzIwMCcsICctbWV0YWxfYmluZGluZycsICctaW1hZScsICc8aW5maWxlLm1hZT4nLCAnLW9tYWUnLCAnPG91dGZpbGUubWFlPic=

> <r_lp_tautomer_probability>
1

> <r_epik_Ionization_Penalty>
3.5887e-05

> <r_epik_Ionization_Penalty_Charging>
0

> <r_epik_Ionization_Penalty_Neutral>
3.5887e-05

> <r_epik_State_Penalty>
-0

> <r_epik_Charging_Adjusted_Penalty>
0

> <i_epik_Tot_Q>
0

> <i_epik_Tot_abs_Q>
0

> <r_epik_Metal_State_Penalty>
-0

> <b_epik_Metal_Only>
0

> <s_lp_Force_Field>
OPLS_2005

> <r_lp_Energy>
28.1978

> <b_lp_Chiralities_Consistent>
1

> <s_lp_Variant>
AV-unprocessed.smi:3052-2

> <Gold.Version>
5.8.1

> <Gold.Id.Protein>
6NUR|6NUR_protein|mol2

> <Gold.PLP.Fitness>
40.3829

> <Gold.PLP.PLP>
-34.6704

> <Gold.PLP.part.hbond>
-4.0559

> <Gold.PLP.part.metal>
0.0000

> <Gold.PLP.part.buried>
-2.3129

> <Gold.PLP.part.nonpolar>
-28.2754

> <Gold.PLP.part.repulsive>
0.2562

> <Gold.PLP.ligand.clash>
0.0000

> <Gold.PLP.ligand.torsion>
1.7576

> <Gold.PLP.Chemscore.Hbond>
2.3965

> <Gold.PLP.Chemscore.CHOScore>
0.0000

> <Gold.PLP.Chemscore.Metal>
0.0000

> <Gold.Chemscore.Hbonds>
donor molecule, donor type, donor heavy atom, donor atom, acceptor molecule, acceptor atom, score
      L1  H    10    29       P1  7948  1.00
      L1  H    13    30       P1  7948  1.00
      P1  H  7989  7998       L1     3  0.37

> <Gold.PLP.Chemscore.Internal.Correction>
2.0383

> <Gold.Rescore>
     Score         DG    S(hbond)    S(metal)    S(lipo)     H(rot)  DE(clash)    DE(int)     intcor
     11.61     -14.11       1.65        0.00      73.96       2.16       0.06       2.44       ----

> <Gold.Chemscore.Fitness>
11.6114

> <Gold.Chemscore.DG>
-14.1110

> <Gold.Chemscore.ZeroCoef>
-5.4800

> <Gold.Chemscore.Hbond>
1.6464

> <Gold.Chemscore.Metal>
0.0000

> <Gold.Chemscore.Lipo>
73.9639

> <Gold.Chemscore.Internal_Hbond>
0.0000

> <Gold.Chemscore.DEClash>
0.0582

> <Gold.Chemscore.DEInternal>
2.4414

> <Gold.Chemscore.Rot>
2.1569

> <Gold.Chemscore.Internal.Correction>
   9.000000E+99

> <Gold.Chemscore.Hbonds>
donor molecule, donor type, donor heavy atom, donor atom, acceptor molecule, acceptor atom, score
      L1  H    10    29       P1  7948  0.90
      L1  H    13    30       P1  7948  0.25

> <Gold.Chemscore.Hbond.Weighted>
-5.4990

> <Gold.Chemscore.Metal.Weighted>
-0.0000

> <Gold.Chemscore.Lipo.Weighted>
-8.6538

> <Gold.Chemscore.Internal_Hbond.Weighted>
0.0000

> <Gold.Chemscore.DEClash.Weighted>
0.0582

> <Gold.Chemscore.DEInternal.Weighted>
2.4414

> <Gold.Chemscore.Rot.Weighted>
5.5218

> <Gold.Chemscore.Internal.Correction.Weighted>
   9.000000E+99

> <Gold.Protein.RotatedTorsions>
[ 6907 6896 6895 6894 ] final  -29.01 input  -60.11 | X-H torsion
[ 7974 7965 7964 7962 ] final   26.26 input  175.53 | X-H torsion
[ 8008 7997 7996 7995 ] final -123.62 input   59.86 | X-H torsion
[ 10167 10162 10161 10158 ] final -124.60 input  -65.29 | X-H torsion
[ 10718 10713 10712 10709 ] final  148.96 input   66.30 | X-H torsion
[ 10763 10752 10751 10750 ] final  108.75 input  -60.55 | X-H torsion
[ 11005 11000 10999 10996 ] final   44.07 input  -57.11 | X-H torsion

> <Gold.Protein.ActiveResidues>
 VAL166  LYS551  ARG553  GLY616  TRP617  ASP618  TYR619  PRO620  LYS621  CYS622 
 ASP623  PHE694  ASN695  SER759  ASP760  ASP761  ALA762  ILE779  LEU786  VAL792 
 PHE793  MET794  SER795  GLU796  ALA797  LYS798  CYS799  TRP800  GLU811  SER814 

> <Gold.Protein.RotatedAtoms>
  151.1250  135.0100  159.8555 H   0  0  0  0  0  0  0  0  0  0  0  0  # atno 6907 bound_to 6896
  152.5449  134.1677  159.8594 H   0  0  0  0  0  0  0  0  0  0  0  0  # atno 6908 bound_to 6896
  151.1739  133.4722  159.2627 H   0  0  0  0  0  0  0  0  0  0  0  0  # atno 6909 bound_to 6896
  146.1847  139.7353  142.8875 H   0  0  0  0  0  0  0  0  0  0  0  0  # atno 7974 bound_to 7965
  155.1836  140.0411  157.2887 H   0  0  0  0  0  0  0  0  0  0  0  0  # atno 8008 bound_to 7997
  154.6187  140.2495  155.7549 H   0  0  0  0  0  0  0  0  0  0  0  0  # atno 8009 bound_to 7997
  156.2421  140.2899  156.0484 H   0  0  0  0  0  0  0  0  0  0  0  0  # atno 8010 bound_to 7997
  139.9910  143.5640  152.2342 H   0  0  0  0  0  0  0  0  0  0  0  0  # atno 10167 bound_to 10162
  157.3021  131.0872  151.1382 H   0  0  0  0  0  0  0  0  0  0  0  0  # atno 10718 bound_to 10713
  153.4250  135.3802  155.2135 H   0  0  0  0  0  0  0  0  0  0  0  0  # atno 10763 bound_to 10752
  154.8747  135.3826  154.4337 H   0  0  0  0  0  0  0  0  0  0  0  0  # atno 10764 bound_to 10752
  153.4862  135.7088  153.5973 H   0  0  0  0  0  0  0  0  0  0  0  0  # atno 10765 bound_to 10752
  140.1586  134.4370  155.8333 H   0  0  0  0  0  0  0  0  0  0  0  0  # atno 11005 bound_to 11000
  145.3974  141.0380  143.3089 LP  0  0  0  0  0  0  0  0  0  0  0  0  # atno 17320 bound_to 7965
  144.8376  139.5525  143.6915 LP  0  0  0  0  0  0  0  0  0  0  0  0  # atno 17321 bound_to 7965
  139.6340  144.7648  151.2477 LP  0  0  0  0  0  0  0  0  0  0  0  0  # atno 17342 bound_to 10162
  140.7454  143.6431  150.8317 LP  0  0  0  0  0  0  0  0  0  0  0  0  # atno 17343 bound_to 10162
  157.2737  130.6716  149.6032 LP  0  0  0  0  0  0  0  0  0  0  0  0  # atno 17370 bound_to 10713
  155.9672  130.4471  150.5568 LP  0  0  0  0  0  0  0  0  0  0  0  0  # atno 17371 bound_to 10713
  141.2207  133.6903  156.7552 LP  0  0  0  0  0  0  0  0  0  0  0  0  # atno 17394 bound_to 11000
  140.2517  134.8535  157.3674 LP  0  0  0  0  0  0  0  0  0  0  0  0  # atno 17395 bound_to 11000

$$$$
