AV-unprocessed.smi:1206|AV-procd|sdf|5047|dock10
  -GOLD-   22720 4 73D 1   1.00000     0.00000
 Structure written by MMmdl.
 41 42  0  0  0  0  0  0  0  0  2 V2000
  150.0338  134.6962  154.6420 C   0  0  0  0  0  0  0  0  0  0  0  0
  149.4974  136.0676  154.8373 N   0  3  0  0  0  0  0  0  0  0  0  0
  148.1725  136.0051  155.5092 C   0  0  0  0  0  0  0  0  0  0  0  0
  150.4557  137.0993  155.3885 C   0  0  0  0  0  0  0  0  0  0  0  0
  151.0203  136.5671  156.7462 C   0  0  0  0  0  0  0  0  0  0  0  0
  150.2519  137.0044  157.9124 N   0  0  0  0  0  0  0  0  0  0  0  0
  149.6469  136.2056  158.8028 C   0  0  0  0  0  0  0  0  0  0  0  0
  149.6520  134.9780  158.7237 O   0  0  0  0  0  0  0  0  0  0  0  0
  149.0376  136.9203  159.7620 N   0  0  0  0  0  0  0  0  0  0  0  0
  148.2864  136.4382  160.8631 C   0  0  0  0  0  0  0  0  0  0  0  0
  147.6316  137.3307  161.6148 N   0  0  0  0  0  0  0  0  0  0  0  0
  146.9387  136.7255  162.6560 N   0  0  0  0  0  0  0  0  0  0  0  0
  147.0992  135.3987  162.6493 C   0  0  0  0  0  0  0  0  0  0  0  0
  148.1111  134.7550  161.3682 S   0  0  0  0  0  0  0  0  0  0  0  0
  151.6265  137.3549  154.3907 C   0  0  0  0  0  0  0  0  0  0  0  0
  152.5680  138.5035  154.8046 C   0  0  0  0  0  0  0  0  0  0  0  0
  151.8028  139.8082  155.0621 C   0  0  0  0  0  0  0  0  0  0  0  0
  150.6768  139.6000  156.0830 C   0  0  0  0  0  0  0  0  0  0  0  0
  149.7361  138.4682  155.6329 C   0  0  0  0  0  0  0  0  0  0  0  0
  150.4393  134.2909  155.5695 H   0  0  0  0  0  0  0  0  0  0  0  0
  150.8076  134.6719  153.8750 H   0  0  0  0  0  0  0  0  0  0  0  0
  149.2498  134.0202  154.2989 H   0  0  0  0  0  0  0  0  0  0  0  0
  148.2430  135.5238  156.4852 H   0  0  0  0  0  0  0  0  0  0  0  0
  147.4758  135.4216  154.9065 H   0  0  0  0  0  0  0  0  0  0  0  0
  147.7213  136.9861  155.6449 H   0  0  0  0  0  0  0  0  0  0  0  0
  151.1098  135.4809  156.7427 H   0  0  0  0  0  0  0  0  0  0  0  0
  152.0389  136.9118  156.9106 H   0  0  0  0  0  0  0  0  0  0  0  0
  150.1952  138.0016  158.0624 H   0  0  0  0  0  0  0  0  0  0  0  0
  149.1152  137.9249  159.6989 H   0  0  0  0  0  0  0  0  0  0  0  0
  146.6176  134.7947  163.4042 H   0  0  0  0  0  0  0  0  0  0  0  0
  152.2315  136.4567  154.2655 H   0  0  0  0  0  0  0  0  0  0  0  0
  151.2216  137.5855  153.4046 H   0  0  0  0  0  0  0  0  0  0  0  0
  153.1336  138.2274  155.6943 H   0  0  0  0  0  0  0  0  0  0  0  0
  153.3094  138.6659  154.0216 H   0  0  0  0  0  0  0  0  0  0  0  0
  152.4879  140.5804  155.4132 H   0  0  0  0  0  0  0  0  0  0  0  0
  151.3817  140.1728  154.1242 H   0  0  0  0  0  0  0  0  0  0  0  0
  151.0922  139.3941  157.0692 H   0  0  0  0  0  0  0  0  0  0  0  0
  150.1084  140.5246  156.1881 H   0  0  0  0  0  0  0  0  0  0  0  0
  149.2752  138.8287  154.7137 H   0  0  0  0  0  0  0  0  0  0  0  0
  148.9233  138.3588  156.3516 H   0  0  0  0  0  0  0  0  0  0  0  0
  149.2956  136.3923  153.9023 H   0  0  0  0  0  0  0  0  0  0  0  0
  1  2  1  0  0  0  0
  1 20  1  0  0  0  0
  1 21  1  0  0  0  0
  1 22  1  0  0  0  0
  2  3  1  0  0  0  0
  2  4  1  0  0  0  0
  2 41  1  0  0  0  0
  3 23  1  0  0  0  0
  3 24  1  0  0  0  0
  3 25  1  0  0  0  0
  4 19  1  0  0  0  0
  4  5  1  0  0  0  0
  4 15  1  0  0  0  0
  5  6  1  0  0  0  0
  5 26  1  0  0  0  0
  5 27  1  0  0  0  0
  6  7  1  0  0  0  0
  6 28  1  0  0  0  0
  7  8  2  0  0  0  0
  7  9  1  0  0  0  0
  9 10  1  0  0  0  0
  9 29  1  0  0  0  0
 10 14  1  0  0  0  0
 10 11  2  0  0  0  0
 11 12  1  0  0  0  0
 12 13  2  0  0  0  0
 13 14  1  0  0  0  0
 13 30  1  0  0  0  0
 15 16  1  0  0  0  0
 15 31  1  0  0  0  0
 15 32  1  0  0  0  0
 16 17  1  0  0  0  0
 16 33  1  0  0  0  0
 16 34  1  0  0  0  0
 17 18  1  0  0  0  0
 17 35  1  0  0  0  0
 17 36  1  0  0  0  0
 18 19  1  0  0  0  0
 18 37  1  0  0  0  0
 18 38  1  0  0  0  0
 19 39  1  0  0  0  0
 19 40  1  0  0  0  0
M  CHG  1   2   1
M  END
> <s_m_source_file>
AV-unprocessed.smi

> <i_m_source_file_index>
1206

> <i_lp_mmshare_version>
43012

> <i_f3d_flags>
0

> <s_epik_input>
W0NIMl0xW0NIMl1bQ0gyXVtDSDJdW0NIMl1DMShOKFtDSDNdKVtDSDNdKVtDSDJdW05IXUMoPU8pW05IXWMybm5bY0hdczI=

> <s_epik_cmdline>
J2VwaWtfcHl0aG9uJywgJy1waCcsICc3LjAnLCAnLXRuJywgJzgnLCAnLW1hJywgJzIwMCcsICctbWV0YWxfYmluZGluZycsICctaW1hZScsICc8aW5maWxlLm1hZT4nLCAnLW9tYWUnLCAnPG91dGZpbGUubWFlPic=

> <r_lp_tautomer_probability>
1

> <r_epik_Ionization_Penalty>
0.00322257

> <r_epik_Ionization_Penalty_Charging>
0.00246239

> <r_epik_Ionization_Penalty_Neutral>
0.000760187

> <r_epik_State_Penalty>
-0

> <r_epik_Charging_Adjusted_Penalty>
0.00246239

> <i_epik_Tot_Q>
1

> <i_epik_Tot_abs_Q>
1

> <r_epik_Metal_State_Penalty>
0.262153

> <b_epik_Metal_Only>
0

> <s_lp_Force_Field>
OPLS_2005

> <r_lp_Energy>
30.8997

> <b_lp_Chiralities_Consistent>
1

> <s_lp_Variant>
AV-unprocessed.smi:1206-1

> <Gold.Version>
5.8.1

> <Gold.Id.Protein>
6NUR|6NUR_protein|mol2

> <Gold.PLP.Fitness>
38.5412

> <Gold.PLP.PLP>
-26.3040

> <Gold.PLP.part.hbond>
-4.0000

> <Gold.PLP.part.metal>
0.0000

> <Gold.PLP.part.buried>
1.4421

> <Gold.PLP.part.nonpolar>
-23.6044

> <Gold.PLP.part.repulsive>
0.3069

> <Gold.PLP.ligand.clash>
0.0000

> <Gold.PLP.ligand.torsion>
0.8350

> <Gold.PLP.Chemscore.Hbond>
4.6000

> <Gold.PLP.Chemscore.CHOScore>
0.0000

> <Gold.PLP.Chemscore.Metal>
0.0000

> <Gold.Chemscore.Hbonds>
donor molecule, donor type, donor heavy atom, donor atom, acceptor molecule, acceptor atom, score
      L1  H     2    41       P1  7948  1.89
      P1  H  6896  6909       L1     8  0.71
      P1  H  6931  6943       L1    11  0.65
      P1  H  6934  6947       L1    11  0.74

> <Gold.PLP.Chemscore.Internal.Correction>
0.1071

> <Gold.Rescore>
     Score         DG    S(hbond)    S(metal)    S(lipo)     H(rot)  DE(clash)    DE(int)     intcor
     16.32     -18.20       2.84        0.00      63.83       1.66       1.00       0.88       ----

> <Gold.Chemscore.Fitness>
16.3187

> <Gold.Chemscore.DG>
-18.1950

> <Gold.Chemscore.ZeroCoef>
-5.4800

> <Gold.Chemscore.Hbond>
2.8448

> <Gold.Chemscore.Metal>
0.0000

> <Gold.Chemscore.Lipo>
63.8306

> <Gold.Chemscore.Internal_Hbond>
0.0000

> <Gold.Chemscore.DEClash>
0.9963

> <Gold.Chemscore.DEInternal>
0.8800

> <Gold.Chemscore.Rot>
1.6621

> <Gold.Chemscore.Internal.Correction>
   9.000000E+99

> <Gold.Chemscore.Hbonds>
donor molecule, donor type, donor heavy atom, donor atom, acceptor molecule, acceptor atom, score
      L1  H     2    41       P1  7948  0.82
      P1  H  6896  6909       L1     8  0.67
      P1  H  6931  6943       L1    11  0.06
      P1  H  6934  6947       L1    11  0.72

> <Gold.Chemscore.Hbond.Weighted>
-9.5017

> <Gold.Chemscore.Metal.Weighted>
-0.0000

> <Gold.Chemscore.Lipo.Weighted>
-7.4682

> <Gold.Chemscore.Internal_Hbond.Weighted>
0.0000

> <Gold.Chemscore.DEClash.Weighted>
0.9963

> <Gold.Chemscore.DEInternal.Weighted>
0.8800

> <Gold.Chemscore.Rot.Weighted>
4.2549

> <Gold.Chemscore.Internal.Correction.Weighted>
   9.000000E+99

> <Gold.Protein.RotatedTorsions>
[ 6907 6896 6895 6894 ] final   26.06 input  -60.11 | X-H torsion
[ 7974 7965 7964 7962 ] final  132.73 input  175.53 | X-H torsion
[ 8008 7997 7996 7995 ] final  146.23 input   59.86 | X-H torsion
[ 10167 10162 10161 10158 ] final  -55.21 input  -65.29 | X-H torsion
[ 10718 10713 10712 10709 ] final   26.47 input   66.30 | X-H torsion
[ 10763 10752 10751 10750 ] final   23.03 input  -60.55 | X-H torsion
[ 11005 11000 10999 10996 ] final   -6.76 input  -57.11 | X-H torsion

> <Gold.Protein.ActiveResidues>
 VAL166  LYS551  ARG553  GLY616  TRP617  ASP618  TYR619  PRO620  LYS621  CYS622 
 ASP623  PHE694  ASN695  SER759  ASP760  ASP761  ALA762  ILE779  LEU786  VAL792 
 PHE793  MET794  SER795  GLU796  ALA797  LYS798  CYS799  TRP800  GLU811  SER814 

> <Gold.Protein.RotatedAtoms>
  151.9818  135.0024  160.0557 H   0  0  0  0  0  0  0  0  0  0  0  0  # atno 6907 bound_to 6896
  152.1689  133.4626  159.4907 H   0  0  0  0  0  0  0  0  0  0  0  0  # atno 6908 bound_to 6896
  150.6898  134.1895  159.4323 H   0  0  0  0  0  0  0  0  0  0  0  0  # atno 6909 bound_to 6896
  144.9939  139.4379  143.5326 H   0  0  0  0  0  0  0  0  0  0  0  0  # atno 7974 bound_to 7965
  156.2861  140.2188  156.5344 H   0  0  0  0  0  0  0  0  0  0  0  0  # atno 8008 bound_to 7997
  154.7422  140.0487  157.0843 H   0  0  0  0  0  0  0  0  0  0  0  0  # atno 8009 bound_to 7997
  155.0216  140.3125  155.4794 H   0  0  0  0  0  0  0  0  0  0  0  0  # atno 8010 bound_to 7997
  140.6387  143.2496  151.5047 H   0  0  0  0  0  0  0  0  0  0  0  0  # atno 10167 bound_to 10162
  157.2073  130.6917  149.6213 H   0  0  0  0  0  0  0  0  0  0  0  0  # atno 10718 bound_to 10713
  153.0869  135.6635  153.9930 H   0  0  0  0  0  0  0  0  0  0  0  0  # atno 10763 bound_to 10752
  153.9537  135.2981  155.3438 H   0  0  0  0  0  0  0  0  0  0  0  0  # atno 10764 bound_to 10752
  154.7279  135.5136  153.8988 H   0  0  0  0  0  0  0  0  0  0  0  0  # atno 10765 bound_to 10752
  140.7054  133.8954  155.8713 H   0  0  0  0  0  0  0  0  0  0  0  0  # atno 11005 bound_to 11000
  146.3437  139.9286  142.8756 LP  0  0  0  0  0  0  0  0  0  0  0  0  # atno 17320 bound_to 7965
  145.2248  140.9949  143.4025 LP  0  0  0  0  0  0  0  0  0  0  0  0  # atno 17321 bound_to 7965
  139.5597  144.2187  152.1671 LP  0  0  0  0  0  0  0  0  0  0  0  0  # atno 17342 bound_to 10162
  140.1451  144.5166  150.6720 LP  0  0  0  0  0  0  0  0  0  0  0  0  # atno 17343 bound_to 10162
  155.9694  130.4563  150.5919 LP  0  0  0  0  0  0  0  0  0  0  0  0  # atno 17370 bound_to 10713
  157.3708  131.0765  151.1559 LP  0  0  0  0  0  0  0  0  0  0  0  0  # atno 17371 bound_to 10713
  141.0129  134.0996  157.4203 LP  0  0  0  0  0  0  0  0  0  0  0  0  # atno 17394 bound_to 11000
  139.8885  135.0098  156.6627 LP  0  0  0  0  0  0  0  0  0  0  0  0  # atno 17395 bound_to 11000

$$$$
