AV-unprocessed.smi:1712|AV-procd|sdf|6904|dock4
  -GOLD-   22720 8103D 1   1.00000     0.00000
 Structure written by MMmdl.
 38 39  0  0  0  0  0  0  0  0  2 V2000
  151.6149  135.3445  156.2537 C   0  0  0  0  0  0  0  0  0  0  0  0
  150.6394  135.4326  155.0535 C   0  0  1  0  0  0  0  0  0  0  0  0
  149.2136  134.9803  155.4675 C   0  0  0  0  0  0  0  0  0  0  0  0
  148.3123  134.8080  154.3301 N   0  0  0  0  0  0  0  0  0  0  0  0
  147.1770  134.0942  154.3404 C   0  0  0  0  0  0  0  0  0  0  0  0
  146.7696  133.4776  155.3251 O   0  0  0  0  0  0  0  0  0  0  0  0
  146.5626  134.1363  153.1471 N   0  0  0  0  0  0  0  0  0  0  0  0
  145.3484  133.5019  152.7825 C   0  0  0  0  0  0  0  0  0  0  0  0
  144.7787  132.3920  153.4636 C   0  0  0  0  0  0  0  0  0  0  0  0
  143.6425  132.0092  152.8986 N   0  0  0  0  0  0  0  0  0  0  0  0
  143.4821  132.8637  151.8628 N   0  0  0  0  0  0  0  0  0  0  0  0
  144.4959  133.7897  151.7537 C   0  0  0  0  0  0  0  0  0  0  0  0
  150.5867  136.7976  154.4316 N   0  3  0  0  0  0  0  0  0  0  0  0
  149.7260  137.7916  155.1318 C   0  0  0  0  0  0  0  0  0  0  0  0
  149.7204  139.1414  154.3936 C   0  0  0  0  0  0  0  0  0  0  0  0
  151.0480  139.6254  154.2572 O   0  0  0  0  0  0  0  0  0  0  0  0
  151.8473  138.7370  153.4917 C   0  0  0  0  0  0  0  0  0  0  0  0
  151.9386  137.3816  154.2109 C   0  0  0  0  0  0  0  0  0  0  0  0
  142.6847  132.8025  151.2457 H   0  0  0  0  0  0  0  0  0  0  0  0
  151.6364  134.3448  156.6857 H   0  0  0  0  0  0  0  0  0  0  0  0
  151.3342  136.0379  157.0472 H   0  0  0  0  0  0  0  0  0  0  0  0
  152.6451  135.5511  155.9645 H   0  0  0  0  0  0  0  0  0  0  0  0
  151.0141  134.7400  154.2980 H   0  0  0  0  0  0  0  0  0  0  0  0
  149.2723  134.0670  156.0623 H   0  0  0  0  0  0  0  0  0  0  0  0
  148.7353  135.7194  156.1070 H   0  0  0  0  0  0  0  0  0  0  0  0
  148.5668  135.2785  153.4737 H   0  0  0  0  0  0  0  0  0  0  0  0
  147.0095  134.6774  152.4215 H   0  0  0  0  0  0  0  0  0  0  0  0
  145.1442  131.8622  154.3309 H   0  0  0  0  0  0  0  0  0  0  0  0
  144.5125  134.5401  150.9772 H   0  0  0  0  0  0  0  0  0  0  0  0
  148.6936  137.4470  155.1794 H   0  0  0  0  0  0  0  0  0  0  0  0
  150.0773  137.9254  156.1562 H   0  0  0  0  0  0  0  0  0  0  0  0
  149.2527  139.0460  153.4121 H   0  0  0  0  0  0  0  0  0  0  0  0
  149.1354  139.8715  154.9532 H   0  0  0  0  0  0  0  0  0  0  0  0
  151.4341  138.6215  152.4882 H   0  0  0  0  0  0  0  0  0  0  0  0
  152.8422  139.1680  153.3781 H   0  0  0  0  0  0  0  0  0  0  0  0
  152.4425  137.5081  155.1706 H   0  0  0  0  0  0  0  0  0  0  0  0
  152.5627  136.7218  153.6119 H   0  0  0  0  0  0  0  0  0  0  0  0
  150.1699  136.6729  153.5199 H   0  0  0  0  0  0  0  0  0  0  0  0
  1  2  1  0  0  0  0
  1 20  1  0  0  0  0
  1 21  1  0  0  0  0
  1 22  1  0  0  0  0
  2  3  1  0  0  0  0
  2 13  1  0  0  0  0
  2 23  1  0  0  0  0
  3  4  1  0  0  0  0
  3 24  1  0  0  0  0
  3 25  1  0  0  0  0
  4  5  1  0  0  0  0
  4 26  1  0  0  0  0
  5  6  2  0  0  0  0
  5  7  1  0  0  0  0
  7  8  1  0  0  0  0
  7 27  1  0  0  0  0
  8 12  2  0  0  0  0
  8  9  1  0  0  0  0
  9 10  2  0  0  0  0
  9 28  1  0  0  0  0
 10 11  1  0  0  0  0
 11 19  1  0  0  0  0
 11 12  1  0  0  0  0
 12 29  1  0  0  0  0
 13 18  1  0  0  0  0
 13 14  1  0  0  0  0
 13 38  1  0  0  0  0
 14 15  1  0  0  0  0
 14 30  1  0  0  0  0
 14 31  1  0  0  0  0
 15 16  1  0  0  0  0
 15 32  1  0  0  0  0
 15 33  1  0  0  0  0
 16 17  1  0  0  0  0
 17 18  1  0  0  0  0
 17 34  1  0  0  0  0
 17 35  1  0  0  0  0
 18 36  1  0  0  0  0
 18 37  1  0  0  0  0
M  CHG  1  13   1
M  END
> <s_m_source_file>
AV-unprocessed.smi

> <i_m_source_file_index>
1712

> <i_lp_mmshare_version>
43012

> <i_f3d_flags>
0

> <s_epik_input>
W0NIMl0xW0NIMl1PW0NIMl1bQ0gyXU4xW0NASF0oW0NIM10pW0NIMl1bTkhdQyg9TylbTkhdYzJbY0hdbltuSF1bY0hdMg==

> <s_epik_cmdline>
J2VwaWtfcHl0aG9uJywgJy1waCcsICc3LjAnLCAnLXRuJywgJzgnLCAnLW1hJywgJzIwMCcsICctbWV0YWxfYmluZGluZycsICctaW1hZScsICc8aW5maWxlLm1hZT4nLCAnLW9tYWUnLCAnPG91dGZpbGUubWFlPic=

> <r_lp_tautomer_probability>
0.5

> <r_epik_Ionization_Penalty>
0.646007

> <r_epik_Ionization_Penalty_Charging>
0.645968

> <r_epik_Ionization_Penalty_Neutral>
3.91929e-05

> <r_epik_State_Penalty>
0.664063

> <r_epik_Charging_Adjusted_Penalty>
1.31003

> <i_epik_Tot_Q>
1

> <i_epik_Tot_abs_Q>
1

> <r_epik_Metal_State_Penalty>
0.664064

> <b_epik_Metal_Only>
0

> <s_lp_Force_Field>
OPLS_2005

> <r_lp_Energy>
23.8856

> <b_lp_Chiralities_Consistent>
1

> <s_lp_Variant>
AV-unprocessed.smi:1712-4

> <Gold.Version>
5.8.1

> <Gold.Id.Protein>
6NUR|6NUR_protein|mol2

> <Gold.PLP.Fitness>
40.4848

> <Gold.PLP.PLP>
-21.2218

> <Gold.PLP.part.hbond>
-4.7609

> <Gold.PLP.part.metal>
0.0000

> <Gold.PLP.part.buried>
-2.6411

> <Gold.PLP.part.nonpolar>
-14.9839

> <Gold.PLP.part.repulsive>
0.8685

> <Gold.PLP.ligand.clash>
0.0000

> <Gold.PLP.ligand.torsion>
0.4919

> <Gold.PLP.Chemscore.Hbond>
4.7341

> <Gold.PLP.Chemscore.CHOScore>
1.9928

> <Gold.PLP.Chemscore.Metal>
0.0000

> <Gold.Chemscore.Hbonds>
donor molecule, donor type, donor heavy atom, donor atom, acceptor molecule, acceptor atom, score
      L1  H     4    26       P1  7948  1.00
      L1  H    13    38       P1  7948  1.32
      P1  H  7989  7998       L1    16  0.55
      L1  C     9    28       P1 10957  0.02

> <Gold.PLP.Chemscore.Internal.Correction>
0.0662

> <Gold.Rescore>
     Score         DG    S(hbond)    S(metal)    S(lipo)     H(rot)  DE(clash)    DE(int)     intcor
     13.28     -15.10       2.46        0.00      48.67       1.68       0.34       1.48       ----

> <Gold.Chemscore.Fitness>
13.2767

> <Gold.Chemscore.DG>
-15.0971

> <Gold.Chemscore.ZeroCoef>
-5.4800

> <Gold.Chemscore.Hbond>
2.4600

> <Gold.Chemscore.Metal>
0.0000

> <Gold.Chemscore.Lipo>
48.6677

> <Gold.Chemscore.Internal_Hbond>
0.0000

> <Gold.Chemscore.DEClash>
0.3410

> <Gold.Chemscore.DEInternal>
1.4794

> <Gold.Chemscore.Rot>
1.6771

> <Gold.Chemscore.Internal.Correction>
   9.000000E+99

> <Gold.Chemscore.Hbonds>
donor molecule, donor type, donor heavy atom, donor atom, acceptor molecule, acceptor atom, score
      L1  H     4    26       P1  7948  0.93
      L1  H     7    27       P1  7948  0.01
      L1  H    13    38       P1  7948  0.07
      P1  H  7989  7998       L1    16  0.03

> <Gold.Chemscore.Hbond.Weighted>
-8.2165

> <Gold.Chemscore.Metal.Weighted>
-0.0000

> <Gold.Chemscore.Lipo.Weighted>
-5.6941

> <Gold.Chemscore.Internal_Hbond.Weighted>
0.0000

> <Gold.Chemscore.DEClash.Weighted>
0.3410

> <Gold.Chemscore.DEInternal.Weighted>
1.4794

> <Gold.Chemscore.Rot.Weighted>
4.2935

> <Gold.Chemscore.Internal.Correction.Weighted>
   9.000000E+99

> <Gold.Protein.RotatedTorsions>
[ 6907 6896 6895 6894 ] final  140.61 input  -60.11 | X-H torsion
[ 7974 7965 7964 7962 ] final -177.52 input  175.53 | X-H torsion
[ 8008 7997 7996 7995 ] final  165.69 input   59.86 | X-H torsion
[ 10167 10162 10161 10158 ] final   96.26 input  -65.29 | X-H torsion
[ 10718 10713 10712 10709 ] final -160.69 input   66.30 | X-H torsion
[ 10763 10752 10751 10750 ] final  123.82 input  -60.55 | X-H torsion
[ 11005 11000 10999 10996 ] final   59.56 input  -57.11 | X-H torsion

> <Gold.Protein.ActiveResidues>
 VAL166  LYS551  ARG553  GLY616  TRP617  ASP618  TYR619  PRO620  LYS621  CYS622 
 ASP623  PHE694  ASN695  SER759  ASP760  ASP761  ALA762  ILE779  LEU786  VAL792 
 PHE793  MET794  SER795  GLU796  ALA797  LYS798  CYS799  TRP800  GLU811  SER814 

> <Gold.Protein.RotatedAtoms>
  152.2409  133.5135  159.5269 H   0  0  0  0  0  0  0  0  0  0  0  0  # atno 6907 bound_to 6896
  150.7064  134.1090  159.4002 H   0  0  0  0  0  0  0  0  0  0  0  0  # atno 6908 bound_to 6896
  151.9011  135.0378  160.0557 H   0  0  0  0  0  0  0  0  0  0  0  0  # atno 6909 bound_to 6896
  144.7128  140.1007  143.6416 H   0  0  0  0  0  0  0  0  0  0  0  0  # atno 7974 bound_to 7965
  156.1780  140.1663  156.8327 H   0  0  0  0  0  0  0  0  0  0  0  0  # atno 8008 bound_to 7997
  154.5328  140.0753  156.8408 H   0  0  0  0  0  0  0  0  0  0  0  0  # atno 8009 bound_to 7997
  155.3372  140.3382  155.4241 H   0  0  0  0  0  0  0  0  0  0  0  0  # atno 8010 bound_to 7997
  139.7910  144.6852  150.9892 H   0  0  0  0  0  0  0  0  0  0  0  0  # atno 10167 bound_to 10162
  156.5856  130.8748  151.2876 H   0  0  0  0  0  0  0  0  0  0  0  0  # atno 10718 bound_to 10713
  153.6516  135.3362  155.3101 H   0  0  0  0  0  0  0  0  0  0  0  0  # atno 10763 bound_to 10752
  154.8536  135.4342  154.1898 H   0  0  0  0  0  0  0  0  0  0  0  0  # atno 10764 bound_to 10752
  153.2842  135.7011  153.7430 H   0  0  0  0  0  0  0  0  0  0  0  0  # atno 10765 bound_to 10752
  140.0295  134.6033  155.9526 H   0  0  0  0  0  0  0  0  0  0  0  0  # atno 11005 bound_to 11000
  145.9540  139.2753  143.1195 LP  0  0  0  0  0  0  0  0  0  0  0  0  # atno 17320 bound_to 7965
  145.9293  140.9060  143.0365 LP  0  0  0  0  0  0  0  0  0  0  0  0  # atno 17321 bound_to 7965
  140.7820  143.4380  151.0594 LP  0  0  0  0  0  0  0  0  0  0  0  0  # atno 17342 bound_to 10162
  139.8057  143.8021  152.3167 LP  0  0  0  0  0  0  0  0  0  0  0  0  # atno 17343 bound_to 10162
  157.7316  130.9702  150.1888 LP  0  0  0  0  0  0  0  0  0  0  0  0  # atno 17370 bound_to 10713
  156.2593  130.3709  149.8147 LP  0  0  0  0  0  0  0  0  0  0  0  0  # atno 17371 bound_to 10713
  141.1823  133.6548  156.5069 LP  0  0  0  0  0  0  0  0  0  0  0  0  # atno 17394 bound_to 11000
  140.4249  134.7153  157.4910 LP  0  0  0  0  0  0  0  0  0  0  0  0  # atno 17395 bound_to 11000

$$$$
