AV-unprocessed.smi:1978|AV-procd|sdf|8004|dock1
  -GOLD-   2272010193D 1   1.00000     0.00000
 Structure written by MMmdl.
 44 45  0  0  0  0  0  0  0  0  3 V2000
  148.7811  140.5085  154.8699 C   0  0  0  0  0  0  0  0  0  0  0  0
  149.7551  139.3812  154.9149 C   0  0  0  0  0  0  0  0  0  0  0  0
  149.6047  138.0239  154.8857 C   0  0  0  0  0  0  0  0  0  0  0  0
  150.9428  137.5478  154.9509 C   0  0  0  0  0  0  0  0  0  0  0  0
  151.3256  136.2616  154.9577 N   0  5  0  0  0  0  0  0  0  0  0  0
  150.4579  135.2962  155.3366 C   0  0  0  0  0  0  0  0  0  0  0  0
  150.4834  134.6637  156.3950 O   0  0  0  0  0  0  0  0  0  0  0  0
  149.4997  135.0533  154.4316 N   0  0  0  0  0  0  0  0  0  0  0  0
  148.4062  134.0960  154.5693 C   0  0  0  0  0  0  0  0  0  0  0  0
  147.0355  134.7834  154.3769 C   0  0  2  0  0  0  0  0  0  0  0  0
  145.9512  134.2201  155.3223 C   0  0  0  0  0  0  0  0  0  0  0  0
  146.6128  134.7734  152.9380 N   0  3  1  0  0  0  0  0  0  0  0  0
  146.3468  133.4067  152.3974 C   0  0  0  0  0  0  0  0  0  0  0  0
  146.1925  133.4263  150.8705 C   0  0  0  0  0  0  0  0  0  0  0  0
  145.0618  134.3704  150.4587 C   0  0  0  0  0  0  0  0  0  0  0  0
  145.3196  135.7634  151.0409 C   0  0  0  0  0  0  0  0  0  0  0  0
  145.5099  135.7259  152.5739 C   0  0  2  0  0  0  0  0  0  0  0  0
  145.7361  137.1655  153.0798 C   0  0  0  0  0  0  0  0  0  0  0  0
  151.8254  138.5291  155.0336 N   0  0  0  0  0  0  0  0  0  0  0  0
  151.0723  139.7087  155.0046 O   0  0  0  0  0  0  0  0  0  0  0  0
  148.1590  140.5154  155.7648 H   0  0  0  0  0  0  0  0  0  0  0  0
  148.1269  140.4174  154.0029 H   0  0  0  0  0  0  0  0  0  0  0  0
  149.2930  141.4691  154.8061 H   0  0  0  0  0  0  0  0  0  0  0  0
  148.6858  137.4606  154.8205 H   0  0  0  0  0  0  0  0  0  0  0  0
  149.5275  135.5948  153.5799 H   0  0  0  0  0  0  0  0  0  0  0  0
  148.5435  133.3119  153.8236 H   0  0  0  0  0  0  0  0  0  0  0  0
  148.4624  133.6179  155.5464 H   0  0  0  0  0  0  0  0  0  0  0  0
  147.2159  135.8139  154.6733 H   0  0  0  0  0  0  0  0  0  0  0  0
  146.2247  134.3666  156.3674 H   0  0  0  0  0  0  0  0  0  0  0  0
  145.8043  133.1497  155.1785 H   0  0  0  0  0  0  0  0  0  0  0  0
  144.9913  134.7149  155.1780 H   0  0  0  0  0  0  0  0  0  0  0  0
  147.1531  132.7187  152.6417 H   0  0  0  0  0  0  0  0  0  0  0  0
  145.4409  132.9990  152.8477 H   0  0  0  0  0  0  0  0  0  0  0  0
  147.1286  133.7425  150.4084 H   0  0  0  0  0  0  0  0  0  0  0  0
  145.9884  132.4199  150.5033 H   0  0  0  0  0  0  0  0  0  0  0  0
  144.9889  134.4222  149.3720 H   0  0  0  0  0  0  0  0  0  0  0  0
  144.1067  133.9870  150.8199 H   0  0  0  0  0  0  0  0  0  0  0  0
  146.2054  136.1936  150.5711 H   0  0  0  0  0  0  0  0  0  0  0  0
  144.4871  136.4186  150.7813 H   0  0  0  0  0  0  0  0  0  0  0  0
  144.5826  135.3595  153.0165 H   0  0  0  0  0  0  0  0  0  0  0  0
  144.9994  137.8478  152.6541 H   0  0  0  0  0  0  0  0  0  0  0  0
  146.7235  137.5364  152.8031 H   0  0  0  0  0  0  0  0  0  0  0  0
  145.6277  137.2443  154.1612 H   0  0  0  0  0  0  0  0  0  0  0  0
  147.4217  135.1107  152.4363 H   0  0  0  0  0  0  0  0  0  0  0  0
  1  2  1  0  0  0  0
  1 21  1  0  0  0  0
  1 22  1  0  0  0  0
  1 23  1  0  0  0  0
  2 20  1  0  0  0  0
  2  3  2  0  0  0  0
  3  4  1  0  0  0  0
  3 24  1  0  0  0  0
  4  5  1  0  0  0  0
  4 19  2  0  0  0  0
  5  6  1  0  0  0  0
  6  7  2  0  0  0  0
  6  8  1  0  0  0  0
  8  9  1  0  0  0  0
  8 25  1  0  0  0  0
  9 10  1  0  0  0  0
  9 26  1  0  0  0  0
  9 27  1  0  0  0  0
 10 11  1  0  0  0  0
 10 12  1  0  0  0  0
 10 28  1  0  0  0  0
 11 29  1  0  0  0  0
 11 30  1  0  0  0  0
 11 31  1  0  0  0  0
 12 17  1  0  0  0  0
 12 13  1  0  0  0  0
 12 44  1  0  0  0  0
 13 14  1  0  0  0  0
 13 32  1  0  0  0  0
 13 33  1  0  0  0  0
 14 15  1  0  0  0  0
 14 34  1  0  0  0  0
 14 35  1  0  0  0  0
 15 16  1  0  0  0  0
 15 36  1  0  0  0  0
 15 37  1  0  0  0  0
 16 17  1  0  0  0  0
 16 38  1  0  0  0  0
 16 39  1  0  0  0  0
 17 18  1  0  0  0  0
 17 40  1  0  0  0  0
 18 41  1  0  0  0  0
 18 42  1  0  0  0  0
 18 43  1  0  0  0  0
 19 20  1  0  0  0  0
M  CHG  1   5  -1
M  CHG  1  12   1
M  END
> <s_m_source_file>
AV-unprocessed.smi

> <i_m_source_file_index>
1978

> <i_lp_mmshare_version>
43012

> <i_f3d_flags>
0

> <s_epik_input>
W0NIM11jMVtjSF1jKG5vMSlbTkhdQyg9TylbTkhdW0NIMl1bQ0BIXShbQ0gzXSlOMltDSDJdW0NIMl1bQ0gyXVtDSDJdW0NASF0yW0NIM10=

> <s_epik_cmdline>
J2VwaWtfcHl0aG9uJywgJy1waCcsICc3LjAnLCAnLXRuJywgJzgnLCAnLW1hJywgJzIwMCcsICctbWV0YWxfYmluZGluZycsICctaW1hZScsICc8aW5maWxlLm1hZT4nLCAnLW9tYWUnLCAnPG91dGZpbGUubWFlPic=

> <r_epik_Ionization_Penalty>
6.22372

> <r_epik_Ionization_Penalty_Charging>
6.22362

> <r_epik_Ionization_Penalty_Neutral>
9.65074e-05

> <r_epik_State_Penalty>
6.22363

> <r_epik_Charging_Adjusted_Penalty>
12.4472

> <i_epik_Tot_Q>
0

> <i_epik_Tot_abs_Q>
2

> <r_epik_Metal_State_Penalty>
2.16675

> <b_epik_Metal_Only>
1

> <s_lp_Force_Field>
OPLS_2005

> <r_lp_Energy>
13.293

> <b_lp_Chiralities_Consistent>
1

> <s_lp_Variant>
AV-unprocessed.smi:1978-13

> <Gold.Version>
5.8.1

> <Gold.Id.Protein>
6NUR|6NUR_protein|mol2

> <Gold.PLP.Fitness>
46.4478

> <Gold.PLP.PLP>
-31.0606

> <Gold.PLP.part.hbond>
-4.0000

> <Gold.PLP.part.metal>
0.0000

> <Gold.PLP.part.buried>
-6.1077

> <Gold.PLP.part.nonpolar>
-22.9431

> <Gold.PLP.part.repulsive>
0.3491

> <Gold.PLP.ligand.clash>
0.0000

> <Gold.PLP.ligand.torsion>
1.3360

> <Gold.PLP.Chemscore.Hbond>
5.9500

> <Gold.PLP.Chemscore.CHOScore>
0.0000

> <Gold.PLP.Chemscore.Metal>
0.0000

> <Gold.Chemscore.Hbonds>
donor molecule, donor type, donor heavy atom, donor atom, acceptor molecule, acceptor atom, score
      L1  H     8    25       P1  7948  0.90
      L1  H    12    44       P1  7948  2.00
      P1  H  7989  7998       L1    20  1.00
      P1  H 10752 10765       L1     5  2.00

> <Gold.PLP.Chemscore.Internal.Correction>
0.2092

> <Gold.Rescore>
     Score         DG    S(hbond)    S(metal)    S(lipo)     H(rot)  DE(clash)    DE(int)     intcor
     16.81     -18.09       2.99        0.00      55.70       1.52       0.00       1.28       ----

> <Gold.Chemscore.Fitness>
16.8079

> <Gold.Chemscore.DG>
-18.0918

> <Gold.Chemscore.ZeroCoef>
-5.4800

> <Gold.Chemscore.Hbond>
2.9890

> <Gold.Chemscore.Metal>
0.0000

> <Gold.Chemscore.Lipo>
55.7033

> <Gold.Chemscore.Internal_Hbond>
0.0000

> <Gold.Chemscore.DEClash>
0.0000

> <Gold.Chemscore.DEInternal>
1.2839

> <Gold.Chemscore.Rot>
1.5190

> <Gold.Chemscore.Internal.Correction>
   9.000000E+99

> <Gold.Chemscore.Hbonds>
donor molecule, donor type, donor heavy atom, donor atom, acceptor molecule, acceptor atom, score
      L1  H     8    25       P1  7948  0.18
      L1  H    12    44       P1  7948  0.98
      P1  H  7989  7998       L1    20  0.63
      P1  H 10752 10765       L1     5  0.78

> <Gold.Chemscore.Hbond.Weighted>
-9.9832

> <Gold.Chemscore.Metal.Weighted>
-0.0000

> <Gold.Chemscore.Lipo.Weighted>
-6.5173

> <Gold.Chemscore.Internal_Hbond.Weighted>
0.0000

> <Gold.Chemscore.DEClash.Weighted>
0.0000

> <Gold.Chemscore.DEInternal.Weighted>
1.2839

> <Gold.Chemscore.Rot.Weighted>
3.8886

> <Gold.Chemscore.Internal.Correction.Weighted>
   9.000000E+99

> <Gold.Protein.RotatedTorsions>
[ 6907 6896 6895 6894 ] final  -64.34 input  -60.11 | X-H torsion
[ 7974 7965 7964 7962 ] final  -25.90 input  175.53 | X-H torsion
[ 8008 7997 7996 7995 ] final    8.16 input   59.86 | X-H torsion
[ 10167 10162 10161 10158 ] final  -39.37 input  -65.29 | X-H torsion
[ 10718 10713 10712 10709 ] final    2.09 input   66.30 | X-H torsion
[ 10763 10752 10751 10750 ] final -176.99 input  -60.55 | X-H torsion
[ 11005 11000 10999 10996 ] final  -97.39 input  -57.11 | X-H torsion

> <Gold.Protein.ActiveResidues>
 VAL166  LYS551  ARG553  GLY616  TRP617  ASP618  TYR619  PRO620  LYS621  CYS622 
 ASP623  PHE694  ASN695  SER759  ASP760  ASP761  ALA762  ILE779  LEU786  VAL792 
 PHE793  MET794  SER795  GLU796  ALA797  LYS798  CYS799  TRP800  GLU811  SER814 

> <Gold.Protein.RotatedAtoms>
  150.7592  134.6312  159.6186 H   0  0  0  0  0  0  0  0  0  0  0  0  # atno 6907 bound_to 6896
  152.3589  134.6897  160.0222 H   0  0  0  0  0  0  0  0  0  0  0  0  # atno 6908 bound_to 6896
  151.7294  133.3281  159.3372 H   0  0  0  0  0  0  0  0  0  0  0  0  # atno 6909 bound_to 6896
  146.1461  140.4948  142.8631 H   0  0  0  0  0  0  0  0  0  0  0  0  # atno 7974 bound_to 7965
  154.7632  140.2788  155.6197 H   0  0  0  0  0  0  0  0  0  0  0  0  # atno 8008 bound_to 7997
  156.2919  140.2656  156.2343 H   0  0  0  0  0  0  0  0  0  0  0  0  # atno 8009 bound_to 7997
  154.9992  140.0373  157.2342 H   0  0  0  0  0  0  0  0  0  0  0  0  # atno 8010 bound_to 7997
  140.7066  143.3218  151.2773 H   0  0  0  0  0  0  0  0  0  0  0  0  # atno 10167 bound_to 10162
  156.8578  130.5576  149.5665 H   0  0  0  0  0  0  0  0  0  0  0  0  # atno 10718 bound_to 10713
  154.5656  135.2823  155.0877 H   0  0  0  0  0  0  0  0  0  0  0  0  # atno 10763 bound_to 10752
  154.2269  135.6381  153.5166 H   0  0  0  0  0  0  0  0  0  0  0  0  # atno 10764 bound_to 10752
  153.0042  135.5528  154.6264 H   0  0  0  0  0  0  0  0  0  0  0  0  # atno 10765 bound_to 10752
  141.1380  133.8167  157.0700 H   0  0  0  0  0  0  0  0  0  0  0  0  # atno 11005 bound_to 11000
  144.7848  140.5914  143.6581 LP  0  0  0  0  0  0  0  0  0  0  0  0  # atno 17320 bound_to 7965
  145.4934  139.1487  143.3697 LP  0  0  0  0  0  0  0  0  0  0  0  0  # atno 17321 bound_to 7965
  139.6675  144.0079  152.2732 LP  0  0  0  0  0  0  0  0  0  0  0  0  # atno 17342 bound_to 10162
  139.9667  144.6521  150.8028 LP  0  0  0  0  0  0  0  0  0  0  0  0  # atno 17343 bound_to 10162
  156.0793  130.5807  150.9533 LP  0  0  0  0  0  0  0  0  0  0  0  0  # atno 17370 bound_to 10713
  157.6267  131.0925  150.8520 LP  0  0  0  0  0  0  0  0  0  0  0  0  # atno 17371 bound_to 10713
  140.0517  134.9802  157.1149 LP  0  0  0  0  0  0  0  0  0  0  0  0  # atno 17394 bound_to 11000
  140.3979  134.2114  155.7164 LP  0  0  0  0  0  0  0  0  0  0  0  0  # atno 17395 bound_to 11000

$$$$
