AV-unprocessed.smi:3124|AV-procd|sdf|11903|dock7
  -GOLD-   2272017283D 1   1.00000     0.00000
 Structure written by MMmdl.
 24 24  0  0  0  0  0  0  0  0  2 V2000
  148.0049  132.9048  154.2821 C   0  0  0  0  0  0  0  0  0  0  0  0
  147.2230  132.8707  153.0130 C   0  0  0  0  0  0  0  0  0  0  0  0
  146.5074  131.8704  152.4173 C   0  0  0  0  0  0  0  0  0  0  0  0
  145.9973  132.4635  151.2248 C   0  0  0  0  0  0  0  0  0  0  0  0
  145.1356  131.8259  150.1682 C   0  0  0  0  0  0  0  0  0  0  0  0
  143.9762  132.7332  149.7124 C   0  0  1  0  0  0  0  0  0  0  0  0
  143.8185  132.7290  148.1857 C   0  0  0  0  0  0  0  0  0  0  0  0
  142.7091  132.3376  150.3549 N   0  3  0  0  0  0  0  0  0  0  0  0
  146.3655  133.7295  151.0931 N   0  0  0  0  0  0  0  0  0  0  0  0
  147.1110  133.9663  152.1886 N   0  0  0  0  0  0  0  0  0  0  0  0
  147.5359  134.8675  152.3568 H   0  0  0  0  0  0  0  0  0  0  0  0
  148.0955  131.9066  154.7112 H   0  0  0  0  0  0  0  0  0  0  0  0
  147.5198  133.5454  155.0188 H   0  0  0  0  0  0  0  0  0  0  0  0
  149.0106  133.2885  154.1091 H   0  0  0  0  0  0  0  0  0  0  0  0
  146.3712  130.8616  152.7782 H   0  0  0  0  0  0  0  0  0  0  0  0
  144.7372  130.8808  150.5399 H   0  0  0  0  0  0  0  0  0  0  0  0
  145.7530  131.5673  149.3067 H   0  0  0  0  0  0  0  0  0  0  0  0
  144.1894  133.7562  150.0246 H   0  0  0  0  0  0  0  0  0  0  0  0
  144.7338  133.0627  147.6958 H   0  0  0  0  0  0  0  0  0  0  0  0
  143.0166  133.3976  147.8704 H   0  0  0  0  0  0  0  0  0  0  0  0
  143.5876  131.7308  147.8116 H   0  0  0  0  0  0  0  0  0  0  0  0
  142.8438  132.2642  151.3530 H   0  0  0  0  0  0  0  0  0  0  0  0
  142.4092  131.4453  149.9889 H   0  0  0  0  0  0  0  0  0  0  0  0
  142.0038  133.0345  150.1611 H   0  0  0  0  0  0  0  0  0  0  0  0
  1 12  1  0  0  0  0
  1 13  1  0  0  0  0
  1 14  1  0  0  0  0
  1  2  1  0  0  0  0
  2 10  1  0  0  0  0
  2  3  2  0  0  0  0
  3  4  1  0  0  0  0
  3 15  1  0  0  0  0
  4  5  1  0  0  0  0
  4  9  2  0  0  0  0
  5  6  1  0  0  0  0
  5 16  1  0  0  0  0
  5 17  1  0  0  0  0
  6  7  1  0  0  0  0
  6  8  1  0  0  0  0
  6 18  1  0  0  0  0
  7 19  1  0  0  0  0
  7 20  1  0  0  0  0
  7 21  1  0  0  0  0
  8 22  1  0  0  0  0
  8 23  1  0  0  0  0
  8 24  1  0  0  0  0
  9 10  1  0  0  0  0
 10 11  1  0  0  0  0
M  CHG  1   8   1
M  END
> <s_m_source_file>
AV-unprocessed.smi

> <i_m_source_file_index>
3124

> <i_lp_mmshare_version>
43012

> <i_f3d_flags>
0

> <s_epik_input>
W0NIM11jMVtjSF1jKFtuSF1uMSlbQ0gyXVtDQEhdKFtDSDNdKVtOSDJd

> <s_epik_cmdline>
J2VwaWtfcHl0aG9uJywgJy1waCcsICc3LjAnLCAnLXRuJywgJzgnLCAnLW1hJywgJzIwMCcsICctbWV0YWxfYmluZGluZycsICctaW1hZScsICc8aW5maWxlLm1hZT4nLCAnLW9tYWUnLCAnPG91dGZpbGUubWFlPic=

> <r_lp_tautomer_probability>
0.5

> <r_epik_Ionization_Penalty>
0.00151643

> <r_epik_Ionization_Penalty_Charging>
0.00146569

> <r_epik_Ionization_Penalty_Neutral>
5.07401e-05

> <r_epik_State_Penalty>
0.379573

> <r_epik_Charging_Adjusted_Penalty>
0.381038

> <i_epik_Tot_Q>
1

> <i_epik_Tot_abs_Q>
1

> <r_epik_Metal_State_Penalty>
0.378341

> <b_epik_Metal_Only>
0

> <s_lp_Force_Field>
OPLS_2005

> <r_lp_Energy>
2.04404

> <b_lp_Chiralities_Consistent>
1

> <s_lp_Variant>
AV-unprocessed.smi:3124-2

> <Gold.Version>
5.8.1

> <Gold.Id.Protein>
6NUR|6NUR_protein|mol2

> <Gold.PLP.Fitness>
33.9135

> <Gold.PLP.PLP>
-23.5523

> <Gold.PLP.part.hbond>
-3.0000

> <Gold.PLP.part.metal>
0.0000

> <Gold.PLP.part.buried>
-2.4034

> <Gold.PLP.part.nonpolar>
-18.4919

> <Gold.PLP.part.repulsive>
0.3477

> <Gold.PLP.ligand.clash>
0.0000

> <Gold.PLP.ligand.torsion>
0.8078

> <Gold.PLP.Chemscore.Hbond>
3.9913

> <Gold.PLP.Chemscore.CHOScore>
0.0000

> <Gold.PLP.Chemscore.Metal>
0.0000

> <Gold.Chemscore.Hbonds>
donor molecule, donor type, donor heavy atom, donor atom, acceptor molecule, acceptor atom, score
      L1  H     8    23       P1 10952  0.86
      L1  H     8    24       P1 10186  2.00
      L1  H    10    11       P1  7948  0.94

> <Gold.PLP.Chemscore.Internal.Correction>
0.0031

> <Gold.Rescore>
     Score         DG    S(hbond)    S(metal)    S(lipo)     H(rot)  DE(clash)    DE(int)     intcor
     17.38     -18.14       2.65        0.00      60.92       1.30       0.00       0.76       ----

> <Gold.Chemscore.Fitness>
17.3757

> <Gold.Chemscore.DG>
-18.1403

> <Gold.Chemscore.ZeroCoef>
-5.4800

> <Gold.Chemscore.Hbond>
2.6520

> <Gold.Chemscore.Metal>
0.0000

> <Gold.Chemscore.Lipo>
60.9157

> <Gold.Chemscore.Internal_Hbond>
0.0000

> <Gold.Chemscore.DEClash>
0.0004

> <Gold.Chemscore.DEInternal>
0.7642

> <Gold.Chemscore.Rot>
1.2987

> <Gold.Chemscore.Internal.Correction>
   9.000000E+99

> <Gold.Chemscore.Hbonds>
donor molecule, donor type, donor heavy atom, donor atom, acceptor molecule, acceptor atom, score
      L1  H     8    23       P1 10952  0.77
      L1  H     8    24       P1 10186  1.00
      L1  H    10    11       P1  7948  0.83

> <Gold.Chemscore.Hbond.Weighted>
-8.8578

> <Gold.Chemscore.Metal.Weighted>
-0.0000

> <Gold.Chemscore.Lipo.Weighted>
-7.1271

> <Gold.Chemscore.Internal_Hbond.Weighted>
0.0000

> <Gold.Chemscore.DEClash.Weighted>
0.0004

> <Gold.Chemscore.DEInternal.Weighted>
0.7642

> <Gold.Chemscore.Rot.Weighted>
3.3246

> <Gold.Chemscore.Internal.Correction.Weighted>
   9.000000E+99

> <Gold.Protein.RotatedTorsions>
[ 6907 6896 6895 6894 ] final  -70.12 input  -60.11 | X-H torsion
[ 7974 7965 7964 7962 ] final  -68.72 input  175.53 | X-H torsion
[ 8008 7997 7996 7995 ] final   76.70 input   59.86 | X-H torsion
[ 10167 10162 10161 10158 ] final   89.91 input  -65.29 | X-H torsion
[ 10718 10713 10712 10709 ] final   84.06 input   66.30 | X-H torsion
[ 10763 10752 10751 10750 ] final -128.55 input  -60.55 | X-H torsion
[ 11005 11000 10999 10996 ] final  -24.15 input  -57.11 | X-H torsion

> <Gold.Protein.ActiveResidues>
 VAL166  LYS551  ARG553  GLY616  TRP617  ASP618  TYR619  PRO620  LYS621  CYS622 
 ASP623  PHE694  ASN695  SER759  ASP760  ASP761  ALA762  ILE779  LEU786  VAL792 
 PHE793  MET794  SER795  GLU796  ALA797  LYS798  CYS799  TRP800  GLU811  SER814 

> <Gold.Protein.RotatedAtoms>
  150.7272  134.5498  159.5788 H   0  0  0  0  0  0  0  0  0  0  0  0  # atno 6907 bound_to 6896
  152.2988  134.7632  160.0371 H   0  0  0  0  0  0  0  0  0  0  0  0  # atno 6908 bound_to 6896
  151.8220  133.3360  159.3624 H   0  0  0  0  0  0  0  0  0  0  0  0  # atno 6909 bound_to 6896
  145.7129  140.9071  143.0671 H   0  0  0  0  0  0  0  0  0  0  0  0  # atno 7974 bound_to 7965
  155.8310  140.3466  155.5572 H   0  0  0  0  0  0  0  0  0  0  0  0  # atno 8008 bound_to 7997
  155.8242  140.0917  157.1851 H   0  0  0  0  0  0  0  0  0  0  0  0  # atno 8009 bound_to 7997
  154.4004  140.1424  156.3523 H   0  0  0  0  0  0  0  0  0  0  0  0  # atno 8010 bound_to 7997
  139.8526  144.6586  150.9152 H   0  0  0  0  0  0  0  0  0  0  0  0  # atno 10167 bound_to 10162
  157.6891  131.0117  150.2616 H   0  0  0  0  0  0  0  0  0  0  0  0  # atno 10718 bound_to 10713
  154.8756  135.3924  154.3775 H   0  0  0  0  0  0  0  0  0  0  0  0  # atno 10763 bound_to 10752
  153.4527  135.7028  153.6104 H   0  0  0  0  0  0  0  0  0  0  0  0  # atno 10764 bound_to 10752
  153.4637  135.3806  155.2321 H   0  0  0  0  0  0  0  0  0  0  0  0  # atno 10765 bound_to 10752
  140.8818  133.7649  156.0311 H   0  0  0  0  0  0  0  0  0  0  0  0  # atno 11005 bound_to 11000
  144.6937  139.9098  143.7463 LP  0  0  0  0  0  0  0  0  0  0  0  0  # atno 17320 bound_to 7965
  146.0696  139.3685  143.0531 LP  0  0  0  0  0  0  0  0  0  0  0  0  # atno 17321 bound_to 7965
  140.7785  143.3814  151.1470 LP  0  0  0  0  0  0  0  0  0  0  0  0  # atno 17342 bound_to 10162
  139.7451  143.8865  152.3061 LP  0  0  0  0  0  0  0  0  0  0  0  0  # atno 17343 bound_to 10162
  156.3194  130.3783  149.7589 LP  0  0  0  0  0  0  0  0  0  0  0  0  # atno 17370 bound_to 10713
  156.5163  130.8195  151.3187 LP  0  0  0  0  0  0  0  0  0  0  0  0  # atno 17371 bound_to 10713
  140.8452  134.3019  157.5297 LP  0  0  0  0  0  0  0  0  0  0  0  0  # atno 17394 bound_to 11000
  139.8720  134.9438  156.3863 LP  0  0  0  0  0  0  0  0  0  0  0  0  # atno 17395 bound_to 11000

$$$$
