AV-unprocessed.smi:1626|AV-procd|sdf|6514|dock9
  -GOLD-   22720 7183D 1   1.00000     0.00000
 Structure written by MMmdl.
 47 49  0  0  0  0  0  0  0  0  1 V2000
  153.0506  142.9847  161.5973 C   0  0  0  0  0  0  0  0  0  0  0  0
  152.5210  142.6489  160.2142 C   0  0  0  0  0  0  0  0  0  0  0  0
  152.8547  141.4037  159.6343 C   0  0  0  0  0  0  0  0  0  0  0  0
  152.3782  141.0506  158.3526 C   0  0  0  0  0  0  0  0  0  0  0  0
  152.5732  139.9021  157.6038 N   0  0  0  0  0  0  0  0  0  0  0  0
  151.8693  140.1736  156.5081 C   0  0  0  0  0  0  0  0  0  0  0  0
  151.2415  141.3642  156.4591 N   0  0  0  0  0  0  0  0  0  0  0  0
  150.4123  141.8835  155.3878 C   0  0  0  0  0  0  0  0  0  0  0  0
  149.4141  140.8302  154.8677 C   0  0  2  0  0  0  0  0  0  0  0  0
  150.1117  139.8738  154.0954 O   0  0  0  0  0  0  0  0  0  0  0  0
  148.3063  141.4384  153.9846 C   0  0  0  0  0  0  0  0  0  0  0  0
  147.3708  142.3333  154.6693 N   0  0  0  0  0  0  0  0  0  0  0  0
  146.8470  141.7544  155.9116 C   0  0  0  0  0  0  0  0  0  0  0  0
  145.8997  142.7098  156.6576 C   0  0  0  0  0  0  0  0  0  0  0  0
  144.7378  143.1327  155.7453 C   0  0  0  0  0  0  0  0  0  0  0  0
  143.9433  144.1048  156.3918 O   0  0  0  0  0  0  0  0  0  0  0  0
  145.2893  143.6959  154.4260 C   0  0  0  0  0  0  0  0  0  0  0  0
  146.2610  142.6914  153.7837 C   0  0  0  0  0  0  0  0  0  0  0  0
  151.5530  141.9853  157.6624 C   0  0  0  0  0  0  0  0  0  0  0  0
  151.2175  143.2287  158.2258 C   0  0  0  0  0  0  0  0  0  0  0  0
  151.7028  143.5661  159.5065 C   0  0  0  0  0  0  0  0  0  0  0  0
  151.3347  144.9119  160.1054 C   0  0  0  0  0  0  0  0  0  0  0  0
  153.5807  142.1390  162.0365 H   0  0  0  0  0  0  0  0  0  0  0  0
  152.2331  143.2490  162.2686 H   0  0  0  0  0  0  0  0  0  0  0  0
  153.7428  143.8254  161.5454 H   0  0  0  0  0  0  0  0  0  0  0  0
  153.4801  140.7064  160.1717 H   0  0  0  0  0  0  0  0  0  0  0  0
  151.8009  139.4641  155.6963 H   0  0  0  0  0  0  0  0  0  0  0  0
  149.8801  142.7544  155.7722 H   0  0  0  0  0  0  0  0  0  0  0  0
  151.0547  142.2422  154.5822 H   0  0  0  0  0  0  0  0  0  0  0  0
  148.9753  140.2912  155.7067 H   0  0  0  0  0  0  0  0  0  0  0  0
  150.3474  139.1502  154.6552 H   0  0  0  0  0  0  0  0  0  0  0  0
  148.7899  141.9842  153.1731 H   0  0  0  0  0  0  0  0  0  0  0  0
  147.7450  140.6336  153.5071 H   0  0  0  0  0  0  0  0  0  0  0  0
  146.3265  140.8203  155.6947 H   0  0  0  0  0  0  0  0  0  0  0  0
  147.6638  141.5036  156.5865 H   0  0  0  0  0  0  0  0  0  0  0  0
  145.5174  142.2288  157.5584 H   0  0  0  0  0  0  0  0  0  0  0  0
  146.4582  143.5880  156.9853 H   0  0  0  0  0  0  0  0  0  0  0  0
  144.1095  142.2663  155.5342 H   0  0  0  0  0  0  0  0  0  0  0  0
  144.5150  144.7466  156.7848 H   0  0  0  0  0  0  0  0  0  0  0  0
  144.4724  143.9179  153.7382 H   0  0  0  0  0  0  0  0  0  0  0  0
  145.8105  144.6370  154.6085 H   0  0  0  0  0  0  0  0  0  0  0  0
  146.6526  143.1255  152.8629 H   0  0  0  0  0  0  0  0  0  0  0  0
  145.7150  141.7925  153.4925 H   0  0  0  0  0  0  0  0  0  0  0  0
  150.5909  143.9155  157.6759 H   0  0  0  0  0  0  0  0  0  0  0  0
  150.7816  145.5256  159.3938 H   0  0  0  0  0  0  0  0  0  0  0  0
  152.2308  145.4624  160.3932 H   0  0  0  0  0  0  0  0  0  0  0  0
  150.7109  144.7771  160.9893 H   0  0  0  0  0  0  0  0  0  0  0  0
  1  2  1  0  0  0  0
  1 23  1  0  0  0  0
  1 24  1  0  0  0  0
  1 25  1  0  0  0  0
  2 21  1  0  0  0  0
  2  3  2  0  0  0  0
  3  4  1  0  0  0  0
  3 26  1  0  0  0  0
  4 19  2  0  0  0  0
  4  5  1  0  0  0  0
  5  6  2  0  0  0  0
  6  7  1  0  0  0  0
  6 27  1  0  0  0  0
  7  8  1  0  0  0  0
  7 19  1  0  0  0  0
  8  9  1  0  0  0  0
  8 28  1  0  0  0  0
  8 29  1  0  0  0  0
  9 10  1  0  0  0  0
  9 11  1  0  0  0  0
  9 30  1  0  0  0  0
 10 31  1  0  0  0  0
 11 12  1  0  0  0  0
 11 32  1  0  0  0  0
 11 33  1  0  0  0  0
 12 18  1  0  0  0  0
 12 13  1  0  0  0  0
 13 14  1  0  0  0  0
 13 34  1  0  0  0  0
 13 35  1  0  0  0  0
 14 15  1  0  0  0  0
 14 36  1  0  0  0  0
 14 37  1  0  0  0  0
 15 16  1  0  0  0  0
 15 17  1  0  0  0  0
 15 38  1  0  0  0  0
 16 39  1  0  0  0  0
 17 18  1  0  0  0  0
 17 40  1  0  0  0  0
 17 41  1  0  0  0  0
 18 42  1  0  0  0  0
 18 43  1  0  0  0  0
 19 20  1  0  0  0  0
 20 21  2  0  0  0  0
 20 44  1  0  0  0  0
 21 22  1  0  0  0  0
 22 45  1  0  0  0  0
 22 46  1  0  0  0  0
 22 47  1  0  0  0  0
M  END
> <s_m_source_file>
AV-unprocessed.smi

> <i_m_source_file_index>
1626

> <i_lp_mmshare_version>
43012

> <i_f3d_flags>
0

> <s_epik_input>
W0NIM11jKFtjSF0xKWMoW0NIM10pW2NIXWMoYzEyKW4oW2NIXW4yKVtDSDJdW0NASF0oW09IXSlbQ0gyXU4zW0NIMl1bQ0gyXVtDSF0oW09IXSlbQ0gyXVtDSDJdMw==

> <s_epik_cmdline>
J2VwaWtfcHl0aG9uJywgJy1waCcsICc3LjAnLCAnLXRuJywgJzgnLCAnLW1hJywgJzIwMCcsICctbWV0YWxfYmluZGluZycsICctaW1hZScsICc8aW5maWxlLm1hZT4nLCAnLW9tYWUnLCAnPG91dGZpbGUubWFlPic=

> <r_epik_Ionization_Penalty>
2.14395

> <r_epik_Ionization_Penalty_Charging>
0

> <r_epik_Ionization_Penalty_Neutral>
2.14395

> <r_epik_State_Penalty>
2.24477

> <r_epik_Charging_Adjusted_Penalty>
2.24477

> <i_epik_Tot_Q>
0

> <i_epik_Tot_abs_Q>
0

> <r_epik_Metal_State_Penalty>
2.17429

> <b_epik_Metal_Only>
0

> <s_lp_Force_Field>
OPLS_2005

> <r_lp_Energy>
28.7152

> <b_lp_Chiralities_Consistent>
1

> <s_lp_Variant>
AV-unprocessed.smi:1626-9

> <Gold.Version>
5.8.1

> <Gold.Id.Protein>
6NUR|6NUR_protein|mol2

> <Gold.PLP.Fitness>
52.9452

> <Gold.PLP.PLP>
-47.6289

> <Gold.PLP.part.hbond>
-3.0000

> <Gold.PLP.part.metal>
0.0000

> <Gold.PLP.part.buried>
-5.9395

> <Gold.PLP.part.nonpolar>
-37.4625

> <Gold.PLP.part.repulsive>
0.9480

> <Gold.PLP.ligand.clash>
0.0016

> <Gold.PLP.ligand.torsion>
0.3455

> <Gold.PLP.Chemscore.Hbond>
2.0000

> <Gold.PLP.Chemscore.CHOScore>
0.0000

> <Gold.PLP.Chemscore.Metal>
0.0000

> <Gold.Chemscore.Hbonds>
donor molecule, donor type, donor heavy atom, donor atom, acceptor molecule, acceptor atom, score
      P1  H  7989  7998       L1    10  1.00
      P1  H  7997  8010       L1     5  0.93

> <Gold.PLP.Chemscore.Internal.Correction>
0.0089

> <Gold.Rescore>
     Score         DG    S(hbond)    S(metal)    S(lipo)     H(rot)  DE(clash)    DE(int)     intcor
     13.52     -14.89       0.62        0.00     119.54       2.59       0.12       1.25       ----

> <Gold.Chemscore.Fitness>
13.5161

> <Gold.Chemscore.DG>
-14.8856

> <Gold.Chemscore.ZeroCoef>
-5.4800

> <Gold.Chemscore.Hbond>
0.6174

> <Gold.Chemscore.Metal>
0.0000

> <Gold.Chemscore.Lipo>
119.5375

> <Gold.Chemscore.Internal_Hbond>
0.0000

> <Gold.Chemscore.DEClash>
0.1220

> <Gold.Chemscore.DEInternal>
1.2474

> <Gold.Chemscore.Rot>
2.5947

> <Gold.Chemscore.Internal.Correction>
   9.000000E+99

> <Gold.Chemscore.Hbonds>
donor molecule, donor type, donor heavy atom, donor atom, acceptor molecule, acceptor atom, score
      P1  H  7989  7998       L1    10  0.28
      P1  H  7997  8010       L1     5  0.10

> <Gold.Chemscore.Hbond.Weighted>
-2.0621

> <Gold.Chemscore.Metal.Weighted>
-0.0000

> <Gold.Chemscore.Lipo.Weighted>
-13.9859

> <Gold.Chemscore.Internal_Hbond.Weighted>
0.0000

> <Gold.Chemscore.DEClash.Weighted>
0.1220

> <Gold.Chemscore.DEInternal.Weighted>
1.2474

> <Gold.Chemscore.Rot.Weighted>
6.6424

> <Gold.Chemscore.Internal.Correction.Weighted>
   9.000000E+99

> <Gold.Protein.RotatedTorsions>
[ 6907 6896 6895 6894 ] final  140.52 input  -60.11 | X-H torsion
[ 7974 7965 7964 7962 ] final   38.52 input  175.53 | X-H torsion
[ 8008 7997 7996 7995 ] final   47.54 input   59.86 | X-H torsion
[ 10167 10162 10161 10158 ] final  -69.32 input  -65.29 | X-H torsion
[ 10718 10713 10712 10709 ] final  154.73 input   66.30 | X-H torsion
[ 10763 10752 10751 10750 ] final   32.31 input  -60.55 | X-H torsion
[ 11005 11000 10999 10996 ] final  -52.87 input  -57.11 | X-H torsion

> <Gold.Protein.ActiveResidues>
 VAL166  LYS551  ARG553  GLY616  TRP617  ASP618  TYR619  PRO620  LYS621  CYS622 
 ASP623  PHE694  ASN695  SER759  ASP760  ASP761  ALA762  ILE779  LEU786  VAL792 
 PHE793  MET794  SER795  GLU796  ALA797  LYS798  CYS799  TRP800  GLU811  SER814 

> <Gold.Protein.RotatedAtoms>
  152.2420  133.5143  159.5275 H   0  0  0  0  0  0  0  0  0  0  0  0  # atno 6907 bound_to 6896
  150.7067  134.1076  159.3997 H   0  0  0  0  0  0  0  0  0  0  0  0  # atno 6908 bound_to 6896
  151.8997  135.0383  160.0556 H   0  0  0  0  0  0  0  0  0  0  0  0  # atno 6909 bound_to 6896
  146.1056  139.5762  142.9386 H   0  0  0  0  0  0  0  0  0  0  0  0  # atno 7974 bound_to 7965
  155.3708  140.3423  155.4243 H   0  0  0  0  0  0  0  0  0  0  0  0  # atno 8008 bound_to 7997
  156.1663  140.1617  156.8559 H   0  0  0  0  0  0  0  0  0  0  0  0  # atno 8009 bound_to 7997
  154.5189  140.0772  156.8116 H   0  0  0  0  0  0  0  0  0  0  0  0  # atno 8010 bound_to 7997
  140.5439  143.2314  151.7037 H   0  0  0  0  0  0  0  0  0  0  0  0  # atno 10167 bound_to 10162
  157.2277  131.0732  151.1873 H   0  0  0  0  0  0  0  0  0  0  0  0  # atno 10718 bound_to 10713
  153.0269  135.6416  154.1335 H   0  0  0  0  0  0  0  0  0  0  0  0  # atno 10763 bound_to 10752
  154.1063  135.2856  155.3242 H   0  0  0  0  0  0  0  0  0  0  0  0  # atno 10764 bound_to 10752
  154.6363  135.5475  153.7801 H   0  0  0  0  0  0  0  0  0  0  0  0  # atno 10765 bound_to 10752
  141.0947  133.6626  156.4088 H   0  0  0  0  0  0  0  0  0  0  0  0  # atno 11005 bound_to 11000
  145.5768  141.0387  143.2144 LP  0  0  0  0  0  0  0  0  0  0  0  0  # atno 17320 bound_to 7965
  144.7468  139.7299  143.7289 LP  0  0  0  0  0  0  0  0  0  0  0  0  # atno 17321 bound_to 7965
  139.5000  144.3925  152.0265 LP  0  0  0  0  0  0  0  0  0  0  0  0  # atno 17342 bound_to 10162
  140.3036  144.3618  150.6053 LP  0  0  0  0  0  0  0  0  0  0  0  0  # atno 17343 bound_to 10162
  157.3510  130.7082  149.6441 LP  0  0  0  0  0  0  0  0  0  0  0  0  # atno 17370 bound_to 10713
  155.9677  130.4252  150.4645 LP  0  0  0  0  0  0  0  0  0  0  0  0  # atno 17371 bound_to 10713
  140.5169  134.6342  157.5304 LP  0  0  0  0  0  0  0  0  0  0  0  0  # atno 17394 bound_to 11000
  139.9781  134.7183  155.9912 LP  0  0  0  0  0  0  0  0  0  0  0  0  # atno 17395 bound_to 11000

$$$$
