AV-unprocessed.smi:3252|AV-procd|sdf|12444|dock6
  -GOLD-   2272018333D 1   1.00000     0.00000
 Structure written by MMmdl.
 36 37  0  0  0  0  0  0  0  0  1 V2000
  151.1692  144.9004  159.1178 C   0  0  0  0  0  0  0  0  0  0  0  0
  152.4706  144.2853  159.6519 C   0  0  0  0  0  0  0  0  0  0  0  0
  152.5016  142.8240  159.6662 N   0  0  0  0  0  0  0  0  0  0  0  0
  153.8355  142.2940  159.9379 C   0  0  0  0  0  0  0  0  0  0  0  0
  153.8580  140.7559  159.9107 C   0  0  0  0  0  0  0  0  0  0  0  0
  153.3580  140.2914  158.6609 O   0  0  0  0  0  0  0  0  0  0  0  0
  152.0314  140.7390  158.3908 C   0  0  2  0  0  0  0  0  0  0  0  0
  151.5930  140.1793  157.0311 C   0  0  0  0  0  0  0  0  0  0  0  0
  150.4339  140.8877  156.5068 N   0  0  0  0  0  0  0  0  0  0  0  0
  149.7369  140.3997  155.3933 C   0  0  0  0  0  0  0  0  0  0  0  0
  148.8880  141.2796  154.6890 C   0  0  0  0  0  0  0  0  0  0  0  0
  148.1885  140.7957  153.5660 C   0  0  0  0  0  0  0  0  0  0  0  0
  148.3611  139.4496  153.1875 C   0  0  0  0  0  0  0  0  0  0  0  0
  147.6628  138.9037  152.0363 C   0  0  0  0  0  0  0  0  0  0  0  0
  147.1068  138.4687  151.1195 N   0  0  0  0  0  0  0  0  0  0  0  0
  149.2295  138.6461  153.9541 C   0  0  0  0  0  0  0  0  0  0  0  0
  149.9036  139.1049  155.0309 N   0  0  0  0  0  0  0  0  0  0  0  0
  152.0269  142.2799  158.3987 C   0  0  0  0  0  0  0  0  0  0  0  0
  151.2627  145.9837  159.0414 H   0  0  0  0  0  0  0  0  0  0  0  0
  150.3213  144.6942  159.7707 H   0  0  0  0  0  0  0  0  0  0  0  0
  150.9328  144.5187  158.1242 H   0  0  0  0  0  0  0  0  0  0  0  0
  153.2841  144.6472  159.0216 H   0  0  0  0  0  0  0  0  0  0  0  0
  152.6730  144.6711  160.6521 H   0  0  0  0  0  0  0  0  0  0  0  0
  154.5427  142.6776  159.2010 H   0  0  0  0  0  0  0  0  0  0  0  0
  154.1853  142.6306  160.9132 H   0  0  0  0  0  0  0  0  0  0  0  0
  154.8755  140.3891  160.0460 H   0  0  0  0  0  0  0  0  0  0  0  0
  153.2584  140.3457  160.7247 H   0  0  0  0  0  0  0  0  0  0  0  0
  151.3569  140.3739  159.1679 H   0  0  0  0  0  0  0  0  0  0  0  0
  152.4113  140.2827  156.3174 H   0  0  0  0  0  0  0  0  0  0  0  0
  151.3695  139.1149  157.1138 H   0  0  0  0  0  0  0  0  0  0  0  0
  150.1524  141.7542  156.9425 H   0  0  0  0  0  0  0  0  0  0  0  0
  148.7740  142.3080  154.9994 H   0  0  0  0  0  0  0  0  0  0  0  0
  147.5340  141.4508  153.0090 H   0  0  0  0  0  0  0  0  0  0  0  0
  149.3926  137.6082  153.7012 H   0  0  0  0  0  0  0  0  0  0  0  0
  151.0149  142.6366  158.2029 H   0  0  0  0  0  0  0  0  0  0  0  0
  152.6495  142.6491  157.5820 H   0  0  0  0  0  0  0  0  0  0  0  0
  1  2  1  0  0  0  0
  1 19  1  0  0  0  0
  1 20  1  0  0  0  0
  1 21  1  0  0  0  0
  2  3  1  0  0  0  0
  2 22  1  0  0  0  0
  2 23  1  0  0  0  0
  3 18  1  0  0  0  0
  3  4  1  0  0  0  0
  4  5  1  0  0  0  0
  4 24  1  0  0  0  0
  4 25  1  0  0  0  0
  5  6  1  0  0  0  0
  5 26  1  0  0  0  0
  5 27  1  0  0  0  0
  6  7  1  0  0  0  0
  7  8  1  0  0  0  0
  7 18  1  0  0  0  0
  7 28  1  0  0  0  0
  8  9  1  0  0  0  0
  8 29  1  0  0  0  0
  8 30  1  0  0  0  0
  9 10  1  0  0  0  0
  9 31  1  0  0  0  0
 10 17  1  0  0  0  0
 10 11  2  0  0  0  0
 11 12  1  0  0  0  0
 11 32  1  0  0  0  0
 12 13  2  0  0  0  0
 12 33  1  0  0  0  0
 13 14  1  0  0  0  0
 13 16  1  0  0  0  0
 14 15  3  0  0  0  0
 16 17  2  0  0  0  0
 16 34  1  0  0  0  0
 18 35  1  0  0  0  0
 18 36  1  0  0  0  0
M  END
> <s_m_source_file>
AV-unprocessed.smi

> <i_m_source_file_index>
3252

> <i_lp_mmshare_version>
43012

> <i_f3d_flags>
0

> <s_epik_input>
W0NIM11bQ0gyXU4xW0NIMl1bQ0gyXU9bQ0BIXShbQ0gyXTEpW0NIMl1bTkhdYzJbY0hdW2NIXWMoQyNOKVtjSF1uMg==

> <s_epik_cmdline>
J2VwaWtfcHl0aG9uJywgJy1waCcsICc3LjAnLCAnLXRuJywgJzgnLCAnLW1hJywgJzIwMCcsICctbWV0YWxfYmluZGluZycsICctaW1hZScsICc8aW5maWxlLm1hZT4nLCAnLW9tYWUnLCAnPG91dGZpbGUubWFlPic=

> <r_epik_Ionization_Penalty>
0.797836

> <r_epik_Ionization_Penalty_Charging>
0

> <r_epik_Ionization_Penalty_Neutral>
0.797836

> <r_epik_State_Penalty>
0.828842

> <r_epik_Charging_Adjusted_Penalty>
0.828842

> <i_epik_Tot_Q>
0

> <i_epik_Tot_abs_Q>
0

> <r_epik_Metal_State_Penalty>
0.828842

> <b_epik_Metal_Only>
0

> <s_lp_Force_Field>
OPLS_2005

> <r_lp_Energy>
23.1529

> <b_lp_Chiralities_Consistent>
1

> <s_lp_Variant>
AV-unprocessed.smi:3252-6

> <Gold.Version>
5.8.1

> <Gold.Id.Protein>
6NUR|6NUR_protein|mol2

> <Gold.PLP.Fitness>
39.3658

> <Gold.PLP.PLP>
-31.3222

> <Gold.PLP.part.hbond>
-2.0000

> <Gold.PLP.part.metal>
0.0000

> <Gold.PLP.part.buried>
5.7245

> <Gold.PLP.part.nonpolar>
-34.0634

> <Gold.PLP.part.repulsive>
0.9496

> <Gold.PLP.ligand.clash>
0.0000

> <Gold.PLP.ligand.torsion>
0.3255

> <Gold.PLP.Chemscore.Hbond>
1.8960

> <Gold.PLP.Chemscore.CHOScore>
1.0000

> <Gold.PLP.Chemscore.Metal>
0.0000

> <Gold.Chemscore.Hbonds>
donor molecule, donor type, donor heavy atom, donor atom, acceptor molecule, acceptor atom, score
      P1  H  7954  7966       L1    15  1.00
      P1  H  7997  8009       L1     6  0.87
      L1  C    16    34       P1  7948  1.00

> <Gold.PLP.Chemscore.Internal.Correction>
0.0067

> <Gold.Rescore>
     Score         DG    S(hbond)    S(metal)    S(lipo)     H(rot)  DE(clash)    DE(int)     intcor
     14.62     -15.35       0.72        0.00      95.28       1.43       0.45       0.28       ----

> <Gold.Chemscore.Fitness>
14.6224

> <Gold.Chemscore.DG>
-15.3491

> <Gold.Chemscore.ZeroCoef>
-5.4800

> <Gold.Chemscore.Hbond>
0.7156

> <Gold.Chemscore.Metal>
0.0000

> <Gold.Chemscore.Lipo>
95.2796

> <Gold.Chemscore.Internal_Hbond>
0.0000

> <Gold.Chemscore.DEClash>
0.4471

> <Gold.Chemscore.DEInternal>
0.2796

> <Gold.Chemscore.Rot>
1.4331

> <Gold.Chemscore.Internal.Correction>
   9.000000E+99

> <Gold.Chemscore.Hbonds>
donor molecule, donor type, donor heavy atom, donor atom, acceptor molecule, acceptor atom, score
      P1  H  7954  7966       L1    15  0.84
      P1  H  7997  8009       L1     6  0.75

> <Gold.Chemscore.Hbond.Weighted>
-2.3901

> <Gold.Chemscore.Metal.Weighted>
-0.0000

> <Gold.Chemscore.Lipo.Weighted>
-11.1477

> <Gold.Chemscore.Internal_Hbond.Weighted>
0.0000

> <Gold.Chemscore.DEClash.Weighted>
0.4471

> <Gold.Chemscore.DEInternal.Weighted>
0.2796

> <Gold.Chemscore.Rot.Weighted>
3.6688

> <Gold.Chemscore.Internal.Correction.Weighted>
   9.000000E+99

> <Gold.Protein.RotatedTorsions>
[ 6907 6896 6895 6894 ] final  -33.04 input  -60.11 | X-H torsion
[ 7974 7965 7964 7962 ] final  176.28 input  175.53 | X-H torsion
[ 8008 7997 7996 7995 ] final  150.21 input   59.86 | X-H torsion
[ 10167 10162 10161 10158 ] final    1.37 input  -65.29 | X-H torsion
[ 10718 10713 10712 10709 ] final  -19.53 input   66.30 | X-H torsion
[ 10763 10752 10751 10750 ] final  121.43 input  -60.55 | X-H torsion
[ 11005 11000 10999 10996 ] final  170.61 input  -57.11 | X-H torsion

> <Gold.Protein.ActiveResidues>
 VAL166  LYS551  ARG553  GLY616  TRP617  ASP618  TYR619  PRO620  LYS621  CYS622 
 ASP623  PHE694  ASN695  SER759  ASP760  ASP761  ALA762  ILE779  LEU786  VAL792 
 PHE793  MET794  SER795  GLU796  ALA797  LYS798  CYS799  TRP800  GLU811  SER814 

> <Gold.Protein.RotatedAtoms>
  151.0708  134.9797  159.8307 H   0  0  0  0  0  0  0  0  0  0  0  0  # atno 6907 bound_to 6896
  152.5408  134.2301  159.8832 H   0  0  0  0  0  0  0  0  0  0  0  0  # atno 6908 bound_to 6896
  151.2326  133.4399  159.2638 H   0  0  0  0  0  0  0  0  0  0  0  0  # atno 6909 bound_to 6896
  144.7187  140.0073  143.6440 H   0  0  0  0  0  0  0  0  0  0  0  0  # atno 7974 bound_to 7965
  156.2725  140.2081  156.5980 H   0  0  0  0  0  0  0  0  0  0  0  0  # atno 8008 bound_to 7997
  154.6929  140.0528  157.0405 H   0  0  0  0  0  0  0  0  0  0  0  0  # atno 8009 bound_to 7997
  155.0841  140.3189  155.4595 H   0  0  0  0  0  0  0  0  0  0  0  0  # atno 8010 bound_to 7997
  140.6685  143.7112  150.7876 H   0  0  0  0  0  0  0  0  0  0  0  0  # atno 10167 bound_to 10162
  156.5444  130.4686  149.6482 H   0  0  0  0  0  0  0  0  0  0  0  0  # atno 10718 bound_to 10713
  153.6140  135.3425  155.2988 H   0  0  0  0  0  0  0  0  0  0  0  0  # atno 10763 bound_to 10752
  154.8613  135.4257  154.2278 H   0  0  0  0  0  0  0  0  0  0  0  0  # atno 10764 bound_to 10752
  153.3136  135.7033  153.7166 H   0  0  0  0  0  0  0  0  0  0  0  0  # atno 10765 bound_to 10752
  140.3102  134.7523  157.3985 H   0  0  0  0  0  0  0  0  0  0  0  0  # atno 11005 bound_to 11000
  146.0286  139.3315  143.0769 LP  0  0  0  0  0  0  0  0  0  0  0  0  # atno 17320 bound_to 7965
  145.8480  140.9544  143.0764 LP  0  0  0  0  0  0  0  0  0  0  0  0  # atno 17321 bound_to 7965
  140.0794  143.4984  152.2538 LP  0  0  0  0  0  0  0  0  0  0  0  0  # atno 17342 bound_to 10162
  139.5944  144.7562  151.3322 LP  0  0  0  0  0  0  0  0  0  0  0  0  # atno 17343 bound_to 10162
  156.2941  130.7141  151.1997 LP  0  0  0  0  0  0  0  0  0  0  0  0  # atno 17370 bound_to 10713
  157.7399  131.0523  150.5200 LP  0  0  0  0  0  0  0  0  0  0  0  0  # atno 17371 bound_to 10713
  140.1031  134.5446  155.8334 LP  0  0  0  0  0  0  0  0  0  0  0  0  # atno 17394 bound_to 11000
  141.2110  133.6701  156.6548 LP  0  0  0  0  0  0  0  0  0  0  0  0  # atno 17395 bound_to 11000

$$$$
