AV-unprocessed.smi:1864|AV-procd|sdf|7553|dock9
  -GOLD-   22720 9273D 1   1.00000     0.00000
 Structure written by MMmdl.
 33 34  0  0  0  0  0  0  0  0  2 V2000
  147.2493  139.2775  153.3681 C   0  0  0  0  0  0  0  0  0  0  0  0
  148.5409  139.7177  153.9681 C   0  0  0  0  0  0  0  0  0  0  0  0
  148.9092  140.9926  153.9586 N   0  0  0  0  0  0  0  0  0  0  0  0
  150.1567  140.9734  154.5989 O   0  0  0  0  0  0  0  0  0  0  0  0
  150.3888  139.6767  154.9257 C   0  0  0  0  0  0  0  0  0  0  0  0
  151.6713  139.3163  155.6132 C   0  0  0  0  0  0  0  0  0  0  0  0
  151.8728  140.0199  156.9692 C   0  0  0  0  0  0  0  0  0  0  0  0
  153.1899  139.6853  157.5123 N   0  5  0  0  0  0  0  0  0  0  0  0
  153.5037  139.6598  158.8431 C   0  0  0  0  0  0  0  0  0  0  0  0
  154.2621  138.8548  159.3980 O   0  0  0  0  0  0  0  0  0  0  0  0
  152.8874  140.6776  159.7470 C   0  0  0  0  0  0  0  0  0  0  0  0
  152.2358  141.6770  159.2388 N   0  0  0  0  0  0  0  0  0  0  0  0
  151.6214  142.6345  160.0192 N   0  0  0  0  0  0  0  0  0  0  0  0
  150.7155  143.5040  159.2694 C   0  0  0  0  0  0  0  0  0  0  0  0
  151.8371  142.7946  161.3499 C   0  0  0  0  0  0  0  0  0  0  0  0
  151.2715  143.6380  162.0457 O   0  0  0  0  0  0  0  0  0  0  0  0
  152.8788  141.8712  161.9870 C   0  0  0  0  0  0  0  0  0  0  0  0
  152.9901  140.5208  161.2536 C   0  0  0  0  0  0  0  0  0  0  0  0
  149.4109  138.8501  154.5526 N   0  0  0  0  0  0  0  0  0  0  0  0
  146.7108  140.1217  152.9360 H   0  0  0  0  0  0  0  0  0  0  0  0
  146.6180  138.8190  154.1296 H   0  0  0  0  0  0  0  0  0  0  0  0
  147.4310  138.5456  152.5809 H   0  0  0  0  0  0  0  0  0  0  0  0
  151.6934  138.2342  155.7478 H   0  0  0  0  0  0  0  0  0  0  0  0
  152.4968  139.5601  154.9432 H   0  0  0  0  0  0  0  0  0  0  0  0
  151.7552  141.0955  156.8289 H   0  0  0  0  0  0  0  0  0  0  0  0
  151.0756  139.7179  157.6494 H   0  0  0  0  0  0  0  0  0  0  0  0
  150.2431  144.2784  159.8747 H   0  0  0  0  0  0  0  0  0  0  0  0
  149.9194  142.9115  158.8169 H   0  0  0  0  0  0  0  0  0  0  0  0
  151.2577  144.0038  158.4659 H   0  0  0  0  0  0  0  0  0  0  0  0
  153.8388  142.3876  161.9521 H   0  0  0  0  0  0  0  0  0  0  0  0
  152.6452  141.7108  163.0401 H   0  0  0  0  0  0  0  0  0  0  0  0
  152.2078  139.8434  161.5974 H   0  0  0  0  0  0  0  0  0  0  0  0
  153.9393  140.0632  161.5340 H   0  0  0  0  0  0  0  0  0  0  0  0
  1  2  1  0  0  0  0
  1 20  1  0  0  0  0
  1 21  1  0  0  0  0
  1 22  1  0  0  0  0
  2 19  1  0  0  0  0
  2  3  2  0  0  0  0
  3  4  1  0  0  0  0
  4  5  1  0  0  0  0
  5  6  1  0  0  0  0
  5 19  2  0  0  0  0
  6  7  1  0  0  0  0
  6 23  1  0  0  0  0
  6 24  1  0  0  0  0
  7  8  1  0  0  0  0
  7 25  1  0  0  0  0
  7 26  1  0  0  0  0
  8  9  1  0  0  0  0
  9 10  2  0  0  0  0
  9 11  1  0  0  0  0
 11 18  1  0  0  0  0
 11 12  2  0  0  0  0
 12 13  1  0  0  0  0
 13 14  1  0  0  0  0
 13 15  1  0  0  0  0
 14 27  1  0  0  0  0
 14 28  1  0  0  0  0
 14 29  1  0  0  0  0
 15 16  2  0  0  0  0
 15 17  1  0  0  0  0
 17 18  1  0  0  0  0
 17 30  1  0  0  0  0
 17 31  1  0  0  0  0
 18 32  1  0  0  0  0
 18 33  1  0  0  0  0
M  CHG  1   8  -1
M  END
> <s_m_source_file>
AV-unprocessed.smi

> <i_m_source_file_index>
1864

> <i_lp_mmshare_version>
43012

> <i_f3d_flags>
0

> <s_epik_input>
W0NIM11jMW5vYyhuMSlbQ0gyXVtDSDJdW05IXUMoPU8pQzI9Tk4oW0NIM10pQyg9TylbQ0gyXVtDSDJdMg==

> <s_epik_cmdline>
J2VwaWtfcHl0aG9uJywgJy1waCcsICc3LjAnLCAnLXRuJywgJzgnLCAnLW1hJywgJzIwMCcsICctbWV0YWxfYmluZGluZycsICctaW1hZScsICc8aW5maWxlLm1hZT4nLCAnLW9tYWUnLCAnPG91dGZpbGUubWFlPic=

> <r_lp_tautomer_probability>
1

> <r_epik_Ionization_Penalty>
5.04632

> <r_epik_Ionization_Penalty_Charging>
5.04632

> <r_epik_Ionization_Penalty_Neutral>
3.43742e-09

> <r_epik_State_Penalty>
5.0462

> <r_epik_Charging_Adjusted_Penalty>
10.0925

> <i_epik_Tot_Q>
-1

> <i_epik_Tot_abs_Q>
1

> <r_epik_Metal_State_Penalty>
1.15274

> <b_epik_Metal_Only>
1

> <s_epik_Chemistry_Notes>
This compound has an imine and may undergo hydrolysis.

> <s_lp_Force_Field>
OPLS_2005

> <r_lp_Energy>
22.1734

> <b_lp_Chiralities_Consistent>
1

> <s_lp_Variant>
AV-unprocessed.smi:1864-2

> <Gold.Version>
5.8.1

> <Gold.Id.Protein>
6NUR|6NUR_protein|mol2

> <Gold.PLP.Fitness>
42.3439

> <Gold.PLP.PLP>
-33.0866

> <Gold.PLP.part.hbond>
-3.5324

> <Gold.PLP.part.metal>
0.0000

> <Gold.PLP.part.buried>
-1.7816

> <Gold.PLP.part.nonpolar>
-28.7940

> <Gold.PLP.part.repulsive>
1.1695

> <Gold.PLP.ligand.clash>
0.0000

> <Gold.PLP.ligand.torsion>
0.5136

> <Gold.PLP.Chemscore.Hbond>
3.4240

> <Gold.PLP.Chemscore.CHOScore>
0.0000

> <Gold.PLP.Chemscore.Metal>
0.0000

> <Gold.Chemscore.Hbonds>
donor molecule, donor type, donor heavy atom, donor atom, acceptor molecule, acceptor atom, score
      P1  H  7989  7998       L1     4  0.30
      P1  H  7997  8009       L1     8  1.79
      P1  H  8011  8017       L1     3  0.10

> <Gold.PLP.Chemscore.Internal.Correction>
0.0125

> <Gold.Rescore>
     Score         DG    S(hbond)    S(metal)    S(lipo)     H(rot)  DE(clash)    DE(int)     intcor
      7.95     -10.17       0.79        0.00      56.45       1.77       0.28       1.94       ----

> <Gold.Chemscore.Fitness>
7.9545

> <Gold.Chemscore.DG>
-10.1703

> <Gold.Chemscore.ZeroCoef>
-5.4800

> <Gold.Chemscore.Hbond>
0.7859

> <Gold.Chemscore.Metal>
0.0000

> <Gold.Chemscore.Lipo>
56.4504

> <Gold.Chemscore.Internal_Hbond>
0.0000

> <Gold.Chemscore.DEClash>
0.2801

> <Gold.Chemscore.DEInternal>
1.9357

> <Gold.Chemscore.Rot>
1.7731

> <Gold.Chemscore.Internal.Correction>
   9.000000E+99

> <Gold.Chemscore.Hbonds>
donor molecule, donor type, donor heavy atom, donor atom, acceptor molecule, acceptor atom, score
      P1  H  7989  7998       L1     4  0.01
      P1  H  7997  8009       L1     8  0.51

> <Gold.Chemscore.Hbond.Weighted>
-2.6249

> <Gold.Chemscore.Metal.Weighted>
-0.0000

> <Gold.Chemscore.Lipo.Weighted>
-6.6047

> <Gold.Chemscore.Internal_Hbond.Weighted>
0.0000

> <Gold.Chemscore.DEClash.Weighted>
0.2801

> <Gold.Chemscore.DEInternal.Weighted>
1.9357

> <Gold.Chemscore.Rot.Weighted>
4.5393

> <Gold.Chemscore.Internal.Correction.Weighted>
   9.000000E+99

> <Gold.Protein.RotatedTorsions>
[ 6907 6896 6895 6894 ] final  -29.61 input  -60.11 | X-H torsion
[ 7974 7965 7964 7962 ] final  179.21 input  175.53 | X-H torsion
[ 8008 7997 7996 7995 ] final  171.64 input   59.86 | X-H torsion
[ 10167 10162 10161 10158 ] final  -90.24 input  -65.29 | X-H torsion
[ 10718 10713 10712 10709 ] final -142.44 input   66.30 | X-H torsion
[ 10763 10752 10751 10750 ] final   97.16 input  -60.55 | X-H torsion
[ 11005 11000 10999 10996 ] final -123.90 input  -57.11 | X-H torsion

> <Gold.Protein.ActiveResidues>
 VAL166  LYS551  ARG553  GLY616  TRP617  ASP618  TYR619  PRO620  LYS621  CYS622 
 ASP623  PHE694  ASN695  SER759  ASP760  ASP761  ALA762  ILE779  LEU786  VAL792 
 PHE793  MET794  SER795  GLU796  ALA797  LYS798  CYS799  TRP800  GLU811  SER814 

> <Gold.Protein.RotatedAtoms>
  151.1168  135.0057  159.8519 H   0  0  0  0  0  0  0  0  0  0  0  0  # atno 6907 bound_to 6896
  152.5446  134.1770  159.8630 H   0  0  0  0  0  0  0  0  0  0  0  0  # atno 6908 bound_to 6896
  151.1825  133.4671  159.2627 H   0  0  0  0  0  0  0  0  0  0  0  0  # atno 6909 bound_to 6896
  144.7148  140.0514  143.6435 H   0  0  0  0  0  0  0  0  0  0  0  0  # atno 7974 bound_to 7965
  156.1251  140.1506  156.9147 H   0  0  0  0  0  0  0  0  0  0  0  0  # atno 8008 bound_to 7997
  154.4866  140.0863  156.7540 H   0  0  0  0  0  0  0  0  0  0  0  0  # atno 8009 bound_to 7997
  155.4357  140.3429  155.4287 H   0  0  0  0  0  0  0  0  0  0  0  0  # atno 8010 bound_to 7997
  140.3569  143.2862  151.9661 H   0  0  0  0  0  0  0  0  0  0  0  0  # atno 10167 bound_to 10162
  156.3459  130.7662  151.1806 H   0  0  0  0  0  0  0  0  0  0  0  0  # atno 10718 bound_to 10713
  153.2736  135.4193  155.1011 H   0  0  0  0  0  0  0  0  0  0  0  0  # atno 10763 bound_to 10752
  154.8465  135.3478  154.6210 H   0  0  0  0  0  0  0  0  0  0  0  0  # atno 10764 bound_to 10752
  153.6630  135.7047  153.5229 H   0  0  0  0  0  0  0  0  0  0  0  0  # atno 10765 bound_to 10752
  140.9883  134.0575  157.3685 H   0  0  0  0  0  0  0  0  0  0  0  0  # atno 11005 bound_to 11000
  145.9941  139.3038  143.0967 LP  0  0  0  0  0  0  0  0  0  0  0  0  # atno 17320 bound_to 7965
  145.8869  140.9328  143.0572 LP  0  0  0  0  0  0  0  0  0  0  0  0  # atno 17321 bound_to 7965
  139.4819  144.6027  151.7576 LP  0  0  0  0  0  0  0  0  0  0  0  0  # atno 17342 bound_to 10162
  140.5165  144.0945  150.6010 LP  0  0  0  0  0  0  0  0  0  0  0  0  # atno 17343 bound_to 10162
  157.7454  131.0441  150.4778 LP  0  0  0  0  0  0  0  0  0  0  0  0  # atno 17370 bound_to 10713
  156.4965  130.4107  149.6377 LP  0  0  0  0  0  0  0  0  0  0  0  0  # atno 17371 bound_to 10713
  139.8980  135.0153  156.7129 LP  0  0  0  0  0  0  0  0  0  0  0  0  # atno 17394 bound_to 11000
  140.7080  133.9248  155.8066 LP  0  0  0  0  0  0  0  0  0  0  0  0  # atno 17395 bound_to 11000

$$$$
