AV-unprocessed.smi:774|AV-procd|sdf|3691|dock5
  -GOLD-   22720 1113D 1   1.00000     0.00000
 Structure written by MMmdl.
 37 38  0  0  0  0  0  0  0  0  1 V2000
  155.0093  140.5426  162.4437 C   0  0  0  0  0  0  0  0  0  0  0  0
  154.4508  141.0647  161.1173 C   0  0  0  0  0  0  0  0  0  0  0  0
  152.9713  142.0802  161.3766 S   0  0  0  0  0  0  0  0  0  0  0  0
  152.6472  142.6234  159.6745 C   0  0  2  0  0  0  0  0  0  0  0  0
  153.6736  143.6407  159.1834 C   0  0  0  0  0  0  0  0  0  0  0  0
  152.9882  144.3278  158.0016 C   0  0  0  0  0  0  0  0  0  0  0  0
  151.4797  144.2967  158.3114 C   0  0  1  0  0  0  0  0  0  0  0  0
  150.7201  143.8195  157.1568 N   0  0  0  0  0  0  0  0  0  0  0  0
  150.6349  142.5454  156.7480 C   0  0  0  0  0  0  0  0  0  0  0  0
  151.1992  141.6094  157.3134 O   0  0  0  0  0  0  0  0  0  0  0  0
  149.8466  142.4384  155.6640 N   0  0  0  0  0  0  0  0  0  0  0  0
  149.4819  141.2703  154.9399 C   0  0  0  0  0  0  0  0  0  0  0  0
  150.3573  140.1656  154.9896 C   0  0  0  0  0  0  0  0  0  0  0  0
  150.0216  138.9902  154.2915 C   0  0  0  0  0  0  0  0  0  0  0  0
  148.8113  138.9613  153.5726 C   0  0  0  0  0  0  0  0  0  0  0  0
  147.9536  140.0021  153.5271 N   0  0  0  0  0  0  0  0  0  0  0  0
  148.2825  141.1274  154.1979 C   0  0  0  0  0  0  0  0  0  0  0  0
  151.3068  143.3482  159.5130 C   0  0  0  0  0  0  0  0  0  0  0  0
  155.9008  139.9374  162.2786 H   0  0  0  0  0  0  0  0  0  0  0  0
  154.2771  139.9228  162.9618 H   0  0  0  0  0  0  0  0  0  0  0  0
  155.2820  141.3642  163.1067 H   0  0  0  0  0  0  0  0  0  0  0  0
  155.2051  141.6627  160.6056 H   0  0  0  0  0  0  0  0  0  0  0  0
  154.2017  140.2295  160.4629 H   0  0  0  0  0  0  0  0  0  0  0  0
  152.6716  141.7549  159.0148 H   0  0  0  0  0  0  0  0  0  0  0  0
  153.8750  144.3754  159.9643 H   0  0  0  0  0  0  0  0  0  0  0  0
  154.6224  143.1799  158.9072 H   0  0  0  0  0  0  0  0  0  0  0  0
  153.3568  145.3431  157.8516 H   0  0  0  0  0  0  0  0  0  0  0  0
  153.2069  143.7686  157.0904 H   0  0  0  0  0  0  0  0  0  0  0  0
  151.1574  145.2973  158.6051 H   0  0  0  0  0  0  0  0  0  0  0  0
  150.2178  144.5180  156.6289 H   0  0  0  0  0  0  0  0  0  0  0  0
  149.4041  143.2914  155.3550 H   0  0  0  0  0  0  0  0  0  0  0  0
  151.2786  140.2166  155.5514 H   0  0  0  0  0  0  0  0  0  0  0  0
  150.6764  138.1316  154.3064 H   0  0  0  0  0  0  0  0  0  0  0  0
  148.5221  138.0772  153.0239 H   0  0  0  0  0  0  0  0  0  0  0  0
  147.5447  141.9117  154.1414 H   0  0  0  0  0  0  0  0  0  0  0  0
  150.4758  142.6515  159.3945 H   0  0  0  0  0  0  0  0  0  0  0  0
  151.0994  143.9415  160.4048 H   0  0  0  0  0  0  0  0  0  0  0  0
  1  2  1  0  0  0  0
  1 19  1  0  0  0  0
  1 20  1  0  0  0  0
  1 21  1  0  0  0  0
  2  3  1  0  0  0  0
  2 22  1  0  0  0  0
  2 23  1  0  0  0  0
  3  4  1  0  0  0  0
  4 18  1  0  0  0  0
  4  5  1  0  0  0  0
  4 24  1  0  0  0  0
  5  6  1  0  0  0  0
  5 25  1  0  0  0  0
  5 26  1  0  0  0  0
  6  7  1  0  0  0  0
  6 27  1  0  0  0  0
  6 28  1  0  0  0  0
  7  8  1  0  0  0  0
  7 18  1  0  0  0  0
  7 29  1  0  0  0  0
  8  9  1  0  0  0  0
  8 30  1  0  0  0  0
  9 10  2  0  0  0  0
  9 11  1  0  0  0  0
 11 12  1  0  0  0  0
 11 31  1  0  0  0  0
 12 17  1  0  0  0  0
 12 13  2  0  0  0  0
 13 14  1  0  0  0  0
 13 32  1  0  0  0  0
 14 15  2  0  0  0  0
 14 33  1  0  0  0  0
 15 16  1  0  0  0  0
 15 34  1  0  0  0  0
 16 17  2  0  0  0  0
 17 35  1  0  0  0  0
 18 36  1  0  0  0  0
 18 37  1  0  0  0  0
M  END
> <s_m_source_file>
AV-unprocessed.smi

> <i_m_source_file_index>
774

> <i_lp_mmshare_version>
43012

> <i_f3d_flags>
0

> <s_epik_input>
W0NIM11bQ0gyXVNbQ0BASF0xW0NIMl1bQ0gyXVtDQEhdKFtDSDJdMSlbTkhdQyg9TylbTkhdYzJbY0hdW2NIXVtjSF1uW2NIXTI=

> <s_epik_cmdline>
J2VwaWtfcHl0aG9uJywgJy1waCcsICc3LjAnLCAnLXRuJywgJzgnLCAnLW1hJywgJzIwMCcsICctbWV0YWxfYmluZGluZycsICctaW1hZScsICc8aW5maWxlLm1hZT4nLCAnLW9tYWUnLCAnPG91dGZpbGUubWFlPic=

> <r_epik_Ionization_Penalty>
0.00485718

> <r_epik_Ionization_Penalty_Charging>
0

> <r_epik_Ionization_Penalty_Neutral>
0.00485718

> <r_epik_State_Penalty>
0.00349461

> <r_epik_Charging_Adjusted_Penalty>
0.00349461

> <i_epik_Tot_Q>
0

> <i_epik_Tot_abs_Q>
0

> <r_epik_Metal_State_Penalty>
-0

> <b_epik_Metal_Only>
0

> <s_lp_Force_Field>
OPLS_2005

> <r_lp_Energy>
20.878

> <b_lp_Chiralities_Consistent>
1

> <s_lp_Variant>
AV-unprocessed.smi:774-1

> <Gold.Version>
5.8.1

> <Gold.Id.Protein>
6NUR|6NUR_protein|mol2

> <Gold.PLP.Fitness>
44.7663

> <Gold.PLP.PLP>
-36.9232

> <Gold.PLP.part.hbond>
-1.8405

> <Gold.PLP.part.metal>
0.0000

> <Gold.PLP.part.buried>
-1.5589

> <Gold.PLP.part.nonpolar>
-33.9102

> <Gold.PLP.part.repulsive>
0.6154

> <Gold.PLP.ligand.clash>
0.0000

> <Gold.PLP.ligand.torsion>
0.4254

> <Gold.PLP.Chemscore.Hbond>
1.8960

> <Gold.PLP.Chemscore.CHOScore>
1.0000

> <Gold.PLP.Chemscore.Metal>
0.0000

> <Gold.Chemscore.Hbonds>
donor molecule, donor type, donor heavy atom, donor atom, acceptor molecule, acceptor atom, score
      L1  H     8    30       P1  8028  0.88
      L1  H    11    31       P1  8028  1.00
      L1  C    15    34       P1  7948  1.00

> <Gold.PLP.Chemscore.Internal.Correction>
0.0060

> <Gold.Rescore>
     Score         DG    S(hbond)    S(metal)    S(lipo)     H(rot)  DE(clash)    DE(int)     intcor
     15.70     -21.57       1.82        0.00     114.18       1.30       1.72       4.16       ----

> <Gold.Chemscore.Fitness>
15.6974

> <Gold.Chemscore.DG>
-21.5710

> <Gold.Chemscore.ZeroCoef>
-5.4800

> <Gold.Chemscore.Hbond>
1.8175

> <Gold.Chemscore.Metal>
0.0000

> <Gold.Chemscore.Lipo>
114.1803

> <Gold.Chemscore.Internal_Hbond>
0.0000

> <Gold.Chemscore.DEClash>
1.7156

> <Gold.Chemscore.DEInternal>
4.1580

> <Gold.Chemscore.Rot>
1.3041

> <Gold.Chemscore.Internal.Correction>
   9.000000E+99

> <Gold.Chemscore.Hbonds>
donor molecule, donor type, donor heavy atom, donor atom, acceptor molecule, acceptor atom, score
      L1  H     8    30       P1  8028  0.80
      L1  H    11    31       P1  8028  0.90

> <Gold.Chemscore.Hbond.Weighted>
-6.0703

> <Gold.Chemscore.Metal.Weighted>
-0.0000

> <Gold.Chemscore.Lipo.Weighted>
-13.3591

> <Gold.Chemscore.Internal_Hbond.Weighted>
0.0000

> <Gold.Chemscore.DEClash.Weighted>
1.7156

> <Gold.Chemscore.DEInternal.Weighted>
4.1580

> <Gold.Chemscore.Rot.Weighted>
3.3384

> <Gold.Chemscore.Internal.Correction.Weighted>
   9.000000E+99

> <Gold.Protein.RotatedTorsions>
[ 6907 6896 6895 6894 ] final   33.01 input  -60.11 | X-H torsion
[ 7974 7965 7964 7962 ] final  -70.41 input  175.53 | X-H torsion
[ 8008 7997 7996 7995 ] final  -73.57 input   59.86 | X-H torsion
[ 10167 10162 10161 10158 ] final    4.45 input  -65.29 | X-H torsion
[ 10718 10713 10712 10709 ] final -130.02 input   66.30 | X-H torsion
[ 10763 10752 10751 10750 ] final  126.81 input  -60.55 | X-H torsion
[ 11005 11000 10999 10996 ] final -100.83 input  -57.11 | X-H torsion

> <Gold.Protein.ActiveResidues>
 VAL166  LYS551  ARG553  GLY616  TRP617  ASP618  TYR619  PRO620  LYS621  CYS622 
 ASP623  PHE694  ASN695  SER759  ASP760  ASP761  ALA762  ILE779  LEU786  VAL792 
 PHE793  MET794  SER795  GLU796  ALA797  LYS798  CYS799  TRP800  GLU811  SER814 

> <Gold.Protein.RotatedAtoms>
  152.0825  134.9462  160.0573 H   0  0  0  0  0  0  0  0  0  0  0  0  # atno 6907 bound_to 6896
  152.0745  133.4118  159.4482 H   0  0  0  0  0  0  0  0  0  0  0  0  # atno 6908 bound_to 6896
  150.6836  134.2973  159.4735 H   0  0  0  0  0  0  0  0  0  0  0  0  # atno 6909 bound_to 6896
  145.6913  140.9152  143.0780 H   0  0  0  0  0  0  0  0  0  0  0  0  # atno 7974 bound_to 7965
  154.5258  140.0777  156.8255 H   0  0  0  0  0  0  0  0  0  0  0  0  # atno 8008 bound_to 7997
  155.3479  140.3411  155.4221 H   0  0  0  0  0  0  0  0  0  0  0  0  # atno 8009 bound_to 7997
  156.1730  140.1626  156.8401 H   0  0  0  0  0  0  0  0  0  0  0  0  # atno 8010 bound_to 7997
  140.6534  143.7488  150.7613 H   0  0  0  0  0  0  0  0  0  0  0  0  # atno 10167 bound_to 10162
  156.2104  130.6914  151.0642 H   0  0  0  0  0  0  0  0  0  0  0  0  # atno 10718 bound_to 10713
  153.6993  135.3286  155.3221 H   0  0  0  0  0  0  0  0  0  0  0  0  # atno 10763 bound_to 10752
  154.8417  135.4450  154.1427 H   0  0  0  0  0  0  0  0  0  0  0  0  # atno 10764 bound_to 10752
  153.2490  135.6979  153.7778 H   0  0  0  0  0  0  0  0  0  0  0  0  # atno 10765 bound_to 10752
  141.1255  133.8430  157.1153 H   0  0  0  0  0  0  0  0  0  0  0  0  # atno 11005 bound_to 11000
  144.6996  139.8825  143.7448 LP  0  0  0  0  0  0  0  0  0  0  0  0  # atno 17320 bound_to 7965
  146.0879  139.3868  143.0424 LP  0  0  0  0  0  0  0  0  0  0  0  0  # atno 17321 bound_to 7965
  140.1143  143.4670  152.2351 LP  0  0  0  0  0  0  0  0  0  0  0  0  # atno 17342 bound_to 10162
  139.5752  144.7484  151.3783 LP  0  0  0  0  0  0  0  0  0  0  0  0  # atno 17343 bound_to 10162
  157.7035  131.0766  150.6744 LP  0  0  0  0  0  0  0  0  0  0  0  0  # atno 17370 bound_to 10713
  156.6803  130.4565  149.5630 LP  0  0  0  0  0  0  0  0  0  0  0  0  # atno 17371 bound_to 10713
  140.0250  134.9928  157.0667 LP  0  0  0  0  0  0  0  0  0  0  0  0  # atno 17394 bound_to 11000
  140.4378  134.1713  155.7172 LP  0  0  0  0  0  0  0  0  0  0  0  0  # atno 17395 bound_to 11000

$$$$
