AV-unprocessed.smi:290|AV-procd|sdf|2238|dock2
  -GOLD-   2262022113D 1   1.00000     0.00000
 Structure written by MMmdl.
 59 62  0  0  0  0  0  0  0  0  2 V2000
  152.5639  141.6690  159.6775 C   0  0  0  0  0  0  0  0  0  0  0  0
  151.7253  142.9393  159.4680 C   0  0  1  0  0  0  0  0  0  0  0  0
  152.5226  144.0575  159.8475 O   0  0  0  0  0  0  0  0  0  0  0  0
  152.1014  145.1859  159.1028 C   0  0  0  0  0  0  0  0  0  0  0  0
  151.8808  144.5950  157.7186 C   0  0  0  0  0  0  0  0  0  0  0  0
  151.2478  143.2375  158.0179 C   0  0  2  0  0  0  0  0  0  0  0  0
  149.8422  143.4153  158.0596 O   0  0  0  0  0  0  0  0  0  0  0  0
  151.5640  142.1568  156.9498 C   0  0  0  0  0  0  0  0  0  0  0  0
  150.5106  141.1638  156.8000 N   0  0  0  0  0  0  0  0  0  0  0  0
  150.1226  140.2296  157.7340 C   0  0  0  0  0  0  0  0  0  0  0  0
  149.1501  139.4419  157.3640 N   0  0  0  0  0  0  0  0  0  0  0  0
  148.8389  139.8695  156.0792 C   0  0  0  0  0  0  0  0  0  0  0  0
  147.8943  139.4622  155.0952 C   0  0  0  0  0  0  0  0  0  0  0  0
  147.0062  138.4559  155.2438 N   0  0  0  0  0  0  0  0  0  0  0  0
  145.5965  138.8350  155.2456 C   0  0  0  0  0  0  0  0  0  0  0  0
  144.8614  137.7541  154.4507 C   0  0  0  0  0  0  0  0  0  0  0  0
  145.9399  137.2516  153.4849 C   0  0  2  0  0  0  0  0  0  0  0  0
  145.6672  135.9355  152.8345 N   0  3  1  0  0  0  0  0  0  0  0  0
  144.8583  135.0310  153.6914 C   0  0  0  0  0  0  0  0  0  0  0  0
  145.0791  136.0874  151.4741 C   0  0  0  0  0  0  0  0  0  0  0  0
  144.5302  134.7691  150.8972 C   0  0  0  0  0  0  0  0  0  0  0  0
  144.0581  134.9655  149.5817 O   0  0  0  0  0  0  0  0  0  0  0  0
  147.2045  137.3004  154.3732 C   0  0  2  0  0  0  0  0  0  0  0  0
  147.4276  136.0452  155.2378 C   0  0  0  0  0  0  0  0  0  0  0  0
  147.8657  140.1375  153.9212 N   0  0  0  0  0  0  0  0  0  0  0  0
  148.7145  141.1486  153.7117 C   0  0  0  0  0  0  0  0  0  0  0  0
  149.6508  141.6358  154.5293 N   0  0  0  0  0  0  0  0  0  0  0  0
  149.6787  140.9585  155.7130 C   0  0  0  0  0  0  0  0  0  0  0  0
  146.0389  137.9939  152.6915 H   0  0  0  0  0  0  0  0  0  0  0  0
  148.0871  137.4451  153.7476 H   0  0  0  0  0  0  0  0  0  0  0  0
  152.0050  140.7733  159.4061 H   0  0  0  0  0  0  0  0  0  0  0  0
  152.8520  141.5689  160.7241 H   0  0  0  0  0  0  0  0  0  0  0  0
  153.4814  141.6922  159.0893 H   0  0  0  0  0  0  0  0  0  0  0  0
  150.8721  142.9028  160.1483 H   0  0  0  0  0  0  0  0  0  0  0  0
  151.1725  145.5803  159.5181 H   0  0  0  0  0  0  0  0  0  0  0  0
  152.8507  145.9774  159.1107 H   0  0  0  0  0  0  0  0  0  0  0  0
  151.2778  145.2324  157.0704 H   0  0  0  0  0  0  0  0  0  0  0  0
  152.8519  144.4588  157.2406 H   0  0  0  0  0  0  0  0  0  0  0  0
  149.5799  143.9194  157.3044 H   0  0  0  0  0  0  0  0  0  0  0  0
  151.7130  142.6194  155.9740 H   0  0  0  0  0  0  0  0  0  0  0  0
  152.4930  141.6383  157.1911 H   0  0  0  0  0  0  0  0  0  0  0  0
  150.5904  140.1471  158.7043 H   0  0  0  0  0  0  0  0  0  0  0  0
  145.2179  138.9005  156.2659 H   0  0  0  0  0  0  0  0  0  0  0  0
  145.4508  139.8102  154.7790 H   0  0  0  0  0  0  0  0  0  0  0  0
  144.5423  136.9539  155.1200 H   0  0  0  0  0  0  0  0  0  0  0  0
  143.9790  138.1490  153.9464 H   0  0  0  0  0  0  0  0  0  0  0  0
  143.8938  135.4812  153.9301 H   0  0  0  0  0  0  0  0  0  0  0  0
  145.3698  134.8042  154.6264 H   0  0  0  0  0  0  0  0  0  0  0  0
  144.6722  134.0723  153.2105 H   0  0  0  0  0  0  0  0  0  0  0  0
  144.2879  136.8380  151.5076 H   0  0  0  0  0  0  0  0  0  0  0  0
  145.8230  136.4710  150.7761 H   0  0  0  0  0  0  0  0  0  0  0  0
  145.2676  133.9679  150.9067 H   0  0  0  0  0  0  0  0  0  0  0  0
  143.6939  134.4263  151.5071 H   0  0  0  0  0  0  0  0  0  0  0  0
  144.8011  135.0805  149.0082 H   0  0  0  0  0  0  0  0  0  0  0  0
  147.6350  135.1676  154.6280 H   0  0  0  0  0  0  0  0  0  0  0  0
  146.5625  135.8221  155.8626 H   0  0  0  0  0  0  0  0  0  0  0  0
  148.2834  136.1816  155.8997 H   0  0  0  0  0  0  0  0  0  0  0  0
  148.6334  141.6363  152.7513 H   0  0  0  0  0  0  0  0  0  0  0  0
  146.5664  135.4918  152.7092 H   0  0  0  0  0  0  0  0  0  0  0  0
  1  2  1  0  0  0  0
  1 31  1  0  0  0  0
  1 32  1  0  0  0  0
  1 33  1  0  0  0  0
  2  6  1  0  0  0  0
  2  3  1  0  0  0  0
  2 34  1  0  0  0  0
  3  4  1  0  0  0  0
  4  5  1  0  0  0  0
  4 35  1  0  0  0  0
  4 36  1  0  0  0  0
  5  6  1  0  0  0  0
  5 37  1  0  0  0  0
  5 38  1  0  0  0  0
  6  7  1  0  0  0  0
  6  8  1  0  0  0  0
  7 39  1  0  0  0  0
  8  9  1  0  0  0  0
  8 40  1  0  0  0  0
  8 41  1  0  0  0  0
  9 28  1  0  0  0  0
  9 10  1  0  0  0  0
 10 11  2  0  0  0  0
 10 42  1  0  0  0  0
 11 12  1  0  0  0  0
 12 28  2  0  0  0  0
 12 13  1  0  0  0  0
 13 14  1  0  0  0  0
 13 25  2  0  0  0  0
 14 23  1  0  0  0  0
 14 15  1  0  0  0  0
 15 16  1  0  0  0  0
 15 43  1  0  0  0  0
 15 44  1  0  0  0  0
 16 17  1  0  0  0  0
 16 45  1  0  0  0  0
 16 46  1  0  0  0  0
 17 29  1  0  0  0  0
 17 18  1  0  0  0  0
 17 23  1  0  0  0  0
 18 19  1  0  0  0  0
 18 20  1  0  0  0  0
 18 59  1  0  0  0  0
 19 47  1  0  0  0  0
 19 48  1  0  0  0  0
 19 49  1  0  0  0  0
 20 21  1  0  0  0  0
 20 50  1  0  0  0  0
 20 51  1  0  0  0  0
 21 22  1  0  0  0  0
 21 52  1  0  0  0  0
 21 53  1  0  0  0  0
 22 54  1  0  0  0  0
 23 30  1  0  0  0  0
 23 24  1  0  0  0  0
 24 55  1  0  0  0  0
 24 56  1  0  0  0  0
 24 57  1  0  0  0  0
 25 26  1  0  0  0  0
 26 27  2  0  0  0  0
 26 58  1  0  0  0  0
 27 28  1  0  0  0  0
M  CHG  1  18   1
M  END
> <s_m_source_file>
AV-unprocessed.smi

> <i_m_source_file_index>
290

> <i_lp_mmshare_version>
43012

> <i_f3d_flags>
0

> <s_epik_input>
W0NIMl0xW0NIMl1PW0NAQEhdKFtDSDNdKVtDQEBdMShbT0hdKVtDSDJdbihbY0hdbjIpYyhjMjMpbltjSF1uYzNONFtDSDJdW0NIMl1bQ0BIXShbQ0BIXTRbQ0gzXSlOKFtDSDNdKVtDSDJdW0NIMl1bT0hd

> <s_epik_cmdline>
J2VwaWtfcHl0aG9uJywgJy1waCcsICc3LjAnLCAnLXRuJywgJzgnLCAnLW1hJywgJzIwMCcsICctbWV0YWxfYmluZGluZycsICctaW1hZScsICc8aW5maWxlLm1hZT4nLCAnLW9tYWUnLCAnPG91dGZpbGUubWFlPic=

> <r_lp_tautomer_probability>
1

> <r_epik_Ionization_Penalty>
0.0036983

> <r_epik_Ionization_Penalty_Charging>
0.0032725

> <r_epik_Ionization_Penalty_Neutral>
0.000425798

> <r_epik_State_Penalty>
-0

> <r_epik_Charging_Adjusted_Penalty>
0.0032725

> <i_epik_Tot_Q>
1

> <i_epik_Tot_abs_Q>
1

> <r_epik_Metal_State_Penalty>
-0

> <b_epik_Metal_Only>
0

> <s_lp_Force_Field>
OPLS_2005

> <r_lp_Energy>
65.2736

> <b_lp_Chiralities_Consistent>
1

> <s_lp_Variant>
AV-unprocessed.smi:290-24

> <Gold.Version>
5.8.1

> <Gold.Id.Protein>
6NUR|6NUR_protein|mol2

> <Gold.PLP.Fitness>
43.1965

> <Gold.PLP.PLP>
-37.5687

> <Gold.PLP.part.hbond>
-4.6727

> <Gold.PLP.part.metal>
0.0000

> <Gold.PLP.part.buried>
-3.1505

> <Gold.PLP.part.nonpolar>
-29.4285

> <Gold.PLP.part.repulsive>
0.3725

> <Gold.PLP.ligand.clash>
0.0000

> <Gold.PLP.ligand.torsion>
1.6407

> <Gold.PLP.Chemscore.Hbond>
2.1934

> <Gold.PLP.Chemscore.CHOScore>
0.6341

> <Gold.PLP.Chemscore.Metal>
0.0000

> <Gold.Chemscore.Hbonds>
donor molecule, donor type, donor heavy atom, donor atom, acceptor molecule, acceptor atom, score
      L1  H     7    39       P1  8028  1.00
      L1  H    22    54       P1  7921  1.00
      P1  H  7989  7998       L1    27  0.07
      L1  C    26    58       P1  7957  0.52

> <Gold.PLP.Chemscore.Internal.Correction>
0.4266

> <Gold.Rescore>
     Score         DG    S(hbond)    S(metal)    S(lipo)     H(rot)  DE(clash)    DE(int)     intcor
      9.72     -13.18       2.08        0.00      86.74       3.67       1.66       1.80       ----

> <Gold.Chemscore.Fitness>
9.7222

> <Gold.Chemscore.DG>
-13.1831

> <Gold.Chemscore.ZeroCoef>
-5.4800

> <Gold.Chemscore.Hbond>
2.0775

> <Gold.Chemscore.Metal>
0.0000

> <Gold.Chemscore.Lipo>
86.7399

> <Gold.Chemscore.Internal_Hbond>
0.0000

> <Gold.Chemscore.DEClash>
1.6562

> <Gold.Chemscore.DEInternal>
1.8047

> <Gold.Chemscore.Rot>
3.6658

> <Gold.Chemscore.Internal.Correction>
   9.000000E+99

> <Gold.Chemscore.Hbonds>
donor molecule, donor type, donor heavy atom, donor atom, acceptor molecule, acceptor atom, score
      L1  H     7    39       P1  8028  0.55
      L1  H    22    54       P1  7921  0.99
      P1  H  7989  7998       L1    27  0.01

> <Gold.Chemscore.Hbond.Weighted>
-6.9390

> <Gold.Chemscore.Metal.Weighted>
-0.0000

> <Gold.Chemscore.Lipo.Weighted>
-10.1486

> <Gold.Chemscore.Internal_Hbond.Weighted>
0.0000

> <Gold.Chemscore.DEClash.Weighted>
1.6562

> <Gold.Chemscore.DEInternal.Weighted>
1.8047

> <Gold.Chemscore.Rot.Weighted>
9.3844

> <Gold.Chemscore.Internal.Correction.Weighted>
   9.000000E+99

> <Gold.Protein.RotatedTorsions>
[ 6907 6896 6895 6894 ] final  115.79 input  -60.11 | X-H torsion
[ 7974 7965 7964 7962 ] final -163.97 input  175.53 | X-H torsion
[ 8008 7997 7996 7995 ] final  137.93 input   59.86 | X-H torsion
[ 10167 10162 10161 10158 ] final  -32.44 input  -65.29 | X-H torsion
[ 10718 10713 10712 10709 ] final    9.44 input   66.30 | X-H torsion
[ 10763 10752 10751 10750 ] final -108.64 input  -60.55 | X-H torsion
[ 11005 11000 10999 10996 ] final   62.51 input  -57.11 | X-H torsion

> <Gold.Protein.ActiveResidues>
 VAL166  LYS551  ARG553  GLY616  TRP617  ASP618  TYR619  PRO620  LYS621  CYS622 
 ASP623  PHE694  ASN695  SER759  ASP760  ASP761  ALA762  ILE779  LEU786  VAL792 
 PHE793  MET794  SER795  GLU796  ALA797  LYS798  CYS799  TRP800  GLU811  SER814 

> <Gold.Protein.RotatedAtoms>
  152.4719  133.8049  159.6972 H   0  0  0  0  0  0  0  0  0  0  0  0  # atno 6907 bound_to 6896
  150.8713  133.7492  159.2967 H   0  0  0  0  0  0  0  0  0  0  0  0  # atno 6908 bound_to 6896
  151.5026  135.1065  159.9885 H   0  0  0  0  0  0  0  0  0  0  0  0  # atno 6909 bound_to 6896
  144.7310  140.3030  143.6201 H   0  0  0  0  0  0  0  0  0  0  0  0  # atno 7974 bound_to 7965
  156.3000  140.2406  156.3991 H   0  0  0  0  0  0  0  0  0  0  0  0  # atno 8008 bound_to 7997
  154.8544  140.0422  157.1645 H   0  0  0  0  0  0  0  0  0  0  0  0  # atno 8009 bound_to 7997
  154.8964  140.2970  155.5346 H   0  0  0  0  0  0  0  0  0  0  0  0  # atno 8010 bound_to 7997
  140.7221  143.3694  151.1807 H   0  0  0  0  0  0  0  0  0  0  0  0  # atno 10167 bound_to 10162
  156.9663  130.5952  149.5665 H   0  0  0  0  0  0  0  0  0  0  0  0  # atno 10718 bound_to 10713
  154.8147  135.4630  154.0611 H   0  0  0  0  0  0  0  0  0  0  0  0  # atno 10763 bound_to 10752
  153.2014  135.6869  153.8233 H   0  0  0  0  0  0  0  0  0  0  0  0  # atno 10764 bound_to 10752
  153.7717  135.3269  155.3330 H   0  0  0  0  0  0  0  0  0  0  0  0  # atno 10765 bound_to 10752
  140.0087  134.6329  155.9814 H   0  0  0  0  0  0  0  0  0  0  0  0  # atno 11005 bound_to 11000
  145.7742  139.1868  143.2195 LP  0  0  0  0  0  0  0  0  0  0  0  0  # atno 17320 bound_to 7965
  146.0887  140.7681  142.9606 LP  0  0  0  0  0  0  0  0  0  0  0  0  # atno 17321 bound_to 7965
  139.7263  143.9144  152.3004 LP  0  0  0  0  0  0  0  0  0  0  0  0  # atno 17342 bound_to 10162
  139.8917  144.6961  150.8763 LP  0  0  0  0  0  0  0  0  0  0  0  0  # atno 17343 bound_to 10162
  156.0301  130.5393  150.8512 LP  0  0  0  0  0  0  0  0  0  0  0  0  # atno 17370 bound_to 10713
  157.5623  131.0946  150.9540 LP  0  0  0  0  0  0  0  0  0  0  0  0  # atno 17371 bound_to 10713
  141.1696  133.6537  156.4602 LP  0  0  0  0  0  0  0  0  0  0  0  0  # atno 17394 bound_to 11000
  140.4593  134.6856  157.5078 LP  0  0  0  0  0  0  0  0  0  0  0  0  # atno 17395 bound_to 11000

$$$$
