AV-unprocessed.smi:240|AV-procd|sdf|1824|dock4
  -GOLD-   2262020423D 1   1.00000     0.00000
 Structure written by MMmdl.
 55 59  0  0  0  0  0  0  0  0  1 V2000
  148.1496  131.6783  160.0214 O   0  0  0  0  0  0  0  0  0  0  0  0
  147.5267  132.4112  161.0563 C   0  0  2  0  0  0  0  0  0  0  0  0
  146.3246  131.6589  161.6305 C   0  0  0  0  0  0  0  0  0  0  0  0
  145.4281  132.7443  162.2416 C   0  0  0  0  0  0  0  0  0  0  0  0
  145.8795  134.0805  161.6295 C   0  0  0  0  0  0  0  0  0  0  0  0
  146.9167  133.7245  160.5506 C   0  0  1  0  0  0  0  0  0  0  0  0
  147.9278  134.8494  160.1695 C   0  0  2  0  0  0  0  0  0  0  0  0
  147.6233  136.2163  160.8341 C   0  0  0  0  0  0  0  0  0  0  0  0
  148.6019  137.1777  160.4558 O   0  0  0  0  0  0  0  0  0  0  0  0
  148.6068  137.4057  159.0532 C   0  0  0  0  0  0  0  0  0  0  0  0
  148.9736  136.0991  158.3377 C   0  0  0  0  0  0  0  0  0  0  0  0
  148.0496  135.0364  158.7165 N   0  0  0  0  0  0  0  0  0  0  0  0
  148.2637  133.9291  157.9704 C   0  0  0  0  0  0  0  0  0  0  0  0
  149.4387  133.2795  158.1577 N   0  0  0  0  0  0  0  0  0  0  0  0
  149.7212  132.1894  157.4384 C   0  0  0  0  0  0  0  0  0  0  0  0
  148.9816  131.5926  156.5009 N   0  0  0  0  0  0  0  0  0  0  0  0
  147.7938  132.2381  156.3190 C   0  0  0  0  0  0  0  0  0  0  0  0
  147.3535  133.4012  157.0108 C   0  0  0  0  0  0  0  0  0  0  0  0
  146.0883  133.7658  156.5667 N   0  0  0  0  0  0  0  0  0  0  0  0
  145.8010  132.8748  155.6578 C   0  0  0  0  0  0  0  0  0  0  0  0
  146.7737  131.9258  155.4374 N   0  0  0  0  0  0  0  0  0  0  0  0
  146.7198  130.8308  154.4812 C   0  0  0  0  0  0  0  0  0  0  0  0
  146.9589  131.2821  153.0215 C   0  0  1  0  0  0  0  0  0  0  0  0
  147.4164  130.1734  152.2661 O   0  0  0  0  0  0  0  0  0  0  0  0
  145.7238  131.8592  152.3353 C   0  0  0  0  0  0  0  0  0  0  0  0
  146.3148  132.8890  151.3829 C   0  0  0  0  0  0  0  0  0  0  0  0
  147.3593  133.4572  152.1542 O   0  0  0  0  0  0  0  0  0  0  0  0
  147.9938  132.4177  152.8929 C   0  0  0  0  0  0  0  0  0  0  0  0
  148.4655  130.8622  160.3782 H   0  0  0  0  0  0  0  0  0  0  0  0
  148.2435  132.5889  161.8574 H   0  0  0  0  0  0  0  0  0  0  0  0
  145.7796  131.1571  160.8291 H   0  0  0  0  0  0  0  0  0  0  0  0
  146.6155  130.8982  162.3556 H   0  0  0  0  0  0  0  0  0  0  0  0
  144.3771  132.5425  162.0321 H   0  0  0  0  0  0  0  0  0  0  0  0
  145.5441  132.7729  163.3256 H   0  0  0  0  0  0  0  0  0  0  0  0
  145.0409  134.6384  161.2118 H   0  0  0  0  0  0  0  0  0  0  0  0
  146.3158  134.6990  162.4125 H   0  0  0  0  0  0  0  0  0  0  0  0
  146.3495  133.4564  159.6578 H   0  0  0  0  0  0  0  0  0  0  0  0
  148.9067  134.5429  160.5388 H   0  0  0  0  0  0  0  0  0  0  0  0
  146.6342  136.5887  160.5677 H   0  0  0  0  0  0  0  0  0  0  0  0
  147.6527  136.1371  161.9197 H   0  0  0  0  0  0  0  0  0  0  0  0
  147.6334  137.7735  158.7245 H   0  0  0  0  0  0  0  0  0  0  0  0
  149.3376  138.1801  158.8205 H   0  0  0  0  0  0  0  0  0  0  0  0
  148.9473  136.2514  157.2576 H   0  0  0  0  0  0  0  0  0  0  0  0
  149.9926  135.8082  158.5975 H   0  0  0  0  0  0  0  0  0  0  0  0
  150.6784  131.7316  157.6406 H   0  0  0  0  0  0  0  0  0  0  0  0
  144.8679  132.8892  155.1132 H   0  0  0  0  0  0  0  0  0  0  0  0
  147.4650  130.0887  154.7704 H   0  0  0  0  0  0  0  0  0  0  0  0
  145.7496  130.3409  154.5731 H   0  0  0  0  0  0  0  0  0  0  0  0
  147.7951  130.4952  151.4621 H   0  0  0  0  0  0  0  0  0  0  0  0
  145.1050  131.1123  151.8358 H   0  0  0  0  0  0  0  0  0  0  0  0
  145.0967  132.3779  153.0613 H   0  0  0  0  0  0  0  0  0  0  0  0
  146.7286  132.4121  150.4929 H   0  0  0  0  0  0  0  0  0  0  0  0
  145.5896  133.6405  151.0698 H   0  0  0  0  0  0  0  0  0  0  0  0
  148.3043  132.8091  153.8622 H   0  0  0  0  0  0  0  0  0  0  0  0
  148.8953  132.0955  152.3689 H   0  0  0  0  0  0  0  0  0  0  0  0
  1  2  1  0  0  0  0
  1 29  1  0  0  0  0
  2  6  1  0  0  0  0
  2  3  1  0  0  0  0
  2 30  1  0  0  0  0
  3  4  1  0  0  0  0
  3 31  1  0  0  0  0
  3 32  1  0  0  0  0
  4  5  1  0  0  0  0
  4 33  1  0  0  0  0
  4 34  1  0  0  0  0
  5  6  1  0  0  0  0
  5 35  1  0  0  0  0
  5 36  1  0  0  0  0
  6  7  1  0  0  0  0
  6 37  1  0  0  0  0
  7 12  1  0  0  0  0
  7  8  1  0  0  0  0
  7 38  1  0  0  0  0
  8  9  1  0  0  0  0
  8 39  1  0  0  0  0
  8 40  1  0  0  0  0
  9 10  1  0  0  0  0
 10 11  1  0  0  0  0
 10 41  1  0  0  0  0
 10 42  1  0  0  0  0
 11 12  1  0  0  0  0
 11 43  1  0  0  0  0
 11 44  1  0  0  0  0
 12 13  1  0  0  0  0
 13 18  1  0  0  0  0
 13 14  2  0  0  0  0
 14 15  1  0  0  0  0
 15 16  2  0  0  0  0
 15 45  1  0  0  0  0
 16 17  1  0  0  0  0
 17 21  1  0  0  0  0
 17 18  2  0  0  0  0
 18 19  1  0  0  0  0
 19 20  2  0  0  0  0
 20 21  1  0  0  0  0
 20 46  1  0  0  0  0
 21 22  1  0  0  0  0
 22 23  1  0  0  0  0
 22 47  1  0  0  0  0
 22 48  1  0  0  0  0
 23 28  1  0  0  0  0
 23 24  1  0  0  0  0
 23 25  1  0  0  0  0
 24 49  1  0  0  0  0
 25 26  1  0  0  0  0
 25 50  1  0  0  0  0
 25 51  1  0  0  0  0
 26 27  1  0  0  0  0
 26 52  1  0  0  0  0
 26 53  1  0  0  0  0
 27 28  1  0  0  0  0
 28 54  1  0  0  0  0
 28 55  1  0  0  0  0
M  END
> <s_m_source_file>
AV-unprocessed.smi

> <i_m_source_file_index>
240

> <i_lp_mmshare_version>
43012

> <i_f3d_flags>
0

> <s_epik_input>
W09IXVtDQEBIXTFbQ0gyXVtDSDJdW0NIMl1bQ0BIXTFbQ0BASF0yW0NIMl1PW0NIMl1bQ0gyXU4yYyhuW2NIXW4zKWMoYzM0KW5bY0hdbjRbQ0gyXVtDQEBdNShbT0hdKVtDSDJdW0NIMl1PW0NIMl01

> <s_epik_cmdline>
J2VwaWtfcHl0aG9uJywgJy1waCcsICc3LjAnLCAnLXRuJywgJzgnLCAnLW1hJywgJzIwMCcsICctbWV0YWxfYmluZGluZycsICctaW1hZScsICc8aW5maWxlLm1hZT4nLCAnLW9tYWUnLCAnPG91dGZpbGUubWFlPic=

> <r_lp_tautomer_probability>
1

> <r_epik_Ionization_Penalty>
0.000130618

> <r_epik_Ionization_Penalty_Charging>
0

> <r_epik_Ionization_Penalty_Neutral>
0.000130618

> <r_epik_State_Penalty>
-0

> <r_epik_Charging_Adjusted_Penalty>
0

> <i_epik_Tot_Q>
0

> <i_epik_Tot_abs_Q>
0

> <r_epik_Metal_State_Penalty>
-0

> <b_epik_Metal_Only>
0

> <s_lp_Force_Field>
OPLS_2005

> <r_lp_Energy>
60.7436

> <b_lp_Chiralities_Consistent>
1

> <s_lp_Variant>
AV-unprocessed.smi:240-1

> <Gold.Version>
5.8.1

> <Gold.Id.Protein>
6NUR|6NUR_protein|mol2

> <Gold.PLP.Fitness>
37.4669

> <Gold.PLP.PLP>
-30.3095

> <Gold.PLP.part.hbond>
-3.8336

> <Gold.PLP.part.metal>
0.0000

> <Gold.PLP.part.buried>
-4.5164

> <Gold.PLP.part.nonpolar>
-22.7147

> <Gold.PLP.part.repulsive>
0.2370

> <Gold.PLP.ligand.clash>
0.0000

> <Gold.PLP.ligand.torsion>
2.0350

> <Gold.PLP.Chemscore.Hbond>
2.6780

> <Gold.PLP.Chemscore.CHOScore>
0.9999

> <Gold.PLP.Chemscore.Metal>
0.0000

> <Gold.Chemscore.Hbonds>
donor molecule, donor type, donor heavy atom, donor atom, acceptor molecule, acceptor atom, score
      L1  H    24    49       P1 10747  1.00
      P1  H  6896  6907       L1    14  1.00
      P1  H  6931  6943       L1     9  0.70
      P1  H  6934  6947       L1     9  0.04
      L1  C    20    46       P1 10957  1.00

> <Gold.PLP.Chemscore.Internal.Correction>
0.1939

> <Gold.Rescore>
     Score         DG    S(hbond)    S(metal)    S(lipo)     H(rot)  DE(clash)    DE(int)     intcor
     13.72     -16.03       2.80        0.00      76.11       3.00       0.00       2.30       ----

> <Gold.Chemscore.Fitness>
13.7247

> <Gold.Chemscore.DG>
-16.0318

> <Gold.Chemscore.ZeroCoef>
-5.4800

> <Gold.Chemscore.Hbond>
2.7955

> <Gold.Chemscore.Metal>
0.0000

> <Gold.Chemscore.Lipo>
76.1090

> <Gold.Chemscore.Internal_Hbond>
0.0000

> <Gold.Chemscore.DEClash>
0.0048

> <Gold.Chemscore.DEInternal>
2.3023

> <Gold.Chemscore.Rot>
3.0039

> <Gold.Chemscore.Internal.Correction>
   9.000000E+99

> <Gold.Chemscore.Hbonds>
donor molecule, donor type, donor heavy atom, donor atom, acceptor molecule, acceptor atom, score
      L1  H    24    49       P1 10747  0.99
      P1  H  6896  6907       L1    14  0.78
      P1  H  6931  6943       L1     9  0.55

> <Gold.Chemscore.Hbond.Weighted>
-9.3370

> <Gold.Chemscore.Metal.Weighted>
-0.0000

> <Gold.Chemscore.Lipo.Weighted>
-8.9048

> <Gold.Chemscore.Internal_Hbond.Weighted>
0.0000

> <Gold.Chemscore.DEClash.Weighted>
0.0048

> <Gold.Chemscore.DEInternal.Weighted>
2.3023

> <Gold.Chemscore.Rot.Weighted>
7.6899

> <Gold.Chemscore.Internal.Correction.Weighted>
   9.000000E+99

> <Gold.Protein.RotatedTorsions>
[ 6907 6896 6895 6894 ] final -124.72 input  -60.11 | X-H torsion
[ 7974 7965 7964 7962 ] final   15.30 input  175.53 | X-H torsion
[ 8008 7997 7996 7995 ] final -177.71 input   59.86 | X-H torsion
[ 10167 10162 10161 10158 ] final  136.38 input  -65.29 | X-H torsion
[ 10718 10713 10712 10709 ] final -169.74 input   66.30 | X-H torsion
[ 10763 10752 10751 10750 ] final  -39.11 input  -60.55 | X-H torsion
[ 11005 11000 10999 10996 ] final  -24.42 input  -57.11 | X-H torsion

> <Gold.Protein.ActiveResidues>
 VAL166  LYS551  ARG553  GLY616  TRP617  ASP618  TYR619  PRO620  LYS621  CYS622 
 ASP623  PHE694  ASN695  SER759  ASP760  ASP761  ALA762  ILE779  LEU786  VAL792 
 PHE793  MET794  SER795  GLU796  ALA797  LYS798  CYS799  TRP800  GLU811  SER814 

> <Gold.Protein.RotatedAtoms>
  150.8796  133.7390  159.2935 H   0  0  0  0  0  0  0  0  0  0  0  0  # atno 6907 bound_to 6896
  151.4976  135.1059  159.9830 H   0  0  0  0  0  0  0  0  0  0  0  0  # atno 6908 bound_to 6896
  152.4751  133.8073  159.7040 H   0  0  0  0  0  0  0  0  0  0  0  0  # atno 6909 bound_to 6896
  146.2282  139.8914  142.8554 H   0  0  0  0  0  0  0  0  0  0  0  0  # atno 7974 bound_to 7965
  156.0102  140.1239  157.0461 H   0  0  0  0  0  0  0  0  0  0  0  0  # atno 8008 bound_to 7997
  154.4273  140.1089  156.5888 H   0  0  0  0  0  0  0  0  0  0  0  0  # atno 8009 bound_to 7997
  155.6090  140.3471  155.4619 H   0  0  0  0  0  0  0  0  0  0  0  0  # atno 8010 bound_to 7997
  139.5182  144.6467  151.5419 H   0  0  0  0  0  0  0  0  0  0  0  0  # atno 10167 bound_to 10162
  156.7160  130.9252  151.3093 H   0  0  0  0  0  0  0  0  0  0  0  0  # atno 10718 bound_to 10713
  153.9240  135.6779  153.4747 H   0  0  0  0  0  0  0  0  0  0  0  0  # atno 10763 bound_to 10752
  153.1014  135.4826  154.8870 H   0  0  0  0  0  0  0  0  0  0  0  0  # atno 10764 bound_to 10752
  154.7463  135.3173  154.8596 H   0  0  0  0  0  0  0  0  0  0  0  0  # atno 10765 bound_to 10752
  140.8844  133.7632  156.0342 H   0  0  0  0  0  0  0  0  0  0  0  0  # atno 11005 bound_to 11000
  145.2414  141.0010  143.3933 LP  0  0  0  0  0  0  0  0  0  0  0  0  # atno 17320 bound_to 7965
  144.9449  139.4147  143.6431 LP  0  0  0  0  0  0  0  0  0  0  0  0  # atno 17321 bound_to 7965
  140.6255  143.9177  150.6561 LP  0  0  0  0  0  0  0  0  0  0  0  0  # atno 17342 bound_to 10162
  140.2464  143.3625  152.1443 LP  0  0  0  0  0  0  0  0  0  0  0  0  # atno 17343 bound_to 10162
  157.6917  130.9240  150.0532 LP  0  0  0  0  0  0  0  0  0  0  0  0  # atno 17370 bound_to 10713
  156.1627  130.3644  149.9276 LP  0  0  0  0  0  0  0  0  0  0  0  0  # atno 17371 bound_to 10713
  140.8423  134.3052  157.5308 LP  0  0  0  0  0  0  0  0  0  0  0  0  # atno 17394 bound_to 11000
  139.8723  134.9423  156.3820 LP  0  0  0  0  0  0  0  0  0  0  0  0  # atno 17395 bound_to 11000

$$$$
