AV-unprocessed.smi:1465|AV-procd|sdf|5951|dock5
  -GOLD-   22720 6 33D 1   1.00000     0.00000
 Structure written by MMmdl.
 54 55  0  0  0  0  0  0  0  0  2 V2000
  151.9286  145.5591  160.2386 C   0  0  0  0  0  0  0  0  0  0  0  0
  152.1746  145.5735  158.8438 O   0  0  0  0  0  0  0  0  0  0  0  0
  152.1049  144.2809  158.2643 C   0  0  0  0  0  0  0  0  0  0  0  0
  150.7455  143.6443  158.5961 C   0  0  0  0  0  0  0  0  0  0  0  0
  150.6420  142.2733  158.0757 N   0  0  0  0  0  0  0  0  0  0  0  0
  149.5875  142.0086  157.1805 C   0  0  0  0  0  0  0  0  0  0  0  0
  149.3878  140.7904  156.6397 C   0  0  0  0  0  0  0  0  0  0  0  0
  148.2625  140.5793  155.7263 C   0  0  0  0  0  0  0  0  0  0  0  0
  147.4880  141.4631  155.3558 O   0  0  0  0  0  0  0  0  0  0  0  0
  148.1325  139.3065  155.3130 N   0  0  0  0  0  0  0  0  0  0  0  0
  147.0966  138.8095  154.4126 C   0  0  2  0  0  0  0  0  0  0  0  0
  146.8098  137.3209  154.6791 C   0  0  0  0  0  0  0  0  0  0  0  0
  145.7972  136.7585  153.6678 C   0  0  0  0  0  0  0  0  0  0  0  0
  146.2646  136.9593  152.2704 N   0  3  1  0  0  0  0  0  0  0  0  0
  145.3831  136.3210  151.2588 C   0  0  0  0  0  0  0  0  0  0  0  0
  145.1852  134.8087  151.5001 C   0  0  0  0  0  0  0  0  0  0  0  0
  146.5250  134.0810  151.7015 C   0  0  0  0  0  0  0  0  0  0  0  0
  144.4016  134.1749  150.3411 C   0  0  0  0  0  0  0  0  0  0  0  0
  146.5101  138.3956  151.9801 C   0  0  0  0  0  0  0  0  0  0  0  0
  147.5415  138.9914  152.9530 C   0  0  0  0  0  0  0  0  0  0  0  0
  150.3170  139.7346  157.0149 C   0  0  0  0  0  0  0  0  0  0  0  0
  151.3222  139.9810  157.8780 C   0  0  0  0  0  0  0  0  0  0  0  0
  151.5249  141.3069  158.4692 C   0  0  0  0  0  0  0  0  0  0  0  0
  152.4329  141.5326  159.2696 O   0  0  0  0  0  0  0  0  0  0  0  0
  151.9951  146.5735  160.6320 H   0  0  0  0  0  0  0  0  0  0  0  0
  152.6624  144.9458  160.7631 H   0  0  0  0  0  0  0  0  0  0  0  0
  150.9309  145.1773  160.4589 H   0  0  0  0  0  0  0  0  0  0  0  0
  152.2124  144.3631  157.1817 H   0  0  0  0  0  0  0  0  0  0  0  0
  152.9229  143.6546  158.6240 H   0  0  0  0  0  0  0  0  0  0  0  0
  150.5860  143.6594  159.6752 H   0  0  0  0  0  0  0  0  0  0  0  0
  149.9449  144.2627  158.1868 H   0  0  0  0  0  0  0  0  0  0  0  0
  148.9540  142.8611  156.9776 H   0  0  0  0  0  0  0  0  0  0  0  0
  148.8030  138.6330  155.6539 H   0  0  0  0  0  0  0  0  0  0  0  0
  146.1805  139.3840  154.5648 H   0  0  0  0  0  0  0  0  0  0  0  0
  147.7364  136.7478  154.6195 H   0  0  0  0  0  0  0  0  0  0  0  0
  146.4279  137.1858  155.6918 H   0  0  0  0  0  0  0  0  0  0  0  0
  145.6496  135.6985  153.8710 H   0  0  0  0  0  0  0  0  0  0  0  0
  144.8283  137.2421  153.8022 H   0  0  0  0  0  0  0  0  0  0  0  0
  144.4227  136.8388  151.2428 H   0  0  0  0  0  0  0  0  0  0  0  0
  145.8114  136.4510  150.2637 H   0  0  0  0  0  0  0  0  0  0  0  0
  144.5870  134.6636  152.3992 H   0  0  0  0  0  0  0  0  0  0  0  0
  147.1698  134.1879  150.8283 H   0  0  0  0  0  0  0  0  0  0  0  0
  146.3700  133.0148  151.8695 H   0  0  0  0  0  0  0  0  0  0  0  0
  147.0659  134.4688  152.5650 H   0  0  0  0  0  0  0  0  0  0  0  0
  144.9400  134.2706  149.3976 H   0  0  0  0  0  0  0  0  0  0  0  0
  143.4276  134.6490  150.2179 H   0  0  0  0  0  0  0  0  0  0  0  0
  144.2283  133.1128  150.5173 H   0  0  0  0  0  0  0  0  0  0  0  0
  146.8788  138.5078  150.9596 H   0  0  0  0  0  0  0  0  0  0  0  0
  145.5704  138.9472  152.0411 H   0  0  0  0  0  0  0  0  0  0  0  0
  147.6849  140.0504  152.7347 H   0  0  0  0  0  0  0  0  0  0  0  0
  148.5077  138.5092  152.7951 H   0  0  0  0  0  0  0  0  0  0  0  0
  150.2245  138.7352  156.6159 H   0  0  0  0  0  0  0  0  0  0  0  0
  151.9988  139.1813  158.1424 H   0  0  0  0  0  0  0  0  0  0  0  0
  147.1616  136.5021  152.1903 H   0  0  0  0  0  0  0  0  0  0  0  0
  1  2  1  0  0  0  0
  1 25  1  0  0  0  0
  1 26  1  0  0  0  0
  1 27  1  0  0  0  0
  2  3  1  0  0  0  0
  3  4  1  0  0  0  0
  3 28  1  0  0  0  0
  3 29  1  0  0  0  0
  4  5  1  0  0  0  0
  4 30  1  0  0  0  0
  4 31  1  0  0  0  0
  5 23  1  0  0  0  0
  5  6  1  0  0  0  0
  6  7  2  0  0  0  0
  6 32  1  0  0  0  0
  7  8  1  0  0  0  0
  7 21  1  0  0  0  0
  8  9  2  0  0  0  0
  8 10  1  0  0  0  0
 10 11  1  0  0  0  0
 10 33  1  0  0  0  0
 11 20  1  0  0  0  0
 11 12  1  0  0  0  0
 11 34  1  0  0  0  0
 12 13  1  0  0  0  0
 12 35  1  0  0  0  0
 12 36  1  0  0  0  0
 13 14  1  0  0  0  0
 13 37  1  0  0  0  0
 13 38  1  0  0  0  0
 14 15  1  0  0  0  0
 14 19  1  0  0  0  0
 14 54  1  0  0  0  0
 15 16  1  0  0  0  0
 15 39  1  0  0  0  0
 15 40  1  0  0  0  0
 16 17  1  0  0  0  0
 16 18  1  0  0  0  0
 16 41  1  0  0  0  0
 17 42  1  0  0  0  0
 17 43  1  0  0  0  0
 17 44  1  0  0  0  0
 18 45  1  0  0  0  0
 18 46  1  0  0  0  0
 18 47  1  0  0  0  0
 19 20  1  0  0  0  0
 19 48  1  0  0  0  0
 19 49  1  0  0  0  0
 20 50  1  0  0  0  0
 20 51  1  0  0  0  0
 21 22  2  0  0  0  0
 21 52  1  0  0  0  0
 22 23  1  0  0  0  0
 22 53  1  0  0  0  0
 23 24  2  0  0  0  0
M  CHG  1  14   1
M  END
> <s_m_source_file>
AV-unprocessed.smi

> <i_m_source_file_index>
1465

> <i_lp_mmshare_version>
43012

> <i_f3d_flags>
0

> <s_epik_input>
W0NIM11PW0NIMl1bQ0gyXW4xW2NIXWMoW2NIXVtjSF1jMT1PKUMoPU8pW05IXVtDSF0yW0NIMl1bQ0gyXU4oW0NIMl1bQ0gyXTIpW0NIMl1bQ0hdKFtDSDNdKVtDSDNd

> <s_epik_cmdline>
J2VwaWtfcHl0aG9uJywgJy1waCcsICc3LjAnLCAnLXRuJywgJzgnLCAnLW1hJywgJzIwMCcsICctbWV0YWxfYmluZGluZycsICctaW1hZScsICc8aW5maWxlLm1hZT4nLCAnLW9tYWUnLCAnPG91dGZpbGUubWFlPic=

> <r_lp_tautomer_probability>
1

> <r_epik_Ionization_Penalty>
0.00386091

> <r_epik_Ionization_Penalty_Charging>
0.0038603

> <r_epik_Ionization_Penalty_Neutral>
6.13806e-07

> <r_epik_State_Penalty>
0.00275716

> <r_epik_Charging_Adjusted_Penalty>
0.00661746

> <i_epik_Tot_Q>
1

> <i_epik_Tot_abs_Q>
1

> <r_epik_Metal_State_Penalty>
-0

> <b_epik_Metal_Only>
0

> <s_lp_Force_Field>
OPLS_2005

> <r_lp_Energy>
35.0866

> <b_lp_Chiralities_Consistent>
1

> <s_lp_Variant>
AV-unprocessed.smi:1465-1

> <Gold.Version>
5.8.1

> <Gold.Id.Protein>
6NUR|6NUR_protein|mol2

> <Gold.PLP.Fitness>
45.4408

> <Gold.PLP.PLP>
-37.0741

> <Gold.PLP.part.hbond>
-1.6376

> <Gold.PLP.part.metal>
0.0000

> <Gold.PLP.part.buried>
-0.9423

> <Gold.PLP.part.nonpolar>
-33.6754

> <Gold.PLP.part.repulsive>
0.2070

> <Gold.PLP.ligand.clash>
0.0000

> <Gold.PLP.ligand.torsion>
0.4217

> <Gold.PLP.Chemscore.Hbond>
2.0000

> <Gold.PLP.Chemscore.CHOScore>
1.0000

> <Gold.PLP.Chemscore.Metal>
0.0000

> <Gold.Chemscore.Hbonds>
donor molecule, donor type, donor heavy atom, donor atom, acceptor molecule, acceptor atom, score
      L1  H    14    54       P1  7948  2.00
      L1  C     6    32       P1  8028  1.00

> <Gold.PLP.Chemscore.Internal.Correction>
0.2101

> <Gold.Rescore>
     Score         DG    S(hbond)    S(metal)    S(lipo)     H(rot)  DE(clash)    DE(int)     intcor
     13.43     -15.21       1.00        0.00      93.59       1.78       0.24       1.54       ----

> <Gold.Chemscore.Fitness>
13.4320

> <Gold.Chemscore.DG>
-15.2118

> <Gold.Chemscore.ZeroCoef>
-5.4800

> <Gold.Chemscore.Hbond>
0.9974

> <Gold.Chemscore.Metal>
0.0000

> <Gold.Chemscore.Lipo>
93.5865

> <Gold.Chemscore.Internal_Hbond>
0.0000

> <Gold.Chemscore.DEClash>
0.2394

> <Gold.Chemscore.DEInternal>
1.5404

> <Gold.Chemscore.Rot>
1.7769

> <Gold.Chemscore.Internal.Correction>
   9.000000E+99

> <Gold.Chemscore.Hbonds>
donor molecule, donor type, donor heavy atom, donor atom, acceptor molecule, acceptor atom, score
      L1  H    14    54       P1  7948  1.00

> <Gold.Chemscore.Hbond.Weighted>
-3.3312

> <Gold.Chemscore.Metal.Weighted>
-0.0000

> <Gold.Chemscore.Lipo.Weighted>
-10.9496

> <Gold.Chemscore.Internal_Hbond.Weighted>
0.0000

> <Gold.Chemscore.DEClash.Weighted>
0.2394

> <Gold.Chemscore.DEInternal.Weighted>
1.5404

> <Gold.Chemscore.Rot.Weighted>
4.5490

> <Gold.Chemscore.Internal.Correction.Weighted>
   9.000000E+99

> <Gold.Protein.RotatedTorsions>
[ 6907 6896 6895 6894 ] final -168.63 input  -60.11 | X-H torsion
[ 7974 7965 7964 7962 ] final   56.40 input  175.53 | X-H torsion
[ 8008 7997 7996 7995 ] final   66.81 input   59.86 | X-H torsion
[ 10167 10162 10161 10158 ] final  -36.24 input  -65.29 | X-H torsion
[ 10718 10713 10712 10709 ] final   10.64 input   66.30 | X-H torsion
[ 10763 10752 10751 10750 ] final  148.68 input  -60.55 | X-H torsion
[ 11005 11000 10999 10996 ] final  -98.97 input  -57.11 | X-H torsion

> <Gold.Protein.ActiveResidues>
 VAL166  LYS551  ARG553  GLY616  TRP617  ASP618  TYR619  PRO620  LYS621  CYS622 
 ASP623  PHE694  ASN695  SER759  ASP760  ASP761  ALA762  ILE779  LEU786  VAL792 
 PHE793  MET794  SER795  GLU796  ALA797  LYS798  CYS799  TRP800  GLU811  SER814 

> <Gold.Protein.RotatedAtoms>
  151.4786  133.3552  159.2834 H   0  0  0  0  0  0  0  0  0  0  0  0  # atno 6907 bound_to 6896
  150.8913  134.8318  159.7306 H   0  0  0  0  0  0  0  0  0  0  0  0  # atno 6908 bound_to 6896
  152.4824  134.4696  159.9683 H   0  0  0  0  0  0  0  0  0  0  0  0  # atno 6909 bound_to 6896
  145.9402  139.3882  143.0368 H   0  0  0  0  0  0  0  0  0  0  0  0  # atno 7974 bound_to 7965
  155.6831  140.3496  155.4863 H   0  0  0  0  0  0  0  0  0  0  0  0  # atno 8008 bound_to 7997
  155.9589  140.1133  157.0935 H   0  0  0  0  0  0  0  0  0  0  0  0  # atno 8009 bound_to 7997
  154.4138  140.1179  156.5139 H   0  0  0  0  0  0  0  0  0  0  0  0  # atno 8010 bound_to 7997
  140.7147  143.3422  151.2332 H   0  0  0  0  0  0  0  0  0  0  0  0  # atno 10167 bound_to 10162
  156.9839  130.6016  149.5679 H   0  0  0  0  0  0  0  0  0  0  0  0  # atno 10718 bound_to 10713
  154.0587  135.2876  155.3328 H   0  0  0  0  0  0  0  0  0  0  0  0  # atno 10763 bound_to 10752
  154.6822  135.5259  153.8282 H   0  0  0  0  0  0  0  0  0  0  0  0  # atno 10764 bound_to 10752
  153.0531  135.6584  154.0777 H   0  0  0  0  0  0  0  0  0  0  0  0  # atno 10765 bound_to 10752
  141.1326  133.8286  157.0910 H   0  0  0  0  0  0  0  0  0  0  0  0  # atno 11005 bound_to 11000
  145.8310  140.9631  143.0849 LP  0  0  0  0  0  0  0  0  0  0  0  0  # atno 17320 bound_to 7965
  144.6778  140.0162  143.7484 LP  0  0  0  0  0  0  0  0  0  0  0  0  # atno 17321 bound_to 7965
  139.6933  143.9656  152.2870 LP  0  0  0  0  0  0  0  0  0  0  0  0  # atno 17342 bound_to 10162
  139.9324  144.6733  150.8349 LP  0  0  0  0  0  0  0  0  0  0  0  0  # atno 17343 bound_to 10162
  156.0233  130.5328  150.8338 LP  0  0  0  0  0  0  0  0  0  0  0  0  # atno 17370 bound_to 10713
  157.5507  131.0944  150.9700 LP  0  0  0  0  0  0  0  0  0  0  0  0  # atno 17371 bound_to 10713
  140.0392  134.9863  157.0930 LP  0  0  0  0  0  0  0  0  0  0  0  0  # atno 17394 bound_to 11000
  140.4162  134.1929  155.7163 LP  0  0  0  0  0  0  0  0  0  0  0  0  # atno 17395 bound_to 11000

$$$$
