AV-unprocessed.smi:2829|AV-procd|sdf|10903|dock1
  -GOLD-   2272015353D 1   1.00000     0.00000
 Structure written by MMmdl.
 50 53  0  0  0  0  0  0  0  0  1 V2000
  148.1844  132.4938  155.4757 C   0  0  0  0  0  0  0  0  0  0  0  0
  149.5209  132.9167  154.8251 C   0  0  0  0  0  0  0  0  0  0  0  0
  150.5290  131.7701  155.0498 C   0  0  0  0  0  0  0  0  0  0  0  0
  149.2644  133.1014  153.3150 C   0  0  0  0  0  0  0  0  0  0  0  0
  150.0774  134.2226  155.4207 C   0  0  0  0  0  0  0  0  0  0  0  0
  149.3887  135.4552  155.3615 C   0  0  0  0  0  0  0  0  0  0  0  0
  150.0058  136.5778  155.9382 C   0  0  0  0  0  0  0  0  0  0  0  0
  151.2690  136.4144  156.5403 C   0  0  0  0  0  0  0  0  0  0  0  0
  151.8340  137.5925  157.0915 N   0  0  0  0  0  0  0  0  0  0  0  0
  151.1977  138.6530  157.6261 C   0  0  0  0  0  0  0  0  0  0  0  0
  149.9785  138.8102  157.6316 O   0  0  0  0  0  0  0  0  0  0  0  0
  152.0217  139.5659  158.1700 N   0  0  0  0  0  0  0  0  0  0  0  0
  151.6492  140.8204  158.8255 C   0  0  1  0  0  0  0  0  0  0  0  0
  152.8712  141.7119  159.1182 C   0  0  2  0  0  0  0  0  0  0  0  0
  153.2420  142.0332  160.5409 C   0  0  0  0  0  0  0  0  0  0  0  0
  152.6111  143.4117  160.7555 C   0  0  0  0  0  0  0  0  0  0  0  0
  151.5745  143.4887  159.7796 O   0  0  0  0  0  0  0  0  0  0  0  0
  152.0686  142.8927  158.5839 C   0  0  2  0  0  0  0  0  0  0  0  0
  151.1145  141.9194  157.8808 C   0  0  0  0  0  0  0  0  0  0  0  0
  151.1438  141.7967  156.3452 C   0  0  0  0  0  0  0  0  0  0  0  0
  149.6225  141.6278  156.3628 C   0  0  0  0  0  0  0  0  0  0  0  0
  149.6128  142.2215  157.7747 C   0  0  0  0  0  0  0  0  0  0  0  0
  151.8731  135.2001  156.5630 N   0  0  0  0  0  0  0  0  0  0  0  0
  151.2915  134.1287  156.0160 N   0  0  0  0  0  0  0  0  0  0  0  0
  147.8096  131.5663  155.0408 H   0  0  0  0  0  0  0  0  0  0  0  0
  147.4089  133.2475  155.3331 H   0  0  0  0  0  0  0  0  0  0  0  0
  148.2945  132.3211  156.5471 H   0  0  0  0  0  0  0  0  0  0  0  0
  150.7360  131.6276  156.1111 H   0  0  0  0  0  0  0  0  0  0  0  0
  151.4803  131.9633  154.5532 H   0  0  0  0  0  0  0  0  0  0  0  0
  150.1501  130.8251  154.6591 H   0  0  0  0  0  0  0  0  0  0  0  0
  148.8509  132.1966  152.8684 H   0  0  0  0  0  0  0  0  0  0  0  0
  150.1813  133.3364  152.7733 H   0  0  0  0  0  0  0  0  0  0  0  0
  148.5579  133.9116  153.1306 H   0  0  0  0  0  0  0  0  0  0  0  0
  148.4221  135.5638  154.8948 H   0  0  0  0  0  0  0  0  0  0  0  0
  149.5186  137.5418  155.9143 H   0  0  0  0  0  0  0  0  0  0  0  0
  152.8420  137.6109  157.1359 H   0  0  0  0  0  0  0  0  0  0  0  0
  153.0114  139.3733  158.1137 H   0  0  0  0  0  0  0  0  0  0  0  0
  151.0231  140.6993  159.7123 H   0  0  0  0  0  0  0  0  0  0  0  0
  153.7187  141.4863  158.4679 H   0  0  0  0  0  0  0  0  0  0  0  0
  152.8178  141.3012  161.2291 H   0  0  0  0  0  0  0  0  0  0  0  0
  154.3205  142.0557  160.6992 H   0  0  0  0  0  0  0  0  0  0  0  0
  152.2233  143.5454  161.7655 H   0  0  0  0  0  0  0  0  0  0  0  0
  153.3394  144.2008  160.5620 H   0  0  0  0  0  0  0  0  0  0  0  0
  152.6359  143.5697  157.9439 H   0  0  0  0  0  0  0  0  0  0  0  0
  151.4483  142.7241  155.8581 H   0  0  0  0  0  0  0  0  0  0  0  0
  151.6897  140.9445  155.9410 H   0  0  0  0  0  0  0  0  0  0  0  0
  149.0928  142.2218  155.6177 H   0  0  0  0  0  0  0  0  0  0  0  0
  149.3114  140.5832  156.3379 H   0  0  0  0  0  0  0  0  0  0  0  0
  148.9874  141.6823  158.4866 H   0  0  0  0  0  0  0  0  0  0  0  0
  149.3979  143.2912  157.7793 H   0  0  0  0  0  0  0  0  0  0  0  0
  1  2  1  0  0  0  0
  1 25  1  0  0  0  0
  1 26  1  0  0  0  0
  1 27  1  0  0  0  0
  2  3  1  0  0  0  0
  2  4  1  0  0  0  0
  2  5  1  0  0  0  0
  3 28  1  0  0  0  0
  3 29  1  0  0  0  0
  3 30  1  0  0  0  0
  4 31  1  0  0  0  0
  4 32  1  0  0  0  0
  4 33  1  0  0  0  0
  5 24  1  0  0  0  0
  5  6  2  0  0  0  0
  6  7  1  0  0  0  0
  6 34  1  0  0  0  0
  7  8  2  0  0  0  0
  7 35  1  0  0  0  0
  8  9  1  0  0  0  0
  8 23  1  0  0  0  0
  9 10  1  0  0  0  0
  9 36  1  0  0  0  0
 10 11  2  0  0  0  0
 10 12  1  0  0  0  0
 12 13  1  0  0  0  0
 12 37  1  0  0  0  0
 13 19  1  0  0  0  0
 13 14  1  0  0  0  0
 13 38  1  0  0  0  0
 14 18  1  0  0  0  0
 14 15  1  0  0  0  0
 14 39  1  0  0  0  0
 15 16  1  0  0  0  0
 15 40  1  0  0  0  0
 15 41  1  0  0  0  0
 16 17  1  0  0  0  0
 16 42  1  0  0  0  0
 16 43  1  0  0  0  0
 17 18  1  0  0  0  0
 18 19  1  0  0  0  0
 18 44  1  0  0  0  0
 19 22  1  0  0  0  0
 19 20  1  0  0  0  0
 20 21  1  0  0  0  0
 20 45  1  0  0  0  0
 20 46  1  0  0  0  0
 21 22  1  0  0  0  0
 21 47  1  0  0  0  0
 21 48  1  0  0  0  0
 22 49  1  0  0  0  0
 22 50  1  0  0  0  0
 23 24  2  0  0  0  0
M  END
> <s_m_source_file>
AV-unprocessed.smi

> <i_m_source_file_index>
2829

> <i_lp_mmshare_version>
43012

> <i_f3d_flags>
0

> <s_epik_input>
W0NIM11DKFtDSDNdKShbQ0gzXSljMVtjSF1bY0hdYyhubjEpW05IXUMoPU8pW05IXVtDQEBIXTJbQ0BIXShbQ0gyXVtDSDJdTzMpW0NAQEhdM0MyNFtDSDJdW0NIMl1bQ0gyXTQ=

> <s_epik_cmdline>
J2VwaWtfcHl0aG9uJywgJy1waCcsICc3LjAnLCAnLXRuJywgJzgnLCAnLW1hJywgJzIwMCcsICctbWV0YWxfYmluZGluZycsICctaW1hZScsICc8aW5maWxlLm1hZT4nLCAnLW9tYWUnLCAnPG91dGZpbGUubWFlPic=

> <r_lp_tautomer_probability>
1

> <r_epik_Ionization_Penalty>
0.011915

> <r_epik_Ionization_Penalty_Charging>
0

> <r_epik_Ionization_Penalty_Neutral>
0.011915

> <r_epik_State_Penalty>
0.00486223

> <r_epik_Charging_Adjusted_Penalty>
0.00486223

> <i_epik_Tot_Q>
0

> <i_epik_Tot_abs_Q>
0

> <r_epik_Metal_State_Penalty>
-0

> <b_epik_Metal_Only>
0

> <s_lp_Force_Field>
OPLS_2005

> <r_lp_Energy>
59.5844

> <b_lp_Chiralities_Consistent>
1

> <s_lp_Variant>
AV-unprocessed.smi:2829-6

> <Gold.Version>
5.8.1

> <Gold.Id.Protein>
6NUR|6NUR_protein|mol2

> <Gold.PLP.Fitness>
39.4401

> <Gold.PLP.PLP>
-36.9954

> <Gold.PLP.part.hbond>
-1.3166

> <Gold.PLP.part.metal>
0.0000

> <Gold.PLP.part.buried>
-5.7327

> <Gold.PLP.part.nonpolar>
-30.0170

> <Gold.PLP.part.repulsive>
0.1896

> <Gold.PLP.ligand.clash>
0.0000

> <Gold.PLP.ligand.torsion>
0.2939

> <Gold.PLP.Chemscore.Hbond>
0.9417

> <Gold.PLP.Chemscore.CHOScore>
0.0000

> <Gold.PLP.Chemscore.Metal>
0.0000

> <Gold.Chemscore.Hbonds>
donor molecule, donor type, donor heavy atom, donor atom, acceptor molecule, acceptor atom, score
      P1  H 10752 10763       L1    23  0.89

> <Gold.PLP.Chemscore.Internal.Correction>
0.2074

> <Gold.Rescore>
     Score         DG    S(hbond)    S(metal)    S(lipo)     H(rot)  DE(clash)    DE(int)     intcor
     13.58     -15.46       0.03        0.00     109.97       1.16       0.19       1.68       ----

> <Gold.Chemscore.Fitness>
13.5845

> <Gold.Chemscore.DG>
-15.4614

> <Gold.Chemscore.ZeroCoef>
-5.4800

> <Gold.Chemscore.Hbond>
0.0268

> <Gold.Chemscore.Metal>
0.0000

> <Gold.Chemscore.Lipo>
109.9661

> <Gold.Chemscore.Internal_Hbond>
0.0000

> <Gold.Chemscore.DEClash>
0.1928

> <Gold.Chemscore.DEInternal>
1.6841

> <Gold.Chemscore.Rot>
1.1618

> <Gold.Chemscore.Internal.Correction>
   9.000000E+99

> <Gold.Chemscore.Hbonds>
donor molecule, donor type, donor heavy atom, donor atom, acceptor molecule, acceptor atom, score
      P1  H 10752 10763       L1    23  0.08

> <Gold.Chemscore.Hbond.Weighted>
-0.0895

> <Gold.Chemscore.Metal.Weighted>
-0.0000

> <Gold.Chemscore.Lipo.Weighted>
-12.8660

> <Gold.Chemscore.Internal_Hbond.Weighted>
0.0000

> <Gold.Chemscore.DEClash.Weighted>
0.1928

> <Gold.Chemscore.DEInternal.Weighted>
1.6841

> <Gold.Chemscore.Rot.Weighted>
2.9741

> <Gold.Chemscore.Internal.Correction.Weighted>
   9.000000E+99

> <Gold.Protein.RotatedTorsions>
[ 6907 6896 6895 6894 ] final   69.32 input  -60.11 | X-H torsion
[ 7974 7965 7964 7962 ] final   59.29 input  175.53 | X-H torsion
[ 8008 7997 7996 7995 ] final  -37.93 input   59.86 | X-H torsion
[ 10167 10162 10161 10158 ] final -171.53 input  -65.29 | X-H torsion
[ 10718 10713 10712 10709 ] final   57.92 input   66.30 | X-H torsion
[ 10763 10752 10751 10750 ] final  112.22 input  -60.55 | X-H torsion
[ 11005 11000 10999 10996 ] final  -29.81 input  -57.11 | X-H torsion

> <Gold.Protein.ActiveResidues>
 VAL166  LYS551  ARG553  GLY616  TRP617  ASP618  TYR619  PRO620  LYS621  CYS622 
 ASP623  PHE694  ASN695  SER759  ASP760  ASP761  ALA762  ILE779  LEU786  VAL792 
 PHE793  MET794  SER795  GLU796  ALA797  LYS798  CYS799  TRP800  GLU811  SER814 

> <Gold.Protein.RotatedAtoms>
  152.4678  134.5033  159.9731 H   0  0  0  0  0  0  0  0  0  0  0  0  # atno 6907 bound_to 6896
  151.5067  133.3487  159.2886 H   0  0  0  0  0  0  0  0  0  0  0  0  # atno 6908 bound_to 6896
  150.8672  134.8066  159.7189 H   0  0  0  0  0  0  0  0  0  0  0  0  # atno 6909 bound_to 6896
  145.9088  139.3637  143.0548 H   0  0  0  0  0  0  0  0  0  0  0  0  # atno 7974 bound_to 7965
  154.4045  140.1591  156.2618 H   0  0  0  0  0  0  0  0  0  0  0  0  # atno 8008 bound_to 7997
  155.9030  140.3432  155.6018 H   0  0  0  0  0  0  0  0  0  0  0  0  # atno 8009 bound_to 7997
  155.7426  140.0794  157.2229 H   0  0  0  0  0  0  0  0  0  0  0  0  # atno 8010 bound_to 7997
  139.5797  144.1451  152.1498 H   0  0  0  0  0  0  0  0  0  0  0  0  # atno 10167 bound_to 10162
  157.5554  130.8796  149.9027 H   0  0  0  0  0  0  0  0  0  0  0  0  # atno 10718 bound_to 10713
  153.4746  135.3693  155.2409 H   0  0  0  0  0  0  0  0  0  0  0  0  # atno 10763 bound_to 10752
  154.8756  135.3940  154.3771 H   0  0  0  0  0  0  0  0  0  0  0  0  # atno 10764 bound_to 10752
  153.4365  135.7083  153.6261 H   0  0  0  0  0  0  0  0  0  0  0  0  # atno 10765 bound_to 10752
  140.9328  133.7327  156.0961 H   0  0  0  0  0  0  0  0  0  0  0  0  # atno 11005 bound_to 11000
  145.8698  140.9426  143.0656 LP  0  0  0  0  0  0  0  0  0  0  0  0  # atno 17320 bound_to 7965
  144.6741  140.0640  143.7475 LP  0  0  0  0  0  0  0  0  0  0  0  0  # atno 17321 bound_to 7965
  140.1002  144.5546  150.6994 LP  0  0  0  0  0  0  0  0  0  0  0  0  # atno 17342 bound_to 10162
  140.7076  143.2480  151.4678 LP  0  0  0  0  0  0  0  0  0  0  0  0  # atno 17343 bound_to 10162
  156.0613  130.3699  150.0975 LP  0  0  0  0  0  0  0  0  0  0  0  0  # atno 17370 bound_to 10713
  156.9144  130.9662  151.3558 LP  0  0  0  0  0  0  0  0  0  0  0  0  # atno 17371 bound_to 10713
  140.7839  134.3694  157.5481 LP  0  0  0  0  0  0  0  0  0  0  0  0  # atno 17394 bound_to 11000
  139.8800  134.9099  156.3001 LP  0  0  0  0  0  0  0  0  0  0  0  0  # atno 17395 bound_to 11000

$$$$
