AV-unprocessed.smi:3298|AV-procd|sdf|12647|dock3
  -GOLD-   2272018583D 1   1.00000     0.00000
 Structure written by MMmdl.
 36 37  0  0  0  0  0  0  0  0  2 V2000
  150.9362  141.9392  156.4372 C   0  0  0  0  0  0  0  0  0  0  0  0
  151.3698  142.7102  157.6661 C   0  0  0  0  0  0  0  0  0  0  0  0
  152.1910  142.1406  158.6625 C   0  0  0  0  0  0  0  0  0  0  0  0
  152.5532  142.9070  159.7923 C   0  0  0  0  0  0  0  0  0  0  0  0
  153.3944  142.2947  160.7605 N   0  0  0  0  0  0  0  0  0  0  0  0
  154.1359  141.1802  160.6382 C   0  0  0  0  0  0  0  0  0  0  0  0
  154.2323  140.4985  159.6178 O   0  0  0  0  0  0  0  0  0  0  0  0
  154.7857  140.9019  161.7770 N   0  0  0  0  0  0  0  0  0  0  0  0
  155.6683  139.7579  161.9753 C   0  0  1  0  0  0  0  0  0  0  0  0
  156.1268  139.6922  163.4075 C   0  0  0  0  0  0  0  0  0  0  0  0
  155.8008  138.5464  164.0012 C   0  0  0  0  0  0  0  0  0  0  0  0
  155.0456  137.6150  163.0889 C   0  0  1  0  0  0  0  0  0  0  0  0
  153.6884  137.1709  163.6669 C   0  0  0  0  0  0  0  0  0  0  0  0
  153.8005  136.7681  165.0179 O   0  0  0  0  0  0  0  0  0  0  0  0
  154.9466  138.4012  161.7564 C   0  0  0  0  0  0  0  0  0  0  0  0
  152.0963  144.2466  159.8776 C   0  0  0  0  0  0  0  0  0  0  0  0
  151.2787  144.7628  158.8520 C   0  0  0  0  0  0  0  0  0  0  0  0
  150.9465  143.9864  157.7985 N   0  3  0  0  0  0  0  0  0  0  0  0
  156.5467  139.8410  161.3329 H   0  0  0  0  0  0  0  0  0  0  0  0
  155.6672  136.7317  162.9377 H   0  0  0  0  0  0  0  0  0  0  0  0
  151.4521  140.9806  156.3730 H   0  0  0  0  0  0  0  0  0  0  0  0
  151.1586  142.5053  155.5322 H   0  0  0  0  0  0  0  0  0  0  0  0
  149.8634  141.7480  156.4697 H   0  0  0  0  0  0  0  0  0  0  0  0
  152.5345  141.1208  158.5636 H   0  0  0  0  0  0  0  0  0  0  0  0
  153.4865  142.7931  161.6335 H   0  0  0  0  0  0  0  0  0  0  0  0
  154.6523  141.5139  162.5688 H   0  0  0  0  0  0  0  0  0  0  0  0
  156.6720  140.4992  163.8745 H   0  0  0  0  0  0  0  0  0  0  0  0
  156.0385  138.2849  165.0218 H   0  0  0  0  0  0  0  0  0  0  0  0
  152.9657  137.9844  163.6002 H   0  0  0  0  0  0  0  0  0  0  0  0
  153.2861  136.3393  163.0878 H   0  0  0  0  0  0  0  0  0  0  0  0
  152.9376  136.7663  165.4029 H   0  0  0  0  0  0  0  0  0  0  0  0
  153.9077  138.5411  161.4542 H   0  0  0  0  0  0  0  0  0  0  0  0
  155.4276  137.8441  160.9515 H   0  0  0  0  0  0  0  0  0  0  0  0
  152.3660  144.8906  160.7008 H   0  0  0  0  0  0  0  0  0  0  0  0
  150.8885  145.7700  158.8408 H   0  0  0  0  0  0  0  0  0  0  0  0
  150.3541  144.3826  157.0682 H   0  0  0  0  0  0  0  0  0  0  0  0
  1  2  1  0  0  0  0
  1 21  1  0  0  0  0
  1 22  1  0  0  0  0
  1 23  1  0  0  0  0
  2 18  1  0  0  0  0
  2  3  2  0  0  0  0
  3  4  1  0  0  0  0
  3 24  1  0  0  0  0
  4  5  1  0  0  0  0
  4 16  2  0  0  0  0
  5  6  1  0  0  0  0
  5 25  1  0  0  0  0
  6  7  2  0  0  0  0
  6  8  1  0  0  0  0
  8  9  1  0  0  0  0
  8 26  1  0  0  0  0
  9 19  1  0  0  0  0
  9 15  1  0  0  0  0
  9 10  1  0  0  0  0
 10 11  2  0  0  0  0
 10 27  1  0  0  0  0
 11 12  1  0  0  0  0
 11 28  1  0  0  0  0
 12 20  1  0  0  0  0
 12 13  1  0  0  0  0
 12 15  1  0  0  0  0
 13 14  1  0  0  0  0
 13 29  1  0  0  0  0
 13 30  1  0  0  0  0
 14 31  1  0  0  0  0
 15 32  1  0  0  0  0
 15 33  1  0  0  0  0
 16 17  1  0  0  0  0
 16 34  1  0  0  0  0
 17 18  2  0  0  0  0
 17 35  1  0  0  0  0
 18 36  1  0  0  0  0
M  CHG  1  18   1
M  END
> <s_m_source_file>
AV-unprocessed.smi

> <i_m_source_file_index>
3298

> <i_lp_mmshare_version>
43012

> <i_f3d_flags>
0

> <s_epik_input>
W0NIM11jMVtjSF1jKFtjSF1bY0hdbjEpW05IXUMoPU8pW05IXVtDQEBIXTJbQ0hdPVtDSF1bQ0BASF0oW0NIMl0yKVtDSDJdW09IXQ==

> <s_epik_cmdline>
J2VwaWtfcHl0aG9uJywgJy1waCcsICc3LjAnLCAnLXRuJywgJzgnLCAnLW1hJywgJzIwMCcsICctbWV0YWxfYmluZGluZycsICctaW1hZScsICc8aW5maWxlLm1hZT4nLCAnLW9tYWUnLCAnPG91dGZpbGUubWFlPic=

> <r_epik_Ionization_Penalty>
0.443901

> <r_epik_Ionization_Penalty_Charging>
0.443881

> <r_epik_Ionization_Penalty_Neutral>
1.94967e-05

> <r_epik_State_Penalty>
0.446172

> <r_epik_Charging_Adjusted_Penalty>
0.890053

> <i_epik_Tot_Q>
1

> <i_epik_Tot_abs_Q>
1

> <r_epik_Metal_State_Penalty>
0.675842

> <b_epik_Metal_Only>
0

> <s_lp_Force_Field>
OPLS_2005

> <r_lp_Energy>
27.9023

> <b_lp_Chiralities_Consistent>
1

> <s_lp_Variant>
AV-unprocessed.smi:3298-8

> <Gold.Version>
5.8.1

> <Gold.Id.Protein>
6NUR|6NUR_protein|mol2

> <Gold.PLP.Fitness>
45.2518

> <Gold.PLP.PLP>
-39.5836

> <Gold.PLP.part.hbond>
-3.9931

> <Gold.PLP.part.metal>
0.0000

> <Gold.PLP.part.buried>
-7.0550

> <Gold.PLP.part.nonpolar>
-29.1780

> <Gold.PLP.part.repulsive>
0.0495

> <Gold.PLP.ligand.clash>
0.0000

> <Gold.PLP.ligand.torsion>
0.1724

> <Gold.PLP.Chemscore.Hbond>
2.0000

> <Gold.PLP.Chemscore.CHOScore>
0.0000

> <Gold.PLP.Chemscore.Metal>
0.0000

> <Gold.Chemscore.Hbonds>
donor molecule, donor type, donor heavy atom, donor atom, acceptor molecule, acceptor atom, score
      L1  H    18    36       P1  8028  1.98

> <Gold.PLP.Chemscore.Internal.Correction>
0.0130

> <Gold.Rescore>
     Score         DG    S(hbond)    S(metal)    S(lipo)     H(rot)  DE(clash)    DE(int)     intcor
     14.91     -17.95       1.86        0.00      93.00       1.81       0.06       2.97       ----

> <Gold.Chemscore.Fitness>
14.9137

> <Gold.Chemscore.DG>
-17.9474

> <Gold.Chemscore.ZeroCoef>
-5.4800

> <Gold.Chemscore.Hbond>
1.8591

> <Gold.Chemscore.Metal>
0.0000

> <Gold.Chemscore.Lipo>
93.0045

> <Gold.Chemscore.Internal_Hbond>
0.0000

> <Gold.Chemscore.DEClash>
0.0590

> <Gold.Chemscore.DEInternal>
2.9747

> <Gold.Chemscore.Rot>
1.8061

> <Gold.Chemscore.Internal.Correction>
   9.000000E+99

> <Gold.Chemscore.Hbonds>
donor molecule, donor type, donor heavy atom, donor atom, acceptor molecule, acceptor atom, score
      L1  H    18    36       P1  8028  0.76
      P1  H  7997  8008       L1     7  0.02

> <Gold.Chemscore.Hbond.Weighted>
-6.2095

> <Gold.Chemscore.Metal.Weighted>
-0.0000

> <Gold.Chemscore.Lipo.Weighted>
-10.8815

> <Gold.Chemscore.Internal_Hbond.Weighted>
0.0000

> <Gold.Chemscore.DEClash.Weighted>
0.0590

> <Gold.Chemscore.DEInternal.Weighted>
2.9747

> <Gold.Chemscore.Rot.Weighted>
4.6237

> <Gold.Chemscore.Internal.Correction.Weighted>
   9.000000E+99

> <Gold.Protein.RotatedTorsions>
[ 6907 6896 6895 6894 ] final   81.46 input  -60.11 | X-H torsion
[ 7974 7965 7964 7962 ] final  -57.58 input  175.53 | X-H torsion
[ 8008 7997 7996 7995 ] final -113.39 input   59.86 | X-H torsion
[ 10167 10162 10161 10158 ] final   35.53 input  -65.29 | X-H torsion
[ 10718 10713 10712 10709 ] final -169.92 input   66.30 | X-H torsion
[ 10763 10752 10751 10750 ] final   34.79 input  -60.55 | X-H torsion
[ 11005 11000 10999 10996 ] final  -66.66 input  -57.11 | X-H torsion

> <Gold.Protein.ActiveResidues>
 VAL166  LYS551  ARG553  GLY616  TRP617  ASP618  TYR619  PRO620  LYS621  CYS622 
 ASP623  PHE694  ASN695  SER759  ASP760  ASP761  ALA762  ILE779  LEU786  VAL792 
 PHE793  MET794  SER795  GLU796  ALA797  LYS798  CYS799  TRP800  GLU811  SER814 

> <Gold.Protein.RotatedAtoms>
  152.5269  134.3200  159.9144 H   0  0  0  0  0  0  0  0  0  0  0  0  # atno 6907 bound_to 6896
  151.3149  133.4058  159.2657 H   0  0  0  0  0  0  0  0  0  0  0  0  # atno 6908 bound_to 6896
  151.0007  134.9336  159.8009 H   0  0  0  0  0  0  0  0  0  0  0  0  # atno 6909 bound_to 6896
  145.8493  140.8363  142.9994 H   0  0  0  0  0  0  0  0  0  0  0  0  # atno 7974 bound_to 7965
  155.0199  140.0393  157.2433 H   0  0  0  0  0  0  0  0  0  0  0  0  # atno 8008 bound_to 7997
  154.7387  140.2744  155.6369 H   0  0  0  0  0  0  0  0  0  0  0  0  # atno 8009 bound_to 7997
  156.2859  140.2670  156.2108 H   0  0  0  0  0  0  0  0  0  0  0  0  # atno 8010 bound_to 7997
  140.4213  144.1455  150.6148 H   0  0  0  0  0  0  0  0  0  0  0  0  # atno 10167 bound_to 10162
  156.7186  130.9261  151.3095 H   0  0  0  0  0  0  0  0  0  0  0  0  # atno 10718 bound_to 10713
  153.0148  135.6351  154.1725 H   0  0  0  0  0  0  0  0  0  0  0  0  # atno 10763 bound_to 10752
  154.1465  135.2831  155.3148 H   0  0  0  0  0  0  0  0  0  0  0  0  # atno 10764 bound_to 10752
  154.6086  135.5564  153.7510 H   0  0  0  0  0  0  0  0  0  0  0  0  # atno 10765 bound_to 10752
  141.1488  133.6703  156.6174 H   0  0  0  0  0  0  0  0  0  0  0  0  # atno 11005 bound_to 11000
  144.6730  140.0929  143.7464 LP  0  0  0  0  0  0  0  0  0  0  0  0  # atno 17320 bound_to 7965
  145.9375  139.2647  143.1288 LP  0  0  0  0  0  0  0  0  0  0  0  0  # atno 17321 bound_to 7965
  140.4530  143.2479  151.9322 LP  0  0  0  0  0  0  0  0  0  0  0  0  # atno 17342 bound_to 10162
  139.4782  144.5543  151.8338 LP  0  0  0  0  0  0  0  0  0  0  0  0  # atno 17343 bound_to 10162
  157.6907  130.9231  150.0506 LP  0  0  0  0  0  0  0  0  0  0  0  0  # atno 17370 bound_to 10713
  156.1610  130.3644  149.9299 LP  0  0  0  0  0  0  0  0  0  0  0  0  # atno 17371 bound_to 10713
  140.3567  134.7722  157.4505 LP  0  0  0  0  0  0  0  0  0  0  0  0  # atno 17394 bound_to 11000
  140.0817  134.5722  155.8533 LP  0  0  0  0  0  0  0  0  0  0  0  0  # atno 17395 bound_to 11000

$$$$
