AV-unprocessed.smi:1934|AV-procd|sdf|7826|dock2
  -GOLD-   22720 9573D 1   1.00000     0.00000
 Structure written by MMmdl.
 46 47  0  0  0  0  0  0  0  0  2 V2000
  143.3754  132.6413  149.1989 C   0  0  0  0  0  0  0  0  0  0  0  0
  144.4381  133.1385  150.1339 C   0  0  0  0  0  0  0  0  0  0  0  0
  144.6930  134.4818  150.5354 C   0  0  0  0  0  0  0  0  0  0  0  0
  145.7616  134.3464  151.3789 C   0  0  0  0  0  0  0  0  0  0  0  0
  146.4370  135.3079  152.0632 N   0  0  0  0  0  0  0  0  0  0  0  0
  145.9463  136.2582  152.8777 C   0  0  0  0  0  0  0  0  0  0  0  0
  144.7581  136.4167  153.1590 O   0  0  0  0  0  0  0  0  0  0  0  0
  146.9239  137.0423  153.3544 N   0  0  0  0  0  0  0  0  0  0  0  0
  146.7211  138.1734  154.2525 C   0  0  0  0  0  0  0  0  0  0  0  0
  147.2293  139.4881  153.6283 C   0  0  0  0  0  0  0  0  0  0  0  0
  148.6414  139.7801  153.9826 N   0  3  2  0  0  0  0  0  0  0  0  0
  149.4487  138.5399  154.1187 C   0  0  0  0  0  0  0  0  0  0  0  0
  150.9323  138.8649  154.3521 C   0  0  0  0  0  0  0  0  0  0  0  0
  151.1097  139.7664  155.5800 C   0  0  0  0  0  0  0  0  0  0  0  0
  150.2508  141.0338  155.4378 C   0  0  2  0  0  0  0  0  0  0  0  0
  150.3886  141.9441  156.6664 C   0  0  0  0  0  0  0  0  0  0  0  0
  148.7785  140.6551  155.1786 C   0  0  0  0  0  0  0  0  0  0  0  0
  146.0950  133.0125  151.4642 N   0  0  0  0  0  0  0  0  0  0  0  0
  147.1506  132.3717  152.2246 C   0  0  0  0  0  0  0  0  0  0  0  0
  145.2758  132.2696  150.6889 N   0  0  0  0  0  0  0  0  0  0  0  0
  142.7488  133.4600  148.8443 H   0  0  0  0  0  0  0  0  0  0  0  0
  142.7261  131.9167  149.6911 H   0  0  0  0  0  0  0  0  0  0  0  0
  143.8150  132.1587  148.3256 H   0  0  0  0  0  0  0  0  0  0  0  0
  144.1674  135.3776  150.2411 H   0  0  0  0  0  0  0  0  0  0  0  0
  147.4361  135.3149  151.9197 H   0  0  0  0  0  0  0  0  0  0  0  0
  147.8741  136.8426  153.0767 H   0  0  0  0  0  0  0  0  0  0  0  0
  145.6648  138.2561  154.5139 H   0  0  0  0  0  0  0  0  0  0  0  0
  147.2530  137.9485  155.1760 H   0  0  0  0  0  0  0  0  0  0  0  0
  147.1149  139.4724  152.5431 H   0  0  0  0  0  0  0  0  0  0  0  0
  146.6016  140.3040  153.9899 H   0  0  0  0  0  0  0  0  0  0  0  0
  149.0597  137.9395  154.9427 H   0  0  0  0  0  0  0  0  0  0  0  0
  149.3560  137.9364  153.2150 H   0  0  0  0  0  0  0  0  0  0  0  0
  151.4994  137.9426  154.4826 H   0  0  0  0  0  0  0  0  0  0  0  0
  151.3436  139.3587  153.4705 H   0  0  0  0  0  0  0  0  0  0  0  0
  150.8229  139.2204  156.4801 H   0  0  0  0  0  0  0  0  0  0  0  0
  152.1613  140.0312  155.6969 H   0  0  0  0  0  0  0  0  0  0  0  0
  150.6132  141.5925  154.5731 H   0  0  0  0  0  0  0  0  0  0  0  0
  150.0303  141.4492  157.5697 H   0  0  0  0  0  0  0  0  0  0  0  0
  149.8152  142.8631  156.5407 H   0  0  0  0  0  0  0  0  0  0  0  0
  151.4290  142.2257  156.8320 H   0  0  0  0  0  0  0  0  0  0  0  0
  148.2006  141.5684  155.0422 H   0  0  0  0  0  0  0  0  0  0  0  0
  148.3609  140.1465  156.0494 H   0  0  0  0  0  0  0  0  0  0  0  0
  147.1560  132.7546  153.2453 H   0  0  0  0  0  0  0  0  0  0  0  0
  148.1138  132.5813  151.7591 H   0  0  0  0  0  0  0  0  0  0  0  0
  146.9987  131.2918  152.2561 H   0  0  0  0  0  0  0  0  0  0  0  0
  149.0340  140.2848  153.2006 H   0  0  0  0  0  0  0  0  0  0  0  0
  1  2  1  0  0  0  0
  1 21  1  0  0  0  0
  1 22  1  0  0  0  0
  1 23  1  0  0  0  0
  2 20  2  0  0  0  0
  2  3  1  0  0  0  0
  3  4  2  0  0  0  0
  3 24  1  0  0  0  0
  4  5  1  0  0  0  0
  4 18  1  0  0  0  0
  5  6  1  0  0  0  0
  5 25  1  0  0  0  0
  6  7  2  0  0  0  0
  6  8  1  0  0  0  0
  8  9  1  0  0  0  0
  8 26  1  0  0  0  0
  9 10  1  0  0  0  0
  9 27  1  0  0  0  0
  9 28  1  0  0  0  0
 10 11  1  0  0  0  0
 10 29  1  0  0  0  0
 10 30  1  0  0  0  0
 11 17  1  0  0  0  0
 11 12  1  0  0  0  0
 11 46  1  0  0  0  0
 12 13  1  0  0  0  0
 12 31  1  0  0  0  0
 12 32  1  0  0  0  0
 13 14  1  0  0  0  0
 13 33  1  0  0  0  0
 13 34  1  0  0  0  0
 14 15  1  0  0  0  0
 14 35  1  0  0  0  0
 14 36  1  0  0  0  0
 15 16  1  0  0  0  0
 15 17  1  0  0  0  0
 15 37  1  0  0  0  0
 16 38  1  0  0  0  0
 16 39  1  0  0  0  0
 16 40  1  0  0  0  0
 17 41  1  0  0  0  0
 17 42  1  0  0  0  0
 18 19  1  0  0  0  0
 18 20  1  0  0  0  0
 19 43  1  0  0  0  0
 19 44  1  0  0  0  0
 19 45  1  0  0  0  0
M  CHG  1  11   1
M  END
> <s_m_source_file>
AV-unprocessed.smi

> <i_m_source_file_index>
1934

> <i_lp_mmshare_version>
43012

> <i_f3d_flags>
0

> <s_epik_input>
W0NIM11jMVtjSF1jKG4objEpW0NIM10pW05IXUMoPU8pW05IXVtDSDJdW0NIMl1OMltDSDJdW0NIMl1bQ0gyXVtDQEBIXShbQ0gzXSlbQ0gyXTI=

> <s_epik_cmdline>
J2VwaWtfcHl0aG9uJywgJy1waCcsICc3LjAnLCAnLXRuJywgJzgnLCAnLW1hJywgJzIwMCcsICctbWV0YWxfYmluZGluZycsICctaW1hZScsICc8aW5maWxlLm1hZT4nLCAnLW9tYWUnLCAnPG91dGZpbGUubWFlPic=

> <r_lp_tautomer_probability>
1

> <r_epik_Ionization_Penalty>
0.00202955

> <r_epik_Ionization_Penalty_Charging>
0.00195276

> <r_epik_Ionization_Penalty_Neutral>
7.67968e-05

> <r_epik_State_Penalty>
0.00133177

> <r_epik_Charging_Adjusted_Penalty>
0.00328452

> <i_epik_Tot_Q>
1

> <i_epik_Tot_abs_Q>
1

> <r_epik_Metal_State_Penalty>
-0

> <b_epik_Metal_Only>
0

> <s_lp_Force_Field>
OPLS_2005

> <r_lp_Energy>
17.6546

> <b_lp_Chiralities_Consistent>
1

> <s_lp_Variant>
AV-unprocessed.smi:1934-4

> <Gold.Version>
5.8.1

> <Gold.Id.Protein>
6NUR|6NUR_protein|mol2

> <Gold.PLP.Fitness>
41.1732

> <Gold.PLP.PLP>
-34.9806

> <Gold.PLP.part.hbond>
-3.0000

> <Gold.PLP.part.metal>
0.0000

> <Gold.PLP.part.buried>
0.3211

> <Gold.PLP.part.nonpolar>
-32.1997

> <Gold.PLP.part.repulsive>
0.4183

> <Gold.PLP.ligand.clash>
0.0000

> <Gold.PLP.ligand.torsion>
1.0531

> <Gold.PLP.Chemscore.Hbond>
2.7520

> <Gold.PLP.Chemscore.CHOScore>
0.0000

> <Gold.PLP.Chemscore.Metal>
0.0000

> <Gold.Chemscore.Hbonds>
donor molecule, donor type, donor heavy atom, donor atom, acceptor molecule, acceptor atom, score
      L1  H     5    25       P1  7948  1.00
      L1  H     8    26       P1  7948  0.96
      L1  H    11    46       P1  7957  0.63

> <Gold.PLP.Chemscore.Internal.Correction>
0.0428

> <Gold.Rescore>
     Score         DG    S(hbond)    S(metal)    S(lipo)     H(rot)  DE(clash)    DE(int)     intcor
     19.06     -20.50       2.64        0.00      85.42       1.48       0.36       1.08       ----

> <Gold.Chemscore.Fitness>
19.0585

> <Gold.Chemscore.DG>
-20.5017

> <Gold.Chemscore.ZeroCoef>
-5.4800

> <Gold.Chemscore.Hbond>
2.6425

> <Gold.Chemscore.Metal>
0.0000

> <Gold.Chemscore.Lipo>
85.4215

> <Gold.Chemscore.Internal_Hbond>
0.0000

> <Gold.Chemscore.DEClash>
0.3611

> <Gold.Chemscore.DEInternal>
1.0822

> <Gold.Chemscore.Rot>
1.4838

> <Gold.Chemscore.Internal.Correction>
   9.000000E+99

> <Gold.Chemscore.Hbonds>
donor molecule, donor type, donor heavy atom, donor atom, acceptor molecule, acceptor atom, score
      L1  H     5    25       P1  7948  0.93
      L1  H     8    26       P1  7948  0.92
      L1  H    11    46       P1  7957  0.61

> <Gold.Chemscore.Hbond.Weighted>
-8.8259

> <Gold.Chemscore.Metal.Weighted>
-0.0000

> <Gold.Chemscore.Lipo.Weighted>
-9.9943

> <Gold.Chemscore.Internal_Hbond.Weighted>
0.0000

> <Gold.Chemscore.DEClash.Weighted>
0.3611

> <Gold.Chemscore.DEInternal.Weighted>
1.0822

> <Gold.Chemscore.Rot.Weighted>
3.7985

> <Gold.Chemscore.Internal.Correction.Weighted>
   9.000000E+99

> <Gold.Protein.RotatedTorsions>
[ 6907 6896 6895 6894 ] final  -45.40 input  -60.11 | X-H torsion
[ 7974 7965 7964 7962 ] final    7.24 input  175.53 | X-H torsion
[ 8008 7997 7996 7995 ] final   89.32 input   59.86 | X-H torsion
[ 10167 10162 10161 10158 ] final   31.88 input  -65.29 | X-H torsion
[ 10718 10713 10712 10709 ] final  -13.98 input   66.30 | X-H torsion
[ 10763 10752 10751 10750 ] final   44.14 input  -60.55 | X-H torsion
[ 11005 11000 10999 10996 ] final -144.39 input  -57.11 | X-H torsion

> <Gold.Protein.ActiveResidues>
 VAL166  LYS551  ARG553  GLY616  TRP617  ASP618  TYR619  PRO620  LYS621  CYS622 
 ASP623  PHE694  ASN695  SER759  ASP760  ASP761  ALA762  ILE779  LEU786  VAL792 
 PHE793  MET794  SER795  GLU796  ALA797  LYS798  CYS799  TRP800  GLU811  SER814 

> <Gold.Protein.RotatedAtoms>
  150.9224  134.8641  159.7497 H   0  0  0  0  0  0  0  0  0  0  0  0  # atno 6907 bound_to 6896
  152.4999  134.4199  159.9487 H   0  0  0  0  0  0  0  0  0  0  0  0  # atno 6908 bound_to 6896
  151.4232  133.3652  159.2794 H   0  0  0  0  0  0  0  0  0  0  0  0  # atno 6909 bound_to 6896
  146.2428  140.0113  142.8406 H   0  0  0  0  0  0  0  0  0  0  0  0  # atno 7974 bound_to 7965
  155.9985  140.3362  155.6822 H   0  0  0  0  0  0  0  0  0  0  0  0  # atno 8008 bound_to 7997
  155.6323  140.0686  157.2663 H   0  0  0  0  0  0  0  0  0  0  0  0  # atno 8009 bound_to 7997
  154.4241  140.1757  156.1473 H   0  0  0  0  0  0  0  0  0  0  0  0  # atno 8010 bound_to 7997
  140.4549  144.0994  150.6199 H   0  0  0  0  0  0  0  0  0  0  0  0  # atno 10167 bound_to 10162
  156.6225  130.4879  149.6159 H   0  0  0  0  0  0  0  0  0  0  0  0  # atno 10718 bound_to 10713
  152.9847  135.6080  154.3225 H   0  0  0  0  0  0  0  0  0  0  0  0  # atno 10763 bound_to 10752
  154.2934  135.2774  155.2646 H   0  0  0  0  0  0  0  0  0  0  0  0  # atno 10764 bound_to 10752
  154.4931  135.5887  153.6531 H   0  0  0  0  0  0  0  0  0  0  0  0  # atno 10765 bound_to 10752
  140.8029  134.2836  157.4971 H   0  0  0  0  0  0  0  0  0  0  0  0  # atno 11005 bound_to 11000
  145.1325  140.9526  143.4536 LP  0  0  0  0  0  0  0  0  0  0  0  0  # atno 17320 bound_to 7965
  145.0373  139.3289  143.5994 LP  0  0  0  0  0  0  0  0  0  0  0  0  # atno 17321 bound_to 7965
  140.4163  143.2632  151.9770 LP  0  0  0  0  0  0  0  0  0  0  0  0  # atno 17342 bound_to 10162
  139.4800  144.5870  151.7836 LP  0  0  0  0  0  0  0  0  0  0  0  0  # atno 17343 bound_to 10162
  156.2300  130.6789  151.1454 LP  0  0  0  0  0  0  0  0  0  0  0  0  # atno 17370 bound_to 10713
  157.7223  131.0673  150.6081 LP  0  0  0  0  0  0  0  0  0  0  0  0  # atno 17371 bound_to 10713
  139.8720  134.9439  156.3867 LP  0  0  0  0  0  0  0  0  0  0  0  0  # atno 17394 bound_to 11000
  140.9277  133.7601  155.9985 LP  0  0  0  0  0  0  0  0  0  0  0  0  # atno 17395 bound_to 11000

$$$$
