AV-unprocessed.smi:861|AV-procd|sdf|3969|dock7
  -GOLD-   22720 1443D 1   1.00000     0.00000
 Structure written by MMmdl.
 44 45  0  0  0  0  0  0  0  0  2 V2000
  144.8876  132.2219  149.5286 C   0  0  0  0  0  0  0  0  0  0  0  0
  144.8606  132.8702  150.9237 C   0  0  0  0  0  0  0  0  0  0  0  0
  143.4091  133.0709  151.3870 C   0  0  0  0  0  0  0  0  0  0  0  0
  145.6395  134.2017  150.9726 C   0  0  0  0  0  0  0  0  0  0  0  0
  145.7425  134.8153  152.3833 C   0  0  0  0  0  0  0  0  0  0  0  0
  147.0901  134.6472  152.9841 N   0  3  2  0  0  0  0  0  0  0  0  0
  147.5619  133.2434  152.9186 C   0  0  0  0  0  0  0  0  0  0  0  0
  148.9794  133.1231  153.5003 C   0  0  0  0  0  0  0  0  0  0  0  0
  148.9869  133.6153  154.8339 O   0  0  0  0  0  0  0  0  0  0  0  0
  148.6366  134.9939  154.9016 C   0  0  2  0  0  0  0  0  0  0  0  0
  148.7639  135.4529  156.3609 C   0  0  0  0  0  0  0  0  0  0  0  0
  150.0951  135.9699  156.6469 N   0  0  0  0  0  0  0  0  0  0  0  0
  150.6638  136.9667  155.8429 C   0  0  0  0  0  0  0  0  0  0  0  0
  149.8207  137.7516  155.0312 C   0  0  0  0  0  0  0  0  0  0  0  0
  150.4191  138.7475  154.2401 C   0  0  0  0  0  0  0  0  0  0  0  0
  151.8171  138.8826  154.3209 C   0  0  0  0  0  0  0  0  0  0  0  0
  152.5790  138.1000  155.1182 N   0  0  0  0  0  0  0  0  0  0  0  0
  152.0078  137.1525  155.8707 N   0  0  0  0  0  0  0  0  0  0  0  0
  147.1982  135.1610  154.3728 C   0  0  0  0  0  0  0  0  0  0  0  0
  144.4659  132.8871  148.7742 H   0  0  0  0  0  0  0  0  0  0  0  0
  144.3066  131.2993  149.5156 H   0  0  0  0  0  0  0  0  0  0  0  0
  145.8993  131.9638  149.2179 H   0  0  0  0  0  0  0  0  0  0  0  0
  145.3278  132.1776  151.6250 H   0  0  0  0  0  0  0  0  0  0  0  0
  142.8765  133.7632  150.7340 H   0  0  0  0  0  0  0  0  0  0  0  0
  143.3692  133.4711  152.4006 H   0  0  0  0  0  0  0  0  0  0  0  0
  142.8623  132.1274  151.3881 H   0  0  0  0  0  0  0  0  0  0  0  0
  146.6379  134.0552  150.5582 H   0  0  0  0  0  0  0  0  0  0  0  0
  145.1408  134.9109  150.3127 H   0  0  0  0  0  0  0  0  0  0  0  0
  145.4719  135.8721  152.3664 H   0  0  0  0  0  0  0  0  0  0  0  0
  145.0195  134.3222  153.0325 H   0  0  0  0  0  0  0  0  0  0  0  0
  146.8753  132.6010  153.4728 H   0  0  0  0  0  0  0  0  0  0  0  0
  147.5615  132.8973  151.8843 H   0  0  0  0  0  0  0  0  0  0  0  0
  149.2963  132.0799  153.5063 H   0  0  0  0  0  0  0  0  0  0  0  0
  149.7000  133.6717  152.8917 H   0  0  0  0  0  0  0  0  0  0  0  0
  149.3191  135.5798  154.2825 H   0  0  0  0  0  0  0  0  0  0  0  0
  148.0382  136.2434  156.5569 H   0  0  0  0  0  0  0  0  0  0  0  0
  148.5344  134.6292  157.0384 H   0  0  0  0  0  0  0  0  0  0  0  0
  150.5748  135.6613  157.4801 H   0  0  0  0  0  0  0  0  0  0  0  0
  148.7516  137.5986  155.0146 H   0  0  0  0  0  0  0  0  0  0  0  0
  149.8299  139.3837  153.5966 H   0  0  0  0  0  0  0  0  0  0  0  0
  152.3340  139.6303  153.7376 H   0  0  0  0  0  0  0  0  0  0  0  0
  146.9274  136.2154  154.4089 H   0  0  0  0  0  0  0  0  0  0  0  0
  146.4952  134.6282  155.0157 H   0  0  0  0  0  0  0  0  0  0  0  0
  147.7287  135.1874  152.4178 H   0  0  0  0  0  0  0  0  0  0  0  0
  1  2  1  0  0  0  0
  1 20  1  0  0  0  0
  1 21  1  0  0  0  0
  1 22  1  0  0  0  0
  2  3  1  0  0  0  0
  2  4  1  0  0  0  0
  2 23  1  0  0  0  0
  3 24  1  0  0  0  0
  3 25  1  0  0  0  0
  3 26  1  0  0  0  0
  4  5  1  0  0  0  0
  4 27  1  0  0  0  0
  4 28  1  0  0  0  0
  5  6  1  0  0  0  0
  5 29  1  0  0  0  0
  5 30  1  0  0  0  0
  6 19  1  0  0  0  0
  6  7  1  0  0  0  0
  6 44  1  0  0  0  0
  7  8  1  0  0  0  0
  7 31  1  0  0  0  0
  7 32  1  0  0  0  0
  8  9  1  0  0  0  0
  8 33  1  0  0  0  0
  8 34  1  0  0  0  0
  9 10  1  0  0  0  0
 10 11  1  0  0  0  0
 10 19  1  0  0  0  0
 10 35  1  0  0  0  0
 11 12  1  0  0  0  0
 11 36  1  0  0  0  0
 11 37  1  0  0  0  0
 12 13  1  0  0  0  0
 12 38  1  0  0  0  0
 13 18  1  0  0  0  0
 13 14  2  0  0  0  0
 14 15  1  0  0  0  0
 14 39  1  0  0  0  0
 15 16  2  0  0  0  0
 15 40  1  0  0  0  0
 16 17  1  0  0  0  0
 16 41  1  0  0  0  0
 17 18  2  0  0  0  0
 19 42  1  0  0  0  0
 19 43  1  0  0  0  0
M  CHG  1   6   1
M  END
> <s_m_source_file>
AV-unprocessed.smi

> <i_m_source_file_index>
861

> <i_lp_mmshare_version>
43012

> <i_f3d_flags>
0

> <s_epik_input>
W0NIM11bQ0hdKFtDSDNdKVtDSDJdW0NIMl1OMVtDSDJdW0NIMl1PW0NASF0oW0NIMl0xKVtDSDJdW05IXWMyW2NIXVtjSF1bY0hdbm4y

> <s_epik_cmdline>
J2VwaWtfcHl0aG9uJywgJy1waCcsICc3LjAnLCAnLXRuJywgJzgnLCAnLW1hJywgJzIwMCcsICctbWV0YWxfYmluZGluZycsICctaW1hZScsICc8aW5maWxlLm1hZT4nLCAnLW9tYWUnLCAnPG91dGZpbGUubWFlPic=

> <r_lp_tautomer_probability>
0.999978

> <r_epik_Ionization_Penalty>
0.114704

> <r_epik_Ionization_Penalty_Charging>
0.0953451

> <r_epik_Ionization_Penalty_Neutral>
0.0193593

> <r_epik_State_Penalty>
0.104983

> <r_epik_Charging_Adjusted_Penalty>
0.200328

> <i_epik_Tot_Q>
1

> <i_epik_Tot_abs_Q>
1

> <r_epik_Metal_State_Penalty>
0.100113

> <b_epik_Metal_Only>
0

> <s_lp_Force_Field>
OPLS_2005

> <r_lp_Energy>
25.0457

> <b_lp_Chiralities_Consistent>
1

> <s_lp_Variant>
AV-unprocessed.smi:861-4

> <Gold.Version>
5.8.1

> <Gold.Id.Protein>
6NUR|6NUR_protein|mol2

> <Gold.PLP.Fitness>
40.7465

> <Gold.PLP.PLP>
-33.3645

> <Gold.PLP.part.hbond>
-3.0000

> <Gold.PLP.part.metal>
0.0000

> <Gold.PLP.part.buried>
-5.3619

> <Gold.PLP.part.nonpolar>
-23.5769

> <Gold.PLP.part.repulsive>
0.2642

> <Gold.PLP.ligand.clash>
0.0000

> <Gold.PLP.ligand.torsion>
0.8471

> <Gold.PLP.Chemscore.Hbond>
2.9920

> <Gold.PLP.Chemscore.CHOScore>
0.0000

> <Gold.PLP.Chemscore.Metal>
0.0000

> <Gold.Chemscore.Hbonds>
donor molecule, donor type, donor heavy atom, donor atom, acceptor molecule, acceptor atom, score
      L1  H     6    44       P1  7948  2.00
      P1  H 10752 10765       L1    18  0.48

> <Gold.PLP.Chemscore.Internal.Correction>
0.1001

> <Gold.Rescore>
     Score         DG    S(hbond)    S(metal)    S(lipo)     H(rot)  DE(clash)    DE(int)     intcor
     15.00     -16.16       1.70        0.00      80.24       1.71       0.26       0.91       ----

> <Gold.Chemscore.Fitness>
14.9973

> <Gold.Chemscore.DG>
-16.1617

> <Gold.Chemscore.ZeroCoef>
-5.4800

> <Gold.Chemscore.Hbond>
1.6999

> <Gold.Chemscore.Metal>
0.0000

> <Gold.Chemscore.Lipo>
80.2420

> <Gold.Chemscore.Internal_Hbond>
0.0000

> <Gold.Chemscore.DEClash>
0.2565

> <Gold.Chemscore.DEInternal>
0.9080

> <Gold.Chemscore.Rot>
1.7127

> <Gold.Chemscore.Internal.Correction>
   9.000000E+99

> <Gold.Chemscore.Hbonds>
donor molecule, donor type, donor heavy atom, donor atom, acceptor molecule, acceptor atom, score
      L1  H     6    44       P1  7948  0.99
      P1  H 10752 10765       L1    18  0.05

> <Gold.Chemscore.Hbond.Weighted>
-5.6778

> <Gold.Chemscore.Metal.Weighted>
-0.0000

> <Gold.Chemscore.Lipo.Weighted>
-9.3883

> <Gold.Chemscore.Internal_Hbond.Weighted>
0.0000

> <Gold.Chemscore.DEClash.Weighted>
0.2565

> <Gold.Chemscore.DEInternal.Weighted>
0.9080

> <Gold.Chemscore.Rot.Weighted>
4.3844

> <Gold.Chemscore.Internal.Correction.Weighted>
   9.000000E+99

> <Gold.Protein.RotatedTorsions>
[ 6907 6896 6895 6894 ] final  -32.25 input  -60.11 | X-H torsion
[ 7974 7965 7964 7962 ] final  177.60 input  175.53 | X-H torsion
[ 8008 7997 7996 7995 ] final  -91.54 input   59.86 | X-H torsion
[ 10167 10162 10161 10158 ] final    0.34 input  -65.29 | X-H torsion
[ 10718 10713 10712 10709 ] final  -78.48 input   66.30 | X-H torsion
[ 10763 10752 10751 10750 ] final -153.21 input  -60.55 | X-H torsion
[ 11005 11000 10999 10996 ] final   21.85 input  -57.11 | X-H torsion

> <Gold.Protein.ActiveResidues>
 VAL166  LYS551  ARG553  GLY616  TRP617  ASP618  TYR619  PRO620  LYS621  CYS622 
 ASP623  PHE694  ASN695  SER759  ASP760  ASP761  ALA762  ILE779  LEU786  VAL792 
 PHE793  MET794  SER795  GLU796  ALA797  LYS798  CYS799  TRP800  GLU811  SER814 

> <Gold.Protein.RotatedAtoms>
  151.0813  134.9860  159.8357 H   0  0  0  0  0  0  0  0  0  0  0  0  # atno 6907 bound_to 6896
  152.5420  134.2178  159.8785 H   0  0  0  0  0  0  0  0  0  0  0  0  # atno 6908 bound_to 6896
  151.2208  133.4459  159.2634 H   0  0  0  0  0  0  0  0  0  0  0  0  # atno 6909 bound_to 6896
  144.7167  140.0271  143.6439 H   0  0  0  0  0  0  0  0  0  0  0  0  # atno 7974 bound_to 7965
  154.7120  140.0518  157.0559 H   0  0  0  0  0  0  0  0  0  0  0  0  # atno 8008 bound_to 7997
  155.0542  140.3182  155.4663 H   0  0  0  0  0  0  0  0  0  0  0  0  # atno 8009 bound_to 7997
  156.2792  140.2110  156.5668 H   0  0  0  0  0  0  0  0  0  0  0  0  # atno 8010 bound_to 7997
  140.6733  143.6987  150.7969 H   0  0  0  0  0  0  0  0  0  0  0  0  # atno 10167 bound_to 10162
  156.0116  130.4519  150.3503 H   0  0  0  0  0  0  0  0  0  0  0  0  # atno 10718 bound_to 10713
  154.7943  135.3218  154.7705 H   0  0  0  0  0  0  0  0  0  0  0  0  # atno 10763 bound_to 10752
  153.8387  135.6873  153.4810 H   0  0  0  0  0  0  0  0  0  0  0  0  # atno 10764 bound_to 10752
  153.1627  135.4654  154.9735 H   0  0  0  0  0  0  0  0  0  0  0  0  # atno 10765 bound_to 10752
  140.3870  134.1859  155.7663 H   0  0  0  0  0  0  0  0  0  0  0  0  # atno 11005 bound_to 11000
  146.0133  139.3188  143.0857 LP  0  0  0  0  0  0  0  0  0  0  0  0  # atno 17320 bound_to 7965
  145.8656  140.9450  143.0677 LP  0  0  0  0  0  0  0  0  0  0  0  0  # atno 17321 bound_to 7965
  140.0676  143.5093  152.2596 LP  0  0  0  0  0  0  0  0  0  0  0  0  # atno 17342 bound_to 10162
  139.6012  144.7583  151.3167 LP  0  0  0  0  0  0  0  0  0  0  0  0  # atno 17343 bound_to 10162
  157.1595  131.0341  151.2847 LP  0  0  0  0  0  0  0  0  0  0  0  0  # atno 17370 bound_to 10713
  157.4323  130.7497  149.7000 LP  0  0  0  0  0  0  0  0  0  0  0  0  # atno 17371 bound_to 10713
  141.1904  133.8218  157.0920 LP  0  0  0  0  0  0  0  0  0  0  0  0  # atno 17394 bound_to 11000
  140.0435  134.9842  157.1006 LP  0  0  0  0  0  0  0  0  0  0  0  0  # atno 17395 bound_to 11000

$$$$
