AV-unprocessed.smi:3287|AV-procd|sdf|12597|dock9
  -GOLD-   2272018523D 1   1.00000     0.00000
 Structure written by MMmdl.
 43 44  0  0  0  0  0  0  0  0  2 V2000
  151.1942  141.9977  156.9955 C   0  0  0  0  0  0  0  0  0  0  0  0
  150.5118  141.3186  155.7967 C   0  0  1  0  0  0  0  0  0  0  0  0
  150.9708  139.8573  155.6279 C   0  0  0  0  0  0  0  0  0  0  0  0
  150.3525  139.2102  154.3781 C   0  0  0  0  0  0  0  0  0  0  0  0
  148.8122  139.3000  154.3905 C   0  0  2  0  0  0  0  0  0  0  0  0
  148.2183  138.7474  153.1523 N   0  3  0  0  0  0  0  0  0  0  0  0
  146.7413  138.7855  153.0781 C   0  0  0  0  0  0  0  0  0  0  0  0
  146.2354  138.3220  151.7010 C   0  0  1  0  0  0  0  0  0  0  0  0
  147.3454  138.1253  150.8459 O   0  0  0  0  0  0  0  0  0  0  0  0
  145.3839  137.0674  151.8231 C   0  0  0  0  0  0  0  0  0  0  0  0
  144.2591  137.0247  152.6760 C   0  0  0  0  0  0  0  0  0  0  0  0
  143.5074  135.8345  152.7415 C   0  0  0  0  0  0  0  0  0  0  0  0
  143.8052  134.7297  152.0250 N   0  0  0  0  0  0  0  0  0  0  0  0
  144.8791  134.7770  151.2085 C   0  0  0  0  0  0  0  0  0  0  0  0
  145.6972  135.9163  151.0706 C   0  0  0  0  0  0  0  0  0  0  0  0
  148.3643  140.7651  154.5681 C   0  0  0  0  0  0  0  0  0  0  0  0
  148.9662  141.4293  155.8246 C   0  0  1  0  0  0  0  0  0  0  0  0
  148.3156  140.8978  157.1180 C   0  0  0  0  0  0  0  0  0  0  0  0
  150.9882  141.4741  157.9293 H   0  0  0  0  0  0  0  0  0  0  0  0
  150.8593  143.0292  157.1071 H   0  0  0  0  0  0  0  0  0  0  0  0
  152.2768  142.0176  156.8665 H   0  0  0  0  0  0  0  0  0  0  0  0
  150.8490  141.8596  154.9109 H   0  0  0  0  0  0  0  0  0  0  0  0
  152.0580  139.8173  155.5526 H   0  0  0  0  0  0  0  0  0  0  0  0
  150.7079  139.2759  156.5120 H   0  0  0  0  0  0  0  0  0  0  0  0
  150.7438  139.7011  153.4856 H   0  0  0  0  0  0  0  0  0  0  0  0
  150.6780  138.1713  154.3272 H   0  0  0  0  0  0  0  0  0  0  0  0
  148.4279  138.7182  155.2292 H   0  0  0  0  0  0  0  0  0  0  0  0
  148.5732  139.2889  152.3771 H   0  0  0  0  0  0  0  0  0  0  0  0
  146.3100  138.1621  153.8617 H   0  0  0  0  0  0  0  0  0  0  0  0
  146.4075  139.8078  153.2614 H   0  0  0  0  0  0  0  0  0  0  0  0
  145.6232  139.1096  151.2591 H   0  0  0  0  0  0  0  0  0  0  0  0
  148.0180  137.6683  151.3288 H   0  0  0  0  0  0  0  0  0  0  0  0
  143.9738  137.8812  153.2690 H   0  0  0  0  0  0  0  0  0  0  0  0
  142.6427  135.7692  153.3854 H   0  0  0  0  0  0  0  0  0  0  0  0
  145.0932  133.8799  150.6464 H   0  0  0  0  0  0  0  0  0  0  0  0
  146.5444  135.9008  150.4007 H   0  0  0  0  0  0  0  0  0  0  0  0
  148.6642  141.3398  153.6902 H   0  0  0  0  0  0  0  0  0  0  0  0
  147.2757  140.8230  154.6047 H   0  0  0  0  0  0  0  0  0  0  0  0
  148.7153  142.4897  155.7721 H   0  0  0  0  0  0  0  0  0  0  0  0
  148.5619  139.8531  157.3058 H   0  0  0  0  0  0  0  0  0  0  0  0
  147.2292  140.9743  157.0657 H   0  0  0  0  0  0  0  0  0  0  0  0
  148.6307  141.4732  157.9882 H   0  0  0  0  0  0  0  0  0  0  0  0
  148.5246  137.7915  153.0381 H   0  0  0  0  0  0  0  0  0  0  0  0
  1  2  1  0  0  0  0
  1 19  1  0  0  0  0
  1 20  1  0  0  0  0
  1 21  1  0  0  0  0
  2 17  1  0  0  0  0
  2  3  1  0  0  0  0
  2 22  1  0  0  0  0
  3  4  1  0  0  0  0
  3 23  1  0  0  0  0
  3 24  1  0  0  0  0
  4  5  1  0  0  0  0
  4 25  1  0  0  0  0
  4 26  1  0  0  0  0
  5  6  1  0  0  0  0
  5 16  1  0  0  0  0
  5 27  1  0  0  0  0
  6  7  1  0  0  0  0
  6 28  1  0  0  0  0
  6 43  1  0  0  0  0
  7  8  1  0  0  0  0
  7 29  1  0  0  0  0
  7 30  1  0  0  0  0
  8  9  1  0  0  0  0
  8 10  1  0  0  0  0
  8 31  1  0  0  0  0
  9 32  1  0  0  0  0
 10 15  1  0  0  0  0
 10 11  2  0  0  0  0
 11 12  1  0  0  0  0
 11 33  1  0  0  0  0
 12 13  2  0  0  0  0
 12 34  1  0  0  0  0
 13 14  1  0  0  0  0
 14 15  2  0  0  0  0
 14 35  1  0  0  0  0
 15 36  1  0  0  0  0
 16 17  1  0  0  0  0
 16 37  1  0  0  0  0
 16 38  1  0  0  0  0
 17 18  1  0  0  0  0
 17 39  1  0  0  0  0
 18 40  1  0  0  0  0
 18 41  1  0  0  0  0
 18 42  1  0  0  0  0
M  CHG  1   6   1
M  END
> <s_m_source_file>
AV-unprocessed.smi

> <i_m_source_file_index>
3287

> <i_lp_mmshare_version>
43012

> <i_f3d_flags>
0

> <s_epik_input>
W0NIM11bQ0BASF0xW0NIMl1bQ0gyXVtDQEhdKFtDSDJdW0NASF0xW0NIM10pW05IXVtDSDJdW0NASF0oW09IXSljMltjSF1bY0hdbltjSF1bY0hdMg==

> <s_epik_cmdline>
J2VwaWtfcHl0aG9uJywgJy1waCcsICc3LjAnLCAnLXRuJywgJzgnLCAnLW1hJywgJzIwMCcsICctbWV0YWxfYmluZGluZycsICctaW1hZScsICc8aW5maWxlLm1hZT4nLCAnLW9tYWUnLCAnPG91dGZpbGUubWFlPic=

> <r_lp_tautomer_probability>
1

> <r_epik_Ionization_Penalty>
0.00537262

> <r_epik_Ionization_Penalty_Charging>
0.00321624

> <r_epik_Ionization_Penalty_Neutral>
0.00215638

> <r_epik_State_Penalty>
-0

> <r_epik_Charging_Adjusted_Penalty>
0.00321624

> <i_epik_Tot_Q>
1

> <i_epik_Tot_abs_Q>
1

> <r_epik_Metal_State_Penalty>
-0

> <b_epik_Metal_Only>
0

> <s_lp_Force_Field>
OPLS_2005

> <r_lp_Energy>
18.2577

> <b_lp_Chiralities_Consistent>
1

> <s_lp_Variant>
AV-unprocessed.smi:3287-8

> <Gold.Version>
5.8.1

> <Gold.Id.Protein>
6NUR|6NUR_protein|mol2

> <Gold.PLP.Fitness>
46.3376

> <Gold.PLP.PLP>
-35.8958

> <Gold.PLP.part.hbond>
-4.1669

> <Gold.PLP.part.metal>
0.0000

> <Gold.PLP.part.buried>
-0.2223

> <Gold.PLP.part.nonpolar>
-31.2132

> <Gold.PLP.part.repulsive>
0.1842

> <Gold.PLP.ligand.clash>
0.0000

> <Gold.PLP.ligand.torsion>
0.7885

> <Gold.PLP.Chemscore.Hbond>
4.0000

> <Gold.PLP.Chemscore.CHOScore>
0.0000

> <Gold.PLP.Chemscore.Metal>
0.0000

> <Gold.Chemscore.Hbonds>
donor molecule, donor type, donor heavy atom, donor atom, acceptor molecule, acceptor atom, score
      L1  H     6    28       P1  7957  1.00
      L1  H     6    43       P1  7948  1.98
      L1  H     9    32       P1  7948  1.00

> <Gold.PLP.Chemscore.Internal.Correction>
0.0187

> <Gold.Rescore>
     Score         DG    S(hbond)    S(metal)    S(lipo)     H(rot)  DE(clash)    DE(int)     intcor
     20.03     -21.08       2.94        0.00      90.91       1.90       0.30       0.75       ----

> <Gold.Chemscore.Fitness>
20.0295

> <Gold.Chemscore.DG>
-21.0792

> <Gold.Chemscore.ZeroCoef>
-5.4800

> <Gold.Chemscore.Hbond>
2.9449

> <Gold.Chemscore.Metal>
0.0000

> <Gold.Chemscore.Lipo>
90.9079

> <Gold.Chemscore.Internal_Hbond>
0.0000

> <Gold.Chemscore.DEClash>
0.3012

> <Gold.Chemscore.DEInternal>
0.7485

> <Gold.Chemscore.Rot>
1.9035

> <Gold.Chemscore.Internal.Correction>
   9.000000E+99

> <Gold.Chemscore.Hbonds>
donor molecule, donor type, donor heavy atom, donor atom, acceptor molecule, acceptor atom, score
      L1  H     6    28       P1  7957  1.00
      L1  H     6    43       P1  7948  0.92
      L1  H     9    32       P1  7948  0.98

> <Gold.Chemscore.Hbond.Weighted>
-9.8358

> <Gold.Chemscore.Metal.Weighted>
-0.0000

> <Gold.Chemscore.Lipo.Weighted>
-10.6362

> <Gold.Chemscore.Internal_Hbond.Weighted>
0.0000

> <Gold.Chemscore.DEClash.Weighted>
0.3012

> <Gold.Chemscore.DEInternal.Weighted>
0.7485

> <Gold.Chemscore.Rot.Weighted>
4.8729

> <Gold.Chemscore.Internal.Correction.Weighted>
   9.000000E+99

> <Gold.Protein.RotatedTorsions>
[ 6907 6896 6895 6894 ] final -159.24 input  -60.11 | X-H torsion
[ 7974 7965 7964 7962 ] final   65.85 input  175.53 | X-H torsion
[ 8008 7997 7996 7995 ] final  -17.74 input   59.86 | X-H torsion
[ 10167 10162 10161 10158 ] final  118.23 input  -65.29 | X-H torsion
[ 10718 10713 10712 10709 ] final  -80.48 input   66.30 | X-H torsion
[ 10763 10752 10751 10750 ] final  155.20 input  -60.55 | X-H torsion
[ 11005 11000 10999 10996 ] final   94.94 input  -57.11 | X-H torsion

> <Gold.Protein.ActiveResidues>
 VAL166  LYS551  ARG553  GLY616  TRP617  ASP618  TYR619  PRO620  LYS621  CYS622 
 ASP623  PHE694  ASN695  SER759  ASP760  ASP761  ALA762  ILE779  LEU786  VAL792 
 PHE793  MET794  SER795  GLU796  ALA797  LYS798  CYS799  TRP800  GLU811  SER814 

> <Gold.Protein.RotatedAtoms>
  151.3305  133.4002  159.2661 H   0  0  0  0  0  0  0  0  0  0  0  0  # atno 6907 bound_to 6896
  150.9959  134.9284  159.7937 H   0  0  0  0  0  0  0  0  0  0  0  0  # atno 6908 bound_to 6896
  152.5261  134.3270  159.9221 H   0  0  0  0  0  0  0  0  0  0  0  0  # atno 6909 bound_to 6896
  145.8336  139.3154  143.0973 H   0  0  0  0  0  0  0  0  0  0  0  0  # atno 7974 bound_to 7965
  154.4956  140.2134  155.9454 H   0  0  0  0  0  0  0  0  0  0  0  0  # atno 8008 bound_to 7997
  156.1366  140.3187  155.8398 H   0  0  0  0  0  0  0  0  0  0  0  0  # atno 8009 bound_to 7997
  155.4199  140.0496  157.3017 H   0  0  0  0  0  0  0  0  0  0  0  0  # atno 8010 bound_to 7997
  139.6126  144.7085  151.2811 H   0  0  0  0  0  0  0  0  0  0  0  0  # atno 10167 bound_to 10162
  156.0069  130.4575  150.3807 H   0  0  0  0  0  0  0  0  0  0  0  0  # atno 10718 bound_to 10713
  154.1645  135.2808  155.3099 H   0  0  0  0  0  0  0  0  0  0  0  0  # atno 10763 bound_to 10752
  154.6122  135.5495  153.7488 H   0  0  0  0  0  0  0  0  0  0  0  0  # atno 10764 bound_to 10752
  153.0182  135.6418  154.1786 H   0  0  0  0  0  0  0  0  0  0  0  0  # atno 10765 bound_to 10752
  139.8793  134.8872  156.3938 H   0  0  0  0  0  0  0  0  0  0  0  0  # atno 11005 bound_to 11000
  145.9543  140.8884  143.0243 LP  0  0  0  0  0  0  0  0  0  0  0  0  # atno 17320 bound_to 7965
  144.6738  140.1724  143.7413 LP  0  0  0  0  0  0  0  0  0  0  0  0  # atno 17321 bound_to 7965
  140.7329  143.6810  150.8001 LP  0  0  0  0  0  0  0  0  0  0  0  0  # atno 17342 bound_to 10162
  140.0407  143.5349  152.2719 LP  0  0  0  0  0  0  0  0  0  0  0  0  # atno 17343 bound_to 10162
  157.1886  131.0410  151.2711 LP  0  0  0  0  0  0  0  0  0  0  0  0  # atno 17370 bound_to 10713
  157.4081  130.7370  149.6818 LP  0  0  0  0  0  0  0  0  0  0  0  0  # atno 17371 bound_to 10713
  140.9314  133.7576  156.0030 LP  0  0  0  0  0  0  0  0  0  0  0  0  # atno 17394 bound_to 11000
  140.8326  134.3161  157.5343 LP  0  0  0  0  0  0  0  0  0  0  0  0  # atno 17395 bound_to 11000

$$$$
