AV-unprocessed.smi:2042|AV-procd|sdf|8294|dock6
  -GOLD-   2272010563D 1   1.00000     0.00000
 Structure written by MMmdl.
 30 31  0  0  0  0  0  0  0  0  1 V2000
  147.5910  131.8786  153.0725 O   0  0  0  0  0  0  0  0  0  0  0  0
  147.8866  133.0472  152.8339 C   0  0  0  0  0  0  0  0  0  0  0  0
  147.2186  133.8513  151.9833 N   0  0  0  0  0  0  0  0  0  0  0  0
  146.1055  133.5471  151.1530 C   0  0  0  0  0  0  0  0  0  0  0  0
  145.0601  134.4528  150.8484 C   0  0  0  0  0  0  0  0  0  0  0  0
  144.0018  134.0184  150.0270 C   0  0  0  0  0  0  0  0  0  0  0  0
  144.0227  132.6953  149.5454 C   0  0  0  0  0  0  0  0  0  0  0  0
  145.0059  131.8181  149.8367 N   0  0  0  0  0  0  0  0  0  0  0  0
  146.0166  132.2414  150.6254 C   0  0  0  0  0  0  0  0  0  0  0  0
  148.9224  133.6396  153.4551 N   0  0  0  0  0  0  0  0  0  0  0  0
  149.8483  133.0618  154.4305 C   0  0  2  0  0  0  0  0  0  0  0  0
  150.1170  131.5768  154.1225 C   0  0  0  0  0  0  0  0  0  0  0  0
  150.7854  130.9339  155.3440 C   0  0  0  0  0  0  0  0  0  0  0  0
  150.1388  131.8293  156.8071 S   0  0  0  0  0  0  0  0  0  0  0  0
  149.1278  131.0036  157.4848 O   0  0  0  0  0  0  0  0  0  0  0  0
  151.2694  132.4050  157.5511 O   0  0  0  0  0  0  0  0  0  0  0  0
  149.2951  133.1526  155.8620 C   0  0  0  0  0  0  0  0  0  0  0  0
  147.5251  134.8127  151.9557 H   0  0  0  0  0  0  0  0  0  0  0  0
  145.0376  135.4597  151.2343 H   0  0  0  0  0  0  0  0  0  0  0  0
  143.1893  134.6841  149.7760 H   0  0  0  0  0  0  0  0  0  0  0  0
  143.2257  132.3307  148.9143 H   0  0  0  0  0  0  0  0  0  0  0  0
  146.7831  131.5110  150.8406 H   0  0  0  0  0  0  0  0  0  0  0  0
  149.0681  134.6160  153.2421 H   0  0  0  0  0  0  0  0  0  0  0  0
  150.8090  133.5787  154.3897 H   0  0  0  0  0  0  0  0  0  0  0  0
  149.1683  131.0701  153.9386 H   0  0  0  0  0  0  0  0  0  0  0  0
  150.7226  131.4518  153.2243 H   0  0  0  0  0  0  0  0  0  0  0  0
  150.5781  129.8672  155.4310 H   0  0  0  0  0  0  0  0  0  0  0  0
  151.8657  131.0774  155.3134 H   0  0  0  0  0  0  0  0  0  0  0  0
  149.4725  134.1199  156.3322 H   0  0  0  0  0  0  0  0  0  0  0  0
  148.2244  132.9456  155.8856 H   0  0  0  0  0  0  0  0  0  0  0  0
  1  2  2  0  0  0  0
  2  3  1  0  0  0  0
  2 10  1  0  0  0  0
  3  4  1  0  0  0  0
  3 18  1  0  0  0  0
  4  9  1  0  0  0  0
  4  5  2  0  0  0  0
  5  6  1  0  0  0  0
  5 19  1  0  0  0  0
  6  7  2  0  0  0  0
  6 20  1  0  0  0  0
  7  8  1  0  0  0  0
  7 21  1  0  0  0  0
  8  9  2  0  0  0  0
  9 22  1  0  0  0  0
 10 11  1  0  0  0  0
 10 23  1  0  0  0  0
 11 17  1  0  0  0  0
 11 12  1  0  0  0  0
 11 24  1  0  0  0  0
 12 13  1  0  0  0  0
 12 25  1  0  0  0  0
 12 26  1  0  0  0  0
 13 14  1  0  0  0  0
 13 27  1  0  0  0  0
 13 28  1  0  0  0  0
 14 15  2  0  0  0  0
 14 16  2  0  0  0  0
 14 17  1  0  0  0  0
 17 29  1  0  0  0  0
 17 30  1  0  0  0  0
M  END
> <s_m_source_file>
AV-unprocessed.smi

> <i_m_source_file_index>
2042

> <i_lp_mmshare_version>
43012

> <i_f3d_flags>
0

> <s_epik_input>
Tz1TMSg9TylbQ0gyXVtDSDJdW0NASF0oW0NIMl0xKVtOSF1DKD1PKVtOSF1jMltjSF1bY0hdW2NIXW5bY0hdMg==

> <s_epik_cmdline>
J2VwaWtfcHl0aG9uJywgJy1waCcsICc3LjAnLCAnLXRuJywgJzgnLCAnLW1hJywgJzIwMCcsICctbWV0YWxfYmluZGluZycsICctaW1hZScsICc8aW5maWxlLm1hZT4nLCAnLW9tYWUnLCAnPG91dGZpbGUubWFlPic=

> <r_epik_Ionization_Penalty>
0.00421056

> <r_epik_Ionization_Penalty_Charging>
0

> <r_epik_Ionization_Penalty_Neutral>
0.00421056

> <r_epik_State_Penalty>
0.00300625

> <r_epik_Charging_Adjusted_Penalty>
0.00300625

> <i_epik_Tot_Q>
0

> <i_epik_Tot_abs_Q>
0

> <r_epik_Metal_State_Penalty>
-0

> <b_epik_Metal_Only>
0

> <s_lp_Force_Field>
OPLS_2005

> <r_lp_Energy>
18.6302

> <b_lp_Chiralities_Consistent>
1

> <s_lp_Variant>
AV-unprocessed.smi:2042-1

> <Gold.Version>
5.8.1

> <Gold.Id.Protein>
6NUR|6NUR_protein|mol2

> <Gold.PLP.Fitness>
36.6237

> <Gold.PLP.PLP>
-26.1287

> <Gold.PLP.part.hbond>
-3.2707

> <Gold.PLP.part.metal>
0.0000

> <Gold.PLP.part.buried>
-2.3173

> <Gold.PLP.part.nonpolar>
-21.3701

> <Gold.PLP.part.repulsive>
0.2779

> <Gold.PLP.ligand.clash>
0.0000

> <Gold.PLP.ligand.torsion>
0.5908

> <Gold.PLP.Chemscore.Hbond>
2.8920

> <Gold.PLP.Chemscore.CHOScore>
1.0000

> <Gold.PLP.Chemscore.Metal>
0.0000

> <Gold.Chemscore.Hbonds>
donor molecule, donor type, donor heavy atom, donor atom, acceptor molecule, acceptor atom, score
      L1  H     3    18       P1  7948  1.00
      L1  H    10    23       P1  7948  0.56
      P1  H  6896  6909       L1    16  1.00
      L1  C     9    22       P1 10747  1.00

> <Gold.PLP.Chemscore.Internal.Correction>
0.0005

> <Gold.Rescore>
     Score         DG    S(hbond)    S(metal)    S(lipo)     H(rot)  DE(clash)    DE(int)     intcor
     14.97     -17.77       2.28        0.00      61.76       1.00       0.67       2.12       ----

> <Gold.Chemscore.Fitness>
14.9738

> <Gold.Chemscore.DG>
-17.7680

> <Gold.Chemscore.ZeroCoef>
-5.4800

> <Gold.Chemscore.Hbond>
2.2819

> <Gold.Chemscore.Metal>
0.0000

> <Gold.Chemscore.Lipo>
61.7646

> <Gold.Chemscore.Internal_Hbond>
0.0000

> <Gold.Chemscore.DEClash>
0.6698

> <Gold.Chemscore.DEInternal>
2.1244

> <Gold.Chemscore.Rot>
1.0000

> <Gold.Chemscore.Internal.Correction>
   9.000000E+99

> <Gold.Chemscore.Hbonds>
donor molecule, donor type, donor heavy atom, donor atom, acceptor molecule, acceptor atom, score
      L1  H     3    18       P1  7948  0.70
      L1  H    10    23       P1  7948  0.04
      P1  H  6896  6909       L1    16  0.99

> <Gold.Chemscore.Hbond.Weighted>
-7.6216

> <Gold.Chemscore.Metal.Weighted>
-0.0000

> <Gold.Chemscore.Lipo.Weighted>
-7.2265

> <Gold.Chemscore.Internal_Hbond.Weighted>
0.0000

> <Gold.Chemscore.DEClash.Weighted>
0.6698

> <Gold.Chemscore.DEInternal.Weighted>
2.1244

> <Gold.Chemscore.Rot.Weighted>
2.5600

> <Gold.Chemscore.Internal.Correction.Weighted>
   9.000000E+99

> <Gold.Protein.RotatedTorsions>
[ 6907 6896 6895 6894 ] final  -46.88 input  -60.11 | X-H torsion
[ 7974 7965 7964 7962 ] final -110.07 input  175.53 | X-H torsion
[ 8008 7997 7996 7995 ] final   51.96 input   59.86 | X-H torsion
[ 10167 10162 10161 10158 ] final -179.77 input  -65.29 | X-H torsion
[ 10718 10713 10712 10709 ] final -149.62 input   66.30 | X-H torsion
[ 10763 10752 10751 10750 ] final   58.73 input  -60.55 | X-H torsion
[ 11005 11000 10999 10996 ] final  -92.55 input  -57.11 | X-H torsion

> <Gold.Protein.ActiveResidues>
 VAL166  LYS551  ARG553  GLY616  TRP617  ASP618  TYR619  PRO620  LYS621  CYS622 
 ASP623  PHE694  ASN695  SER759  ASP760  ASP761  ALA762  ILE779  LEU786  VAL792 
 PHE793  MET794  SER795  GLU796  ALA797  LYS798  CYS799  TRP800  GLU811  SER814 

> <Gold.Protein.RotatedAtoms>
  150.9066  134.8481  159.7396 H   0  0  0  0  0  0  0  0  0  0  0  0  # atno 6907 bound_to 6896
  152.4922  134.4422  159.9557 H   0  0  0  0  0  0  0  0  0  0  0  0  # atno 6908 bound_to 6896
  151.4468  133.3589  159.2825 H   0  0  0  0  0  0  0  0  0  0  0  0  # atno 6909 bound_to 6896
  145.1727  140.8933  143.3526 H   0  0  0  0  0  0  0  0  0  0  0  0  # atno 7974 bound_to 7965
  155.4439  140.3455  155.4293 H   0  0  0  0  0  0  0  0  0  0  0  0  # atno 8008 bound_to 7997
  156.1262  140.1501  156.9163 H   0  0  0  0  0  0  0  0  0  0  0  0  # atno 8009 bound_to 7997
  154.4859  140.0855  156.7466 H   0  0  0  0  0  0  0  0  0  0  0  0  # atno 8010 bound_to 7997
  139.5371  144.2466  152.0818 H   0  0  0  0  0  0  0  0  0  0  0  0  # atno 10167 bound_to 10162
  156.4355  130.8096  151.2325 H   0  0  0  0  0  0  0  0  0  0  0  0  # atno 10718 bound_to 10713
  152.9877  135.5596  154.5599 H   0  0  0  0  0  0  0  0  0  0  0  0  # atno 10763 bound_to 10752
  154.5020  135.2798  155.1415 H   0  0  0  0  0  0  0  0  0  0  0  0  # atno 10764 bound_to 10752
  154.2842  135.6339  153.5412 H   0  0  0  0  0  0  0  0  0  0  0  0  # atno 10765 bound_to 10752
  141.1519  133.7828  157.0035 H   0  0  0  0  0  0  0  0  0  0  0  0  # atno 11005 bound_to 11000
  145.0216  139.3419  143.6069 LP  0  0  0  0  0  0  0  0  0  0  0  0  # atno 17320 bound_to 7965
  146.3466  139.9519  142.8728 LP  0  0  0  0  0  0  0  0  0  0  0  0  # atno 17321 bound_to 7965
  140.1938  144.4725  150.6465 LP  0  0  0  0  0  0  0  0  0  0  0  0  # atno 17342 bound_to 10162
  140.6583  143.2244  151.5916 LP  0  0  0  0  0  0  0  0  0  0  0  0  # atno 17343 bound_to 10162
  157.7507  131.0185  150.3627 LP  0  0  0  0  0  0  0  0  0  0  0  0  # atno 17370 bound_to 10713
  156.3973  130.3909  149.6985 LP  0  0  0  0  0  0  0  0  0  0  0  0  # atno 17371 bound_to 10713
  140.0924  134.9584  157.1797 LP  0  0  0  0  0  0  0  0  0  0  0  0  # atno 17394 bound_to 11000
  140.3428  134.2685  155.7209 LP  0  0  0  0  0  0  0  0  0  0  0  0  # atno 17395 bound_to 11000

$$$$
