AV-unprocessed.smi:1022|AV-procd|sdf|4460|dock1
  -GOLD-   22720 2433D 1   1.00000     0.00000
 Structure written by MMmdl.
 32 33  0  0  0  0  0  0  0  0  2 V2000
  145.8389  142.7849  154.5488 C   0  0  0  0  0  0  0  0  0  0  0  0
  146.6604  141.6381  154.6795 O   0  0  0  0  0  0  0  0  0  0  0  0
  147.9636  141.8428  154.1581 C   0  0  0  0  0  0  0  0  0  0  0  0
  148.7145  140.4998  154.1002 C   0  0  2  0  0  0  0  0  0  0  0  0
  147.7932  139.3444  153.6815 C   0  0  0  0  0  0  0  0  0  0  0  0
  149.3029  140.1920  155.4017 N   0  0  0  0  0  0  0  0  0  0  0  0
  150.6026  139.9750  155.6518 C   0  0  0  0  0  0  0  0  0  0  0  0
  151.4223  140.0141  154.7313 O   0  0  0  0  0  0  0  0  0  0  0  0
  150.8731  139.7341  156.9550 N   0  5  0  0  0  0  0  0  0  0  0  0
  151.2997  140.7315  157.7472 C   0  0  0  0  0  0  0  0  0  0  0  0
  151.9446  140.5086  158.9011 N   0  0  0  0  0  0  0  0  0  0  0  0
  152.2933  141.6763  159.5642 N   0  0  0  0  0  0  0  0  0  0  0  0
  151.8990  142.7678  158.9038 C   0  0  0  0  0  0  0  0  0  0  0  0
  152.1575  144.1471  159.4115 C   0  0  0  0  0  0  0  0  0  0  0  0
  151.6636  144.5966  160.7692 C   0  0  0  0  0  0  0  0  0  0  0  0
  151.0359  145.1547  159.5178 C   0  0  0  0  0  0  0  0  0  0  0  0
  151.0518  142.4425  157.4001 S   0  0  0  0  0  0  0  0  0  0  0  0
  144.8529  142.5784  154.9646 H   0  0  0  0  0  0  0  0  0  0  0  0
  145.7114  143.0615  153.5014 H   0  0  0  0  0  0  0  0  0  0  0  0
  146.2599  143.6349  155.0872 H   0  0  0  0  0  0  0  0  0  0  0  0
  147.8840  142.2743  153.1588 H   0  0  0  0  0  0  0  0  0  0  0  0
  148.5108  142.5564  154.7766 H   0  0  0  0  0  0  0  0  0  0  0  0
  149.5158  140.5749  153.3629 H   0  0  0  0  0  0  0  0  0  0  0  0
  147.3680  139.5180  152.6926 H   0  0  0  0  0  0  0  0  0  0  0  0
  146.9662  139.2216  154.3818 H   0  0  0  0  0  0  0  0  0  0  0  0
  148.3397  138.4018  153.6414 H   0  0  0  0  0  0  0  0  0  0  0  0
  148.6701  140.1474  156.1869 H   0  0  0  0  0  0  0  0  0  0  0  0
  153.1324  144.5010  159.0823 H   0  0  0  0  0  0  0  0  0  0  0  0
  151.0665  143.9021  161.3566 H   0  0  0  0  0  0  0  0  0  0  0  0
  152.3097  145.2567  161.3443 H   0  0  0  0  0  0  0  0  0  0  0  0
  151.2621  146.1866  159.2577 H   0  0  0  0  0  0  0  0  0  0  0  0
  150.0308  144.8197  159.2685 H   0  0  0  0  0  0  0  0  0  0  0  0
  1  2  1  0  0  0  0
  1 18  1  0  0  0  0
  1 19  1  0  0  0  0
  1 20  1  0  0  0  0
  2  3  1  0  0  0  0
  3  4  1  0  0  0  0
  3 21  1  0  0  0  0
  3 22  1  0  0  0  0
  4  5  1  0  0  0  0
  4  6  1  0  0  0  0
  4 23  1  0  0  0  0
  5 24  1  0  0  0  0
  5 25  1  0  0  0  0
  5 26  1  0  0  0  0
  6  7  1  0  0  0  0
  6 27  1  0  0  0  0
  7  8  2  0  0  0  0
  7  9  1  0  0  0  0
  9 10  1  0  0  0  0
 10 17  1  0  0  0  0
 10 11  2  0  0  0  0
 11 12  1  0  0  0  0
 12 13  2  0  0  0  0
 13 14  1  0  0  0  0
 13 17  1  0  0  0  0
 14 16  1  0  0  0  0
 14 15  1  0  0  0  0
 14 28  1  0  0  0  0
 15 16  1  0  0  0  0
 15 29  1  0  0  0  0
 15 30  1  0  0  0  0
 16 31  1  0  0  0  0
 16 32  1  0  0  0  0
M  CHG  1   9  -1
M  END
> <s_m_source_file>
AV-unprocessed.smi

> <i_m_source_file_index>
1022

> <i_lp_mmshare_version>
43012

> <i_f3d_flags>
0

> <s_epik_input>
W0NIM11PW0NIMl1bQ0BIXShbQ0gzXSlbTkhdQyg9TylbTkhdYzFubmMoczEpW0NIXTJbQ0gyXVtDSDJdMg==

> <s_epik_cmdline>
J2VwaWtfcHl0aG9uJywgJy1waCcsICc3LjAnLCAnLXRuJywgJzgnLCAnLW1hJywgJzIwMCcsICctbWV0YWxfYmluZGluZycsICctaW1hZScsICc8aW5maWxlLm1hZT4nLCAnLW9tYWUnLCAnPG91dGZpbGUubWFlPic=

> <r_lp_tautomer_probability>
1

> <r_epik_Ionization_Penalty>
3.79487

> <r_epik_Ionization_Penalty_Charging>
3.64217

> <r_epik_Ionization_Penalty_Neutral>
0.152695

> <r_epik_State_Penalty>
3.6409

> <r_epik_Charging_Adjusted_Penalty>
7.28307

> <i_epik_Tot_Q>
-1

> <i_epik_Tot_abs_Q>
1

> <r_epik_Metal_State_Penalty>
0.534129

> <b_epik_Metal_Only>
1

> <s_lp_Force_Field>
OPLS_2005

> <r_lp_Energy>
-0.766609

> <b_lp_Chiralities_Consistent>
1

> <s_lp_Variant>
AV-unprocessed.smi:1022-3

> <Gold.Version>
5.8.1

> <Gold.Id.Protein>
6NUR|6NUR_protein|mol2

> <Gold.PLP.Fitness>
37.0998

> <Gold.PLP.PLP>
-35.9061

> <Gold.PLP.part.hbond>
-0.9925

> <Gold.PLP.part.metal>
0.0000

> <Gold.PLP.part.buried>
-4.8026

> <Gold.PLP.part.nonpolar>
-30.5970

> <Gold.PLP.part.repulsive>
0.2792

> <Gold.PLP.ligand.clash>
0.0000

> <Gold.PLP.ligand.torsion>
1.1818

> <Gold.PLP.Chemscore.Hbond>
1.0000

> <Gold.PLP.Chemscore.CHOScore>
0.0000

> <Gold.PLP.Chemscore.Metal>
0.0000

> <Gold.Chemscore.Hbonds>
donor molecule, donor type, donor heavy atom, donor atom, acceptor molecule, acceptor atom, score
      P1  H  7989  7998       L1     8  0.96

> <Gold.PLP.Chemscore.Internal.Correction>
0.5572

> <Gold.Rescore>
     Score         DG    S(hbond)    S(metal)    S(lipo)     H(rot)  DE(clash)    DE(int)     intcor
     13.13     -14.37       1.00        0.00      84.47       1.69       0.05       1.19       ----

> <Gold.Chemscore.Fitness>
13.1267

> <Gold.Chemscore.DG>
-14.3660

> <Gold.Chemscore.ZeroCoef>
-5.4800

> <Gold.Chemscore.Hbond>
0.9983

> <Gold.Chemscore.Metal>
0.0000

> <Gold.Chemscore.Lipo>
84.4730

> <Gold.Chemscore.Internal_Hbond>
0.0000

> <Gold.Chemscore.DEClash>
0.0509

> <Gold.Chemscore.DEInternal>
1.1884

> <Gold.Chemscore.Rot>
1.6921

> <Gold.Chemscore.Internal.Correction>
   9.000000E+99

> <Gold.Chemscore.Hbonds>
donor molecule, donor type, donor heavy atom, donor atom, acceptor molecule, acceptor atom, score
      P1  H  7989  7998       L1     8  0.90

> <Gold.Chemscore.Hbond.Weighted>
-3.3344

> <Gold.Chemscore.Metal.Weighted>
-0.0000

> <Gold.Chemscore.Lipo.Weighted>
-9.8833

> <Gold.Chemscore.Internal_Hbond.Weighted>
0.0000

> <Gold.Chemscore.DEClash.Weighted>
0.0509

> <Gold.Chemscore.DEInternal.Weighted>
1.1884

> <Gold.Chemscore.Rot.Weighted>
4.3317

> <Gold.Chemscore.Internal.Correction.Weighted>
   9.000000E+99

> <Gold.Protein.RotatedTorsions>
[ 6907 6896 6895 6894 ] final  -95.50 input  -60.11 | X-H torsion
[ 7974 7965 7964 7962 ] final  154.78 input  175.53 | X-H torsion
[ 8008 7997 7996 7995 ] final  -57.52 input   59.86 | X-H torsion
[ 10167 10162 10161 10158 ] final -154.83 input  -65.29 | X-H torsion
[ 10718 10713 10712 10709 ] final  -72.06 input   66.30 | X-H torsion
[ 10763 10752 10751 10750 ] final -132.43 input  -60.55 | X-H torsion
[ 11005 11000 10999 10996 ] final   90.72 input  -57.11 | X-H torsion

> <Gold.Protein.ActiveResidues>
 VAL166  LYS551  ARG553  GLY616  TRP617  ASP618  TYR619  PRO620  LYS621  CYS622 
 ASP623  PHE694  ASN695  SER759  ASP760  ASP761  ALA762  ILE779  LEU786  VAL792 
 PHE793  MET794  SER795  GLU796  ALA797  LYS798  CYS799  TRP800  GLU811  SER814 

> <Gold.Protein.RotatedAtoms>
  150.6965  134.1647  159.4189 H   0  0  0  0  0  0  0  0  0  0  0  0  # atno 6907 bound_to 6896
  151.9627  135.0113  160.0558 H   0  0  0  0  0  0  0  0  0  0  0  0  # atno 6908 bound_to 6896
  152.1913  133.4740  159.5046 H   0  0  0  0  0  0  0  0  0  0  0  0  # atno 6909 bound_to 6896
  144.8067  139.6979  143.6159 H   0  0  0  0  0  0  0  0  0  0  0  0  # atno 7974 bound_to 7965
  154.4271  140.1105  156.5811 H   0  0  0  0  0  0  0  0  0  0  0  0  # atno 8008 bound_to 7997
  155.6111  140.3494  155.4604 H   0  0  0  0  0  0  0  0  0  0  0  0  # atno 8009 bound_to 7997
  156.0098  140.1217  157.0454 H   0  0  0  0  0  0  0  0  0  0  0  0  # atno 8010 bound_to 7997
  139.6981  143.9308  152.2416 H   0  0  0  0  0  0  0  0  0  0  0  0  # atno 10167 bound_to 10162
  156.0336  130.4364  150.2536 H   0  0  0  0  0  0  0  0  0  0  0  0  # atno 10718 bound_to 10713
  154.8743  135.3798  154.4408 H   0  0  0  0  0  0  0  0  0  0  0  0  # atno 10763 bound_to 10752
  153.5093  135.7030  153.5794 H   0  0  0  0  0  0  0  0  0  0  0  0  # atno 10764 bound_to 10752
  153.4091  135.3929  155.2005 H   0  0  0  0  0  0  0  0  0  0  0  0  # atno 10765 bound_to 10752
  139.8851  134.8631  156.3325 H   0  0  0  0  0  0  0  0  0  0  0  0  # atno 11005 bound_to 11000
  146.2359  139.5905  142.9524 LP  0  0  0  0  0  0  0  0  0  0  0  0  # atno 17320 bound_to 7965
  145.5422  141.0420  143.2324 LP  0  0  0  0  0  0  0  0  0  0  0  0  # atno 17321 bound_to 7965
  139.9143  144.6838  150.8529 LP  0  0  0  0  0  0  0  0  0  0  0  0  # atno 17342 bound_to 10162
  140.7702  143.3420  151.2188 LP  0  0  0  0  0  0  0  0  0  0  0  0  # atno 17343 bound_to 10162
  157.0636  131.0097  151.3214 LP  0  0  0  0  0  0  0  0  0  0  0  0  # atno 17370 bound_to 10713
  157.5052  130.7904  149.7646 LP  0  0  0  0  0  0  0  0  0  0  0  0  # atno 17371 bound_to 10713
  140.9713  133.7325  156.0538 LP  0  0  0  0  0  0  0  0  0  0  0  0  # atno 17394 bound_to 11000
  140.7867  134.3664  157.5474 LP  0  0  0  0  0  0  0  0  0  0  0  0  # atno 17395 bound_to 11000

$$$$
