AV-unprocessed.smi:680|AV-procd|sdf|3324|dock10
  -GOLD-   22720 0293D 1   1.00000     0.00000
 Structure written by MMmdl.
 32 33  0  0  0  0  0  0  0  0  1 V2000
  150.2919  141.8785  156.0065 C   0  0  0  0  0  0  0  0  0  0  0  0
  150.0412  140.6385  155.2002 C   0  0  0  0  0  0  0  0  0  0  0  0
  148.7961  140.1050  154.7656 C   0  0  0  0  0  0  0  0  0  0  0  0
  149.1707  138.9791  154.0820 C   0  0  0  0  0  0  0  0  0  0  0  0
  148.3806  138.0704  153.4528 N   0  0  0  0  0  0  0  0  0  0  0  0
  147.0421  137.9447  153.4910 C   0  0  0  0  0  0  0  0  0  0  0  0
  146.2754  138.6627  154.1329 O   0  0  0  0  0  0  0  0  0  0  0  0
  146.6329  136.9237  152.7237 N   0  0  0  0  0  0  0  0  0  0  0  0
  145.2448  136.5190  152.5147 C   0  0  0  0  0  0  0  0  0  0  0  0
  145.1439  135.2624  151.6286 C   0  0  1  0  0  0  0  0  0  0  0  0
  146.3460  134.3287  151.8591 C   0  0  0  0  0  0  0  0  0  0  0  0
  146.4635  133.0313  150.5950 S   0  0  0  0  0  0  0  0  0  0  0  0
  144.8977  132.1656  150.8900 C   0  0  0  0  0  0  0  0  0  0  0  0
  143.6885  133.0819  150.6687 C   0  0  0  0  0  0  0  0  0  0  0  0
  143.5810  134.3781  151.9333 S   0  0  0  0  0  0  0  0  0  0  0  0
  150.5168  138.8235  154.0924 O   0  0  0  0  0  0  0  0  0  0  0  0
  151.0648  139.8935  154.8096 N   0  0  0  0  0  0  0  0  0  0  0  0
  149.3574  142.3837  156.2516 H   0  0  0  0  0  0  0  0  0  0  0  0
  150.9169  142.5844  155.4589 H   0  0  0  0  0  0  0  0  0  0  0  0
  150.7960  141.6421  156.9438 H   0  0  0  0  0  0  0  0  0  0  0  0
  147.8056  140.4974  154.9392 H   0  0  0  0  0  0  0  0  0  0  0  0
  148.8710  137.4098  152.8681 H   0  0  0  0  0  0  0  0  0  0  0  0
  147.3360  136.3905  152.2331 H   0  0  0  0  0  0  0  0  0  0  0  0
  144.8211  136.3114  153.4977 H   0  0  0  0  0  0  0  0  0  0  0  0
  144.6451  137.3266  152.0915 H   0  0  0  0  0  0  0  0  0  0  0  0
  145.1479  135.5810  150.5853 H   0  0  0  0  0  0  0  0  0  0  0  0
  147.2749  134.8984  151.8225 H   0  0  0  0  0  0  0  0  0  0  0  0
  146.2968  133.8703  152.8475 H   0  0  0  0  0  0  0  0  0  0  0  0
  144.8469  131.3175  150.2070 H   0  0  0  0  0  0  0  0  0  0  0  0
  144.8928  131.7592  151.9019 H   0  0  0  0  0  0  0  0  0  0  0  0
  143.7271  133.5407  149.6802 H   0  0  0  0  0  0  0  0  0  0  0  0
  142.7710  132.4948  150.7101 H   0  0  0  0  0  0  0  0  0  0  0  0
  1  2  1  0  0  0  0
  1 18  1  0  0  0  0
  1 19  1  0  0  0  0
  1 20  1  0  0  0  0
  2 17  2  0  0  0  0
  2  3  1  0  0  0  0
  3  4  2  0  0  0  0
  3 21  1  0  0  0  0
  4  5  1  0  0  0  0
  4 16  1  0  0  0  0
  5  6  1  0  0  0  0
  5 22  1  0  0  0  0
  6  7  2  0  0  0  0
  6  8  1  0  0  0  0
  8  9  1  0  0  0  0
  8 23  1  0  0  0  0
  9 10  1  0  0  0  0
  9 24  1  0  0  0  0
  9 25  1  0  0  0  0
 10 15  1  0  0  0  0
 10 11  1  0  0  0  0
 10 26  1  0  0  0  0
 11 12  1  0  0  0  0
 11 27  1  0  0  0  0
 11 28  1  0  0  0  0
 12 13  1  0  0  0  0
 13 14  1  0  0  0  0
 13 29  1  0  0  0  0
 13 30  1  0  0  0  0
 14 15  1  0  0  0  0
 14 31  1  0  0  0  0
 14 32  1  0  0  0  0
 16 17  1  0  0  0  0
M  END
> <s_m_source_file>
AV-unprocessed.smi

> <i_m_source_file_index>
680

> <i_lp_mmshare_version>
43012

> <i_f3d_flags>
0

> <s_epik_input>
W0NIM11jMVtjSF1jKG9uMSlbTkhdQyg9TylbTkhdW0NIMl1bQ0BASF0yW0NIMl1TW0NIMl1bQ0gyXVMy

> <s_epik_cmdline>
J2VwaWtfcHl0aG9uJywgJy1waCcsICc3LjAnLCAnLXRuJywgJzgnLCAnLW1hJywgJzIwMCcsICctbWV0YWxfYmluZGluZycsICctaW1hZScsICc8aW5maWxlLm1hZT4nLCAnLW9tYWUnLCAnPG91dGZpbGUubWFlPic=

> <r_epik_Ionization_Penalty>
0.000554698

> <r_epik_Ionization_Penalty_Charging>
0

> <r_epik_Ionization_Penalty_Neutral>
0.000554698

> <r_epik_State_Penalty>
0.000333438

> <r_epik_Charging_Adjusted_Penalty>
0.000333438

> <i_epik_Tot_Q>
0

> <i_epik_Tot_abs_Q>
0

> <r_epik_Metal_State_Penalty>
-0

> <b_epik_Metal_Only>
0

> <s_lp_Force_Field>
OPLS_2005

> <r_lp_Energy>
4.32293

> <b_lp_Chiralities_Consistent>
1

> <s_lp_Variant>
AV-unprocessed.smi:680-2

> <Gold.Version>
5.8.1

> <Gold.Id.Protein>
6NUR|6NUR_protein|mol2

> <Gold.PLP.Fitness>
35.8961

> <Gold.PLP.PLP>
-27.6408

> <Gold.PLP.part.hbond>
-3.0630

> <Gold.PLP.part.metal>
0.0000

> <Gold.PLP.part.buried>
-1.4909

> <Gold.PLP.part.nonpolar>
-23.2044

> <Gold.PLP.part.repulsive>
0.4606

> <Gold.PLP.ligand.clash>
0.0000

> <Gold.PLP.ligand.torsion>
0.3138

> <Gold.PLP.Chemscore.Hbond>
2.9600

> <Gold.PLP.Chemscore.CHOScore>
0.0000

> <Gold.PLP.Chemscore.Metal>
0.0000

> <Gold.Chemscore.Hbonds>
donor molecule, donor type, donor heavy atom, donor atom, acceptor molecule, acceptor atom, score
      L1  H     5    22       P1  7948  1.00
      L1  H     8    23       P1  7948  0.96
      P1  H  7989  7998       L1    17  0.95

> <Gold.PLP.Chemscore.Internal.Correction>
0.0029

> <Gold.Rescore>
     Score         DG    S(hbond)    S(metal)    S(lipo)     H(rot)  DE(clash)    DE(int)     intcor
     14.84     -16.13       1.98        0.00      62.20       1.26       0.07       1.22       ----

> <Gold.Chemscore.Fitness>
14.8428

> <Gold.Chemscore.DG>
-16.1329

> <Gold.Chemscore.ZeroCoef>
-5.4800

> <Gold.Chemscore.Hbond>
1.9757

> <Gold.Chemscore.Metal>
0.0000

> <Gold.Chemscore.Lipo>
62.1976

> <Gold.Chemscore.Internal_Hbond>
0.0000

> <Gold.Chemscore.DEClash>
0.0673

> <Gold.Chemscore.DEInternal>
1.2229

> <Gold.Chemscore.Rot>
1.2590

> <Gold.Chemscore.Internal.Correction>
   9.000000E+99

> <Gold.Chemscore.Hbonds>
donor molecule, donor type, donor heavy atom, donor atom, acceptor molecule, acceptor atom, score
      L1  H     5    22       P1  7948  0.92
      L1  H     8    23       P1  7948  0.92
      P1  H  7989  7998       L1    17  0.06

> <Gold.Chemscore.Hbond.Weighted>
-6.5989

> <Gold.Chemscore.Metal.Weighted>
-0.0000

> <Gold.Chemscore.Lipo.Weighted>
-7.2771

> <Gold.Chemscore.Internal_Hbond.Weighted>
0.0000

> <Gold.Chemscore.DEClash.Weighted>
0.0673

> <Gold.Chemscore.DEInternal.Weighted>
1.2229

> <Gold.Chemscore.Rot.Weighted>
3.2232

> <Gold.Chemscore.Internal.Correction.Weighted>
   9.000000E+99

> <Gold.Protein.RotatedTorsions>
[ 6907 6896 6895 6894 ] final  -80.99 input  -60.11 | X-H torsion
[ 7974 7965 7964 7962 ] final    8.49 input  175.53 | X-H torsion
[ 8008 7997 7996 7995 ] final -116.79 input   59.86 | X-H torsion
[ 10167 10162 10161 10158 ] final -166.75 input  -65.29 | X-H torsion
[ 10718 10713 10712 10709 ] final   75.03 input   66.30 | X-H torsion
[ 10763 10752 10751 10750 ] final   18.09 input  -60.55 | X-H torsion
[ 11005 11000 10999 10996 ] final   91.14 input  -57.11 | X-H torsion

> <Gold.Protein.ActiveResidues>
 VAL166  LYS551  ARG553  GLY616  TRP617  ASP618  TYR619  PRO620  LYS621  CYS622 
 ASP623  PHE694  ASN695  SER759  ASP760  ASP761  ALA762  ILE779  LEU786  VAL792 
 PHE793  MET794  SER795  GLU796  ALA797  LYS798  CYS799  TRP800  GLU811  SER814 

> <Gold.Protein.RotatedAtoms>
  150.6919  134.3885  159.5065 H   0  0  0  0  0  0  0  0  0  0  0  0  # atno 6907 bound_to 6896
  152.1677  134.8857  160.0546 H   0  0  0  0  0  0  0  0  0  0  0  0  # atno 6908 bound_to 6896
  151.9895  133.3751  159.4176 H   0  0  0  0  0  0  0  0  0  0  0  0  # atno 6909 bound_to 6896
  146.2415  139.9926  142.8424 H   0  0  0  0  0  0  0  0  0  0  0  0  # atno 7974 bound_to 7965
  155.0735  140.0393  157.2616 H   0  0  0  0  0  0  0  0  0  0  0  0  # atno 8008 bound_to 7997
  154.6963  140.2664  155.6738 H   0  0  0  0  0  0  0  0  0  0  0  0  # atno 8009 bound_to 7997
  156.2746  140.2749  156.1559 H   0  0  0  0  0  0  0  0  0  0  0  0  # atno 8010 bound_to 7997
  139.6094  144.0846  152.1826 H   0  0  0  0  0  0  0  0  0  0  0  0  # atno 10167 bound_to 10162
  157.6617  130.9707  150.1296 H   0  0  0  0  0  0  0  0  0  0  0  0  # atno 10718 bound_to 10713
  153.1280  135.6734  153.9224 H   0  0  0  0  0  0  0  0  0  0  0  0  # atno 10763 bound_to 10752
  153.8719  135.3068  155.3443 H   0  0  0  0  0  0  0  0  0  0  0  0  # atno 10764 bound_to 10752
  154.7682  135.4953  153.9678 H   0  0  0  0  0  0  0  0  0  0  0  0  # atno 10765 bound_to 10752
  139.8844  134.8656  156.3386 H   0  0  0  0  0  0  0  0  0  0  0  0  # atno 11005 bound_to 11000
  145.1489  140.9612  143.4444 LP  0  0  0  0  0  0  0  0  0  0  0  0  # atno 17320 bound_to 7965
  145.0224  139.3412  143.6066 LP  0  0  0  0  0  0  0  0  0  0  0  0  # atno 17321 bound_to 7965
  140.0461  144.5969  150.7373 LP  0  0  0  0  0  0  0  0  0  0  0  0  # atno 17342 bound_to 10162
  140.7308  143.2687  151.3958 LP  0  0  0  0  0  0  0  0  0  0  0  0  # atno 17343 bound_to 10162
  156.2146  130.3669  149.8629 LP  0  0  0  0  0  0  0  0  0  0  0  0  # atno 17370 bound_to 10713
  156.6498  130.8739  151.3529 LP  0  0  0  0  0  0  0  0  0  0  0  0  # atno 17371 bound_to 10713
  140.9674  133.7349  156.0486 LP  0  0  0  0  0  0  0  0  0  0  0  0  # atno 17394 bound_to 11000
  140.7914  134.3613  157.5463 LP  0  0  0  0  0  0  0  0  0  0  0  0  # atno 17395 bound_to 11000

$$$$
