AV-unprocessed.smi:3327|AV-procd|sdf|12787|dock10
  -GOLD-   2272019133D 1   1.00000     0.00000
 Structure written by MMmdl.
 41 42  0  0  0  0  0  0  0  0  2 V2000
  151.3665  143.5499  157.7325 C   0  0  0  0  0  0  0  0  0  0  0  0
  150.6631  142.2503  157.3175 C   0  0  2  0  0  0  0  0  0  0  0  0
  150.9262  141.1148  158.3309 C   0  0  0  0  0  0  0  0  0  0  0  0
  150.3311  139.7730  157.8630 C   0  0  0  0  0  0  0  0  0  0  0  0
  150.7646  139.4548  156.4214 C   0  0  0  0  0  0  0  0  0  0  0  0
  150.3625  140.5706  155.5548 N   0  0  0  0  0  0  0  0  0  0  0  0
  149.3729  140.5316  154.6296 C   0  0  0  0  0  0  0  0  0  0  0  0
  149.0499  141.5207  153.9689 O   0  0  0  0  0  0  0  0  0  0  0  0
  148.6234  139.2108  154.3954 C   0  0  0  0  0  0  0  0  0  0  0  0
  148.3503  138.9634  152.9647 N   0  3  0  0  0  0  0  0  0  0  0  0
  146.9938  139.3525  152.5308 C   0  0  0  0  0  0  0  0  0  0  0  0
  146.6193  138.6906  151.1935 C   0  0  0  0  0  0  0  0  0  0  0  0
  145.9535  137.4099  151.3627 N   0  0  0  0  0  0  0  0  0  0  0  0
  145.6739  136.4577  150.4046 C   0  0  0  0  0  0  0  0  0  0  0  0
  145.0588  135.4143  151.0352 C   0  0  0  0  0  0  0  0  0  0  0  0
  145.0170  135.8195  152.3984 C   0  0  0  0  0  0  0  0  0  0  0  0
  145.5577  137.0119  152.5916 N   0  0  0  0  0  0  0  0  0  0  0  0
  151.0788  141.8061  155.8988 C   0  0  0  0  0  0  0  0  0  0  0  0
  152.4490  143.4226  157.7633 H   0  0  0  0  0  0  0  0  0  0  0  0
  151.0407  143.8737  158.7214 H   0  0  0  0  0  0  0  0  0  0  0  0
  151.1461  144.3564  157.0325 H   0  0  0  0  0  0  0  0  0  0  0  0
  149.5899  142.4477  157.3054 H   0  0  0  0  0  0  0  0  0  0  0  0
  152.0021  140.9946  158.4661 H   0  0  0  0  0  0  0  0  0  0  0  0
  150.5222  141.3794  159.3087 H   0  0  0  0  0  0  0  0  0  0  0  0
  150.6428  138.9731  158.5350 H   0  0  0  0  0  0  0  0  0  0  0  0
  149.2425  139.8164  157.9160 H   0  0  0  0  0  0  0  0  0  0  0  0
  151.8487  139.3398  156.3768 H   0  0  0  0  0  0  0  0  0  0  0  0
  150.3605  138.4910  156.1161 H   0  0  0  0  0  0  0  0  0  0  0  0
  149.2174  138.3858  154.7907 H   0  0  0  0  0  0  0  0  0  0  0  0
  147.6735  139.2332  154.9315 H   0  0  0  0  0  0  0  0  0  0  0  0
  149.0227  139.4858  152.4207 H   0  0  0  0  0  0  0  0  0  0  0  0
  146.2782  139.0551  153.2982 H   0  0  0  0  0  0  0  0  0  0  0  0
  146.9337  140.4386  152.4482 H   0  0  0  0  0  0  0  0  0  0  0  0
  145.9695  139.3497  150.6160 H   0  0  0  0  0  0  0  0  0  0  0  0
  147.5157  138.5301  150.5930 H   0  0  0  0  0  0  0  0  0  0  0  0
  145.9312  136.5992  149.3650 H   0  0  0  0  0  0  0  0  0  0  0  0
  144.6985  134.4979  150.5914 H   0  0  0  0  0  0  0  0  0  0  0  0
  144.6156  135.2857  153.2472 H   0  0  0  0  0  0  0  0  0  0  0  0
  150.8925  142.6108  155.1862 H   0  0  0  0  0  0  0  0  0  0  0  0
  152.1537  141.6222  155.8590 H   0  0  0  0  0  0  0  0  0  0  0  0
  148.4833  137.9795  152.7790 H   0  0  0  0  0  0  0  0  0  0  0  0
  1  2  1  0  0  0  0
  1 19  1  0  0  0  0
  1 20  1  0  0  0  0
  1 21  1  0  0  0  0
  2 18  1  0  0  0  0
  2  3  1  0  0  0  0
  2 22  1  0  0  0  0
  3  4  1  0  0  0  0
  3 23  1  0  0  0  0
  3 24  1  0  0  0  0
  4  5  1  0  0  0  0
  4 25  1  0  0  0  0
  4 26  1  0  0  0  0
  5  6  1  0  0  0  0
  5 27  1  0  0  0  0
  5 28  1  0  0  0  0
  6  7  1  0  0  0  0
  6 18  1  0  0  0  0
  7  8  2  0  0  0  0
  7  9  1  0  0  0  0
  9 10  1  0  0  0  0
  9 29  1  0  0  0  0
  9 30  1  0  0  0  0
 10 11  1  0  0  0  0
 10 31  1  0  0  0  0
 10 41  1  0  0  0  0
 11 12  1  0  0  0  0
 11 32  1  0  0  0  0
 11 33  1  0  0  0  0
 12 13  1  0  0  0  0
 12 34  1  0  0  0  0
 12 35  1  0  0  0  0
 13 17  1  0  0  0  0
 13 14  1  0  0  0  0
 14 15  2  0  0  0  0
 14 36  1  0  0  0  0
 15 16  1  0  0  0  0
 15 37  1  0  0  0  0
 16 17  2  0  0  0  0
 16 38  1  0  0  0  0
 18 39  1  0  0  0  0
 18 40  1  0  0  0  0
M  CHG  1  10   1
M  END
> <s_m_source_file>
AV-unprocessed.smi

> <i_m_source_file_index>
3327

> <i_lp_mmshare_version>
43012

> <i_f3d_flags>
0

> <s_epik_input>
W0NIM11bQ0BASF0xW0NIMl1bQ0gyXVtDSDJdTihbQ0gyXTEpQyg9TylbQ0gyXVtOSF1bQ0gyXVtDSDJdbjJbY0hdW2NIXVtjSF1uMg==

> <s_epik_cmdline>
J2VwaWtfcHl0aG9uJywgJy1waCcsICc3LjAnLCAnLXRuJywgJzgnLCAnLW1hJywgJzIwMCcsICctbWV0YWxfYmluZGluZycsICctaW1hZScsICc8aW5maWxlLm1hZT4nLCAnLW9tYWUnLCAnPG91dGZpbGUubWFlPic=

> <r_lp_tautomer_probability>
1

> <r_epik_Ionization_Penalty>
0.195801

> <r_epik_Ionization_Penalty_Charging>
0.195799

> <r_epik_Ionization_Penalty_Neutral>
2.33113e-06

> <r_epik_State_Penalty>
0.185548

> <r_epik_Charging_Adjusted_Penalty>
0.381347

> <i_epik_Tot_Q>
1

> <i_epik_Tot_abs_Q>
1

> <r_epik_Metal_State_Penalty>
0.186014

> <b_epik_Metal_Only>
0

> <s_lp_Force_Field>
OPLS_2005

> <r_lp_Energy>
21.5547

> <b_lp_Chiralities_Consistent>
1

> <s_lp_Variant>
AV-unprocessed.smi:3327-1

> <Gold.Version>
5.8.1

> <Gold.Id.Protein>
6NUR|6NUR_protein|mol2

> <Gold.PLP.Fitness>
44.9225

> <Gold.PLP.PLP>
-32.9747

> <Gold.PLP.part.hbond>
-3.0713

> <Gold.PLP.part.metal>
0.0000

> <Gold.PLP.part.buried>
2.8739

> <Gold.PLP.part.nonpolar>
-33.3057

> <Gold.PLP.part.repulsive>
0.4486

> <Gold.PLP.ligand.clash>
0.0000

> <Gold.PLP.ligand.torsion>
0.9077

> <Gold.PLP.Chemscore.Hbond>
3.5678

> <Gold.PLP.Chemscore.CHOScore>
1.0071

> <Gold.PLP.Chemscore.Metal>
0.0000

> <Gold.Chemscore.Hbonds>
donor molecule, donor type, donor heavy atom, donor atom, acceptor molecule, acceptor atom, score
      L1  H    10    31       P1  7957  0.89
      L1  H    10    41       P1  7948  2.00
      P1  H  8011  8017       L1     8  0.69
      L1  C    14    36       P1  7921  0.95

> <Gold.PLP.Chemscore.Internal.Correction>
0.0384

> <Gold.Rescore>
     Score         DG    S(hbond)    S(metal)    S(lipo)     H(rot)  DE(clash)    DE(int)     intcor
     16.38     -19.20       2.52        0.00      84.49       1.80       1.98       0.84       ----

> <Gold.Chemscore.Fitness>
16.3769

> <Gold.Chemscore.DG>
-19.1965

> <Gold.Chemscore.ZeroCoef>
-5.4800

> <Gold.Chemscore.Hbond>
2.5238

> <Gold.Chemscore.Metal>
0.0000

> <Gold.Chemscore.Lipo>
84.4924

> <Gold.Chemscore.Internal_Hbond>
0.0000

> <Gold.Chemscore.DEClash>
1.9800

> <Gold.Chemscore.DEInternal>
0.8396

> <Gold.Chemscore.Rot>
1.7963

> <Gold.Chemscore.Internal.Correction>
   9.000000E+99

> <Gold.Chemscore.Hbonds>
donor molecule, donor type, donor heavy atom, donor atom, acceptor molecule, acceptor atom, score
      L1  H    10    31       P1  7957  0.85
      L1  H    10    41       P1  7948  0.95
      P1  H  8011  8017       L1     8  0.65

> <Gold.Chemscore.Hbond.Weighted>
-8.4294

> <Gold.Chemscore.Metal.Weighted>
-0.0000

> <Gold.Chemscore.Lipo.Weighted>
-9.8856

> <Gold.Chemscore.Internal_Hbond.Weighted>
0.0000

> <Gold.Chemscore.DEClash.Weighted>
1.9800

> <Gold.Chemscore.DEInternal.Weighted>
0.8396

> <Gold.Chemscore.Rot.Weighted>
4.5985

> <Gold.Chemscore.Internal.Correction.Weighted>
   9.000000E+99

> <Gold.Protein.RotatedTorsions>
[ 6907 6896 6895 6894 ] final -154.09 input  -60.11 | X-H torsion
[ 7974 7965 7964 7962 ] final -113.31 input  175.53 | X-H torsion
[ 8008 7997 7996 7995 ] final    4.39 input   59.86 | X-H torsion
[ 10167 10162 10161 10158 ] final  113.30 input  -65.29 | X-H torsion
[ 10718 10713 10712 10709 ] final  155.06 input   66.30 | X-H torsion
[ 10763 10752 10751 10750 ] final  -41.09 input  -60.55 | X-H torsion
[ 11005 11000 10999 10996 ] final -112.91 input  -57.11 | X-H torsion

> <Gold.Protein.ActiveResidues>
 VAL166  LYS551  ARG553  GLY616  TRP617  ASP618  TYR619  PRO620  LYS621  CYS622 
 ASP623  PHE694  ASN695  SER759  ASP760  ASP761  ALA762  ILE779  LEU786  VAL792 
 PHE793  MET794  SER795  GLU796  ALA797  LYS798  CYS799  TRP800  GLU811  SER814 

> <Gold.Protein.RotatedAtoms>
  151.2523  133.4344  159.2611 H   0  0  0  0  0  0  0  0  0  0  0  0  # atno 6907 bound_to 6896
  151.0606  134.9734  159.8269 H   0  0  0  0  0  0  0  0  0  0  0  0  # atno 6908 bound_to 6896
  152.5397  134.2473  159.8938 H   0  0  0  0  0  0  0  0  0  0  0  0  # atno 6909 bound_to 6896
  145.1336  140.8738  143.3743 H   0  0  0  0  0  0  0  0  0  0  0  0  # atno 7974 bound_to 7965
  154.7154  140.2701  155.6591 H   0  0  0  0  0  0  0  0  0  0  0  0  # atno 8008 bound_to 7997
  156.2808  140.2745  156.1733 H   0  0  0  0  0  0  0  0  0  0  0  0  # atno 8009 bound_to 7997
  155.0579  140.0371  157.2556 H   0  0  0  0  0  0  0  0  0  0  0  0  # atno 8010 bound_to 7997
  139.6472  144.7127  151.2120 H   0  0  0  0  0  0  0  0  0  0  0  0  # atno 10167 bound_to 10162
  157.2233  131.0723  151.1898 H   0  0  0  0  0  0  0  0  0  0  0  0  # atno 10718 bound_to 10713
  153.9568  135.6744  153.4744 H   0  0  0  0  0  0  0  0  0  0  0  0  # atno 10763 bound_to 10752
  153.0857  135.4900  154.8589 H   0  0  0  0  0  0  0  0  0  0  0  0  # atno 10764 bound_to 10752
  154.7295  135.3135  154.8875 H   0  0  0  0  0  0  0  0  0  0  0  0  # atno 10765 bound_to 10752
  141.0647  133.9479  157.2602 H   0  0  0  0  0  0  0  0  0  0  0  0  # atno 11005 bound_to 11000
  145.0608  139.3107  143.5881 LP  0  0  0  0  0  0  0  0  0  0  0  0  # atno 17320 bound_to 7965
  146.3512  140.0050  142.8672 LP  0  0  0  0  0  0  0  0  0  0  0  0  # atno 17321 bound_to 7965
  140.7520  143.6211  150.8512 LP  0  0  0  0  0  0  0  0  0  0  0  0  # atno 17342 bound_to 10162
  139.9855  143.5904  152.2928 LP  0  0  0  0  0  0  0  0  0  0  0  0  # atno 17343 bound_to 10162
  157.3553  130.7103  149.6467 LP  0  0  0  0  0  0  0  0  0  0  0  0  # atno 17370 bound_to 10713
  155.9680  130.4241  150.4591 LP  0  0  0  0  0  0  0  0  0  0  0  0  # atno 17371 bound_to 10713
  139.9465  135.0183  156.8867 LP  0  0  0  0  0  0  0  0  0  0  0  0  # atno 17394 bound_to 11000
  140.5798  134.0363  155.7460 LP  0  0  0  0  0  0  0  0  0  0  0  0  # atno 17395 bound_to 11000

$$$$
