AV-unprocessed.smi:1260|AV-procd|sdf|5298|dock2
  -GOLD-   22720 4413D 1   1.00000     0.00000
 Structure written by MMmdl.
 37 39  0  0  0  0  0  0  0  0  2 V2000
  149.7722  141.3458  154.7509 O   0  0  0  0  0  0  0  0  0  0  0  0
  149.7391  140.5795  155.7132 C   0  0  0  0  0  0  0  0  0  0  0  0
  150.1416  139.1157  155.5379 C   0  0  0  0  0  0  0  0  0  0  0  0
  151.5845  138.9749  155.5874 N   0  0  0  0  0  0  0  0  0  0  0  0
  152.3710  138.2862  156.4173 C   0  0  0  0  0  0  0  0  0  0  0  0
  153.6517  138.4429  156.1206 N   0  0  0  0  0  0  0  0  0  0  0  0
  153.6193  139.2905  155.0255 N   0  0  0  0  0  0  0  0  0  0  0  0
  152.3955  139.6105  154.7056 N   0  0  0  0  0  0  0  0  0  0  0  0
  149.3821  140.9600  156.9498 N   0  0  0  0  0  0  0  0  0  0  0  0
  149.0253  142.3215  157.3371 C   0  0  1  0  0  0  0  0  0  0  0  0
  147.7110  142.3979  158.1334 C   0  0  0  0  0  0  0  0  0  0  0  0
  147.9349  143.5031  159.1852 C   0  0  0  0  0  0  0  0  0  0  0  0
  149.2827  144.0384  158.9112 N   0  3  1  0  0  0  0  0  0  0  0  0
  149.9970  144.6772  160.0378 C   0  0  0  0  0  0  0  0  0  0  0  0
  151.3391  145.2436  159.5324 C   0  0  0  0  0  0  0  0  0  0  0  0
  152.1738  144.1714  158.8027 C   0  0  0  0  0  0  0  0  0  0  0  0
  151.3486  143.4767  157.7023 C   0  0  0  0  0  0  0  0  0  0  0  0
  150.0412  142.9341  158.3042 C   0  0  2  0  0  0  0  0  0  0  0  0
  149.6998  138.4973  156.3207 H   0  0  0  0  0  0  0  0  0  0  0  0
  149.7720  138.7405  154.5823 H   0  0  0  0  0  0  0  0  0  0  0  0
  152.0086  137.6814  157.2355 H   0  0  0  0  0  0  0  0  0  0  0  0
  149.3780  140.2609  157.6786 H   0  0  0  0  0  0  0  0  0  0  0  0
  148.9295  142.9603  156.4563 H   0  0  0  0  0  0  0  0  0  0  0  0
  146.8668  142.6220  157.4804 H   0  0  0  0  0  0  0  0  0  0  0  0
  147.4952  141.4532  158.6350 H   0  0  0  0  0  0  0  0  0  0  0  0
  147.1876  144.2945  159.1224 H   0  0  0  0  0  0  0  0  0  0  0  0
  147.8941  143.0780  160.1892 H   0  0  0  0  0  0  0  0  0  0  0  0
  149.3836  145.4768  160.4546 H   0  0  0  0  0  0  0  0  0  0  0  0
  150.1644  143.9495  160.8332 H   0  0  0  0  0  0  0  0  0  0  0  0
  151.1461  146.0730  158.8506 H   0  0  0  0  0  0  0  0  0  0  0  0
  151.9079  145.6572  160.3656 H   0  0  0  0  0  0  0  0  0  0  0  0
  153.0699  144.6205  158.3732 H   0  0  0  0  0  0  0  0  0  0  0  0
  152.5164  143.4272  159.5228 H   0  0  0  0  0  0  0  0  0  0  0  0
  151.1298  144.1816  156.8990 H   0  0  0  0  0  0  0  0  0  0  0  0
  151.9296  142.6670  157.2605 H   0  0  0  0  0  0  0  0  0  0  0  0
  150.2770  142.2050  159.0832 H   0  0  0  0  0  0  0  0  0  0  0  0
  149.1727  144.7374  158.1902 H   0  0  0  0  0  0  0  0  0  0  0  0
  1  2  2  0  0  0  0
  2  3  1  0  0  0  0
  2  9  1  0  0  0  0
  3  4  1  0  0  0  0
  3 19  1  0  0  0  0
  3 20  1  0  0  0  0
  4  8  1  0  0  0  0
  4  5  1  0  0  0  0
  5  6  2  0  0  0  0
  5 21  1  0  0  0  0
  6  7  1  0  0  0  0
  7  8  2  0  0  0  0
  9 10  1  0  0  0  0
  9 22  1  0  0  0  0
 10 18  1  0  0  0  0
 10 11  1  0  0  0  0
 10 23  1  0  0  0  0
 11 12  1  0  0  0  0
 11 24  1  0  0  0  0
 11 25  1  0  0  0  0
 12 13  1  0  0  0  0
 12 26  1  0  0  0  0
 12 27  1  0  0  0  0
 13 18  1  0  0  0  0
 13 14  1  0  0  0  0
 13 37  1  0  0  0  0
 14 15  1  0  0  0  0
 14 28  1  0  0  0  0
 14 29  1  0  0  0  0
 15 16  1  0  0  0  0
 15 30  1  0  0  0  0
 15 31  1  0  0  0  0
 16 17  1  0  0  0  0
 16 32  1  0  0  0  0
 16 33  1  0  0  0  0
 17 18  1  0  0  0  0
 17 34  1  0  0  0  0
 17 35  1  0  0  0  0
 18 36  1  0  0  0  0
M  CHG  1  13   1
M  END
> <s_m_source_file>
AV-unprocessed.smi

> <i_m_source_file_index>
1260

> <i_lp_mmshare_version>
43012

> <i_f3d_flags>
0

> <s_epik_input>
bjFubltjSF1uMVtDSDJdQyg9TylbTkhdW0NASF0oW0NIMl1bQ0gyXTIpW0NAQEhdKE4yMylbQ0gyXVtDSDJdW0NIMl1bQ0gyXTM=

> <s_epik_cmdline>
J2VwaWtfcHl0aG9uJywgJy1waCcsICc3LjAnLCAnLXRuJywgJzgnLCAnLW1hJywgJzIwMCcsICctbWV0YWxfYmluZGluZycsICctaW1hZScsICc8aW5maWxlLm1hZT4nLCAnLW9tYWUnLCAnPG91dGZpbGUubWFlPic=

> <r_lp_tautomer_probability>
1

> <r_epik_Ionization_Penalty>
0.00234324

> <r_epik_Ionization_Penalty_Charging>
0.00233897

> <r_epik_Ionization_Penalty_Neutral>
4.26861e-06

> <r_epik_State_Penalty>
0.00161477

> <r_epik_Charging_Adjusted_Penalty>
0.00395374

> <i_epik_Tot_Q>
1

> <i_epik_Tot_abs_Q>
1

> <r_epik_Metal_State_Penalty>
-0

> <b_epik_Metal_Only>
0

> <s_lp_Force_Field>
OPLS_2005

> <r_lp_Energy>
36.6869

> <b_lp_Chiralities_Consistent>
1

> <s_lp_Variant>
AV-unprocessed.smi:1260-6

> <Gold.Version>
5.8.1

> <Gold.Id.Protein>
6NUR|6NUR_protein|mol2

> <Gold.PLP.Fitness>
38.2629

> <Gold.PLP.PLP>
-29.4728

> <Gold.PLP.part.hbond>
-4.7577

> <Gold.PLP.part.metal>
0.0000

> <Gold.PLP.part.buried>
-2.7482

> <Gold.PLP.part.nonpolar>
-22.2433

> <Gold.PLP.part.repulsive>
0.3293

> <Gold.PLP.ligand.clash>
0.0000

> <Gold.PLP.ligand.torsion>
0.3941

> <Gold.PLP.Chemscore.Hbond>
3.1880

> <Gold.PLP.Chemscore.CHOScore>
0.0000

> <Gold.PLP.Chemscore.Metal>
0.0000

> <Gold.Chemscore.Hbonds>
donor molecule, donor type, donor heavy atom, donor atom, acceptor molecule, acceptor atom, score
      L1  H    13    37       P1  8029  1.86
      P1  H  7989  7998       L1     8  0.67
      P1  H  7997  8010       L1     7  0.62

> <Gold.PLP.Chemscore.Internal.Correction>
0.0143

> <Gold.Rescore>
     Score         DG    S(hbond)    S(metal)    S(lipo)     H(rot)  DE(clash)    DE(int)     intcor
     12.45     -12.87       1.54        0.00      62.43       1.98       0.07       0.34       ----

> <Gold.Chemscore.Fitness>
12.4517

> <Gold.Chemscore.DG>
-12.8694

> <Gold.Chemscore.ZeroCoef>
-5.4800

> <Gold.Chemscore.Hbond>
1.5398

> <Gold.Chemscore.Metal>
0.0000

> <Gold.Chemscore.Lipo>
62.4282

> <Gold.Chemscore.Internal_Hbond>
0.0000

> <Gold.Chemscore.DEClash>
0.0735

> <Gold.Chemscore.DEInternal>
0.3441

> <Gold.Chemscore.Rot>
1.9757

> <Gold.Chemscore.Internal.Correction>
   9.000000E+99

> <Gold.Chemscore.Hbonds>
donor molecule, donor type, donor heavy atom, donor atom, acceptor molecule, acceptor atom, score
      L1  H    13    37       P1  8029  0.26
      P1  H  7989  7998       L1     8  0.66
      P1  H  7997  8010       L1     7  0.06

> <Gold.Chemscore.Hbond.Weighted>
-5.1430

> <Gold.Chemscore.Metal.Weighted>
-0.0000

> <Gold.Chemscore.Lipo.Weighted>
-7.3041

> <Gold.Chemscore.Internal_Hbond.Weighted>
0.0000

> <Gold.Chemscore.DEClash.Weighted>
0.0735

> <Gold.Chemscore.DEInternal.Weighted>
0.3441

> <Gold.Chemscore.Rot.Weighted>
5.0578

> <Gold.Chemscore.Internal.Correction.Weighted>
   9.000000E+99

> <Gold.Protein.RotatedTorsions>
[ 6907 6896 6895 6894 ] final -105.89 input  -60.11 | X-H torsion
[ 7974 7965 7964 7962 ] final  -72.89 input  175.53 | X-H torsion
[ 8008 7997 7996 7995 ] final  130.65 input   59.86 | X-H torsion
[ 10167 10162 10161 10158 ] final -131.51 input  -65.29 | X-H torsion
[ 10718 10713 10712 10709 ] final   97.97 input   66.30 | X-H torsion
[ 10763 10752 10751 10750 ] final -142.67 input  -60.55 | X-H torsion
[ 11005 11000 10999 10996 ] final  122.42 input  -57.11 | X-H torsion

> <Gold.Protein.ActiveResidues>
 VAL166  LYS551  ARG553  GLY616  TRP617  ASP618  TYR619  PRO620  LYS621  CYS622 
 ASP623  PHE694  ASN695  SER759  ASP760  ASP761  ALA762  ILE779  LEU786  VAL792 
 PHE793  MET794  SER795  GLU796  ALA797  LYS798  CYS799  TRP800  GLU811  SER814 

> <Gold.Protein.RotatedAtoms>
  150.7360  134.0059  159.3653 H   0  0  0  0  0  0  0  0  0  0  0  0  # atno 6907 bound_to 6896
  151.8015  135.0705  160.0410 H   0  0  0  0  0  0  0  0  0  0  0  0  # atno 6908 bound_to 6896
  152.3137  133.5743  159.5734 H   0  0  0  0  0  0  0  0  0  0  0  0  # atno 6909 bound_to 6896
  145.6592  140.9258  143.0943 H   0  0  0  0  0  0  0  0  0  0  0  0  # atno 7974 bound_to 7965
  156.2958  140.2591  156.2797 H   0  0  0  0  0  0  0  0  0  0  0  0  # atno 8008 bound_to 7997
  154.9614  140.0392  157.2210 H   0  0  0  0  0  0  0  0  0  0  0  0  # atno 8009 bound_to 7997
  154.7943  140.2817  155.5973 H   0  0  0  0  0  0  0  0  0  0  0  0  # atno 8010 bound_to 7997
  139.9182  143.6414  152.2560 H   0  0  0  0  0  0  0  0  0  0  0  0  # atno 10167 bound_to 10162
  157.6904  131.0625  150.4724 H   0  0  0  0  0  0  0  0  0  0  0  0  # atno 10718 bound_to 10713
  154.8500  135.3489  154.6066 H   0  0  0  0  0  0  0  0  0  0  0  0  # atno 10763 bound_to 10752
  153.6674  135.6986  153.5162 H   0  0  0  0  0  0  0  0  0  0  0  0  # atno 10764 bound_to 10752
  153.2769  135.4275  155.0998 H   0  0  0  0  0  0  0  0  0  0  0  0  # atno 10765 bound_to 10752
  139.9268  134.9641  156.8107 H   0  0  0  0  0  0  0  0  0  0  0  0  # atno 11005 bound_to 11000
  144.7095  139.8427  143.7419 LP  0  0  0  0  0  0  0  0  0  0  0  0  # atno 17320 bound_to 7965
  146.1139  139.4148  143.0270 LP  0  0  0  0  0  0  0  0  0  0  0  0  # atno 17321 bound_to 7965
  139.6884  144.7649  151.1482 LP  0  0  0  0  0  0  0  0  0  0  0  0  # atno 17342 bound_to 10162
  140.7669  143.5624  150.9085 LP  0  0  0  0  0  0  0  0  0  0  0  0  # atno 17343 bound_to 10162
  156.5061  130.4128  149.6326 LP  0  0  0  0  0  0  0  0  0  0  0  0  # atno 17370 bound_to 10713
  156.3283  130.7318  151.2243 LP  0  0  0  0  0  0  0  0  0  0  0  0  # atno 17371 bound_to 10713
  140.6314  133.9902  155.7664 LP  0  0  0  0  0  0  0  0  0  0  0  0  # atno 17394 bound_to 11000
  141.0830  134.0033  157.3356 LP  0  0  0  0  0  0  0  0  0  0  0  0  # atno 17395 bound_to 11000

$$$$
