AV-unprocessed.smi:1809|AV-procd|sdf|7331|dock3
  -GOLD-   22720 8583D 1   1.00000     0.00000
 Structure written by MMmdl.
 38 40  0  0  0  0  0  0  0  0  2 V2000
  148.0550  134.0853  157.0399 C   0  0  0  0  0  0  0  0  0  0  0  0
  149.0168  135.1157  156.5556 C   0  0  0  0  0  0  0  0  0  0  0  0
  149.1656  136.3019  157.1503 N   0  0  0  0  0  0  0  0  0  0  0  0
  150.1190  137.0872  156.5185 N   0  0  0  0  0  0  0  0  0  0  0  0
  150.6863  136.4811  155.4657 C   0  0  0  0  0  0  0  0  0  0  0  0
  151.6311  137.0732  154.7167 N   0  5  0  0  0  0  0  0  0  0  0  0
  152.1015  138.2935  155.0616 C   0  0  0  0  0  0  0  0  0  0  0  0
  153.2868  138.6210  155.1545 O   0  0  0  0  0  0  0  0  0  0  0  0
  151.1407  139.1918  155.3136 N   0  0  0  0  0  0  0  0  0  0  0  0
  151.3697  140.5752  155.7089 C   0  0  0  0  0  0  0  0  0  0  0  0
  150.4055  140.9882  156.8376 C   0  0  2  0  0  0  0  0  0  0  0  0
  150.6343  142.4409  157.3193 C   0  0  0  0  0  0  0  0  0  0  0  0
  151.8285  142.5281  158.1391 N   0  0  0  0  0  0  0  0  0  0  0  0
  152.1150  143.8110  158.7376 C   0  0  0  0  0  0  0  0  0  0  0  0
  153.1482  143.4967  159.8335 C   0  0  0  0  0  0  0  0  0  0  0  0
  152.9736  141.9861  160.1053 C   0  0  0  0  0  0  0  0  0  0  0  0
  151.7530  141.6265  159.2560 C   0  0  2  0  0  0  0  0  0  0  0  0
  151.6288  140.1744  158.7757 C   0  0  0  0  0  0  0  0  0  0  0  0
  150.4676  140.0748  157.9454 O   0  0  0  0  0  0  0  0  0  0  0  0
  150.0508  134.8646  155.1594 S   0  0  0  0  0  0  0  0  0  0  0  0
  148.5029  133.5107  157.8508 H   0  0  0  0  0  0  0  0  0  0  0  0
  147.7925  133.4038  156.2307 H   0  0  0  0  0  0  0  0  0  0  0  0
  147.1434  134.5590  157.4053 H   0  0  0  0  0  0  0  0  0  0  0  0
  150.1812  138.8891  155.2329 H   0  0  0  0  0  0  0  0  0  0  0  0
  152.4094  140.7009  156.0131 H   0  0  0  0  0  0  0  0  0  0  0  0
  151.2155  141.2199  154.8426 H   0  0  0  0  0  0  0  0  0  0  0  0
  149.3926  140.9272  156.4381 H   0  0  0  0  0  0  0  0  0  0  0  0
  150.7102  143.1184  156.4683 H   0  0  0  0  0  0  0  0  0  0  0  0
  149.7693  142.7651  157.8997 H   0  0  0  0  0  0  0  0  0  0  0  0
  152.4858  144.5250  158.0018 H   0  0  0  0  0  0  0  0  0  0  0  0
  151.2121  144.2262  159.1882 H   0  0  0  0  0  0  0  0  0  0  0  0
  154.1610  143.7045  159.4864 H   0  0  0  0  0  0  0  0  0  0  0  0
  152.9689  144.0970  160.7260 H   0  0  0  0  0  0  0  0  0  0  0  0
  153.8546  141.4391  159.7667 H   0  0  0  0  0  0  0  0  0  0  0  0
  152.8198  141.7626  161.1612 H   0  0  0  0  0  0  0  0  0  0  0  0
  150.8618  141.8650  159.8407 H   0  0  0  0  0  0  0  0  0  0  0  0
  152.5175  139.8610  158.2271 H   0  0  0  0  0  0  0  0  0  0  0  0
  151.5212  139.4976  159.6234 H   0  0  0  0  0  0  0  0  0  0  0  0
  1  2  1  0  0  0  0
  1 21  1  0  0  0  0
  1 22  1  0  0  0  0
  1 23  1  0  0  0  0
  2 20  1  0  0  0  0
  2  3  2  0  0  0  0
  3  4  1  0  0  0  0
  4  5  2  0  0  0  0
  5  6  1  0  0  0  0
  5 20  1  0  0  0  0
  6  7  1  0  0  0  0
  7  8  2  0  0  0  0
  7  9  1  0  0  0  0
  9 10  1  0  0  0  0
  9 24  1  0  0  0  0
 10 11  1  0  0  0  0
 10 25  1  0  0  0  0
 10 26  1  0  0  0  0
 11 19  1  0  0  0  0
 11 12  1  0  0  0  0
 11 27  1  0  0  0  0
 12 13  1  0  0  0  0
 12 28  1  0  0  0  0
 12 29  1  0  0  0  0
 13 17  1  0  0  0  0
 13 14  1  0  0  0  0
 14 15  1  0  0  0  0
 14 30  1  0  0  0  0
 14 31  1  0  0  0  0
 15 16  1  0  0  0  0
 15 32  1  0  0  0  0
 15 33  1  0  0  0  0
 16 17  1  0  0  0  0
 16 34  1  0  0  0  0
 16 35  1  0  0  0  0
 17 18  1  0  0  0  0
 17 36  1  0  0  0  0
 18 19  1  0  0  0  0
 18 37  1  0  0  0  0
 18 38  1  0  0  0  0
M  CHG  1   6  -1
M  END
> <s_m_source_file>
AV-unprocessed.smi

> <i_m_source_file_index>
1809

> <i_lp_mmshare_version>
43012

> <i_f3d_flags>
0

> <s_epik_input>
W0NIM11jMW5uYyhzMSlbTkhdQyg9TylbTkhdW0NIMl1bQ0BIXShbQ0gyXTIpT1tDSDJdW0NAQEhdKE4yMylbQ0gyXVtDSDJdW0NIMl0z

> <s_epik_cmdline>
J2VwaWtfcHl0aG9uJywgJy1waCcsICc3LjAnLCAnLXRuJywgJzgnLCAnLW1hJywgJzIwMCcsICctbWV0YWxfYmluZGluZycsICctaW1hZScsICc8aW5maWxlLm1hZT4nLCAnLW9tYWUnLCAnPG91dGZpbGUubWFlPic=

> <r_lp_tautomer_probability>
1

> <r_epik_Ionization_Penalty>
4.48809

> <r_epik_Ionization_Penalty_Charging>
3.27284

> <r_epik_Ionization_Penalty_Neutral>
1.21525

> <r_epik_State_Penalty>
4.69427

> <r_epik_Charging_Adjusted_Penalty>
7.96711

> <i_epik_Tot_Q>
-1

> <i_epik_Tot_abs_Q>
1

> <r_epik_Metal_State_Penalty>
1.91976

> <b_epik_Metal_Only>
1

> <s_lp_Force_Field>
OPLS_2005

> <r_lp_Energy>
48.824

> <b_lp_Chiralities_Consistent>
1

> <s_lp_Variant>
AV-unprocessed.smi:1809-23

> <Gold.Version>
5.8.1

> <Gold.Id.Protein>
6NUR|6NUR_protein|mol2

> <Gold.PLP.Fitness>
40.6507

> <Gold.PLP.PLP>
-32.7494

> <Gold.PLP.part.hbond>
-2.0000

> <Gold.PLP.part.metal>
0.0000

> <Gold.PLP.part.buried>
-4.8497

> <Gold.PLP.part.nonpolar>
-26.7139

> <Gold.PLP.part.repulsive>
0.2952

> <Gold.PLP.ligand.clash>
0.0000

> <Gold.PLP.ligand.torsion>
0.5606

> <Gold.PLP.Chemscore.Hbond>
3.0000

> <Gold.PLP.Chemscore.CHOScore>
0.0000

> <Gold.PLP.Chemscore.Metal>
0.0000

> <Gold.Chemscore.Hbonds>
donor molecule, donor type, donor heavy atom, donor atom, acceptor molecule, acceptor atom, score
      P1  H  7997  8008       L1     8  0.88
      P1  H 10752 10763       L1     6  2.00

> <Gold.PLP.Chemscore.Internal.Correction>
0.0225

> <Gold.Rescore>
     Score         DG    S(hbond)    S(metal)    S(lipo)     H(rot)  DE(clash)    DE(int)     intcor
     16.24     -16.82       1.55        0.00      81.17       1.31       0.09       0.50       ----

> <Gold.Chemscore.Fitness>
16.2361

> <Gold.Chemscore.DG>
-16.8246

> <Gold.Chemscore.ZeroCoef>
-5.4800

> <Gold.Chemscore.Hbond>
1.5534

> <Gold.Chemscore.Metal>
0.0000

> <Gold.Chemscore.Lipo>
81.1747

> <Gold.Chemscore.Internal_Hbond>
0.0000

> <Gold.Chemscore.DEClash>
0.0924

> <Gold.Chemscore.DEInternal>
0.4961

> <Gold.Chemscore.Rot>
1.3051

> <Gold.Chemscore.Internal.Correction>
   9.000000E+99

> <Gold.Chemscore.Hbonds>
donor molecule, donor type, donor heavy atom, donor atom, acceptor molecule, acceptor atom, score
      P1  H  7997  8008       L1     8  0.81
      P1  H 10752 10763       L1     6  0.54

> <Gold.Chemscore.Hbond.Weighted>
-5.1883

> <Gold.Chemscore.Metal.Weighted>
-0.0000

> <Gold.Chemscore.Lipo.Weighted>
-9.4974

> <Gold.Chemscore.Internal_Hbond.Weighted>
0.0000

> <Gold.Chemscore.DEClash.Weighted>
0.0924

> <Gold.Chemscore.DEInternal.Weighted>
0.4961

> <Gold.Chemscore.Rot.Weighted>
3.3412

> <Gold.Chemscore.Internal.Correction.Weighted>
   9.000000E+99

> <Gold.Protein.RotatedTorsions>
[ 6907 6896 6895 6894 ] final  164.19 input  -60.11 | X-H torsion
[ 7974 7965 7964 7962 ] final   79.70 input  175.53 | X-H torsion
[ 8008 7997 7996 7995 ] final  -22.10 input   59.86 | X-H torsion
[ 10167 10162 10161 10158 ] final -131.04 input  -65.29 | X-H torsion
[ 10718 10713 10712 10709 ] final -156.14 input   66.30 | X-H torsion
[ 10763 10752 10751 10750 ] final   37.09 input  -60.55 | X-H torsion
[ 11005 11000 10999 10996 ] final -126.77 input  -57.11 | X-H torsion

> <Gold.Protein.ActiveResidues>
 VAL166  LYS551  ARG553  GLY616  TRP617  ASP618  TYR619  PRO620  LYS621  CYS622 
 ASP623  PHE694  ASN695  SER759  ASP760  ASP761  ALA762  ILE779  LEU786  VAL792 
 PHE793  MET794  SER795  GLU796  ALA797  LYS798  CYS799  TRP800  GLU811  SER814 

> <Gold.Protein.RotatedAtoms>
  151.9137  133.3567  159.3872 H   0  0  0  0  0  0  0  0  0  0  0  0  # atno 6907 bound_to 6896
  150.7052  134.4706  159.5433 H   0  0  0  0  0  0  0  0  0  0  0  0  # atno 6908 bound_to 6896
  152.2317  134.8315  160.0523 H   0  0  0  0  0  0  0  0  0  0  0  0  # atno 6909 bound_to 6896
  145.6608  139.2471  143.1924 H   0  0  0  0  0  0  0  0  0  0  0  0  # atno 7974 bound_to 7965
  154.4665  140.2017  156.0106 H   0  0  0  0  0  0  0  0  0  0  0  0  # atno 8008 bound_to 7997
  156.0935  140.3254  155.7818 H   0  0  0  0  0  0  0  0  0  0  0  0  # atno 8009 bound_to 7997
  155.4916  140.0546  157.2943 H   0  0  0  0  0  0  0  0  0  0  0  0  # atno 8010 bound_to 7997
  139.9231  143.6359  152.2549 H   0  0  0  0  0  0  0  0  0  0  0  0  # atno 10167 bound_to 10162
  156.5225  130.8484  151.2687 H   0  0  0  0  0  0  0  0  0  0  0  0  # atno 10718 bound_to 10713
  153.0051  135.6287  154.2089 H   0  0  0  0  0  0  0  0  0  0  0  0  # atno 10763 bound_to 10752
  154.1832  135.2812  155.3047 H   0  0  0  0  0  0  0  0  0  0  0  0  # atno 10764 bound_to 10752
  154.5818  135.5645  153.7252 H   0  0  0  0  0  0  0  0  0  0  0  0  # atno 10765 bound_to 10752
  140.9654  134.0878  157.3925 H   0  0  0  0  0  0  0  0  0  0  0  0  # atno 11005 bound_to 11000
  146.1127  140.7408  142.9495 LP  0  0  0  0  0  0  0  0  0  0  0  0  # atno 17320 bound_to 7965
  144.7090  140.3964  143.7095 LP  0  0  0  0  0  0  0  0  0  0  0  0  # atno 17321 bound_to 7965
  139.6845  144.7653  151.1548 LP  0  0  0  0  0  0  0  0  0  0  0  0  # atno 17342 bound_to 10162
  140.7657  143.5677  150.9030 LP  0  0  0  0  0  0  0  0  0  0  0  0  # atno 17343 bound_to 10162
  157.7434  130.9912  150.2594 LP  0  0  0  0  0  0  0  0  0  0  0  0  # atno 17370 bound_to 10713
  156.3136  130.3775  149.7639 LP  0  0  0  0  0  0  0  0  0  0  0  0  # atno 17371 bound_to 10713
  139.8893  135.0104  156.6670 LP  0  0  0  0  0  0  0  0  0  0  0  0  # atno 17394 bound_to 11000
  140.7406  133.8981  155.8275 LP  0  0  0  0  0  0  0  0  0  0  0  0  # atno 17395 bound_to 11000

$$$$
