AV-unprocessed.smi:149|AV-procd|sdf|1234|dock3
  -GOLD-   2262018443D 1   1.00000     0.00000
 Structure written by MMmdl.
 60 64  0  0  0  0  0  0  0  0  2 V2000
  156.7138  137.9921  160.0434 C   0  0  0  0  0  0  0  0  0  0  0  0
  155.4141  137.1671  160.1175 C   0  0  2  0  0  0  0  0  0  0  0  0
  154.3991  137.6902  159.0832 C   0  0  0  0  0  0  0  0  0  0  0  0
  153.1154  137.7790  159.7569 N   0  0  0  0  0  0  0  0  0  0  0  0
  151.9534  137.7854  159.0507 C   0  0  0  0  0  0  0  0  0  0  0  0
  150.8908  137.0948  159.5433 N   0  0  0  0  0  0  0  0  0  0  0  0
  149.7290  137.0739  158.8852 C   0  0  0  0  0  0  0  0  0  0  0  0
  149.4137  137.6694  157.7356 N   0  0  0  0  0  0  0  0  0  0  0  0
  150.4667  138.3762  157.2348 C   0  0  0  0  0  0  0  0  0  0  0  0
  151.7604  138.4886  157.8236 C   0  0  0  0  0  0  0  0  0  0  0  0
  152.5630  139.3009  157.0300 N   0  0  0  0  0  0  0  0  0  0  0  0
  151.7953  139.6398  156.0314 C   0  0  0  0  0  0  0  0  0  0  0  0
  150.5184  139.1282  156.0714 N   0  0  0  0  0  0  0  0  0  0  0  0
  149.4819  139.3471  155.1007 C   0  0  0  0  0  0  0  0  0  0  0  0
  149.3194  140.6970  154.3968 C   0  0  0  0  0  0  0  0  0  0  0  0
  147.7876  140.4805  154.3597 C   0  0  0  0  0  0  0  0  0  0  0  0
  146.8957  141.6991  154.6703 C   0  0  0  0  0  0  0  0  0  0  0  0
  147.2605  142.3462  155.8734 O   0  0  0  0  0  0  0  0  0  0  0  0
  147.2439  139.8337  153.0718 C   0  0  0  0  0  0  0  0  0  0  0  0
  145.9228  139.3609  153.2419 O   0  0  0  0  0  0  0  0  0  0  0  0
  148.0142  139.4794  155.5171 C   0  0  0  0  0  0  0  0  0  0  0  0
  153.1997  137.1243  161.0481 C   0  0  0  0  0  0  0  0  0  0  0  0
  154.6694  137.2345  161.4742 C   0  0  1  0  0  0  0  0  0  0  0  0
  155.0117  136.1650  162.4648 N   0  3  0  0  0  0  0  0  0  0  0  0
  156.4118  136.1433  162.9581 C   0  0  0  0  0  0  0  0  0  0  0  0
  156.6594  137.2765  163.9711 C   0  0  0  0  0  0  0  0  0  0  0  0
  155.7555  137.1339  165.0605 O   0  0  0  0  0  0  0  0  0  0  0  0
  154.3954  137.2177  164.6503 C   0  0  0  0  0  0  0  0  0  0  0  0
  154.0866  136.1048  163.6281 C   0  0  0  0  0  0  0  0  0  0  0  0
  156.5275  139.0404  160.2793 H   0  0  0  0  0  0  0  0  0  0  0  0
  157.1362  137.9533  159.0389 H   0  0  0  0  0  0  0  0  0  0  0  0
  157.4843  137.6394  160.7247 H   0  0  0  0  0  0  0  0  0  0  0  0
  155.6252  136.1243  159.8760 H   0  0  0  0  0  0  0  0  0  0  0  0
  154.6731  138.6844  158.7279 H   0  0  0  0  0  0  0  0  0  0  0  0
  154.3509  137.0259  158.2193 H   0  0  0  0  0  0  0  0  0  0  0  0
  148.9386  136.4993  159.3454 H   0  0  0  0  0  0  0  0  0  0  0  0
  152.1450  140.2786  155.2331 H   0  0  0  0  0  0  0  0  0  0  0  0
  149.5841  138.5553  154.3563 H   0  0  0  0  0  0  0  0  0  0  0  0
  149.6248  141.5389  155.0189 H   0  0  0  0  0  0  0  0  0  0  0  0
  149.8009  140.7500  153.4199 H   0  0  0  0  0  0  0  0  0  0  0  0
  146.9501  142.4397  153.8720 H   0  0  0  0  0  0  0  0  0  0  0  0
  145.8495  141.4030  154.7536 H   0  0  0  0  0  0  0  0  0  0  0  0
  147.9214  142.9929  155.6792 H   0  0  0  0  0  0  0  0  0  0  0  0
  147.2381  140.5444  152.2451 H   0  0  0  0  0  0  0  0  0  0  0  0
  147.8749  139.0029  152.7542 H   0  0  0  0  0  0  0  0  0  0  0  0
  145.3297  139.9710  152.8304 H   0  0  0  0  0  0  0  0  0  0  0  0
  147.4431  138.5539  155.4374 H   0  0  0  0  0  0  0  0  0  0  0  0
  147.8945  139.9169  156.5085 H   0  0  0  0  0  0  0  0  0  0  0  0
  152.5349  137.6013  161.7691 H   0  0  0  0  0  0  0  0  0  0  0  0
  152.9013  136.0801  160.9396 H   0  0  0  0  0  0  0  0  0  0  0  0
  154.8333  138.2210  161.9093 H   0  0  0  0  0  0  0  0  0  0  0  0
  156.5774  135.1879  163.4580 H   0  0  0  0  0  0  0  0  0  0  0  0
  157.1303  136.1585  162.1420 H   0  0  0  0  0  0  0  0  0  0  0  0
  157.6791  137.2217  164.3524 H   0  0  0  0  0  0  0  0  0  0  0  0
  156.5446  138.2589  163.5116 H   0  0  0  0  0  0  0  0  0  0  0  0
  153.7589  137.1036  165.5280 H   0  0  0  0  0  0  0  0  0  0  0  0
  154.1874  138.2065  164.2404 H   0  0  0  0  0  0  0  0  0  0  0  0
  153.0439  136.1488  163.3164 H   0  0  0  0  0  0  0  0  0  0  0  0
  154.2097  135.1344  164.1111 H   0  0  0  0  0  0  0  0  0  0  0  0
  154.8880  135.2987  161.9603 H   0  0  0  0  0  0  0  0  0  0  0  0
  1  2  1  0  0  0  0
  1 30  1  0  0  0  0
  1 31  1  0  0  0  0
  1 32  1  0  0  0  0
  2 23  1  0  0  0  0
  2  3  1  0  0  0  0
  2 33  1  0  0  0  0
  3  4  1  0  0  0  0
  3 34  1  0  0  0  0
  3 35  1  0  0  0  0
  4  5  1  0  0  0  0
  4 22  1  0  0  0  0
  5 10  1  0  0  0  0
  5  6  2  0  0  0  0
  6  7  1  0  0  0  0
  7  8  2  0  0  0  0
  7 36  1  0  0  0  0
  8  9  1  0  0  0  0
  9 13  1  0  0  0  0
  9 10  2  0  0  0  0
 10 11  1  0  0  0  0
 11 12  2  0  0  0  0
 12 13  1  0  0  0  0
 12 37  1  0  0  0  0
 13 14  1  0  0  0  0
 14 21  1  0  0  0  0
 14 15  1  0  0  0  0
 14 38  1  0  0  0  0
 15 16  1  0  0  0  0
 15 39  1  0  0  0  0
 15 40  1  0  0  0  0
 16 17  1  0  0  0  0
 16 19  1  0  0  0  0
 16 21  1  0  0  0  0
 17 18  1  0  0  0  0
 17 41  1  0  0  0  0
 17 42  1  0  0  0  0
 18 43  1  0  0  0  0
 19 20  1  0  0  0  0
 19 44  1  0  0  0  0
 19 45  1  0  0  0  0
 20 46  1  0  0  0  0
 21 47  1  0  0  0  0
 21 48  1  0  0  0  0
 22 23  1  0  0  0  0
 22 49  1  0  0  0  0
 22 50  1  0  0  0  0
 23 24  1  0  0  0  0
 23 51  1  0  0  0  0
 24 29  1  0  0  0  0
 24 25  1  0  0  0  0
 24 60  1  0  0  0  0
 25 26  1  0  0  0  0
 25 52  1  0  0  0  0
 25 53  1  0  0  0  0
 26 27  1  0  0  0  0
 26 54  1  0  0  0  0
 26 55  1  0  0  0  0
 27 28  1  0  0  0  0
 28 29  1  0  0  0  0
 28 56  1  0  0  0  0
 28 57  1  0  0  0  0
 29 58  1  0  0  0  0
 29 59  1  0  0  0  0
M  CHG  1  24   1
M  END
> <s_m_source_file>
AV-unprocessed.smi

> <i_m_source_file_index>
149

> <i_lp_mmshare_version>
43012

> <i_f3d_flags>
0

> <s_epik_input>
W0NIMl0xW0NIMl1PW0NIMl1bQ0gyXU4xW0NAQEhdMltDSDJdTihbQ0gyXVtDQEhdMltDSDNdKWMobltjSF1uMyljKGMzNCluW2NIXW40W0NIXShbQ0gyXTUpW0NIMl1DNShbQ0gyXVtPSF0pW0NIMl1bT0hd

> <s_epik_cmdline>
J2VwaWtfcHl0aG9uJywgJy1waCcsICc3LjAnLCAnLXRuJywgJzgnLCAnLW1hJywgJzIwMCcsICctbWV0YWxfYmluZGluZycsICctaW1hZScsICc8aW5maWxlLm1hZT4nLCAnLW9tYWUnLCAnPG91dGZpbGUubWFlPic=

> <r_lp_tautomer_probability>
1

> <r_epik_Ionization_Penalty>
0.404847

> <r_epik_Ionization_Penalty_Charging>
0.404623

> <r_epik_Ionization_Penalty_Neutral>
0.000224096

> <r_epik_State_Penalty>
0.238803

> <r_epik_Charging_Adjusted_Penalty>
0.643425

> <i_epik_Tot_Q>
1

> <i_epik_Tot_abs_Q>
1

> <r_epik_Metal_State_Penalty>
0.239083

> <b_epik_Metal_Only>
0

> <s_lp_Force_Field>
OPLS_2005

> <r_lp_Energy>
72.409

> <b_lp_Chiralities_Consistent>
1

> <s_lp_Variant>
AV-unprocessed.smi:149-1

> <Gold.Version>
5.8.1

> <Gold.Id.Protein>
6NUR|6NUR_protein|mol2

> <Gold.PLP.Fitness>
46.8097

> <Gold.PLP.PLP>
-36.4308

> <Gold.PLP.part.hbond>
-3.9546

> <Gold.PLP.part.metal>
0.0000

> <Gold.PLP.part.buried>
-5.0934

> <Gold.PLP.part.nonpolar>
-28.1530

> <Gold.PLP.part.repulsive>
0.0882

> <Gold.PLP.ligand.clash>
0.0000

> <Gold.PLP.ligand.torsion>
1.1640

> <Gold.PLP.Chemscore.Hbond>
3.9750

> <Gold.PLP.Chemscore.CHOScore>
0.0000

> <Gold.PLP.Chemscore.Metal>
0.0000

> <Gold.Chemscore.Hbonds>
donor molecule, donor type, donor heavy atom, donor atom, acceptor molecule, acceptor atom, score
      L1  H    18    43       P1  8028  1.00
      L1  H    20    46       P1 10175  0.99
      P1  H  6896  6909       L1     6  1.00
      P1  H  7997  8009       L1    11  1.00

> <Gold.PLP.Chemscore.Internal.Correction>
0.7820

> <Gold.Rescore>
     Score         DG    S(hbond)    S(metal)    S(lipo)     H(rot)  DE(clash)    DE(int)     intcor
     15.45     -16.69       3.04        0.00      76.69       3.09       0.04       1.21       ----

> <Gold.Chemscore.Fitness>
15.4461

> <Gold.Chemscore.DG>
-16.6917

> <Gold.Chemscore.ZeroCoef>
-5.4800

> <Gold.Chemscore.Hbond>
3.0396

> <Gold.Chemscore.Metal>
0.0000

> <Gold.Chemscore.Lipo>
76.6913

> <Gold.Chemscore.Internal_Hbond>
0.0000

> <Gold.Chemscore.DEClash>
0.0402

> <Gold.Chemscore.DEInternal>
1.2053

> <Gold.Chemscore.Rot>
3.0912

> <Gold.Chemscore.Internal.Correction>
   9.000000E+99

> <Gold.Chemscore.Hbonds>
donor molecule, donor type, donor heavy atom, donor atom, acceptor molecule, acceptor atom, score
      L1  H    18    43       P1  8028  0.64
      L1  H    20    46       P1 10175  0.94
      P1  H  6896  6909       L1     6  0.40
      P1  H  7997  8009       L1    11  0.62

> <Gold.Chemscore.Hbond.Weighted>
-10.1523

> <Gold.Chemscore.Metal.Weighted>
-0.0000

> <Gold.Chemscore.Lipo.Weighted>
-8.9729

> <Gold.Chemscore.Internal_Hbond.Weighted>
0.0000

> <Gold.Chemscore.DEClash.Weighted>
0.0402

> <Gold.Chemscore.DEInternal.Weighted>
1.2053

> <Gold.Chemscore.Rot.Weighted>
7.9135

> <Gold.Chemscore.Internal.Correction.Weighted>
   9.000000E+99

> <Gold.Protein.RotatedTorsions>
[ 6907 6896 6895 6894 ] final  105.55 input  -60.11 | X-H torsion
[ 7974 7965 7964 7962 ] final  -36.71 input  175.53 | X-H torsion
[ 8008 7997 7996 7995 ] final  176.90 input   59.86 | X-H torsion
[ 10167 10162 10161 10158 ] final  -63.02 input  -65.29 | X-H torsion
[ 10718 10713 10712 10709 ] final  132.98 input   66.30 | X-H torsion
[ 10763 10752 10751 10750 ] final  176.00 input  -60.55 | X-H torsion
[ 11005 11000 10999 10996 ] final  118.27 input  -57.11 | X-H torsion

> <Gold.Protein.ActiveResidues>
 VAL166  LYS551  ARG553  GLY616  TRP617  ASP618  TYR619  PRO620  LYS621  CYS622 
 ASP623  PHE694  ASN695  SER759  ASP760  ASP761  ALA762  ILE779  LEU786  VAL792 
 PHE793  MET794  SER795  GLU796  ALA797  LYS798  CYS799  TRP800  GLU811  SER814 

> <Gold.Protein.RotatedAtoms>
  152.5226  133.9512  159.7672 H   0  0  0  0  0  0  0  0  0  0  0  0  # atno 6907 bound_to 6896
  150.9822  133.6226  159.2728 H   0  0  0  0  0  0  0  0  0  0  0  0  # atno 6908 bound_to 6896
  151.3399  135.0867  159.9420 H   0  0  0  0  0  0  0  0  0  0  0  0  # atno 6909 bound_to 6896
  146.0638  140.6311  142.8984 H   0  0  0  0  0  0  0  0  0  0  0  0  # atno 7974 bound_to 7965
  156.0714  140.1372  156.9823 H   0  0  0  0  0  0  0  0  0  0  0  0  # atno 8008 bound_to 7997
  154.4534  140.0971  156.6737 H   0  0  0  0  0  0  0  0  0  0  0  0  # atno 8009 bound_to 7997
  155.5221  140.3456  155.4411 H   0  0  0  0  0  0  0  0  0  0  0  0  # atno 8010 bound_to 7997
  140.5899  143.2340  151.6161 H   0  0  0  0  0  0  0  0  0  0  0  0  # atno 10167 bound_to 10162
  157.4818  131.1086  150.9672 H   0  0  0  0  0  0  0  0  0  0  0  0  # atno 10718 bound_to 10713
  154.4752  135.2772  155.1612 H   0  0  0  0  0  0  0  0  0  0  0  0  # atno 10763 bound_to 10752
  154.3345  135.6183  153.5570 H   0  0  0  0  0  0  0  0  0  0  0  0  # atno 10764 bound_to 10752
  152.9869  135.5773  154.5142 H   0  0  0  0  0  0  0  0  0  0  0  0  # atno 10765 bound_to 10752
  139.9103  134.9618  156.7477 H   0  0  0  0  0  0  0  0  0  0  0  0  # atno 11005 bound_to 11000
  144.7190  140.4309  143.7022 LP  0  0  0  0  0  0  0  0  0  0  0  0  # atno 17320 bound_to 7965
  145.6513  139.1565  143.2860 LP  0  0  0  0  0  0  0  0  0  0  0  0  # atno 17321 bound_to 7965
  139.5221  144.3172  152.0942 LP  0  0  0  0  0  0  0  0  0  0  0  0  # atno 17342 bound_to 10162
  140.2335  144.4343  150.6290 LP  0  0  0  0  0  0  0  0  0  0  0  0  # atno 17343 bound_to 10162
  157.0403  130.5746  149.5355 LP  0  0  0  0  0  0  0  0  0  0  0  0  # atno 17370 bound_to 10713
  156.0125  130.5218  150.8034 LP  0  0  0  0  0  0  0  0  0  0  0  0  # atno 17371 bound_to 10713
  140.6798  133.9484  155.7904 LP  0  0  0  0  0  0  0  0  0  0  0  0  # atno 17394 bound_to 11000
  141.0518  134.0474  157.3774 LP  0  0  0  0  0  0  0  0  0  0  0  0  # atno 17395 bound_to 11000

$$$$
