AV-unprocessed.smi:716|AV-procd|sdf|3489|dock3
  -GOLD-   22720 0483D 1   1.00000     0.00000
 Structure written by MMmdl.
 48 50  0  0  0  0  0  0  0  0  1 V2000
  152.1006  142.8295  159.4929 C   0  0  0  0  0  0  0  0  0  0  0  0
  152.4205  141.5013  158.8038 C   0  0  0  0  0  0  0  0  0  0  0  0
  151.3983  141.2163  157.8634 O   0  0  0  0  0  0  0  0  0  0  0  0
  151.4797  139.8996  157.3326 C   0  0  1  0  0  0  0  0  0  0  0  0
  151.2123  138.8330  158.4032 C   0  0  0  0  0  0  0  0  0  0  0  0
  149.7316  138.9687  158.0422 C   0  0  2  0  0  0  0  0  0  0  0  0
  149.0341  137.6889  158.0575 N   0  0  0  0  0  0  0  0  0  0  0  0
  149.1168  136.7933  159.0515 C   0  0  0  0  0  0  0  0  0  0  0  0
  149.8698  136.9232  160.0170 O   0  0  0  0  0  0  0  0  0  0  0  0
  148.2006  135.5692  158.9368 C   0  0  0  0  0  0  0  0  0  0  0  0
  147.6224  135.2065  160.2373 N   0  0  0  0  0  0  0  0  0  0  0  0
  147.7469  133.8603  160.5434 N   0  0  0  0  0  0  0  0  0  0  0  0
  147.2405  133.3723  161.6273 C   0  0  0  0  0  0  0  0  0  0  0  0
  147.4056  131.9005  161.8670 C   0  0  0  0  0  0  0  0  0  0  0  0
  146.5464  134.2508  162.5491 C   0  0  0  0  0  0  0  0  0  0  0  0
  146.4301  135.5629  162.2519 C   0  0  0  0  0  0  0  0  0  0  0  0
  146.9829  136.1250  161.0210 C   0  0  0  0  0  0  0  0  0  0  0  0
  146.8762  137.3123  160.7155 O   0  0  0  0  0  0  0  0  0  0  0  0
  150.1707  139.4495  156.6346 C   0  0  0  0  0  0  0  0  0  0  0  0
  150.3450  138.4276  155.5024 C   0  0  0  0  0  0  0  0  0  0  0  0
  150.4825  139.2229  154.2016 C   0  0  0  0  0  0  0  0  0  0  0  0
  149.8310  140.5815  154.4793 C   0  0  0  0  0  0  0  0  0  0  0  0
  149.3346  140.5136  155.9259 C   0  0  0  0  0  0  0  0  0  0  0  0
  152.8688  143.0847  160.2231 H   0  0  0  0  0  0  0  0  0  0  0  0
  151.1452  142.7787  160.0161 H   0  0  0  0  0  0  0  0  0  0  0  0
  152.0439  143.6427  158.7688 H   0  0  0  0  0  0  0  0  0  0  0  0
  153.3849  141.5668  158.2981 H   0  0  0  0  0  0  0  0  0  0  0  0
  152.4915  140.7061  159.5471 H   0  0  0  0  0  0  0  0  0  0  0  0
  152.3747  139.7288  156.7315 H   0  0  0  0  0  0  0  0  0  0  0  0
  151.6400  137.8618  158.1467 H   0  0  0  0  0  0  0  0  0  0  0  0
  151.4570  139.1220  159.4255 H   0  0  0  0  0  0  0  0  0  0  0  0
  149.2411  139.7546  158.6216 H   0  0  0  0  0  0  0  0  0  0  0  0
  148.4017  137.4998  157.2932 H   0  0  0  0  0  0  0  0  0  0  0  0
  147.3942  135.7735  158.2294 H   0  0  0  0  0  0  0  0  0  0  0  0
  148.7681  134.7462  158.4998 H   0  0  0  0  0  0  0  0  0  0  0  0
  146.8424  131.5773  162.7427 H   0  0  0  0  0  0  0  0  0  0  0  0
  148.4541  131.6505  162.0317 H   0  0  0  0  0  0  0  0  0  0  0  0
  147.0503  131.3245  161.0116 H   0  0  0  0  0  0  0  0  0  0  0  0
  146.1302  133.8518  163.4625 H   0  0  0  0  0  0  0  0  0  0  0  0
  145.9130  136.2159  162.9391 H   0  0  0  0  0  0  0  0  0  0  0  0
  151.1997  137.7681  155.6560 H   0  0  0  0  0  0  0  0  0  0  0  0
  149.4656  137.7878  155.4220 H   0  0  0  0  0  0  0  0  0  0  0  0
  151.5351  139.3610  153.9517 H   0  0  0  0  0  0  0  0  0  0  0  0
  150.0110  138.7046  153.3659 H   0  0  0  0  0  0  0  0  0  0  0  0
  150.5721  141.3748  154.3737 H   0  0  0  0  0  0  0  0  0  0  0  0
  149.0167  140.7966  153.7866 H   0  0  0  0  0  0  0  0  0  0  0  0
  148.2845  140.2192  155.9297 H   0  0  0  0  0  0  0  0  0  0  0  0
  149.3808  141.4894  156.4089 H   0  0  0  0  0  0  0  0  0  0  0  0
  1  2  1  0  0  0  0
  1 24  1  0  0  0  0
  1 25  1  0  0  0  0
  1 26  1  0  0  0  0
  2  3  1  0  0  0  0
  2 27  1  0  0  0  0
  2 28  1  0  0  0  0
  3  4  1  0  0  0  0
  4 19  1  0  0  0  0
  4  5  1  0  0  0  0
  4 29  1  0  0  0  0
  5  6  1  0  0  0  0
  5 30  1  0  0  0  0
  5 31  1  0  0  0  0
  6  7  1  0  0  0  0
  6 19  1  0  0  0  0
  6 32  1  0  0  0  0
  7  8  1  0  0  0  0
  7 33  1  0  0  0  0
  8  9  2  0  0  0  0
  8 10  1  0  0  0  0
 10 11  1  0  0  0  0
 10 34  1  0  0  0  0
 10 35  1  0  0  0  0
 11 17  1  0  0  0  0
 11 12  1  0  0  0  0
 12 13  2  0  0  0  0
 13 14  1  0  0  0  0
 13 15  1  0  0  0  0
 14 36  1  0  0  0  0
 14 37  1  0  0  0  0
 14 38  1  0  0  0  0
 15 16  2  0  0  0  0
 15 39  1  0  0  0  0
 16 17  1  0  0  0  0
 16 40  1  0  0  0  0
 17 18  2  0  0  0  0
 19 23  1  0  0  0  0
 19 20  1  0  0  0  0
 20 21  1  0  0  0  0
 20 41  1  0  0  0  0
 20 42  1  0  0  0  0
 21 22  1  0  0  0  0
 21 43  1  0  0  0  0
 21 44  1  0  0  0  0
 22 23  1  0  0  0  0
 22 45  1  0  0  0  0
 22 46  1  0  0  0  0
 23 47  1  0  0  0  0
 23 48  1  0  0  0  0
M  END
> <s_m_source_file>
AV-unprocessed.smi

> <i_m_source_file_index>
716

> <i_lp_mmshare_version>
43012

> <i_f3d_flags>
0

> <s_epik_input>
W0NIMl0xW0NIMl1bQ0gyXVtDSDJdQzEyW0NASF0oT1tDSDJdW0NIM10pW0NIMl1bQ0BIXTJbTkhdQyg9TylbQ0gyXW4zbmMoW0NIM10pW2NIXVtjSF1jMz1P

> <s_epik_cmdline>
J2VwaWtfcHl0aG9uJywgJy1waCcsICc3LjAnLCAnLXRuJywgJzgnLCAnLW1hJywgJzIwMCcsICctbWV0YWxfYmluZGluZycsICctaW1hZScsICc8aW5maWxlLm1hZT4nLCAnLW9tYWUnLCAnPG91dGZpbGUubWFlPic=

> <r_lp_tautomer_probability>
1

> <r_epik_Ionization_Penalty>
4.75561e-08

> <r_epik_Ionization_Penalty_Charging>
2.86617e-08

> <r_epik_Ionization_Penalty_Neutral>
1.88944e-08

> <r_epik_State_Penalty>
-0

> <r_epik_Charging_Adjusted_Penalty>
2.86617e-08

> <i_epik_Tot_Q>
0

> <i_epik_Tot_abs_Q>
0

> <r_epik_Metal_State_Penalty>
-0

> <b_epik_Metal_Only>
0

> <s_lp_Force_Field>
OPLS_2005

> <r_lp_Energy>
50.6956

> <b_lp_Chiralities_Consistent>
1

> <s_lp_Variant>
AV-unprocessed.smi:716-4

> <Gold.Version>
5.8.1

> <Gold.Id.Protein>
6NUR|6NUR_protein|mol2

> <Gold.PLP.Fitness>
48.6123

> <Gold.PLP.PLP>
-41.2085

> <Gold.PLP.part.hbond>
-3.7853

> <Gold.PLP.part.metal>
0.0000

> <Gold.PLP.part.buried>
-2.2740

> <Gold.PLP.part.nonpolar>
-36.2258

> <Gold.PLP.part.repulsive>
0.1493

> <Gold.PLP.ligand.clash>
0.0000

> <Gold.PLP.ligand.torsion>
0.7145

> <Gold.PLP.Chemscore.Hbond>
2.8080

> <Gold.PLP.Chemscore.CHOScore>
0.0000

> <Gold.PLP.Chemscore.Metal>
0.0000

> <Gold.Chemscore.Hbonds>
donor molecule, donor type, donor heavy atom, donor atom, acceptor molecule, acceptor atom, score
      P1  H  6896  6909       L1     9  0.44
      P1  H  6931  6943       L1     9  0.01
      P1  H  6934  6947       L1    18  1.00

> <Gold.PLP.Chemscore.Internal.Correction>
0.4089

> <Gold.Rescore>
     Score         DG    S(hbond)    S(metal)    S(lipo)     H(rot)  DE(clash)    DE(int)     intcor
     17.83     -20.97       2.72        0.00      92.87       1.73       0.38       2.76       ----

> <Gold.Chemscore.Fitness>
17.8345

> <Gold.Chemscore.DG>
-20.9744

> <Gold.Chemscore.ZeroCoef>
-5.4800

> <Gold.Chemscore.Hbond>
2.7154

> <Gold.Chemscore.Metal>
0.0000

> <Gold.Chemscore.Lipo>
92.8712

> <Gold.Chemscore.Internal_Hbond>
0.0000

> <Gold.Chemscore.DEClash>
0.3822

> <Gold.Chemscore.DEInternal>
2.7577

> <Gold.Chemscore.Rot>
1.7348

> <Gold.Chemscore.Internal.Correction>
   9.000000E+99

> <Gold.Chemscore.Hbonds>
donor molecule, donor type, donor heavy atom, donor atom, acceptor molecule, acceptor atom, score
      P1  H  6896  6909       L1     9  0.22
      P1  H  6931  6943       L1     9  0.03
      P1  H  6934  6947       L1    18  1.00

> <Gold.Chemscore.Hbond.Weighted>
-9.0696

> <Gold.Chemscore.Metal.Weighted>
-0.0000

> <Gold.Chemscore.Lipo.Weighted>
-10.8659

> <Gold.Chemscore.Internal_Hbond.Weighted>
0.0000

> <Gold.Chemscore.DEClash.Weighted>
0.3822

> <Gold.Chemscore.DEInternal.Weighted>
2.7577

> <Gold.Chemscore.Rot.Weighted>
4.4411

> <Gold.Chemscore.Internal.Correction.Weighted>
   9.000000E+99

> <Gold.Protein.RotatedTorsions>
[ 6907 6896 6895 6894 ] final  100.92 input  -60.11 | X-H torsion
[ 7974 7965 7964 7962 ] final  -58.09 input  175.53 | X-H torsion
[ 8008 7997 7996 7995 ] final -130.27 input   59.86 | X-H torsion
[ 10167 10162 10161 10158 ] final  147.49 input  -65.29 | X-H torsion
[ 10718 10713 10712 10709 ] final  -51.78 input   66.30 | X-H torsion
[ 10763 10752 10751 10750 ] final   82.67 input  -60.55 | X-H torsion
[ 11005 11000 10999 10996 ] final -151.48 input  -57.11 | X-H torsion

> <Gold.Protein.ActiveResidues>
 VAL166  LYS551  ARG553  GLY616  TRP617  ASP618  TYR619  PRO620  LYS621  CYS622 
 ASP623  PHE694  ASN695  SER759  ASP760  ASP761  ALA762  ILE779  LEU786  VAL792 
 PHE793  MET794  SER795  GLU796  ALA797  LYS798  CYS799  TRP800  GLU811  SER814 

> <Gold.Protein.RotatedAtoms>
  152.5361  134.0204  159.7978 H   0  0  0  0  0  0  0  0  0  0  0  0  # atno 6907 bound_to 6896
  151.0391  133.5714  159.2660 H   0  0  0  0  0  0  0  0  0  0  0  0  # atno 6908 bound_to 6896
  151.2690  135.0686  159.9181 H   0  0  0  0  0  0  0  0  0  0  0  0  # atno 6909 bound_to 6896
  145.8434  140.8402  143.0023 H   0  0  0  0  0  0  0  0  0  0  0  0  # atno 7974 bound_to 7965
  155.2930  140.0449  157.3024 H   0  0  0  0  0  0  0  0  0  0  0  0  # atno 8008 bound_to 7997
  154.5530  140.2323  155.8422 H   0  0  0  0  0  0  0  0  0  0  0  0  # atno 8009 bound_to 7997
  156.1983  140.3032  155.9481 H   0  0  0  0  0  0  0  0  0  0  0  0  # atno 8010 bound_to 7997
  139.4889  144.5751  151.6980 H   0  0  0  0  0  0  0  0  0  0  0  0  # atno 10167 bound_to 10162
  156.1679  130.4149  149.9691 H   0  0  0  0  0  0  0  0  0  0  0  0  # atno 10718 bound_to 10713
  153.1223  135.4719  154.9216 H   0  0  0  0  0  0  0  0  0  0  0  0  # atno 10763 bound_to 10752
  154.7587  135.3125  154.8422 H   0  0  0  0  0  0  0  0  0  0  0  0  # atno 10764 bound_to 10752
  153.8983  135.6877  153.4810 H   0  0  0  0  0  0  0  0  0  0  0  0  # atno 10765 bound_to 10752
  140.7291  134.3641  157.5170 H   0  0  0  0  0  0  0  0  0  0  0  0  # atno 11005 bound_to 11000
  144.6732  140.0846  143.7468 LP  0  0  0  0  0  0  0  0  0  0  0  0  # atno 17320 bound_to 7965
  145.9440  139.2688  143.1252 LP  0  0  0  0  0  0  0  0  0  0  0  0  # atno 17321 bound_to 7965
  140.5346  144.0676  150.6066 LP  0  0  0  0  0  0  0  0  0  0  0  0  # atno 17342 bound_to 10162
  140.3678  143.2872  152.0312 LP  0  0  0  0  0  0  0  0  0  0  0  0  # atno 17343 bound_to 10162
  156.7500  130.9112  151.3637 LP  0  0  0  0  0  0  0  0  0  0  0  0  # atno 17370 bound_to 10713
  157.6782  130.9114  150.0201 LP  0  0  0  0  0  0  0  0  0  0  0  0  # atno 17371 bound_to 10713
  139.8830  134.9006  156.2792 LP  0  0  0  0  0  0  0  0  0  0  0  0  # atno 17394 bound_to 11000
  140.9937  133.7193  156.0853 LP  0  0  0  0  0  0  0  0  0  0  0  0  # atno 17395 bound_to 11000

$$$$
